
     RDKit          3D

 63 71  0  0  0  0  0  0  0  0999 V2000
   -8.7004   -1.0936   -0.6546 C   0  0  0  0  0  0  0  0  0  0  0  0
   -8.4537    0.2788   -0.5854 C   0  0  0  0  0  0  0  0  0  0  0  0
   -7.1581    0.7491   -0.3534 C   0  0  0  0  0  0  0  0  0  0  0  0
   -6.1015   -0.1568   -0.1574 C   0  0  0  0  0  0  0  0  0  0  0  0
   -6.3402   -1.5414   -0.3199 C   0  0  0  0  0  0  0  0  0  0  0  0
   -7.6451   -2.0000   -0.5342 C   0  0  0  0  0  0  0  0  0  0  0  0
   -5.2905   -2.4777   -0.3111 O   0  0  0  0  0  0  0  0  0  0  0  0
   -3.9318   -2.1269   -0.2651 C   0  0  0  0  0  0  0  0  0  0  0  0
   -2.9569   -3.1106   -0.4454 C   0  0  0  0  0  0  0  0  0  0  0  0
   -1.6006   -2.7701   -0.4290 C   0  0  0  0  0  0  0  0  0  0  0  0
   -1.1975   -1.4385   -0.2154 C   0  0  0  0  0  0  0  0  0  0  0  0
    0.2463   -1.1047   -0.1858 C   0  0  0  0  0  0  0  0  0  0  0  0
    0.7857   -0.3533    0.8735 C   0  0  0  0  0  0  0  0  0  0  0  0
    2.1473   -0.0406    0.8964 C   0  0  0  0  0  0  0  0  0  0  0  0
    2.9867   -0.4776   -0.1352 C   0  0  0  0  0  0  0  0  0  0  0  0
    4.3855   -0.1496   -0.1139 N   0  0  0  0  0  0  0  0  0  0  0  0
    5.3530   -1.1019    0.3915 C   0  0  0  0  0  0  0  0  0  0  0  0
    4.9694   -2.3668    0.8852 C   0  0  0  0  0  0  0  0  0  0  0  0
    5.9319   -3.2595    1.3660 C   0  0  0  0  0  0  0  0  0  0  0  0
    7.2821   -2.9044    1.3636 C   0  0  0  0  0  0  0  0  0  0  0  0
    7.6748   -1.6541    0.8824 C   0  0  0  0  0  0  0  0  0  0  0  0
    6.7188   -0.7543    0.3999 C   0  0  0  0  0  0  0  0  0  0  0  0
    7.1287    0.4949   -0.0722 O   0  0  0  0  0  0  0  0  0  0  0  0
    6.2193    1.4344   -0.5637 C   0  0  0  0  0  0  0  0  0  0  0  0
    6.6883    2.6692   -1.0238 C   0  0  0  0  0  0  0  0  0  0  0  0
    5.7937    3.6178   -1.5233 C   0  0  0  0  0  0  0  0  0  0  0  0
    4.4272    3.3349   -1.5664 C   0  0  0  0  0  0  0  0  0  0  0  0
    3.9496    2.1035   -1.1084 C   0  0  0  0  0  0  0  0  0  0  0  0
    4.8420    1.1377   -0.5969 C   0  0  0  0  0  0  0  0  0  0  0  0
    2.4587   -1.2348   -1.1881 C   0  0  0  0  0  0  0  0  0  0  0  0
    1.0974   -1.5499   -1.2123 C   0  0  0  0  0  0  0  0  0  0  0  0
   -2.1790   -0.4437   -0.0237 C   0  0  0  0  0  0  0  0  0  0  0  0
   -3.5355   -0.8010   -0.0504 C   0  0  0  0  0  0  0  0  0  0  0  0
   -4.6181    0.2902    0.1510 B   0  0  0  0  0  0  0  0  0  0  0  0
   -4.0848    1.6969    0.6289 C   0  0  0  0  0  0  0  0  0  0  0  0
   -4.9088    2.6908    1.1842 C   0  0  0  0  0  0  0  0  0  0  0  0
   -4.3693    3.9275    1.5497 C   0  0  0  0  0  0  0  0  0  0  0  0
   -3.0035    4.1713    1.3940 C   0  0  0  0  0  0  0  0  0  0  0  0
   -2.1649    3.1644    0.9114 C   0  0  0  0  0  0  0  0  0  0  0  0
   -2.6902    1.9160    0.5595 C   0  0  0  0  0  0  0  0  0  0  0  0
   -1.8009    0.8952    0.1803 O   0  0  0  0  0  0  0  0  0  0  0  0
   -9.7050   -1.4539   -0.8346 H   0  0  0  0  0  0  0  0  0  0  0  0
   -9.2659    0.9803   -0.7259 H   0  0  0  0  0  0  0  0  0  0  0  0
   -6.9914    1.8145   -0.3788 H   0  0  0  0  0  0  0  0  0  0  0  0
   -7.8358   -3.0608   -0.6362 H   0  0  0  0  0  0  0  0  0  0  0  0
   -3.2505   -4.1397   -0.6085 H   0  0  0  0  0  0  0  0  0  0  0  0
   -0.8624   -3.5505   -0.5679 H   0  0  0  0  0  0  0  0  0  0  0  0
    0.1560   -0.0204    1.6893 H   0  0  0  0  0  0  0  0  0  0  0  0
    2.5517    0.5397    1.7161 H   0  0  0  0  0  0  0  0  0  0  0  0
    3.9315   -2.6704    0.9041 H   0  0  0  0  0  0  0  0  0  0  0  0
    5.6296   -4.2284    1.7421 H   0  0  0  0  0  0  0  0  0  0  0  0
    8.0244   -3.5981    1.7369 H   0  0  0  0  0  0  0  0  0  0  0  0
    8.7226   -1.3819    0.8851 H   0  0  0  0  0  0  0  0  0  0  0  0
    7.7472    2.8919   -0.9948 H   0  0  0  0  0  0  0  0  0  0  0  0
    6.1600    4.5721   -1.8790 H   0  0  0  0  0  0  0  0  0  0  0  0
    3.7362    4.0710   -1.9564 H   0  0  0  0  0  0  0  0  0  0  0  0
    2.8859    1.9139   -1.1588 H   0  0  0  0  0  0  0  0  0  0  0  0
    3.1037   -1.5762   -1.9877 H   0  0  0  0  0  0  0  0  0  0  0  0
    0.7047   -2.1286   -2.0393 H   0  0  0  0  0  0  0  0  0  0  0  0
   -5.9531    2.5111    1.3859 H   0  0  0  0  0  0  0  0  0  0  0  0
   -5.0093    4.6936    1.9679 H   0  0  0  0  0  0  0  0  0  0  0  0
   -2.5892    5.1299    1.6784 H   0  0  0  0  0  0  0  0  0  0  0  0
   -1.0996    3.3431    0.8380 H   0  0  0  0  0  0  0  0  0  0  0  0
  1  2  2  0
  1  6  1  0
  1 42  1  0
  2  3  1  0
  2 43  1  0
  3  4  2  0
  3 44  1  0
  4  5  1  0
  4 34  1  0
  5  6  2  0
  5  7  1  0
  6 45  1  0
  7  8  1  0
  8  9  2  0
  8 33  1  0
  9 10  1  0
  9 46  1  0
 10 11  2  0
 10 47  1  0
 11 12  1  0
 11 32  1  0
 12 13  2  0
 12 31  1  0
 13 14  1  0
 13 48  1  0
 14 15  2  0
 14 49  1  0
 15 16  1  0
 15 30  1  0
 16 17  1  0
 16 29  1  0
 17 18  2  0
 17 22  1  0
 18 19  1  0
 18 50  1  0
 19 20  2  0
 19 51  1  0
 20 21  1  0
 20 52  1  0
 21 22  2  0
 21 53  1  0
 22 23  1  0
 23 24  1  0
 24 25  2  0
 24 29  1  0
 25 26  1  0
 25 54  1  0
 26 27  2  0
 26 55  1  0
 27 28  1  0
 27 56  1  0
 28 29  2  0
 28 57  1  0
 30 31  2  0
 30 58  1  0
 31 59  1  0
 32 33  2  0
 32 41  1  0
 33 34  1  0
 34 35  1  0
 35 36  1  0
 35 40  2  0
 36 37  2  0
 36 60  1  0
 37 38  1  0
 37 61  1  0
 38 39  2  0
 38 62  1  0
 39 40  1  0
 39 63  1  0
 40 41  1  0
M  END

