
     RDKit          3D

 90 98  0  0  0  0  0  0  0  0999 V2000
   -7.2225    2.9209   -1.1236 C   0  0  0  0  0  0  0  0  0  0  0  0
   -6.0991    2.5840   -0.1071 C   0  0  2  0  0  0  0  0  0  0  0  0
   -6.1025    3.6371    1.0328 C   0  0  0  0  0  0  0  0  0  0  0  0
   -4.7439    2.6300   -0.8269 C   0  0  0  0  0  0  0  0  0  0  0  0
   -4.3267    3.8252   -1.4329 C   0  0  0  0  0  0  0  0  0  0  0  0
   -3.1118    3.9465   -2.1066 C   0  0  0  0  0  0  0  0  0  0  0  0
   -2.2730    2.8339   -2.1834 C   0  0  0  0  0  0  0  0  0  0  0  0
   -2.6544    1.6320   -1.5943 C   0  0  0  0  0  0  0  0  0  0  0  0
   -3.8851    1.5105   -0.9120 C   0  0  0  0  0  0  0  0  0  0  0  0
   -4.2446    0.2828   -0.3262 N   0  0  0  0  0  0  0  0  0  0  0  0
   -3.3533   -0.8314   -0.4383 C   0  0  0  0  0  0  0  0  0  0  0  0
   -2.3674   -1.0493    0.5341 C   0  0  0  0  0  0  0  0  0  0  0  0
   -1.4956   -2.1314    0.4247 C   0  0  0  0  0  0  0  0  0  0  0  0
   -1.5985   -3.0260   -0.6565 C   0  0  0  0  0  0  0  0  0  0  0  0
   -0.7379   -4.2331   -0.7566 C   0  0  0  0  0  0  0  0  0  0  0  0
   -1.3335   -5.3302   -1.2278 N   0  0  0  0  0  0  0  0  0  0  0  0
   -0.7105   -6.5056   -1.1790 C   0  0  0  0  0  0  0  0  0  0  0  0
   -1.3712   -7.6478   -1.7588 C   0  0  0  0  0  0  0  0  0  0  0  0
   -1.8962   -8.5691   -2.2284 N   0  0  0  0  0  0  0  0  0  0  0  0
    0.5544   -6.6070   -0.5512 C   0  0  0  0  0  0  0  0  0  0  0  0
    1.1852   -7.8785   -0.3009 C   0  0  0  0  0  0  0  0  0  0  0  0
    1.6862   -8.9045   -0.0973 N   0  0  0  0  0  0  0  0  0  0  0  0
    1.2055   -5.5031   -0.1909 N   0  0  0  0  0  0  0  0  0  0  0  0
    0.6382   -4.3058   -0.3487 C   0  0  0  0  0  0  0  0  0  0  0  0
    1.5279   -3.1373   -0.1243 C   0  0  0  0  0  0  0  0  0  0  0  0
    2.5344   -3.2138    0.8559 C   0  0  0  0  0  0  0  0  0  0  0  0
    3.4195   -2.1544    1.0486 C   0  0  0  0  0  0  0  0  0  0  0  0
    3.3344   -1.0066    0.2491 C   0  0  0  0  0  0  0  0  0  0  0  0
    4.2513    0.0760    0.4379 N   0  0  0  0  0  0  0  0  0  0  0  0
    3.9146    1.1128    1.3275 C   0  0  0  0  0  0  0  0  0  0  0  0
    2.6836    1.0759    2.0189 C   0  0  0  0  0  0  0  0  0  0  0  0
    2.3242    2.0876    2.9046 C   0  0  0  0  0  0  0  0  0  0  0  0
    3.1860    3.1631    3.1232 C   0  0  0  0  0  0  0  0  0  0  0  0
    4.4014    3.1981    2.4405 C   0  0  0  0  0  0  0  0  0  0  0  0
    4.7968    2.1965    1.5404 C   0  0  0  0  0  0  0  0  0  0  0  0
    6.1543    2.3133    0.8329 C   0  0  2  0  0  0  0  0  0  0  0  0
    7.2793    2.3495    1.9015 C   0  0  0  0  0  0  0  0  0  0  0  0
    6.1837    3.6280    0.0088 C   0  0  0  0  0  0  0  0  0  0  0  0
    6.3980    1.1262   -0.1096 C   0  0  0  0  0  0  0  0  0  0  0  0
    7.5911    1.0662   -0.8464 C   0  0  0  0  0  0  0  0  0  0  0  0
    7.8862    0.0214   -1.7214 C   0  0  0  0  0  0  0  0  0  0  0  0
    6.9583   -1.0097   -1.8733 C   0  0  0  0  0  0  0  0  0  0  0  0
    5.7642   -0.9833   -1.1586 C   0  0  0  0  0  0  0  0  0  0  0  0
    5.4669    0.0754   -0.2723 C   0  0  0  0  0  0  0  0  0  0  0  0
    2.3491   -0.9336   -0.7452 C   0  0  0  0  0  0  0  0  0  0  0  0
    1.4516   -1.9845   -0.9276 C   0  0  0  0  0  0  0  0  0  0  0  0
   -2.6053   -2.8145   -1.6164 C   0  0  0  0  0  0  0  0  0  0  0  0
   -3.4647   -1.7218   -1.5146 C   0  0  0  0  0  0  0  0  0  0  0  0
   -5.4596    0.1204    0.3664 C   0  0  0  0  0  0  0  0  0  0  0  0
   -5.7798   -1.1281    0.9438 C   0  0  0  0  0  0  0  0  0  0  0  0
   -6.9737   -1.3169    1.6338 C   0  0  0  0  0  0  0  0  0  0  0  0
   -7.8787   -0.2628    1.7653 C   0  0  0  0  0  0  0  0  0  0  0  0
   -7.5611    0.9693    1.1948 C   0  0  0  0  0  0  0  0  0  0  0  0
   -6.3675    1.1963    0.4922 C   0  0  0  0  0  0  0  0  0  0  0  0
   -7.2403    2.1867   -1.9433 H   0  0  0  0  0  0  0  0  0  0  0  0
   -7.0747    3.9186   -1.5641 H   0  0  0  0  0  0  0  0  0  0  0  0
   -8.2113    2.9147   -0.6404 H   0  0  0  0  0  0  0  0  0  0  0  0
   -5.9307    4.6505    0.6395 H   0  0  0  0  0  0  0  0  0  0  0  0
   -7.0669    3.6470    1.5629 H   0  0  0  0  0  0  0  0  0  0  0  0
   -5.3128    3.4192    1.7679 H   0  0  0  0  0  0  0  0  0  0  0  0
   -4.9798    4.6987   -1.3759 H   0  0  0  0  0  0  0  0  0  0  0  0
   -2.8270    4.8966   -2.5637 H   0  0  0  0  0  0  0  0  0  0  0  0
   -1.3138    2.8956   -2.7038 H   0  0  0  0  0  0  0  0  0  0  0  0
   -1.9886    0.7729   -1.6627 H   0  0  0  0  0  0  0  0  0  0  0  0
   -2.2951   -0.3645    1.3813 H   0  0  0  0  0  0  0  0  0  0  0  0
   -0.7440   -2.2916    1.1995 H   0  0  0  0  0  0  0  0  0  0  0  0
    2.6162   -4.1165    1.4633 H   0  0  0  0  0  0  0  0  0  0  0  0
    4.1922   -2.2113    1.8179 H   0  0  0  0  0  0  0  0  0  0  0  0
    2.0000    0.2433    1.8592 H   0  0  0  0  0  0  0  0  0  0  0  0
    1.3641    2.0301    3.4239 H   0  0  0  0  0  0  0  0  0  0  0  0
    2.9186    3.9649    3.8149 H   0  0  0  0  0  0  0  0  0  0  0  0
    5.0728    4.0415    2.6155 H   0  0  0  0  0  0  0  0  0  0  0  0
    8.2701    2.4500    1.4331 H   0  0  0  0  0  0  0  0  0  0  0  0
    7.1491    3.1998    2.5879 H   0  0  0  0  0  0  0  0  0  0  0  0
    7.2787    1.4260    2.5003 H   0  0  0  0  0  0  0  0  0  0  0  0
    6.0296    4.5062    0.6539 H   0  0  0  0  0  0  0  0  0  0  0  0
    5.3935    3.6262   -0.7574 H   0  0  0  0  0  0  0  0  0  0  0  0
    7.1507    3.7570   -0.5006 H   0  0  0  0  0  0  0  0  0  0  0  0
    8.3207    1.8706   -0.7308 H   0  0  0  0  0  0  0  0  0  0  0  0
    8.8278    0.0149   -2.2748 H   0  0  0  0  0  0  0  0  0  0  0  0
    7.1588   -1.8438   -2.5505 H   0  0  0  0  0  0  0  0  0  0  0  0
    5.0516   -1.7965   -1.2885 H   0  0  0  0  0  0  0  0  0  0  0  0
    2.2974   -0.0461   -1.3789 H   0  0  0  0  0  0  0  0  0  0  0  0
    0.7007   -1.9143   -1.7164 H   0  0  0  0  0  0  0  0  0  0  0  0
   -2.7080   -3.5202   -2.4421 H   0  0  0  0  0  0  0  0  0  0  0  0
   -4.2377   -1.5534   -2.2672 H   0  0  0  0  0  0  0  0  0  0  0  0
   -5.0853   -1.9617    0.8499 H   0  0  0  0  0  0  0  0  0  0  0  0
   -7.1922   -2.2956    2.0683 H   0  0  0  0  0  0  0  0  0  0  0  0
   -8.8199   -0.3951    2.3034 H   0  0  0  0  0  0  0  0  0  0  0  0
   -8.2731    1.7908    1.2998 H   0  0  0  0  0  0  0  0  0  0  0  0
  2  1  1  6
  1 55  1  0
  1 56  1  0
  1 57  1  0
  2  3  1  0
  2  4  1  0
  2 54  1  0
  3 58  1  0
  3 59  1  0
  3 60  1  0
  4  5  1  0
  4  9  2  0
  5  6  2  0
  5 61  1  0
  6  7  1  0
  6 62  1  0
  7  8  2  0
  7 63  1  0
  8  9  1  0
  8 64  1  0
  9 10  1  0
 10 11  1  0
 10 49  1  0
 11 12  2  0
 11 48  1  0
 12 13  1  0
 12 65  1  0
 13 14  2  0
 13 66  1  0
 14 15  1  0
 14 47  1  0
 15 16  2  0
 15 24  1  0
 16 17  1  0
 17 18  1  0
 17 20  2  0
 18 19  3  0
 20 21  1  0
 20 23  1  0
 21 22  3  0
 23 24  2  0
 24 25  1  0
 25 26  2  0
 25 46  1  0
 26 27  1  0
 26 67  1  0
 27 28  2  0
 27 68  1  0
 28 29  1  0
 28 45  1  0
 29 30  1  0
 29 44  1  0
 30 31  2  0
 30 35  1  0
 31 32  1  0
 31 69  1  0
 32 33  2  0
 32 70  1  0
 33 34  1  0
 33 71  1  0
 34 35  2  0
 34 72  1  0
 35 36  1  0
 36 37  1  1
 36 38  1  0
 36 39  1  0
 37 73  1  0
 37 74  1  0
 37 75  1  0
 38 76  1  0
 38 77  1  0
 38 78  1  0
 39 40  2  0
 39 44  1  0
 40 41  1  0
 40 79  1  0
 41 42  2  0
 41 80  1  0
 42 43  1  0
 42 81  1  0
 43 44  2  0
 43 82  1  0
 45 46  2  0
 45 83  1  0
 46 84  1  0
 47 48  2  0
 47 85  1  0
 48 86  1  0
 49 50  1  0
 49 54  2  0
 50 51  2  0
 50 87  1  0
 51 52  1  0
 51 88  1  0
 52 53  2  0
 52 89  1  0
 53 54  1  0
 53 90  1  0
M  END

