
     RDKit          3D

 81 88  0  0  0  0  0  0  0  0999 V2000
    7.3996    4.4985   -2.5671 C   0  0  0  0  0  0  0  0  0  0  0  0
    6.1495    4.3368   -1.9422 O   0  0  0  0  0  0  0  0  0  0  0  0
    5.8459    3.1383   -1.3717 C   0  0  0  0  0  0  0  0  0  0  0  0
    4.5668    3.0614   -0.7708 C   0  0  0  0  0  0  0  0  0  0  0  0
    4.1251    1.9018   -0.1455 C   0  0  0  0  0  0  0  0  0  0  0  0
    4.9844    0.7936   -0.1128 C   0  0  0  0  0  0  0  0  0  0  0  0
    6.2584    0.8503   -0.7285 C   0  0  0  0  0  0  0  0  0  0  0  0
    6.6957    2.0296   -1.3582 C   0  0  0  0  0  0  0  0  0  0  0  0
    6.8632   -0.4555   -0.5638 C   0  0  0  0  0  0  0  0  0  0  0  0
    8.1125   -0.9805   -0.9413 C   0  0  0  0  0  0  0  0  0  0  0  0
    8.4165   -2.3006   -0.6001 C   0  0  0  0  0  0  0  0  0  0  0  0
    9.5849   -2.9281   -0.9085 O   0  0  0  0  0  0  0  0  0  0  0  0
   10.5726   -2.2220   -1.6190 C   0  0  0  0  0  0  0  0  0  0  0  0
    7.4832   -3.0816    0.1225 C   0  0  0  0  0  0  0  0  0  0  0  0
    6.2463   -2.5734    0.4999 C   0  0  0  0  0  0  0  0  0  0  0  0
    5.9300   -1.2549    0.1401 C   0  0  0  0  0  0  0  0  0  0  0  0
    4.7841   -0.4916    0.4154 N   0  0  0  0  0  0  0  0  0  0  0  0
    3.6343   -0.9365    1.0998 C   0  0  0  0  0  0  0  0  0  0  0  0
    3.1086   -0.1857    2.1677 C   0  0  0  0  0  0  0  0  0  0  0  0
    1.9681   -0.6196    2.8409 C   0  0  0  0  0  0  0  0  0  0  0  0
    1.3512   -1.8118    2.4504 C   0  0  0  0  0  0  0  0  0  0  0  0
   -0.1020   -2.3948    3.3448 S   0  0  2  0  0  0  0  0  0  0  0  0
   -0.0629   -1.7808    4.6806 O   0  0  0  0  0  0  0  0  0  0  0  0
   -0.1684   -3.8522    3.1573 O   0  0  0  0  0  0  0  0  0  0  0  0
   -1.5123   -1.6844    2.4752 C   0  0  0  0  0  0  0  0  0  0  0  0
   -2.0167   -0.4441    2.8773 C   0  0  0  0  0  0  0  0  0  0  0  0
   -3.1261    0.0892    2.2240 C   0  0  0  0  0  0  0  0  0  0  0  0
   -3.7334   -0.6098    1.1639 C   0  0  0  0  0  0  0  0  0  0  0  0
   -4.8518   -0.0661    0.5007 N   0  0  0  0  0  0  0  0  0  0  0  0
   -4.9542    1.2375   -0.0136 C   0  0  0  0  0  0  0  0  0  0  0  0
   -4.0062    2.2705   -0.0523 C   0  0  0  0  0  0  0  0  0  0  0  0
   -4.3603    3.4693   -0.6601 C   0  0  0  0  0  0  0  0  0  0  0  0
   -5.6379    3.6592   -1.2375 C   0  0  0  0  0  0  0  0  0  0  0  0
   -5.8506    4.8840   -1.7923 O   0  0  0  0  0  0  0  0  0  0  0  0
   -7.0942    5.1548   -2.3929 C   0  0  0  0  0  0  0  0  0  0  0  0
   -6.5769    2.6244   -1.2180 C   0  0  0  0  0  0  0  0  0  0  0  0
   -6.2280    1.4081   -0.6061 C   0  0  0  0  0  0  0  0  0  0  0  0
   -6.9398    0.1553   -0.4425 C   0  0  0  0  0  0  0  0  0  0  0  0
   -8.2256   -0.2624   -0.7959 C   0  0  0  0  0  0  0  0  0  0  0  0
   -8.6422   -1.5574   -0.4635 C   0  0  0  0  0  0  0  0  0  0  0  0
   -9.9058   -1.8951   -0.8455 O   0  0  0  0  0  0  0  0  0  0  0  0
  -10.4039   -3.1744   -0.5364 C   0  0  0  0  0  0  0  0  0  0  0  0
   -7.7717   -2.4228    0.2331 C   0  0  0  0  0  0  0  0  0  0  0  0
   -6.4825   -2.0151    0.5913 C   0  0  0  0  0  0  0  0  0  0  0  0
   -6.0623   -0.7307    0.2403 C   0  0  0  0  0  0  0  0  0  0  0  0
   -3.2184   -1.8621    0.7806 C   0  0  0  0  0  0  0  0  0  0  0  0
   -2.1184   -2.4051    1.4421 C   0  0  0  0  0  0  0  0  0  0  0  0
    1.8749   -2.5843    1.4099 C   0  0  0  0  0  0  0  0  0  0  0  0
    3.0066   -2.1397    0.7284 C   0  0  0  0  0  0  0  0  0  0  0  0
    7.5323    3.7996   -3.4137 H   0  0  0  0  0  0  0  0  0  0  0  0
    8.2370    4.3560   -1.8591 H   0  0  0  0  0  0  0  0  0  0  0  0
    7.4306    5.5278   -2.9498 H   0  0  0  0  0  0  0  0  0  0  0  0
    3.9308    3.9475   -0.8169 H   0  0  0  0  0  0  0  0  0  0  0  0
    3.1292    1.8663    0.2978 H   0  0  0  0  0  0  0  0  0  0  0  0
    7.6787    2.0594   -1.8281 H   0  0  0  0  0  0  0  0  0  0  0  0
    8.8213   -0.3541   -1.4826 H   0  0  0  0  0  0  0  0  0  0  0  0
   10.2128   -1.8944   -2.6120 H   0  0  0  0  0  0  0  0  0  0  0  0
   10.9268   -1.3342   -1.0630 H   0  0  0  0  0  0  0  0  0  0  0  0
   11.4159   -2.9122   -1.7579 H   0  0  0  0  0  0  0  0  0  0  0  0
    7.7686   -4.1031    0.3808 H   0  0  0  0  0  0  0  0  0  0  0  0
    5.5529   -3.1932    1.0697 H   0  0  0  0  0  0  0  0  0  0  0  0
    3.6177    0.7256    2.4853 H   0  0  0  0  0  0  0  0  0  0  0  0
    1.5742   -0.0584    3.6902 H   0  0  0  0  0  0  0  0  0  0  0  0
   -1.5616    0.0782    3.7208 H   0  0  0  0  0  0  0  0  0  0  0  0
   -3.5485    1.0403    2.5518 H   0  0  0  0  0  0  0  0  0  0  0  0
   -3.0090    2.1480    0.3723 H   0  0  0  0  0  0  0  0  0  0  0  0
   -3.6529    4.2994   -0.7099 H   0  0  0  0  0  0  0  0  0  0  0  0
   -7.9279    5.0746   -1.6710 H   0  0  0  0  0  0  0  0  0  0  0  0
   -7.2988    4.4778   -3.2429 H   0  0  0  0  0  0  0  0  0  0  0  0
   -7.0464    6.1870   -2.7659 H   0  0  0  0  0  0  0  0  0  0  0  0
   -7.5623    2.7381   -1.6694 H   0  0  0  0  0  0  0  0  0  0  0  0
   -8.9228    0.3943   -1.3196 H   0  0  0  0  0  0  0  0  0  0  0  0
   -9.8044   -3.9776   -1.0034 H   0  0  0  0  0  0  0  0  0  0  0  0
  -10.4430   -3.3527    0.5542 H   0  0  0  0  0  0  0  0  0  0  0  0
  -11.4258   -3.2189   -0.9375 H   0  0  0  0  0  0  0  0  0  0  0  0
   -8.0938   -3.4269    0.5081 H   0  0  0  0  0  0  0  0  0  0  0  0
   -5.8353   -2.6979    1.1431 H   0  0  0  0  0  0  0  0  0  0  0  0
   -3.6802   -2.4032   -0.0466 H   0  0  0  0  0  0  0  0  0  0  0  0
   -1.7283   -3.3858    1.1638 H   0  0  0  0  0  0  0  0  0  0  0  0
    1.3965   -3.5278    1.1414 H   0  0  0  0  0  0  0  0  0  0  0  0
    3.4061   -2.7200   -0.1047 H   0  0  0  0  0  0  0  0  0  0  0  0
  1  2  1  0
  1 50  1  0
  1 51  1  0
  1 52  1  0
  2  3  1  0
  3  4  2  0
  3  8  1  0
  4  5  1  0
  4 53  1  0
  5  6  2  0
  5 54  1  0
  6  7  1  0
  6 17  1  0
  7  8  2  0
  7  9  1  0
  8 55  1  0
  9 10  2  0
  9 16  1  0
 10 11  1  0
 10 56  1  0
 11 12  1  0
 11 14  2  0
 12 13  1  0
 13 57  1  0
 13 58  1  0
 13 59  1  0
 14 15  1  0
 14 60  1  0
 15 16  2  0
 15 61  1  0
 16 17  1  0
 17 18  1  0
 18 19  2  0
 18 49  1  0
 19 20  1  0
 19 62  1  0
 20 21  2  0
 20 63  1  0
 22 21  1  6
 21 48  1  0
 22 23  2  0
 22 24  2  0
 22 25  1  0
 25 26  2  0
 25 47  1  0
 26 27  1  0
 26 64  1  0
 27 28  2  0
 27 65  1  0
 28 29  1  0
 28 46  1  0
 29 30  1  0
 29 45  1  0
 30 31  2  0
 30 37  1  0
 31 32  1  0
 31 66  1  0
 32 33  2  0
 32 67  1  0
 33 34  1  0
 33 36  1  0
 34 35  1  0
 35 68  1  0
 35 69  1  0
 35 70  1  0
 36 37  2  0
 36 71  1  0
 37 38  1  0
 38 39  1  0
 38 45  2  0
 39 40  2  0
 39 72  1  0
 40 41  1  0
 40 43  1  0
 41 42  1  0
 42 73  1  0
 42 74  1  0
 42 75  1  0
 43 44  2  0
 43 76  1  0
 44 45  1  0
 44 77  1  0
 46 47  2  0
 46 78  1  0
 47 79  1  0
 48 49  2  0
 48 80  1  0
 49 81  1  0
M  END

