
     RDKit          3D

 55 60  0  0  0  0  0  0  0  0999 V2000
   -0.6213   -5.5851   -0.7667 N   0  0  0  0  0  0  0  0  0  0  0  0
   -0.4868   -4.4424   -0.6127 C   0  0  0  0  0  0  0  0  0  0  0  0
   -0.3194   -3.0265   -0.4205 C   0  0  0  0  0  0  0  0  0  0  0  0
   -1.4527   -2.2145   -0.2646 C   0  0  0  0  0  0  0  0  0  0  0  0
   -1.3087   -0.8265   -0.0806 C   0  0  0  0  0  0  0  0  0  0  0  0
   -2.4376   -0.0009    0.0723 N   0  0  0  0  0  0  0  0  0  0  0  0
   -2.3825    1.1594    0.9000 C   0  0  0  0  0  0  0  0  0  0  0  0
   -2.8856    2.3849    0.4320 C   0  0  0  0  0  0  0  0  0  0  0  0
   -2.8494    3.5177    1.2474 C   0  0  0  0  0  0  0  0  0  0  0  0
   -2.2992    3.4500    2.5313 C   0  0  0  0  0  0  0  0  0  0  0  0
   -1.7934    2.2327    2.9983 C   0  0  0  0  0  0  0  0  0  0  0  0
   -1.8419    1.0914    2.1956 C   0  0  0  0  0  0  0  0  0  0  0  0
   -3.6604   -0.3132   -0.5913 C   0  0  0  0  0  0  0  0  0  0  0  0
   -3.6700   -0.6535   -1.9552 C   0  0  0  0  0  0  0  0  0  0  0  0
   -4.8724   -0.9565   -2.5966 C   0  0  0  0  0  0  0  0  0  0  0  0
   -6.0820   -0.9060   -1.8964 C   0  0  0  0  0  0  0  0  0  0  0  0
   -6.0771   -0.5555   -0.5427 C   0  0  0  0  0  0  0  0  0  0  0  0
   -4.8770   -0.2680    0.1104 C   0  0  0  0  0  0  0  0  0  0  0  0
   -0.0083   -0.2849   -0.0374 C   0  0  0  0  0  0  0  0  0  0  0  0
    1.1198   -1.1007   -0.1878 C   0  0  0  0  0  0  0  0  0  0  0  0
    2.4150   -0.5247   -0.1512 N   0  0  0  0  0  0  0  0  0  0  0  0
    3.4513   -0.9014    0.7125 C   0  0  0  0  0  0  0  0  0  0  0  0
    3.4617   -1.8673    1.7267 C   0  0  0  0  0  0  0  0  0  0  0  0
    4.6371   -2.0268    2.4624 C   0  0  0  0  0  0  0  0  0  0  0  0
    5.7770   -1.2431    2.2038 C   0  0  0  0  0  0  0  0  0  0  0  0
    5.7580   -0.2740    1.2017 C   0  0  0  0  0  0  0  0  0  0  0  0
    4.5896   -0.0933    0.4474 C   0  0  0  0  0  0  0  0  0  0  0  0
    4.2229    0.8085   -0.6273 C   0  0  0  0  0  0  0  0  0  0  0  0
    4.9119    1.8109   -1.3254 C   0  0  0  0  0  0  0  0  0  0  0  0
    4.2602    2.4974   -2.3489 C   0  0  0  0  0  0  0  0  0  0  0  0
    2.9297    2.1851   -2.6848 C   0  0  0  0  0  0  0  0  0  0  0  0
    2.2212    1.1927   -2.0057 C   0  0  0  0  0  0  0  0  0  0  0  0
    2.8753    0.5145   -0.9694 C   0  0  0  0  0  0  0  0  0  0  0  0
    0.9743   -2.4790   -0.3897 C   0  0  0  0  0  0  0  0  0  0  0  0
   -2.4443   -2.6653   -0.2830 H   0  0  0  0  0  0  0  0  0  0  0  0
   -3.3062    2.4430   -0.5738 H   0  0  0  0  0  0  0  0  0  0  0  0
   -3.2444    4.4642    0.8697 H   0  0  0  0  0  0  0  0  0  0  0  0
   -2.2657    4.3398    3.1643 H   0  0  0  0  0  0  0  0  0  0  0  0
   -1.3683    2.1648    4.0030 H   0  0  0  0  0  0  0  0  0  0  0  0
   -1.4605    0.1397    2.5712 H   0  0  0  0  0  0  0  0  0  0  0  0
   -2.7305   -0.6792   -2.5111 H   0  0  0  0  0  0  0  0  0  0  0  0
   -4.8633   -1.2215   -3.6569 H   0  0  0  0  0  0  0  0  0  0  0  0
   -7.0220   -1.1375   -2.4028 H   0  0  0  0  0  0  0  0  0  0  0  0
   -7.0153   -0.5166    0.0167 H   0  0  0  0  0  0  0  0  0  0  0  0
   -4.8758   -0.0056    1.1701 H   0  0  0  0  0  0  0  0  0  0  0  0
    0.1289    0.7842    0.1226 H   0  0  0  0  0  0  0  0  0  0  0  0
    2.5825   -2.4764    1.9421 H   0  0  0  0  0  0  0  0  0  0  0  0
    4.6685   -2.7767    3.2570 H   0  0  0  0  0  0  0  0  0  0  0  0
    6.6818   -1.3947    2.7971 H   0  0  0  0  0  0  0  0  0  0  0  0
    6.6410    0.3401    1.0077 H   0  0  0  0  0  0  0  0  0  0  0  0
    5.9485    2.0471   -1.0721 H   0  0  0  0  0  0  0  0  0  0  0  0
    4.7860    3.2809   -2.8995 H   0  0  0  0  0  0  0  0  0  0  0  0
    2.4384    2.7277   -3.4965 H   0  0  0  0  0  0  0  0  0  0  0  0
    1.1930    0.9540   -2.2815 H   0  0  0  0  0  0  0  0  0  0  0  0
    1.8488   -3.1135   -0.5315 H   0  0  0  0  0  0  0  0  0  0  0  0
  1  2  3  0
  2  3  1  0
  3  4  2  0
  3 34  1  0
  4  5  1  0
  4 35  1  0
  5  6  1  0
  5 19  2  0
  6  7  1  0
  6 13  1  0
  7  8  2  0
  7 12  1  0
  8  9  1  0
  8 36  1  0
  9 10  2  0
  9 37  1  0
 10 11  1  0
 10 38  1  0
 11 12  2  0
 11 39  1  0
 12 40  1  0
 13 14  2  0
 13 18  1  0
 14 15  1  0
 14 41  1  0
 15 16  2  0
 15 42  1  0
 16 17  1  0
 16 43  1  0
 17 18  2  0
 17 44  1  0
 18 45  1  0
 19 20  1  0
 19 46  1  0
 20 21  1  0
 20 34  2  0
 21 22  1  0
 21 33  1  0
 22 23  2  0
 22 27  1  0
 23 24  1  0
 23 47  1  0
 24 25  2  0
 24 48  1  0
 25 26  1  0
 25 49  1  0
 26 27  2  0
 26 50  1  0
 27 28  1  0
 28 29  1  0
 28 33  2  0
 29 30  2  0
 29 51  1  0
 30 31  1  0
 30 52  1  0
 31 32  2  0
 31 53  1  0
 32 33  1  0
 32 54  1  0
 34 55  1  0
M  END

