
     RDKit          3D

113120  0  0  0  0  0  0  0  0999 V2000
    6.3628   -2.2835   -4.4259 C   0  0  0  0  0  0  0  0  0  0  0  0
    6.1379   -0.7539   -4.3872 C   0  0  1  0  0  0  0  0  0  0  0  0
    7.4284   -0.0685   -4.8713 C   0  0  0  0  0  0  0  0  0  0  0  0
    4.9989   -0.3780   -5.3634 C   0  0  0  0  0  0  0  0  0  0  0  0
    5.7540   -0.3258   -2.9561 C   0  0  0  0  0  0  0  0  0  0  0  0
    4.5872   -0.8624   -2.3570 C   0  0  0  0  0  0  0  0  0  0  0  0
    4.1742   -0.5317   -1.0680 C   0  0  0  0  0  0  0  0  0  0  0  0
    4.9572    0.3687   -0.3362 C   0  0  0  0  0  0  0  0  0  0  0  0
    6.1196    0.9397   -0.9089 C   0  0  0  0  0  0  0  0  0  0  0  0
    6.5094    0.5853   -2.2096 C   0  0  0  0  0  0  0  0  0  0  0  0
    6.6683    1.8526    0.0766 C   0  0  0  0  0  0  0  0  0  0  0  0
    7.8044    2.6764    0.0928 C   0  0  0  0  0  0  0  0  0  0  0  0
    8.1087    3.4474    1.2200 C   0  0  0  0  0  0  0  0  0  0  0  0
    9.3404    4.3730    1.2908 C   0  0  1  0  0  0  0  0  0  0  0  0
   10.1657    4.3410   -0.0081 C   0  0  0  0  0  0  0  0  0  0  0  0
    8.8784    5.8292    1.5308 C   0  0  0  0  0  0  0  0  0  0  0  0
   10.2572    3.9273    2.4537 C   0  0  0  0  0  0  0  0  0  0  0  0
    7.2401    3.3559    2.3361 C   0  0  0  0  0  0  0  0  0  0  0  0
    6.1044    2.5488    2.3510 C   0  0  0  0  0  0  0  0  0  0  0  0
    5.8127    1.8018    1.2037 C   0  0  0  0  0  0  0  0  0  0  0  0
    4.7710    0.8964    0.9503 N   0  0  0  0  0  0  0  0  0  0  0  0
    3.7164    0.5756    1.8324 C   0  0  0  0  0  0  0  0  0  0  0  0
    2.9602    1.5964    2.4357 C   0  0  0  0  0  0  0  0  0  0  0  0
    1.9224    1.2804    3.3114 C   0  0  0  0  0  0  0  0  0  0  0  0
    1.6231   -0.0607    3.5665 C   0  0  0  0  0  0  0  0  0  0  0  0
    0.2910   -0.4693    4.7113 S   0  0  1  0  0  0  0  0  0  0  0  0
    0.5965   -1.7916    5.2778 O   0  0  0  0  0  0  0  0  0  0  0  0
    0.0731    0.7123    5.5592 O   0  0  0  0  0  0  0  0  0  0  0  0
   -1.1755   -0.6616    3.6797 C   0  0  0  0  0  0  0  0  0  0  0  0
   -1.5187   -1.9297    3.2030 C   0  0  0  0  0  0  0  0  0  0  0  0
   -2.6591   -2.0802    2.4153 C   0  0  0  0  0  0  0  0  0  0  0  0
   -3.4719   -0.9706    2.1224 C   0  0  0  0  0  0  0  0  0  0  0  0
   -4.6297   -1.1247    1.3295 N   0  0  0  0  0  0  0  0  0  0  0  0
   -4.9667   -0.3539    0.2066 C   0  0  0  0  0  0  0  0  0  0  0  0
   -4.2701    0.6857   -0.4206 C   0  0  0  0  0  0  0  0  0  0  0  0
   -4.8347    1.2610   -1.5571 C   0  0  0  0  0  0  0  0  0  0  0  0
   -6.0717    0.8379   -2.1042 C   0  0  0  0  0  0  0  0  0  0  0  0
   -6.6240    1.5376   -3.3627 C   0  0  2  0  0  0  0  0  0  0  0  0
   -7.9714    0.9443   -3.8123 C   0  0  0  0  0  0  0  0  0  0  0  0
   -5.6177    1.3807   -4.5265 C   0  0  0  0  0  0  0  0  0  0  0  0
   -6.8358    3.0407   -3.0668 C   0  0  0  0  0  0  0  0  0  0  0  0
   -6.7390   -0.2149   -1.4683 C   0  0  0  0  0  0  0  0  0  0  0  0
   -6.1963   -0.8160   -0.3222 C   0  0  0  0  0  0  0  0  0  0  0  0
   -6.6294   -1.9149    0.5207 C   0  0  0  0  0  0  0  0  0  0  0  0
   -7.7635   -2.7415    0.5105 C   0  0  0  0  0  0  0  0  0  0  0  0
   -7.9358   -3.7260    1.4897 C   0  0  0  0  0  0  0  0  0  0  0  0
   -9.1593   -4.6642    1.5243 C   0  0  2  0  0  0  0  0  0  0  0  0
   -9.9223   -4.4716    2.8555 C   0  0  0  0  0  0  0  0  0  0  0  0
   -8.6873   -6.1325    1.4113 C   0  0  0  0  0  0  0  0  0  0  0  0
  -10.1368   -4.3858    0.3682 C   0  0  0  0  0  0  0  0  0  0  0  0
   -6.9362   -3.8463    2.4871 C   0  0  0  0  0  0  0  0  0  0  0  0
   -5.7989   -3.0421    2.5243 C   0  0  0  0  0  0  0  0  0  0  0  0
   -5.6419   -2.0774    1.5223 C   0  0  0  0  0  0  0  0  0  0  0  0
   -3.1262    0.2935    2.6338 C   0  0  0  0  0  0  0  0  0  0  0  0
   -1.9789    0.4501    3.4094 C   0  0  0  0  0  0  0  0  0  0  0  0
    2.3727   -1.0880    2.9858 C   0  0  0  0  0  0  0  0  0  0  0  0
    3.4188   -0.7684    2.1222 C   0  0  0  0  0  0  0  0  0  0  0  0
    5.4602   -2.8398   -4.1304 H   0  0  0  0  0  0  0  0  0  0  0  0
    6.6356   -2.6085   -5.4437 H   0  0  0  0  0  0  0  0  0  0  0  0
    7.1761   -2.5797   -3.7443 H   0  0  0  0  0  0  0  0  0  0  0  0
    8.2904   -0.3176   -4.2328 H   0  0  0  0  0  0  0  0  0  0  0  0
    7.3267    1.0278   -4.8977 H   0  0  0  0  0  0  0  0  0  0  0  0
    7.6676   -0.4021   -5.8934 H   0  0  0  0  0  0  0  0  0  0  0  0
    4.0510   -0.8717   -5.1002 H   0  0  0  0  0  0  0  0  0  0  0  0
    4.8212    0.7092   -5.3619 H   0  0  0  0  0  0  0  0  0  0  0  0
    5.2564   -0.6801   -6.3922 H   0  0  0  0  0  0  0  0  0  0  0  0
    3.9720   -1.5670   -2.9210 H   0  0  0  0  0  0  0  0  0  0  0  0
    3.2609   -0.9632   -0.6559 H   0  0  0  0  0  0  0  0  0  0  0  0
    7.4087    1.0383   -2.6270 H   0  0  0  0  0  0  0  0  0  0  0  0
    8.4463    2.6983   -0.7879 H   0  0  0  0  0  0  0  0  0  0  0  0
   10.5539    3.3333   -0.2239 H   0  0  0  0  0  0  0  0  0  0  0  0
    9.5776    4.6753   -0.8772 H   0  0  0  0  0  0  0  0  0  0  0  0
   11.0318    5.0153    0.0832 H   0  0  0  0  0  0  0  0  0  0  0  0
    8.3149    5.9325    2.4707 H   0  0  0  0  0  0  0  0  0  0  0  0
    9.7471    6.5059    1.5877 H   0  0  0  0  0  0  0  0  0  0  0  0
    8.2288    6.1768    0.7117 H   0  0  0  0  0  0  0  0  0  0  0  0
   11.1425    4.5813    2.5200 H   0  0  0  0  0  0  0  0  0  0  0  0
    9.7407    3.9688    3.4248 H   0  0  0  0  0  0  0  0  0  0  0  0
   10.6076    2.8935    2.3055 H   0  0  0  0  0  0  0  0  0  0  0  0
    7.4604    3.9366    3.2345 H   0  0  0  0  0  0  0  0  0  0  0  0
    5.4752    2.5026    3.2409 H   0  0  0  0  0  0  0  0  0  0  0  0
    3.1854    2.6393    2.2076 H   0  0  0  0  0  0  0  0  0  0  0  0
    1.3450    2.0668    3.8008 H   0  0  0  0  0  0  0  0  0  0  0  0
   -0.8948   -2.7896    3.4532 H   0  0  0  0  0  0  0  0  0  0  0  0
   -2.9219   -3.0604    2.0146 H   0  0  0  0  0  0  0  0  0  0  0  0
   -3.3088    1.0396   -0.0456 H   0  0  0  0  0  0  0  0  0  0  0  0
   -4.2862    2.0729   -2.0399 H   0  0  0  0  0  0  0  0  0  0  0  0
   -8.3306    1.4718   -4.7100 H   0  0  0  0  0  0  0  0  0  0  0  0
   -8.7458    1.0486   -3.0363 H   0  0  0  0  0  0  0  0  0  0  0  0
   -7.8853   -0.1230   -4.0695 H   0  0  0  0  0  0  0  0  0  0  0  0
   -4.6393    1.8248   -4.2879 H   0  0  0  0  0  0  0  0  0  0  0  0
   -5.4531    0.3177   -4.7646 H   0  0  0  0  0  0  0  0  0  0  0  0
   -5.9962    1.8789   -5.4344 H   0  0  0  0  0  0  0  0  0  0  0  0
   -7.5559    3.1830   -2.2452 H   0  0  0  0  0  0  0  0  0  0  0  0
   -7.2283    3.5585   -3.9577 H   0  0  0  0  0  0  0  0  0  0  0  0
   -5.8978    3.5397   -2.7790 H   0  0  0  0  0  0  0  0  0  0  0  0
   -7.6873   -0.5884   -1.8548 H   0  0  0  0  0  0  0  0  0  0  0  0
   -8.5085   -2.5963   -0.2719 H   0  0  0  0  0  0  0  0  0  0  0  0
   -9.2915   -4.6983    3.7286 H   0  0  0  0  0  0  0  0  0  0  0  0
  -10.7999   -5.1378    2.8977 H   0  0  0  0  0  0  0  0  0  0  0  0
  -10.2770   -3.4338    2.9600 H   0  0  0  0  0  0  0  0  0  0  0  0
   -9.5498   -6.8189    1.4375 H   0  0  0  0  0  0  0  0  0  0  0  0
   -8.1463   -6.3012    0.4665 H   0  0  0  0  0  0  0  0  0  0  0  0
   -8.0146   -6.4131    2.2361 H   0  0  0  0  0  0  0  0  0  0  0  0
   -9.6629   -4.5321   -0.6151 H   0  0  0  0  0  0  0  0  0  0  0  0
  -10.9925   -5.0767    0.4282 H   0  0  0  0  0  0  0  0  0  0  0  0
  -10.5376   -3.3608    0.4065 H   0  0  0  0  0  0  0  0  0  0  0  0
   -7.0510   -4.5974    3.2717 H   0  0  0  0  0  0  0  0  0  0  0  0
   -5.0652   -3.1653    3.3221 H   0  0  0  0  0  0  0  0  0  0  0  0
   -3.7778    1.1473    2.4413 H   0  0  0  0  0  0  0  0  0  0  0  0
   -1.7220    1.4219    3.8349 H   0  0  0  0  0  0  0  0  0  0  0  0
    2.1567   -2.1275    3.2391 H   0  0  0  0  0  0  0  0  0  0  0  0
    4.0306   -1.5599    1.6865 H   0  0  0  0  0  0  0  0  0  0  0  0
  2  1  1  1
  1 58  1  0
  1 59  1  0
  1 60  1  0
  2  3  1  0
  2  4  1  0
  2  5  1  0
  3 61  1  0
  3 62  1  0
  3 63  1  0
  4 64  1  0
  4 65  1  0
  4 66  1  0
  5  6  2  0
  5 10  1  0
  6  7  1  0
  6 67  1  0
  7  8  2  0
  7 68  1  0
  8  9  1  0
  8 21  1  0
  9 10  2  0
  9 11  1  0
 10 69  1  0
 11 12  2  0
 11 20  1  0
 12 13  1  0
 12 70  1  0
 13 14  1  0
 13 18  2  0
 14 15  1  6
 14 16  1  0
 14 17  1  0
 15 71  1  0
 15 72  1  0
 15 73  1  0
 16 74  1  0
 16 75  1  0
 16 76  1  0
 17 77  1  0
 17 78  1  0
 17 79  1  0
 18 19  1  0
 18 80  1  0
 19 20  2  0
 19 81  1  0
 20 21  1  0
 21 22  1  0
 22 23  2  0
 22 57  1  0
 23 24  1  0
 23 82  1  0
 24 25  2  0
 24 83  1  0
 26 25  1  6
 25 56  1  0
 26 27  2  0
 26 28  2  0
 26 29  1  0
 29 30  2  0
 29 55  1  0
 30 31  1  0
 30 84  1  0
 31 32  2  0
 31 85  1  0
 32 33  1  0
 32 54  1  0
 33 34  1  0
 33 53  1  0
 34 35  2  0
 34 43  1  0
 35 36  1  0
 35 86  1  0
 36 37  2  0
 36 87  1  0
 37 38  1  0
 37 42  1  0
 38 39  1  6
 38 40  1  0
 38 41  1  0
 39 88  1  0
 39 89  1  0
 39 90  1  0
 40 91  1  0
 40 92  1  0
 40 93  1  0
 41 94  1  0
 41 95  1  0
 41 96  1  0
 42 43  2  0
 42 97  1  0
 43 44  1  0
 44 45  1  0
 44 53  2  0
 45 46  2  0
 45 98  1  0
 46 47  1  0
 46 51  1  0
 47 48  1  1
 47 49  1  0
 47 50  1  0
 48 99  1  0
 48100  1  0
 48101  1  0
 49102  1  0
 49103  1  0
 49104  1  0
 50105  1  0
 50106  1  0
 50107  1  0
 51 52  2  0
 51108  1  0
 52 53  1  0
 52109  1  0
 54 55  2  0
 54110  1  0
 55111  1  0
 56 57  2  0
 56112  1  0
 57113  1  0
M  END

