
     RDKit          3D

 57 61  0  0  0  0  0  0  0  0999 V2000
    6.6627    1.2865    2.1670 O   0  0  0  0  0  0  0  0  0  0  0  0
    6.2520    1.5721    0.7835 S   0  0  1  0  0  0  0  0  0  0  0  0
    6.4973    2.8789    0.1538 O   0  0  0  0  0  0  0  0  0  0  0  0
    7.0259    0.3222   -0.2688 C   0  0  0  0  0  0  0  0  0  0  0  0
    7.2576    0.6136   -1.6159 C   0  0  0  0  0  0  0  0  0  0  0  0
    7.8719   -0.3497   -2.4202 C   0  0  0  0  0  0  0  0  0  0  0  0
    8.2542   -1.5800   -1.8743 C   0  0  0  0  0  0  0  0  0  0  0  0
    8.0329   -1.8502   -0.5195 C   0  0  0  0  0  0  0  0  0  0  0  0
    7.4194   -0.8948    0.2949 C   0  0  0  0  0  0  0  0  0  0  0  0
    4.4829    1.2491    0.6731 C   0  0  0  0  0  0  0  0  0  0  0  0
    3.8799    0.3868    1.5931 C   0  0  0  0  0  0  0  0  0  0  0  0
    2.5077    0.1565    1.5142 C   0  0  0  0  0  0  0  0  0  0  0  0
    1.7144    0.7806    0.5289 C   0  0  0  0  0  0  0  0  0  0  0  0
    0.2553    0.5285    0.4496 C   0  0  0  0  0  0  0  0  0  0  0  0
   -0.6444    1.5334    0.0435 C   0  0  0  0  0  0  0  0  0  0  0  0
   -2.0155    1.3040   -0.0237 C   0  0  0  0  0  0  0  0  0  0  0  0
   -2.5517    0.0416    0.2983 C   0  0  0  0  0  0  0  0  0  0  0  0
   -3.9413   -0.1994    0.2239 N   0  0  0  0  0  0  0  0  0  0  0  0
   -4.7210    0.4006   -0.8037 C   0  0  0  0  0  0  0  0  0  0  0  0
   -5.9671    0.9805   -0.5056 C   0  0  0  0  0  0  0  0  0  0  0  0
   -6.7372    1.5567   -1.5173 C   0  0  0  0  0  0  0  0  0  0  0  0
   -6.2747    1.5798   -2.8370 C   0  0  0  0  0  0  0  0  0  0  0  0
   -5.0330    1.0100   -3.1366 C   0  0  0  0  0  0  0  0  0  0  0  0
   -4.2641    0.4169   -2.1339 C   0  0  0  0  0  0  0  0  0  0  0  0
   -4.5758   -1.0440    1.1769 C   0  0  0  0  0  0  0  0  0  0  0  0
   -5.5147   -2.0056    0.7627 C   0  0  0  0  0  0  0  0  0  0  0  0
   -6.1468   -2.8239    1.7005 C   0  0  0  0  0  0  0  0  0  0  0  0
   -5.8445   -2.7106    3.0613 C   0  0  0  0  0  0  0  0  0  0  0  0
   -4.9065   -1.7599    3.4767 C   0  0  0  0  0  0  0  0  0  0  0  0
   -4.2821   -0.9262    2.5474 C   0  0  0  0  0  0  0  0  0  0  0  0
   -1.6595   -0.9730    0.6972 C   0  0  0  0  0  0  0  0  0  0  0  0
   -0.2920   -0.7272    0.7778 C   0  0  0  0  0  0  0  0  0  0  0  0
    2.3517    1.6587   -0.3721 C   0  0  0  0  0  0  0  0  0  0  0  0
    3.7227    1.9001   -0.3022 C   0  0  0  0  0  0  0  0  0  0  0  0
    6.9755    1.5895   -2.0149 H   0  0  0  0  0  0  0  0  0  0  0  0
    8.0613   -0.1353   -3.4749 H   0  0  0  0  0  0  0  0  0  0  0  0
    8.7364   -2.3296   -2.5069 H   0  0  0  0  0  0  0  0  0  0  0  0
    8.3478   -2.8054   -0.0923 H   0  0  0  0  0  0  0  0  0  0  0  0
    7.2611   -1.0743    1.3598 H   0  0  0  0  0  0  0  0  0  0  0  0
    4.4812   -0.0733    2.3793 H   0  0  0  0  0  0  0  0  0  0  0  0
    2.0360   -0.4935    2.2540 H   0  0  0  0  0  0  0  0  0  0  0  0
   -0.2703    2.5338   -0.1859 H   0  0  0  0  0  0  0  0  0  0  0  0
   -2.6850    2.1141   -0.3172 H   0  0  0  0  0  0  0  0  0  0  0  0
   -6.3279    0.9762    0.5247 H   0  0  0  0  0  0  0  0  0  0  0  0
   -7.7032    2.0031   -1.2676 H   0  0  0  0  0  0  0  0  0  0  0  0
   -6.8771    2.0372   -3.6254 H   0  0  0  0  0  0  0  0  0  0  0  0
   -4.6626    1.0133   -4.1651 H   0  0  0  0  0  0  0  0  0  0  0  0
   -3.3027   -0.0396   -2.3770 H   0  0  0  0  0  0  0  0  0  0  0  0
   -5.7460   -2.1066   -0.2993 H   0  0  0  0  0  0  0  0  0  0  0  0
   -6.8741   -3.5661    1.3609 H   0  0  0  0  0  0  0  0  0  0  0  0
   -6.3365   -3.3568    3.7921 H   0  0  0  0  0  0  0  0  0  0  0  0
   -4.6667   -1.6542    4.5380 H   0  0  0  0  0  0  0  0  0  0  0  0
   -3.5622   -0.1757    2.8797 H   0  0  0  0  0  0  0  0  0  0  0  0
   -2.0450   -1.9657    0.9348 H   0  0  0  0  0  0  0  0  0  0  0  0
    0.3705   -1.5472    1.0645 H   0  0  0  0  0  0  0  0  0  0  0  0
    1.7667    2.1490   -1.1529 H   0  0  0  0  0  0  0  0  0  0  0  0
    4.2056    2.5947   -0.9919 H   0  0  0  0  0  0  0  0  0  0  0  0
  1  2  2  0
  2  3  2  0
  2  4  1  6
  2 10  1  0
  4  5  2  0
  4  9  1  0
  5  6  1  0
  5 35  1  0
  6  7  2  0
  6 36  1  0
  7  8  1  0
  7 37  1  0
  8  9  2  0
  8 38  1  0
  9 39  1  0
 10 11  2  0
 10 34  1  0
 11 12  1  0
 11 40  1  0
 12 13  2  0
 12 41  1  0
 13 14  1  0
 13 33  1  0
 14 15  2  0
 14 32  1  0
 15 16  1  0
 15 42  1  0
 16 17  2  0
 16 43  1  0
 17 18  1  0
 17 31  1  0
 18 19  1  0
 18 25  1  0
 19 20  2  0
 19 24  1  0
 20 21  1  0
 20 44  1  0
 21 22  2  0
 21 45  1  0
 22 23  1  0
 22 46  1  0
 23 24  2  0
 23 47  1  0
 24 48  1  0
 25 26  2  0
 25 30  1  0
 26 27  1  0
 26 49  1  0
 27 28  2  0
 27 50  1  0
 28 29  1  0
 28 51  1  0
 29 30  2  0
 29 52  1  0
 30 53  1  0
 31 32  2  0
 31 54  1  0
 32 55  1  0
 33 34  2  0
 33 56  1  0
 34 57  1  0
M  END

