
     RDKit          3D

128144  0  0  0  0  0  0  0  0999 V2000
    1.5075    0.8753    9.0101 C   0  0  0  0  0  0  0  0  0  0  0  0
    2.6784    0.9927    8.2529 C   0  0  0  0  0  0  0  0  0  0  0  0
    2.6068    1.3135    6.8973 C   0  0  0  0  0  0  0  0  0  0  0  0
    1.3586    1.5225    6.2837 C   0  0  0  0  0  0  0  0  0  0  0  0
    1.2862    1.8650    4.8410 C   0  0  0  0  0  0  0  0  0  0  0  0
    0.0888    2.1206    4.3021 N   0  0  0  0  0  0  0  0  0  0  0  0
    0.0696    2.4254    2.9977 C   0  0  0  0  0  0  0  0  0  0  0  0
   -1.2381    2.7068    2.3550 C   0  0  0  0  0  0  0  0  0  0  0  0
   -2.4204    2.7080    3.1166 C   0  0  0  0  0  0  0  0  0  0  0  0
   -3.6485    2.9685    2.5092 C   0  0  0  0  0  0  0  0  0  0  0  0
   -3.7114    3.2268    1.1351 C   0  0  0  0  0  0  0  0  0  0  0  0
   -2.5396    3.2255    0.3707 C   0  0  0  0  0  0  0  0  0  0  0  0
   -1.3084    2.9697    0.9750 C   0  0  0  0  0  0  0  0  0  0  0  0
    1.1748    2.4967    2.2386 N   0  0  0  0  0  0  0  0  0  0  0  0
    2.3241    2.2254    2.8581 C   0  0  0  0  0  0  0  0  0  0  0  0
    3.5840    2.3147    2.0638 C   0  0  0  0  0  0  0  0  0  0  0  0
    3.7262    1.7615    0.7708 C   0  0  0  0  0  0  0  0  0  0  0  0
    2.6799    0.9941    0.1942 N   0  0  0  0  0  0  0  0  0  0  0  0
    2.2179   -0.2409    0.6540 C   0  0  0  0  0  0  0  0  0  0  0  0
    2.6512   -1.0121    1.7381 C   0  0  0  0  0  0  0  0  0  0  0  0
    2.0183   -2.2328    1.9658 C   0  0  0  0  0  0  0  0  0  0  0  0
    0.9692   -2.7125    1.1420 C   0  0  0  0  0  0  0  0  0  0  0  0
    0.3248   -4.0243    1.4223 C   0  0  0  0  0  0  0  0  0  0  0  0
   -1.0713   -4.1944    1.2442 C   0  0  0  0  0  0  0  0  0  0  0  0
   -1.7155   -5.4057    1.4868 C   0  0  0  0  0  0  0  0  0  0  0  0
   -0.9415   -6.4885    1.9210 C   0  0  0  0  0  0  0  0  0  0  0  0
    0.4565   -6.3481    2.1251 C   0  0  0  0  0  0  0  0  0  0  0  0
    1.0785   -5.1196    1.8712 C   0  0  0  0  0  0  0  0  0  0  0  0
    0.9398   -7.6328    2.5946 C   0  0  0  0  0  0  0  0  0  0  0  0
    2.2063   -8.1212    2.9465 C   0  0  0  0  0  0  0  0  0  0  0  0
    2.3349   -9.4493    3.3514 C   0  0  0  0  0  0  0  0  0  0  0  0
    1.2098  -10.2939    3.4007 C   0  0  0  0  0  0  0  0  0  0  0  0
   -0.0619   -9.8333    3.0566 C   0  0  0  0  0  0  0  0  0  0  0  0
   -0.1887   -8.4953    2.6618 C   0  0  0  0  0  0  0  0  0  0  0  0
   -1.3256   -7.7916    2.2511 N   0  0  0  0  0  0  0  0  0  0  0  0
   -2.6447   -8.3128    2.1763 C   0  0  0  0  0  0  0  0  0  0  0  0
   -3.2545   -8.8583    3.3167 C   0  0  0  0  0  0  0  0  0  0  0  0
   -4.5487   -9.3778    3.2370 C   0  0  0  0  0  0  0  0  0  0  0  0
   -5.2513   -9.3415    2.0286 C   0  0  0  0  0  0  0  0  0  0  0  0
   -4.6480   -8.7896    0.8942 C   0  0  0  0  0  0  0  0  0  0  0  0
   -3.3473   -8.2849    0.9616 C   0  0  0  0  0  0  0  0  0  0  0  0
    0.5555   -1.9225    0.0577 C   0  0  0  0  0  0  0  0  0  0  0  0
    1.1707   -0.6905   -0.1929 C   0  0  0  0  0  0  0  0  0  0  0  0
    0.9961    0.3268   -1.2140 C   0  0  0  0  0  0  0  0  0  0  0  0
    0.1219    0.4677   -2.2979 C   0  0  0  0  0  0  0  0  0  0  0  0
    0.1784    1.6122   -3.1096 C   0  0  0  0  0  0  0  0  0  0  0  0
   -0.7423    1.7735   -4.2678 C   0  0  0  0  0  0  0  0  0  0  0  0
   -1.2826    3.0435   -4.5925 C   0  0  0  0  0  0  0  0  0  0  0  0
   -2.1530    3.2366   -5.6635 C   0  0  0  0  0  0  0  0  0  0  0  0
   -2.5031    2.1237   -6.4372 C   0  0  0  0  0  0  0  0  0  0  0  0
   -1.9706    0.8397   -6.1474 C   0  0  0  0  0  0  0  0  0  0  0  0
   -1.0965    0.6748   -5.0662 C   0  0  0  0  0  0  0  0  0  0  0  0
   -2.4964   -0.0654   -7.1519 C   0  0  0  0  0  0  0  0  0  0  0  0
   -2.3500   -1.4399   -7.3884 C   0  0  0  0  0  0  0  0  0  0  0  0
   -3.0289   -2.0218   -8.4582 C   0  0  0  0  0  0  0  0  0  0  0  0
   -3.8576   -1.2432   -9.2879 C   0  0  0  0  0  0  0  0  0  0  0  0
   -4.0205    0.1265   -9.0752 C   0  0  0  0  0  0  0  0  0  0  0  0
   -3.3268    0.7097   -8.0071 C   0  0  0  0  0  0  0  0  0  0  0  0
   -3.3245    2.0368   -7.5651 N   0  0  0  0  0  0  0  0  0  0  0  0
   -4.0332    3.1137   -8.1613 C   0  0  0  0  0  0  0  0  0  0  0  0
   -4.9521    3.8583   -7.4056 C   0  0  0  0  0  0  0  0  0  0  0  0
   -5.6399    4.9233   -7.9920 C   0  0  0  0  0  0  0  0  0  0  0  0
   -5.4324    5.2427   -9.3374 C   0  0  0  0  0  0  0  0  0  0  0  0
   -4.5239    4.4956  -10.0936 C   0  0  0  0  0  0  0  0  0  0  0  0
   -3.8187    3.4410   -9.5091 C   0  0  0  0  0  0  0  0  0  0  0  0
    1.1324    2.6141   -2.7987 C   0  0  0  0  0  0  0  0  0  0  0  0
    2.0126    2.5016   -1.7241 C   0  0  0  0  0  0  0  0  0  0  0  0
    1.9431    1.3478   -0.9358 C   0  0  0  0  0  0  0  0  0  0  0  0
    4.9181    1.9202    0.0348 C   0  0  0  0  0  0  0  0  0  0  0  0
    6.0002    2.6338    0.5436 C   0  0  0  0  0  0  0  0  0  0  0  0
    5.8963    3.1813    1.8275 C   0  0  0  0  0  0  0  0  0  0  0  0
    4.7019    2.9996    2.5593 C   0  0  0  0  0  0  0  0  0  0  0  0
    4.7669    3.6215    3.7725 O   0  0  0  0  0  0  0  0  0  0  0  0
    6.0027    4.2067    3.8525 C   0  0  0  0  0  0  0  0  0  0  0  0
    6.4768    4.9417    4.9342 C   0  0  0  0  0  0  0  0  0  0  0  0
    7.7703    5.4595    4.8221 C   0  0  0  0  0  0  0  0  0  0  0  0
    8.5489    5.2442    3.6690 C   0  0  0  0  0  0  0  0  0  0  0  0
    8.0545    4.5040    2.5941 C   0  0  0  0  0  0  0  0  0  0  0  0
    6.7590    3.9745    2.6855 C   0  0  0  0  0  0  0  0  0  0  0  0
    2.4348    1.8999    4.1470 N   0  0  0  0  0  0  0  0  0  0  0  0
    0.1865    1.4047    7.0509 C   0  0  0  0  0  0  0  0  0  0  0  0
    0.2624    1.0820    8.4059 C   0  0  0  0  0  0  0  0  0  0  0  0
    1.5652    0.6222   10.0721 H   0  0  0  0  0  0  0  0  0  0  0  0
    3.6522    0.8329    8.7229 H   0  0  0  0  0  0  0  0  0  0  0  0
    3.5087    1.4121    6.2919 H   0  0  0  0  0  0  0  0  0  0  0  0
   -2.3572    2.5026    4.1855 H   0  0  0  0  0  0  0  0  0  0  0  0
   -4.5624    2.9685    3.1088 H   0  0  0  0  0  0  0  0  0  0  0  0
   -4.6753    3.4272    0.6596 H   0  0  0  0  0  0  0  0  0  0  0  0
   -2.5845    3.4192   -0.7038 H   0  0  0  0  0  0  0  0  0  0  0  0
   -0.3898    2.9621    0.3875 H   0  0  0  0  0  0  0  0  0  0  0  0
    3.4490   -0.6682    2.3987 H   0  0  0  0  0  0  0  0  0  0  0  0
    2.3274   -2.8286    2.8274 H   0  0  0  0  0  0  0  0  0  0  0  0
   -1.6712   -3.3368    0.9313 H   0  0  0  0  0  0  0  0  0  0  0  0
   -2.7949   -5.4953    1.3550 H   0  0  0  0  0  0  0  0  0  0  0  0
    2.1584   -5.0210    2.0029 H   0  0  0  0  0  0  0  0  0  0  0  0
    3.0820   -7.4689    2.8996 H   0  0  0  0  0  0  0  0  0  0  0  0
    3.3163   -9.8412    3.6287 H   0  0  0  0  0  0  0  0  0  0  0  0
    1.3321  -11.3344    3.7123 H   0  0  0  0  0  0  0  0  0  0  0  0
   -0.9261  -10.4986    3.0906 H   0  0  0  0  0  0  0  0  0  0  0  0
   -2.7118   -8.8632    4.2640 H   0  0  0  0  0  0  0  0  0  0  0  0
   -5.0152   -9.8019    4.1299 H   0  0  0  0  0  0  0  0  0  0  0  0
   -6.2663   -9.7419    1.9710 H   0  0  0  0  0  0  0  0  0  0  0  0
   -5.1882   -8.7622   -0.0555 H   0  0  0  0  0  0  0  0  0  0  0  0
   -2.8645   -7.8743    0.0726 H   0  0  0  0  0  0  0  0  0  0  0  0
   -0.2318   -2.2817   -0.6090 H   0  0  0  0  0  0  0  0  0  0  0  0
   -0.6277   -0.3022   -2.4946 H   0  0  0  0  0  0  0  0  0  0  0  0
   -1.0241    3.9028   -3.9695 H   0  0  0  0  0  0  0  0  0  0  0  0
   -2.5496    4.2290   -5.8832 H   0  0  0  0  0  0  0  0  0  0  0  0
   -0.6659   -0.3079   -4.8611 H   0  0  0  0  0  0  0  0  0  0  0  0
   -1.7138   -2.0470   -6.7394 H   0  0  0  0  0  0  0  0  0  0  0  0
   -2.9218   -3.0914   -8.6537 H   0  0  0  0  0  0  0  0  0  0  0  0
   -4.3884   -1.7193  -10.1164 H   0  0  0  0  0  0  0  0  0  0  0  0
   -4.6712    0.7194   -9.7198 H   0  0  0  0  0  0  0  0  0  0  0  0
   -5.1286    3.5910   -6.3619 H   0  0  0  0  0  0  0  0  0  0  0  0
   -6.3524    5.4987   -7.3955 H   0  0  0  0  0  0  0  0  0  0  0  0
   -5.9772    6.0718   -9.7955 H   0  0  0  0  0  0  0  0  0  0  0  0
   -4.3516    4.7425  -11.1442 H   0  0  0  0  0  0  0  0  0  0  0  0
   -3.0912    2.8705  -10.0899 H   0  0  0  0  0  0  0  0  0  0  0  0
    1.1973    3.4984   -3.4367 H   0  0  0  0  0  0  0  0  0  0  0  0
    2.7352    3.2908   -1.5103 H   0  0  0  0  0  0  0  0  0  0  0  0
    4.9792    1.4534   -0.9497 H   0  0  0  0  0  0  0  0  0  0  0  0
    6.9127    2.7491   -0.0455 H   0  0  0  0  0  0  0  0  0  0  0  0
    5.8609    5.1003    5.8208 H   0  0  0  0  0  0  0  0  0  0  0  0
    8.1846    6.0436    5.6475 H   0  0  0  0  0  0  0  0  0  0  0  0
    9.5559    5.6646    3.6174 H   0  0  0  0  0  0  0  0  0  0  0  0
    8.6646    4.3417    1.7024 H   0  0  0  0  0  0  0  0  0  0  0  0
   -0.7768    1.5673    6.5666 H   0  0  0  0  0  0  0  0  0  0  0  0
   -0.6537    0.9897    8.9948 H   0  0  0  0  0  0  0  0  0  0  0  0
  1  2  2  0
  1 82  1  0
  1 83  1  0
  2  3  1  0
  2 84  1  0
  3  4  2  0
  3 85  1  0
  4  5  1  0
  4 81  1  0
  5  6  2  0
  5 80  1  0
  6  7  1  0
  7  8  1  0
  7 14  2  0
  8  9  2  0
  8 13  1  0
  9 10  1  0
  9 86  1  0
 10 11  2  0
 10 87  1  0
 11 12  1  0
 11 88  1  0
 12 13  2  0
 12 89  1  0
 13 90  1  0
 14 15  1  0
 15 16  1  0
 15 80  2  0
 16 17  1  0
 16 72  2  0
 17 18  1  0
 17 69  2  0
 18 19  1  0
 18 68  1  0
 19 20  2  0
 19 43  1  0
 20 21  1  0
 20 91  1  0
 21 22  2  0
 21 92  1  0
 22 23  1  0
 22 42  1  0
 23 24  2  0
 23 28  1  0
 24 25  1  0
 24 93  1  0
 25 26  2  0
 25 94  1  0
 26 27  1  0
 26 35  1  0
 27 28  2  0
 27 29  1  0
 28 95  1  0
 29 30  2  0
 29 34  1  0
 30 31  1  0
 30 96  1  0
 31 32  2  0
 31 97  1  0
 32 33  1  0
 32 98  1  0
 33 34  2  0
 33 99  1  0
 34 35  1  0
 35 36  1  0
 36 37  2  0
 36 41  1  0
 37 38  1  0
 37100  1  0
 38 39  2  0
 38101  1  0
 39 40  1  0
 39102  1  0
 40 41  2  0
 40103  1  0
 41104  1  0
 42 43  2  0
 42105  1  0
 43 44  1  0
 44 45  1  0
 44 68  2  0
 45 46  2  0
 45106  1  0
 46 47  1  0
 46 66  1  0
 47 48  2  0
 47 52  1  0
 48 49  1  0
 48107  1  0
 49 50  2  0
 49108  1  0
 50 51  1  0
 50 59  1  0
 51 52  2  0
 51 53  1  0
 52109  1  0
 53 54  2  0
 53 58  1  0
 54 55  1  0
 54110  1  0
 55 56  2  0
 55111  1  0
 56 57  1  0
 56112  1  0
 57 58  2  0
 57113  1  0
 58 59  1  0
 59 60  1  0
 60 61  2  0
 60 65  1  0
 61 62  1  0
 61114  1  0
 62 63  2  0
 62115  1  0
 63 64  1  0
 63116  1  0
 64 65  2  0
 64117  1  0
 65118  1  0
 66 67  2  0
 66119  1  0
 67 68  1  0
 67120  1  0
 69 70  1  0
 69121  1  0
 70 71  2  0
 70122  1  0
 71 72  1  0
 71 79  1  0
 72 73  1  0
 73 74  1  0
 74 75  1  0
 74 79  2  0
 75 76  2  0
 75123  1  0
 76 77  1  0
 76124  1  0
 77 78  2  0
 77125  1  0
 78 79  1  0
 78126  1  0
 81 82  2  0
 81127  1  0
 82128  1  0
M  END

