
     RDKit          3D

 81 90  0  0  0  0  0  0  0  0999 V2000
    8.3047   -5.0552   -1.0930 C   0  0  0  0  0  0  0  0  0  0  0  0
    8.8721   -3.7771   -1.1239 C   0  0  0  0  0  0  0  0  0  0  0  0
    8.0938   -2.6557   -0.8370 C   0  0  0  0  0  0  0  0  0  0  0  0
    6.7290   -2.7889   -0.5223 C   0  0  0  0  0  0  0  0  0  0  0  0
    5.9195   -1.5732   -0.2294 C   0  0  0  0  0  0  0  0  0  0  0  0
    4.5154   -1.5825   -0.2490 C   0  0  0  0  0  0  0  0  0  0  0  0
    3.8467   -0.3842    0.0406 C   0  0  0  0  0  0  0  0  0  0  0  0
    2.3597   -0.2826    0.0462 C   0  0  0  0  0  0  0  0  0  0  0  0
    1.5339   -1.4185    0.1238 C   0  0  0  0  0  0  0  0  0  0  0  0
    0.1445   -1.2955    0.1253 C   0  0  0  0  0  0  0  0  0  0  0  0
   -0.4532   -0.0314    0.0468 C   0  0  0  0  0  0  0  0  0  0  0  0
   -1.8811    0.0949    0.0444 N   0  0  0  0  0  0  0  0  0  0  0  0
   -2.5703    0.0672   -1.1807 C   0  0  0  0  0  0  0  0  0  0  0  0
   -1.8574   -0.0798   -2.3931 C   0  0  0  0  0  0  0  0  0  0  0  0
   -2.5194   -0.1106   -3.6158 C   0  0  0  0  0  0  0  0  0  0  0  0
   -3.9117    0.0044   -3.6664 C   0  0  0  0  0  0  0  0  0  0  0  0
   -4.6158    0.1506   -2.4742 C   0  0  0  0  0  0  0  0  0  0  0  0
   -3.9763    0.1856   -1.2256 C   0  0  0  0  0  0  0  0  0  0  0  0
   -4.8275    0.3543    0.0386 C   0  0  1  0  0  0  0  0  0  0  0  0
   -5.6964    1.6229   -0.0478 C   0  0  0  0  0  0  0  0  0  0  0  0
   -5.2827    2.9485   -0.1428 C   0  0  0  0  0  0  0  0  0  0  0  0
   -6.2505    3.9593   -0.2111 C   0  0  0  0  0  0  0  0  0  0  0  0
   -7.6155    3.6418   -0.1841 C   0  0  0  0  0  0  0  0  0  0  0  0
   -8.0347    2.3109   -0.0886 C   0  0  0  0  0  0  0  0  0  0  0  0
   -7.0685    1.3006   -0.0204 C   0  0  0  0  0  0  0  0  0  0  0  0
   -7.2052   -0.1606    0.0836 C   0  0  0  0  0  0  0  0  0  0  0  0
   -8.3421   -0.9746    0.1451 C   0  0  0  0  0  0  0  0  0  0  0  0
   -8.1773   -2.3600    0.2428 C   0  0  0  0  0  0  0  0  0  0  0  0
   -6.8948   -2.9246    0.2787 C   0  0  0  0  0  0  0  0  0  0  0  0
   -5.7562   -2.1104    0.2170 C   0  0  0  0  0  0  0  0  0  0  0  0
   -5.9167   -0.7312    0.1197 C   0  0  0  0  0  0  0  0  0  0  0  0
   -3.9655    0.3647    1.3066 C   0  0  0  0  0  0  0  0  0  0  0  0
   -4.5946    0.5058    2.5531 C   0  0  0  0  0  0  0  0  0  0  0  0
   -3.8805    0.5266    3.7481 C   0  0  0  0  0  0  0  0  0  0  0  0
   -2.4887    0.4025    3.7027 C   0  0  0  0  0  0  0  0  0  0  0  0
   -1.8370    0.2610    2.4822 C   0  0  0  0  0  0  0  0  0  0  0  0
   -2.5600    0.2396    1.2672 C   0  0  0  0  0  0  0  0  0  0  0  0
    0.3603    1.1070   -0.0263 C   0  0  0  0  0  0  0  0  0  0  0  0
    1.7484    0.9823   -0.0217 C   0  0  0  0  0  0  0  0  0  0  0  0
    4.5378    0.7312    0.3088 N   0  0  0  0  0  0  0  0  0  0  0  0
    5.8754    0.6662    0.2994 C   0  0  0  0  0  0  0  0  0  0  0  0
    6.6308    1.9142    0.6024 C   0  0  0  0  0  0  0  0  0  0  0  0
    8.0368    1.9138    0.6119 C   0  0  0  0  0  0  0  0  0  0  0  0
    8.7433    3.0836    0.8938 C   0  0  0  0  0  0  0  0  0  0  0  0
    8.0571    4.2705    1.1722 C   0  0  0  0  0  0  0  0  0  0  0  0
    6.6582    4.2793    1.1689 C   0  0  0  0  0  0  0  0  0  0  0  0
    5.9496    3.1109    0.8871 C   0  0  0  0  0  0  0  0  0  0  0  0
    6.5824   -0.4416    0.0428 N   0  0  0  0  0  0  0  0  0  0  0  0
    6.1714   -4.0801   -0.4905 C   0  0  0  0  0  0  0  0  0  0  0  0
    6.9520   -5.2026   -0.7717 C   0  0  0  0  0  0  0  0  0  0  0  0
    8.9152   -5.9342   -1.3151 H   0  0  0  0  0  0  0  0  0  0  0  0
    9.9290   -3.6536   -1.3736 H   0  0  0  0  0  0  0  0  0  0  0  0
    8.5270   -1.6554   -0.8561 H   0  0  0  0  0  0  0  0  0  0  0  0
    3.9652   -2.4807   -0.5201 H   0  0  0  0  0  0  0  0  0  0  0  0
    1.9717   -2.4148    0.2062 H   0  0  0  0  0  0  0  0  0  0  0  0
   -0.4895   -2.1819    0.1933 H   0  0  0  0  0  0  0  0  0  0  0  0
   -0.7723   -0.1696   -2.3721 H   0  0  0  0  0  0  0  0  0  0  0  0
   -1.9386   -0.2250   -4.5348 H   0  0  0  0  0  0  0  0  0  0  0  0
   -4.4416   -0.0186   -4.6211 H   0  0  0  0  0  0  0  0  0  0  0  0
   -5.7039    0.2426   -2.5021 H   0  0  0  0  0  0  0  0  0  0  0  0
   -4.2190    3.1991   -0.1641 H   0  0  0  0  0  0  0  0  0  0  0  0
   -5.9388    5.0043   -0.2859 H   0  0  0  0  0  0  0  0  0  0  0  0
   -8.3587    4.4416   -0.2382 H   0  0  0  0  0  0  0  0  0  0  0  0
   -9.1003    2.0683   -0.0678 H   0  0  0  0  0  0  0  0  0  0  0  0
   -9.3443   -0.5388    0.1175 H   0  0  0  0  0  0  0  0  0  0  0  0
   -9.0559   -3.0083    0.2918 H   0  0  0  0  0  0  0  0  0  0  0  0
   -6.7825   -4.0092    0.3553 H   0  0  0  0  0  0  0  0  0  0  0  0
   -4.7574   -2.5535    0.2452 H   0  0  0  0  0  0  0  0  0  0  0  0
   -5.6824    0.6023    2.5768 H   0  0  0  0  0  0  0  0  0  0  0  0
   -4.4022    0.6382    4.7010 H   0  0  0  0  0  0  0  0  0  0  0  0
   -1.9003    0.4158    4.6238 H   0  0  0  0  0  0  0  0  0  0  0  0
   -0.7521    0.1662    2.4652 H   0  0  0  0  0  0  0  0  0  0  0  0
   -0.1071    2.0922   -0.0872 H   0  0  0  0  0  0  0  0  0  0  0  0
    2.3854    1.8654   -0.0757 H   0  0  0  0  0  0  0  0  0  0  0  0
    8.5617    0.9826    0.3981 H   0  0  0  0  0  0  0  0  0  0  0  0
    9.8363    3.0696    0.8978 H   0  0  0  0  0  0  0  0  0  0  0  0
    8.6115    5.1863    1.3933 H   0  0  0  0  0  0  0  0  0  0  0  0
    6.1164    5.2029    1.3886 H   0  0  0  0  0  0  0  0  0  0  0  0
    4.8594    3.1062    0.8865 H   0  0  0  0  0  0  0  0  0  0  0  0
    5.1226   -4.2212   -0.2226 H   0  0  0  0  0  0  0  0  0  0  0  0
    6.5024   -6.1980   -0.7343 H   0  0  0  0  0  0  0  0  0  0  0  0
  1  2  2  0
  1 50  1  0
  1 51  1  0
  2  3  1  0
  2 52  1  0
  3  4  2  0
  3 53  1  0
  4  5  1  0
  4 49  1  0
  5  6  2  0
  5 48  1  0
  6  7  1  0
  6 54  1  0
  7  8  1  0
  7 40  2  0
  8  9  2  0
  8 39  1  0
  9 10  1  0
  9 55  1  0
 10 11  2  0
 10 56  1  0
 11 12  1  0
 11 38  1  0
 12 13  1  0
 12 37  1  0
 13 14  2  0
 13 18  1  0
 14 15  1  0
 14 57  1  0
 15 16  2  0
 15 58  1  0
 16 17  1  0
 16 59  1  0
 17 18  2  0
 17 60  1  0
 19 18  1  6
 19 20  1  0
 19 31  1  0
 19 32  1  0
 20 21  2  0
 20 25  1  0
 21 22  1  0
 21 61  1  0
 22 23  2  0
 22 62  1  0
 23 24  1  0
 23 63  1  0
 24 25  2  0
 24 64  1  0
 25 26  1  0
 26 27  2  0
 26 31  1  0
 27 28  1  0
 27 65  1  0
 28 29  2  0
 28 66  1  0
 29 30  1  0
 29 67  1  0
 30 31  2  0
 30 68  1  0
 32 33  1  0
 32 37  2  0
 33 34  2  0
 33 69  1  0
 34 35  1  0
 34 70  1  0
 35 36  2  0
 35 71  1  0
 36 37  1  0
 36 72  1  0
 38 39  2  0
 38 73  1  0
 39 74  1  0
 40 41  1  0
 41 42  1  0
 41 48  2  0
 42 43  2  0
 42 47  1  0
 43 44  1  0
 43 75  1  0
 44 45  2  0
 44 76  1  0
 45 46  1  0
 45 77  1  0
 46 47  2  0
 46 78  1  0
 47 79  1  0
 49 50  2  0
 49 80  1  0
 50 81  1  0
M  END

