
     RDKit          3D

 83 92  0  0  0  0  0  0  0  0999 V2000
   -0.1736    0.0734    2.4226 C   0  0  0  0  0  0  0  0  0  0  0  0
    0.4670    0.0239    1.0588 C   0  0  0  0  0  0  0  0  0  0  0  0
    1.8592    0.0030    0.9130 C   0  0  0  0  0  0  0  0  0  0  0  0
    2.4734   -0.0425   -0.3491 C   0  0  0  0  0  0  0  0  0  0  0  0
    3.9562   -0.0625   -0.4643 C   0  0  0  0  0  0  0  0  0  0  0  0
    4.4916   -0.1019   -1.6904 N   0  0  0  0  0  0  0  0  0  0  0  0
    5.8298   -0.1184   -1.7539 C   0  0  0  0  0  0  0  0  0  0  0  0
    6.4688   -0.1611   -3.0946 C   0  0  0  0  0  0  0  0  0  0  0  0
    5.6807   -0.1826   -4.2590 C   0  0  0  0  0  0  0  0  0  0  0  0
    6.2823   -0.2225   -5.5169 C   0  0  0  0  0  0  0  0  0  0  0  0
    7.6769   -0.2415   -5.6284 C   0  0  0  0  0  0  0  0  0  0  0  0
    8.4682   -0.2203   -4.4747 C   0  0  0  0  0  0  0  0  0  0  0  0
    7.8696   -0.1804   -3.2154 C   0  0  0  0  0  0  0  0  0  0  0  0
    6.6227   -0.0979   -0.6748 N   0  0  0  0  0  0  0  0  0  0  0  0
    6.0098   -0.0587    0.5151 C   0  0  0  0  0  0  0  0  0  0  0  0
    6.8524   -0.0351    1.7387 C   0  0  0  0  0  0  0  0  0  0  0  0
    8.2548   -0.0533    1.6377 C   0  0  0  0  0  0  0  0  0  0  0  0
    9.0449   -0.0309    2.7871 C   0  0  0  0  0  0  0  0  0  0  0  0
    8.4458    0.0098    4.0509 C   0  0  0  0  0  0  0  0  0  0  0  0
    7.0511    0.0281    4.1601 C   0  0  0  0  0  0  0  0  0  0  0  0
    6.2583    0.0058    3.0125 C   0  0  0  0  0  0  0  0  0  0  0  0
    4.6782   -0.0397    0.6626 N   0  0  0  0  0  0  0  0  0  0  0  0
    1.6687   -0.0683   -1.4994 C   0  0  0  0  0  0  0  0  0  0  0  0
    0.2819   -0.0484   -1.3743 C   0  0  0  0  0  0  0  0  0  0  0  0
   -0.3214   -0.0026   -0.1112 C   0  0  0  0  0  0  0  0  0  0  0  0
   -1.7539    0.0184   -0.0143 N   0  0  0  0  0  0  0  0  0  0  0  0
   -2.4245    1.2535   -0.0186 C   0  0  0  0  0  0  0  0  0  0  0  0
   -1.6909    2.4577   -0.1265 C   0  0  0  0  0  0  0  0  0  0  0  0
   -2.3330    3.6915   -0.1306 C   0  0  0  0  0  0  0  0  0  0  0  0
   -3.7256    3.7613   -0.0298 C   0  0  0  0  0  0  0  0  0  0  0  0
   -4.4502    2.5770    0.0766 C   0  0  0  0  0  0  0  0  0  0  0  0
   -3.8309    1.3179    0.0866 C   0  0  0  0  0  0  0  0  0  0  0  0
   -4.7022    0.0634    0.2226 C   0  0  2  0  0  0  0  0  0  0  0  0
   -5.8133    0.0426   -0.8427 C   0  0  0  0  0  0  0  0  0  0  0  0
   -5.6809   -0.0046   -2.2276 C   0  0  0  0  0  0  0  0  0  0  0  0
   -6.8359   -0.0158   -3.0206 C   0  0  0  0  0  0  0  0  0  0  0  0
   -8.1065    0.0200   -2.4296 C   0  0  0  0  0  0  0  0  0  0  0  0
   -8.2431    0.0675   -1.0385 C   0  0  0  0  0  0  0  0  0  0  0  0
   -7.0897    0.0787   -0.2456 C   0  0  0  0  0  0  0  0  0  0  0  0
   -6.9230    0.1246    1.2155 C   0  0  0  0  0  0  0  0  0  0  0  0
   -7.8682    0.1707    2.2467 C   0  0  0  0  0  0  0  0  0  0  0  0
   -7.4219    0.2085    3.5717 C   0  0  0  0  0  0  0  0  0  0  0  0
   -6.0508    0.2003    3.8627 C   0  0  0  0  0  0  0  0  0  0  0  0
   -5.1040    0.1541    2.8309 C   0  0  0  0  0  0  0  0  0  0  0  0
   -5.5447    0.1165    1.5111 C   0  0  0  0  0  0  0  0  0  0  0  0
   -3.8630   -1.2188    0.1699 C   0  0  0  0  0  0  0  0  0  0  0  0
   -4.5139   -2.4599    0.2417 C   0  0  0  0  0  0  0  0  0  0  0  0
   -3.8195   -3.6665    0.2132 C   0  0  0  0  0  0  0  0  0  0  0  0
   -2.4257   -3.6387    0.1087 C   0  0  0  0  0  0  0  0  0  0  0  0
   -1.7526   -2.4238    0.0327 C   0  0  0  0  0  0  0  0  0  0  0  0
   -2.4555   -1.1970    0.0616 C   0  0  0  0  0  0  0  0  0  0  0  0
    0.5880    0.0921    3.2149 H   0  0  0  0  0  0  0  0  0  0  0  0
   -0.8223   -0.8017    2.5911 H   0  0  0  0  0  0  0  0  0  0  0  0
   -0.8067    0.9688    2.5342 H   0  0  0  0  0  0  0  0  0  0  0  0
    2.4967    0.0227    1.7978 H   0  0  0  0  0  0  0  0  0  0  0  0
    4.5953   -0.1674   -4.1586 H   0  0  0  0  0  0  0  0  0  0  0  0
    5.6611   -0.2388   -6.4159 H   0  0  0  0  0  0  0  0  0  0  0  0
    8.1472   -0.2727   -6.6148 H   0  0  0  0  0  0  0  0  0  0  0  0
    9.5578   -0.2351   -4.5581 H   0  0  0  0  0  0  0  0  0  0  0  0
    8.4747   -0.1636   -2.3086 H   0  0  0  0  0  0  0  0  0  0  0  0
    8.7091   -0.0850    0.6472 H   0  0  0  0  0  0  0  0  0  0  0  0
   10.1341   -0.0453    2.6980 H   0  0  0  0  0  0  0  0  0  0  0  0
    9.0661    0.0273    4.9509 H   0  0  0  0  0  0  0  0  0  0  0  0
    6.5797    0.0598    5.1456 H   0  0  0  0  0  0  0  0  0  0  0  0
    5.1705    0.0197    3.0842 H   0  0  0  0  0  0  0  0  0  0  0  0
    2.1430   -0.1036   -2.4800 H   0  0  0  0  0  0  0  0  0  0  0  0
   -0.3557   -0.0680   -2.2608 H   0  0  0  0  0  0  0  0  0  0  0  0
   -0.6055    2.4199   -0.2116 H   0  0  0  0  0  0  0  0  0  0  0  0
   -1.7367    4.6037   -0.2156 H   0  0  0  0  0  0  0  0  0  0  0  0
   -4.2400    4.7246   -0.0335 H   0  0  0  0  0  0  0  0  0  0  0  0
   -5.5387    2.6201    0.1573 H   0  0  0  0  0  0  0  0  0  0  0  0
   -4.6914   -0.0326   -2.6910 H   0  0  0  0  0  0  0  0  0  0  0  0
   -6.7459   -0.0527   -4.1093 H   0  0  0  0  0  0  0  0  0  0  0  0
   -8.9982    0.0107   -3.0618 H   0  0  0  0  0  0  0  0  0  0  0  0
   -9.2360    0.0953   -0.5822 H   0  0  0  0  0  0  0  0  0  0  0  0
   -8.9385    0.1773    2.0246 H   0  0  0  0  0  0  0  0  0  0  0  0
   -8.1484    0.2448    4.3876 H   0  0  0  0  0  0  0  0  0  0  0  0
   -5.7179    0.2302    4.9034 H   0  0  0  0  0  0  0  0  0  0  0  0
   -4.0355    0.1478    3.0609 H   0  0  0  0  0  0  0  0  0  0  0  0
   -5.6031   -2.4701    0.3243 H   0  0  0  0  0  0  0  0  0  0  0  0
   -4.3581   -4.6147    0.2721 H   0  0  0  0  0  0  0  0  0  0  0  0
   -1.8527   -4.5692    0.0835 H   0  0  0  0  0  0  0  0  0  0  0  0
   -0.6667   -2.4189   -0.0544 H   0  0  0  0  0  0  0  0  0  0  0  0
  1  2  1  0
  1 52  1  0
  1 53  1  0
  1 54  1  0
  2  3  2  0
  2 25  1  0
  3  4  1  0
  3 55  1  0
  4  5  1  0
  4 23  2  0
  5  6  2  0
  5 22  1  0
  6  7  1  0
  7  8  1  0
  7 14  2  0
  8  9  2  0
  8 13  1  0
  9 10  1  0
  9 56  1  0
 10 11  2  0
 10 57  1  0
 11 12  1  0
 11 58  1  0
 12 13  2  0
 12 59  1  0
 13 60  1  0
 14 15  1  0
 15 16  1  0
 15 22  2  0
 16 17  2  0
 16 21  1  0
 17 18  1  0
 17 61  1  0
 18 19  2  0
 18 62  1  0
 19 20  1  0
 19 63  1  0
 20 21  2  0
 20 64  1  0
 21 65  1  0
 23 24  1  0
 23 66  1  0
 24 25  2  0
 24 67  1  0
 25 26  1  0
 26 27  1  0
 26 51  1  0
 27 28  2  0
 27 32  1  0
 28 29  1  0
 28 68  1  0
 29 30  2  0
 29 69  1  0
 30 31  1  0
 30 70  1  0
 31 32  2  0
 31 71  1  0
 33 32  1  6
 33 34  1  0
 33 45  1  0
 33 46  1  0
 34 35  2  0
 34 39  1  0
 35 36  1  0
 35 72  1  0
 36 37  2  0
 36 73  1  0
 37 38  1  0
 37 74  1  0
 38 39  2  0
 38 75  1  0
 39 40  1  0
 40 41  2  0
 40 45  1  0
 41 42  1  0
 41 76  1  0
 42 43  2  0
 42 77  1  0
 43 44  1  0
 43 78  1  0
 44 45  2  0
 44 79  1  0
 46 47  1  0
 46 51  2  0
 47 48  2  0
 47 80  1  0
 48 49  1  0
 48 81  1  0
 49 50  2  0
 49 82  1  0
 50 51  1  0
 50 83  1  0
M  END

