
     RDKit          3D

 75 82  0  0  0  0  0  0  0  0999 V2000
    0.3133   -2.5048   -0.2839 C   0  0  0  0  0  0  0  0  0  0  0  0
   -0.3796   -1.1656   -0.1934 C   0  0  0  0  0  0  0  0  0  0  0  0
   -1.7772   -1.0925   -0.2025 C   0  0  0  0  0  0  0  0  0  0  0  0
   -2.4588    0.1332   -0.1308 C   0  0  0  0  0  0  0  0  0  0  0  0
   -3.9440    0.1726   -0.1427 C   0  0  0  0  0  0  0  0  0  0  0  0
   -4.5437    1.3682   -0.0752 N   0  0  0  0  0  0  0  0  0  0  0  0
   -5.8828    1.3633   -0.0887 C   0  0  0  0  0  0  0  0  0  0  0  0
   -6.5903    2.6683   -0.0160 C   0  0  0  0  0  0  0  0  0  0  0  0
   -5.8632    3.8691    0.0650 C   0  0  0  0  0  0  0  0  0  0  0  0
   -6.5285    5.0932    0.1330 C   0  0  0  0  0  0  0  0  0  0  0  0
   -7.9271    5.1345    0.1211 C   0  0  0  0  0  0  0  0  0  0  0  0
   -8.6580    3.9441    0.0406 C   0  0  0  0  0  0  0  0  0  0  0  0
   -7.9954    2.7184   -0.0275 C   0  0  0  0  0  0  0  0  0  0  0  0
   -6.6197    0.2475   -0.1637 N   0  0  0  0  0  0  0  0  0  0  0  0
   -5.9453   -0.9077   -0.2278 C   0  0  0  0  0  0  0  0  0  0  0  0
   -6.7239   -2.1710   -0.3119 C   0  0  0  0  0  0  0  0  0  0  0  0
   -6.0648   -3.4110   -0.3824 C   0  0  0  0  0  0  0  0  0  0  0  0
   -6.7973   -4.5956   -0.4615 C   0  0  0  0  0  0  0  0  0  0  0  0
   -8.1959   -4.5577   -0.4712 C   0  0  0  0  0  0  0  0  0  0  0  0
   -8.8594   -3.3278   -0.4013 C   0  0  0  0  0  0  0  0  0  0  0  0
   -8.1296   -2.1416   -0.3222 C   0  0  0  0  0  0  0  0  0  0  0  0
   -4.6084   -0.9877   -0.2200 N   0  0  0  0  0  0  0  0  0  0  0  0
   -1.7127    1.3186   -0.0497 C   0  0  0  0  0  0  0  0  0  0  0  0
   -0.3206    1.2622   -0.0386 C   0  0  0  0  0  0  0  0  0  0  0  0
    0.3626    0.0369   -0.1072 C   0  0  0  0  0  0  0  0  0  0  0  0
    1.8609    0.0263   -0.1039 C   0  0  0  0  0  0  0  0  0  0  0  0
    2.5572    0.0984   -1.3199 C   0  0  0  0  0  0  0  0  0  0  0  0
    3.9520    0.0940   -1.3646 C   0  0  0  0  0  0  0  0  0  0  0  0
    4.6797    0.0345   -0.1701 C   0  0  0  0  0  0  0  0  0  0  0  0
    6.1006    0.0380   -0.1900 N   0  0  0  0  0  0  0  0  0  0  0  0
    6.9071    1.0312   -0.7540 C   0  0  0  0  0  0  0  0  0  0  0  0
    6.5396    2.2282   -1.3824 C   0  0  0  0  0  0  0  0  0  0  0  0
    7.5591    3.0617   -1.8441 C   0  0  0  0  0  0  0  0  0  0  0  0
    8.9156    2.7207   -1.6842 C   0  0  0  0  0  0  0  0  0  0  0  0
    9.2774    1.5340   -1.0481 C   0  0  0  0  0  0  0  0  0  0  0  0
    8.2724    0.6781   -0.5740 C   0  0  0  0  0  0  0  0  0  0  0  0
    8.2865   -0.5893    0.1300 C   0  0  0  0  0  0  0  0  0  0  0  0
    9.3098   -1.4393    0.5743 C   0  0  0  0  0  0  0  0  0  0  0  0
    8.9740   -2.6283    1.2200 C   0  0  0  0  0  0  0  0  0  0  0  0
    7.6249   -2.9776    1.4192 C   0  0  0  0  0  0  0  0  0  0  0  0
    6.5874   -2.1500    0.9879 C   0  0  0  0  0  0  0  0  0  0  0  0
    6.9289   -0.9505    0.3498 C   0  0  0  0  0  0  0  0  0  0  0  0
    3.9920   -0.0252    1.0501 C   0  0  0  0  0  0  0  0  0  0  0  0
    2.5918   -0.0387    1.1061 C   0  0  0  0  0  0  0  0  0  0  0  0
    1.8868   -0.0961    2.4405 C   0  0  0  0  0  0  0  0  0  0  0  0
    0.9405   -2.5742   -1.1874 H   0  0  0  0  0  0  0  0  0  0  0  0
   -0.4162   -3.3269   -0.3122 H   0  0  0  0  0  0  0  0  0  0  0  0
    0.9853   -2.6747    0.5730 H   0  0  0  0  0  0  0  0  0  0  0  0
   -2.3673   -2.0075   -0.2693 H   0  0  0  0  0  0  0  0  0  0  0  0
   -4.7739    3.8231    0.0733 H   0  0  0  0  0  0  0  0  0  0  0  0
   -5.9542    6.0210    0.1957 H   0  0  0  0  0  0  0  0  0  0  0  0
   -8.4474    6.0944    0.1744 H   0  0  0  0  0  0  0  0  0  0  0  0
   -9.7505    3.9724    0.0309 H   0  0  0  0  0  0  0  0  0  0  0  0
   -8.5531    1.7837   -0.0906 H   0  0  0  0  0  0  0  0  0  0  0  0
   -4.9747   -3.4268   -0.3741 H   0  0  0  0  0  0  0  0  0  0  0  0
   -6.2755   -5.5544   -0.5160 H   0  0  0  0  0  0  0  0  0  0  0  0
   -8.7688   -5.4867   -0.5332 H   0  0  0  0  0  0  0  0  0  0  0  0
   -9.9518   -3.2942   -0.4086 H   0  0  0  0  0  0  0  0  0  0  0  0
   -8.6344   -1.1768   -0.2672 H   0  0  0  0  0  0  0  0  0  0  0  0
   -2.2350    2.2738    0.0026 H   0  0  0  0  0  0  0  0  0  0  0  0
    0.2579    2.1877    0.0219 H   0  0  0  0  0  0  0  0  0  0  0  0
    1.9903    0.1489   -2.2532 H   0  0  0  0  0  0  0  0  0  0  0  0
    4.4774    0.1291   -2.3208 H   0  0  0  0  0  0  0  0  0  0  0  0
    5.4913    2.5049   -1.5052 H   0  0  0  0  0  0  0  0  0  0  0  0
    7.2957    4.0004   -2.3384 H   0  0  0  0  0  0  0  0  0  0  0  0
    9.6891    3.3953   -2.0588 H   0  0  0  0  0  0  0  0  0  0  0  0
   10.3309    1.2744   -0.9169 H   0  0  0  0  0  0  0  0  0  0  0  0
   10.3575   -1.1734    0.4123 H   0  0  0  0  0  0  0  0  0  0  0  0
    9.7622   -3.2984    1.5715 H   0  0  0  0  0  0  0  0  0  0  0  0
    7.3817   -3.9182    1.9202 H   0  0  0  0  0  0  0  0  0  0  0  0
    5.5448   -2.4331    1.1406 H   0  0  0  0  0  0  0  0  0  0  0  0
    4.5674   -0.0508    1.9782 H   0  0  0  0  0  0  0  0  0  0  0  0
    1.2060   -0.9605    2.5021 H   0  0  0  0  0  0  0  0  0  0  0  0
    1.2653    0.7988    2.6049 H   0  0  0  0  0  0  0  0  0  0  0  0
    2.6060   -0.1687    3.2690 H   0  0  0  0  0  0  0  0  0  0  0  0
  1  2  1  0
  1 46  1  0
  1 47  1  0
  1 48  1  0
  2  3  2  0
  2 25  1  0
  3  4  1  0
  3 49  1  0
  4  5  1  0
  4 23  2  0
  5  6  2  0
  5 22  1  0
  6  7  1  0
  7  8  1  0
  7 14  2  0
  8  9  2  0
  8 13  1  0
  9 10  1  0
  9 50  1  0
 10 11  2  0
 10 51  1  0
 11 12  1  0
 11 52  1  0
 12 13  2  0
 12 53  1  0
 13 54  1  0
 14 15  1  0
 15 16  1  0
 15 22  2  0
 16 17  2  0
 16 21  1  0
 17 18  1  0
 17 55  1  0
 18 19  2  0
 18 56  1  0
 19 20  1  0
 19 57  1  0
 20 21  2  0
 20 58  1  0
 21 59  1  0
 23 24  1  0
 23 60  1  0
 24 25  2  0
 24 61  1  0
 25 26  1  0
 26 27  2  0
 26 44  1  0
 27 28  1  0
 27 62  1  0
 28 29  2  0
 28 63  1  0
 29 30  1  0
 29 43  1  0
 30 31  1  0
 30 42  1  0
 31 32  2  0
 31 36  1  0
 32 33  1  0
 32 64  1  0
 33 34  2  0
 33 65  1  0
 34 35  1  0
 34 66  1  0
 35 36  2  0
 35 67  1  0
 36 37  1  0
 37 38  1  0
 37 42  2  0
 38 39  2  0
 38 68  1  0
 39 40  1  0
 39 69  1  0
 40 41  2  0
 40 70  1  0
 41 42  1  0
 41 71  1  0
 43 44  2  0
 43 72  1  0
 44 45  1  0
 45 73  1  0
 45 74  1  0
 45 75  1  0
M  END

