
     RDKit          3D

 50 55  0  0  0  0  0  0  0  0999 V2000
   -2.7292    5.1915   -1.6823 C   0  0  0  0  0  0  0  0  0  0  0  0
   -3.6441    4.2070   -1.2927 C   0  0  0  0  0  0  0  0  0  0  0  0
   -3.1912    2.9529   -0.8829 C   0  0  0  0  0  0  0  0  0  0  0  0
   -1.8141    2.6701   -0.8558 C   0  0  0  0  0  0  0  0  0  0  0  0
   -1.3287    1.3375   -0.4171 C   0  0  0  0  0  0  0  0  0  0  0  0
   -2.2324    0.4022   -0.0964 N   0  0  0  0  0  0  0  0  0  0  0  0
   -1.7428   -0.7838    0.2882 C   0  0  0  0  0  0  0  0  0  0  0  0
   -2.6985   -1.8569    0.6612 C   0  0  0  0  0  0  0  0  0  0  0  0
   -4.0846   -1.6421    0.5621 C   0  0  0  0  0  0  0  0  0  0  0  0
   -4.9801   -2.6533    0.9105 C   0  0  0  0  0  0  0  0  0  0  0  0
   -4.5034   -3.8882    1.3640 C   0  0  0  0  0  0  0  0  0  0  0  0
   -3.1254   -4.1084    1.4679 C   0  0  0  0  0  0  0  0  0  0  0  0
   -2.2265   -3.1004    1.1191 C   0  0  0  0  0  0  0  0  0  0  0  0
   -0.4337   -1.0583    0.3677 N   0  0  0  0  0  0  0  0  0  0  0  0
    0.3967   -0.0711    0.0237 C   0  0  0  0  0  0  0  0  0  0  0  0
    1.7770   -0.3198    0.0869 N   0  0  0  0  0  0  0  0  0  0  0  0
    2.6689    0.6331    0.6704 C   0  0  0  0  0  0  0  0  0  0  0  0
    2.2506    1.8265    1.2829 C   0  0  0  0  0  0  0  0  0  0  0  0
    3.1651    2.7014    1.8760 C   0  0  0  0  0  0  0  0  0  0  0  0
    4.5278    2.4061    1.8821 C   0  0  0  0  0  0  0  0  0  0  0  0
    4.9614    1.2138    1.3028 C   0  0  0  0  0  0  0  0  0  0  0  0
    4.0469    0.3389    0.7170 C   0  0  0  0  0  0  0  0  0  0  0  0
    4.5645   -0.8243    0.2175 O   0  0  0  0  0  0  0  0  0  0  0  0
    3.7205   -1.7405   -0.3469 C   0  0  0  0  0  0  0  0  0  0  0  0
    4.3203   -2.8890   -0.8626 C   0  0  0  0  0  0  0  0  0  0  0  0
    3.5516   -3.8629   -1.4996 C   0  0  0  0  0  0  0  0  0  0  0  0
    2.1772   -3.6625   -1.6222 C   0  0  0  0  0  0  0  0  0  0  0  0
    1.5766   -2.5139   -1.0993 C   0  0  0  0  0  0  0  0  0  0  0  0
    2.3285   -1.5331   -0.4305 C   0  0  0  0  0  0  0  0  0  0  0  0
   -0.0043    1.1379   -0.3763 N   0  0  0  0  0  0  0  0  0  0  0  0
   -0.9003    3.6642   -1.2500 C   0  0  0  0  0  0  0  0  0  0  0  0
   -1.3574    4.9166   -1.6604 C   0  0  0  0  0  0  0  0  0  0  0  0
   -3.0858    6.1735   -2.0040 H   0  0  0  0  0  0  0  0  0  0  0  0
   -4.7161    4.4190   -1.3090 H   0  0  0  0  0  0  0  0  0  0  0  0
   -3.8929    2.1765   -0.5771 H   0  0  0  0  0  0  0  0  0  0  0  0
   -4.4422   -0.6750    0.2076 H   0  0  0  0  0  0  0  0  0  0  0  0
   -6.0558   -2.4786    0.8287 H   0  0  0  0  0  0  0  0  0  0  0  0
   -5.2064   -4.6794    1.6376 H   0  0  0  0  0  0  0  0  0  0  0  0
   -2.7502   -5.0711    1.8241 H   0  0  0  0  0  0  0  0  0  0  0  0
   -1.1501   -3.2573    1.1987 H   0  0  0  0  0  0  0  0  0  0  0  0
    1.1975    2.0908    1.2851 H   0  0  0  0  0  0  0  0  0  0  0  0
    2.7947    3.6210    2.3345 H   0  0  0  0  0  0  0  0  0  0  0  0
    5.2484    3.0883    2.3382 H   0  0  0  0  0  0  0  0  0  0  0  0
    6.0135    0.9229    1.2970 H   0  0  0  0  0  0  0  0  0  0  0  0
    5.4025   -2.9846   -0.7565 H   0  0  0  0  0  0  0  0  0  0  0  0
    4.0262   -4.7611   -1.9004 H   0  0  0  0  0  0  0  0  0  0  0  0
    1.5519   -4.4012   -2.1285 H   0  0  0  0  0  0  0  0  0  0  0  0
    0.5025   -2.3929   -1.2017 H   0  0  0  0  0  0  0  0  0  0  0  0
    0.1660    3.4353   -1.2317 H   0  0  0  0  0  0  0  0  0  0  0  0
   -0.6406    5.6827   -1.9665 H   0  0  0  0  0  0  0  0  0  0  0  0
  1  2  2  0
  1 32  1  0
  1 33  1  0
  2  3  1  0
  2 34  1  0
  3  4  2  0
  3 35  1  0
  4  5  1  0
  4 31  1  0
  5  6  2  0
  5 30  1  0
  6  7  1  0
  7  8  1  0
  7 14  2  0
  8  9  2  0
  8 13  1  0
  9 10  1  0
  9 36  1  0
 10 11  2  0
 10 37  1  0
 11 12  1  0
 11 38  1  0
 12 13  2  0
 12 39  1  0
 13 40  1  0
 14 15  1  0
 15 16  1  0
 15 30  2  0
 16 17  1  0
 16 29  1  0
 17 18  2  0
 17 22  1  0
 18 19  1  0
 18 41  1  0
 19 20  2  0
 19 42  1  0
 20 21  1  0
 20 43  1  0
 21 22  2  0
 21 44  1  0
 22 23  1  0
 23 24  1  0
 24 25  2  0
 24 29  1  0
 25 26  1  0
 25 45  1  0
 26 27  2  0
 26 46  1  0
 27 28  1  0
 27 47  1  0
 28 29  2  0
 28 48  1  0
 31 32  2  0
 31 49  1  0
 32 50  1  0
M  END

