
     RDKit          3D

 85 92  0  0  0  0  0  0  0  0999 V2000
   -6.2883    2.2974   -0.1366 C   0  0  0  0  0  0  0  0  0  0  0  0
   -5.3852    3.4867   -0.5092 C   0  0  1  0  0  0  0  0  0  0  0  0
   -5.7972    3.9825   -1.9150 C   0  0  0  0  0  0  0  0  0  0  0  0
   -5.6222    4.6139    0.5228 C   0  0  0  0  0  0  0  0  0  0  0  0
   -3.8921    3.1060   -0.5175 C   0  0  0  0  0  0  0  0  0  0  0  0
   -2.9221    4.0824   -0.8433 C   0  0  0  0  0  0  0  0  0  0  0  0
   -1.5698    3.7839   -0.8651 C   0  0  0  0  0  0  0  0  0  0  0  0
   -1.1396    2.4840   -0.5575 C   0  0  0  0  0  0  0  0  0  0  0  0
   -2.0535    1.4587   -0.2203 C   0  0  0  0  0  0  0  0  0  0  0  0
   -3.4249    1.8266   -0.2166 C   0  0  0  0  0  0  0  0  0  0  0  0
   -1.4605    0.0563    0.1042 B   0  0  0  0  0  0  0  0  0  0  0  0
   -2.1073   -1.2986    0.5159 C   0  0  0  0  0  0  0  0  0  0  0  0
   -3.4898   -1.5610    0.7055 C   0  0  0  0  0  0  0  0  0  0  0  0
   -4.0064   -2.8024    1.0765 C   0  0  0  0  0  0  0  0  0  0  0  0
   -5.5108   -3.0682    1.2786 C   0  0  1  0  0  0  0  0  0  0  0  0
   -6.3643   -1.8134    1.0224 C   0  0  0  0  0  0  0  0  0  0  0  0
   -5.9734   -4.1735    0.3008 C   0  0  0  0  0  0  0  0  0  0  0  0
   -5.7597   -3.5319    2.7329 C   0  0  0  0  0  0  0  0  0  0  0  0
   -3.0775   -3.8513    1.2703 C   0  0  0  0  0  0  0  0  0  0  0  0
   -1.7167   -3.6567    1.1013 C   0  0  0  0  0  0  0  0  0  0  0  0
   -1.2360   -2.3920    0.7284 C   0  0  0  0  0  0  0  0  0  0  0  0
    0.1235   -2.3279    0.5961 O   0  0  0  0  0  0  0  0  0  0  0  0
    0.7759   -1.1927    0.2486 C   0  0  0  0  0  0  0  0  0  0  0  0
    2.1687   -1.2638    0.1537 C   0  0  0  0  0  0  0  0  0  0  0  0
    2.8780   -0.1103   -0.2024 C   0  0  0  0  0  0  0  0  0  0  0  0
    4.3079   -0.1653   -0.3042 N   0  0  0  0  0  0  0  0  0  0  0  0
    4.8938   -0.4953   -1.5388 C   0  0  0  0  0  0  0  0  0  0  0  0
    4.0745   -0.7677   -2.6568 C   0  0  0  0  0  0  0  0  0  0  0  0
    4.6271   -1.0963   -3.8909 C   0  0  0  0  0  0  0  0  0  0  0  0
    6.0133   -1.1618   -4.0415 C   0  0  0  0  0  0  0  0  0  0  0  0
    6.8210   -0.8931   -2.9371 C   0  0  0  0  0  0  0  0  0  0  0  0
    6.2993   -0.5587   -1.6777 C   0  0  0  0  0  0  0  0  0  0  0  0
    7.2614   -0.2776   -0.5148 C   0  0  1  0  0  0  0  0  0  0  0  0
    8.1347   -1.5360   -0.2650 C   0  0  0  0  0  0  0  0  0  0  0  0
    8.1767    0.9173   -0.8932 C   0  0  0  0  0  0  0  0  0  0  0  0
    6.4978    0.0655    0.7722 C   0  0  0  0  0  0  0  0  0  0  0  0
    7.2164    0.3503    1.9438 C   0  0  0  0  0  0  0  0  0  0  0  0
    6.5959    0.6718    3.1504 C   0  0  0  0  0  0  0  0  0  0  0  0
    5.2014    0.7131    3.1977 C   0  0  0  0  0  0  0  0  0  0  0  0
    4.4564    0.4363    2.0555 C   0  0  0  0  0  0  0  0  0  0  0  0
    5.0860    0.1102    0.8338 C   0  0  0  0  0  0  0  0  0  0  0  0
    2.2159    1.0960   -0.4610 C   0  0  0  0  0  0  0  0  0  0  0  0
    0.8223    1.1321   -0.3582 C   0  0  0  0  0  0  0  0  0  0  0  0
    0.0643   -0.0021   -0.0029 C   0  0  0  0  0  0  0  0  0  0  0  0
    0.2162    2.3157   -0.6164 O   0  0  0  0  0  0  0  0  0  0  0  0
   -7.3430    2.6140   -0.1434 H   0  0  0  0  0  0  0  0  0  0  0  0
   -6.0667    1.9119    0.8709 H   0  0  0  0  0  0  0  0  0  0  0  0
   -6.1892    1.4657   -0.8515 H   0  0  0  0  0  0  0  0  0  0  0  0
   -5.6453    3.1959   -2.6712 H   0  0  0  0  0  0  0  0  0  0  0  0
   -6.8626    4.2657   -1.9270 H   0  0  0  0  0  0  0  0  0  0  0  0
   -5.2168    4.8639   -2.2281 H   0  0  0  0  0  0  0  0  0  0  0  0
   -6.6854    4.9052    0.5385 H   0  0  0  0  0  0  0  0  0  0  0  0
   -5.0353    5.5157    0.2905 H   0  0  0  0  0  0  0  0  0  0  0  0
   -5.3439    4.2857    1.5369 H   0  0  0  0  0  0  0  0  0  0  0  0
   -3.2318    5.1014   -1.0868 H   0  0  0  0  0  0  0  0  0  0  0  0
   -0.8222    4.5382   -1.1179 H   0  0  0  0  0  0  0  0  0  0  0  0
   -4.1494    1.0576    0.0366 H   0  0  0  0  0  0  0  0  0  0  0  0
   -4.1820   -0.7380    0.5509 H   0  0  0  0  0  0  0  0  0  0  0  0
   -6.1053   -0.9921    1.7088 H   0  0  0  0  0  0  0  0  0  0  0  0
   -6.2553   -1.4451   -0.0096 H   0  0  0  0  0  0  0  0  0  0  0  0
   -7.4288   -2.0489    1.1775 H   0  0  0  0  0  0  0  0  0  0  0  0
   -7.0476   -4.3823    0.4352 H   0  0  0  0  0  0  0  0  0  0  0  0
   -5.4303   -5.1179    0.4589 H   0  0  0  0  0  0  0  0  0  0  0  0
   -5.8142   -3.8671   -0.7453 H   0  0  0  0  0  0  0  0  0  0  0  0
   -5.2093   -4.4549    2.9713 H   0  0  0  0  0  0  0  0  0  0  0  0
   -6.8314   -3.7335    2.8952 H   0  0  0  0  0  0  0  0  0  0  0  0
   -5.4455   -2.7595    3.4528 H   0  0  0  0  0  0  0  0  0  0  0  0
   -3.4267   -4.8447    1.5613 H   0  0  0  0  0  0  0  0  0  0  0  0
   -1.0007   -4.4668    1.2521 H   0  0  0  0  0  0  0  0  0  0  0  0
    2.6878   -2.2010    0.3544 H   0  0  0  0  0  0  0  0  0  0  0  0
    2.9914   -0.7206   -2.5547 H   0  0  0  0  0  0  0  0  0  0  0  0
    3.9652   -1.3014   -4.7362 H   0  0  0  0  0  0  0  0  0  0  0  0
    6.4620   -1.4183   -5.0038 H   0  0  0  0  0  0  0  0  0  0  0  0
    7.9051   -0.9456   -3.0594 H   0  0  0  0  0  0  0  0  0  0  0  0
    8.7127   -1.8043   -1.1624 H   0  0  0  0  0  0  0  0  0  0  0  0
    7.5070   -2.3987    0.0054 H   0  0  0  0  0  0  0  0  0  0  0  0
    8.8515   -1.3675    0.5530 H   0  0  0  0  0  0  0  0  0  0  0  0
    8.8947    1.1391   -0.0890 H   0  0  0  0  0  0  0  0  0  0  0  0
    8.7550    0.7027   -1.8048 H   0  0  0  0  0  0  0  0  0  0  0  0
    7.5794    1.8236   -1.0751 H   0  0  0  0  0  0  0  0  0  0  0  0
    8.3077    0.3195    1.9110 H   0  0  0  0  0  0  0  0  0  0  0  0
    7.1944    0.8865    4.0384 H   0  0  0  0  0  0  0  0  0  0  0  0
    4.6833    0.9620    4.1274 H   0  0  0  0  0  0  0  0  0  0  0  0
    3.3693    0.4726    2.1080 H   0  0  0  0  0  0  0  0  0  0  0  0
    2.7715    1.9919   -0.7380 H   0  0  0  0  0  0  0  0  0  0  0  0
  2  1  1  1
  1 46  1  0
  1 47  1  0
  1 48  1  0
  2  3  1  0
  2  4  1  0
  2  5  1  0
  3 49  1  0
  3 50  1  0
  3 51  1  0
  4 52  1  0
  4 53  1  0
  4 54  1  0
  5  6  2  0
  5 10  1  0
  6  7  1  0
  6 55  1  0
  7  8  2  0
  7 56  1  0
  8  9  1  0
  8 45  1  0
  9 10  2  0
  9 11  1  0
 10 57  1  0
 11 12  1  0
 11 44  1  0
 12 13  2  0
 12 21  1  0
 13 14  1  0
 13 58  1  0
 14 15  1  0
 14 19  2  0
 15 16  1  6
 15 17  1  0
 15 18  1  0
 16 59  1  0
 16 60  1  0
 16 61  1  0
 17 62  1  0
 17 63  1  0
 17 64  1  0
 18 65  1  0
 18 66  1  0
 18 67  1  0
 19 20  1  0
 19 68  1  0
 20 21  2  0
 20 69  1  0
 21 22  1  0
 22 23  1  0
 23 24  1  0
 23 44  2  0
 24 25  2  0
 24 70  1  0
 25 26  1  0
 25 42  1  0
 26 27  1  0
 26 41  1  0
 27 28  2  0
 27 32  1  0
 28 29  1  0
 28 71  1  0
 29 30  2  0
 29 72  1  0
 30 31  1  0
 30 73  1  0
 31 32  2  0
 31 74  1  0
 32 33  1  0
 33 34  1  1
 33 35  1  0
 33 36  1  0
 34 75  1  0
 34 76  1  0
 34 77  1  0
 35 78  1  0
 35 79  1  0
 35 80  1  0
 36 37  2  0
 36 41  1  0
 37 38  1  0
 37 81  1  0
 38 39  2  0
 38 82  1  0
 39 40  1  0
 39 83  1  0
 40 41  2  0
 40 84  1  0
 42 43  2  0
 42 85  1  0
 43 44  1  0
 43 45  1  0
M  END

