
     RDKit          3D

 73 81  0  0  0  0  0  0  0  0999 V2000
  -10.8111    3.3677   -2.3945 N   0  0  0  0  0  0  0  0  0  0  0  0
   -9.8251    2.8168   -2.1215 C   0  0  0  0  0  0  0  0  0  0  0  0
   -8.6062    2.1388   -1.7834 C   0  0  0  0  0  0  0  0  0  0  0  0
   -7.3605    2.7723   -2.0233 C   0  0  0  0  0  0  0  0  0  0  0  0
   -6.1602    2.1446   -1.7109 C   0  0  0  0  0  0  0  0  0  0  0  0
   -6.2122    0.8592   -1.1525 C   0  0  0  0  0  0  0  0  0  0  0  0
   -7.4543    0.2114   -0.8941 C   0  0  0  0  0  0  0  0  0  0  0  0
   -8.6513    0.8552   -1.2139 C   0  0  0  0  0  0  0  0  0  0  0  0
   -7.1390   -1.0724   -0.2978 C   0  0  0  0  0  0  0  0  0  0  0  0
   -7.9161   -2.1477    0.1567 C   0  0  0  0  0  0  0  0  0  0  0  0
   -7.2767   -3.2727    0.6745 C   0  0  0  0  0  0  0  0  0  0  0  0
   -5.8715   -3.3340    0.7360 C   0  0  0  0  0  0  0  0  0  0  0  0
   -5.0755   -2.2781    0.2906 C   0  0  0  0  0  0  0  0  0  0  0  0
   -5.7229   -1.1462   -0.2193 C   0  0  0  0  0  0  0  0  0  0  0  0
   -5.1741    0.0321   -0.7414 N   0  0  0  0  0  0  0  0  0  0  0  0
   -3.7847    0.3330   -0.8355 C   0  0  0  0  0  0  0  0  0  0  0  0
   -3.1958    0.5525   -2.0883 C   0  0  0  0  0  0  0  0  0  0  0  0
   -1.8326    0.8462   -2.1604 C   0  0  0  0  0  0  0  0  0  0  0  0
   -1.0566    0.9041   -1.0016 C   0  0  0  0  0  0  0  0  0  0  0  0
   -1.6304    0.6775    0.2636 C   0  0  0  0  0  0  0  0  0  0  0  0
   -0.8099    0.7415    1.5041 C   0  0  0  0  0  0  0  0  0  0  0  0
   -1.3320    1.2854    2.6918 C   0  0  0  0  0  0  0  0  0  0  0  0
   -0.5541    1.3308    3.8494 C   0  0  0  0  0  0  0  0  0  0  0  0
    0.7512    0.8370    3.8465 C   0  0  0  0  0  0  0  0  0  0  0  0
    1.3036    0.2875    2.6750 C   0  0  0  0  0  0  0  0  0  0  0  0
    2.6921   -0.2492    2.6635 C   0  0  0  0  0  0  0  0  0  0  0  0
    3.2099   -0.9461    3.7712 C   0  0  0  0  0  0  0  0  0  0  0  0
    4.5113   -1.4508    3.7508 C   0  0  0  0  0  0  0  0  0  0  0  0
    5.3291   -1.2647    2.6347 C   0  0  0  0  0  0  0  0  0  0  0  0
    4.8274   -0.5794    1.5185 C   0  0  0  0  0  0  0  0  0  0  0  0
    5.6442   -0.3801    0.3734 N   0  0  0  0  0  0  0  0  0  0  0  0
    6.2461   -1.3893   -0.3853 C   0  0  0  0  0  0  0  0  0  0  0  0
    6.1756   -2.7802   -0.2348 C   0  0  0  0  0  0  0  0  0  0  0  0
    6.8650   -3.5708   -1.1553 C   0  0  0  0  0  0  0  0  0  0  0  0
    7.6056   -2.9976   -2.2063 C   0  0  0  0  0  0  0  0  0  0  0  0
    7.6633   -1.6131   -2.3594 C   0  0  0  0  0  0  0  0  0  0  0  0
    6.9792   -0.7952   -1.4483 C   0  0  0  0  0  0  0  0  0  0  0  0
    6.8117    0.6394   -1.3208 C   0  0  0  0  0  0  0  0  0  0  0  0
    7.2933    1.7387   -2.0466 C   0  0  0  0  0  0  0  0  0  0  0  0
    6.9513    3.0266   -1.6367 C   0  0  0  0  0  0  0  0  0  0  0  0
    6.1389    3.2247   -0.5044 C   0  0  0  0  0  0  0  0  0  0  0  0
    5.6461    2.1488    0.2354 C   0  0  0  0  0  0  0  0  0  0  0  0
    5.9819    0.8561   -0.1872 C   0  0  0  0  0  0  0  0  0  0  0  0
    3.5172   -0.0832    1.5376 C   0  0  0  0  0  0  0  0  0  0  0  0
    0.5071    0.2507    1.5175 C   0  0  0  0  0  0  0  0  0  0  0  0
   -3.0073    0.3998    0.3271 C   0  0  0  0  0  0  0  0  0  0  0  0
   -7.3514    3.7727   -2.4599 H   0  0  0  0  0  0  0  0  0  0  0  0
   -5.2080    2.6440   -1.8950 H   0  0  0  0  0  0  0  0  0  0  0  0
   -9.6144    0.3770   -1.0252 H   0  0  0  0  0  0  0  0  0  0  0  0
   -9.0068   -2.1053    0.1029 H   0  0  0  0  0  0  0  0  0  0  0  0
   -7.8692   -4.1175    1.0329 H   0  0  0  0  0  0  0  0  0  0  0  0
   -5.3904   -4.2287    1.1391 H   0  0  0  0  0  0  0  0  0  0  0  0
   -3.9871   -2.3369    0.3364 H   0  0  0  0  0  0  0  0  0  0  0  0
   -3.8030    0.4835   -2.9929 H   0  0  0  0  0  0  0  0  0  0  0  0
   -1.3690    1.0278   -3.1330 H   0  0  0  0  0  0  0  0  0  0  0  0
    0.0043    1.1514   -1.0770 H   0  0  0  0  0  0  0  0  0  0  0  0
   -2.3430    1.6986    2.7034 H   0  0  0  0  0  0  0  0  0  0  0  0
   -0.9650    1.7713    4.7613 H   0  0  0  0  0  0  0  0  0  0  0  0
    1.3560    0.9010    4.7536 H   0  0  0  0  0  0  0  0  0  0  0  0
    2.5796   -1.1152    4.6467 H   0  0  0  0  0  0  0  0  0  0  0  0
    4.8963   -1.9923    4.6184 H   0  0  0  0  0  0  0  0  0  0  0  0
    6.3551   -1.6370    2.6243 H   0  0  0  0  0  0  0  0  0  0  0  0
    5.5985   -3.2350    0.5718 H   0  0  0  0  0  0  0  0  0  0  0  0
    6.8253   -4.6587   -1.0568 H   0  0  0  0  0  0  0  0  0  0  0  0
    8.1353   -3.6453   -2.9088 H   0  0  0  0  0  0  0  0  0  0  0  0
    8.2317   -1.1698   -3.1809 H   0  0  0  0  0  0  0  0  0  0  0  0
    7.9320    1.5866   -2.9204 H   0  0  0  0  0  0  0  0  0  0  0  0
    7.3198    3.8909   -2.1942 H   0  0  0  0  0  0  0  0  0  0  0  0
    5.8892    4.2424   -0.1933 H   0  0  0  0  0  0  0  0  0  0  0  0
    5.0243    2.3143    1.1166 H   0  0  0  0  0  0  0  0  0  0  0  0
    3.1475    0.4543    0.6630 H   0  0  0  0  0  0  0  0  0  0  0  0
    0.9063   -0.2170    0.6154 H   0  0  0  0  0  0  0  0  0  0  0  0
   -3.4848    0.2151    1.2909 H   0  0  0  0  0  0  0  0  0  0  0  0
  1  2  3  0
  2  3  1  0
  3  4  2  0
  3  8  1  0
  4  5  1  0
  4 47  1  0
  5  6  2  0
  5 48  1  0
  6  7  1  0
  6 15  1  0
  7  8  2  0
  7  9  1  0
  8 49  1  0
  9 10  2  0
  9 14  1  0
 10 11  1  0
 10 50  1  0
 11 12  2  0
 11 51  1  0
 12 13  1  0
 12 52  1  0
 13 14  2  0
 13 53  1  0
 14 15  1  0
 15 16  1  0
 16 17  2  0
 16 46  1  0
 17 18  1  0
 17 54  1  0
 18 19  2  0
 18 55  1  0
 19 20  1  0
 19 56  1  0
 20 21  1  0
 20 46  2  0
 21 22  2  0
 21 45  1  0
 22 23  1  0
 22 57  1  0
 23 24  2  0
 23 58  1  0
 24 25  1  0
 24 59  1  0
 25 26  1  0
 25 45  2  0
 26 27  2  0
 26 44  1  0
 27 28  1  0
 27 60  1  0
 28 29  2  0
 28 61  1  0
 29 30  1  0
 29 62  1  0
 30 31  1  0
 30 44  2  0
 31 32  1  0
 31 43  1  0
 32 33  2  0
 32 37  1  0
 33 34  1  0
 33 63  1  0
 34 35  2  0
 34 64  1  0
 35 36  1  0
 35 65  1  0
 36 37  2  0
 36 66  1  0
 37 38  1  0
 38 39  1  0
 38 43  2  0
 39 40  2  0
 39 67  1  0
 40 41  1  0
 40 68  1  0
 41 42  2  0
 41 69  1  0
 42 43  1  0
 42 70  1  0
 44 71  1  0
 45 72  1  0
 46 73  1  0
M  END

