
     RDKit          3D

 67 74  0  0  0  0  0  0  0  0999 V2000
    6.0735    0.2045    2.4054 C   0  0  0  0  0  0  0  0  0  0  0  0
    6.2523    0.6434    0.9354 C   0  0  1  0  0  0  0  0  0  0  0  0
    6.2809    2.1843    0.8407 C   0  0  0  0  0  0  0  0  0  0  0  0
    7.5070    0.0230    0.3180 C   0  0  0  0  0  0  0  0  0  0  0  0
    8.8387    0.1850    0.6943 C   0  0  0  0  0  0  0  0  0  0  0  0
    9.8389   -0.4889   -0.0209 C   0  0  0  0  0  0  0  0  0  0  0  0
    9.5078   -1.3168   -1.1018 C   0  0  0  0  0  0  0  0  0  0  0  0
    8.1734   -1.4843   -1.4852 C   0  0  0  0  0  0  0  0  0  0  0  0
    7.1750   -0.8118   -0.7716 C   0  0  0  0  0  0  0  0  0  0  0  0
    5.7170   -0.7946   -0.9403 C   0  0  0  0  0  0  0  0  0  0  0  0
    4.8845   -1.4430   -1.8582 C   0  0  0  0  0  0  0  0  0  0  0  0
    3.5064   -1.2396   -1.7905 C   0  0  0  0  0  0  0  0  0  0  0  0
    2.9343   -0.3974   -0.8118 C   0  0  0  0  0  0  0  0  0  0  0  0
    1.4675   -0.1943   -0.7538 C   0  0  0  0  0  0  0  0  0  0  0  0
    0.6786   -0.0768   -1.8794 C   0  0  0  0  0  0  0  0  0  0  0  0
    1.2133   -0.1274   -3.1033 F   0  0  0  0  0  0  0  0  0  0  0  0
   -0.7409    0.1106   -1.8545 C   0  0  0  0  0  0  0  0  0  0  0  0
   -1.3148    0.1855   -3.0592 F   0  0  0  0  0  0  0  0  0  0  0  0
   -1.4928    0.2057   -0.7019 C   0  0  0  0  0  0  0  0  0  0  0  0
   -2.9605    0.4103   -0.7084 C   0  0  0  0  0  0  0  0  0  0  0  0
   -3.5631    1.2715   -1.6517 C   0  0  0  0  0  0  0  0  0  0  0  0
   -4.9425    1.4771   -1.6706 C   0  0  0  0  0  0  0  0  0  0  0  0
   -5.7455    0.8118   -0.7387 C   0  0  0  0  0  0  0  0  0  0  0  0
   -5.1582   -0.0512    0.2101 C   0  0  0  0  0  0  0  0  0  0  0  0
   -3.7837   -0.2496    0.2310 C   0  0  0  0  0  0  0  0  0  0  0  0
   -6.2214   -0.6619    1.1253 C   0  0  2  0  0  0  0  0  0  0  0  0
   -5.9942   -0.2518    2.5969 C   0  0  0  0  0  0  0  0  0  0  0  0
   -6.2554   -2.2006    1.0016 C   0  0  0  0  0  0  0  0  0  0  0  0
   -7.4947   -0.0285    0.5613 C   0  0  0  0  0  0  0  0  0  0  0  0
   -8.8136   -0.1967    0.9776 C   0  0  0  0  0  0  0  0  0  0  0  0
   -9.8356    0.4919    0.3087 C   0  0  0  0  0  0  0  0  0  0  0  0
   -9.5387    1.3402   -0.7663 C   0  0  0  0  0  0  0  0  0  0  0  0
   -8.2173    1.5140   -1.1898 C   0  0  0  0  0  0  0  0  0  0  0  0
   -7.1971    0.8269   -0.5222 C   0  0  0  0  0  0  0  0  0  0  0  0
   -0.7184    0.0874    0.5112 C   0  0  0  0  0  0  0  0  0  0  0  0
   -1.2119    0.1441    1.7487 N   0  0  0  0  0  0  0  0  0  0  0  0
    0.0443   -0.0291    2.7873 S   0  0  0  0  0  0  0  0  0  0  0  0
    1.2661   -0.1813    1.7053 N   0  0  0  0  0  0  0  0  0  0  0  0
    0.7327   -0.1003    0.4858 C   0  0  0  0  0  0  0  0  0  0  0  0
    3.7871    0.2453    0.1130 C   0  0  0  0  0  0  0  0  0  0  0  0
    5.1604    0.0491    0.0436 C   0  0  0  0  0  0  0  0  0  0  0  0
    5.1285    0.5938    2.8165 H   0  0  0  0  0  0  0  0  0  0  0  0
    6.0568   -0.8925    2.4925 H   0  0  0  0  0  0  0  0  0  0  0  0
    6.8974    0.5863    3.0297 H   0  0  0  0  0  0  0  0  0  0  0  0
    7.1125    2.5967    1.4346 H   0  0  0  0  0  0  0  0  0  0  0  0
    6.4062    2.5166   -0.2011 H   0  0  0  0  0  0  0  0  0  0  0  0
    5.3444    2.6161    1.2286 H   0  0  0  0  0  0  0  0  0  0  0  0
    9.1100    0.8282    1.5360 H   0  0  0  0  0  0  0  0  0  0  0  0
   10.8863   -0.3675    0.2673 H   0  0  0  0  0  0  0  0  0  0  0  0
   10.2990   -1.8352   -1.6494 H   0  0  0  0  0  0  0  0  0  0  0  0
    7.9191   -2.1307   -2.3292 H   0  0  0  0  0  0  0  0  0  0  0  0
    5.2986   -2.1062   -2.6218 H   0  0  0  0  0  0  0  0  0  0  0  0
    2.8592   -1.7511   -2.5031 H   0  0  0  0  0  0  0  0  0  0  0  0
   -2.9388    1.7962   -2.3750 H   0  0  0  0  0  0  0  0  0  0  0  0
   -5.3802    2.1551   -2.4075 H   0  0  0  0  0  0  0  0  0  0  0  0
   -3.3319   -0.9118    0.9693 H   0  0  0  0  0  0  0  0  0  0  0  0
   -5.0368   -0.6499    2.9694 H   0  0  0  0  0  0  0  0  0  0  0  0
   -5.9731    0.8432    2.7049 H   0  0  0  0  0  0  0  0  0  0  0  0
   -6.7978   -0.6452    3.2402 H   0  0  0  0  0  0  0  0  0  0  0  0
   -7.0679   -2.6237    1.6140 H   0  0  0  0  0  0  0  0  0  0  0  0
   -5.3073   -2.6407    1.3504 H   0  0  0  0  0  0  0  0  0  0  0  0
   -6.4148   -2.5124   -0.0418 H   0  0  0  0  0  0  0  0  0  0  0  0
   -9.0583   -0.8558    1.8152 H   0  0  0  0  0  0  0  0  0  0  0  0
  -10.8732    0.3658    0.6285 H   0  0  0  0  0  0  0  0  0  0  0  0
  -10.3466    1.8699   -1.2776 H   0  0  0  0  0  0  0  0  0  0  0  0
   -7.9897    2.1764   -2.0290 H   0  0  0  0  0  0  0  0  0  0  0  0
    3.3590    0.8926    0.8782 H   0  0  0  0  0  0  0  0  0  0  0  0
  2  1  1  1
  1 42  1  0
  1 43  1  0
  1 44  1  0
  2  3  1  0
  2  4  1  0
  2 41  1  0
  3 45  1  0
  3 46  1  0
  3 47  1  0
  4  5  2  0
  4  9  1  0
  5  6  1  0
  5 48  1  0
  6  7  2  0
  6 49  1  0
  7  8  1  0
  7 50  1  0
  8  9  2  0
  8 51  1  0
  9 10  1  0
 10 11  2  0
 10 41  1  0
 11 12  1  0
 11 52  1  0
 12 13  2  0
 12 53  1  0
 13 14  1  0
 13 40  1  0
 14 15  2  0
 14 39  1  0
 15 16  1  0
 15 17  1  0
 17 18  1  0
 17 19  2  0
 19 20  1  0
 19 35  1  0
 20 21  2  0
 20 25  1  0
 21 22  1  0
 21 54  1  0
 22 23  2  0
 22 55  1  0
 23 24  1  0
 23 34  1  0
 24 25  2  0
 24 26  1  0
 25 56  1  0
 26 27  1  1
 26 28  1  0
 26 29  1  0
 27 57  1  0
 27 58  1  0
 27 59  1  0
 28 60  1  0
 28 61  1  0
 28 62  1  0
 29 30  1  0
 29 34  2  0
 30 31  2  0
 30 63  1  0
 31 32  1  0
 31 64  1  0
 32 33  2  0
 32 65  1  0
 33 34  1  0
 33 66  1  0
 35 36  2  0
 35 39  1  0
 36 37  1  0
 37 38  1  0
 38 39  2  0
 40 41  2  0
 40 67  1  0
M  END

