
     RDKit          3D

 72 81  0  0  0  0  0  0  0  0999 V2000
   -1.3657    5.7336    6.4738 N   0  0  0  0  0  0  0  0  0  0  0  0
   -0.8315    5.0432    5.7104 C   0  0  0  0  0  0  0  0  0  0  0  0
   -0.1650    4.1852    4.7617 C   0  0  0  0  0  0  0  0  0  0  0  0
   -0.9175    3.4818    3.9266 N   0  0  0  0  0  0  0  0  0  0  0  0
   -0.3198    2.6780    3.0367 C   0  0  0  0  0  0  0  0  0  0  0  0
   -1.1376    1.9007    2.1146 C   0  0  0  0  0  0  0  0  0  0  0  0
   -2.5449    1.9959    2.1606 C   0  0  0  0  0  0  0  0  0  0  0  0
   -3.3335    1.2628    1.2899 C   0  0  0  0  0  0  0  0  0  0  0  0
   -2.7258    0.4102    0.3450 C   0  0  0  0  0  0  0  0  0  0  0  0
   -3.5049   -0.3658   -0.5742 N   0  0  0  0  0  0  0  0  0  0  0  0
   -4.0327   -1.6078   -0.1315 C   0  0  0  0  0  0  0  0  0  0  0  0
   -4.1129   -1.9316    1.2346 C   0  0  0  0  0  0  0  0  0  0  0  0
   -4.6281   -3.1613    1.6551 C   0  0  0  0  0  0  0  0  0  0  0  0
   -5.1010   -4.0863    0.7247 C   0  0  0  0  0  0  0  0  0  0  0  0
   -5.0365   -3.7752   -0.6360 C   0  0  0  0  0  0  0  0  0  0  0  0
   -4.4874   -2.5634   -1.0663 C   0  0  0  0  0  0  0  0  0  0  0  0
   -4.2488   -2.2979   -2.8079 S   0  0  0  0  0  0  0  0  0  0  0  0
   -4.4040   -0.5275   -2.8551 C   0  0  0  0  0  0  0  0  0  0  0  0
   -4.8789    0.0789   -4.0220 C   0  0  0  0  0  0  0  0  0  0  0  0
   -4.8743    1.4698   -4.1564 C   0  0  0  0  0  0  0  0  0  0  0  0
   -4.4076    2.2516   -3.1000 C   0  0  0  0  0  0  0  0  0  0  0  0
   -3.9669    1.6541   -1.9155 C   0  0  0  0  0  0  0  0  0  0  0  0
   -3.9566    0.2556   -1.7687 C   0  0  0  0  0  0  0  0  0  0  0  0
   -1.3396    0.3113    0.2937 C   0  0  0  0  0  0  0  0  0  0  0  0
   -0.5098    1.0458    1.1678 C   0  0  0  0  0  0  0  0  0  0  0  0
    0.9574    0.9478    1.1214 C   0  0  0  0  0  0  0  0  0  0  0  0
    1.6245    0.1125    0.1999 C   0  0  0  0  0  0  0  0  0  0  0  0
    3.0142    0.0274    0.1651 C   0  0  0  0  0  0  0  0  0  0  0  0
    3.6838   -0.8236   -0.7732 N   0  0  0  0  0  0  0  0  0  0  0  0
    3.8592   -2.1930   -0.4410 C   0  0  0  0  0  0  0  0  0  0  0  0
    3.0928   -2.8131    0.5620 C   0  0  0  0  0  0  0  0  0  0  0  0
    3.2771   -4.1614    0.8818 C   0  0  0  0  0  0  0  0  0  0  0  0
    4.2112   -4.9317    0.1899 C   0  0  0  0  0  0  0  0  0  0  0  0
    4.9743   -4.3324   -0.8155 C   0  0  0  0  0  0  0  0  0  0  0  0
    4.8234   -2.9749   -1.1144 C   0  0  0  0  0  0  0  0  0  0  0  0
    5.9525   -2.2191   -2.2605 S   0  0  0  0  0  0  0  0  0  0  0  0
    4.9014   -0.9389   -2.9055 C   0  0  0  0  0  0  0  0  0  0  0  0
    5.1221   -0.4777   -4.2069 C   0  0  0  0  0  0  0  0  0  0  0  0
    4.4244    0.6275   -4.7010 C   0  0  0  0  0  0  0  0  0  0  0  0
    3.4853    1.2565   -3.8843 C   0  0  0  0  0  0  0  0  0  0  0  0
    3.2308    0.7771   -2.5961 C   0  0  0  0  0  0  0  0  0  0  0  0
    3.9308   -0.3286   -2.0810 C   0  0  0  0  0  0  0  0  0  0  0  0
    3.7854    0.7878    1.0649 C   0  0  0  0  0  0  0  0  0  0  0  0
    3.1585    1.6161    1.9805 C   0  0  0  0  0  0  0  0  0  0  0  0
    1.7516    1.7085    2.0234 C   0  0  0  0  0  0  0  0  0  0  0  0
    1.1030    2.5833    2.9916 C   0  0  0  0  0  0  0  0  0  0  0  0
    1.8560    3.2977    3.8391 N   0  0  0  0  0  0  0  0  0  0  0  0
    1.2568    4.0908    4.7167 C   0  0  0  0  0  0  0  0  0  0  0  0
    2.0884    4.8496    5.6183 C   0  0  0  0  0  0  0  0  0  0  0  0
    2.7543    5.4612    6.3447 N   0  0  0  0  0  0  0  0  0  0  0  0
   -2.9934    2.6612    2.8991 H   0  0  0  0  0  0  0  0  0  0  0  0
   -4.4220    1.3381    1.3273 H   0  0  0  0  0  0  0  0  0  0  0  0
   -3.7609   -1.2221    1.9826 H   0  0  0  0  0  0  0  0  0  0  0  0
   -4.6654   -3.3847    2.7240 H   0  0  0  0  0  0  0  0  0  0  0  0
   -5.5149   -5.0436    1.0489 H   0  0  0  0  0  0  0  0  0  0  0  0
   -5.3971   -4.4854   -1.3841 H   0  0  0  0  0  0  0  0  0  0  0  0
   -5.2362   -0.5549   -4.8374 H   0  0  0  0  0  0  0  0  0  0  0  0
   -5.2302    1.9323   -5.0795 H   0  0  0  0  0  0  0  0  0  0  0  0
   -4.3917    3.3409   -3.1841 H   0  0  0  0  0  0  0  0  0  0  0  0
   -3.6183    2.2883   -1.1011 H   0  0  0  0  0  0  0  0  0  0  0  0
   -0.9168   -0.3600   -0.4525 H   0  0  0  0  0  0  0  0  0  0  0  0
    1.0603   -0.4899   -0.5111 H   0  0  0  0  0  0  0  0  0  0  0  0
    2.3489   -2.2364    1.1103 H   0  0  0  0  0  0  0  0  0  0  0  0
    2.6721   -4.6073    1.6748 H   0  0  0  0  0  0  0  0  0  0  0  0
    4.3509   -5.9884    0.4279 H   0  0  0  0  0  0  0  0  0  0  0  0
    5.7157   -4.9142   -1.3688 H   0  0  0  0  0  0  0  0  0  0  0  0
    5.8661   -0.9847   -4.8263 H   0  0  0  0  0  0  0  0  0  0  0  0
    4.6186    0.9909   -5.7124 H   0  0  0  0  0  0  0  0  0  0  0  0
    2.9308    2.1250   -4.2476 H   0  0  0  0  0  0  0  0  0  0  0  0
    2.4842    1.2798   -1.9825 H   0  0  0  0  0  0  0  0  0  0  0  0
    4.8735    0.7113    1.0261 H   0  0  0  0  0  0  0  0  0  0  0  0
    3.7378    2.2128    2.6858 H   0  0  0  0  0  0  0  0  0  0  0  0
  1  2  3  0
  2  3  1  0
  3  4  2  0
  3 48  1  0
  4  5  1  0
  5  6  2  0
  5 46  1  0
  6  7  1  0
  6 25  1  0
  7  8  2  0
  7 51  1  0
  8  9  1  0
  8 52  1  0
  9 10  1  0
  9 24  2  0
 10 11  1  0
 10 23  1  0
 11 12  2  0
 11 16  1  0
 12 13  1  0
 12 53  1  0
 13 14  2  0
 13 54  1  0
 14 15  1  0
 14 55  1  0
 15 16  2  0
 15 56  1  0
 16 17  1  0
 17 18  1  0
 18 19  2  0
 18 23  1  0
 19 20  1  0
 19 57  1  0
 20 21  2  0
 20 58  1  0
 21 22  1  0
 21 59  1  0
 22 23  2  0
 22 60  1  0
 24 25  1  0
 24 61  1  0
 25 26  2  0
 26 27  1  0
 26 45  1  0
 27 28  2  0
 27 62  1  0
 28 29  1  0
 28 43  1  0
 29 30  1  0
 29 42  1  0
 30 31  2  0
 30 35  1  0
 31 32  1  0
 31 63  1  0
 32 33  2  0
 32 64  1  0
 33 34  1  0
 33 65  1  0
 34 35  2  0
 34 66  1  0
 35 36  1  0
 36 37  1  0
 37 38  2  0
 37 42  1  0
 38 39  1  0
 38 67  1  0
 39 40  2  0
 39 68  1  0
 40 41  1  0
 40 69  1  0
 41 42  2  0
 41 70  1  0
 43 44  2  0
 43 71  1  0
 44 45  1  0
 44 72  1  0
 45 46  2  0
 46 47  1  0
 47 48  2  0
 48 49  1  0
 49 50  3  0
M  END

