
     RDKit          3D

 71 77  0  0  0  0  0  0  0  0999 V2000
    3.1550    3.9111   -3.7575 C   0  0  0  0  0  0  0  0  0  0  0  0
    2.1484    2.9869   -4.0574 C   0  0  0  0  0  0  0  0  0  0  0  0
    1.8515    1.9571   -3.1640 C   0  0  0  0  0  0  0  0  0  0  0  0
    2.5602    1.8431   -1.9545 C   0  0  0  0  0  0  0  0  0  0  0  0
    2.2438    0.7479   -1.0016 C   0  0  0  0  0  0  0  0  0  0  0  0
    2.9242    0.6916    0.1494 N   0  0  0  0  0  0  0  0  0  0  0  0
    2.6014   -0.3065    0.9819 C   0  0  0  0  0  0  0  0  0  0  0  0
    3.3145   -0.3979    2.2823 C   0  0  0  0  0  0  0  0  0  0  0  0
    2.9878   -1.4097    3.2024 C   0  0  0  0  0  0  0  0  0  0  0  0
    3.6585   -1.4962    4.4225 C   0  0  0  0  0  0  0  0  0  0  0  0
    4.6633   -0.5753    4.7389 C   0  0  0  0  0  0  0  0  0  0  0  0
    4.9938    0.4347    3.8287 C   0  0  0  0  0  0  0  0  0  0  0  0
    4.3240    0.5247    2.6083 C   0  0  0  0  0  0  0  0  0  0  0  0
    1.6716   -1.2303    0.7058 N   0  0  0  0  0  0  0  0  0  0  0  0
    1.0437   -1.1092   -0.4717 C   0  0  0  0  0  0  0  0  0  0  0  0
    0.0769   -2.1806   -0.8430 C   0  0  0  0  0  0  0  0  0  0  0  0
    0.3737   -3.4822   -0.3984 C   0  0  0  0  0  0  0  0  0  0  0  0
   -0.4058   -4.5750   -0.7706 C   0  0  0  0  0  0  0  0  0  0  0  0
   -1.5160   -4.3754   -1.5930 C   0  0  0  0  0  0  0  0  0  0  0  0
   -1.8390   -3.0853   -2.0150 C   0  0  0  0  0  0  0  0  0  0  0  0
   -1.0678   -1.9679   -1.6506 C   0  0  0  0  0  0  0  0  0  0  0  0
   -1.5390   -0.6322   -2.1373 C   0  0  0  0  0  0  0  0  0  0  0  0
   -1.5316   -0.3860   -3.5209 C   0  0  0  0  0  0  0  0  0  0  0  0
   -1.9914    0.8170   -4.0577 C   0  0  0  0  0  0  0  0  0  0  0  0
   -2.4941    1.8019   -3.2027 C   0  0  0  0  0  0  0  0  0  0  0  0
   -2.5436    1.5662   -1.8302 C   0  0  0  0  0  0  0  0  0  0  0  0
   -2.0725    0.3609   -1.2790 C   0  0  0  0  0  0  0  0  0  0  0  0
   -2.1708    0.1444    0.1296 N   0  0  0  0  0  0  0  0  0  0  0  0
   -1.8051    1.1753    1.0326 C   0  0  0  0  0  0  0  0  0  0  0  0
   -0.7188    2.0255    0.7420 C   0  0  0  0  0  0  0  0  0  0  0  0
   -0.3500    3.0383    1.6267 C   0  0  0  0  0  0  0  0  0  0  0  0
   -1.0435    3.2287    2.8265 C   0  0  0  0  0  0  0  0  0  0  0  0
   -2.1247    2.3933    3.1184 C   0  0  0  0  0  0  0  0  0  0  0  0
   -2.5113    1.3842    2.2336 C   0  0  0  0  0  0  0  0  0  0  0  0
   -2.9568   -0.9539    0.5897 C   0  0  0  0  0  0  0  0  0  0  0  0
   -2.4996   -1.7566    1.6494 C   0  0  0  0  0  0  0  0  0  0  0  0
   -3.2730   -2.8225    2.1086 C   0  0  0  0  0  0  0  0  0  0  0  0
   -4.5041   -3.1171    1.5106 C   0  0  0  0  0  0  0  0  0  0  0  0
   -4.9565   -2.3283    0.4498 C   0  0  0  0  0  0  0  0  0  0  0  0
   -4.1939   -1.2491   -0.0053 C   0  0  0  0  0  0  0  0  0  0  0  0
    1.2912   -0.1308   -1.3478 N   0  0  0  0  0  0  0  0  0  0  0  0
    3.5695    2.7766   -1.6588 C   0  0  0  0  0  0  0  0  0  0  0  0
    3.8646    3.8031   -2.5562 C   0  0  0  0  0  0  0  0  0  0  0  0
    3.3866    4.7165   -4.4596 H   0  0  0  0  0  0  0  0  0  0  0  0
    1.5905    3.0696   -4.9936 H   0  0  0  0  0  0  0  0  0  0  0  0
    1.0672    1.2324   -3.3846 H   0  0  0  0  0  0  0  0  0  0  0  0
    2.2013   -2.1193    2.9432 H   0  0  0  0  0  0  0  0  0  0  0  0
    3.3965   -2.2853    5.1319 H   0  0  0  0  0  0  0  0  0  0  0  0
    5.1883   -0.6442    5.6953 H   0  0  0  0  0  0  0  0  0  0  0  0
    5.7778    1.1561    4.0728 H   0  0  0  0  0  0  0  0  0  0  0  0
    4.5712    1.3073    1.8906 H   0  0  0  0  0  0  0  0  0  0  0  0
    1.2519   -3.6211    0.2334 H   0  0  0  0  0  0  0  0  0  0  0  0
   -0.1439   -5.5776   -0.4238 H   0  0  0  0  0  0  0  0  0  0  0  0
   -2.1400   -5.2196   -1.8971 H   0  0  0  0  0  0  0  0  0  0  0  0
   -2.7287   -2.9257   -2.6282 H   0  0  0  0  0  0  0  0  0  0  0  0
   -1.1269   -1.1560   -4.1821 H   0  0  0  0  0  0  0  0  0  0  0  0
   -1.9579    0.9833   -5.1372 H   0  0  0  0  0  0  0  0  0  0  0  0
   -2.8668    2.7475   -3.6045 H   0  0  0  0  0  0  0  0  0  0  0  0
   -2.9594    2.3214   -1.1606 H   0  0  0  0  0  0  0  0  0  0  0  0
   -0.1692    1.8931   -0.1894 H   0  0  0  0  0  0  0  0  0  0  0  0
    0.5001    3.6780    1.3753 H   0  0  0  0  0  0  0  0  0  0  0  0
   -0.7467    4.0176    3.5213 H   0  0  0  0  0  0  0  0  0  0  0  0
   -2.6892    2.5317    4.0446 H   0  0  0  0  0  0  0  0  0  0  0  0
   -3.3683    0.7552    2.4760 H   0  0  0  0  0  0  0  0  0  0  0  0
   -1.5293   -1.5403    2.1002 H   0  0  0  0  0  0  0  0  0  0  0  0
   -2.9025   -3.4396    2.9314 H   0  0  0  0  0  0  0  0  0  0  0  0
   -5.1038   -3.9576    1.8683 H   0  0  0  0  0  0  0  0  0  0  0  0
   -5.9178   -2.5452   -0.0237 H   0  0  0  0  0  0  0  0  0  0  0  0
   -4.5563   -0.6273   -0.8263 H   0  0  0  0  0  0  0  0  0  0  0  0
    4.1142    2.6809   -0.7192 H   0  0  0  0  0  0  0  0  0  0  0  0
    4.6516    4.5233   -2.3186 H   0  0  0  0  0  0  0  0  0  0  0  0
  1  2  2  0
  1 43  1  0
  1 44  1  0
  2  3  1  0
  2 45  1  0
  3  4  2  0
  3 46  1  0
  4  5  1  0
  4 42  1  0
  5  6  2  0
  5 41  1  0
  6  7  1  0
  7  8  1  0
  7 14  2  0
  8  9  2  0
  8 13  1  0
  9 10  1  0
  9 47  1  0
 10 11  2  0
 10 48  1  0
 11 12  1  0
 11 49  1  0
 12 13  2  0
 12 50  1  0
 13 51  1  0
 14 15  1  0
 15 16  1  0
 15 41  2  0
 16 17  2  0
 16 21  1  0
 17 18  1  0
 17 52  1  0
 18 19  2  0
 18 53  1  0
 19 20  1  0
 19 54  1  0
 20 21  2  0
 20 55  1  0
 21 22  1  0
 22 23  2  0
 22 27  1  0
 23 24  1  0
 23 56  1  0
 24 25  2  0
 24 57  1  0
 25 26  1  0
 25 58  1  0
 26 27  2  0
 26 59  1  0
 27 28  1  0
 28 29  1  0
 28 35  1  0
 29 30  2  0
 29 34  1  0
 30 31  1  0
 30 60  1  0
 31 32  2  0
 31 61  1  0
 32 33  1  0
 32 62  1  0
 33 34  2  0
 33 63  1  0
 34 64  1  0
 35 36  2  0
 35 40  1  0
 36 37  1  0
 36 65  1  0
 37 38  2  0
 37 66  1  0
 38 39  1  0
 38 67  1  0
 39 40  2  0
 39 68  1  0
 40 69  1  0
 42 43  2  0
 42 70  1  0
 43 71  1  0
M  END

