
     RDKit          3D

 44 48  0  0  0  0  0  0  0  0999 V2000
   -7.5291   -1.9693   -1.1919 N   0  0  0  0  0  0  0  0  0  0  0  0
   -6.4070   -2.1318   -0.9442 C   0  0  0  0  0  0  0  0  0  0  0  0
   -5.0156   -2.3249   -0.6364 C   0  0  0  0  0  0  0  0  0  0  0  0
   -4.4222   -3.5802   -0.8372 C   0  0  0  0  0  0  0  0  0  0  0  0
   -3.0616   -3.7461   -0.5371 C   0  0  0  0  0  0  0  0  0  0  0  0
   -2.4367   -5.0271   -0.7281 C   0  0  0  0  0  0  0  0  0  0  0  0
   -1.9294   -6.0597   -0.8806 N   0  0  0  0  0  0  0  0  0  0  0  0
   -2.3079   -2.6682   -0.0413 C   0  0  0  0  0  0  0  0  0  0  0  0
   -2.8930   -1.4080    0.1637 C   0  0  0  0  0  0  0  0  0  0  0  0
   -2.0932   -0.2692    0.6920 C   0  0  0  0  0  0  0  0  0  0  0  0
   -2.6613    0.6598    1.5827 C   0  0  0  0  0  0  0  0  0  0  0  0
   -1.9048    1.7277    2.0678 C   0  0  0  0  0  0  0  0  0  0  0  0
   -0.5718    1.8863    1.6852 C   0  0  0  0  0  0  0  0  0  0  0  0
    0.0081    0.9730    0.7916 C   0  0  0  0  0  0  0  0  0  0  0  0
    1.3553    1.1287    0.3804 N   0  0  0  0  0  0  0  0  0  0  0  0
    1.8991    2.2663   -0.2297 C   0  0  0  0  0  0  0  0  0  0  0  0
    1.2772    3.4670   -0.5946 C   0  0  0  0  0  0  0  0  0  0  0  0
    2.0577    4.4417   -1.2186 C   0  0  0  0  0  0  0  0  0  0  0  0
    3.4242    4.2304   -1.4808 C   0  0  0  0  0  0  0  0  0  0  0  0
    4.0357    3.0281   -1.1282 C   0  0  0  0  0  0  0  0  0  0  0  0
    3.2740    2.0320   -0.5003 C   0  0  0  0  0  0  0  0  0  0  0  0
    3.5725    0.6931   -0.0291 C   0  0  0  0  0  0  0  0  0  0  0  0
    4.7385   -0.0856   -0.0033 C   0  0  0  0  0  0  0  0  0  0  0  0
    4.6916   -1.3622    0.5551 C   0  0  0  0  0  0  0  0  0  0  0  0
    3.4926   -1.8627    1.0961 C   0  0  0  0  0  0  0  0  0  0  0  0
    2.3183   -1.1081    1.0829 C   0  0  0  0  0  0  0  0  0  0  0  0
    2.3660    0.1675    0.5064 C   0  0  0  0  0  0  0  0  0  0  0  0
   -0.7560   -0.0938    0.2982 C   0  0  0  0  0  0  0  0  0  0  0  0
   -4.2548   -1.2513   -0.1420 C   0  0  0  0  0  0  0  0  0  0  0  0
   -5.0096   -4.4149   -1.2210 H   0  0  0  0  0  0  0  0  0  0  0  0
   -1.2572   -2.8292    0.2042 H   0  0  0  0  0  0  0  0  0  0  0  0
   -3.6920    0.5326    1.9205 H   0  0  0  0  0  0  0  0  0  0  0  0
   -2.3529    2.4339    2.7708 H   0  0  0  0  0  0  0  0  0  0  0  0
    0.0282    2.7070    2.0821 H   0  0  0  0  0  0  0  0  0  0  0  0
    0.2165    3.6390   -0.4055 H   0  0  0  0  0  0  0  0  0  0  0  0
    1.5939    5.3870   -1.5113 H   0  0  0  0  0  0  0  0  0  0  0  0
    4.0070    5.0145   -1.9696 H   0  0  0  0  0  0  0  0  0  0  0  0
    5.0945    2.8613   -1.3416 H   0  0  0  0  0  0  0  0  0  0  0  0
    5.6729    0.3061   -0.4129 H   0  0  0  0  0  0  0  0  0  0  0  0
    5.5927   -1.9792    0.5795 H   0  0  0  0  0  0  0  0  0  0  0  0
    3.4783   -2.8614    1.5396 H   0  0  0  0  0  0  0  0  0  0  0  0
    1.3984   -1.5012    1.5186 H   0  0  0  0  0  0  0  0  0  0  0  0
   -0.3027   -0.7696   -0.4289 H   0  0  0  0  0  0  0  0  0  0  0  0
   -4.7338   -0.2791   -0.0173 H   0  0  0  0  0  0  0  0  0  0  0  0
  1  2  3  0
  2  3  1  0
  3  4  2  0
  3 29  1  0
  4  5  1  0
  4 30  1  0
  5  6  1  0
  5  8  2  0
  6  7  3  0
  8  9  1  0
  8 31  1  0
  9 10  1  0
  9 29  2  0
 10 11  2  0
 10 28  1  0
 11 12  1  0
 11 32  1  0
 12 13  2  0
 12 33  1  0
 13 14  1  0
 13 34  1  0
 14 15  1  0
 14 28  2  0
 15 16  1  0
 15 27  1  0
 16 17  2  0
 16 21  1  0
 17 18  1  0
 17 35  1  0
 18 19  2  0
 18 36  1  0
 19 20  1  0
 19 37  1  0
 20 21  2  0
 20 38  1  0
 21 22  1  0
 22 23  1  0
 22 27  2  0
 23 24  2  0
 23 39  1  0
 24 25  1  0
 24 40  1  0
 25 26  2  0
 25 41  1  0
 26 27  1  0
 26 42  1  0
 28 43  1  0
 29 44  1  0
M  END

