
     RDKit          3D

 63 70  0  0  0  0  0  0  0  0999 V2000
   -3.6542    2.6050    0.0990 N   0  0  0  0  0  0  0  0  0  0  0  0
   -2.5998    2.1196    0.1198 C   0  0  0  0  0  0  0  0  0  0  0  0
   -1.3054    1.5055    0.1494 C   0  0  0  0  0  0  0  0  0  0  0  0
   -1.1863    0.0952    0.0392 C   0  0  0  0  0  0  0  0  0  0  0  0
   -2.3345   -0.7078   -0.1071 N   0  0  0  0  0  0  0  0  0  0  0  0
   -2.6876   -1.7633    0.7478 C   0  0  0  0  0  0  0  0  0  0  0  0
   -2.1665   -2.1034    2.0000 C   0  0  0  0  0  0  0  0  0  0  0  0
   -2.7394   -3.1859    2.6711 C   0  0  0  0  0  0  0  0  0  0  0  0
   -3.8106   -3.9070    2.1137 C   0  0  0  0  0  0  0  0  0  0  0  0
   -4.3372   -3.5508    0.8723 C   0  0  0  0  0  0  0  0  0  0  0  0
   -3.7771   -2.4695    0.1780 C   0  0  0  0  0  0  0  0  0  0  0  0
   -4.0789   -1.8306   -1.0903 C   0  0  0  0  0  0  0  0  0  0  0  0
   -5.0137   -2.0912   -2.1017 C   0  0  0  0  0  0  0  0  0  0  0  0
   -5.0209   -1.2887   -3.2420 C   0  0  0  0  0  0  0  0  0  0  0  0
   -4.0991   -0.2361   -3.3818 C   0  0  0  0  0  0  0  0  0  0  0  0
   -3.1604    0.0452   -2.3875 C   0  0  0  0  0  0  0  0  0  0  0  0
   -3.1694   -0.7527   -1.2398 C   0  0  0  0  0  0  0  0  0  0  0  0
   -0.0144   -0.5241    0.0499 N   0  0  0  0  0  0  0  0  0  0  0  0
    1.1147    0.1713    0.1639 C   0  0  0  0  0  0  0  0  0  0  0  0
    2.3099   -0.5421    0.0660 N   0  0  0  0  0  0  0  0  0  0  0  0
    3.4332   -0.1940   -0.7219 C   0  0  0  0  0  0  0  0  0  0  0  0
    3.6151    0.8725   -1.6077 C   0  0  0  0  0  0  0  0  0  0  0  0
    4.8221    0.9467   -2.3061 C   0  0  0  0  0  0  0  0  0  0  0  0
    5.8259   -0.0213   -2.1368 C   0  0  0  0  0  0  0  0  0  0  0  0
    5.6274   -1.1010   -1.2771 C   0  0  0  0  0  0  0  0  0  0  0  0
    4.4213   -1.1975   -0.5716 C   0  0  0  0  0  0  0  0  0  0  0  0
    3.8774   -2.2062    0.3194 C   0  0  0  0  0  0  0  0  0  0  0  0
    4.3944   -3.4032    0.8321 C   0  0  0  0  0  0  0  0  0  0  0  0
    3.5990   -4.1763    1.6768 C   0  0  0  0  0  0  0  0  0  0  0  0
    2.2975   -3.7610    2.0069 C   0  0  0  0  0  0  0  0  0  0  0  0
    1.7626   -2.5711    1.5085 C   0  0  0  0  0  0  0  0  0  0  0  0
    2.5667   -1.7983    0.6660 C   0  0  0  0  0  0  0  0  0  0  0  0
    1.1029    1.5805    0.3864 C   0  0  0  0  0  0  0  0  0  0  0  0
    2.2937    2.2622    0.8009 C   0  0  0  0  0  0  0  0  0  0  0  0
    3.2511    2.8011    1.1761 N   0  0  0  0  0  0  0  0  0  0  0  0
   -0.1309    2.2713    0.3454 C   0  0  0  0  0  0  0  0  0  0  0  0
   -0.1889    3.7438    0.5456 C   0  0  0  0  0  0  0  0  0  0  0  0
   -0.9900    4.3019    1.5576 C   0  0  0  0  0  0  0  0  0  0  0  0
   -1.0305    5.6846    1.7424 C   0  0  0  0  0  0  0  0  0  0  0  0
   -0.2854    6.5272    0.9128 C   0  0  0  0  0  0  0  0  0  0  0  0
    0.5094    5.9818   -0.0996 C   0  0  0  0  0  0  0  0  0  0  0  0
    0.5646    4.5992   -0.2780 C   0  0  0  0  0  0  0  0  0  0  0  0
   -1.3492   -1.5380    2.4500 H   0  0  0  0  0  0  0  0  0  0  0  0
   -2.3492   -3.4722    3.6509 H   0  0  0  0  0  0  0  0  0  0  0  0
   -4.2380   -4.7484    2.6641 H   0  0  0  0  0  0  0  0  0  0  0  0
   -5.1787   -4.1037    0.4478 H   0  0  0  0  0  0  0  0  0  0  0  0
   -5.7218   -2.9171   -1.9997 H   0  0  0  0  0  0  0  0  0  0  0  0
   -5.7447   -1.4806   -4.0374 H   0  0  0  0  0  0  0  0  0  0  0  0
   -4.1153    0.3780   -4.2855 H   0  0  0  0  0  0  0  0  0  0  0  0
   -2.4504    0.8640   -2.5128 H   0  0  0  0  0  0  0  0  0  0  0  0
    2.8465    1.6282   -1.7681 H   0  0  0  0  0  0  0  0  0  0  0  0
    4.9835    1.7769   -2.9977 H   0  0  0  0  0  0  0  0  0  0  0  0
    6.7617    0.0675   -2.6933 H   0  0  0  0  0  0  0  0  0  0  0  0
    6.3951   -1.8703   -1.1645 H   0  0  0  0  0  0  0  0  0  0  0  0
    5.4062   -3.7238    0.5727 H   0  0  0  0  0  0  0  0  0  0  0  0
    3.9866   -5.1138    2.0823 H   0  0  0  0  0  0  0  0  0  0  0  0
    1.6820   -4.3840    2.6603 H   0  0  0  0  0  0  0  0  0  0  0  0
    0.7438   -2.2775    1.7493 H   0  0  0  0  0  0  0  0  0  0  0  0
   -1.5727    3.6529    2.2139 H   0  0  0  0  0  0  0  0  0  0  0  0
   -1.6495    6.1042    2.5387 H   0  0  0  0  0  0  0  0  0  0  0  0
   -0.3233    7.6099    1.0558 H   0  0  0  0  0  0  0  0  0  0  0  0
    1.0925    6.6348   -0.7529 H   0  0  0  0  0  0  0  0  0  0  0  0
    1.1872    4.1814   -1.0720 H   0  0  0  0  0  0  0  0  0  0  0  0
  1  2  3  0
  2  3  1  0
  3  4  2  0
  3 36  1  0
  4  5  1  0
  4 18  1  0
  5  6  1  0
  5 17  1  0
  6  7  2  0
  6 11  1  0
  7  8  1  0
  7 43  1  0
  8  9  2  0
  8 44  1  0
  9 10  1  0
  9 45  1  0
 10 11  2  0
 10 46  1  0
 11 12  1  0
 12 13  1  0
 12 17  2  0
 13 14  2  0
 13 47  1  0
 14 15  1  0
 14 48  1  0
 15 16  2  0
 15 49  1  0
 16 17  1  0
 16 50  1  0
 18 19  2  0
 19 20  1  0
 19 33  1  0
 20 21  1  0
 20 32  1  0
 21 22  2  0
 21 26  1  0
 22 23  1  0
 22 51  1  0
 23 24  2  0
 23 52  1  0
 24 25  1  0
 24 53  1  0
 25 26  2  0
 25 54  1  0
 26 27  1  0
 27 28  1  0
 27 32  2  0
 28 29  2  0
 28 55  1  0
 29 30  1  0
 29 56  1  0
 30 31  2  0
 30 57  1  0
 31 32  1  0
 31 58  1  0
 33 34  1  0
 33 36  2  0
 34 35  3  0
 36 37  1  0
 37 38  2  0
 37 42  1  0
 38 39  1  0
 38 59  1  0
 39 40  2  0
 39 60  1  0
 40 41  1  0
 40 61  1  0
 41 42  2  0
 41 62  1  0
 42 63  1  0
M  END

