
     RDKit          3D

 67 74  0  0  0  0  0  0  0  0999 V2000
   -3.9427    4.0676   -5.3185 N   0  0  0  0  0  0  0  0  0  0  0  0
   -3.5950    3.4110   -4.4259 C   0  0  0  0  0  0  0  0  0  0  0  0
   -3.1623    2.5962   -3.3242 C   0  0  0  0  0  0  0  0  0  0  0  0
   -2.4223    1.4206   -3.5685 C   0  0  0  0  0  0  0  0  0  0  0  0
   -1.9947    0.6214   -2.5055 C   0  0  0  0  0  0  0  0  0  0  0  0
   -2.3112    0.9903   -1.1994 C   0  0  0  0  0  0  0  0  0  0  0  0
   -3.0469    2.1683   -0.9519 C   0  0  0  0  0  0  0  0  0  0  0  0
   -3.4762    2.9760   -2.0054 C   0  0  0  0  0  0  0  0  0  0  0  0
   -3.2205    2.3189    0.4987 C   0  0  0  0  0  0  0  0  0  0  0  0
   -3.8840    3.3033    1.2394 C   0  0  0  0  0  0  0  0  0  0  0  0
   -3.8950    3.2053    2.6335 C   0  0  0  0  0  0  0  0  0  0  0  0
   -3.2533    2.1367    3.2746 C   0  0  0  0  0  0  0  0  0  0  0  0
   -2.5923    1.1498    2.5320 C   0  0  0  0  0  0  0  0  0  0  0  0
   -2.5733    1.2449    1.1418 C   0  0  0  0  0  0  0  0  0  0  0  0
   -1.9360    0.2869    0.1168 C   0  0  1  0  0  0  0  0  0  0  0  0
   -2.5994   -1.0989    0.2723 C   0  0  0  0  0  0  0  0  0  0  0  0
   -2.1332   -2.0081    1.2373 C   0  0  0  0  0  0  0  0  0  0  0  0
   -2.7731   -3.2302    1.4488 C   0  0  0  0  0  0  0  0  0  0  0  0
   -3.9083   -3.5982    0.7098 C   0  0  0  0  0  0  0  0  0  0  0  0
   -4.3724   -2.6901   -0.2518 C   0  0  0  0  0  0  0  0  0  0  0  0
   -3.7347   -1.4649   -0.4656 C   0  0  0  0  0  0  0  0  0  0  0  0
   -4.6158   -4.9076    0.9598 C   0  0  0  0  0  0  0  0  0  0  0  0
   -0.3940    0.2289    0.2078 C   0  0  0  0  0  0  0  0  0  0  0  0
    0.3384    1.2980    0.7719 C   0  0  0  0  0  0  0  0  0  0  0  0
    1.7330    1.3223    0.7861 C   0  0  0  0  0  0  0  0  0  0  0  0
    2.4185    0.2427    0.2192 C   0  0  0  0  0  0  0  0  0  0  0  0
    1.7101   -0.8381   -0.3693 C   0  0  0  0  0  0  0  0  0  0  0  0
    0.3096   -0.8357   -0.3707 C   0  0  0  0  0  0  0  0  0  0  0  0
    2.7058   -1.7604   -0.8804 C   0  0  0  0  0  0  0  0  0  0  0  0
    2.6342   -2.9959   -1.5401 C   0  0  0  0  0  0  0  0  0  0  0  0
    3.8154   -3.6495   -1.8883 C   0  0  0  0  0  0  0  0  0  0  0  0
    5.0656   -3.0821   -1.5767 C   0  0  0  0  0  0  0  0  0  0  0  0
    5.1650   -1.8542   -0.9210 C   0  0  0  0  0  0  0  0  0  0  0  0
    3.9760   -1.1954   -0.5829 C   0  0  0  0  0  0  0  0  0  0  0  0
    3.7905    0.0192    0.0857 N   0  0  0  0  0  0  0  0  0  0  0  0
    4.8218    0.8823    0.5457 C   0  0  0  0  0  0  0  0  0  0  0  0
    5.7635    1.4000   -0.3566 C   0  0  0  0  0  0  0  0  0  0  0  0
    6.7805    2.2413    0.1006 C   0  0  0  0  0  0  0  0  0  0  0  0
    6.8559    2.5871    1.4534 C   0  0  0  0  0  0  0  0  0  0  0  0
    5.9122    2.0790    2.3515 C   0  0  0  0  0  0  0  0  0  0  0  0
    4.9034    1.2224    1.9047 C   0  0  0  0  0  0  0  0  0  0  0  0
   -2.1841    1.1427   -4.5968 H   0  0  0  0  0  0  0  0  0  0  0  0
   -1.4158   -0.2822   -2.7062 H   0  0  0  0  0  0  0  0  0  0  0  0
   -4.0456    3.8897   -1.8246 H   0  0  0  0  0  0  0  0  0  0  0  0
   -4.3869    4.1356    0.7406 H   0  0  0  0  0  0  0  0  0  0  0  0
   -4.4089    3.9651    3.2275 H   0  0  0  0  0  0  0  0  0  0  0  0
   -3.2708    2.0704    4.3653 H   0  0  0  0  0  0  0  0  0  0  0  0
   -2.1007    0.3190    3.0423 H   0  0  0  0  0  0  0  0  0  0  0  0
   -1.2449   -1.7672    1.8246 H   0  0  0  0  0  0  0  0  0  0  0  0
   -2.3762   -3.9156    2.2036 H   0  0  0  0  0  0  0  0  0  0  0  0
   -5.2515   -2.9429   -0.8519 H   0  0  0  0  0  0  0  0  0  0  0  0
   -4.1353   -0.7882   -1.2223 H   0  0  0  0  0  0  0  0  0  0  0  0
   -5.3939   -4.7961    1.7357 H   0  0  0  0  0  0  0  0  0  0  0  0
   -5.1146   -5.2788    0.0514 H   0  0  0  0  0  0  0  0  0  0  0  0
   -3.9188   -5.6849    1.3091 H   0  0  0  0  0  0  0  0  0  0  0  0
   -0.1987    2.1404    1.2103 H   0  0  0  0  0  0  0  0  0  0  0  0
    2.2656    2.1664    1.2267 H   0  0  0  0  0  0  0  0  0  0  0  0
   -0.2298   -1.6728   -0.8181 H   0  0  0  0  0  0  0  0  0  0  0  0
    1.6643   -3.4420   -1.7743 H   0  0  0  0  0  0  0  0  0  0  0  0
    3.7733   -4.6121   -2.4032 H   0  0  0  0  0  0  0  0  0  0  0  0
    5.9803   -3.6138   -1.8510 H   0  0  0  0  0  0  0  0  0  0  0  0
    6.1388   -1.4267   -0.6775 H   0  0  0  0  0  0  0  0  0  0  0  0
    5.6873    1.1462   -1.4158 H   0  0  0  0  0  0  0  0  0  0  0  0
    7.5106    2.6392   -0.6085 H   0  0  0  0  0  0  0  0  0  0  0  0
    7.6481    3.2514    1.8069 H   0  0  0  0  0  0  0  0  0  0  0  0
    5.9676    2.3404    3.4112 H   0  0  0  0  0  0  0  0  0  0  0  0
    4.1782    0.8054    2.6063 H   0  0  0  0  0  0  0  0  0  0  0  0
  1  2  3  0
  2  3  1  0
  3  4  2  0
  3  8  1  0
  4  5  1  0
  4 42  1  0
  5  6  2  0
  5 43  1  0
  6  7  1  0
  6 15  1  0
  7  8  2  0
  7  9  1  0
  8 44  1  0
  9 10  2  0
  9 14  1  0
 10 11  1  0
 10 45  1  0
 11 12  2  0
 11 46  1  0
 12 13  1  0
 12 47  1  0
 13 14  2  0
 13 48  1  0
 14 15  1  0
 15 16  1  6
 15 23  1  0
 16 17  2  0
 16 21  1  0
 17 18  1  0
 17 49  1  0
 18 19  2  0
 18 50  1  0
 19 20  1  0
 19 22  1  0
 20 21  2  0
 20 51  1  0
 21 52  1  0
 22 53  1  0
 22 54  1  0
 22 55  1  0
 23 24  2  0
 23 28  1  0
 24 25  1  0
 24 56  1  0
 25 26  2  0
 25 57  1  0
 26 27  1  0
 26 35  1  0
 27 28  2  0
 27 29  1  0
 28 58  1  0
 29 30  2  0
 29 34  1  0
 30 31  1  0
 30 59  1  0
 31 32  2  0
 31 60  1  0
 32 33  1  0
 32 61  1  0
 33 34  2  0
 33 62  1  0
 34 35  1  0
 35 36  1  0
 36 37  2  0
 36 41  1  0
 37 38  1  0
 37 63  1  0
 38 39  2  0
 38 64  1  0
 39 40  1  0
 39 65  1  0
 40 41  2  0
 40 66  1  0
 41 67  1  0
M  END

