
     RDKit          3D

 44 48  0  0  0  0  0  0  0  0999 V2000
    1.2302    0.4922   -4.8803 N   0  0  0  0  0  0  0  0  0  0  0  0
    2.1471    0.1591   -4.2512 C   0  0  0  0  0  0  0  0  0  0  0  0
    3.3201   -0.2578   -3.5295 C   0  0  0  0  0  0  0  0  0  0  0  0
    4.5078   -0.4413   -4.2620 C   0  0  0  0  0  0  0  0  0  0  0  0
    5.6674   -0.8818   -3.6287 C   0  0  0  0  0  0  0  0  0  0  0  0
    5.6476   -1.1386   -2.2599 C   0  0  0  0  0  0  0  0  0  0  0  0
    4.4673   -0.9534   -1.5160 C   0  0  0  0  0  0  0  0  0  0  0  0
    4.5252   -1.1964   -0.0989 C   0  0  0  0  0  0  0  0  0  0  0  0
    4.6263   -1.4023    1.0391 N   0  0  0  0  0  0  0  0  0  0  0  0
    3.2716   -0.5088   -2.1349 C   0  0  0  0  0  0  0  0  0  0  0  0
    2.0204   -0.3142   -1.3546 C   0  0  0  0  0  0  0  0  0  0  0  0
    1.4849   -1.3583   -0.5796 C   0  0  0  0  0  0  0  0  0  0  0  0
    0.3068   -1.1821    0.1426 C   0  0  0  0  0  0  0  0  0  0  0  0
   -0.3553    0.0556    0.1282 C   0  0  0  0  0  0  0  0  0  0  0  0
   -1.5448    0.2407    0.8713 N   0  0  0  0  0  0  0  0  0  0  0  0
   -2.7646    0.7071    0.3629 C   0  0  0  0  0  0  0  0  0  0  0  0
   -3.1114    1.0527   -0.9495 C   0  0  0  0  0  0  0  0  0  0  0  0
   -4.4224    1.4681   -1.1887 C   0  0  0  0  0  0  0  0  0  0  0  0
   -5.3722    1.5346   -0.1524 C   0  0  0  0  0  0  0  0  0  0  0  0
   -5.0266    1.1746    1.1494 C   0  0  0  0  0  0  0  0  0  0  0  0
   -3.7161    0.7533    1.4171 C   0  0  0  0  0  0  0  0  0  0  0  0
   -3.0382    0.2970    2.6154 C   0  0  0  0  0  0  0  0  0  0  0  0
   -3.4368    0.1408    3.9507 C   0  0  0  0  0  0  0  0  0  0  0  0
   -2.5088   -0.3097    4.8886 C   0  0  0  0  0  0  0  0  0  0  0  0
   -1.1855   -0.5958    4.5047 C   0  0  0  0  0  0  0  0  0  0  0  0
   -0.7629   -0.4493    3.1825 C   0  0  0  0  0  0  0  0  0  0  0  0
   -1.7029   -0.0116    2.2407 C   0  0  0  0  0  0  0  0  0  0  0  0
    0.1789    1.1069   -0.6332 C   0  0  0  0  0  0  0  0  0  0  0  0
    1.3437    0.9184   -1.3735 C   0  0  0  0  0  0  0  0  0  0  0  0
    4.5031   -0.2427   -5.3354 H   0  0  0  0  0  0  0  0  0  0  0  0
    6.5858   -1.0248   -4.2013 H   0  0  0  0  0  0  0  0  0  0  0  0
    6.5492   -1.4768   -1.7458 H   0  0  0  0  0  0  0  0  0  0  0  0
    1.9782   -2.3321   -0.5612 H   0  0  0  0  0  0  0  0  0  0  0  0
   -0.1142   -2.0119    0.7125 H   0  0  0  0  0  0  0  0  0  0  0  0
   -2.3888    0.9945   -1.7647 H   0  0  0  0  0  0  0  0  0  0  0  0
   -4.7145    1.7435   -2.2052 H   0  0  0  0  0  0  0  0  0  0  0  0
   -6.3896    1.8655   -0.3736 H   0  0  0  0  0  0  0  0  0  0  0  0
   -5.7680    1.2153    1.9514 H   0  0  0  0  0  0  0  0  0  0  0  0
   -4.4611    0.3741    4.2521 H   0  0  0  0  0  0  0  0  0  0  0  0
   -2.8072   -0.4366    5.9320 H   0  0  0  0  0  0  0  0  0  0  0  0
   -0.4688   -0.9371    5.2560 H   0  0  0  0  0  0  0  0  0  0  0  0
    0.2693   -0.6632    2.9014 H   0  0  0  0  0  0  0  0  0  0  0  0
   -0.3162    2.0793   -0.6313 H   0  0  0  0  0  0  0  0  0  0  0  0
    1.7465    1.7528   -1.9511 H   0  0  0  0  0  0  0  0  0  0  0  0
  1  2  3  0
  2  3  1  0
  3  4  2  0
  3 10  1  0
  4  5  1  0
  4 30  1  0
  5  6  2  0
  5 31  1  0
  6  7  1  0
  6 32  1  0
  7  8  1  0
  7 10  2  0
  8  9  3  0
 10 11  1  0
 11 12  2  0
 11 29  1  0
 12 13  1  0
 12 33  1  0
 13 14  2  0
 13 34  1  0
 14 15  1  0
 14 28  1  0
 15 16  1  0
 15 27  1  0
 16 17  2  0
 16 21  1  0
 17 18  1  0
 17 35  1  0
 18 19  2  0
 18 36  1  0
 19 20  1  0
 19 37  1  0
 20 21  2  0
 20 38  1  0
 21 22  1  0
 22 23  1  0
 22 27  2  0
 23 24  2  0
 23 39  1  0
 24 25  1  0
 24 40  1  0
 25 26  2  0
 25 41  1  0
 26 27  1  0
 26 42  1  0
 28 29  2  0
 28 43  1  0
 29 44  1  0
M  END

