
     RDKit          3D

 94103  0  0  0  0  0  0  0  0999 V2000
    2.3622   -8.8982    6.2916 N   0  0  0  0  0  0  0  0  0  0  0  0
    1.7326   -8.0923    5.7443 C   0  0  0  0  0  0  0  0  0  0  0  0
    0.9483   -7.0907    5.0643 C   0  0  0  0  0  0  0  0  0  0  0  0
    1.5962   -6.1569    4.3792 N   0  0  0  0  0  0  0  0  0  0  0  0
    0.8888   -5.2160    3.7389 C   0  0  0  0  0  0  0  0  0  0  0  0
    1.5846   -4.1861    2.9850 C   0  0  0  0  0  0  0  0  0  0  0  0
    2.9948   -4.1728    2.9294 C   0  0  0  0  0  0  0  0  0  0  0  0
    3.6692   -3.2003    2.2157 C   0  0  0  0  0  0  0  0  0  0  0  0
    2.9608   -2.1899    1.5198 C   0  0  0  0  0  0  0  0  0  0  0  0
    3.6808   -1.1469    0.7500 C   0  0  0  0  0  0  0  0  0  0  0  0
    3.1463   -0.6008   -0.4335 C   0  0  0  0  0  0  0  0  0  0  0  0
    3.8173    0.3818   -1.1552 C   0  0  0  0  0  0  0  0  0  0  0  0
    5.0711    0.8619   -0.7268 C   0  0  0  0  0  0  0  0  0  0  0  0
    5.7585    1.8547   -1.4573 N   0  0  0  0  0  0  0  0  0  0  0  0
    6.5337    2.8393   -0.7823 C   0  0  0  0  0  0  0  0  0  0  0  0
    7.8172    3.1758   -1.2476 C   0  0  0  0  0  0  0  0  0  0  0  0
    8.5707    4.1523   -0.5939 C   0  0  0  0  0  0  0  0  0  0  0  0
    8.0671    4.7974    0.5402 C   0  0  0  0  0  0  0  0  0  0  0  0
    6.7932    4.4612    1.0098 C   0  0  0  0  0  0  0  0  0  0  0  0
    6.0264    3.4980    0.3520 C   0  0  0  0  0  0  0  0  0  0  0  0
    5.6883    1.8822   -2.8785 C   0  0  0  0  0  0  0  0  0  0  0  0
    5.8352    0.7006   -3.6272 C   0  0  0  0  0  0  0  0  0  0  0  0
    5.7638    0.7356   -5.0208 C   0  0  0  0  0  0  0  0  0  0  0  0
    5.5636    1.9462   -5.6920 C   0  0  0  0  0  0  0  0  0  0  0  0
    5.4279    3.1248   -4.9515 C   0  0  0  0  0  0  0  0  0  0  0  0
    5.4813    3.0964   -3.5568 C   0  0  0  0  0  0  0  0  0  0  0  0
    5.6173    0.3181    0.4530 C   0  0  0  0  0  0  0  0  0  0  0  0
    4.9336   -0.6589    1.1705 C   0  0  0  0  0  0  0  0  0  0  0  0
    1.5622   -2.2081    1.5811 C   0  0  0  0  0  0  0  0  0  0  0  0
    0.8434   -3.1850    2.2980 C   0  0  0  0  0  0  0  0  0  0  0  0
   -0.6294   -3.1919    2.3574 C   0  0  0  0  0  0  0  0  0  0  0  0
   -1.4126   -2.2222    1.7006 C   0  0  0  0  0  0  0  0  0  0  0  0
   -2.8117   -2.2169    1.7522 C   0  0  0  0  0  0  0  0  0  0  0  0
   -3.6010   -1.1814    1.0426 C   0  0  0  0  0  0  0  0  0  0  0  0
   -3.1696   -0.6332   -0.1813 C   0  0  0  0  0  0  0  0  0  0  0  0
   -3.9062    0.3417   -0.8473 C   0  0  0  0  0  0  0  0  0  0  0  0
   -5.1252    0.8114   -0.3188 C   0  0  0  0  0  0  0  0  0  0  0  0
   -5.8795    1.7957   -0.9928 N   0  0  0  0  0  0  0  0  0  0  0  0
   -6.6050    2.7757   -0.2586 C   0  0  0  0  0  0  0  0  0  0  0  0
   -6.0109    3.4436    0.8272 C   0  0  0  0  0  0  0  0  0  0  0  0
   -6.7291    4.4024    1.5436 C   0  0  0  0  0  0  0  0  0  0  0  0
   -8.0410    4.7249    1.1813 C   0  0  0  0  0  0  0  0  0  0  0  0
   -8.6316    4.0704    0.0955 C   0  0  0  0  0  0  0  0  0  0  0  0
   -7.9262    3.0983   -0.6158 C   0  0  0  0  0  0  0  0  0  0  0  0
   -5.9283    1.8179   -2.4150 C   0  0  0  0  0  0  0  0  0  0  0  0
   -6.1238    0.6317   -3.1450 C   0  0  0  0  0  0  0  0  0  0  0  0
   -6.1695    0.6616   -4.5398 C   0  0  0  0  0  0  0  0  0  0  0  0
   -6.0399    1.8716   -5.2293 C   0  0  0  0  0  0  0  0  0  0  0  0
   -5.8560    3.0546   -4.5066 C   0  0  0  0  0  0  0  0  0  0  0  0
   -5.7923    3.0315   -3.1123 C   0  0  0  0  0  0  0  0  0  0  0  0
   -5.5682    0.2659    0.9026 C   0  0  0  0  0  0  0  0  0  0  0  0
   -4.8195   -0.7035    1.5634 C   0  0  0  0  0  0  0  0  0  0  0  0
   -3.4523   -3.2331    2.5031 C   0  0  0  0  0  0  0  0  0  0  0  0
   -2.7137   -4.1989    3.1601 C   0  0  0  0  0  0  0  0  0  0  0  0
   -1.3036   -4.1993    3.1018 C   0  0  0  0  0  0  0  0  0  0  0  0
   -0.5398   -5.2224    3.7968 C   0  0  0  0  0  0  0  0  0  0  0  0
   -1.1846   -6.1694    4.4919 N   0  0  0  0  0  0  0  0  0  0  0  0
   -0.4751   -7.0971    5.1219 C   0  0  0  0  0  0  0  0  0  0  0  0
   -1.1927   -8.1054    5.8628 C   0  0  0  0  0  0  0  0  0  0  0  0
   -1.7688   -8.9168    6.4589 N   0  0  0  0  0  0  0  0  0  0  0  0
    3.5382   -4.9574    3.4572 H   0  0  0  0  0  0  0  0  0  0  0  0
    4.7593   -3.2291    2.1675 H   0  0  0  0  0  0  0  0  0  0  0  0
    2.1879   -0.9634   -0.8121 H   0  0  0  0  0  0  0  0  0  0  0  0
    3.3706    0.7809   -2.0670 H   0  0  0  0  0  0  0  0  0  0  0  0
    8.2198    2.6668   -2.1254 H   0  0  0  0  0  0  0  0  0  0  0  0
    9.5668    4.4015   -0.9689 H   0  0  0  0  0  0  0  0  0  0  0  0
    8.6620    5.5566    1.0533 H   0  0  0  0  0  0  0  0  0  0  0  0
    6.3837    4.9634    1.8901 H   0  0  0  0  0  0  0  0  0  0  0  0
    5.0266    3.2508    0.7145 H   0  0  0  0  0  0  0  0  0  0  0  0
    6.0073   -0.2452   -3.1098 H   0  0  0  0  0  0  0  0  0  0  0  0
    5.8806   -0.1921   -5.5872 H   0  0  0  0  0  0  0  0  0  0  0  0
    5.5154    1.9710   -6.7832 H   0  0  0  0  0  0  0  0  0  0  0  0
    5.2665    4.0775   -5.4628 H   0  0  0  0  0  0  0  0  0  0  0  0
    5.3634    4.0176   -2.9831 H   0  0  0  0  0  0  0  0  0  0  0  0
    6.5865    0.6697    0.8099 H   0  0  0  0  0  0  0  0  0  0  0  0
    5.3830   -1.0412    2.0898 H   0  0  0  0  0  0  0  0  0  0  0  0
    1.0192   -1.4144    1.0708 H   0  0  0  0  0  0  0  0  0  0  0  0
   -0.9198   -1.4239    1.1481 H   0  0  0  0  0  0  0  0  0  0  0  0
   -2.2420   -0.9881   -0.6362 H   0  0  0  0  0  0  0  0  0  0  0  0
   -3.5392    0.7428   -1.7933 H   0  0  0  0  0  0  0  0  0  0  0  0
   -4.9820    3.2071    1.1054 H   0  0  0  0  0  0  0  0  0  0  0  0
   -6.2521    4.9120    2.3849 H   0  0  0  0  0  0  0  0  0  0  0  0
   -8.5980    5.4807    1.7399 H   0  0  0  0  0  0  0  0  0  0  0  0
   -9.6579    4.3088   -0.1955 H   0  0  0  0  0  0  0  0  0  0  0  0
   -8.3960    2.5819   -1.4551 H   0  0  0  0  0  0  0  0  0  0  0  0
   -6.2414   -0.3138   -2.6120 H   0  0  0  0  0  0  0  0  0  0  0  0
   -6.3227   -0.2697   -5.0914 H   0  0  0  0  0  0  0  0  0  0  0  0
   -6.0834    1.8923   -6.3208 H   0  0  0  0  0  0  0  0  0  0  0  0
   -5.7487    4.0068   -5.0327 H   0  0  0  0  0  0  0  0  0  0  0  0
   -5.6374    3.9564   -2.5535 H   0  0  0  0  0  0  0  0  0  0  0  0
   -6.5081    0.6099    1.3370 H   0  0  0  0  0  0  0  0  0  0  0  0
   -5.1887   -1.0876    2.5170 H   0  0  0  0  0  0  0  0  0  0  0  0
   -4.5425   -3.2719    2.5427 H   0  0  0  0  0  0  0  0  0  0  0  0
   -3.2056   -4.9881    3.7299 H   0  0  0  0  0  0  0  0  0  0  0  0
  1  2  3  0
  2  3  1  0
  3  4  2  0
  3 58  1  0
  4  5  1  0
  5  6  2  0
  5 56  1  0
  6  7  1  0
  6 30  1  0
  7  8  2  0
  7 61  1  0
  8  9  1  0
  8 62  1  0
  9 10  1  0
  9 29  2  0
 10 11  2  0
 10 28  1  0
 11 12  1  0
 11 63  1  0
 12 13  2  0
 12 64  1  0
 13 14  1  0
 13 27  1  0
 14 15  1  0
 14 21  1  0
 15 16  2  0
 15 20  1  0
 16 17  1  0
 16 65  1  0
 17 18  2  0
 17 66  1  0
 18 19  1  0
 18 67  1  0
 19 20  2  0
 19 68  1  0
 20 69  1  0
 21 22  2  0
 21 26  1  0
 22 23  1  0
 22 70  1  0
 23 24  2  0
 23 71  1  0
 24 25  1  0
 24 72  1  0
 25 26  2  0
 25 73  1  0
 26 74  1  0
 27 28  2  0
 27 75  1  0
 28 76  1  0
 29 30  1  0
 29 77  1  0
 30 31  2  0
 31 32  1  0
 31 55  1  0
 32 33  2  0
 32 78  1  0
 33 34  1  0
 33 53  1  0
 34 35  2  0
 34 52  1  0
 35 36  1  0
 35 79  1  0
 36 37  2  0
 36 80  1  0
 37 38  1  0
 37 51  1  0
 38 39  1  0
 38 45  1  0
 39 40  2  0
 39 44  1  0
 40 41  1  0
 40 81  1  0
 41 42  2  0
 41 82  1  0
 42 43  1  0
 42 83  1  0
 43 44  2  0
 43 84  1  0
 44 85  1  0
 45 46  2  0
 45 50  1  0
 46 47  1  0
 46 86  1  0
 47 48  2  0
 47 87  1  0
 48 49  1  0
 48 88  1  0
 49 50  2  0
 49 89  1  0
 50 90  1  0
 51 52  2  0
 51 91  1  0
 52 92  1  0
 53 54  2  0
 53 93  1  0
 54 55  1  0
 54 94  1  0
 55 56  2  0
 56 57  1  0
 57 58  2  0
 58 59  1  0
 59 60  3  0
M  END

