
     RDKit          3D

136151  0  0  0  0  0  0  0  0999 V2000
   10.7369   -2.6642   -1.1735 C   0  0  0  0  0  0  0  0  0  0  0  0
   10.1007   -2.0991   -2.4646 C   0  0  2  0  0  0  0  0  0  0  0  0
   10.4578   -3.0430   -3.6275 C   0  0  0  0  0  0  0  0  0  0  0  0
   10.7059   -0.7093   -2.7698 C   0  0  0  0  0  0  0  0  0  0  0  0
    8.5761   -1.9661   -2.2712 C   0  0  0  0  0  0  0  0  0  0  0  0
    7.6403   -2.6453   -3.0779 C   0  0  0  0  0  0  0  0  0  0  0  0
    6.2725   -2.5010   -2.8783 C   0  0  0  0  0  0  0  0  0  0  0  0
    5.7997   -1.6687   -1.8570 C   0  0  0  0  0  0  0  0  0  0  0  0
    6.6842   -0.9606   -1.0057 C   0  0  0  0  0  0  0  0  0  0  0  0
    8.0632   -1.1452   -1.2614 C   0  0  0  0  0  0  0  0  0  0  0  0
    6.0458   -0.0657    0.0974 B   0  0  0  0  0  0  0  0  0  0  0  0
    6.6536    0.8330    1.2146 C   0  0  0  0  0  0  0  0  0  0  0  0
    8.0254    1.0258    1.5016 C   0  0  0  0  0  0  0  0  0  0  0  0
    8.5101    1.8498    2.5228 C   0  0  0  0  0  0  0  0  0  0  0  0
   10.0291    1.9916    2.7511 C   0  0  2  0  0  0  0  0  0  0  0  0
   10.6918    2.5590    1.4744 C   0  0  0  0  0  0  0  0  0  0  0  0
   10.6348    0.6055    3.0717 C   0  0  0  0  0  0  0  0  0  0  0  0
   10.3540    2.9386    3.9209 C   0  0  0  0  0  0  0  0  0  0  0  0
    7.5521    2.5233    3.3078 C   0  0  0  0  0  0  0  0  0  0  0  0
    6.1901    2.3709    3.0771 C   0  0  0  0  0  0  0  0  0  0  0  0
    5.7458    1.5358    2.0454 C   0  0  0  0  0  0  0  0  0  0  0  0
    4.3846    1.4669    1.9213 O   0  0  0  0  0  0  0  0  0  0  0  0
    3.7679    0.6991    0.9911 C   0  0  0  0  0  0  0  0  0  0  0  0
    2.3717    0.7010    0.9968 C   0  0  0  0  0  0  0  0  0  0  0  0
    1.6911   -0.0782    0.0475 C   0  0  0  0  0  0  0  0  0  0  0  0
    0.2758   -0.0817    0.0314 N   0  0  0  0  0  0  0  0  0  0  0  0
   -0.5483    1.0516    0.0013 C   0  0  0  0  0  0  0  0  0  0  0  0
   -0.2140    2.4095   -0.0622 C   0  0  0  0  0  0  0  0  0  0  0  0
   -1.2504    3.3397   -0.1147 C   0  0  0  0  0  0  0  0  0  0  0  0
   -2.6159    2.9613   -0.1143 C   0  0  0  0  0  0  0  0  0  0  0  0
   -3.6886    3.9911   -0.1707 C   0  0  0  0  0  0  0  0  0  0  0  0
   -4.8882    3.8241    0.5658 C   0  0  0  0  0  0  0  0  0  0  0  0
   -5.9184    4.7618    0.5426 C   0  0  0  0  0  0  0  0  0  0  0  0
   -5.7457    5.9113   -0.2376 C   0  0  0  0  0  0  0  0  0  0  0  0
   -4.5609    6.1051   -0.9961 C   0  0  0  0  0  0  0  0  0  0  0  0
   -3.5422    5.1455   -0.9553 C   0  0  0  0  0  0  0  0  0  0  0  0
   -4.7231    7.3581   -1.7088 C   0  0  0  0  0  0  0  0  0  0  0  0
   -3.9092    8.0826   -2.5916 C   0  0  0  0  0  0  0  0  0  0  0  0
   -4.3677    9.2987   -3.0965 C   0  0  0  0  0  0  0  0  0  0  0  0
   -5.6287    9.7992   -2.7210 C   0  0  0  0  0  0  0  0  0  0  0  0
   -6.4587    9.0984   -1.8449 C   0  0  0  0  0  0  0  0  0  0  0  0
   -5.9997    7.8710   -1.3497 C   0  0  0  0  0  0  0  0  0  0  0  0
   -6.6122    6.9860   -0.4565 N   0  0  0  0  0  0  0  0  0  0  0  0
   -7.8971    7.1491    0.1271 C   0  0  0  0  0  0  0  0  0  0  0  0
   -9.0310    7.2872   -0.6882 C   0  0  0  0  0  0  0  0  0  0  0  0
  -10.2914    7.4555   -0.1103 C   0  0  0  0  0  0  0  0  0  0  0  0
  -10.4346    7.4692    1.2806 C   0  0  0  0  0  0  0  0  0  0  0  0
   -9.3065    7.3224    2.0937 C   0  0  0  0  0  0  0  0  0  0  0  0
   -8.0404    7.1720    1.5230 C   0  0  0  0  0  0  0  0  0  0  0  0
   -2.9277    1.5937   -0.0666 C   0  0  0  0  0  0  0  0  0  0  0  0
   -1.9061    0.6386   -0.0116 C   0  0  0  0  0  0  0  0  0  0  0  0
   -1.9029   -0.8125    0.0146 C   0  0  0  0  0  0  0  0  0  0  0  0
   -2.9205   -1.7732    0.0295 C   0  0  0  0  0  0  0  0  0  0  0  0
   -2.6033   -3.1394    0.0768 C   0  0  0  0  0  0  0  0  0  0  0  0
   -3.6730   -4.1737    0.0934 C   0  0  0  0  0  0  0  0  0  0  0  0
   -3.5118   -5.3914   -0.6141 C   0  0  0  0  0  0  0  0  0  0  0  0
   -4.4904   -6.3831   -0.6310 C   0  0  0  0  0  0  0  0  0  0  0  0
   -5.6751   -6.1523    0.0784 C   0  0  0  0  0  0  0  0  0  0  0  0
   -5.8638   -4.9488    0.8081 C   0  0  0  0  0  0  0  0  0  0  0  0
   -4.8630   -3.9698    0.8088 C   0  0  0  0  0  0  0  0  0  0  0  0
   -7.1606   -5.0503    1.4502 C   0  0  0  0  0  0  0  0  0  0  0  0
   -7.9006   -4.1944    2.2787 C   0  0  0  0  0  0  0  0  0  0  0  0
   -9.1608   -4.5964    2.7195 C   0  0  0  0  0  0  0  0  0  0  0  0
   -9.6897   -5.8425    2.3331 C   0  0  0  0  0  0  0  0  0  0  0  0
   -8.9743   -6.7134    1.5101 C   0  0  0  0  0  0  0  0  0  0  0  0
   -7.7033   -6.3113    1.0798 C   0  0  0  0  0  0  0  0  0  0  0  0
   -6.7944   -6.9724    0.2473 N   0  0  0  0  0  0  0  0  0  0  0  0
   -6.9761   -8.2585   -0.3279 C   0  0  0  0  0  0  0  0  0  0  0  0
   -7.2097   -9.3728    0.4927 C   0  0  0  0  0  0  0  0  0  0  0  0
   -7.3964  -10.6342   -0.0775 C   0  0  0  0  0  0  0  0  0  0  0  0
   -7.3335  -10.7986   -1.4647 C   0  0  0  0  0  0  0  0  0  0  0  0
   -7.0914   -9.6904   -2.2824 C   0  0  0  0  0  0  0  0  0  0  0  0
   -6.9221   -8.4227   -1.7207 C   0  0  0  0  0  0  0  0  0  0  0  0
   -1.2365   -3.5112    0.1176 C   0  0  0  0  0  0  0  0  0  0  0  0
   -0.2039   -2.5756    0.1011 C   0  0  0  0  0  0  0  0  0  0  0  0
   -0.5432   -1.2188    0.0369 C   0  0  0  0  0  0  0  0  0  0  0  0
    2.3977   -0.8537   -0.8858 C   0  0  0  0  0  0  0  0  0  0  0  0
    3.7934   -0.8437   -0.8481 C   0  0  0  0  0  0  0  0  0  0  0  0
    4.5199   -0.0702    0.0800 C   0  0  0  0  0  0  0  0  0  0  0  0
    4.4356   -1.6080   -1.7640 O   0  0  0  0  0  0  0  0  0  0  0  0
   11.8284   -2.7646   -1.2925 H   0  0  0  0  0  0  0  0  0  0  0  0
   10.5560   -2.0108   -0.3062 H   0  0  0  0  0  0  0  0  0  0  0  0
   10.3275   -3.6583   -0.9332 H   0  0  0  0  0  0  0  0  0  0  0  0
   10.0570   -2.6829   -4.5882 H   0  0  0  0  0  0  0  0  0  0  0  0
   11.5522   -3.1089   -3.7313 H   0  0  0  0  0  0  0  0  0  0  0  0
   10.0810   -4.0642   -3.4599 H   0  0  0  0  0  0  0  0  0  0  0  0
   11.7968   -0.7857   -2.9101 H   0  0  0  0  0  0  0  0  0  0  0  0
   10.2732   -0.2825   -3.6885 H   0  0  0  0  0  0  0  0  0  0  0  0
   10.5256    0.0062   -1.9528 H   0  0  0  0  0  0  0  0  0  0  0  0
    7.9752   -3.3010   -3.8819 H   0  0  0  0  0  0  0  0  0  0  0  0
    5.5491   -3.0251   -3.5058 H   0  0  0  0  0  0  0  0  0  0  0  0
    8.7705   -0.6093   -0.6304 H   0  0  0  0  0  0  0  0  0  0  0  0
    8.7501    0.4943    0.8868 H   0  0  0  0  0  0  0  0  0  0  0  0
   10.5345    1.9038    0.6038 H   0  0  0  0  0  0  0  0  0  0  0  0
   10.2826    3.5506    1.2237 H   0  0  0  0  0  0  0  0  0  0  0  0
   11.7797    2.6655    1.6185 H   0  0  0  0  0  0  0  0  0  0  0  0
   10.4773   -0.1117    2.2515 H   0  0  0  0  0  0  0  0  0  0  0  0
   11.7217    0.6880    3.2371 H   0  0  0  0  0  0  0  0  0  0  0  0
   10.1833    0.1771    3.9806 H   0  0  0  0  0  0  0  0  0  0  0  0
    9.9752    3.9575    3.7435 H   0  0  0  0  0  0  0  0  0  0  0  0
   11.4454    3.0111    4.0495 H   0  0  0  0  0  0  0  0  0  0  0  0
    9.9336    2.5772    4.8725 H   0  0  0  0  0  0  0  0  0  0  0  0
    7.8646    3.1812    4.1190 H   0  0  0  0  0  0  0  0  0  0  0  0
    5.4495    2.8909    3.6878 H   0  0  0  0  0  0  0  0  0  0  0  0
    1.8322    1.2838    1.7423 H   0  0  0  0  0  0  0  0  0  0  0  0
    0.8248    2.7414   -0.0662 H   0  0  0  0  0  0  0  0  0  0  0  0
   -0.9969    4.4019   -0.1346 H   0  0  0  0  0  0  0  0  0  0  0  0
   -5.0025    2.9380    1.1942 H   0  0  0  0  0  0  0  0  0  0  0  0
   -6.8277    4.6006    1.1236 H   0  0  0  0  0  0  0  0  0  0  0  0
   -2.6429    5.2834   -1.5599 H   0  0  0  0  0  0  0  0  0  0  0  0
   -2.9263    7.6992   -2.8771 H   0  0  0  0  0  0  0  0  0  0  0  0
   -3.7434    9.8718   -3.7862 H   0  0  0  0  0  0  0  0  0  0  0  0
   -5.9669   10.7587   -3.1208 H   0  0  0  0  0  0  0  0  0  0  0  0
   -7.4312    9.4988   -1.5542 H   0  0  0  0  0  0  0  0  0  0  0  0
   -8.9181    7.2524   -1.7736 H   0  0  0  0  0  0  0  0  0  0  0  0
  -11.1689    7.5636   -0.7528 H   0  0  0  0  0  0  0  0  0  0  0  0
  -11.4228    7.5937    1.7298 H   0  0  0  0  0  0  0  0  0  0  0  0
   -9.4091    7.3375    3.1817 H   0  0  0  0  0  0  0  0  0  0  0  0
   -7.1543    7.0802    2.1543 H   0  0  0  0  0  0  0  0  0  0  0  0
   -3.9704    1.2703   -0.1035 H   0  0  0  0  0  0  0  0  0  0  0  0
   -3.9653   -1.4577   -0.0174 H   0  0  0  0  0  0  0  0  0  0  0  0
   -2.5960   -5.5519   -1.1873 H   0  0  0  0  0  0  0  0  0  0  0  0
   -4.3326   -7.3078   -1.1882 H   0  0  0  0  0  0  0  0  0  0  0  0
   -4.9977   -3.0562    1.3925 H   0  0  0  0  0  0  0  0  0  0  0  0
   -7.4947   -3.2229    2.5721 H   0  0  0  0  0  0  0  0  0  0  0  0
   -9.7465   -3.9391    3.3665 H   0  0  0  0  0  0  0  0  0  0  0  0
  -10.6831   -6.1361    2.6818 H   0  0  0  0  0  0  0  0  0  0  0  0
   -9.3967   -7.6737    1.2103 H   0  0  0  0  0  0  0  0  0  0  0  0
   -7.2347   -9.2444    1.5766 H   0  0  0  0  0  0  0  0  0  0  0  0
   -7.5793  -11.4963    0.5689 H   0  0  0  0  0  0  0  0  0  0  0  0
   -7.4727  -11.7878   -1.9075 H   0  0  0  0  0  0  0  0  0  0  0  0
   -7.0463   -9.8093   -3.3679 H   0  0  0  0  0  0  0  0  0  0  0  0
   -6.7562   -7.5512   -2.3571 H   0  0  0  0  0  0  0  0  0  0  0  0
   -0.9789   -4.5700    0.1922 H   0  0  0  0  0  0  0  0  0  0  0  0
    0.8357   -2.9011    0.1534 H   0  0  0  0  0  0  0  0  0  0  0  0
    1.8787   -1.4396   -1.6434 H   0  0  0  0  0  0  0  0  0  0  0  0
  2  1  1  1
  1 81  1  0
  1 82  1  0
  1 83  1  0
  2  3  1  0
  2  4  1  0
  2  5  1  0
  3 84  1  0
  3 85  1  0
  3 86  1  0
  4 87  1  0
  4 88  1  0
  4 89  1  0
  5  6  2  0
  5 10  1  0
  6  7  1  0
  6 90  1  0
  7  8  2  0
  7 91  1  0
  8  9  1  0
  8 80  1  0
  9 10  2  0
  9 11  1  0
 10 92  1  0
 11 12  1  0
 11 79  1  0
 12 13  2  0
 12 21  1  0
 13 14  1  0
 13 93  1  0
 14 15  1  0
 14 19  2  0
 15 16  1  6
 15 17  1  0
 15 18  1  0
 16 94  1  0
 16 95  1  0
 16 96  1  0
 17 97  1  0
 17 98  1  0
 17 99  1  0
 18100  1  0
 18101  1  0
 18102  1  0
 19 20  1  0
 19103  1  0
 20 21  2  0
 20104  1  0
 21 22  1  0
 22 23  1  0
 23 24  1  0
 23 79  2  0
 24 25  2  0
 24105  1  0
 25 26  1  0
 25 77  1  0
 26 27  1  0
 26 76  1  0
 27 28  2  0
 27 51  1  0
 28 29  1  0
 28106  1  0
 29 30  2  0
 29107  1  0
 30 31  1  0
 30 50  1  0
 31 32  2  0
 31 36  1  0
 32 33  1  0
 32108  1  0
 33 34  2  0
 33109  1  0
 34 35  1  0
 34 43  1  0
 35 36  2  0
 35 37  1  0
 36110  1  0
 37 38  2  0
 37 42  1  0
 38 39  1  0
 38111  1  0
 39 40  2  0
 39112  1  0
 40 41  1  0
 40113  1  0
 41 42  2  0
 41114  1  0
 42 43  1  0
 43 44  1  0
 44 45  2  0
 44 49  1  0
 45 46  1  0
 45115  1  0
 46 47  2  0
 46116  1  0
 47 48  1  0
 47117  1  0
 48 49  2  0
 48118  1  0
 49119  1  0
 50 51  2  0
 50120  1  0
 51 52  1  0
 52 53  1  0
 52 76  2  0
 53 54  2  0
 53121  1  0
 54 55  1  0
 54 74  1  0
 55 56  2  0
 55 60  1  0
 56 57  1  0
 56122  1  0
 57 58  2  0
 57123  1  0
 58 59  1  0
 58 67  1  0
 59 60  2  0
 59 61  1  0
 60124  1  0
 61 62  2  0
 61 66  1  0
 62 63  1  0
 62125  1  0
 63 64  2  0
 63126  1  0
 64 65  1  0
 64127  1  0
 65 66  2  0
 65128  1  0
 66 67  1  0
 67 68  1  0
 68 69  2  0
 68 73  1  0
 69 70  1  0
 69129  1  0
 70 71  2  0
 70130  1  0
 71 72  1  0
 71131  1  0
 72 73  2  0
 72132  1  0
 73133  1  0
 74 75  2  0
 74134  1  0
 75 76  1  0
 75135  1  0
 77 78  2  0
 77136  1  0
 78 79  1  0
 78 80  1  0
M  END

