
     RDKit          3D

 99110  0  0  0  0  0  0  0  0999 V2000
   -8.1820   -7.1148   -1.9940 C   0  0  0  0  0  0  0  0  0  0  0  0
   -6.8248   -7.0157   -2.3147 C   0  0  0  0  0  0  0  0  0  0  0  0
   -6.0944   -5.8834   -1.9476 C   0  0  0  0  0  0  0  0  0  0  0  0
   -6.6997   -4.8211   -1.2482 C   0  0  0  0  0  0  0  0  0  0  0  0
   -5.9217   -3.6143   -0.8585 C   0  0  0  0  0  0  0  0  0  0  0  0
   -4.5736   -3.7308   -0.4358 C   0  0  0  0  0  0  0  0  0  0  0  0
   -3.8087   -2.6275   -0.0639 C   0  0  0  0  0  0  0  0  0  0  0  0
   -4.4070   -1.3631   -0.1198 C   0  0  0  0  0  0  0  0  0  0  0  0
   -5.7589   -1.2117   -0.5301 C   0  0  0  0  0  0  0  0  0  0  0  0
   -6.5045   -2.3380   -0.8969 C   0  0  0  0  0  0  0  0  0  0  0  0
   -6.0568    0.2069   -0.4588 C   0  0  0  0  0  0  0  0  0  0  0  0
   -7.1967    0.9694   -0.7387 C   0  0  0  0  0  0  0  0  0  0  0  0
   -7.1736    2.3626   -0.5706 C   0  0  0  0  0  0  0  0  0  0  0  0
   -8.3775    3.1869   -0.8616 C   0  0  0  0  0  0  0  0  0  0  0  0
   -8.7043    4.3046   -0.0690 C   0  0  0  0  0  0  0  0  0  0  0  0
   -9.8351    5.0774   -0.3413 C   0  0  0  0  0  0  0  0  0  0  0  0
  -10.6716    4.7514   -1.4130 C   0  0  0  0  0  0  0  0  0  0  0  0
  -10.3627    3.6450   -2.2100 C   0  0  0  0  0  0  0  0  0  0  0  0
   -9.2299    2.8749   -1.9387 C   0  0  0  0  0  0  0  0  0  0  0  0
   -5.9747    2.9705   -0.1203 C   0  0  0  0  0  0  0  0  0  0  0  0
   -4.8255    2.2366    0.1650 C   0  0  0  0  0  0  0  0  0  0  0  0
   -4.8742    0.8473   -0.0003 C   0  0  0  0  0  0  0  0  0  0  0  0
   -3.8804   -0.1116    0.2007 N   0  0  0  0  0  0  0  0  0  0  0  0
   -2.5535    0.1431    0.6514 C   0  0  0  0  0  0  0  0  0  0  0  0
   -1.4614   -0.1425   -0.1964 C   0  0  0  0  0  0  0  0  0  0  0  0
   -0.1479    0.0832    0.2106 C   0  0  0  0  0  0  0  0  0  0  0  0
    0.0651    0.6182    1.4876 C   0  0  0  0  0  0  0  0  0  0  0  0
   -1.0251    0.9355    2.3426 C   0  0  0  0  0  0  0  0  0  0  0  0
   -2.3367    0.6819    1.9232 C   0  0  0  0  0  0  0  0  0  0  0  0
   -0.4585    1.4976    3.5529 C   0  0  0  0  0  0  0  0  0  0  0  0
   -1.0140    1.9736    4.7495 C   0  0  0  0  0  0  0  0  0  0  0  0
   -0.1654    2.4393    5.7521 C   0  0  0  0  0  0  0  0  0  0  0  0
    1.2307    2.4246    5.5716 C   0  0  0  0  0  0  0  0  0  0  0  0
    1.8083    1.9565    4.3908 C   0  0  0  0  0  0  0  0  0  0  0  0
    0.9516    1.5028    3.3797 C   0  0  0  0  0  0  0  0  0  0  0  0
    1.2600    0.9663    2.1228 N   0  0  0  0  0  0  0  0  0  0  0  0
    2.5624    0.8055    1.5850 C   0  0  0  0  0  0  0  0  0  0  0  0
    3.4344    1.9030    1.4983 C   0  0  0  0  0  0  0  0  0  0  0  0
    4.7146    1.7408    0.9749 C   0  0  0  0  0  0  0  0  0  0  0  0
    5.1489    0.4862    0.5141 C   0  0  0  0  0  0  0  0  0  0  0  0
    6.5125    0.3179   -0.0517 C   0  0  0  0  0  0  0  0  0  0  0  0
    6.8676   -0.8967   -0.4874 N   0  0  0  0  0  0  0  0  0  0  0  0
    8.1047   -1.0078   -0.9906 C   0  0  0  0  0  0  0  0  0  0  0  0
    8.5451   -2.3374   -1.4855 C   0  0  0  0  0  0  0  0  0  0  0  0
    7.6798   -3.4440   -1.4218 C   0  0  0  0  0  0  0  0  0  0  0  0
    8.0953   -4.6918   -1.8869 C   0  0  0  0  0  0  0  0  0  0  0  0
    9.3786   -4.8506   -2.4212 C   0  0  0  0  0  0  0  0  0  0  0  0
   10.2457   -3.7545   -2.4883 C   0  0  0  0  0  0  0  0  0  0  0  0
    9.8333   -2.5056   -2.0239 C   0  0  0  0  0  0  0  0  0  0  0  0
    8.9652    0.0152   -1.0717 N   0  0  0  0  0  0  0  0  0  0  0  0
    8.5331    1.1975   -0.6148 C   0  0  0  0  0  0  0  0  0  0  0  0
    9.4568    2.3588   -0.6872 C   0  0  0  0  0  0  0  0  0  0  0  0
   10.7475    2.2090   -1.2249 C   0  0  0  0  0  0  0  0  0  0  0  0
   11.6139    3.3000   -1.2928 C   0  0  0  0  0  0  0  0  0  0  0  0
   11.2035    4.5533   -0.8252 C   0  0  0  0  0  0  0  0  0  0  0  0
    9.9209    4.7108   -0.2887 C   0  0  0  0  0  0  0  0  0  0  0  0
    9.0522    3.6217   -0.2195 C   0  0  0  0  0  0  0  0  0  0  0  0
    7.3126    1.3898   -0.0958 N   0  0  0  0  0  0  0  0  0  0  0  0
    4.2690   -0.6065    0.5981 C   0  0  0  0  0  0  0  0  0  0  0  0
    2.9927   -0.4529    1.1336 C   0  0  0  0  0  0  0  0  0  0  0  0
   -8.0671   -4.9390   -0.9313 C   0  0  0  0  0  0  0  0  0  0  0  0
   -8.7992   -6.0693   -1.3006 C   0  0  0  0  0  0  0  0  0  0  0  0
   -8.7542   -8.0004   -2.2818 H   0  0  0  0  0  0  0  0  0  0  0  0
   -6.3315   -7.8222   -2.8638 H   0  0  0  0  0  0  0  0  0  0  0  0
   -5.0414   -5.8100   -2.2296 H   0  0  0  0  0  0  0  0  0  0  0  0
   -4.1241   -4.7243   -0.3724 H   0  0  0  0  0  0  0  0  0  0  0  0
   -2.7778   -2.7516    0.2719 H   0  0  0  0  0  0  0  0  0  0  0  0
   -7.5361   -2.2197   -1.2361 H   0  0  0  0  0  0  0  0  0  0  0  0
   -8.1137    0.4750   -1.0673 H   0  0  0  0  0  0  0  0  0  0  0  0
   -8.0762    4.5572    0.7886 H   0  0  0  0  0  0  0  0  0  0  0  0
  -10.0693    5.9352    0.2949 H   0  0  0  0  0  0  0  0  0  0  0  0
  -11.5571    5.3555   -1.6261 H   0  0  0  0  0  0  0  0  0  0  0  0
  -11.0029    3.3843   -3.0570 H   0  0  0  0  0  0  0  0  0  0  0  0
   -8.9870    2.0307   -2.5883 H   0  0  0  0  0  0  0  0  0  0  0  0
   -5.9395    4.0574   -0.0184 H   0  0  0  0  0  0  0  0  0  0  0  0
   -3.9131    2.7358    0.4955 H   0  0  0  0  0  0  0  0  0  0  0  0
   -1.6594   -0.5409   -1.1934 H   0  0  0  0  0  0  0  0  0  0  0  0
    0.6831   -0.1369   -0.4605 H   0  0  0  0  0  0  0  0  0  0  0  0
   -3.1870    0.8982    2.5731 H   0  0  0  0  0  0  0  0  0  0  0  0
   -2.0971    1.9747    4.8946 H   0  0  0  0  0  0  0  0  0  0  0  0
   -0.5842    2.8139    6.6890 H   0  0  0  0  0  0  0  0  0  0  0  0
    1.8799    2.7842    6.3739 H   0  0  0  0  0  0  0  0  0  0  0  0
    2.8920    1.9407    4.2674 H   0  0  0  0  0  0  0  0  0  0  0  0
    3.0962    2.8862    1.8308 H   0  0  0  0  0  0  0  0  0  0  0  0
    5.3936    2.5906    0.9021 H   0  0  0  0  0  0  0  0  0  0  0  0
    6.6824   -3.3074   -1.0034 H   0  0  0  0  0  0  0  0  0  0  0  0
    7.4154   -5.5458   -1.8330 H   0  0  0  0  0  0  0  0  0  0  0  0
    9.7030   -5.8289   -2.7855 H   0  0  0  0  0  0  0  0  0  0  0  0
   11.2488   -3.8751   -2.9051 H   0  0  0  0  0  0  0  0  0  0  0  0
   10.4992   -1.6437   -2.0705 H   0  0  0  0  0  0  0  0  0  0  0  0
   11.0549    1.2273   -1.5858 H   0  0  0  0  0  0  0  0  0  0  0  0
   12.6150    3.1736   -1.7125 H   0  0  0  0  0  0  0  0  0  0  0  0
   11.8834    5.4076   -0.8791 H   0  0  0  0  0  0  0  0  0  0  0  0
    9.5972    5.6883    0.0774 H   0  0  0  0  0  0  0  0  0  0  0  0
    8.0504    3.7315    0.1963 H   0  0  0  0  0  0  0  0  0  0  0  0
    4.6084   -1.5820    0.2494 H   0  0  0  0  0  0  0  0  0  0  0  0
    2.3251   -1.3122    1.2190 H   0  0  0  0  0  0  0  0  0  0  0  0
   -8.5574   -4.1438   -0.3649 H   0  0  0  0  0  0  0  0  0  0  0  0
   -9.8577   -6.1378   -1.0353 H   0  0  0  0  0  0  0  0  0  0  0  0
  1  2  2  0
  1 62  1  0
  1 63  1  0
  2  3  1  0
  2 64  1  0
  3  4  2  0
  3 65  1  0
  4  5  1  0
  4 61  1  0
  5  6  2  0
  5 10  1  0
  6  7  1  0
  6 66  1  0
  7  8  2  0
  7 67  1  0
  8  9  1  0
  8 23  1  0
  9 10  2  0
  9 11  1  0
 10 68  1  0
 11 12  2  0
 11 22  1  0
 12 13  1  0
 12 69  1  0
 13 14  1  0
 13 20  2  0
 14 15  2  0
 14 19  1  0
 15 16  1  0
 15 70  1  0
 16 17  2  0
 16 71  1  0
 17 18  1  0
 17 72  1  0
 18 19  2  0
 18 73  1  0
 19 74  1  0
 20 21  1  0
 20 75  1  0
 21 22  2  0
 21 76  1  0
 22 23  1  0
 23 24  1  0
 24 25  2  0
 24 29  1  0
 25 26  1  0
 25 77  1  0
 26 27  2  0
 26 78  1  0
 27 28  1  0
 27 36  1  0
 28 29  2  0
 28 30  1  0
 29 79  1  0
 30 31  2  0
 30 35  1  0
 31 32  1  0
 31 80  1  0
 32 33  2  0
 32 81  1  0
 33 34  1  0
 33 82  1  0
 34 35  2  0
 34 83  1  0
 35 36  1  0
 36 37  1  0
 37 38  2  0
 37 60  1  0
 38 39  1  0
 38 84  1  0
 39 40  2  0
 39 85  1  0
 40 41  1  0
 40 59  1  0
 41 42  2  0
 41 58  1  0
 42 43  1  0
 43 44  1  0
 43 50  2  0
 44 45  2  0
 44 49  1  0
 45 46  1  0
 45 86  1  0
 46 47  2  0
 46 87  1  0
 47 48  1  0
 47 88  1  0
 48 49  2  0
 48 89  1  0
 49 90  1  0
 50 51  1  0
 51 52  1  0
 51 58  2  0
 52 53  2  0
 52 57  1  0
 53 54  1  0
 53 91  1  0
 54 55  2  0
 54 92  1  0
 55 56  1  0
 55 93  1  0
 56 57  2  0
 56 94  1  0
 57 95  1  0
 59 60  2  0
 59 96  1  0
 60 97  1  0
 61 62  2  0
 61 98  1  0
 62 99  1  0
M  END

