
     RDKit          3D

 57 62  0  0  0  0  0  0  0  0999 V2000
    4.4560   -0.3665    2.1859 O   0  0  0  0  0  0  0  0  0  0  0  0
    4.9167   -0.1711    1.0750 C   0  0  0  0  0  0  0  0  0  0  0  0
    6.3768   -0.4027    0.8133 C   0  0  0  0  0  0  0  0  0  0  0  0
    7.1283   -1.0473    1.8103 C   0  0  0  0  0  0  0  0  0  0  0  0
    8.4731   -1.3505    1.6054 C   0  0  0  0  0  0  0  0  0  0  0  0
    9.0915   -1.0226    0.3927 C   0  0  0  0  0  0  0  0  0  0  0  0
    8.3667   -0.3764   -0.6105 C   0  0  0  0  0  0  0  0  0  0  0  0
    7.0224   -0.0706   -0.3904 C   0  0  0  0  0  0  0  0  0  0  0  0
    6.2102    0.9245   -1.6425 S   0  0  2  0  0  0  0  0  0  0  0  0
    6.5712    0.4089   -2.9698 O   0  0  0  0  0  0  0  0  0  0  0  0
    6.4637    2.3349   -1.3209 O   0  0  0  0  0  0  0  0  0  0  0  0
    4.4809    0.5885   -1.3356 C   0  0  0  0  0  0  0  0  0  0  0  0
    3.5880    0.8544   -2.3747 C   0  0  0  0  0  0  0  0  0  0  0  0
    2.2174    0.7570   -2.1455 C   0  0  0  0  0  0  0  0  0  0  0  0
    1.7080    0.3989   -0.8790 C   0  0  0  0  0  0  0  0  0  0  0  0
    0.2480    0.3024   -0.6350 C   0  0  0  0  0  0  0  0  0  0  0  0
   -0.3056    0.6065    0.6238 C   0  0  0  0  0  0  0  0  0  0  0  0
   -1.6739    0.5172    0.8607 C   0  0  0  0  0  0  0  0  0  0  0  0
   -2.5592    0.1224   -0.1621 C   0  0  0  0  0  0  0  0  0  0  0  0
   -3.9482    0.0346    0.0719 N   0  0  0  0  0  0  0  0  0  0  0  0
   -4.7228   -0.9799   -0.5576 C   0  0  0  0  0  0  0  0  0  0  0  0
   -4.2673   -2.3100   -0.5961 C   0  0  0  0  0  0  0  0  0  0  0  0
   -5.0318   -3.2994   -1.2166 C   0  0  0  0  0  0  0  0  0  0  0  0
   -6.2677   -2.9863   -1.7918 C   0  0  0  0  0  0  0  0  0  0  0  0
   -6.7290   -1.6669   -1.7461 C   0  0  0  0  0  0  0  0  0  0  0  0
   -5.9630   -0.6681   -1.1423 C   0  0  0  0  0  0  0  0  0  0  0  0
   -4.5924    0.9610    0.9397 C   0  0  0  0  0  0  0  0  0  0  0  0
   -5.5245    0.5133    1.8924 C   0  0  0  0  0  0  0  0  0  0  0  0
   -6.1671    1.4244    2.7324 C   0  0  0  0  0  0  0  0  0  0  0  0
   -5.8817    2.7910    2.6493 C   0  0  0  0  0  0  0  0  0  0  0  0
   -4.9502    3.2396    1.7073 C   0  0  0  0  0  0  0  0  0  0  0  0
   -4.3157    2.3371    0.8520 C   0  0  0  0  0  0  0  0  0  0  0  0
   -2.0146   -0.1816   -1.4256 C   0  0  0  0  0  0  0  0  0  0  0  0
   -0.6437   -0.0957   -1.6496 C   0  0  0  0  0  0  0  0  0  0  0  0
    2.6336    0.1274    0.1430 C   0  0  0  0  0  0  0  0  0  0  0  0
    4.0168    0.2165   -0.0621 C   0  0  0  0  0  0  0  0  0  0  0  0
    6.6202   -1.3065    2.7408 H   0  0  0  0  0  0  0  0  0  0  0  0
    9.0430   -1.8529    2.3906 H   0  0  0  0  0  0  0  0  0  0  0  0
   10.1424   -1.2715    0.2264 H   0  0  0  0  0  0  0  0  0  0  0  0
    8.8291   -0.1142   -1.5644 H   0  0  0  0  0  0  0  0  0  0  0  0
    3.9723    1.1384   -3.3566 H   0  0  0  0  0  0  0  0  0  0  0  0
    1.5287    0.9863   -2.9610 H   0  0  0  0  0  0  0  0  0  0  0  0
    0.3452    0.9330    1.4380 H   0  0  0  0  0  0  0  0  0  0  0  0
   -2.0664    0.7592    1.8495 H   0  0  0  0  0  0  0  0  0  0  0  0
   -3.3107   -2.5638   -0.1351 H   0  0  0  0  0  0  0  0  0  0  0  0
   -4.6628   -4.3282   -1.2372 H   0  0  0  0  0  0  0  0  0  0  0  0
   -6.8668   -3.7645   -2.2705 H   0  0  0  0  0  0  0  0  0  0  0  0
   -7.6909   -1.4070   -2.1958 H   0  0  0  0  0  0  0  0  0  0  0  0
   -6.3225    0.3624   -1.1195 H   0  0  0  0  0  0  0  0  0  0  0  0
   -5.7420   -0.5537    1.9695 H   0  0  0  0  0  0  0  0  0  0  0  0
   -6.8889    1.0593    3.4677 H   0  0  0  0  0  0  0  0  0  0  0  0
   -6.3815    3.5008    3.3126 H   0  0  0  0  0  0  0  0  0  0  0  0
   -4.7235    4.3059    1.6257 H   0  0  0  0  0  0  0  0  0  0  0  0
   -3.6009    2.6952    0.1085 H   0  0  0  0  0  0  0  0  0  0  0  0
   -2.6751   -0.4922   -2.2366 H   0  0  0  0  0  0  0  0  0  0  0  0
   -0.2601   -0.3596   -2.6378 H   0  0  0  0  0  0  0  0  0  0  0  0
    2.3002   -0.1914    1.1314 H   0  0  0  0  0  0  0  0  0  0  0  0
  1  2  2  0
  2  3  1  0
  2 36  1  0
  3  4  1  0
  3  8  2  0
  4  5  2  0
  4 37  1  0
  5  6  1  0
  5 38  1  0
  6  7  2  0
  6 39  1  0
  7  8  1  0
  7 40  1  0
  9  8  1  1
  9 10  2  0
  9 11  2  0
  9 12  1  0
 12 13  1  0
 12 36  2  0
 13 14  2  0
 13 41  1  0
 14 15  1  0
 14 42  1  0
 15 16  1  0
 15 35  2  0
 16 17  2  0
 16 34  1  0
 17 18  1  0
 17 43  1  0
 18 19  2  0
 18 44  1  0
 19 20  1  0
 19 33  1  0
 20 21  1  0
 20 27  1  0
 21 22  2  0
 21 26  1  0
 22 23  1  0
 22 45  1  0
 23 24  2  0
 23 46  1  0
 24 25  1  0
 24 47  1  0
 25 26  2  0
 25 48  1  0
 26 49  1  0
 27 28  2  0
 27 32  1  0
 28 29  1  0
 28 50  1  0
 29 30  2  0
 29 51  1  0
 30 31  1  0
 30 52  1  0
 31 32  2  0
 31 53  1  0
 32 54  1  0
 33 34  2  0
 33 55  1  0
 34 56  1  0
 35 36  1  0
 35 57  1  0
M  END

