
     RDKit          3D

116129  0  0  0  0  0  0  0  0999 V2000
    8.8618   -1.8491    2.4018 C   0  0  0  0  0  0  0  0  0  0  0  0
    8.2096   -0.7860    3.3161 C   0  0  2  0  0  0  0  0  0  0  0  0
    8.8265    0.5995    3.0145 C   0  0  0  0  0  0  0  0  0  0  0  0
    8.5331   -1.1470    4.7775 C   0  0  0  0  0  0  0  0  0  0  0  0
    6.6907   -0.7420    3.0511 C   0  0  0  0  0  0  0  0  0  0  0  0
    5.7318   -1.0098    4.0495 C   0  0  0  0  0  0  0  0  0  0  0  0
    4.3697   -0.9591    3.7781 C   0  0  0  0  0  0  0  0  0  0  0  0
    3.9268   -0.6386    2.4900 C   0  0  0  0  0  0  0  0  0  0  0  0
    4.8348   -0.3628    1.4377 C   0  0  0  0  0  0  0  0  0  0  0  0
    6.2068   -0.4268    1.7772 C   0  0  0  0  0  0  0  0  0  0  0  0
    4.2287   -0.0195    0.0456 B   0  0  0  0  0  0  0  0  0  0  0  0
    4.8671    0.3167   -1.3338 C   0  0  0  0  0  0  0  0  0  0  0  0
    6.2464    0.3648   -1.6450 C   0  0  0  0  0  0  0  0  0  0  0  0
    6.7599    0.6736   -2.9088 C   0  0  0  0  0  0  0  0  0  0  0  0
    8.2844    0.6997   -3.1425 C   0  0  2  0  0  0  0  0  0  0  0  0
    8.9295    1.7576   -2.2174 C   0  0  0  0  0  0  0  0  0  0  0  0
    8.6421    1.0532   -4.5978 C   0  0  0  0  0  0  0  0  0  0  0  0
    8.8792   -0.6919   -2.8251 C   0  0  0  0  0  0  0  0  0  0  0  0
    5.8249    0.9518   -3.9268 C   0  0  0  0  0  0  0  0  0  0  0  0
    4.4571    0.9170   -3.6834 C   0  0  0  0  0  0  0  0  0  0  0  0
    3.9841    0.6021   -2.4046 C   0  0  0  0  0  0  0  0  0  0  0  0
    2.6190    0.5968   -2.2925 O   0  0  0  0  0  0  0  0  0  0  0  0
    1.9770    0.2994   -1.1391 C   0  0  0  0  0  0  0  0  0  0  0  0
    0.5800    0.3030   -1.1754 C   0  0  0  0  0  0  0  0  0  0  0  0
   -0.1234    0.0032    0.0004 C   0  0  0  0  0  0  0  0  0  0  0  0
   -1.5435    0.0101   -0.0145 N   0  0  0  0  0  0  0  0  0  0  0  0
   -2.3523    1.0739   -0.4251 C   0  0  0  0  0  0  0  0  0  0  0  0
   -1.9937    2.3534   -0.8686 C   0  0  0  0  0  0  0  0  0  0  0  0
   -3.0141    3.2465   -1.1880 C   0  0  0  0  0  0  0  0  0  0  0  0
   -4.3744    2.8803   -1.0861 C   0  0  0  0  0  0  0  0  0  0  0  0
   -5.3847    3.8213   -1.4317 N   0  0  0  0  0  0  0  0  0  0  0  0
   -6.3378    4.3546   -0.5606 C   0  0  0  0  0  0  0  0  0  0  0  0
   -6.5204    4.1221    0.8086 C   0  0  0  0  0  0  0  0  0  0  0  0
   -7.5540    4.8037    1.4524 C   0  0  0  0  0  0  0  0  0  0  0  0
   -8.3882    5.6993    0.7563 C   0  0  0  0  0  0  0  0  0  0  0  0
   -8.1973    5.9342   -0.6047 C   0  0  0  0  0  0  0  0  0  0  0  0
   -7.1652    5.2628   -1.2767 C   0  0  0  0  0  0  0  0  0  0  0  0
   -6.6842    5.2745   -2.6447 C   0  0  0  0  0  0  0  0  0  0  0  0
   -7.0832    5.9476   -3.8087 C   0  0  0  0  0  0  0  0  0  0  0  0
   -6.3947    5.7152   -4.9988 C   0  0  0  0  0  0  0  0  0  0  0  0
   -5.3148    4.8125   -5.0369 C   0  0  0  0  0  0  0  0  0  0  0  0
   -4.8969    4.1295   -3.8940 C   0  0  0  0  0  0  0  0  0  0  0  0
   -5.5857    4.3729   -2.6987 C   0  0  0  0  0  0  0  0  0  0  0  0
   -4.7274    1.6039   -0.6392 C   0  0  0  0  0  0  0  0  0  0  0  0
   -3.7163    0.6986   -0.2929 C   0  0  0  0  0  0  0  0  0  0  0  0
   -3.7282   -0.6585    0.2163 C   0  0  0  0  0  0  0  0  0  0  0  0
   -4.7548   -1.5544    0.5402 C   0  0  0  0  0  0  0  0  0  0  0  0
   -4.4234   -2.8341    0.9943 C   0  0  0  0  0  0  0  0  0  0  0  0
   -5.4496   -3.7659    1.3173 N   0  0  0  0  0  0  0  0  0  0  0  0
   -5.6832   -4.3161    2.5793 C   0  0  0  0  0  0  0  0  0  0  0  0
   -5.0185   -4.0796    3.7894 C   0  0  0  0  0  0  0  0  0  0  0  0
   -5.4675   -4.7592    4.9225 C   0  0  0  0  0  0  0  0  0  0  0  0
   -6.5546   -5.6519    4.8603 C   0  0  0  0  0  0  0  0  0  0  0  0
   -7.2190   -5.8774    3.6554 C   0  0  0  0  0  0  0  0  0  0  0  0
   -6.7885   -5.2076    2.5007 C   0  0  0  0  0  0  0  0  0  0  0  0
   -7.2395   -5.1909    1.1226 C   0  0  0  0  0  0  0  0  0  0  0  0
   -8.2628   -5.8524    0.4278 C   0  0  0  0  0  0  0  0  0  0  0  0
   -8.4218   -5.6153   -0.9368 C   0  0  0  0  0  0  0  0  0  0  0  0
   -7.5644   -4.7272   -1.6140 C   0  0  0  0  0  0  0  0  0  0  0  0
   -6.5388   -4.0555   -0.9475 C   0  0  0  0  0  0  0  0  0  0  0  0
   -6.3883   -4.2900    0.4253 C   0  0  0  0  0  0  0  0  0  0  0  0
   -3.0691   -3.2128    1.1257 C   0  0  0  0  0  0  0  0  0  0  0  0
   -2.0338   -2.3291    0.8291 C   0  0  0  0  0  0  0  0  0  0  0  0
   -2.3709   -1.0463    0.3782 C   0  0  0  0  0  0  0  0  0  0  0  0
    0.5523   -0.3034    1.1906 C   0  0  0  0  0  0  0  0  0  0  0  0
    1.9497   -0.3142    1.1834 C   0  0  0  0  0  0  0  0  0  0  0  0
    2.7009   -0.0112    0.0298 C   0  0  0  0  0  0  0  0  0  0  0  0
    2.5644   -0.6181    2.3498 O   0  0  0  0  0  0  0  0  0  0  0  0
    8.7060   -1.6255    1.3352 H   0  0  0  0  0  0  0  0  0  0  0  0
    9.9493   -1.8937    2.5768 H   0  0  0  0  0  0  0  0  0  0  0  0
    8.4439   -2.8494    2.5976 H   0  0  0  0  0  0  0  0  0  0  0  0
    8.6712    0.8999    1.9668 H   0  0  0  0  0  0  0  0  0  0  0  0
    9.9133    0.5861    3.1987 H   0  0  0  0  0  0  0  0  0  0  0  0
    8.3821    1.3783    3.6544 H   0  0  0  0  0  0  0  0  0  0  0  0
    9.6245   -1.1672    4.9233 H   0  0  0  0  0  0  0  0  0  0  0  0
    8.1462   -2.1410    5.0518 H   0  0  0  0  0  0  0  0  0  0  0  0
    8.1202   -0.4106    5.4849 H   0  0  0  0  0  0  0  0  0  0  0  0
    6.0440   -1.2624    5.0630 H   0  0  0  0  0  0  0  0  0  0  0  0
    3.6288   -1.1641    4.5532 H   0  0  0  0  0  0  0  0  0  0  0  0
    6.9321   -0.2135    0.9937 H   0  0  0  0  0  0  0  0  0  0  0  0
    6.9530    0.1438   -0.8467 H   0  0  0  0  0  0  0  0  0  0  0  0
    8.7491    1.5384   -1.1537 H   0  0  0  0  0  0  0  0  0  0  0  0
   10.0209    1.7896   -2.3699 H   0  0  0  0  0  0  0  0  0  0  0  0
    8.5271    2.7621   -2.4240 H   0  0  0  0  0  0  0  0  0  0  0  0
    8.2349    0.3202   -5.3119 H   0  0  0  0  0  0  0  0  0  0  0  0
    8.2730    2.0512   -4.8822 H   0  0  0  0  0  0  0  0  0  0  0  0
    9.7364    1.0599   -4.7212 H   0  0  0  0  0  0  0  0  0  0  0  0
    8.4394   -1.4673   -3.4723 H   0  0  0  0  0  0  0  0  0  0  0  0
    9.9697   -0.6912   -2.9868 H   0  0  0  0  0  0  0  0  0  0  0  0
    8.6989   -0.9880   -1.7802 H   0  0  0  0  0  0  0  0  0  0  0  0
    6.1607    1.2002   -4.9338 H   0  0  0  0  0  0  0  0  0  0  0  0
    3.7346    1.1300   -4.4737 H   0  0  0  0  0  0  0  0  0  0  0  0
    0.0601    0.5175   -2.1086 H   0  0  0  0  0  0  0  0  0  0  0  0
   -0.9490    2.6555   -0.9487 H   0  0  0  0  0  0  0  0  0  0  0  0
   -2.7659    4.2569   -1.5186 H   0  0  0  0  0  0  0  0  0  0  0  0
   -5.8751    3.4332    1.3562 H   0  0  0  0  0  0  0  0  0  0  0  0
   -7.7164    4.6379    2.5205 H   0  0  0  0  0  0  0  0  0  0  0  0
   -9.1895    6.2154    1.2904 H   0  0  0  0  0  0  0  0  0  0  0  0
   -8.8420    6.6346   -1.1418 H   0  0  0  0  0  0  0  0  0  0  0  0
   -7.9255    6.6437   -3.7830 H   0  0  0  0  0  0  0  0  0  0  0  0
   -6.6960    6.2341   -5.9119 H   0  0  0  0  0  0  0  0  0  0  0  0
   -4.7926    4.6393   -5.9815 H   0  0  0  0  0  0  0  0  0  0  0  0
   -4.0626    3.4269   -3.9325 H   0  0  0  0  0  0  0  0  0  0  0  0
   -5.7809    1.3269   -0.5649 H   0  0  0  0  0  0  0  0  0  0  0  0
   -5.8038   -1.2678    0.4430 H   0  0  0  0  0  0  0  0  0  0  0  0
   -4.1788   -3.3848    3.8465 H   0  0  0  0  0  0  0  0  0  0  0  0
   -4.9644   -4.5912    5.8783 H   0  0  0  0  0  0  0  0  0  0  0  0
   -6.8804   -6.1684    5.7663 H   0  0  0  0  0  0  0  0  0  0  0  0
   -8.0670   -6.5657    3.6108 H   0  0  0  0  0  0  0  0  0  0  0  0
   -8.9256   -6.5470    0.9504 H   0  0  0  0  0  0  0  0  0  0  0  0
   -9.2160   -6.1238   -1.4886 H   0  0  0  0  0  0  0  0  0  0  0  0
   -7.7019   -4.5595   -2.6854 H   0  0  0  0  0  0  0  0  0  0  0  0
   -5.8754   -3.3723   -1.4805 H   0  0  0  0  0  0  0  0  0  0  0  0
   -2.8375   -4.2255    1.4614 H   0  0  0  0  0  0  0  0  0  0  0  0
   -0.9939   -2.6408    0.9319 H   0  0  0  0  0  0  0  0  0  0  0  0
    0.0109   -0.5126    2.1127 H   0  0  0  0  0  0  0  0  0  0  0  0
  2  1  1  6
  1 69  1  0
  1 70  1  0
  1 71  1  0
  2  3  1  0
  2  4  1  0
  2  5  1  0
  3 72  1  0
  3 73  1  0
  3 74  1  0
  4 75  1  0
  4 76  1  0
  4 77  1  0
  5  6  2  0
  5 10  1  0
  6  7  1  0
  6 78  1  0
  7  8  2  0
  7 79  1  0
  8  9  1  0
  8 68  1  0
  9 10  2  0
  9 11  1  0
 10 80  1  0
 11 12  1  0
 11 67  1  0
 12 13  2  0
 12 21  1  0
 13 14  1  0
 13 81  1  0
 14 15  1  0
 14 19  2  0
 15 16  1  1
 15 17  1  0
 15 18  1  0
 16 82  1  0
 16 83  1  0
 16 84  1  0
 17 85  1  0
 17 86  1  0
 17 87  1  0
 18 88  1  0
 18 89  1  0
 18 90  1  0
 19 20  1  0
 19 91  1  0
 20 21  2  0
 20 92  1  0
 21 22  1  0
 22 23  1  0
 23 24  1  0
 23 67  2  0
 24 25  2  0
 24 93  1  0
 25 26  1  0
 25 65  1  0
 26 27  1  0
 26 64  1  0
 27 28  2  0
 27 45  1  0
 28 29  1  0
 28 94  1  0
 29 30  2  0
 29 95  1  0
 30 31  1  0
 30 44  1  0
 31 32  1  0
 31 43  1  0
 32 33  2  0
 32 37  1  0
 33 34  1  0
 33 96  1  0
 34 35  2  0
 34 97  1  0
 35 36  1  0
 35 98  1  0
 36 37  2  0
 36 99  1  0
 37 38  1  0
 38 39  1  0
 38 43  2  0
 39 40  2  0
 39100  1  0
 40 41  1  0
 40101  1  0
 41 42  2  0
 41102  1  0
 42 43  1  0
 42103  1  0
 44 45  2  0
 44104  1  0
 45 46  1  0
 46 47  1  0
 46 64  2  0
 47 48  2  0
 47105  1  0
 48 49  1  0
 48 62  1  0
 49 50  1  0
 49 61  1  0
 50 51  2  0
 50 55  1  0
 51 52  1  0
 51106  1  0
 52 53  2  0
 52107  1  0
 53 54  1  0
 53108  1  0
 54 55  2  0
 54109  1  0
 55 56  1  0
 56 57  1  0
 56 61  2  0
 57 58  2  0
 57110  1  0
 58 59  1  0
 58111  1  0
 59 60  2  0
 59112  1  0
 60 61  1  0
 60113  1  0
 62 63  2  0
 62114  1  0
 63 64  1  0
 63115  1  0
 65 66  2  0
 65116  1  0
 66 67  1  0
 66 68  1  0
M  END

