
     RDKit          3D

 73 74  0  0  0  0  0  0  0  0999 V2000
   13.1728   -7.6115   -8.4786 C   0  0  0  0  0  0  0  0  0  0  0  0
   12.9144   -6.6499   -7.3277 C   0  0  0  0  0  0  0  0  0  0  0  0
   12.1860   -5.6787   -7.4493 O   0  0  0  0  0  0  0  0  0  0  0  0
   13.5474   -6.9488   -6.1530 N   0  0  0  0  0  0  0  0  0  0  0  0
   13.4279   -6.1025   -4.9783 C   0  0  0  0  0  0  0  0  0  0  0  0
   14.4134   -4.9265   -4.9627 C   0  0  0  0  0  0  0  0  0  0  0  0
   14.2962   -4.0753   -3.7083 C   0  0  0  0  0  0  0  0  0  0  0  0
   14.6063   -4.8659   -2.5801 O   0  0  0  0  0  0  0  0  0  0  0  0
   14.5077   -4.1900   -1.3528 C   0  0  0  0  0  0  0  0  0  0  0  0
   14.8809   -5.1609   -0.2453 C   0  0  0  0  0  0  0  0  0  0  0  0
   14.7873   -4.4813    0.9806 O   0  0  0  0  0  0  0  0  0  0  0  0
   15.1070   -5.2608    2.1046 C   0  0  0  0  0  0  0  0  0  0  0  0
   14.9621   -4.3883    3.3401 C   0  0  0  0  0  0  0  0  0  0  0  0
   15.2688   -5.1692    4.4670 O   0  0  0  0  0  0  0  0  0  0  0  0
   15.1676   -4.4833    5.6969 C   0  0  0  0  0  0  0  0  0  0  0  0
   15.5504   -5.4258    6.8271 C   0  0  0  0  0  0  0  0  0  0  0  0
   17.0010   -5.9151    6.7265 C   0  0  0  0  0  0  0  0  0  0  0  0
   17.3764   -6.8472    7.7768 N   0  0  0  0  0  0  0  0  0  0  0  0
   17.8116   -6.4263    9.0012 C   0  0  0  0  0  0  0  0  0  0  0  0
   17.9309   -5.2396    9.2763 O   0  0  0  0  0  0  0  0  0  0  0  0
   18.1875   -7.5305    9.9845 C   0  0  0  0  0  0  0  0  0  0  0  0
   19.7109   -7.6947   10.1571 C   0  0  0  0  0  0  0  0  0  0  0  0
   20.4102   -6.4661   10.7471 C   0  0  0  0  0  0  0  0  0  0  0  0
   21.9103   -6.6805   10.9522 C   0  0  0  0  0  0  0  0  0  0  0  0
   22.7241   -5.5610   11.6191 C   0  0  2  0  0  0  0  0  0  0  0  0
   23.7490   -5.9395   11.7502 H   0  0  0  0  0  0  0  0  0  0  0  0
   22.1484   -5.0936   13.3578 S   0  0  0  0  0  0  0  0  0  0  0  0
   21.7054   -3.3257   12.9441 C   0  0  0  0  0  0  0  0  0  0  0  0
   21.5705   -3.3752   11.4323 C   0  0  1  0  0  0  0  0  0  0  0  0
   20.6464   -3.9292   11.1950 H   0  0  0  0  0  0  0  0  0  0  0  0
   21.6975   -2.2139   10.5665 N   0  0  0  0  0  0  0  0  0  0  0  0
   22.2150   -2.6455    9.3353 C   0  0  0  0  0  0  0  0  0  0  0  0
   22.2438   -2.0153    8.3046 O   0  0  0  0  0  0  0  0  0  0  0  0
   22.7043   -3.9506    9.5278 N   0  0  0  0  0  0  0  0  0  0  0  0
   22.7814   -4.1813   10.9586 C   0  0  2  0  0  0  0  0  0  0  0  0
   23.6779   -3.6770   11.3766 H   0  0  0  0  0  0  0  0  0  0  0  0
   12.2043   -7.9543   -8.8719 H   0  0  0  0  0  0  0  0  0  0  0  0
   13.7823   -8.4858   -8.2056 H   0  0  0  0  0  0  0  0  0  0  0  0
   13.6744   -7.0635   -9.2912 H   0  0  0  0  0  0  0  0  0  0  0  0
   14.1838   -7.7350   -6.1234 H   0  0  0  0  0  0  0  0  0  0  0  0
   13.5752   -6.7199   -4.0799 H   0  0  0  0  0  0  0  0  0  0  0  0
   12.3982   -5.7128   -4.9556 H   0  0  0  0  0  0  0  0  0  0  0  0
   14.2257   -4.2902   -5.8425 H   0  0  0  0  0  0  0  0  0  0  0  0
   15.4472   -5.3055   -5.0425 H   0  0  0  0  0  0  0  0  0  0  0  0
   13.2683   -3.6642   -3.6166 H   0  0  0  0  0  0  0  0  0  0  0  0
   14.9837   -3.2065   -3.7695 H   0  0  0  0  0  0  0  0  0  0  0  0
   13.4799   -3.8098   -1.1800 H   0  0  0  0  0  0  0  0  0  0  0  0
   15.1874   -3.3138   -1.3177 H   0  0  0  0  0  0  0  0  0  0  0  0
   15.9082   -5.5421   -0.4194 H   0  0  0  0  0  0  0  0  0  0  0  0
   14.1998   -6.0364   -0.2748 H   0  0  0  0  0  0  0  0  0  0  0  0
   16.1444   -5.6496    2.0448 H   0  0  0  0  0  0  0  0  0  0  0  0
   14.4349   -6.1392    2.1925 H   0  0  0  0  0  0  0  0  0  0  0  0
   13.9265   -3.9938    3.3915 H   0  0  0  0  0  0  0  0  0  0  0  0
   15.6387   -3.5134    3.2563 H   0  0  0  0  0  0  0  0  0  0  0  0
   14.1335   -4.1091    5.8447 H   0  0  0  0  0  0  0  0  0  0  0  0
   15.8330   -3.5939    5.6953 H   0  0  0  0  0  0  0  0  0  0  0  0
   14.8640   -6.2904    6.8200 H   0  0  0  0  0  0  0  0  0  0  0  0
   15.4136   -4.9032    7.7875 H   0  0  0  0  0  0  0  0  0  0  0  0
   17.6813   -5.0518    6.7922 H   0  0  0  0  0  0  0  0  0  0  0  0
   17.1612   -6.3980    5.7513 H   0  0  0  0  0  0  0  0  0  0  0  0
   17.2366   -7.8375    7.6211 H   0  0  0  0  0  0  0  0  0  0  0  0
   17.7456   -8.4929    9.6768 H   0  0  0  0  0  0  0  0  0  0  0  0
   17.7377   -7.2586   10.9532 H   0  0  0  0  0  0  0  0  0  0  0  0
   20.1599   -7.9465    9.1786 H   0  0  0  0  0  0  0  0  0  0  0  0
   19.8886   -8.5700   10.8073 H   0  0  0  0  0  0  0  0  0  0  0  0
   19.9455   -6.2145   11.7156 H   0  0  0  0  0  0  0  0  0  0  0  0
   20.2335   -5.6093   10.0830 H   0  0  0  0  0  0  0  0  0  0  0  0
   22.3874   -6.8794    9.9738 H   0  0  0  0  0  0  0  0  0  0  0  0
   22.0672   -7.5971   11.5492 H   0  0  0  0  0  0  0  0  0  0  0  0
   22.5053   -2.6429   13.2679 H   0  0  0  0  0  0  0  0  0  0  0  0
   20.7725   -3.0743   13.4678 H   0  0  0  0  0  0  0  0  0  0  0  0
   20.9548   -1.5245   10.5039 H   0  0  0  0  0  0  0  0  0  0  0  0
   23.4649   -4.2182    8.9109 H   0  0  0  0  0  0  0  0  0  0  0  0
  1  2  1  0
  1 37  1  0
  1 38  1  0
  1 39  1  0
  2  3  2  0
  2  4  1  0
  4  5  1  0
  4 40  1  0
  5  6  1  0
  5 41  1  0
  5 42  1  0
  6  7  1  0
  6 43  1  0
  6 44  1  0
  7  8  1  0
  7 45  1  0
  7 46  1  0
  8  9  1  0
  9 10  1  0
  9 47  1  0
  9 48  1  0
 10 11  1  0
 10 49  1  0
 10 50  1  0
 11 12  1  0
 12 13  1  0
 12 51  1  0
 12 52  1  0
 13 14  1  0
 13 53  1  0
 13 54  1  0
 14 15  1  0
 15 16  1  0
 15 55  1  0
 15 56  1  0
 16 17  1  0
 16 57  1  0
 16 58  1  0
 17 18  1  0
 17 59  1  0
 17 60  1  0
 18 19  1  0
 18 61  1  0
 19 20  2  0
 19 21  1  0
 21 22  1  0
 21 62  1  0
 21 63  1  0
 22 23  1  0
 22 64  1  0
 22 65  1  0
 23 24  1  0
 23 66  1  0
 23 67  1  0
 24 25  1  0
 24 68  1  0
 24 69  1  0
 25 26  1  1
 25 27  1  0
 25 35  1  0
 27 28  1  0
 28 29  1  0
 28 70  1  0
 28 71  1  0
 29 30  1  1
 29 31  1  0
 29 35  1  0
 31 32  1  0
 31 72  1  0
 32 33  2  0
 32 34  1  0
 34 35  1  0
 34 73  1  0
 35 36  1  1
M  END

