
     RDKit          3D

 53 57  0  0  0  0  0  0  0  0999 V2000
    1.1477   -0.2980   -0.1149 C   0  0  0  0  0  0  0  0  0  0  0  0
    2.6403   -0.1028   -0.0634 C   0  0  0  0  0  0  0  0  0  0  0  0
    3.3775   -1.1928   -0.0576 N   0  0  0  0  0  0  0  0  0  0  0  0
    4.7088   -1.0087    0.0173 C   0  0  0  0  0  0  0  0  0  0  0  0
    5.3670    0.2241    0.1066 C   0  0  0  0  0  0  0  0  0  0  0  0
    4.5899    1.4307    0.1212 C   0  0  0  0  0  0  0  0  0  0  0  0
    4.9720    2.5802    0.2186 O   0  0  0  0  0  0  0  0  0  0  0  0
    3.1614    1.1629   -0.0034 N   0  0  0  0  0  0  0  0  0  0  0  0
    2.3249    2.3764   -0.0169 C   0  0  0  0  0  0  0  0  0  0  0  0
    2.3409    3.1551   -1.3487 C   0  0  1  0  0  0  0  0  0  0  0  0
    1.7986    2.3507   -2.5346 C   0  0  0  0  0  0  0  0  0  0  0  0
    1.5717    4.4691   -1.1657 C   0  0  0  0  0  0  0  0  0  0  0  0
    6.7792   -0.0648    0.1641 C   0  0  0  0  0  0  0  0  0  0  0  0
    7.8489    0.6922    0.2463 N   0  0  0  0  0  0  0  0  0  0  0  0
    9.0413    0.0347    0.2676 C   0  0  0  0  0  0  0  0  0  0  0  0
   10.2448    0.7890    0.3564 C   0  0  0  0  0  0  0  0  0  0  0  0
   11.4703    0.1582    0.3783 C   0  0  0  0  0  0  0  0  0  0  0  0
   11.5511   -1.2575    0.3123 C   0  0  0  0  0  0  0  0  0  0  0  0
   10.4062   -2.0225    0.2267 C   0  0  0  0  0  0  0  0  0  0  0  0
    9.1270   -1.4058    0.2028 C   0  0  0  0  0  0  0  0  0  0  0  0
    8.0049   -2.1810    0.1205 N   0  0  0  0  0  0  0  0  0  0  0  0
    6.8852   -1.5142    0.1016 C   0  0  0  0  0  0  0  0  0  0  0  0
    5.6118   -2.0526    0.0092 N   0  0  0  0  0  0  0  0  0  0  0  0
    5.2900   -3.4768   -0.0458 C   0  0  0  0  0  0  0  0  0  0  0  0
    5.1275   -4.1223    1.3180 C   0  0  0  0  0  0  0  0  0  0  0  0
    3.8634   -4.2175    1.9180 C   0  0  0  0  0  0  0  0  0  0  0  0
    3.7065   -4.8037    3.1758 C   0  0  0  0  0  0  0  0  0  0  0  0
    4.8300   -5.2985    3.8438 C   0  0  0  0  0  0  0  0  0  0  0  0
    4.6431   -6.0378    5.4185 Cl  0  0  0  0  0  0  0  0  0  0  0  0
    6.1007   -5.2100    3.2680 C   0  0  0  0  0  0  0  0  0  0  0  0
    6.2415   -4.6226    2.0092 C   0  0  0  0  0  0  0  0  0  0  0  0
    0.9536   -1.3732   -0.1987 H   0  0  0  0  0  0  0  0  0  0  0  0
    0.6899    0.2178   -0.9706 H   0  0  0  0  0  0  0  0  0  0  0  0
    0.6628    0.0780    0.8008 H   0  0  0  0  0  0  0  0  0  0  0  0
    2.7227    3.0333    0.7685 H   0  0  0  0  0  0  0  0  0  0  0  0
    1.2979    2.1052    0.2567 H   0  0  0  0  0  0  0  0  0  0  0  0
    3.3947    3.4060   -1.5488 H   0  0  0  0  0  0  0  0  0  0  0  0
    0.7255    2.1207   -2.4127 H   0  0  0  0  0  0  0  0  0  0  0  0
    2.3402    1.4016   -2.6747 H   0  0  0  0  0  0  0  0  0  0  0  0
    1.9033    2.9238   -3.4695 H   0  0  0  0  0  0  0  0  0  0  0  0
    0.5100    4.2840   -0.9247 H   0  0  0  0  0  0  0  0  0  0  0  0
    1.6008    5.0720   -2.0868 H   0  0  0  0  0  0  0  0  0  0  0  0
    2.0005    5.0786   -0.3544 H   0  0  0  0  0  0  0  0  0  0  0  0
   10.1509    1.8757    0.4054 H   0  0  0  0  0  0  0  0  0  0  0  0
   12.3879    0.7480    0.4466 H   0  0  0  0  0  0  0  0  0  0  0  0
   12.5303   -1.7428    0.3298 H   0  0  0  0  0  0  0  0  0  0  0  0
   10.4460   -3.1126    0.1739 H   0  0  0  0  0  0  0  0  0  0  0  0
    6.1055   -3.9615   -0.6006 H   0  0  0  0  0  0  0  0  0  0  0  0
    4.3628   -3.5733   -0.6259 H   0  0  0  0  0  0  0  0  0  0  0  0
    2.9898   -3.8195    1.3957 H   0  0  0  0  0  0  0  0  0  0  0  0
    2.7217   -4.8805    3.6398 H   0  0  0  0  0  0  0  0  0  0  0  0
    6.9678   -5.5998    3.8038 H   0  0  0  0  0  0  0  0  0  0  0  0
    7.2336   -4.5395    1.5583 H   0  0  0  0  0  0  0  0  0  0  0  0
  1  2  1  0
  1 32  1  0
  1 33  1  0
  1 34  1  0
  2  3  2  0
  2  8  1  0
  3  4  1  0
  4  5  2  0
  4 23  1  0
  5  6  1  0
  5 13  1  0
  6  7  2  0
  6  8  1  0
  8  9  1  0
  9 10  1  0
  9 35  1  0
  9 36  1  0
 10 11  1  0
 10 12  1  0
 10 37  1  6
 11 38  1  0
 11 39  1  0
 11 40  1  0
 12 41  1  0
 12 42  1  0
 12 43  1  0
 13 14  2  0
 13 22  1  0
 14 15  1  0
 15 16  2  0
 15 20  1  0
 16 17  1  0
 16 44  1  0
 17 18  2  0
 17 45  1  0
 18 19  1  0
 18 46  1  0
 19 20  2  0
 19 47  1  0
 20 21  1  0
 21 22  2  0
 22 23  1  0
 23 24  1  0
 24 25  1  0
 24 48  1  0
 24 49  1  0
 25 26  2  0
 25 31  1  0
 26 27  1  0
 26 50  1  0
 27 28  2  0
 27 51  1  0
 28 29  1  0
 28 30  1  0
 30 31  2  0
 30 52  1  0
 31 53  1  0
M  END

