
     RDKit          3D

 52 55  0  0  0  0  0  0  0  0999 V2000
    5.4584    1.1826   -0.8538 C   0  0  0  0  0  0  0  0  0  0  0  0
    4.2160    1.0191    0.0065 C   0  0  0  0  0  0  0  0  0  0  0  0
    4.4990    0.3002    1.2225 O   0  0  0  0  0  0  0  0  0  0  0  0
    4.5410   -1.0386    1.1593 C   0  0  0  0  0  0  0  0  0  0  0  0
    4.2536   -1.6795    0.1698 O   0  0  0  0  0  0  0  0  0  0  0  0
    4.9173   -1.6524    2.4471 C   0  0  0  0  0  0  0  0  0  0  0  0
    5.3790   -1.0848    3.6764 C   0  0  0  0  0  0  0  0  0  0  0  0
    5.7547    0.3034    4.0016 C   0  0  0  0  0  0  0  0  0  0  0  0
    5.3194    0.9083    5.1415 C   0  0  0  0  0  0  0  0  0  0  0  0
    5.7109    2.2516    5.4790 C   0  0  0  0  0  0  0  0  0  0  0  0
    5.2807    2.9347    6.6357 C   0  0  0  0  0  0  0  0  0  0  0  0
    5.6876    4.2416    6.8775 C   0  0  0  0  0  0  0  0  0  0  0  0
    6.5333    4.8919    5.9620 C   0  0  0  0  0  0  0  0  0  0  0  0
    6.9726    4.2402    4.8117 C   0  0  0  0  0  0  0  0  0  0  0  0
    6.5609    2.9240    4.5766 C   0  0  0  0  0  0  0  0  0  0  0  0
    7.0084    2.3066    3.4538 O   0  0  0  0  0  0  0  0  0  0  0  0
    6.7065    0.9970    3.1117 C   0  0  0  0  0  0  0  0  0  0  0  0
    7.2434    0.5326    2.1419 O   0  0  0  0  0  0  0  0  0  0  0  0
    5.4539   -2.0157    4.6213 N   0  0  0  0  0  0  0  0  0  0  0  0
    5.0621   -3.1723    4.0451 N   0  0  0  0  0  0  0  0  0  0  0  0
    5.0561   -4.3720    4.8168 C   0  0  0  0  0  0  0  0  0  0  0  0
    4.6583   -4.3139    6.1585 C   0  0  0  0  0  0  0  0  0  0  0  0
    4.6543   -5.4801    6.9239 C   0  0  0  0  0  0  0  0  0  0  0  0
    5.0386   -6.7006    6.3580 C   0  0  0  0  0  0  0  0  0  0  0  0
    5.4419   -6.7473    5.0211 C   0  0  0  0  0  0  0  0  0  0  0  0
    5.4631   -5.5843    4.2471 C   0  0  0  0  0  0  0  0  0  0  0  0
    4.7352   -3.0013    2.7334 C   0  0  0  0  0  0  0  0  0  0  0  0
    4.1181   -4.0665    1.8684 C   0  0  0  0  0  0  0  0  0  0  0  0
    2.9654   -4.3998    1.9693 O   0  0  0  0  0  0  0  0  0  0  0  0
    5.0091   -4.5798    1.0166 O   0  0  0  0  0  0  0  0  0  0  0  0
    4.5261   -5.5090    0.0189 C   0  0  0  0  0  0  0  0  0  0  0  0
    4.0690   -4.7784   -1.2310 C   0  0  0  0  0  0  0  0  0  0  0  0
    5.2285    1.8254   -1.7190 H   0  0  0  0  0  0  0  0  0  0  0  0
    5.8014    0.2084   -1.2313 H   0  0  0  0  0  0  0  0  0  0  0  0
    6.2770    1.6392   -0.2781 H   0  0  0  0  0  0  0  0  0  0  0  0
    3.4193    0.4920   -0.5394 H   0  0  0  0  0  0  0  0  0  0  0  0
    3.8335    1.9918    0.3480 H   0  0  0  0  0  0  0  0  0  0  0  0
    4.6464    0.3675    5.8115 H   0  0  0  0  0  0  0  0  0  0  0  0
    4.6212    2.4186    7.3383 H   0  0  0  0  0  0  0  0  0  0  0  0
    5.3511    4.7633    7.7759 H   0  0  0  0  0  0  0  0  0  0  0  0
    6.8528    5.9194    6.1520 H   0  0  0  0  0  0  0  0  0  0  0  0
    7.6314    4.7243    4.0887 H   0  0  0  0  0  0  0  0  0  0  0  0
    4.3624   -3.3551    6.5843 H   0  0  0  0  0  0  0  0  0  0  0  0
    4.3423   -5.4351    7.9702 H   0  0  0  0  0  0  0  0  0  0  0  0
    5.0293   -7.6120    6.9605 H   0  0  0  0  0  0  0  0  0  0  0  0
    5.7592   -7.6933    4.5758 H   0  0  0  0  0  0  0  0  0  0  0  0
    5.8152   -5.6142    3.2153 H   0  0  0  0  0  0  0  0  0  0  0  0
    3.7136   -6.1072    0.4565 H   0  0  0  0  0  0  0  0  0  0  0  0
    5.3858   -6.1627   -0.1871 H   0  0  0  0  0  0  0  0  0  0  0  0
    3.2123   -4.1252   -1.0140 H   0  0  0  0  0  0  0  0  0  0  0  0
    3.7689   -5.5119   -1.9968 H   0  0  0  0  0  0  0  0  0  0  0  0
    4.8774   -4.1530   -1.6370 H   0  0  0  0  0  0  0  0  0  0  0  0
  1  2  1  0
  1 33  1  0
  1 34  1  0
  1 35  1  0
  2  3  1  0
  2 36  1  0
  2 37  1  0
  3  4  1  0
  4  5  2  0
  4  6  1  0
  6  7  1  0
  6 27  2  0
  7  8  1  0
  7 19  2  0
  8  9  2  0
  8 17  1  0
  9 10  1  0
  9 38  1  0
 10 11  2  0
 10 15  1  0
 11 12  1  0
 11 39  1  0
 12 13  2  0
 12 40  1  0
 13 14  1  0
 13 41  1  0
 14 15  2  0
 14 42  1  0
 15 16  1  0
 16 17  1  0
 17 18  2  0
 19 20  1  0
 20 21  1  0
 20 27  1  0
 21 22  2  0
 21 26  1  0
 22 23  1  0
 22 43  1  0
 23 24  2  0
 23 44  1  0
 24 25  1  0
 24 45  1  0
 25 26  2  0
 25 46  1  0
 26 47  1  0
 27 28  1  0
 28 29  2  0
 28 30  1  0
 30 31  1  0
 31 32  1  0
 31 48  1  0
 31 49  1  0
 32 50  1  0
 32 51  1  0
 32 52  1  0
M  END

