
     RDKit          3D

 58 61  0  0  0  0  0  0  0  0999 V2000
    3.0398    2.4968   -3.1550 C   0  0  0  0  0  0  0  0  0  0  0  0
    4.1654    2.3079   -2.1372 C   0  0  0  0  0  0  0  0  0  0  0  0
    3.7109    1.5855   -0.8625 C   0  0  0  0  0  0  0  0  0  0  0  0
    4.8068    1.3785    0.1923 C   0  0  0  0  0  0  0  0  0  0  0  0
    5.2076    2.6065    0.9531 C   0  0  0  0  0  0  0  0  0  0  0  0
    4.6684    3.8484    0.9700 C   0  0  0  0  0  0  0  0  0  0  0  0
    5.3950    4.6455    1.8830 N   0  0  0  0  0  0  0  0  0  0  0  0
    5.1545    6.0019    2.2002 C   0  0  0  0  0  0  0  0  0  0  0  0
    5.8314    6.6020    2.9968 O   0  0  0  0  0  0  0  0  0  0  0  0
    3.9826    6.6424    1.4620 C   0  0  0  0  0  0  0  0  0  0  0  0
    3.7839    8.1028    1.8537 C   0  0  0  0  0  0  0  0  0  0  0  0
    6.4248    3.8542    2.4604 C   0  0  0  0  0  0  0  0  0  0  0  0
    7.2494    4.1555    3.2932 O   0  0  0  0  0  0  0  0  0  0  0  0
    6.2830    2.6080    1.8516 N   0  0  0  0  0  0  0  0  0  0  0  0
    7.1556    1.4991    2.2109 C   0  0  0  0  0  0  0  0  0  0  0  0
    6.5735    0.5495    3.2437 C   0  0  0  0  0  0  0  0  0  0  0  0
    6.3692   -0.8052    2.9570 C   0  0  0  0  0  0  0  0  0  0  0  0
    5.8332   -1.6608    3.9206 C   0  0  0  0  0  0  0  0  0  0  0  0
    5.4836   -1.2059    5.2027 C   0  0  0  0  0  0  0  0  0  0  0  0
    4.8322   -2.1620    6.1440 C   0  0  0  0  0  0  0  0  0  0  0  0
    5.4403   -3.3923    6.4451 C   0  0  0  0  0  0  0  0  0  0  0  0
    4.8108   -4.3149    7.2845 C   0  0  0  0  0  0  0  0  0  0  0  0
    3.5573   -4.0268    7.8306 C   0  0  0  0  0  0  0  0  0  0  0  0
    2.9378   -2.8093    7.5312 C   0  0  0  0  0  0  0  0  0  0  0  0
    3.5697   -1.8857    6.6974 C   0  0  0  0  0  0  0  0  0  0  0  0
    5.7287    0.1574    5.5083 C   0  0  0  0  0  0  0  0  0  0  0  0
    5.5086    0.7293    6.8507 C   0  0  0  0  0  0  0  0  0  0  0  0
    5.7209    0.0772    8.0309 N   0  0  0  0  0  0  0  0  0  0  0  0
    5.4913    0.9328    8.9806 N   0  0  0  0  0  0  0  0  0  0  0  0
    5.1566    2.0620    8.3748 N   0  0  0  0  0  0  0  0  0  0  0  0
    4.9281    2.9084    8.8887 H   0  0  0  0  0  0  0  0  0  0  0  0
    5.1496    1.9976    7.0568 N   0  0  0  0  0  0  0  0  0  0  0  0
    6.2571    1.0113    4.5269 C   0  0  0  0  0  0  0  0  0  0  0  0
    3.3990    3.0036   -4.0646 H   0  0  0  0  0  0  0  0  0  0  0  0
    2.2186    3.1044   -2.7387 H   0  0  0  0  0  0  0  0  0  0  0  0
    2.6081    1.5293   -3.4618 H   0  0  0  0  0  0  0  0  0  0  0  0
    4.5994    3.2882   -1.8775 H   0  0  0  0  0  0  0  0  0  0  0  0
    4.9871    1.7311   -2.5991 H   0  0  0  0  0  0  0  0  0  0  0  0
    3.3158    0.5936   -1.1414 H   0  0  0  0  0  0  0  0  0  0  0  0
    2.8590    2.1224   -0.4076 H   0  0  0  0  0  0  0  0  0  0  0  0
    5.7006    0.9478   -0.2954 H   0  0  0  0  0  0  0  0  0  0  0  0
    4.4772    0.6153    0.9198 H   0  0  0  0  0  0  0  0  0  0  0  0
    3.8288    4.2351    0.4071 H   0  0  0  0  0  0  0  0  0  0  0  0
    3.0722    6.0527    1.6701 H   0  0  0  0  0  0  0  0  0  0  0  0
    4.1570    6.5480    0.3756 H   0  0  0  0  0  0  0  0  0  0  0  0
    3.5903    8.1993    2.9320 H   0  0  0  0  0  0  0  0  0  0  0  0
    2.9342    8.5375    1.3058 H   0  0  0  0  0  0  0  0  0  0  0  0
    4.6828    8.6964    1.6325 H   0  0  0  0  0  0  0  0  0  0  0  0
    8.0696    1.9643    2.6103 H   0  0  0  0  0  0  0  0  0  0  0  0
    7.4308    0.9463    1.3007 H   0  0  0  0  0  0  0  0  0  0  0  0
    6.6225   -1.1994    1.9684 H   0  0  0  0  0  0  0  0  0  0  0  0
    5.6477   -2.7073    3.6680 H   0  0  0  0  0  0  0  0  0  0  0  0
    6.4268   -3.6179    6.0324 H   0  0  0  0  0  0  0  0  0  0  0  0
    5.3058   -5.2614    7.5168 H   0  0  0  0  0  0  0  0  0  0  0  0
    3.0639   -4.7481    8.4870 H   0  0  0  0  0  0  0  0  0  0  0  0
    1.9540   -2.5783    7.9481 H   0  0  0  0  0  0  0  0  0  0  0  0
    3.0735   -0.9412    6.4600 H   0  0  0  0  0  0  0  0  0  0  0  0
    6.4524    2.0543    4.7866 H   0  0  0  0  0  0  0  0  0  0  0  0
  1  2  1  0
  1 34  1  0
  1 35  1  0
  1 36  1  0
  2  3  1  0
  2 37  1  0
  2 38  1  0
  3  4  1  0
  3 39  1  0
  3 40  1  0
  4  5  1  0
  4 41  1  0
  4 42  1  0
  5  6  2  0
  5 14  1  0
  6  7  1  0
  6 43  1  0
  7  8  1  0
  7 12  1  0
  8  9  2  0
  8 10  1  0
 10 11  1  0
 10 44  1  0
 10 45  1  0
 11 46  1  0
 11 47  1  0
 11 48  1  0
 12 13  2  0
 12 14  1  0
 14 15  1  0
 15 16  1  0
 15 49  1  0
 15 50  1  0
 16 17  2  0
 16 33  1  0
 17 18  1  0
 17 51  1  0
 18 19  2  0
 18 52  1  0
 19 20  1  0
 19 26  1  0
 20 21  2  0
 20 25  1  0
 21 22  1  0
 21 53  1  0
 22 23  2  0
 22 54  1  0
 23 24  1  0
 23 55  1  0
 24 25  2  0
 24 56  1  0
 25 57  1  0
 26 27  1  0
 26 33  2  0
 27 28  1  0
 27 32  2  0
 28 29  2  0
 29 30  1  0
 30 31  1  0
 30 32  1  0
 33 58  1  0
M  END

