
     RDKit          3D

 45 48  0  0  0  0  0  0  0  0999 V2000
    1.0160    0.9144    0.8376 C   0  0  0  0  0  0  0  0  0  0  0  0
    2.5289    0.7478    0.9761 C   0  0  0  0  0  0  0  0  0  0  0  0
    2.9758   -0.7246    0.9659 C   0  0  0  0  0  0  0  0  0  0  0  0
    4.4657   -0.8764    1.1400 C   0  0  0  0  0  0  0  0  0  0  0  0
    4.9640   -0.6641    2.3693 N   0  0  0  0  0  0  0  0  0  0  0  0
    6.2815   -0.7733    2.5136 C   0  0  0  0  0  0  0  0  0  0  0  0
    7.1455   -1.0882    1.4577 C   0  0  0  0  0  0  0  0  0  0  0  0
    6.5226   -1.2839    0.2168 C   0  0  0  0  0  0  0  0  0  0  0  0
    5.1978   -1.1815    0.0643 N   0  0  0  0  0  0  0  0  0  0  0  0
    7.3246   -1.6567   -1.0074 C   0  0  0  0  0  0  0  0  0  0  0  0
    8.7501   -1.4272   -0.8379 N   0  0  0  0  0  0  0  0  0  0  0  0
    9.5231   -1.8423   -2.0030 C   0  0  0  0  0  0  0  0  0  0  0  0
   10.8741   -1.1858   -2.0824 C   0  0  0  0  0  0  0  0  0  0  0  0
   11.1945    0.0800   -1.6435 C   0  0  0  0  0  0  0  0  0  0  0  0
   12.5144    0.3607   -1.9310 N   0  0  0  0  0  0  0  0  0  0  0  0
   12.9932    1.2186   -1.6937 H   0  0  0  0  0  0  0  0  0  0  0  0
   13.0827   -0.7208   -2.5662 C   0  0  0  0  0  0  0  0  0  0  0  0
   14.3832   -0.9207   -3.0481 C   0  0  0  0  0  0  0  0  0  0  0  0
   14.6769   -2.1373   -3.6555 C   0  0  0  0  0  0  0  0  0  0  0  0
   13.6823   -3.1324   -3.7750 C   0  0  0  0  0  0  0  0  0  0  0  0
   14.1051   -4.6503   -4.5502 Cl  0  0  0  0  0  0  0  0  0  0  0  0
   12.3888   -2.9466   -3.3019 C   0  0  0  0  0  0  0  0  0  0  0  0
   12.0727   -1.7215   -2.6815 C   0  0  0  0  0  0  0  0  0  0  0  0
    9.2431   -1.9802    0.4186 C   0  0  0  0  0  0  0  0  0  0  0  0
    8.6415   -1.2185    1.6005 C   0  0  0  0  0  0  0  0  0  0  0  0
    0.7263    1.9773    0.8467 H   0  0  0  0  0  0  0  0  0  0  0  0
    0.4813    0.4160    1.6635 H   0  0  0  0  0  0  0  0  0  0  0  0
    0.6474    0.4765   -0.1053 H   0  0  0  0  0  0  0  0  0  0  0  0
    2.8768    1.2114    1.9149 H   0  0  0  0  0  0  0  0  0  0  0  0
    3.0411    1.2828    0.1568 H   0  0  0  0  0  0  0  0  0  0  0  0
    2.6863   -1.2017    0.0174 H   0  0  0  0  0  0  0  0  0  0  0  0
    2.4729   -1.2572    1.7905 H   0  0  0  0  0  0  0  0  0  0  0  0
    6.6835   -0.6098    3.5231 H   0  0  0  0  0  0  0  0  0  0  0  0
    6.9453   -1.0683   -1.8586 H   0  0  0  0  0  0  0  0  0  0  0  0
    7.0898   -2.7233   -1.2447 H   0  0  0  0  0  0  0  0  0  0  0  0
    8.9338   -1.5805   -2.9000 H   0  0  0  0  0  0  0  0  0  0  0  0
    9.6443   -2.9495   -2.0428 H   0  0  0  0  0  0  0  0  0  0  0  0
   10.5596    0.8035   -1.1368 H   0  0  0  0  0  0  0  0  0  0  0  0
   15.1511   -0.1488   -2.9550 H   0  0  0  0  0  0  0  0  0  0  0  0
   15.6763   -2.3347   -4.0458 H   0  0  0  0  0  0  0  0  0  0  0  0
   11.6468   -3.7384   -3.4157 H   0  0  0  0  0  0  0  0  0  0  0  0
   10.3391   -1.8955    0.4355 H   0  0  0  0  0  0  0  0  0  0  0  0
    9.0016   -3.0659    0.5052 H   0  0  0  0  0  0  0  0  0  0  0  0
    9.0953   -0.2123    1.6461 H   0  0  0  0  0  0  0  0  0  0  0  0
    8.8937   -1.7218    2.5491 H   0  0  0  0  0  0  0  0  0  0  0  0
  1  2  1  0
  1 26  1  0
  1 27  1  0
  1 28  1  0
  2  3  1  0
  2 29  1  0
  2 30  1  0
  3  4  1  0
  3 31  1  0
  3 32  1  0
  4  5  2  0
  4  9  1  0
  5  6  1  0
  6  7  2  0
  6 33  1  0
  7  8  1  0
  7 25  1  0
  8  9  2  0
  8 10  1  0
 10 11  1  0
 10 34  1  0
 10 35  1  0
 11 12  1  0
 11 24  1  0
 12 13  1  0
 12 36  1  0
 12 37  1  0
 13 14  2  0
 13 23  1  0
 14 15  1  0
 14 38  1  0
 15 16  1  0
 15 17  1  0
 17 18  1  0
 17 23  2  0
 18 19  2  0
 18 39  1  0
 19 20  1  0
 19 40  1  0
 20 21  1  0
 20 22  2  0
 22 23  1  0
 22 41  1  0
 24 25  1  0
 24 42  1  0
 24 43  1  0
 25 44  1  0
 25 45  1  0
M  END

