
     RDKit          3D

 50 51  0  0  0  0  0  0  0  0999 V2000
    1.9439    0.7870   -1.0645 C   0  0  0  0  0  0  0  0  0  0  0  0
    3.1911    0.0820   -0.8280 N   0  0  0  0  0  0  0  0  0  0  0  0
    3.1336   -0.9590    0.1971 C   0  0  1  0  0  0  0  0  0  0  0  0
    2.1696   -2.1130   -0.1639 C   0  0  0  0  0  0  0  0  0  0  0  0
    2.3059   -2.9167   -1.4456 C   0  0  0  0  0  0  0  0  0  0  0  0
    2.7135   -2.3608   -2.6658 C   0  0  0  0  0  0  0  0  0  0  0  0
    2.7699   -3.1201   -3.8411 C   0  0  0  0  0  0  0  0  0  0  0  0
    2.4043   -4.4638   -3.8130 C   0  0  0  0  0  0  0  0  0  0  0  0
    1.9811   -5.0492   -2.6146 C   0  0  0  0  0  0  0  0  0  0  0  0
    1.9262   -4.2836   -1.4416 C   0  0  0  0  0  0  0  0  0  0  0  0
    1.5164   -4.7919   -0.2408 O   0  0  0  0  0  0  0  0  0  0  0  0
    1.1165   -6.1394   -0.1531 C   0  0  0  0  0  0  0  0  0  0  0  0
    4.5917   -1.2865    0.6817 C   0  0  1  0  0  0  0  0  0  0  0  0
    4.9593    0.0341    1.1817 O   0  0  0  0  0  0  0  0  0  0  0  0
    6.2677    0.3223    1.5983 C   0  0  0  0  0  0  0  0  0  0  0  0
    4.5961   -2.2665    1.8806 C   0  0  0  0  0  0  0  0  0  0  0  0
    4.6826   -3.7637    1.5403 C   0  0  0  0  0  0  0  0  0  0  0  0
    5.8256   -4.0958    0.5632 C   0  0  2  0  0  0  0  0  0  0  0  0
    7.2187   -3.9704    1.1972 C   0  0  0  0  0  0  0  0  0  0  0  0
    5.6522   -3.2391   -0.7038 C   0  0  0  0  0  0  0  0  0  0  0  0
    5.5857   -1.7295   -0.4189 C   0  0  0  0  0  0  0  0  0  0  0  0
    2.1392    1.6749   -1.6862 H   0  0  0  0  0  0  0  0  0  0  0  0
    1.4336    1.1286   -0.1357 H   0  0  0  0  0  0  0  0  0  0  0  0
    1.2273    0.1592   -1.6203 H   0  0  0  0  0  0  0  0  0  0  0  0
    3.8946    0.7477   -0.5129 H   0  0  0  0  0  0  0  0  0  0  0  0
    2.6859   -0.5361    1.1253 H   0  0  0  0  0  0  0  0  0  0  0  0
    1.1583   -1.6659   -0.1723 H   0  0  0  0  0  0  0  0  0  0  0  0
    2.1365   -2.8048    0.6858 H   0  0  0  0  0  0  0  0  0  0  0  0
    3.0165   -1.3130   -2.6707 H   0  0  0  0  0  0  0  0  0  0  0  0
    3.1003   -2.6557   -4.7735 H   0  0  0  0  0  0  0  0  0  0  0  0
    2.4419   -5.0699   -4.7221 H   0  0  0  0  0  0  0  0  0  0  0  0
    1.6935   -6.1006   -2.6053 H   0  0  0  0  0  0  0  0  0  0  0  0
    1.9353   -6.8325   -0.4186 H   0  0  0  0  0  0  0  0  0  0  0  0
    0.2480   -6.3533   -0.8020 H   0  0  0  0  0  0  0  0  0  0  0  0
    0.8296   -6.3135    0.8930 H   0  0  0  0  0  0  0  0  0  0  0  0
    6.2199    1.2758    2.1472 H   0  0  0  0  0  0  0  0  0  0  0  0
    6.9764    0.4505    0.7586 H   0  0  0  0  0  0  0  0  0  0  0  0
    6.6868   -0.4370    2.2853 H   0  0  0  0  0  0  0  0  0  0  0  0
    3.7124   -2.0650    2.5090 H   0  0  0  0  0  0  0  0  0  0  0  0
    5.4636   -2.0082    2.5079 H   0  0  0  0  0  0  0  0  0  0  0  0
    3.7363   -4.1108    1.0978 H   0  0  0  0  0  0  0  0  0  0  0  0
    4.8064   -4.3334    2.4781 H   0  0  0  0  0  0  0  0  0  0  0  0
    5.7062   -5.1526    0.2642 H   0  0  0  0  0  0  0  0  0  0  0  0
    7.4444   -2.9457    1.5332 H   0  0  0  0  0  0  0  0  0  0  0  0
    8.0047   -4.2573    0.4793 H   0  0  0  0  0  0  0  0  0  0  0  0
    7.3137   -4.6295    2.0761 H   0  0  0  0  0  0  0  0  0  0  0  0
    4.7388   -3.5624   -1.2220 H   0  0  0  0  0  0  0  0  0  0  0  0
    6.4825   -3.4276   -1.4064 H   0  0  0  0  0  0  0  0  0  0  0  0
    5.3630   -1.1759   -1.3434 H   0  0  0  0  0  0  0  0  0  0  0  0
    6.5906   -1.4082   -0.1056 H   0  0  0  0  0  0  0  0  0  0  0  0
  1  2  1  0
  1 22  1  0
  1 23  1  0
  1 24  1  0
  2  3  1  0
  2 25  1  0
  3  4  1  0
  3 13  1  0
  3 26  1  1
  4  5  1  0
  4 27  1  0
  4 28  1  0
  5  6  2  0
  5 10  1  0
  6  7  1  0
  6 29  1  0
  7  8  2  0
  7 30  1  0
  8  9  1  0
  8 31  1  0
  9 10  2  0
  9 32  1  0
 10 11  1  0
 11 12  1  0
 12 33  1  0
 12 34  1  0
 12 35  1  0
 13 14  1  1
 13 16  1  0
 13 21  1  0
 14 15  1  0
 15 36  1  0
 15 37  1  0
 15 38  1  0
 16 17  1  0
 16 39  1  0
 16 40  1  0
 17 18  1  0
 17 41  1  0
 17 42  1  0
 18 19  1  0
 18 20  1  0
 18 43  1  6
 19 44  1  0
 19 45  1  0
 19 46  1  0
 20 21  1  0
 20 47  1  0
 20 48  1  0
 21 49  1  0
 21 50  1  0
M  END

