
     RDKit          3D

 41 42  0  0  0  0  0  0  0  0999 V2000
    6.7920    1.5828   -0.6900 C   0  0  0  0  0  0  0  0  0  0  0  0
    5.7095    0.6019   -0.2381 C   0  0  0  0  0  0  0  0  0  0  0  0
    4.8047    0.1976   -1.3052 N   0  0  0  0  0  0  0  0  0  0  0  0
    3.6472    0.8473   -1.6607 C   0  0  0  0  0  0  0  0  0  0  0  0
    3.1095    0.2103   -2.7634 C   0  0  0  0  0  0  0  0  0  0  0  0
    3.9811   -0.8687   -3.1004 C   0  0  0  0  0  0  0  0  0  0  0  0
    3.8221   -1.8374   -4.2394 C   0  0  0  0  0  0  0  0  0  0  0  0
    4.1252   -3.1942   -3.8228 N   0  0  0  0  0  0  0  0  0  0  0  0
    4.0751   -4.2824   -4.6792 C   0  0  0  0  0  0  0  0  0  0  0  0
    3.9278   -4.1246   -6.0711 C   0  0  0  0  0  0  0  0  0  0  0  0
    3.9323   -5.2310   -6.9355 C   0  0  0  0  0  0  0  0  0  0  0  0
    3.7898   -5.0991   -8.4300 C   0  0  0  0  0  0  0  0  0  0  0  0
    4.2141   -5.9526   -9.1953 O   0  0  0  0  0  0  0  0  0  0  0  0
    3.1481   -3.9688   -8.8692 N   0  0  0  0  0  0  0  0  0  0  0  0
    2.9118   -3.7066  -10.2715 C   0  0  0  0  0  0  0  0  0  0  0  0
    4.0934   -6.5165   -6.4101 C   0  0  0  0  0  0  0  0  0  0  0  0
    4.2205   -6.6801   -5.0290 C   0  0  0  0  0  0  0  0  0  0  0  0
    4.2138   -5.5964   -4.1470 C   0  0  0  0  0  0  0  0  0  0  0  0
    4.3775   -5.7959   -2.6629 C   0  0  0  0  0  0  0  0  0  0  0  0
    5.0183   -0.8420   -2.1790 C   0  0  0  0  0  0  0  0  0  0  0  0
    7.4425    1.8516    0.1575 H   0  0  0  0  0  0  0  0  0  0  0  0
    6.3461    2.5076   -1.0878 H   0  0  0  0  0  0  0  0  0  0  0  0
    7.4210    1.1421   -1.4790 H   0  0  0  0  0  0  0  0  0  0  0  0
    5.1027    1.0455    0.5671 H   0  0  0  0  0  0  0  0  0  0  0  0
    6.1680   -0.3088    0.1789 H   0  0  0  0  0  0  0  0  0  0  0  0
    3.2892    1.7027   -1.0908 H   0  0  0  0  0  0  0  0  0  0  0  0
    2.1825    0.4772   -3.2687 H   0  0  0  0  0  0  0  0  0  0  0  0
    4.5038   -1.5637   -5.0663 H   0  0  0  0  0  0  0  0  0  0  0  0
    2.7953   -1.7477   -4.6529 H   0  0  0  0  0  0  0  0  0  0  0  0
    3.9122   -3.3820   -2.8508 H   0  0  0  0  0  0  0  0  0  0  0  0
    3.8518   -3.1190   -6.4851 H   0  0  0  0  0  0  0  0  0  0  0  0
    2.6827   -3.3895   -8.1828 H   0  0  0  0  0  0  0  0  0  0  0  0
    3.4745   -4.4517  -10.8488 H   0  0  0  0  0  0  0  0  0  0  0  0
    3.2548   -2.6971  -10.5551 H   0  0  0  0  0  0  0  0  0  0  0  0
    1.8432   -3.7974  -10.5362 H   0  0  0  0  0  0  0  0  0  0  0  0
    4.1163   -7.3675   -7.0919 H   0  0  0  0  0  0  0  0  0  0  0  0
    4.3361   -7.6868   -4.6166 H   0  0  0  0  0  0  0  0  0  0  0  0
    4.5160   -6.8581   -2.4169 H   0  0  0  0  0  0  0  0  0  0  0  0
    3.4960   -5.4413   -2.0962 H   0  0  0  0  0  0  0  0  0  0  0  0
    5.2501   -5.2415   -2.2735 H   0  0  0  0  0  0  0  0  0  0  0  0
    5.8907   -1.4857   -2.0840 H   0  0  0  0  0  0  0  0  0  0  0  0
  1  2  1  0
  1 21  1  0
  1 22  1  0
  1 23  1  0
  2  3  1  0
  2 24  1  0
  2 25  1  0
  3  4  1  0
  3 20  1  0
  4  5  2  0
  4 26  1  0
  5  6  1  0
  5 27  1  0
  6  7  1  0
  6 20  2  0
  7  8  1  0
  7 28  1  0
  7 29  1  0
  8  9  1  0
  8 30  1  0
  9 10  2  0
  9 18  1  0
 10 11  1  0
 10 31  1  0
 11 12  1  0
 11 16  2  0
 12 13  2  0
 12 14  1  0
 14 15  1  0
 14 32  1  0
 15 33  1  0
 15 34  1  0
 15 35  1  0
 16 17  1  0
 16 36  1  0
 17 18  2  0
 17 37  1  0
 18 19  1  0
 19 38  1  0
 19 39  1  0
 19 40  1  0
 20 41  1  0
M  END

