
     RDKit          3D

 53 54  0  0  0  0  0  0  0  0999 V2000
    4.1308    4.3932    5.8789 C   0  0  0  0  0  0  0  0  0  0  0  0
    3.5637    3.5538    4.8979 O   0  0  0  0  0  0  0  0  0  0  0  0
    2.7526    4.0876    3.9410 C   0  0  0  0  0  0  0  0  0  0  0  0
    2.3856    5.4396    3.8990 C   0  0  0  0  0  0  0  0  0  0  0  0
    1.5548    5.9062    2.8726 C   0  0  0  0  0  0  0  0  0  0  0  0
    1.0943    5.0337    1.8888 C   0  0  0  0  0  0  0  0  0  0  0  0
    1.4671    3.6842    1.9410 C   0  0  0  0  0  0  0  0  0  0  0  0
    2.2894    3.1821    2.9545 C   0  0  0  0  0  0  0  0  0  0  0  0
    2.6911    1.7260    3.0026 C   0  0  0  0  0  0  0  0  0  0  0  0
    2.0331    0.9020    4.1275 C   0  0  0  0  0  0  0  0  0  0  0  0
    0.5884    0.7750    4.0332 N   0  0  0  0  0  0  0  0  0  0  0  0
   -0.0088   -0.2922    3.4318 C   0  0  0  0  0  0  0  0  0  0  0  0
    0.6059   -1.2098    2.9150 O   0  0  0  0  0  0  0  0  0  0  0  0
   -1.5427   -0.3308    3.4537 C   0  0  0  0  0  0  0  0  0  0  0  0
   -2.2415    0.7484    4.1588 N   0  0  0  0  0  0  0  0  0  0  0  0
   -3.0462    1.7180    3.3494 C   0  0  1  0  0  0  0  0  0  0  0  0
   -2.1149    2.6981    2.6360 C   0  0  0  0  0  0  0  0  0  0  0  0
   -4.0569    1.0175    2.4354 C   0  0  0  0  0  0  0  0  0  0  0  0
   -5.1810    0.3962    3.0099 C   0  0  0  0  0  0  0  0  0  0  0  0
   -6.1183   -0.2642    2.2146 C   0  0  0  0  0  0  0  0  0  0  0  0
   -5.9536   -0.3172    0.8261 C   0  0  0  0  0  0  0  0  0  0  0  0
   -4.8453    0.2982    0.2425 C   0  0  0  0  0  0  0  0  0  0  0  0
   -3.9063    0.9615    1.0415 C   0  0  0  0  0  0  0  0  0  0  0  0
   -2.8427    0.3496    5.7117 S   0  0  1  0  0  0  0  0  0  0  0  0
   -1.4826    0.7572    6.8149 C   0  0  0  0  0  0  0  0  0  0  0  0
   -3.9358    1.2810    6.0184 O   0  0  0  0  0  0  0  0  0  0  0  0
   -3.0481   -1.0978    5.8071 O   0  0  0  0  0  0  0  0  0  0  0  0
    4.7628    3.7544    6.5105 H   0  0  0  0  0  0  0  0  0  0  0  0
    3.3594    4.8691    6.5110 H   0  0  0  0  0  0  0  0  0  0  0  0
    4.7572    5.1841    5.4290 H   0  0  0  0  0  0  0  0  0  0  0  0
    2.7437    6.1372    4.6561 H   0  0  0  0  0  0  0  0  0  0  0  0
    1.2766    6.9629    2.8485 H   0  0  0  0  0  0  0  0  0  0  0  0
    0.4542    5.3961    1.0812 H   0  0  0  0  0  0  0  0  0  0  0  0
    1.1205    2.9970    1.1640 H   0  0  0  0  0  0  0  0  0  0  0  0
    3.7818    1.6544    3.1493 H   0  0  0  0  0  0  0  0  0  0  0  0
    2.4597    1.2471    2.0387 H   0  0  0  0  0  0  0  0  0  0  0  0
    2.2888    1.3435    5.1025 H   0  0  0  0  0  0  0  0  0  0  0  0
    2.4391   -0.1194    4.0950 H   0  0  0  0  0  0  0  0  0  0  0  0
   -0.0112    1.5313    4.3415 H   0  0  0  0  0  0  0  0  0  0  0  0
   -1.8198   -1.3091    3.8739 H   0  0  0  0  0  0  0  0  0  0  0  0
   -1.8807   -0.3614    2.4064 H   0  0  0  0  0  0  0  0  0  0  0  0
   -3.6253    2.2859    4.0884 H   0  0  0  0  0  0  0  0  0  0  0  0
   -1.4195    2.1970    1.9458 H   0  0  0  0  0  0  0  0  0  0  0  0
   -1.5123    3.2574    3.3665 H   0  0  0  0  0  0  0  0  0  0  0  0
   -2.6998    3.4263    2.0541 H   0  0  0  0  0  0  0  0  0  0  0  0
   -5.3191    0.4341    4.0928 H   0  0  0  0  0  0  0  0  0  0  0  0
   -6.9852   -0.7380    2.6823 H   0  0  0  0  0  0  0  0  0  0  0  0
   -6.6878   -0.8348    0.2034 H   0  0  0  0  0  0  0  0  0  0  0  0
   -4.7060    0.2657   -0.8412 H   0  0  0  0  0  0  0  0  0  0  0  0
   -3.0523    1.4408    0.5591 H   0  0  0  0  0  0  0  0  0  0  0  0
   -1.3047    1.8390    6.7708 H   0  0  0  0  0  0  0  0  0  0  0  0
   -0.5924    0.1897    6.5175 H   0  0  0  0  0  0  0  0  0  0  0  0
   -1.8155    0.4596    7.8187 H   0  0  0  0  0  0  0  0  0  0  0  0
  1  2  1  0
  1 28  1  0
  1 29  1  0
  1 30  1  0
  2  3  1  0
  3  4  2  0
  3  8  1  0
  4  5  1  0
  4 31  1  0
  5  6  2  0
  5 32  1  0
  6  7  1  0
  6 33  1  0
  7  8  2  0
  7 34  1  0
  8  9  1  0
  9 10  1  0
  9 35  1  0
  9 36  1  0
 10 11  1  0
 10 37  1  0
 10 38  1  0
 11 12  1  0
 11 39  1  0
 12 13  2  0
 12 14  1  0
 14 15  1  0
 14 40  1  0
 14 41  1  0
 15 16  1  0
 24 15  1  6
 16 17  1  0
 16 18  1  0
 16 42  1  1
 17 43  1  0
 17 44  1  0
 17 45  1  0
 18 19  2  0
 18 23  1  0
 19 20  1  0
 19 46  1  0
 20 21  2  0
 20 47  1  0
 21 22  1  0
 21 48  1  0
 22 23  2  0
 22 49  1  0
 23 50  1  0
 24 25  1  0
 24 26  2  0
 24 27  2  0
 25 51  1  0
 25 52  1  0
 25 53  1  0
M  END

