
     RDKit          3D

 35 35  0  0  0  0  0  0  0  0999 V2000
    4.7124   -2.0892   -0.6519 C   0  0  0  0  0  0  0  0  0  0  0  0
    3.8821   -0.8525   -0.5095 C   0  0  0  0  0  0  0  0  0  0  0  0
    2.7909   -0.4787   -1.2225 C   0  0  0  0  0  0  0  0  0  0  0  0
    2.1503   -1.2013   -2.3226 C   0  0  0  0  0  0  0  0  0  0  0  0
    0.8910   -0.6071   -2.9593 C   0  0  0  0  0  0  0  0  0  0  0  0
    0.3781    0.7332   -2.4308 C   0  0  0  0  0  0  0  0  0  0  0  0
    2.6798   -2.3215   -2.7250 N   0  0  0  0  0  0  0  0  0  0  0  0
    2.1313   -3.0831   -3.7259 C   0  0  0  0  0  0  0  0  0  0  0  0
    2.7653   -4.1866   -4.2096 C   0  0  0  0  0  0  0  0  0  0  0  0
    2.2053   -5.0081   -5.2574 C   0  0  0  0  0  0  0  0  0  0  0  0
    2.8211   -6.0386   -5.7181 N   0  0  0  0  0  0  0  0  0  0  0  0
    2.2365   -6.8600   -6.6853 C   0  0  0  0  0  0  0  0  0  0  0  0
    3.0862   -7.4576   -7.6387 C   0  0  0  0  0  0  0  0  0  0  0  0
    2.5693   -8.2887   -8.6311 C   0  0  0  0  0  0  0  0  0  0  0  0
    1.1981   -8.5687   -8.6756 C   0  0  0  0  0  0  0  0  0  0  0  0
    0.3497   -8.0077   -7.7154 C   0  0  0  0  0  0  0  0  0  0  0  0
    0.8579   -7.1596   -6.7298 C   0  0  0  0  0  0  0  0  0  0  0  0
    5.5063   -2.1244    0.1085 H   0  0  0  0  0  0  0  0  0  0  0  0
    5.1693   -2.1456   -1.6537 H   0  0  0  0  0  0  0  0  0  0  0  0
    4.0928   -2.9969   -0.5767 H   0  0  0  0  0  0  0  0  0  0  0  0
    4.1935   -0.1510    0.2740 H   0  0  0  0  0  0  0  0  0  0  0  0
    2.3358    0.4718   -0.9410 H   0  0  0  0  0  0  0  0  0  0  0  0
    0.0847   -1.3571   -2.8682 H   0  0  0  0  0  0  0  0  0  0  0  0
    1.0761   -0.5172   -4.0442 H   0  0  0  0  0  0  0  0  0  0  0  0
    0.1065    0.6835   -1.3649 H   0  0  0  0  0  0  0  0  0  0  0  0
   -0.5254    1.0325   -2.9848 H   0  0  0  0  0  0  0  0  0  0  0  0
    1.1189    1.5385   -2.5542 H   0  0  0  0  0  0  0  0  0  0  0  0
    1.1519   -2.8243   -4.1582 H   0  0  0  0  0  0  0  0  0  0  0  0
    3.7383   -4.4764   -3.8041 H   0  0  0  0  0  0  0  0  0  0  0  0
    1.2190   -4.6930   -5.6561 H   0  0  0  0  0  0  0  0  0  0  0  0
    4.1549   -7.2408   -7.5805 H   0  0  0  0  0  0  0  0  0  0  0  0
    3.2418   -8.7316   -9.3705 H   0  0  0  0  0  0  0  0  0  0  0  0
    0.7958   -9.2325   -9.4448 H   0  0  0  0  0  0  0  0  0  0  0  0
   -0.7188   -8.2398   -7.7282 H   0  0  0  0  0  0  0  0  0  0  0  0
    0.1911   -6.7524   -5.9662 H   0  0  0  0  0  0  0  0  0  0  0  0
  1  2  1  0
  1 18  1  0
  1 19  1  0
  1 20  1  0
  2  3  2  0
  2 21  1  0
  3  4  1  0
  3 22  1  0
  4  5  1  0
  4  7  2  0
  5  6  1  0
  5 23  1  0
  5 24  1  0
  6 25  1  0
  6 26  1  0
  6 27  1  0
  7  8  1  0
  8  9  2  0
  8 28  1  0
  9 10  1  0
  9 29  1  0
 10 11  2  0
 10 30  1  0
 11 12  1  0
 12 13  2  0
 12 17  1  0
 13 14  1  0
 13 31  1  0
 14 15  2  0
 14 32  1  0
 15 16  1  0
 15 33  1  0
 16 17  2  0
 16 34  1  0
 17 35  1  0
M  END

