
     RDKit          3D

 28 28  0  0  0  0  0  0  0  0999 V2000
    3.5152   -1.6164   -1.7930 C   0  0  0  0  0  0  0  0  0  0  0  0
    4.8096   -1.7070   -1.2375 O   0  0  0  0  0  0  0  0  0  0  0  0
    5.1610   -0.6269   -0.3952 C   0  0  0  0  0  0  0  0  0  0  0  0
    4.5169   -0.8113    0.9836 C   0  0  0  0  0  0  0  0  0  0  0  0
    3.5293   -0.1945    1.3153 O   0  0  0  0  0  0  0  0  0  0  0  0
    5.0765   -1.8959    1.9169 C   0  0  1  0  0  0  0  0  0  0  0  0
    4.9185   -1.5078    2.9379 H   0  0  0  0  0  0  0  0  0  0  0  0
    4.3156   -3.2125    1.7255 C   0  0  0  0  0  0  0  0  0  0  0  0
    6.4646   -2.0387    1.6452 O   0  0  0  0  0  0  0  0  0  0  0  0
    7.3126   -2.5903    2.5609 C   0  0  0  0  0  0  0  0  0  0  0  0
    8.6337   -2.7925    2.1245 C   0  0  0  0  0  0  0  0  0  0  0  0
    9.5910   -3.3251    2.9840 C   0  0  0  0  0  0  0  0  0  0  0  0
    9.2255   -3.6612    4.2878 C   0  0  0  0  0  0  0  0  0  0  0  0
   10.1467   -4.1778    5.1183 F   0  0  0  0  0  0  0  0  0  0  0  0
    7.9246   -3.4730    4.7385 C   0  0  0  0  0  0  0  0  0  0  0  0
    6.9618   -2.9367    3.8744 C   0  0  0  0  0  0  0  0  0  0  0  0
    3.3725   -2.5012   -2.4297 H   0  0  0  0  0  0  0  0  0  0  0  0
    3.4062   -0.7071   -2.4157 H   0  0  0  0  0  0  0  0  0  0  0  0
    2.7202   -1.5993   -1.0239 H   0  0  0  0  0  0  0  0  0  0  0  0
    4.8139    0.3409   -0.8017 H   0  0  0  0  0  0  0  0  0  0  0  0
    6.2557   -0.6284   -0.3094 H   0  0  0  0  0  0  0  0  0  0  0  0
    3.2426   -3.0514    1.9081 H   0  0  0  0  0  0  0  0  0  0  0  0
    4.6774   -3.9797    2.4258 H   0  0  0  0  0  0  0  0  0  0  0  0
    4.4572   -3.5740    0.6971 H   0  0  0  0  0  0  0  0  0  0  0  0
    8.8901   -2.5218    1.0985 H   0  0  0  0  0  0  0  0  0  0  0  0
   10.6201   -3.4857    2.6567 H   0  0  0  0  0  0  0  0  0  0  0  0
    7.6671   -3.7478    5.7632 H   0  0  0  0  0  0  0  0  0  0  0  0
    5.9461   -2.7967    4.2439 H   0  0  0  0  0  0  0  0  0  0  0  0
  1  2  1  0
  1 17  1  0
  1 18  1  0
  1 19  1  0
  2  3  1  0
  3  4  1  0
  3 20  1  0
  3 21  1  0
  4  5  2  0
  4  6  1  0
  6  7  1  1
  6  8  1  0
  6  9  1  0
  8 22  1  0
  8 23  1  0
  8 24  1  0
  9 10  1  0
 10 11  2  0
 10 16  1  0
 11 12  1  0
 11 25  1  0
 12 13  2  0
 12 26  1  0
 13 14  1  0
 13 15  1  0
 15 16  2  0
 15 27  1  0
 16 28  1  0
M  END

