
     RDKit          3D

 36 37  0  0  0  0  0  0  0  0999 V2000
    1.3559   -0.4638    0.7994 C   0  0  0  0  0  0  0  0  0  0  0  0
    2.5919    0.0143    0.0309 C   0  0  1  0  0  0  0  0  0  0  0  0
    3.8281   -0.8625    0.2547 C   0  0  0  0  0  0  0  0  0  0  0  0
    2.3049    0.2214   -1.4221 N   0  0  0  0  0  0  0  0  0  0  0  0
    2.4101    1.5413   -1.9052 C   0  0  0  0  0  0  0  0  0  0  0  0
    2.7238    2.4544   -1.1632 O   0  0  0  0  0  0  0  0  0  0  0  0
    2.1246    1.7717   -3.3480 C   0  0  0  0  0  0  0  0  0  0  0  0
    2.2311    3.0925   -3.8074 C   0  0  0  0  0  0  0  0  0  0  0  0
    1.9855    3.4133   -5.1493 C   0  0  0  0  0  0  0  0  0  0  0  0
    2.0397    4.7213   -5.5998 N   0  0  0  0  0  0  0  0  0  0  0  0
    1.6312    2.3577   -6.0186 C   0  0  0  0  0  0  0  0  0  0  0  0
    1.5292    1.0515   -5.5530 C   0  0  0  0  0  0  0  0  0  0  0  0
    1.7713    0.7235   -4.2084 C   0  0  0  0  0  0  0  0  0  0  0  0
    1.6559   -0.7057   -3.7100 C   0  0  2  0  0  0  0  0  0  0  0  0
    2.6612   -1.6220   -4.4539 C   0  0  0  0  0  0  0  0  0  0  0  0
    0.2158   -1.2388   -3.9230 C   0  0  0  0  0  0  0  0  0  0  0  0
    1.9559   -0.8768   -2.2068 C   0  0  0  0  0  0  0  0  0  0  0  0
    1.8844   -1.9884   -1.7165 O   0  0  0  0  0  0  0  0  0  0  0  0
    1.5736   -0.4488    1.8793 H   0  0  0  0  0  0  0  0  0  0  0  0
    1.0678   -1.4847    0.5159 H   0  0  0  0  0  0  0  0  0  0  0  0
    0.5013    0.2085    0.6232 H   0  0  0  0  0  0  0  0  0  0  0  0
    2.8317    1.0253    0.3787 H   0  0  0  0  0  0  0  0  0  0  0  0
    3.6535   -1.9019   -0.0530 H   0  0  0  0  0  0  0  0  0  0  0  0
    4.0881   -0.8536    1.3252 H   0  0  0  0  0  0  0  0  0  0  0  0
    4.6937   -0.4678   -0.3007 H   0  0  0  0  0  0  0  0  0  0  0  0
    2.5097    3.8629   -3.0857 H   0  0  0  0  0  0  0  0  0  0  0  0
    2.5496    5.3826   -5.0265 H   0  0  0  0  0  0  0  0  0  0  0  0
    2.1667    4.8626   -6.5946 H   0  0  0  0  0  0  0  0  0  0  0  0
    1.4303    2.5729   -7.0722 H   0  0  0  0  0  0  0  0  0  0  0  0
    1.2530    0.2683   -6.2628 H   0  0  0  0  0  0  0  0  0  0  0  0
    2.4444   -1.6370   -5.5323 H   0  0  0  0  0  0  0  0  0  0  0  0
    2.5911   -2.6472   -4.0643 H   0  0  0  0  0  0  0  0  0  0  0  0
    3.6946   -1.2658   -4.3204 H   0  0  0  0  0  0  0  0  0  0  0  0
   -0.0372   -1.2501   -4.9935 H   0  0  0  0  0  0  0  0  0  0  0  0
   -0.5212   -0.6038   -3.4070 H   0  0  0  0  0  0  0  0  0  0  0  0
    0.1341   -2.2613   -3.5289 H   0  0  0  0  0  0  0  0  0  0  0  0
  1  2  1  0
  1 19  1  0
  1 20  1  0
  1 21  1  0
  2  3  1  0
  2  4  1  0
  2 22  1  1
  3 23  1  0
  3 24  1  0
  3 25  1  0
  4  5  1  0
  4 17  1  0
  5  6  2  0
  5  7  1  0
  7  8  1  0
  7 13  2  0
  8  9  2  0
  8 26  1  0
  9 10  1  0
  9 11  1  0
 10 27  1  0
 10 28  1  0
 11 12  2  0
 11 29  1  0
 12 13  1  0
 12 30  1  0
 13 14  1  0
 14 15  1  6
 14 16  1  0
 14 17  1  0
 15 31  1  0
 15 32  1  0
 15 33  1  0
 16 34  1  0
 16 35  1  0
 16 36  1  0
 17 18  2  0
M  END

