
     RDKit          3D

 34 36  0  0  0  0  0  0  0  0999 V2000
    1.5455   -0.6837   -2.5268 N   0  0  0  0  0  0  0  0  0  0  0  0
    2.9002   -0.4950   -2.2556 N   0  0  0  0  0  0  0  0  0  0  0  0
    3.3463    0.5326   -1.4779 C   0  0  0  0  0  0  0  0  0  0  0  0
    2.5914    1.3540   -0.9713 O   0  0  0  0  0  0  0  0  0  0  0  0
    4.8175    0.5776   -1.2907 C   0  0  0  0  0  0  0  0  0  0  0  0
    5.5586   -0.4311   -1.8615 O   0  0  0  0  0  0  0  0  0  0  0  0
    6.8625   -0.1875   -1.5533 C   0  0  0  0  0  0  0  0  0  0  0  0
    7.9580   -0.9638   -1.9257 C   0  0  0  0  0  0  0  0  0  0  0  0
    9.2076   -0.5209   -1.4909 C   0  0  0  0  0  0  0  0  0  0  0  0
    9.3451    0.6521   -0.7179 C   0  0  0  0  0  0  0  0  0  0  0  0
    8.2378    1.4154   -0.3568 C   0  0  0  0  0  0  0  0  0  0  0  0
    6.9663    0.9863   -0.7808 C   0  0  0  0  0  0  0  0  0  0  0  0
    5.6114    1.4706   -0.6157 C   0  0  0  0  0  0  0  0  0  0  0  0
    5.1659    2.6791    0.1427 C   0  0  0  0  0  0  0  0  0  0  0  0
    5.8047    4.1957   -0.6922 S   0  0  0  0  0  0  0  0  0  0  0  0
    5.2629    5.4999    0.3730 C   0  0  0  0  0  0  0  0  0  0  0  0
    4.4258    5.3468    1.4891 C   0  0  0  0  0  0  0  0  0  0  0  0
    4.0807    6.4838    2.2281 C   0  0  0  0  0  0  0  0  0  0  0  0
    4.4919    7.7197    1.9433 N   0  0  0  0  0  0  0  0  0  0  0  0
    5.2853    7.8600    0.8753 C   0  0  0  0  0  0  0  0  0  0  0  0
    5.6985    6.8029    0.0664 C   0  0  0  0  0  0  0  0  0  0  0  0
    1.1832    0.1676   -2.9645 H   0  0  0  0  0  0  0  0  0  0  0  0
    1.0465   -0.7567   -1.6364 H   0  0  0  0  0  0  0  0  0  0  0  0
    3.5472   -1.1634   -2.6578 H   0  0  0  0  0  0  0  0  0  0  0  0
    7.8368   -1.8676   -2.5250 H   0  0  0  0  0  0  0  0  0  0  0  0
   10.0993   -1.0938   -1.7567 H   0  0  0  0  0  0  0  0  0  0  0  0
   10.3425    0.9663   -0.4015 H   0  0  0  0  0  0  0  0  0  0  0  0
    8.3511    2.3308    0.2274 H   0  0  0  0  0  0  0  0  0  0  0  0
    5.5718    2.6565    1.1669 H   0  0  0  0  0  0  0  0  0  0  0  0
    4.0699    2.7084    0.1747 H   0  0  0  0  0  0  0  0  0  0  0  0
    4.0323    4.3758    1.7892 H   0  0  0  0  0  0  0  0  0  0  0  0
    3.4271    6.3740    3.1024 H   0  0  0  0  0  0  0  0  0  0  0  0
    5.6204    8.8784    0.6441 H   0  0  0  0  0  0  0  0  0  0  0  0
    6.3527    6.9879   -0.7892 H   0  0  0  0  0  0  0  0  0  0  0  0
  1  2  1  0
  1 22  1  0
  1 23  1  0
  2  3  1  0
  2 24  1  0
  3  4  2  0
  3  5  1  0
  5  6  1  0
  5 13  2  0
  6  7  1  0
  7  8  2  0
  7 12  1  0
  8  9  1  0
  8 25  1  0
  9 10  2  0
  9 26  1  0
 10 11  1  0
 10 27  1  0
 11 12  2  0
 11 28  1  0
 12 13  1  0
 13 14  1  0
 14 15  1  0
 14 29  1  0
 14 30  1  0
 15 16  1  0
 16 17  2  0
 16 21  1  0
 17 18  1  0
 17 31  1  0
 18 19  2  0
 18 32  1  0
 19 20  1  0
 20 21  2  0
 20 33  1  0
 21 34  1  0
M  END

