
     RDKit          3D

 80 83  0  0  0  0  0  0  0  0999 V2000
    5.6742   -0.2796    5.3894 C   0  0  0  0  0  0  0  0  0  0  0  0
    4.2047    0.1208    5.5019 C   0  0  0  0  0  0  0  0  0  0  0  0
    3.9307    1.5983    5.2082 C   0  0  1  0  0  0  0  0  0  0  0  0
    4.3655    2.1516    3.4844 S   0  0  0  0  0  0  0  0  0  0  0  0
    3.1938    1.2710    2.4424 C   0  0  0  0  0  0  0  0  0  0  0  0
    3.4437   -0.0506    2.0400 C   0  0  0  0  0  0  0  0  0  0  0  0
    2.5401   -0.6831    1.1836 C   0  0  0  0  0  0  0  0  0  0  0  0
    1.4055   -0.0266    0.7022 C   0  0  0  0  0  0  0  0  0  0  0  0
    1.1648    1.3068    1.0828 C   0  0  0  0  0  0  0  0  0  0  0  0
    0.0739    2.0653    0.6278 N   0  0  0  0  0  0  0  0  0  0  0  0
   -1.0041    1.6681   -0.1428 C   0  0  0  0  0  0  0  0  0  0  0  0
   -1.1402    0.5169   -0.5371 O   0  0  0  0  0  0  0  0  0  0  0  0
   -1.9545    2.7810   -0.4648 C   0  0  0  0  0  0  0  0  0  0  0  0
   -3.2944    2.6906   -0.7065 C   0  0  0  0  0  0  0  0  0  0  0  0
   -4.3012    1.6402   -0.6788 C   0  0  0  0  0  0  0  0  0  0  0  0
   -4.0561    0.2428   -0.7245 C   0  0  0  0  0  0  0  0  0  0  0  0
   -5.0854   -0.6879   -0.7028 C   0  0  0  0  0  0  0  0  0  0  0  0
   -4.9118   -2.0314   -0.7483 O   0  0  0  0  0  0  0  0  0  0  0  0
   -3.5973   -2.5379   -0.8150 C   0  0  0  0  0  0  0  0  0  0  0  0
   -6.4376   -0.2424   -0.6454 C   0  0  0  0  0  0  0  0  0  0  0  0
   -7.3815   -1.2058   -0.6416 O   0  0  0  0  0  0  0  0  0  0  0  0
   -8.7416   -0.8367   -0.6054 C   0  0  0  0  0  0  0  0  0  0  0  0
   -6.6978    1.1284   -0.6101 C   0  0  0  0  0  0  0  0  0  0  0  0
   -5.6528    2.0618   -0.6298 C   0  0  0  0  0  0  0  0  0  0  0  0
   -5.9834    3.3924   -0.6290 O   0  0  0  0  0  0  0  0  0  0  0  0
   -6.0933    4.0195    0.6466 C   0  0  0  0  0  0  0  0  0  0  0  0
   -1.3610    4.0824   -0.4536 N   0  0  0  0  0  0  0  0  0  0  0  0
   -1.8568    5.2076    0.1786 C   0  0  0  0  0  0  0  0  0  0  0  0
   -2.8302    5.1893    0.9125 O   0  0  0  0  0  0  0  0  0  0  0  0
   -1.0818    6.4767   -0.0699 C   0  0  0  0  0  0  0  0  0  0  0  0
   -0.2845    6.6961   -1.2054 C   0  0  0  0  0  0  0  0  0  0  0  0
    0.3908    7.9081   -1.3726 C   0  0  0  0  0  0  0  0  0  0  0  0
    0.2758    8.9128   -0.4077 C   0  0  0  0  0  0  0  0  0  0  0  0
   -0.5279    8.7072    0.7193 C   0  0  0  0  0  0  0  0  0  0  0  0
   -1.2086    7.5010    0.8824 C   0  0  0  0  0  0  0  0  0  0  0  0
    2.0668    1.9429    1.9573 C   0  0  0  0  0  0  0  0  0  0  0  0
    2.5163    2.0189    5.6750 C   0  0  0  0  0  0  0  0  0  0  0  0
    1.8679    1.3031    6.4152 O   0  0  0  0  0  0  0  0  0  0  0  0
    2.1145    3.2624    5.2477 N   0  0  0  0  0  0  0  0  0  0  0  0
    0.9362    3.9540    5.5562 C   0  0  0  0  0  0  0  0  0  0  0  0
   -0.0045    3.4856    6.4969 C   0  0  0  0  0  0  0  0  0  0  0  0
   -1.1575    4.2176    6.7778 C   0  0  0  0  0  0  0  0  0  0  0  0
   -1.4127    5.4318    6.1367 C   0  0  0  0  0  0  0  0  0  0  0  0
   -0.4977    5.9134    5.1990 C   0  0  0  0  0  0  0  0  0  0  0  0
    0.6550    5.1818    4.9145 C   0  0  0  0  0  0  0  0  0  0  0  0
    1.8670    5.8873    3.6029 Br  0  0  0  0  0  0  0  0  0  0  0  0
    5.8040   -1.3492    5.6169 H   0  0  0  0  0  0  0  0  0  0  0  0
    6.3000    0.2881    6.0990 H   0  0  0  0  0  0  0  0  0  0  0  0
    6.0737   -0.0946    4.3801 H   0  0  0  0  0  0  0  0  0  0  0  0
    3.8333   -0.0753    6.5193 H   0  0  0  0  0  0  0  0  0  0  0  0
    3.5781   -0.4994    4.8400 H   0  0  0  0  0  0  0  0  0  0  0  0
    4.6370    2.2156    5.7949 H   0  0  0  0  0  0  0  0  0  0  0  0
    4.3396   -0.5684    2.3850 H   0  0  0  0  0  0  0  0  0  0  0  0
    2.7255   -1.7145    0.8725 H   0  0  0  0  0  0  0  0  0  0  0  0
    0.7064   -0.5246    0.0359 H   0  0  0  0  0  0  0  0  0  0  0  0
    0.0328    3.0168    0.9762 H   0  0  0  0  0  0  0  0  0  0  0  0
   -3.7539    3.6608   -0.9036 H   0  0  0  0  0  0  0  0  0  0  0  0
   -3.0220   -0.0813   -0.7971 H   0  0  0  0  0  0  0  0  0  0  0  0
   -3.6857   -3.6327   -0.8232 H   0  0  0  0  0  0  0  0  0  0  0  0
   -2.9918   -2.2284    0.0554 H   0  0  0  0  0  0  0  0  0  0  0  0
   -3.0765   -2.2102   -1.7327 H   0  0  0  0  0  0  0  0  0  0  0  0
   -9.3186   -1.7710   -0.6125 H   0  0  0  0  0  0  0  0  0  0  0  0
   -9.0261   -0.2318   -1.4852 H   0  0  0  0  0  0  0  0  0  0  0  0
   -8.9885   -0.2693    0.3100 H   0  0  0  0  0  0  0  0  0  0  0  0
   -7.7165    1.5124   -0.5801 H   0  0  0  0  0  0  0  0  0  0  0  0
   -6.4938    5.0277    0.4697 H   0  0  0  0  0  0  0  0  0  0  0  0
   -5.1094    4.1096    1.1364 H   0  0  0  0  0  0  0  0  0  0  0  0
   -6.7880    3.4653    1.3031 H   0  0  0  0  0  0  0  0  0  0  0  0
   -0.5082    4.1993   -0.9897 H   0  0  0  0  0  0  0  0  0  0  0  0
   -0.2088    5.9390   -1.9906 H   0  0  0  0  0  0  0  0  0  0  0  0
    1.0005    8.0708   -2.2648 H   0  0  0  0  0  0  0  0  0  0  0  0
    0.8058    9.8597   -0.5384 H   0  0  0  0  0  0  0  0  0  0  0  0
   -0.6261    9.4939    1.4715 H   0  0  0  0  0  0  0  0  0  0  0  0
   -1.8537    7.3249    1.7451 H   0  0  0  0  0  0  0  0  0  0  0  0
    1.8891    2.9788    2.2549 H   0  0  0  0  0  0  0  0  0  0  0  0
    2.7360    3.7108    4.5756 H   0  0  0  0  0  0  0  0  0  0  0  0
    0.1916    2.5360    6.9886 H   0  0  0  0  0  0  0  0  0  0  0  0
   -1.8664    3.8254    7.5110 H   0  0  0  0  0  0  0  0  0  0  0  0
   -2.3175    6.0028    6.3562 H   0  0  0  0  0  0  0  0  0  0  0  0
   -0.6748    6.8564    4.6796 H   0  0  0  0  0  0  0  0  0  0  0  0
  1  2  1  0
  1 47  1  0
  1 48  1  0
  1 49  1  0
  2  3  1  0
  2 50  1  0
  2 51  1  0
  3  4  1  0
  3 37  1  0
  3 52  1  1
  4  5  1  0
  5  6  2  0
  5 36  1  0
  6  7  1  0
  6 53  1  0
  7  8  2  0
  7 54  1  0
  8  9  1  0
  8 55  1  0
  9 10  1  0
  9 36  2  0
 10 11  1  0
 10 56  1  0
 11 12  2  0
 11 13  1  0
 13 14  2  0
 13 27  1  0
 14 15  1  0
 14 57  1  0
 15 16  2  0
 15 24  1  0
 16 17  1  0
 16 58  1  0
 17 18  1  0
 17 20  2  0
 18 19  1  0
 19 59  1  0
 19 60  1  0
 19 61  1  0
 20 21  1  0
 20 23  1  0
 21 22  1  0
 22 62  1  0
 22 63  1  0
 22 64  1  0
 23 24  2  0
 23 65  1  0
 24 25  1  0
 25 26  1  0
 26 66  1  0
 26 67  1  0
 26 68  1  0
 27 28  1  0
 27 69  1  0
 28 29  2  0
 28 30  1  0
 30 31  2  0
 30 35  1  0
 31 32  1  0
 31 70  1  0
 32 33  2  0
 32 71  1  0
 33 34  1  0
 33 72  1  0
 34 35  2  0
 34 73  1  0
 35 74  1  0
 36 75  1  0
 37 38  2  0
 37 39  1  0
 39 40  1  0
 39 76  1  0
 40 41  2  0
 40 45  1  0
 41 42  1  0
 41 77  1  0
 42 43  2  0
 42 78  1  0
 43 44  1  0
 43 79  1  0
 44 45  2  0
 44 80  1  0
 45 46  1  0
M  END

