
     RDKit          3D

 39 39  0  0  0  0  0  0  0  0999 V2000
    1.4671    1.7941    0.7508 C   0  0  0  0  0  0  0  0  0  0  0  0
    2.6935    1.6138    1.6329 C   0  0  1  0  0  0  0  0  0  0  0  0
    2.3853    1.6793    3.1245 C   0  0  0  0  0  0  0  0  0  0  0  0
    3.2448    0.3187    1.2970 O   0  0  0  0  0  0  0  0  0  0  0  0
    4.5678    0.0823    1.4776 C   0  0  0  0  0  0  0  0  0  0  0  0
    5.3630    1.0180    1.9491 N   0  0  0  0  0  0  0  0  0  0  0  0
    6.6692    0.7410    2.0980 C   0  0  0  0  0  0  0  0  0  0  0  0
    7.2108   -0.4968    1.7769 C   0  0  0  0  0  0  0  0  0  0  0  0
    6.3683   -1.5020    1.2763 C   0  0  0  0  0  0  0  0  0  0  0  0
    5.0103   -1.2232    1.1159 C   0  0  0  0  0  0  0  0  0  0  0  0
    4.0418   -2.1096    0.6291 N   0  0  0  0  0  0  0  0  0  0  0  0
    4.2079   -3.4115    0.2121 C   0  0  0  0  0  0  0  0  0  0  0  0
    5.2848   -3.9867    0.2235 O   0  0  0  0  0  0  0  0  0  0  0  0
    2.9372   -4.0729   -0.3068 C   0  0  0  0  0  0  0  0  0  0  0  0
    2.9145   -4.2187   -1.8413 C   0  0  0  0  0  0  0  0  0  0  0  0
    3.9361   -5.2097   -2.4071 C   0  0  0  0  0  0  0  0  0  0  0  0
    3.8293   -5.3900   -3.9233 C   0  0  0  0  0  0  0  0  0  0  0  0
    2.5202   -5.9126   -4.3126 N   0  0  0  0  0  0  0  0  0  0  0  0
    1.0096    2.7790    0.9319 H   0  0  0  0  0  0  0  0  0  0  0  0
    0.7116    1.0207    0.9649 H   0  0  0  0  0  0  0  0  0  0  0  0
    1.7378    1.7289   -0.3139 H   0  0  0  0  0  0  0  0  0  0  0  0
    3.4558    2.3695    1.3891 H   0  0  0  0  0  0  0  0  0  0  0  0
    1.6660    0.8942    3.4088 H   0  0  0  0  0  0  0  0  0  0  0  0
    1.9479    2.6577    3.3797 H   0  0  0  0  0  0  0  0  0  0  0  0
    3.3038    1.5523    3.7148 H   0  0  0  0  0  0  0  0  0  0  0  0
    7.2955    1.5480    2.4930 H   0  0  0  0  0  0  0  0  0  0  0  0
    8.2771   -0.6880    1.9134 H   0  0  0  0  0  0  0  0  0  0  0  0
    6.7398   -2.4891    1.0095 H   0  0  0  0  0  0  0  0  0  0  0  0
    3.1097   -1.7119    0.5912 H   0  0  0  0  0  0  0  0  0  0  0  0
    2.0473   -3.5122    0.0238 H   0  0  0  0  0  0  0  0  0  0  0  0
    2.8849   -5.0705    0.1593 H   0  0  0  0  0  0  0  0  0  0  0  0
    3.0703   -3.2258   -2.3024 H   0  0  0  0  0  0  0  0  0  0  0  0
    1.9081   -4.5399   -2.1524 H   0  0  0  0  0  0  0  0  0  0  0  0
    3.7971   -6.1927   -1.9172 H   0  0  0  0  0  0  0  0  0  0  0  0
    4.9586   -4.8943   -2.1472 H   0  0  0  0  0  0  0  0  0  0  0  0
    4.6828   -6.0158   -4.2635 H   0  0  0  0  0  0  0  0  0  0  0  0
    3.9594   -4.4080   -4.4125 H   0  0  0  0  0  0  0  0  0  0  0  0
    2.4241   -6.8818   -4.0050 H   0  0  0  0  0  0  0  0  0  0  0  0
    2.4259   -5.9277   -5.3279 H   0  0  0  0  0  0  0  0  0  0  0  0
  1  2  1  0
  1 19  1  0
  1 20  1  0
  1 21  1  0
  2  3  1  0
  2  4  1  0
  2 22  1  6
  3 23  1  0
  3 24  1  0
  3 25  1  0
  4  5  1  0
  5  6  2  0
  5 10  1  0
  6  7  1  0
  7  8  2  0
  7 26  1  0
  8  9  1  0
  8 27  1  0
  9 10  2  0
  9 28  1  0
 10 11  1  0
 11 12  1  0
 11 29  1  0
 12 13  2  0
 12 14  1  0
 14 15  1  0
 14 30  1  0
 14 31  1  0
 15 16  1  0
 15 32  1  0
 15 33  1  0
 16 17  1  0
 16 34  1  0
 16 35  1  0
 17 18  1  0
 17 36  1  0
 17 37  1  0
 18 38  1  0
 18 39  1  0
M  END

