
     RDKit          3D

 23 22  0  0  0  0  0  0  0  0999 V2000
    1.1851    0.2743   -0.2923 C   0  0  0  0  0  0  0  0  0  0  0  0
    2.4127   -0.4099   -0.2607 O   0  0  0  0  0  0  0  0  0  0  0  0
    2.8418   -0.8473    1.0171 C   0  0  1  0  0  0  0  0  0  0  0  0
    2.2496   -2.2350    1.3164 C   0  0  0  0  0  0  0  0  0  0  0  0
    2.5838   -2.7544    3.0420 S   0  0  0  0  0  0  0  0  0  0  0  0
    1.7752   -4.3845    3.0250 C   0  0  0  0  0  0  0  0  0  0  0  0
    4.3677   -0.8525    1.0072 C   0  0  0  0  0  0  0  0  0  0  0  0
    5.0163    0.8247    0.6435 S   0  0  0  0  0  0  0  0  0  0  0  0
    6.6143    0.7300    1.5132 C   0  0  0  0  0  0  0  0  0  0  0  0
    0.9989    0.5659   -1.3363 H   0  0  0  0  0  0  0  0  0  0  0  0
    1.2097    1.1897    0.3303 H   0  0  0  0  0  0  0  0  0  0  0  0
    0.3355   -0.3508    0.0472 H   0  0  0  0  0  0  0  0  0  0  0  0
    2.4979   -0.1336    1.7920 H   0  0  0  0  0  0  0  0  0  0  0  0
    2.6693   -2.9722    0.6118 H   0  0  0  0  0  0  0  0  0  0  0  0
    1.1589   -2.2020    1.1622 H   0  0  0  0  0  0  0  0  0  0  0  0
    1.9044   -4.8149    4.0283 H   0  0  0  0  0  0  0  0  0  0  0  0
    2.2409   -5.0573    2.2882 H   0  0  0  0  0  0  0  0  0  0  0  0
    0.6979   -4.2969    2.8138 H   0  0  0  0  0  0  0  0  0  0  0  0
    4.7251   -1.5673    0.2470 H   0  0  0  0  0  0  0  0  0  0  0  0
    4.7417   -1.1793    1.9890 H   0  0  0  0  0  0  0  0  0  0  0  0
    7.1127    1.6989    1.3629 H   0  0  0  0  0  0  0  0  0  0  0  0
    7.2578   -0.0605    1.0964 H   0  0  0  0  0  0  0  0  0  0  0  0
    6.4828    0.5648    2.5943 H   0  0  0  0  0  0  0  0  0  0  0  0
  1  2  1  0
  1 10  1  0
  1 11  1  0
  1 12  1  0
  2  3  1  0
  3  4  1  0
  3  7  1  0
  3 13  1  1
  4  5  1  0
  4 14  1  0
  4 15  1  0
  5  6  1  0
  6 16  1  0
  6 17  1  0
  6 18  1  0
  7  8  1  0
  7 19  1  0
  7 20  1  0
  8  9  1  0
  9 21  1  0
  9 22  1  0
  9 23  1  0
M  END

