
     RDKit          3D

 46 49  0  0  0  0  0  0  0  0999 V2000
    3.9832    2.3996    1.9535 O   0  0  0  0  0  0  0  0  0  0  0  0
    4.1619    1.5612    1.0766 C   0  0  0  0  0  0  0  0  0  0  0  0
    3.4963    1.6003   -0.1131 N   0  0  0  0  0  0  0  0  0  0  0  0
    2.6153    2.6982   -0.4610 C   0  0  0  0  0  0  0  0  0  0  0  0
    3.3340    3.7923   -1.2943 C   0  0  1  0  0  0  0  0  0  0  0  0
    3.9912    3.1644   -2.4954 C   0  0  0  0  0  0  0  0  0  0  0  0
    3.5274    2.7803   -3.7253 C   0  0  0  0  0  0  0  0  0  0  0  0
    4.6383    2.1807   -4.4086 C   0  0  0  0  0  0  0  0  0  0  0  0
    5.6919    2.2429   -3.5426 C   0  0  0  0  0  0  0  0  0  0  0  0
    5.3094    2.8357   -2.3808 O   0  0  0  0  0  0  0  0  0  0  0  0
    2.4076    4.8413   -1.7315 N   0  0  0  0  0  0  0  0  0  0  0  0
    1.4127    5.3179   -0.7642 C   0  0  0  0  0  0  0  0  0  0  0  0
    1.9929    6.2272    0.3319 C   0  0  0  0  0  0  0  0  0  0  0  0
    2.7223    7.4215   -0.2998 C   0  0  0  0  0  0  0  0  0  0  0  0
    3.7332    6.9512   -1.3552 C   0  0  0  0  0  0  0  0  0  0  0  0
    3.0759    5.9887   -2.3606 C   0  0  0  0  0  0  0  0  0  0  0  0
    5.1210    0.4274    1.2355 C   0  0  0  0  0  0  0  0  0  0  0  0
    5.9830   -0.1801   -0.1587 S   0  0  0  0  0  0  0  0  0  0  0  0
    6.7832   -1.3864    0.7742 C   0  0  0  0  0  0  0  0  0  0  0  0
    6.4345   -1.3296    2.0949 C   0  0  0  0  0  0  0  0  0  0  0  0
    5.4904   -0.2884    2.3672 C   0  0  0  0  0  0  0  0  0  0  0  0
    5.0127   -0.1208    3.6869 N   0  0  0  0  0  0  0  0  0  0  0  0
    4.5318    0.9464    4.3817 C   0  0  0  0  0  0  0  0  0  0  0  0
    4.2875    0.5636    5.6127 N   0  0  0  0  0  0  0  0  0  0  0  0
    4.6252   -0.7484    5.6764 N   0  0  0  0  0  0  0  0  0  0  0  0
    5.0601   -1.1742    4.5510 N   0  0  0  0  0  0  0  0  0  0  0  0
    3.6484    0.8650   -0.7932 H   0  0  0  0  0  0  0  0  0  0  0  0
    2.2490    3.1162    0.4843 H   0  0  0  0  0  0  0  0  0  0  0  0
    1.7592    2.3090   -1.0340 H   0  0  0  0  0  0  0  0  0  0  0  0
    4.1574    4.1707   -0.6516 H   0  0  0  0  0  0  0  0  0  0  0  0
    2.5167    2.9312   -4.0968 H   0  0  0  0  0  0  0  0  0  0  0  0
    4.6503    1.7659   -5.4146 H   0  0  0  0  0  0  0  0  0  0  0  0
    6.7312    1.9308   -3.6018 H   0  0  0  0  0  0  0  0  0  0  0  0
    0.8664    4.4708   -0.3274 H   0  0  0  0  0  0  0  0  0  0  0  0
    0.6624    5.8907   -1.3395 H   0  0  0  0  0  0  0  0  0  0  0  0
    2.6905    5.6500    0.9655 H   0  0  0  0  0  0  0  0  0  0  0  0
    1.1827    6.5726    0.9966 H   0  0  0  0  0  0  0  0  0  0  0  0
    3.2197    8.0308    0.4730 H   0  0  0  0  0  0  0  0  0  0  0  0
    1.9766    8.0806   -0.7829 H   0  0  0  0  0  0  0  0  0  0  0  0
    4.5817    6.4482   -0.8578 H   0  0  0  0  0  0  0  0  0  0  0  0
    4.1618    7.8118   -1.8964 H   0  0  0  0  0  0  0  0  0  0  0  0
    3.8145    5.6204   -3.0879 H   0  0  0  0  0  0  0  0  0  0  0  0
    2.3123    6.5392   -2.9403 H   0  0  0  0  0  0  0  0  0  0  0  0
    7.4953   -2.0618    0.3019 H   0  0  0  0  0  0  0  0  0  0  0  0
    6.8147   -1.9922    2.8700 H   0  0  0  0  0  0  0  0  0  0  0  0
    4.3803    1.9239    3.9310 H   0  0  0  0  0  0  0  0  0  0  0  0
  1  2  2  0
  2  3  1  0
  2 17  1  0
  3  4  1  0
  3 27  1  0
  4  5  1  0
  4 28  1  0
  4 29  1  0
  5  6  1  0
  5 11  1  0
  5 30  1  1
  6  7  2  0
  6 10  1  0
  7  8  1  0
  7 31  1  0
  8  9  2  0
  8 32  1  0
  9 10  1  0
  9 33  1  0
 11 12  1  0
 11 16  1  0
 12 13  1  0
 12 34  1  0
 12 35  1  0
 13 14  1  0
 13 36  1  0
 13 37  1  0
 14 15  1  0
 14 38  1  0
 14 39  1  0
 15 16  1  0
 15 40  1  0
 15 41  1  0
 16 42  1  0
 16 43  1  0
 17 18  1  0
 17 21  2  0
 18 19  1  0
 19 20  2  0
 19 44  1  0
 20 21  1  0
 20 45  1  0
 21 22  1  0
 22 23  1  0
 22 26  1  0
 23 24  2  0
 23 46  1  0
 24 25  1  0
 25 26  2  0
M  END

