
     RDKit          3D

 44 46  0  0  0  0  0  0  0  0999 V2000
    0.2549    2.4722   -1.8347 N   0  0  0  0  0  0  0  0  0  0  0  0
    1.0474    3.6319   -1.4248 C   0  0  1  0  0  0  0  0  0  0  0  0
    2.5695    3.4697   -1.6728 C   0  0  0  0  0  0  0  0  0  0  0  0
    2.9055    3.1039   -3.0377 N   0  0  0  0  0  0  0  0  0  0  0  0
    3.2749    1.8409   -3.3797 C   0  0  0  0  0  0  0  0  0  0  0  0
    3.3634    0.9100   -2.5958 O   0  0  0  0  0  0  0  0  0  0  0  0
    3.5996    1.6112   -4.8612 C   0  0  0  0  0  0  0  0  0  0  0  0
    3.4543    2.7732   -5.7354 N   0  0  0  0  0  0  0  0  0  0  0  0
    2.3984    2.7018   -7.0738 S   0  0  1  0  0  0  0  0  0  0  0  0
    3.1243    3.3431   -8.1715 O   0  0  0  0  0  0  0  0  0  0  0  0
    1.8717    1.3378   -7.1655 O   0  0  0  0  0  0  0  0  0  0  0  0
    1.0334    3.7704   -6.6114 C   0  0  0  0  0  0  0  0  0  0  0  0
    1.0360    5.0967   -7.0562 C   0  0  0  0  0  0  0  0  0  0  0  0
   -0.0175    5.9443   -6.6943 C   0  0  0  0  0  0  0  0  0  0  0  0
   -1.0345    5.4447   -5.8815 C   0  0  0  0  0  0  0  0  0  0  0  0
   -1.0235    4.1140   -5.4442 C   0  0  0  0  0  0  0  0  0  0  0  0
    0.0006    3.2492   -5.8200 C   0  0  0  0  0  0  0  0  0  0  0  0
   -2.2380    3.8877   -4.5770 C   0  0  0  0  0  0  0  0  0  0  0  0
   -2.7750    5.1916   -4.3655 O   0  0  0  0  0  0  0  0  0  0  0  0
   -2.2786    6.1011   -5.3372 C   0  0  0  0  0  0  0  0  0  0  0  0
    0.4951    4.8901   -2.0716 C   0  0  1  0  0  0  0  0  0  0  0  0
   -0.7467    5.5353   -1.5228 C   0  0  0  0  0  0  0  0  0  0  0  0
    0.5864    6.2279   -1.3789 C   0  0  0  0  0  0  0  0  0  0  0  0
    0.5825    1.6334   -1.3528 H   0  0  0  0  0  0  0  0  0  0  0  0
    0.4211    2.2901   -2.8260 H   0  0  0  0  0  0  0  0  0  0  0  0
    0.9257    3.7440   -0.3319 H   0  0  0  0  0  0  0  0  0  0  0  0
    2.9599    2.6627   -1.0356 H   0  0  0  0  0  0  0  0  0  0  0  0
    3.0918    4.4028   -1.4012 H   0  0  0  0  0  0  0  0  0  0  0  0
    2.8750    3.7909   -3.7839 H   0  0  0  0  0  0  0  0  0  0  0  0
    2.9452    0.7997   -5.2145 H   0  0  0  0  0  0  0  0  0  0  0  0
    4.6242    1.2087   -4.9078 H   0  0  0  0  0  0  0  0  0  0  0  0
    4.3226    3.1951   -6.0614 H   0  0  0  0  0  0  0  0  0  0  0  0
    1.8518    5.4468   -7.6905 H   0  0  0  0  0  0  0  0  0  0  0  0
   -0.0308    6.9789   -7.0467 H   0  0  0  0  0  0  0  0  0  0  0  0
    0.0108    2.1977   -5.5252 H   0  0  0  0  0  0  0  0  0  0  0  0
   -1.9883    3.4381   -3.6010 H   0  0  0  0  0  0  0  0  0  0  0  0
   -2.9768    3.2311   -5.0814 H   0  0  0  0  0  0  0  0  0  0  0  0
   -2.0862    7.0745   -4.8544 H   0  0  0  0  0  0  0  0  0  0  0  0
   -3.0208    6.2724   -6.1458 H   0  0  0  0  0  0  0  0  0  0  0  0
    0.5966    4.9098   -3.1639 H   0  0  0  0  0  0  0  0  0  0  0  0
   -1.1844    5.0810   -0.6288 H   0  0  0  0  0  0  0  0  0  0  0  0
   -1.4847    5.9232   -2.2297 H   0  0  0  0  0  0  0  0  0  0  0  0
    1.0406    6.2603   -0.3831 H   0  0  0  0  0  0  0  0  0  0  0  0
    0.7862    7.1169   -1.9845 H   0  0  0  0  0  0  0  0  0  0  0  0
  1  2  1  0
  1 24  1  0
  1 25  1  0
  2  3  1  0
  2 21  1  0
  2 26  1  1
  3  4  1  0
  3 27  1  0
  3 28  1  0
  4  5  1  0
  4 29  1  0
  5  6  2  0
  5  7  1  0
  7  8  1  0
  7 30  1  0
  7 31  1  0
  9  8  1  1
  8 32  1  0
  9 10  2  0
  9 11  2  0
  9 12  1  0
 12 13  2  0
 12 17  1  0
 13 14  1  0
 13 33  1  0
 14 15  2  0
 14 34  1  0
 15 16  1  0
 15 20  1  0
 16 17  2  0
 16 18  1  0
 17 35  1  0
 18 19  1  0
 18 36  1  0
 18 37  1  0
 19 20  1  0
 20 38  1  0
 20 39  1  0
 21 22  1  0
 21 23  1  0
 21 40  1  6
 22 23  1  0
 22 41  1  0
 22 42  1  0
 23 43  1  0
 23 44  1  0
M  END

