
     RDKit          3D

 48 52  0  0  0  0  0  0  0  0999 V2000
    1.6769    0.4349    1.0100 C   0  0  0  0  0  0  0  0  0  0  0  0
    2.4985    0.0228   -0.0566 O   0  0  0  0  0  0  0  0  0  0  0  0
    3.0502    0.9568   -0.8784 C   0  0  0  0  0  0  0  0  0  0  0  0
    2.8409    2.3459   -0.7428 C   0  0  0  0  0  0  0  0  0  0  0  0
    3.4537    3.2384   -1.6260 C   0  0  0  0  0  0  0  0  0  0  0  0
    4.2700    2.7583   -2.6540 C   0  0  0  0  0  0  0  0  0  0  0  0
    5.0533    3.3841   -3.7018 C   0  0  0  0  0  0  0  0  0  0  0  0
    5.2610    4.7122   -4.1067 C   0  0  0  0  0  0  0  0  0  0  0  0
    6.0741    4.9797   -5.2002 C   0  0  0  0  0  0  0  0  0  0  0  0
    6.6885    3.9269   -5.9174 C   0  0  0  0  0  0  0  0  0  0  0  0
    7.4507    4.3096   -6.9755 O   0  0  0  0  0  0  0  0  0  0  0  0
    8.0990    3.3297   -7.7511 C   0  0  0  0  0  0  0  0  0  0  0  0
    6.5007    2.5909   -5.5368 C   0  0  0  0  0  0  0  0  0  0  0  0
    5.6883    2.3424   -4.4213 C   0  0  0  0  0  0  0  0  0  0  0  0
    5.3231    1.1104   -3.8580 N   0  0  0  0  0  0  0  0  0  0  0  0
    5.7548   -0.1628   -4.2987 C   0  0  0  0  0  0  0  0  0  0  0  0
    7.1270   -0.4431   -4.4295 C   0  0  0  0  0  0  0  0  0  0  0  0
    7.5525   -1.6916   -4.8711 C   0  0  0  0  0  0  0  0  0  0  0  0
    6.6153   -2.6954   -5.1773 C   0  0  0  0  0  0  0  0  0  0  0  0
    7.0864   -3.9988   -5.6330 C   0  0  0  0  0  0  0  0  0  0  0  0
    8.3084   -4.3938   -5.8322 N   0  0  0  0  0  0  0  0  0  0  0  0
    8.2396   -5.7056   -6.2599 N   0  0  0  0  0  0  0  0  0  0  0  0
    6.9844   -6.0245   -6.2947 C   0  0  0  0  0  0  0  0  0  0  0  0
    6.3595   -7.3122   -6.6831 C   0  0  0  0  0  0  0  0  0  0  0  0
    6.1903   -4.9875   -5.9087 O   0  0  0  0  0  0  0  0  0  0  0  0
    5.2449   -2.4186   -5.0364 C   0  0  0  0  0  0  0  0  0  0  0  0
    4.8189   -1.1627   -4.6091 C   0  0  0  0  0  0  0  0  0  0  0  0
    4.4575    1.3540   -2.7818 C   0  0  0  0  0  0  0  0  0  0  0  0
    3.8664    0.4490   -1.9016 C   0  0  0  0  0  0  0  0  0  0  0  0
    1.3576   -0.4785    1.5303 H   0  0  0  0  0  0  0  0  0  0  0  0
    0.7794    0.9751    0.6572 H   0  0  0  0  0  0  0  0  0  0  0  0
    2.2191    1.0805    1.7249 H   0  0  0  0  0  0  0  0  0  0  0  0
    2.2057    2.7361    0.0517 H   0  0  0  0  0  0  0  0  0  0  0  0
    3.2925    4.3124   -1.5038 H   0  0  0  0  0  0  0  0  0  0  0  0
    4.7840    5.5354   -3.5691 H   0  0  0  0  0  0  0  0  0  0  0  0
    6.2565    6.0010   -5.5386 H   0  0  0  0  0  0  0  0  0  0  0  0
    8.6500    3.8642   -8.5368 H   0  0  0  0  0  0  0  0  0  0  0  0
    7.3805    2.6377   -8.2273 H   0  0  0  0  0  0  0  0  0  0  0  0
    8.8157    2.7372   -7.1534 H   0  0  0  0  0  0  0  0  0  0  0  0
    6.9578    1.7709   -6.0865 H   0  0  0  0  0  0  0  0  0  0  0  0
    7.8580    0.3234   -4.1664 H   0  0  0  0  0  0  0  0  0  0  0  0
    8.6162   -1.9150   -4.9705 H   0  0  0  0  0  0  0  0  0  0  0  0
    7.1513   -8.0187   -6.9615 H   0  0  0  0  0  0  0  0  0  0  0  0
    5.6771   -7.1783   -7.5377 H   0  0  0  0  0  0  0  0  0  0  0  0
    5.7746   -7.7342   -5.8503 H   0  0  0  0  0  0  0  0  0  0  0  0
    4.5099   -3.1886   -5.2775 H   0  0  0  0  0  0  0  0  0  0  0  0
    3.7529   -0.9453   -4.5246 H   0  0  0  0  0  0  0  0  0  0  0  0
    4.0146   -0.6284   -1.9689 H   0  0  0  0  0  0  0  0  0  0  0  0
  1  2  1  0
  1 30  1  0
  1 31  1  0
  1 32  1  0
  2  3  1  0
  3  4  2  0
  3 29  1  0
  4  5  1  0
  4 33  1  0
  5  6  2  0
  5 34  1  0
  6  7  1  0
  6 28  1  0
  7  8  2  0
  7 14  1  0
  8  9  1  0
  8 35  1  0
  9 10  2  0
  9 36  1  0
 10 11  1  0
 10 13  1  0
 11 12  1  0
 12 37  1  0
 12 38  1  0
 12 39  1  0
 13 14  2  0
 13 40  1  0
 14 15  1  0
 15 16  1  0
 15 28  1  0
 16 17  2  0
 16 27  1  0
 17 18  1  0
 17 41  1  0
 18 19  2  0
 18 42  1  0
 19 20  1  0
 19 26  1  0
 20 21  2  0
 20 25  1  0
 21 22  1  0
 22 23  2  0
 23 24  1  0
 23 25  1  0
 24 43  1  0
 24 44  1  0
 24 45  1  0
 26 27  2  0
 26 46  1  0
 27 47  1  0
 28 29  2  0
 29 48  1  0
M  END

