
     RDKit          3D

 36 37  0  0  0  0  0  0  0  0999 V2000
    4.2870   -2.8767    1.8297 C   0  0  0  0  0  0  0  0  0  0  0  0
    3.3685   -2.1665    0.9507 N   0  0  0  0  0  0  0  0  0  0  0  0
    3.6290   -0.7357    0.8278 C   0  0  0  0  0  0  0  0  0  0  0  0
    4.7639   -0.4752   -0.1231 C   0  0  0  0  0  0  0  0  0  0  0  0
    5.7362    0.5057   -0.1762 C   0  0  0  0  0  0  0  0  0  0  0  0
    6.5105    0.2446   -1.3489 C   0  0  0  0  0  0  0  0  0  0  0  0
    7.8927    1.1599   -1.9492 S   0  0  1  0  0  0  0  0  0  0  0  0
    8.5694    1.7396   -0.7841 O   0  0  0  0  0  0  0  0  0  0  0  0
    8.5764    0.3163   -2.9296 O   0  0  0  0  0  0  0  0  0  0  0  0
    7.3183    2.4629   -2.8268 N   0  0  0  0  0  0  0  0  0  0  0  0
    6.6760    3.6058   -2.1804 C   0  0  0  0  0  0  0  0  0  0  0  0
    6.9335    4.8846   -2.9315 C   0  0  0  0  0  0  0  0  0  0  0  0
    5.6314    5.6856   -3.7710 S   0  0  0  0  0  0  0  0  0  0  0  0
    6.6865    6.9307   -4.3365 C   0  0  0  0  0  0  0  0  0  0  0  0
    7.9709    6.7304   -3.9024 C   0  0  0  0  0  0  0  0  0  0  0  0
    8.1295    5.5551   -3.0948 C   0  0  0  0  0  0  0  0  0  0  0  0
    9.4446    5.1256   -2.5007 C   0  0  0  0  0  0  0  0  0  0  0  0
    5.9988   -0.8874   -1.9642 C   0  0  0  0  0  0  0  0  0  0  0  0
    4.9398   -1.2989   -1.2112 N   0  0  0  0  0  0  0  0  0  0  0  0
    4.3824   -2.1383   -1.3353 H   0  0  0  0  0  0  0  0  0  0  0  0
    4.0098   -3.9411    1.8784 H   0  0  0  0  0  0  0  0  0  0  0  0
    4.3169   -2.4784    2.8665 H   0  0  0  0  0  0  0  0  0  0  0  0
    5.3119   -2.8192    1.4294 H   0  0  0  0  0  0  0  0  0  0  0  0
    2.4082   -2.3170    1.2509 H   0  0  0  0  0  0  0  0  0  0  0  0
    3.8539   -0.2368    1.7943 H   0  0  0  0  0  0  0  0  0  0  0  0
    2.7076   -0.2631    0.4414 H   0  0  0  0  0  0  0  0  0  0  0  0
    5.8978    1.3038    0.5444 H   0  0  0  0  0  0  0  0  0  0  0  0
    6.9910    2.2004   -3.7537 H   0  0  0  0  0  0  0  0  0  0  0  0
    7.1086    3.6737   -1.1709 H   0  0  0  0  0  0  0  0  0  0  0  0
    5.5872    3.4542   -2.0556 H   0  0  0  0  0  0  0  0  0  0  0  0
    6.3011    7.7424   -4.9520 H   0  0  0  0  0  0  0  0  0  0  0  0
    8.7952    7.4041   -4.1466 H   0  0  0  0  0  0  0  0  0  0  0  0
   10.2186    5.0456   -3.2820 H   0  0  0  0  0  0  0  0  0  0  0  0
    9.3768    4.1502   -2.0013 H   0  0  0  0  0  0  0  0  0  0  0  0
    9.8059    5.8652   -1.7656 H   0  0  0  0  0  0  0  0  0  0  0  0
    6.3433   -1.4181   -2.8477 H   0  0  0  0  0  0  0  0  0  0  0  0
  1  2  1  0
  1 21  1  0
  1 22  1  0
  1 23  1  0
  2  3  1  0
  2 24  1  0
  3  4  1  0
  3 25  1  0
  3 26  1  0
  4  5  2  0
  4 19  1  0
  5  6  1  0
  5 27  1  0
  6  7  1  0
  6 18  2  0
  7  8  2  0
  7  9  2  0
  7 10  1  6
 10 11  1  0
 10 28  1  0
 11 12  1  0
 11 29  1  0
 11 30  1  0
 12 13  1  0
 12 16  2  0
 13 14  1  0
 14 15  2  0
 14 31  1  0
 15 16  1  0
 15 32  1  0
 16 17  1  0
 17 33  1  0
 17 34  1  0
 17 35  1  0
 18 19  1  0
 18 36  1  0
 19 20  1  0
M  END

