
     RDKit          3D

 62 66  0  0  0  0  0  0  0  0999 V2000
    2.4237    0.5165    1.8231 C   0  0  0  0  0  0  0  0  0  0  0  0
    3.4518    1.0985    0.9006 C   0  0  0  0  0  0  0  0  0  0  0  0
    4.8708    0.9134    1.0248 C   0  0  0  0  0  0  0  0  0  0  0  0
    5.5700    0.1764    2.0164 C   0  0  0  0  0  0  0  0  0  0  0  0
    6.1641   -0.4193    2.8206 N   0  0  0  0  0  0  0  0  0  0  0  0
    5.4842    1.6078   -0.0160 C   0  0  0  0  0  0  0  0  0  0  0  0
    6.8535    1.7701   -0.2533 N   0  0  0  0  0  0  0  0  0  0  0  0
    7.5788    0.9981   -1.1307 C   0  0  0  0  0  0  0  0  0  0  0  0
    7.0908    0.2445   -1.9517 O   0  0  0  0  0  0  0  0  0  0  0  0
    9.1006    1.2037   -1.0214 C   0  0  0  0  0  0  0  0  0  0  0  0
    9.5655    1.4773    0.3108 N   0  0  0  0  0  0  0  0  0  0  0  0
    9.7174    0.3623    1.2421 C   0  0  0  0  0  0  0  0  0  0  0  0
   10.3958    1.0046    2.4516 C   0  0  0  0  0  0  0  0  0  0  0  0
   11.3194    2.0434    1.8015 C   0  0  0  0  0  0  0  0  0  0  0  0
   10.4845    2.5623    0.5965 C   0  0  2  0  0  0  0  0  0  0  0  0
   11.1591    2.7781   -0.2561 H   0  0  0  0  0  0  0  0  0  0  0  0
    9.7475    3.8582    0.9144 C   0  0  0  0  0  0  0  0  0  0  0  0
    8.4805    3.9574    1.1527 N   0  0  0  0  0  0  0  0  0  0  0  0
    8.1011    5.2591    1.4371 C   0  0  0  0  0  0  0  0  0  0  0  0
    6.7974    5.6828    1.7451 C   0  0  0  0  0  0  0  0  0  0  0  0
    6.5716    7.0307    2.0094 C   0  0  0  0  0  0  0  0  0  0  0  0
    7.6267    7.9620    1.9714 C   0  0  0  0  0  0  0  0  0  0  0  0
    8.9283    7.5622    1.6700 C   0  0  0  0  0  0  0  0  0  0  0  0
    9.1556    6.2069    1.4049 C   0  0  0  0  0  0  0  0  0  0  0  0
   10.6486    5.3877    0.9978 S   0  0  0  0  0  0  0  0  0  0  0  0
    4.4990    2.2011   -0.7672 N   0  0  0  0  0  0  0  0  0  0  0  0
    4.7514    3.0422   -1.9308 C   0  0  0  0  0  0  0  0  0  0  0  0
    4.8685    2.2911   -3.2637 C   0  0  1  0  0  0  0  0  0  0  0  0
    5.5503    1.4345   -3.1156 H   0  0  0  0  0  0  0  0  0  0  0  0
    3.5810    1.8116   -3.9405 C   0  0  0  0  0  0  0  0  0  0  0  0
    4.0188    1.7627   -5.4097 C   0  0  0  0  0  0  0  0  0  0  0  0
    4.9436    2.9860   -5.5061 C   0  0  0  0  0  0  0  0  0  0  0  0
    5.4391    3.2205   -4.1910 O   0  0  0  0  0  0  0  0  0  0  0  0
    3.2556    1.8970   -0.2146 C   0  0  0  0  0  0  0  0  0  0  0  0
    1.9763    2.4281   -0.7793 C   0  0  0  0  0  0  0  0  0  0  0  0
    2.6202    0.7955    2.8716 H   0  0  0  0  0  0  0  0  0  0  0  0
    2.4247   -0.5860    1.7837 H   0  0  0  0  0  0  0  0  0  0  0  0
    1.4079    0.8545    1.5733 H   0  0  0  0  0  0  0  0  0  0  0  0
    7.3983    2.3373    0.4128 H   0  0  0  0  0  0  0  0  0  0  0  0
    9.3551    2.0461   -1.6872 H   0  0  0  0  0  0  0  0  0  0  0  0
    9.5557    0.2960   -1.4659 H   0  0  0  0  0  0  0  0  0  0  0  0
   10.3517   -0.4430    0.8089 H   0  0  0  0  0  0  0  0  0  0  0  0
    8.7438   -0.0875    1.4980 H   0  0  0  0  0  0  0  0  0  0  0  0
   10.9378    0.2779    3.0743 H   0  0  0  0  0  0  0  0  0  0  0  0
    9.6420    1.4976    3.0856 H   0  0  0  0  0  0  0  0  0  0  0  0
   12.2294    1.5556    1.4162 H   0  0  0  0  0  0  0  0  0  0  0  0
   11.6345    2.8492    2.4799 H   0  0  0  0  0  0  0  0  0  0  0  0
    5.9885    4.9501    1.7771 H   0  0  0  0  0  0  0  0  0  0  0  0
    5.5624    7.3719    2.2521 H   0  0  0  0  0  0  0  0  0  0  0  0
    7.4251    9.0150    2.1826 H   0  0  0  0  0  0  0  0  0  0  0  0
    9.7440    8.2877    1.6432 H   0  0  0  0  0  0  0  0  0  0  0  0
    5.7075    3.5588   -1.7683 H   0  0  0  0  0  0  0  0  0  0  0  0
    3.9684    3.8116   -1.9959 H   0  0  0  0  0  0  0  0  0  0  0  0
    2.7771    2.5561   -3.8083 H   0  0  0  0  0  0  0  0  0  0  0  0
    3.2269    0.8439   -3.5560 H   0  0  0  0  0  0  0  0  0  0  0  0
    3.1798    1.8021   -6.1207 H   0  0  0  0  0  0  0  0  0  0  0  0
    4.5821    0.8360   -5.6049 H   0  0  0  0  0  0  0  0  0  0  0  0
    4.3958    3.8831   -5.8521 H   0  0  0  0  0  0  0  0  0  0  0  0
    5.7878    2.8239   -6.1991 H   0  0  0  0  0  0  0  0  0  0  0  0
    1.9839    3.5280   -0.8693 H   0  0  0  0  0  0  0  0  0  0  0  0
    1.1405    2.1631   -0.1183 H   0  0  0  0  0  0  0  0  0  0  0  0
    1.7470    2.0201   -1.7767 H   0  0  0  0  0  0  0  0  0  0  0  0
  1  2  1  0
  1 36  1  0
  1 37  1  0
  1 38  1  0
  2  3  1  0
  2 34  2  0
  3  4  1  0
  3  6  2  0
  4  5  3  0
  6  7  1  0
  6 26  1  0
  7  8  1  0
  7 39  1  0
  8  9  2  0
  8 10  1  0
 10 11  1  0
 10 40  1  0
 10 41  1  0
 11 12  1  0
 11 15  1  0
 12 13  1  0
 12 42  1  0
 12 43  1  0
 13 14  1  0
 13 44  1  0
 13 45  1  0
 14 15  1  0
 14 46  1  0
 14 47  1  0
 15 16  1  6
 15 17  1  0
 17 18  2  0
 17 25  1  0
 18 19  1  0
 19 20  2  0
 19 24  1  0
 20 21  1  0
 20 48  1  0
 21 22  2  0
 21 49  1  0
 22 23  1  0
 22 50  1  0
 23 24  2  0
 23 51  1  0
 24 25  1  0
 26 27  1  0
 26 34  1  0
 27 28  1  0
 27 52  1  0
 27 53  1  0
 28 29  1  1
 28 30  1  0
 28 33  1  0
 30 31  1  0
 30 54  1  0
 30 55  1  0
 31 32  1  0
 31 56  1  0
 31 57  1  0
 32 33  1  0
 32 58  1  0
 32 59  1  0
 34 35  1  0
 35 60  1  0
 35 61  1  0
 35 62  1  0
M  END

