
     RDKit          3D

 50 54  0  0  0  0  0  0  0  0999 V2000
    1.2697    1.0397    2.2901 C   0  0  0  0  0  0  0  0  0  0  0  0
    2.4646    0.6277    1.5616 N   0  0  0  0  0  0  0  0  0  0  0  0
    3.1860    1.4684    0.7018 C   0  0  0  0  0  0  0  0  0  0  0  0
    2.8551    2.4953    0.0168 N   0  0  0  0  0  0  0  0  0  0  0  0
    1.5494    2.9051   -0.0735 N   0  0  0  0  0  0  0  0  0  0  0  0
    1.2520    4.1288   -0.6535 C   0  0  0  0  0  0  0  0  0  0  0  0
    2.0928    4.9726   -0.8809 O   0  0  0  0  0  0  0  0  0  0  0  0
   -0.2367    4.3167   -0.9377 C   0  0  0  0  0  0  0  0  0  0  0  0
   -0.8768    5.5721   -0.2995 C   0  0  1  0  0  0  0  0  0  0  0  0
   -0.5945    5.6410    1.2207 C   0  0  0  0  0  0  0  0  0  0  0  0
   -1.2741    6.8773    1.8392 C   0  0  2  0  0  0  0  0  0  0  0  0
   -1.0516    6.9167    2.9189 H   0  0  0  0  0  0  0  0  0  0  0  0
   -2.7962    6.7989    1.6206 C   0  0  0  0  0  0  0  0  0  0  0  0
   -3.0892    6.7528    0.1096 C   0  0  1  0  0  0  0  0  0  0  0  0
   -4.1778    6.6973   -0.0602 H   0  0  0  0  0  0  0  0  0  0  0  0
   -2.5424    8.0329   -0.5606 C   0  0  0  0  0  0  0  0  0  0  0  0
   -1.0280    8.0917   -0.3320 C   0  0  1  0  0  0  0  0  0  0  0  0
   -0.3134    9.7505   -1.2072 Br  0  0  0  0  0  0  0  0  0  0  0  0
   -0.7199    8.1551    1.1688 C   0  0  0  0  0  0  0  0  0  0  0  0
   -0.3435    6.8734   -0.9631 C   0  0  0  0  0  0  0  0  0  0  0  0
   -2.4103    5.5170   -0.5086 C   0  0  0  0  0  0  0  0  0  0  0  0
    4.8715    0.8761    0.5378 S   0  0  0  0  0  0  0  0  0  0  0  0
    4.5066   -0.5365    1.5257 C   0  0  0  0  0  0  0  0  0  0  0  0
    5.3564   -1.5845    1.8723 C   0  0  0  0  0  0  0  0  0  0  0  0
    4.8640   -2.6171    2.6819 C   0  0  0  0  0  0  0  0  0  0  0  0
    3.5425   -2.5894    3.1359 C   0  0  0  0  0  0  0  0  0  0  0  0
    2.6856   -1.5354    2.7918 C   0  0  0  0  0  0  0  0  0  0  0  0
    3.1722   -0.5067    1.9795 C   0  0  0  0  0  0  0  0  0  0  0  0
    1.0544    2.0940    2.0928 H   0  0  0  0  0  0  0  0  0  0  0  0
    1.4367    0.9227    3.3730 H   0  0  0  0  0  0  0  0  0  0  0  0
    0.3913    0.4324    2.0106 H   0  0  0  0  0  0  0  0  0  0  0  0
    0.8165    2.1986   -0.0707 H   0  0  0  0  0  0  0  0  0  0  0  0
   -0.8065    3.4284   -0.6138 H   0  0  0  0  0  0  0  0  0  0  0  0
   -0.3479    4.3789   -2.0345 H   0  0  0  0  0  0  0  0  0  0  0  0
    0.4928    5.6857    1.3962 H   0  0  0  0  0  0  0  0  0  0  0  0
   -0.9664    4.7230    1.7110 H   0  0  0  0  0  0  0  0  0  0  0  0
   -3.2932    7.6711    2.0787 H   0  0  0  0  0  0  0  0  0  0  0  0
   -3.2062    5.9014    2.1154 H   0  0  0  0  0  0  0  0  0  0  0  0
   -3.0254    8.9273   -0.1355 H   0  0  0  0  0  0  0  0  0  0  0  0
   -2.7591    8.0262   -1.6407 H   0  0  0  0  0  0  0  0  0  0  0  0
   -1.1802    9.0529    1.6111 H   0  0  0  0  0  0  0  0  0  0  0  0
    0.3675    8.2317    1.3251 H   0  0  0  0  0  0  0  0  0  0  0  0
    0.7468    6.9306   -0.8468 H   0  0  0  0  0  0  0  0  0  0  0  0
   -0.5519    6.8481   -2.0454 H   0  0  0  0  0  0  0  0  0  0  0  0
   -2.6354    5.4591   -1.5881 H   0  0  0  0  0  0  0  0  0  0  0  0
   -2.8162    4.5979   -0.0497 H   0  0  0  0  0  0  0  0  0  0  0  0
    6.3903   -1.5984    1.5204 H   0  0  0  0  0  0  0  0  0  0  0  0
    5.5205   -3.4452    2.9581 H   0  0  0  0  0  0  0  0  0  0  0  0
    3.1662   -3.3981    3.7667 H   0  0  0  0  0  0  0  0  0  0  0  0
    1.6541   -1.5284    3.1477 H   0  0  0  0  0  0  0  0  0  0  0  0
  1  2  1  0
  1 29  1  0
  1 30  1  0
  1 31  1  0
  2  3  1  0
  2 28  1  0
  3  4  2  0
  3 22  1  0
  4  5  1  0
  5  6  1  0
  5 32  1  0
  6  7  2  0
  6  8  1  0
  9  8  1  6
  8 33  1  0
  8 34  1  0
  9 10  1  0
  9 20  1  0
  9 21  1  0
 10 11  1  0
 10 35  1  0
 10 36  1  0
 11 12  1  1
 11 13  1  0
 11 19  1  0
 13 14  1  0
 13 37  1  0
 13 38  1  0
 14 15  1  1
 14 16  1  0
 14 21  1  0
 16 17  1  0
 16 39  1  0
 16 40  1  0
 17 18  1  6
 17 19  1  0
 17 20  1  0
 19 41  1  0
 19 42  1  0
 20 43  1  0
 20 44  1  0
 21 45  1  0
 21 46  1  0
 22 23  1  0
 23 24  1  0
 23 28  2  0
 24 25  2  0
 24 47  1  0
 25 26  1  0
 25 48  1  0
 26 27  2  0
 26 49  1  0
 27 28  1  0
 27 50  1  0
M  END

