
     RDKit          3D

 43 45  0  0  0  0  0  0  0  0999 V2000
    3.8540    1.7654    2.4809 C   0  0  0  0  0  0  0  0  0  0  0  0
    3.8342    0.8689    1.2661 C   0  0  0  0  0  0  0  0  0  0  0  0
    3.2796    1.3316    0.0637 C   0  0  0  0  0  0  0  0  0  0  0  0
    3.2571    0.5182   -1.0700 C   0  0  0  0  0  0  0  0  0  0  0  0
    3.7762   -0.7725   -1.0102 C   0  0  0  0  0  0  0  0  0  0  0  0
    4.3259   -1.2680    0.1895 C   0  0  0  0  0  0  0  0  0  0  0  0
    4.8889   -2.5463    0.2529 N   0  0  0  0  0  0  0  0  0  0  0  0
    4.3361   -3.6141   -0.1614 C   0  0  0  0  0  0  0  0  0  0  0  0
    2.6420   -3.8359   -0.7573 S   0  0  0  0  0  0  0  0  0  0  0  0
    2.9020   -5.5633   -0.8988 C   0  0  0  0  0  0  0  0  0  0  0  0
    4.1613   -5.9339   -0.5587 C   0  0  0  0  0  0  0  0  0  0  0  0
    4.6227   -7.3393   -0.4890 C   0  0  0  0  0  0  0  0  0  0  0  0
    4.4188   -8.2045   -1.5791 C   0  0  0  0  0  0  0  0  0  0  0  0
    4.7854   -9.5496   -1.5130 C   0  0  0  0  0  0  0  0  0  0  0  0
    5.3705  -10.0451   -0.3447 C   0  0  0  0  0  0  0  0  0  0  0  0
    5.8421  -11.7241   -0.2556 Cl  0  0  0  0  0  0  0  0  0  0  0  0
    5.5803   -9.2072    0.7556 C   0  0  0  0  0  0  0  0  0  0  0  0
    5.2045   -7.8665    0.6798 C   0  0  0  0  0  0  0  0  0  0  0  0
    4.9810   -4.8541   -0.1917 N   0  0  0  0  0  0  0  0  0  0  0  0
    6.4438   -4.9109   -0.0956 C   0  0  0  0  0  0  0  0  0  0  0  0
    7.1209   -5.1339   -1.4522 C   0  0  0  0  0  0  0  0  0  0  0  0
    6.8586   -4.1137   -2.3837 O   0  0  0  0  0  0  0  0  0  0  0  0
    4.3720   -0.4351    1.3370 C   0  0  0  0  0  0  0  0  0  0  0  0
    4.9774   -0.9410    2.6224 C   0  0  0  0  0  0  0  0  0  0  0  0
    3.3812    2.7353    2.2685 H   0  0  0  0  0  0  0  0  0  0  0  0
    4.8834    1.9623    2.8264 H   0  0  0  0  0  0  0  0  0  0  0  0
    3.3215    1.3104    3.3335 H   0  0  0  0  0  0  0  0  0  0  0  0
    2.8682    2.3436    0.0178 H   0  0  0  0  0  0  0  0  0  0  0  0
    2.8387    0.8936   -2.0077 H   0  0  0  0  0  0  0  0  0  0  0  0
    3.7820   -1.4020   -1.9023 H   0  0  0  0  0  0  0  0  0  0  0  0
    2.0846   -6.2344   -1.1525 H   0  0  0  0  0  0  0  0  0  0  0  0
    3.9764   -7.8131   -2.4979 H   0  0  0  0  0  0  0  0  0  0  0  0
    4.6280  -10.2125   -2.3653 H   0  0  0  0  0  0  0  0  0  0  0  0
    6.0237   -9.6103    1.6676 H   0  0  0  0  0  0  0  0  0  0  0  0
    5.3393   -7.2281    1.5557 H   0  0  0  0  0  0  0  0  0  0  0  0
    6.7482   -5.7014    0.6059 H   0  0  0  0  0  0  0  0  0  0  0  0
    6.7519   -3.9424    0.3190 H   0  0  0  0  0  0  0  0  0  0  0  0
    6.8505   -6.1335   -1.8480 H   0  0  0  0  0  0  0  0  0  0  0  0
    8.2110   -5.1421   -1.2868 H   0  0  0  0  0  0  0  0  0  0  0  0
    5.9134   -4.1172   -2.5843 H   0  0  0  0  0  0  0  0  0  0  0  0
    5.4495   -1.9197    2.4730 H   0  0  0  0  0  0  0  0  0  0  0  0
    4.2155   -1.0487    3.4148 H   0  0  0  0  0  0  0  0  0  0  0  0
    5.7377   -0.2443    3.0127 H   0  0  0  0  0  0  0  0  0  0  0  0
  1  2  1  0
  1 25  1  0
  1 26  1  0
  1 27  1  0
  2  3  2  0
  2 23  1  0
  3  4  1  0
  3 28  1  0
  4  5  2  0
  4 29  1  0
  5  6  1  0
  5 30  1  0
  6  7  1  0
  6 23  2  0
  7  8  2  0
  8  9  1  0
  8 19  1  0
  9 10  1  0
 10 11  2  0
 10 31  1  0
 11 12  1  0
 11 19  1  0
 12 13  2  0
 12 18  1  0
 13 14  1  0
 13 32  1  0
 14 15  2  0
 14 33  1  0
 15 16  1  0
 15 17  1  0
 17 18  2  0
 17 34  1  0
 18 35  1  0
 19 20  1  0
 20 21  1  0
 20 36  1  0
 20 37  1  0
 21 22  1  0
 21 38  1  0
 21 39  1  0
 22 40  1  0
 23 24  1  0
 24 41  1  0
 24 42  1  0
 24 43  1  0
M  END

