
     RDKit          3D

 43 45  0  0  0  0  0  0  0  0999 V2000
    1.8324   -0.0509    1.3578 O   0  0  0  0  0  0  0  0  0  0  0  0
    2.6902    0.0351    0.4986 C   0  0  0  0  0  0  0  0  0  0  0  0
    2.8139   -0.9409   -0.4865 N   0  0  0  0  0  0  0  0  0  0  0  0
    3.8592   -1.1388   -1.3858 C   0  0  0  0  0  0  0  0  0  0  0  0
    3.8276   -2.1737   -2.1268 N   0  0  0  0  0  0  0  0  0  0  0  0
    4.8901   -2.4548   -3.0641 C   0  0  0  0  0  0  0  0  0  0  0  0
    4.5235   -3.6680   -3.9232 C   0  0  1  0  0  0  0  0  0  0  0  0
    3.3261   -3.4226   -4.8775 C   0  0  0  0  0  0  0  0  0  0  0  0
    4.0206   -3.3286   -6.2178 C   0  0  0  0  0  0  0  0  0  0  0  0
    5.3037   -3.6683   -6.0507 C   0  0  0  0  0  0  0  0  0  0  0  0
    5.6623   -3.9666   -4.7703 O   0  0  0  0  0  0  0  0  0  0  0  0
    4.9334   -0.0762   -1.3126 C   0  0  0  0  0  0  0  0  0  0  0  0
    4.3676    1.2526   -0.8220 C   0  0  0  0  0  0  0  0  0  0  0  0
    3.6166    1.0653    0.4166 N   0  0  0  0  0  0  0  0  0  0  0  0
    3.4531    2.1904    1.3085 C   0  0  1  0  0  0  0  0  0  0  0  0
    4.7123    2.6250    2.0744 C   0  0  0  0  0  0  0  0  0  0  0  0
    4.4512    4.1073    2.3435 C   0  0  2  0  0  0  0  0  0  0  0  0
    3.7189    4.3441    3.5407 O   0  0  0  0  0  0  0  0  0  0  0  0
    3.6871    4.5294    1.0645 C   0  0  2  0  0  0  0  0  0  0  0  0
    2.6369    5.6180    1.3125 C   0  0  0  0  0  0  0  0  0  0  0  0
    3.1827    6.7208    1.9923 O   0  0  0  0  0  0  0  0  0  0  0  0
    3.0546    3.3465    0.5672 O   0  0  0  0  0  0  0  0  0  0  0  0
    2.1224   -1.6838   -0.4340 H   0  0  0  0  0  0  0  0  0  0  0  0
    5.8424   -2.6819   -2.5480 H   0  0  0  0  0  0  0  0  0  0  0  0
    5.0975   -1.6028   -3.7437 H   0  0  0  0  0  0  0  0  0  0  0  0
    4.3628   -4.5338   -3.2635 H   0  0  0  0  0  0  0  0  0  0  0  0
    2.7726   -2.5126   -4.5911 H   0  0  0  0  0  0  0  0  0  0  0  0
    2.5965   -4.2516   -4.8491 H   0  0  0  0  0  0  0  0  0  0  0  0
    3.5473   -3.0704   -7.1639 H   0  0  0  0  0  0  0  0  0  0  0  0
    6.1078   -3.7535   -6.7834 H   0  0  0  0  0  0  0  0  0  0  0  0
    5.4019    0.0501   -2.2993 H   0  0  0  0  0  0  0  0  0  0  0  0
    5.7221   -0.4316   -0.6249 H   0  0  0  0  0  0  0  0  0  0  0  0
    3.7252    1.7075   -1.5973 H   0  0  0  0  0  0  0  0  0  0  0  0
    5.1845    1.9631   -0.6350 H   0  0  0  0  0  0  0  0  0  0  0  0
    2.6493    1.8890    1.9996 H   0  0  0  0  0  0  0  0  0  0  0  0
    5.6051    2.5128    1.4391 H   0  0  0  0  0  0  0  0  0  0  0  0
    4.8741    2.0502    2.9972 H   0  0  0  0  0  0  0  0  0  0  0  0
    5.3776    4.6861    2.4596 H   0  0  0  0  0  0  0  0  0  0  0  0
    2.9202    3.7980    3.5453 H   0  0  0  0  0  0  0  0  0  0  0  0
    4.4174    4.8949    0.3177 H   0  0  0  0  0  0  0  0  0  0  0  0
    1.7828    5.1617    1.8514 H   0  0  0  0  0  0  0  0  0  0  0  0
    2.2447    5.9754    0.3476 H   0  0  0  0  0  0  0  0  0  0  0  0
    3.3676    6.4141    2.8934 H   0  0  0  0  0  0  0  0  0  0  0  0
  1  2  2  0
  2  3  1  0
  2 14  1  0
  3  4  1  0
  3 23  1  0
  4  5  2  0
  4 12  1  0
  5  6  1  0
  6  7  1  0
  6 24  1  0
  6 25  1  0
  7  8  1  0
  7 11  1  0
  7 26  1  1
  8  9  1  0
  8 27  1  0
  8 28  1  0
  9 10  2  0
  9 29  1  0
 10 11  1  0
 10 30  1  0
 12 13  1  0
 12 31  1  0
 12 32  1  0
 13 14  1  0
 13 33  1  0
 13 34  1  0
 14 15  1  0
 15 16  1  0
 15 22  1  0
 15 35  1  1
 16 17  1  0
 16 36  1  0
 16 37  1  0
 17 18  1  0
 17 19  1  0
 17 38  1  1
 18 39  1  0
 19 20  1  0
 19 22  1  0
 19 40  1  6
 20 21  1  0
 20 41  1  0
 20 42  1  0
 21 43  1  0
M  END

