
     RDKit          3D

 39 42  0  0  0  0  0  0  0  0999 V2000
    3.0792   -0.2518    3.0436 O   0  0  0  0  0  0  0  0  0  0  0  0
    2.5841    0.3417    2.1252 C   0  0  0  0  0  0  0  0  0  0  0  0
    1.2772    0.6479    2.1044 O   0  0  0  0  0  0  0  0  0  0  0  0
    3.3707    0.7767    0.8611 C   0  0  2  0  0  0  0  0  0  0  0  0
    3.1038    0.0476    0.0821 H   0  0  0  0  0  0  0  0  0  0  0  0
    4.8946    0.7177    1.0886 C   0  0  0  0  0  0  0  0  0  0  0  0
    5.3431    1.9679    1.7769 C   0  0  0  0  0  0  0  0  0  0  0  0
    6.5476    2.1786    2.4022 N   0  0  0  0  0  0  0  0  0  0  0  0
    6.4857    3.4037    2.8690 C   0  0  0  0  0  0  0  0  0  0  0  0
    5.2893    4.0064    2.5730 N   0  0  0  0  0  0  0  0  0  0  0  0
    5.0134    4.9492    2.8193 H   0  0  0  0  0  0  0  0  0  0  0  0
    4.5491    3.0870    1.8632 C   0  0  0  0  0  0  0  0  0  0  0  0
    3.1758    3.2342    1.2935 C   0  0  0  0  0  0  0  0  0  0  0  0
    2.9165    2.0982    0.3959 N   0  0  0  0  0  0  0  0  0  0  0  0
    2.5617    2.3861   -0.9103 C   0  0  0  0  0  0  0  0  0  0  0  0
    2.4737    3.5271   -1.3293 O   0  0  0  0  0  0  0  0  0  0  0  0
    2.2447    1.2244   -1.8248 C   0  0  0  0  0  0  0  0  0  0  0  0
    3.0122    1.0211   -2.9786 C   0  0  0  0  0  0  0  0  0  0  0  0
    2.6677    0.0190   -3.8895 C   0  0  0  0  0  0  0  0  0  0  0  0
    1.5501   -0.7842   -3.6616 C   0  0  0  0  0  0  0  0  0  0  0  0
    0.7637   -0.5851   -2.5225 C   0  0  0  0  0  0  0  0  0  0  0  0
    1.1035    0.4352   -1.6133 C   0  0  0  0  0  0  0  0  0  0  0  0
    0.3284    0.6808   -0.5019 O   0  0  0  0  0  0  0  0  0  0  0  0
   -0.9606    0.0649   -0.5075 C   0  0  0  0  0  0  0  0  0  0  0  0
   -0.8468   -1.3636   -1.0061 C   0  0  0  0  0  0  0  0  0  0  0  0
   -0.3260   -1.3828   -2.3261 O   0  0  0  0  0  0  0  0  0  0  0  0
    1.0324    1.0025    1.2260 H   0  0  0  0  0  0  0  0  0  0  0  0
    5.4041    0.5973    0.1167 H   0  0  0  0  0  0  0  0  0  0  0  0
    5.1282   -0.1670    1.6977 H   0  0  0  0  0  0  0  0  0  0  0  0
    7.2672    3.9169    3.4301 H   0  0  0  0  0  0  0  0  0  0  0  0
    3.0630    4.1455    0.6891 H   0  0  0  0  0  0  0  0  0  0  0  0
    2.4032    3.2603    2.0866 H   0  0  0  0  0  0  0  0  0  0  0  0
    3.8777    1.6618   -3.1577 H   0  0  0  0  0  0  0  0  0  0  0  0
    3.2739   -0.1378   -4.7842 H   0  0  0  0  0  0  0  0  0  0  0  0
    1.2612   -1.5788   -4.3523 H   0  0  0  0  0  0  0  0  0  0  0  0
   -1.6402    0.6467   -1.1547 H   0  0  0  0  0  0  0  0  0  0  0  0
   -1.3300    0.0994    0.5272 H   0  0  0  0  0  0  0  0  0  0  0  0
   -1.8330   -1.8479   -1.0416 H   0  0  0  0  0  0  0  0  0  0  0  0
   -0.1920   -1.9449   -0.3302 H   0  0  0  0  0  0  0  0  0  0  0  0
  1  2  2  0
  2  3  1  0
  2  4  1  0
  3 27  1  0
  4  5  1  6
  4  6  1  0
  4 14  1  0
  6  7  1  0
  6 28  1  0
  6 29  1  0
  7  8  1  0
  7 12  2  0
  8  9  2  0
  9 10  1  0
  9 30  1  0
 10 11  1  0
 10 12  1  0
 12 13  1  0
 13 14  1  0
 13 31  1  0
 13 32  1  0
 14 15  1  0
 15 16  2  0
 15 17  1  0
 17 18  2  0
 17 22  1  0
 18 19  1  0
 18 33  1  0
 19 20  2  0
 19 34  1  0
 20 21  1  0
 20 35  1  0
 21 22  2  0
 21 26  1  0
 22 23  1  0
 23 24  1  0
 24 25  1  0
 24 36  1  0
 24 37  1  0
 25 26  1  0
 25 38  1  0
 25 39  1  0
M  END

