
     RDKit          3D

 99 98  0  0  0  0  0  0  0  0999 V2000
    6.6655    4.6244    0.3538 C   0  0  0  0  0  0  0  0  0  0  0  0
    6.5953    5.2921    1.7373 C   0  0  1  0  0  0  0  0  0  0  0  0
    5.9266    6.6763    1.6546 C   0  0  0  0  0  0  0  0  0  0  0  0
    5.9197    4.4091    2.7783 C   0  0  0  0  0  0  0  0  0  0  0  0
    6.5732    4.0631    3.9608 C   0  0  0  0  0  0  0  0  0  0  0  0
    5.9859    3.2786    4.9673 C   0  0  0  0  0  0  0  0  0  0  0  0
    6.8446    3.1083    6.2304 C   0  0  1  0  0  0  0  0  0  0  0  0
    6.1836    3.6232    7.5188 C   0  0  0  0  0  0  0  0  0  0  0  0
    7.4555    1.7089    6.4026 C   0  0  0  0  0  0  0  0  0  0  0  0
    4.6618    2.7977    4.7607 C   0  0  0  0  0  0  0  0  0  0  0  0
    3.8801    2.0909    5.8505 C   0  0  0  0  0  0  0  0  0  0  0  0
    3.0453    2.6975    6.4785 O   0  0  0  0  0  0  0  0  0  0  0  0
    3.7460    0.1842    6.4143 P   0  0  0  0  0  0  0  0  0  0  0  0
    2.2914   -0.1860    6.2338 O   0  0  0  0  0  0  0  0  0  0  0  0
    4.9170   -1.1184    5.5164 C   0  0  0  0  0  0  0  0  0  0  0  0
    5.8802   -1.4978    6.1425 O   0  0  0  0  0  0  0  0  0  0  0  0
    4.5506   -1.6110    4.1294 C   0  0  0  0  0  0  0  0  0  0  0  0
    3.6342   -2.6686    3.8892 C   0  0  0  0  0  0  0  0  0  0  0  0
    3.1901   -3.7315    4.8997 C   0  0  1  0  0  0  0  0  0  0  0  0
    4.3660   -4.6951    5.1695 C   0  0  0  0  0  0  0  0  0  0  0  0
    2.5591   -3.2646    6.2097 C   0  0  0  0  0  0  0  0  0  0  0  0
    3.2491   -2.9118    2.5596 C   0  0  0  0  0  0  0  0  0  0  0  0
    3.7672   -2.2120    1.4699 C   0  0  0  0  0  0  0  0  0  0  0  0
    3.2811   -2.4939    0.0546 C   0  0  1  0  0  0  0  0  0  0  0  0
    2.6163   -1.2576   -0.5756 C   0  0  0  0  0  0  0  0  0  0  0  0
    4.4005   -3.0459   -0.8449 C   0  0  0  0  0  0  0  0  0  0  0  0
    4.7789   -1.2808    1.7292 C   0  0  0  0  0  0  0  0  0  0  0  0
    5.1998   -0.9812    3.0295 C   0  0  0  0  0  0  0  0  0  0  0  0
    6.4343   -0.1038    3.2388 C   0  0  1  0  0  0  0  0  0  0  0  0
    7.6703   -0.9925    3.4969 C   0  0  0  0  0  0  0  0  0  0  0  0
    6.7272    0.8664    2.0882 C   0  0  0  0  0  0  0  0  0  0  0  0
    4.3404    0.1941    8.1955 C   0  0  0  0  0  0  0  0  0  0  0  0
    3.6633    1.2657    9.0897 C   0  0  0  0  0  0  0  0  0  0  0  0
    2.2239    0.9165    9.4866 C   0  0  0  0  0  0  0  0  0  0  0  0
    2.1573   -0.4397   10.1948 C   0  0  0  0  0  0  0  0  0  0  0  0
    2.7793   -1.5350    9.3231 C   0  0  0  0  0  0  0  0  0  0  0  0
    4.2119   -1.1858    8.8922 C   0  0  0  0  0  0  0  0  0  0  0  0
    3.9525    3.1603    3.5758 C   0  0  0  0  0  0  0  0  0  0  0  0
    2.4825    2.8477    3.2484 C   0  0  1  0  0  0  0  0  0  0  0  0
    2.0370    1.3862    3.3920 C   0  0  0  0  0  0  0  0  0  0  0  0
    1.5143    3.8169    3.9586 C   0  0  0  0  0  0  0  0  0  0  0  0
    4.6137    3.9430    2.6169 C   0  0  0  0  0  0  0  0  0  0  0  0
    7.2206    5.2603   -0.3550 H   0  0  0  0  0  0  0  0  0  0  0  0
    5.6604    4.4611   -0.0684 H   0  0  0  0  0  0  0  0  0  0  0  0
    7.1712    3.6477    0.4026 H   0  0  0  0  0  0  0  0  0  0  0  0
    7.6329    5.4486    2.0805 H   0  0  0  0  0  0  0  0  0  0  0  0
    4.8836    6.5966    1.3067 H   0  0  0  0  0  0  0  0  0  0  0  0
    6.4654    7.3282    0.9476 H   0  0  0  0  0  0  0  0  0  0  0  0
    5.9137    7.1745    2.6365 H   0  0  0  0  0  0  0  0  0  0  0  0
    7.5871    4.4390    4.1271 H   0  0  0  0  0  0  0  0  0  0  0  0
    7.7022    3.7784    6.0595 H   0  0  0  0  0  0  0  0  0  0  0  0
    5.3895    2.9632    7.8876 H   0  0  0  0  0  0  0  0  0  0  0  0
    5.7434    4.6213    7.3706 H   0  0  0  0  0  0  0  0  0  0  0  0
    6.9372    3.6990    8.3195 H   0  0  0  0  0  0  0  0  0  0  0  0
    6.7050    0.9192    6.5380 H   0  0  0  0  0  0  0  0  0  0  0  0
    8.1111    1.6880    7.2886 H   0  0  0  0  0  0  0  0  0  0  0  0
    8.0660    1.4313    5.5305 H   0  0  0  0  0  0  0  0  0  0  0  0
    2.4160   -4.3140    4.3734 H   0  0  0  0  0  0  0  0  0  0  0  0
    5.1922   -4.1761    5.6812 H   0  0  0  0  0  0  0  0  0  0  0  0
    4.7640   -5.1181    4.2339 H   0  0  0  0  0  0  0  0  0  0  0  0
    4.0388   -5.5305    5.8104 H   0  0  0  0  0  0  0  0  0  0  0  0
    3.3084   -2.8409    6.8905 H   0  0  0  0  0  0  0  0  0  0  0  0
    2.1172   -4.1297    6.7309 H   0  0  0  0  0  0  0  0  0  0  0  0
    1.7854   -2.5033    6.0529 H   0  0  0  0  0  0  0  0  0  0  0  0
    2.5225   -3.7083    2.3741 H   0  0  0  0  0  0  0  0  0  0  0  0
    2.5081   -3.2777    0.1356 H   0  0  0  0  0  0  0  0  0  0  0  0
    3.3393   -0.4353   -0.7045 H   0  0  0  0  0  0  0  0  0  0  0  0
    1.7925   -0.8828    0.0515 H   0  0  0  0  0  0  0  0  0  0  0  0
    2.2066   -1.4992   -1.5701 H   0  0  0  0  0  0  0  0  0  0  0  0
    5.2041   -2.3053   -0.9905 H   0  0  0  0  0  0  0  0  0  0  0  0
    4.0066   -3.3060   -1.8411 H   0  0  0  0  0  0  0  0  0  0  0  0
    4.8542   -3.9507   -0.4111 H   0  0  0  0  0  0  0  0  0  0  0  0
    5.2642   -0.7795    0.8915 H   0  0  0  0  0  0  0  0  0  0  0  0
    6.2697    0.5084    4.1387 H   0  0  0  0  0  0  0  0  0  0  0  0
    7.8635   -1.6403    2.6260 H   0  0  0  0  0  0  0  0  0  0  0  0
    7.5355   -1.6351    4.3775 H   0  0  0  0  0  0  0  0  0  0  0  0
    8.5660   -0.3695    3.6574 H   0  0  0  0  0  0  0  0  0  0  0  0
    7.0596    0.3346    1.1821 H   0  0  0  0  0  0  0  0  0  0  0  0
    7.5402    1.5496    2.3761 H   0  0  0  0  0  0  0  0  0  0  0  0
    5.8522    1.4789    1.8302 H   0  0  0  0  0  0  0  0  0  0  0  0
    5.4135    0.4289    8.1127 H   0  0  0  0  0  0  0  0  0  0  0  0
    3.6853    2.2590    8.6277 H   0  0  0  0  0  0  0  0  0  0  0  0
    4.2816    1.3322   10.0047 H   0  0  0  0  0  0  0  0  0  0  0  0
    1.5951    0.8978    8.5815 H   0  0  0  0  0  0  0  0  0  0  0  0
    1.8262    1.7129   10.1379 H   0  0  0  0  0  0  0  0  0  0  0  0
    1.1131   -0.6968   10.4396 H   0  0  0  0  0  0  0  0  0  0  0  0
    2.6981   -0.3780   11.1585 H   0  0  0  0  0  0  0  0  0  0  0  0
    2.1503   -1.6713    8.4310 H   0  0  0  0  0  0  0  0  0  0  0  0
    2.7901   -2.4989    9.8601 H   0  0  0  0  0  0  0  0  0  0  0  0
    4.6470   -1.9819    8.2716 H   0  0  0  0  0  0  0  0  0  0  0  0
    4.8516   -1.1333    9.7925 H   0  0  0  0  0  0  0  0  0  0  0  0
    2.4006    3.0788    2.1733 H   0  0  0  0  0  0  0  0  0  0  0  0
    1.9162    1.0531    4.4317 H   0  0  0  0  0  0  0  0  0  0  0  0
    2.7355    0.6991    2.8895 H   0  0  0  0  0  0  0  0  0  0  0  0
    1.0525    1.2633    2.9110 H   0  0  0  0  0  0  0  0  0  0  0  0
    1.5029    3.6587    5.0453 H   0  0  0  0  0  0  0  0  0  0  0  0
    0.4906    3.6675    3.5776 H   0  0  0  0  0  0  0  0  0  0  0  0
    1.7953    4.8658    3.7720 H   0  0  0  0  0  0  0  0  0  0  0  0
    4.0596    4.2089    1.7127 H   0  0  0  0  0  0  0  0  0  0  0  0
  1  2  1  0
  1 43  1  0
  1 44  1  0
  1 45  1  0
  2  3  1  0
  2  4  1  0
  2 46  1  1
  3 47  1  0
  3 48  1  0
  3 49  1  0
  4  5  2  0
  4 42  1  0
  5  6  1  0
  5 50  1  0
  6  7  1  0
  6 10  2  0
  7  8  1  0
  7  9  1  0
  7 51  1  6
  8 52  1  0
  8 53  1  0
  8 54  1  0
  9 55  1  0
  9 56  1  0
  9 57  1  0
 10 11  1  0
 10 38  1  0
 11 12  3  0
 13 14  3  0
 15 16  2  0
 15 17  1  0
 17 18  2  0
 17 28  1  0
 18 19  1  0
 18 22  1  0
 19 20  1  0
 19 21  1  0
 19 58  1  6
 20 59  1  0
 20 60  1  0
 20 61  1  0
 21 62  1  0
 21 63  1  0
 21 64  1  0
 22 23  2  0
 22 65  1  0
 23 24  1  0
 23 27  1  0
 24 25  1  0
 24 26  1  0
 24 66  1  1
 25 67  1  0
 25 68  1  0
 25 69  1  0
 26 70  1  0
 26 71  1  0
 26 72  1  0
 27 28  2  0
 27 73  1  0
 28 29  1  0
 29 30  1  0
 29 31  1  0
 29 74  1  1
 30 75  1  0
 30 76  1  0
 30 77  1  0
 31 78  1  0
 31 79  1  0
 31 80  1  0
 32 33  1  0
 32 37  1  0
 32 81  1  0
 33 34  1  0
 33 82  1  0
 33 83  1  0
 34 35  1  0
 34 84  1  0
 34 85  1  0
 35 36  1  0
 35 86  1  0
 35 87  1  0
 36 37  1  0
 36 88  1  0
 36 89  1  0
 37 90  1  0
 37 91  1  0
 38 39  1  0
 38 42  2  0
 39 40  1  0
 39 41  1  0
 39 92  1  6
 40 93  1  0
 40 94  1  0
 40 95  1  0
 41 96  1  0
 41 97  1  0
 41 98  1  0
 42 99  1  0
M  CHG  4  12   1  14   1  15  -1  32  -1
M  END

