
     RDKit          3D

 40 41  0  0  0  0  0  0  0  0999 V2000
    7.1427    0.9739    1.8742 C   0  0  0  0  0  0  0  0  0  0  0  0
    5.9934    1.4044    0.9779 C   0  0  0  0  0  0  0  0  0  0  0  0
    5.3170    2.3938    1.2298 O   0  0  0  0  0  0  0  0  0  0  0  0
    5.7670    0.6183   -0.1137 N   0  0  0  0  0  0  0  0  0  0  0  0
    4.7252    0.9151   -1.0924 C   0  0  0  0  0  0  0  0  0  0  0  0
    5.1470    1.9390   -2.1328 C   0  0  0  0  0  0  0  0  0  0  0  0
    5.2031    3.2987   -1.7898 C   0  0  0  0  0  0  0  0  0  0  0  0
    5.6484    4.2260   -2.7350 C   0  0  0  0  0  0  0  0  0  0  0  0
    5.7789    5.7063   -2.4499 C   0  0  0  0  0  0  0  0  0  0  0  0
    5.8368    6.5248   -3.3563 O   0  0  0  0  0  0  0  0  0  0  0  0
    5.8496    6.0405   -1.1312 N   0  0  0  0  0  0  0  0  0  0  0  0
    5.9767    7.4218   -0.6684 C   0  0  1  0  0  0  0  0  0  0  0  0
    4.6012    8.0878   -0.4545 C   0  0  0  0  0  0  0  0  0  0  0  0
    3.8805    7.5096    0.7648 C   0  0  0  0  0  0  0  0  0  0  0  0
    4.7273    7.6357    1.9467 N   0  0  0  0  0  0  0  0  0  0  0  0
    5.9866    6.9144    1.8249 C   0  0  0  0  0  0  0  0  0  0  0  0
    6.7863    7.4673    0.6387 C   0  0  0  0  0  0  0  0  0  0  0  0
    5.9747    3.7525   -4.0124 C   0  0  0  0  0  0  0  0  0  0  0  0
    5.8749    2.3831   -4.2620 C   0  0  0  0  0  0  0  0  0  0  0  0
    5.4815    1.4894   -3.3465 N   0  0  0  0  0  0  0  0  0  0  0  0
    7.9143    1.7593    1.8623 H   0  0  0  0  0  0  0  0  0  0  0  0
    7.6002    0.0164    1.5857 H   0  0  0  0  0  0  0  0  0  0  0  0
    6.7712    0.9013    2.9069 H   0  0  0  0  0  0  0  0  0  0  0  0
    6.4238   -0.1214   -0.3298 H   0  0  0  0  0  0  0  0  0  0  0  0
    3.8486    1.2813   -0.5381 H   0  0  0  0  0  0  0  0  0  0  0  0
    4.4590   -0.0158   -1.6109 H   0  0  0  0  0  0  0  0  0  0  0  0
    4.9005    3.5836   -0.7814 H   0  0  0  0  0  0  0  0  0  0  0  0
    5.8516    5.2997   -0.4411 H   0  0  0  0  0  0  0  0  0  0  0  0
    6.5088    7.9605   -1.4666 H   0  0  0  0  0  0  0  0  0  0  0  0
    3.9914    7.9714   -1.3640 H   0  0  0  0  0  0  0  0  0  0  0  0
    4.7601    9.1677   -0.2961 H   0  0  0  0  0  0  0  0  0  0  0  0
    3.5973    6.4526    0.5498 H   0  0  0  0  0  0  0  0  0  0  0  0
    2.9407    8.0577    0.9403 H   0  0  0  0  0  0  0  0  0  0  0  0
    4.2252    7.3398    2.7810 H   0  0  0  0  0  0  0  0  0  0  0  0
    5.8445    5.8123    1.7055 H   0  0  0  0  0  0  0  0  0  0  0  0
    6.5662    7.0452    2.7533 H   0  0  0  0  0  0  0  0  0  0  0  0
    7.7334    6.9157    0.5180 H   0  0  0  0  0  0  0  0  0  0  0  0
    7.0382    8.5188    0.8505 H   0  0  0  0  0  0  0  0  0  0  0  0
    6.2989    4.4569   -4.7804 H   0  0  0  0  0  0  0  0  0  0  0  0
    6.1293    1.9852   -5.2514 H   0  0  0  0  0  0  0  0  0  0  0  0
  1  2  1  0
  1 21  1  0
  1 22  1  0
  1 23  1  0
  2  3  2  0
  2  4  1  0
  4  5  1  0
  4 24  1  0
  5  6  1  0
  5 25  1  0
  5 26  1  0
  6  7  2  0
  6 20  1  0
  7  8  1  0
  7 27  1  0
  8  9  1  0
  8 18  2  0
  9 10  2  0
  9 11  1  0
 11 12  1  0
 11 28  1  0
 12 13  1  0
 12 17  1  0
 12 29  1  6
 13 14  1  0
 13 30  1  0
 13 31  1  0
 14 15  1  0
 14 32  1  0
 14 33  1  0
 15 16  1  0
 15 34  1  0
 16 17  1  0
 16 35  1  0
 16 36  1  0
 17 37  1  0
 17 38  1  0
 18 19  1  0
 18 39  1  0
 19 20  2  0
 19 40  1  0
M  END

