
     RDKit          3D

 55 59  0  0  0  0  0  0  0  0999 V2000
    2.1367   -0.5727   -0.8874 C   0  0  0  0  0  0  0  0  0  0  0  0
    3.1333   -0.6660    0.1022 O   0  0  0  0  0  0  0  0  0  0  0  0
    3.3163    0.3745    0.9606 C   0  0  0  0  0  0  0  0  0  0  0  0
    2.5696    1.5606    0.9359 C   0  0  0  0  0  0  0  0  0  0  0  0
    2.8608    2.5506    1.8789 C   0  0  0  0  0  0  0  0  0  0  0  0
    3.8688    2.3795    2.8279 C   0  0  0  0  0  0  0  0  0  0  0  0
    4.6274    1.1917    2.8642 C   0  0  0  0  0  0  0  0  0  0  0  0
    5.7577    0.9480    3.8924 C   0  0  1  0  0  0  0  0  0  0  0  0
    5.6052   -0.4703    4.5552 C   0  0  0  0  0  0  0  0  0  0  0  0
    6.7197   -1.4568    4.1801 C   0  0  0  0  0  0  0  0  0  0  0  0
    6.9591   -1.4254    2.7487 N   0  0  0  0  0  0  0  0  0  0  0  0
    7.6656   -2.5668    2.2147 C   0  0  0  0  0  0  0  0  0  0  0  0
    7.4845   -0.1490    2.2691 C   0  0  0  0  0  0  0  0  0  0  0  0
    7.1690    1.0243    3.2093 C   0  0  1  0  0  0  0  0  0  0  0  0
    7.4229    2.3759    2.5217 C   0  0  0  0  0  0  0  0  0  0  0  0
    7.1059    3.5028    3.4571 C   0  0  0  0  0  0  0  0  0  0  0  0
    6.3341    3.3254    4.5836 C   0  0  0  0  0  0  0  0  0  0  0  0
    6.1904    4.5331    5.2604 N   0  0  0  0  0  0  0  0  0  0  0  0
    5.5164    4.7596    6.5185 C   0  0  0  0  0  0  0  0  0  0  0  0
    6.8839    5.5045    4.5608 C   0  0  0  0  0  0  0  0  0  0  0  0
    7.0538    6.8667    4.8371 C   0  0  0  0  0  0  0  0  0  0  0  0
    7.8106    7.6292    3.9486 C   0  0  0  0  0  0  0  0  0  0  0  0
    8.3851    7.0304    2.8091 C   0  0  0  0  0  0  0  0  0  0  0  0
    9.3300    8.0340    1.7187 Cl  0  0  0  0  0  0  0  0  0  0  0  0
    8.2283    5.6771    2.5251 C   0  0  0  0  0  0  0  0  0  0  0  0
    7.4692    4.8927    3.4122 C   0  0  0  0  0  0  0  0  0  0  0  0
    5.7499    2.0183    5.0243 C   0  0  0  0  0  0  0  0  0  0  0  0
    4.3280    0.2013    1.9180 C   0  0  0  0  0  0  0  0  0  0  0  0
    2.1687   -1.5124   -1.4559 H   0  0  0  0  0  0  0  0  0  0  0  0
    2.3188    0.2688   -1.5810 H   0  0  0  0  0  0  0  0  0  0  0  0
    1.1279   -0.4557   -0.4503 H   0  0  0  0  0  0  0  0  0  0  0  0
    1.7761    1.7219    0.2063 H   0  0  0  0  0  0  0  0  0  0  0  0
    2.2850    3.4800    1.8702 H   0  0  0  0  0  0  0  0  0  0  0  0
    4.0605    3.1897    3.5293 H   0  0  0  0  0  0  0  0  0  0  0  0
    4.6399   -0.9070    4.2650 H   0  0  0  0  0  0  0  0  0  0  0  0
    5.5816   -0.3705    5.6526 H   0  0  0  0  0  0  0  0  0  0  0  0
    6.4036   -2.4756    4.4570 H   0  0  0  0  0  0  0  0  0  0  0  0
    7.6445   -1.2556    4.7710 H   0  0  0  0  0  0  0  0  0  0  0  0
    7.1548   -3.5011    2.4975 H   0  0  0  0  0  0  0  0  0  0  0  0
    8.7233   -2.6356    2.5624 H   0  0  0  0  0  0  0  0  0  0  0  0
    7.6844   -2.5159    1.1137 H   0  0  0  0  0  0  0  0  0  0  0  0
    7.0840    0.0497    1.2583 H   0  0  0  0  0  0  0  0  0  0  0  0
    8.5919   -0.1904    2.1599 H   0  0  0  0  0  0  0  0  0  0  0  0
    7.8868    0.9622    4.0462 H   0  0  0  0  0  0  0  0  0  0  0  0
    6.8134    2.4466    1.6014 H   0  0  0  0  0  0  0  0  0  0  0  0
    8.4768    2.4258    2.1948 H   0  0  0  0  0  0  0  0  0  0  0  0
    4.9683    3.8572    6.8167 H   0  0  0  0  0  0  0  0  0  0  0  0
    4.7916    5.5860    6.4330 H   0  0  0  0  0  0  0  0  0  0  0  0
    6.2304    5.0104    7.3227 H   0  0  0  0  0  0  0  0  0  0  0  0
    6.6121    7.3329    5.7204 H   0  0  0  0  0  0  0  0  0  0  0  0
    7.9661    8.6942    4.1265 H   0  0  0  0  0  0  0  0  0  0  0  0
    8.6878    5.2465    1.6338 H   0  0  0  0  0  0  0  0  0  0  0  0
    4.7226    2.1367    5.4087 H   0  0  0  0  0  0  0  0  0  0  0  0
    6.3415    1.6249    5.8711 H   0  0  0  0  0  0  0  0  0  0  0  0
    4.8785   -0.7415    1.9110 H   0  0  0  0  0  0  0  0  0  0  0  0
  1  2  1  0
  1 29  1  0
  1 30  1  0
  1 31  1  0
  2  3  1  0
  3  4  2  0
  3 28  1  0
  4  5  1  0
  4 32  1  0
  5  6  2  0
  5 33  1  0
  6  7  1  0
  6 34  1  0
  8  7  1  6
  7 28  2  0
  8  9  1  0
  8 14  1  0
  8 27  1  0
  9 10  1  0
  9 35  1  0
  9 36  1  0
 10 11  1  0
 10 37  1  0
 10 38  1  0
 11 12  1  0
 11 13  1  0
 12 39  1  0
 12 40  1  0
 12 41  1  0
 13 14  1  0
 13 42  1  0
 13 43  1  0
 14 15  1  0
 14 44  1  1
 15 16  1  0
 15 45  1  0
 15 46  1  0
 16 17  2  0
 16 26  1  0
 17 18  1  0
 17 27  1  0
 18 19  1  0
 18 20  1  0
 19 47  1  0
 19 48  1  0
 19 49  1  0
 20 21  1  0
 20 26  2  0
 21 22  2  0
 21 50  1  0
 22 23  1  0
 22 51  1  0
 23 24  1  0
 23 25  2  0
 25 26  1  0
 25 52  1  0
 27 53  1  0
 27 54  1  0
 28 55  1  0
M  END

