
     RDKit          3D

 41 41  0  0  0  0  0  0  0  0999 V2000
    2.0816   -0.8276    0.4781 C   0  0  0  0  0  0  0  0  0  0  0  0
    2.5732    0.6272    0.5381 C   0  0  0  0  0  0  0  0  0  0  0  0
    2.8137    1.2343   -0.8277 C   0  0  0  0  0  0  0  0  0  0  0  0
    1.7844    1.8920   -1.5208 C   0  0  0  0  0  0  0  0  0  0  0  0
    1.9940    2.4228   -2.7952 C   0  0  0  0  0  0  0  0  0  0  0  0
    3.2423    2.3099   -3.4237 C   0  0  0  0  0  0  0  0  0  0  0  0
    3.4779    2.8724   -4.8187 C   0  0  1  0  0  0  0  0  0  0  0  0
    4.8014    3.3649   -4.9553 O   0  0  0  0  0  0  0  0  0  0  0  0
    3.2089    1.8177   -5.9247 C   0  0  1  0  0  0  0  0  0  0  0  0
    1.8335    1.4767   -5.7792 O   0  0  0  0  0  0  0  0  0  0  0  0
    1.5493    0.1411   -5.4398 C   0  0  0  0  0  0  0  0  0  0  0  0
    3.4932    2.2637   -7.3998 C   0  0  1  0  0  0  0  0  0  0  0  0
    5.0077    2.2711   -7.6886 C   0  0  0  0  0  0  0  0  0  0  0  0
    2.8364    1.2412   -8.3502 C   0  0  0  0  0  0  0  0  0  0  0  0
    2.8956    3.6553   -7.6760 C   0  0  0  0  0  0  0  0  0  0  0  0
    4.2760    1.6575   -2.7347 C   0  0  0  0  0  0  0  0  0  0  0  0
    4.0633    1.1302   -1.4587 C   0  0  0  0  0  0  0  0  0  0  0  0
    1.9180   -1.2333    1.4897 H   0  0  0  0  0  0  0  0  0  0  0  0
    2.8140   -1.4737   -0.0322 H   0  0  0  0  0  0  0  0  0  0  0  0
    1.1318   -0.9035   -0.0754 H   0  0  0  0  0  0  0  0  0  0  0  0
    3.5053    0.6709    1.1264 H   0  0  0  0  0  0  0  0  0  0  0  0
    1.8337    1.2375    1.0838 H   0  0  0  0  0  0  0  0  0  0  0  0
    0.8027    1.9991   -1.0491 H   0  0  0  0  0  0  0  0  0  0  0  0
    1.1776    2.9316   -3.3139 H   0  0  0  0  0  0  0  0  0  0  0  0
    2.7420    3.6812   -4.9847 H   0  0  0  0  0  0  0  0  0  0  0  0
    4.9645    3.9787   -4.2266 H   0  0  0  0  0  0  0  0  0  0  0  0
    3.8418    0.9345   -5.7158 H   0  0  0  0  0  0  0  0  0  0  0  0
    0.4568    0.0551   -5.3374 H   0  0  0  0  0  0  0  0  0  0  0  0
    2.0122   -0.1522   -4.4793 H   0  0  0  0  0  0  0  0  0  0  0  0
    1.8815   -0.5691   -6.2209 H   0  0  0  0  0  0  0  0  0  0  0  0
    5.4474    1.2742   -7.5148 H   0  0  0  0  0  0  0  0  0  0  0  0
    5.5415    2.9901   -7.0568 H   0  0  0  0  0  0  0  0  0  0  0  0
    5.1856    2.5286   -8.7460 H   0  0  0  0  0  0  0  0  0  0  0  0
    3.2243    0.2233   -8.1771 H   0  0  0  0  0  0  0  0  0  0  0  0
    3.0620    1.5035   -9.3965 H   0  0  0  0  0  0  0  0  0  0  0  0
    1.7443    1.2187   -8.2295 H   0  0  0  0  0  0  0  0  0  0  0  0
    3.4181    4.4393   -7.1067 H   0  0  0  0  0  0  0  0  0  0  0  0
    1.8257    3.6840   -7.4147 H   0  0  0  0  0  0  0  0  0  0  0  0
    2.9873    3.9064   -8.7453 H   0  0  0  0  0  0  0  0  0  0  0  0
    5.2592    1.5774   -3.2047 H   0  0  0  0  0  0  0  0  0  0  0  0
    4.8877    0.6320   -0.9392 H   0  0  0  0  0  0  0  0  0  0  0  0
  1  2  1  0
  1 18  1  0
  1 19  1  0
  1 20  1  0
  2  3  1  0
  2 21  1  0
  2 22  1  0
  3  4  2  0
  3 17  1  0
  4  5  1  0
  4 23  1  0
  5  6  2  0
  5 24  1  0
  6  7  1  0
  6 16  1  0
  7  8  1  0
  7  9  1  0
  7 25  1  6
  8 26  1  0
  9 10  1  0
  9 12  1  0
  9 27  1  1
 10 11  1  0
 11 28  1  0
 11 29  1  0
 11 30  1  0
 12 13  1  6
 12 14  1  0
 12 15  1  0
 13 31  1  0
 13 32  1  0
 13 33  1  0
 14 34  1  0
 14 35  1  0
 14 36  1  0
 15 37  1  0
 15 38  1  0
 15 39  1  0
 16 17  2  0
 16 40  1  0
 17 41  1  0
M  END

