
     RDKit          3D

 36 37  0  0  0  0  0  0  0  0999 V2000
    2.5542    0.0899    1.3843 C   0  0  0  0  0  0  0  0  0  0  0  0
    2.3492   -1.0019    0.3345 C   0  0  0  0  0  0  0  0  0  0  0  0
    3.3539   -0.9407   -0.8379 C   0  0  0  0  0  0  0  0  0  0  0  0
    4.7807   -1.1953   -0.4648 C   0  0  0  0  0  0  0  0  0  0  0  0
    5.6467   -0.2653   -0.1436 N   0  0  0  0  0  0  0  0  0  0  0  0
    6.8280   -0.8796    0.1639 N   0  0  0  0  0  0  0  0  0  0  0  0
    6.6748   -2.1747    0.0108 C   0  0  0  0  0  0  0  0  0  0  0  0
    7.9201   -3.3965    0.2228 S   0  0  0  0  0  0  0  0  0  0  0  0
    9.4213   -2.3757   -0.0944 C   0  0  0  0  0  0  0  0  0  0  0  0
    9.9212   -1.5363    1.0973 C   0  0  0  0  0  0  0  0  0  0  0  0
   10.9869   -1.7797    1.6052 O   0  0  0  0  0  0  0  0  0  0  0  0
    9.1447   -0.5388    1.4879 O   0  0  0  0  0  0  0  0  0  0  0  0
    5.3888   -2.4431   -0.3859 N   0  0  0  0  0  0  0  0  0  0  0  0
    4.8498   -3.7602   -0.7199 C   0  0  0  0  0  0  0  0  0  0  0  0
    4.4803   -4.5964    0.4672 C   0  0  0  0  0  0  0  0  0  0  0  0
    5.0827   -5.6467    1.0950 C   0  0  0  0  0  0  0  0  0  0  0  0
    4.1883   -5.9630    2.1701 C   0  0  0  0  0  0  0  0  0  0  0  0
    4.3229   -7.0305    3.2087 C   0  0  0  0  0  0  0  0  0  0  0  0
    3.1477   -5.1610    2.1648 N   0  0  0  0  0  0  0  0  0  0  0  0
    3.3267   -4.3020    1.0946 O   0  0  0  0  0  0  0  0  0  0  0  0
    1.8162   -0.0071    2.1959 H   0  0  0  0  0  0  0  0  0  0  0  0
    2.4422    1.0949    0.9450 H   0  0  0  0  0  0  0  0  0  0  0  0
    3.5583    0.0422    1.8337 H   0  0  0  0  0  0  0  0  0  0  0  0
    1.3365   -0.9170   -0.0959 H   0  0  0  0  0  0  0  0  0  0  0  0
    2.3983   -1.9966    0.8058 H   0  0  0  0  0  0  0  0  0  0  0  0
    3.3325    0.0632   -1.2895 H   0  0  0  0  0  0  0  0  0  0  0  0
    3.0438   -1.6462   -1.6270 H   0  0  0  0  0  0  0  0  0  0  0  0
    9.2236   -1.7438   -0.9735 H   0  0  0  0  0  0  0  0  0  0  0  0
   10.2036   -3.1070   -0.3327 H   0  0  0  0  0  0  0  0  0  0  0  0
    8.2851   -0.4905    0.9733 H   0  0  0  0  0  0  0  0  0  0  0  0
    5.6072   -4.2981   -1.3087 H   0  0  0  0  0  0  0  0  0  0  0  0
    3.9666   -3.6107   -1.3560 H   0  0  0  0  0  0  0  0  0  0  0  0
    6.0254   -6.1256    0.8431 H   0  0  0  0  0  0  0  0  0  0  0  0
    4.3876   -8.0266    2.7429 H   0  0  0  0  0  0  0  0  0  0  0  0
    3.4555   -7.0106    3.8820 H   0  0  0  0  0  0  0  0  0  0  0  0
    5.2370   -6.8827    3.8055 H   0  0  0  0  0  0  0  0  0  0  0  0
  1  2  1  0
  1 21  1  0
  1 22  1  0
  1 23  1  0
  2  3  1  0
  2 24  1  0
  2 25  1  0
  3  4  1  0
  3 26  1  0
  3 27  1  0
  4  5  2  0
  4 13  1  0
  5  6  1  0
  6  7  2  0
  7  8  1  0
  7 13  1  0
  8  9  1  0
  9 10  1  0
  9 28  1  0
  9 29  1  0
 10 11  2  0
 10 12  1  0
 12 30  1  0
 13 14  1  0
 14 15  1  0
 14 31  1  0
 14 32  1  0
 15 16  2  0
 15 20  1  0
 16 17  1  0
 16 33  1  0
 17 18  1  0
 17 19  2  0
 18 34  1  0
 18 35  1  0
 18 36  1  0
 19 20  1  0
M  END

