
     RDKit          3D

 58 60  0  0  0  0  0  0  0  0999 V2000
    7.5682    4.5502    3.2067 C   0  0  0  0  0  0  0  0  0  0  0  0
    7.1371    3.4310    2.4443 O   0  0  0  0  0  0  0  0  0  0  0  0
    6.4866    3.6680    1.2913 C   0  0  0  0  0  0  0  0  0  0  0  0
    6.0653    2.5465    0.5441 C   0  0  0  0  0  0  0  0  0  0  0  0
    5.3964    2.7751   -0.6467 C   0  0  0  0  0  0  0  0  0  0  0  0
    5.1532    4.0965   -1.0787 C   0  0  0  0  0  0  0  0  0  0  0  0
    4.4302    4.4037   -2.3776 C   0  0  0  0  0  0  0  0  0  0  0  0
    5.2368    4.0610   -3.6170 C   0  0  0  0  0  0  0  0  0  0  0  0
    6.2528    4.9200   -4.0546 C   0  0  0  0  0  0  0  0  0  0  0  0
    6.9970    4.5957   -5.1897 C   0  0  0  0  0  0  0  0  0  0  0  0
    8.0851    5.5387   -5.6530 C   0  0  0  0  0  0  0  0  0  0  0  0
    8.2935    6.5666   -5.0364 O   0  0  0  0  0  0  0  0  0  0  0  0
    8.8599    5.1540   -6.8994 C   0  0  0  0  0  0  0  0  0  0  0  0
    9.9948    6.1152   -7.2534 C   0  0  0  0  0  0  0  0  0  0  0  0
   11.2083    6.0033   -6.3224 C   0  0  0  0  0  0  0  0  0  0  0  0
   12.3743    6.9476   -6.6718 C   0  0  1  0  0  0  0  0  0  0  0  0
   12.0407    8.4495   -6.5346 C   0  0  0  0  0  0  0  0  0  0  0  0
   11.8824    8.8932   -5.0730 C   0  0  0  0  0  0  0  0  0  0  0  0
   13.1330    8.5495   -4.2521 C   0  0  0  0  0  0  0  0  0  0  0  0
   13.4924    7.0628   -4.3751 C   0  0  0  0  0  0  0  0  0  0  0  0
   13.6309    6.6186   -5.8407 C   0  0  2  0  0  0  0  0  0  0  0  0
   13.7896    5.5204   -5.8671 H   0  0  0  0  0  0  0  0  0  0  0  0
   14.7240    7.2744   -6.4761 O   0  0  0  0  0  0  0  0  0  0  0  0
    6.7857    3.4795   -5.8991 N   0  0  0  0  0  0  0  0  0  0  0  0
    5.8311    2.6287   -5.5238 C   0  0  0  0  0  0  0  0  0  0  0  0
    5.6308    1.3895   -6.3544 C   0  0  0  0  0  0  0  0  0  0  0  0
    5.0426    2.8992   -4.3799 C   0  0  0  0  0  0  0  0  0  0  0  0
    3.8022    1.7398   -3.9329 Cl  0  0  0  0  0  0  0  0  0  0  0  0
    5.6176    5.1183   -0.2490 C   0  0  0  0  0  0  0  0  0  0  0  0
    6.2657    4.9149    0.9052 N   0  0  0  0  0  0  0  0  0  0  0  0
    8.0685    4.1369    4.0922 H   0  0  0  0  0  0  0  0  0  0  0  0
    6.7169    5.1794    3.5112 H   0  0  0  0  0  0  0  0  0  0  0  0
    8.2683    5.1791    2.6345 H   0  0  0  0  0  0  0  0  0  0  0  0
    6.2708    1.5416    0.9159 H   0  0  0  0  0  0  0  0  0  0  0  0
    5.0533    1.9306   -1.2500 H   0  0  0  0  0  0  0  0  0  0  0  0
    4.2016    5.4801   -2.4068 H   0  0  0  0  0  0  0  0  0  0  0  0
    3.4701    3.8687   -2.4082 H   0  0  0  0  0  0  0  0  0  0  0  0
    6.4789    5.8470   -3.5242 H   0  0  0  0  0  0  0  0  0  0  0  0
    8.1210    5.0839   -7.7178 H   0  0  0  0  0  0  0  0  0  0  0  0
    9.2147    4.1160   -6.7782 H   0  0  0  0  0  0  0  0  0  0  0  0
    9.5996    7.1428   -7.2336 H   0  0  0  0  0  0  0  0  0  0  0  0
   10.3138    5.9192   -8.2917 H   0  0  0  0  0  0  0  0  0  0  0  0
   11.5810    4.9627   -6.3580 H   0  0  0  0  0  0  0  0  0  0  0  0
   10.8747    6.1720   -5.2865 H   0  0  0  0  0  0  0  0  0  0  0  0
   12.6538    6.7567   -7.7236 H   0  0  0  0  0  0  0  0  0  0  0  0
   11.1339    8.6953   -7.1100 H   0  0  0  0  0  0  0  0  0  0  0  0
   12.8653    9.0186   -6.9940 H   0  0  0  0  0  0  0  0  0  0  0  0
   10.9954    8.4095   -4.6266 H   0  0  0  0  0  0  0  0  0  0  0  0
   11.6902    9.9787   -5.0310 H   0  0  0  0  0  0  0  0  0  0  0  0
   12.9903    8.8183   -3.1919 H   0  0  0  0  0  0  0  0  0  0  0  0
   13.9819    9.1513   -4.6203 H   0  0  0  0  0  0  0  0  0  0  0  0
   12.7194    6.4448   -3.8859 H   0  0  0  0  0  0  0  0  0  0  0  0
   14.4350    6.8437   -3.8393 H   0  0  0  0  0  0  0  0  0  0  0  0
   15.5134    7.1371   -5.9366 H   0  0  0  0  0  0  0  0  0  0  0  0
    6.3488    1.3961   -7.1839 H   0  0  0  0  0  0  0  0  0  0  0  0
    4.6071    1.3404   -6.7593 H   0  0  0  0  0  0  0  0  0  0  0  0
    5.7771    0.4773   -5.7536 H   0  0  0  0  0  0  0  0  0  0  0  0
    5.4524    6.1666   -0.5288 H   0  0  0  0  0  0  0  0  0  0  0  0
  1  2  1  0
  1 31  1  0
  1 32  1  0
  1 33  1  0
  2  3  1  0
  3  4  2  0
  3 30  1  0
  4  5  1  0
  4 34  1  0
  5  6  2  0
  5 35  1  0
  6  7  1  0
  6 29  1  0
  7  8  1  0
  7 36  1  0
  7 37  1  0
  8  9  2  0
  8 27  1  0
  9 10  1  0
  9 38  1  0
 10 11  1  0
 10 24  2  0
 11 12  2  0
 11 13  1  0
 13 14  1  0
 13 39  1  0
 13 40  1  0
 14 15  1  0
 14 41  1  0
 14 42  1  0
 15 16  1  0
 15 43  1  0
 15 44  1  0
 16 17  1  0
 16 21  1  0
 16 45  1  6
 17 18  1  0
 17 46  1  0
 17 47  1  0
 18 19  1  0
 18 48  1  0
 18 49  1  0
 19 20  1  0
 19 50  1  0
 19 51  1  0
 20 21  1  0
 20 52  1  0
 20 53  1  0
 21 22  1  1
 21 23  1  0
 23 54  1  0
 24 25  1  0
 25 26  1  0
 25 27  2  0
 26 55  1  0
 26 56  1  0
 26 57  1  0
 27 28  1  0
 29 30  2  0
 29 58  1  0
M  END

