
     RDKit          3D

 39 42  0  0  0  0  0  0  0  0999 V2000
    3.1976    0.3016    0.9524 C   0  0  0  0  0  0  0  0  0  0  0  0
    2.3704    0.2257   -0.1997 O   0  0  0  0  0  0  0  0  0  0  0  0
    3.0055    0.3373   -1.4037 C   0  0  0  0  0  0  0  0  0  0  0  0
    3.0881    1.6224   -2.0164 C   0  0  0  0  0  0  0  0  0  0  0  0
    2.5006    2.7695   -1.4075 C   0  0  0  0  0  0  0  0  0  0  0  0
    2.5778    4.0083   -2.0047 C   0  0  0  0  0  0  0  0  0  0  0  0
    3.2391    4.1569   -3.2519 C   0  0  0  0  0  0  0  0  0  0  0  0
    3.8107    3.0688   -3.8745 C   0  0  0  0  0  0  0  0  0  0  0  0
    3.7607    1.7730   -3.2801 C   0  0  0  0  0  0  0  0  0  0  0  0
    4.3409    0.6403   -3.9180 C   0  0  0  0  0  0  0  0  0  0  0  0
    5.0203    0.8060   -5.1083 O   0  0  0  0  0  0  0  0  0  0  0  0
    6.3994    1.1264   -4.9713 C   0  0  0  0  0  0  0  0  0  0  0  0
    4.1839   -0.6137   -3.3357 C   0  0  0  0  0  0  0  0  0  0  0  0
    3.5243   -0.7742   -2.0615 C   0  0  0  0  0  0  0  0  0  0  0  0
    3.5635   -2.1994   -1.7627 C   0  0  0  0  0  0  0  0  0  0  0  0
    3.1094   -3.0290   -0.7297 C   0  0  0  0  0  0  0  0  0  0  0  0
    2.4800   -2.5129    0.3355 F   0  0  0  0  0  0  0  0  0  0  0  0
    3.3036   -4.4076   -0.7694 C   0  0  0  0  0  0  0  0  0  0  0  0
    3.9621   -4.9876   -1.8631 C   0  0  0  0  0  0  0  0  0  0  0  0
    4.4329   -4.2097   -2.9221 C   0  0  0  0  0  0  0  0  0  0  0  0
    4.2249   -2.8259   -2.8575 C   0  0  0  0  0  0  0  0  0  0  0  0
    4.5850   -1.8680   -3.7909 N   0  0  0  0  0  0  0  0  0  0  0  0
    5.1660   -2.2018   -5.0763 C   0  0  0  0  0  0  0  0  0  0  0  0
    2.5423    0.1748    1.8250 H   0  0  0  0  0  0  0  0  0  0  0  0
    3.7065    1.2805    1.0171 H   0  0  0  0  0  0  0  0  0  0  0  0
    3.9559   -0.4987    0.9608 H   0  0  0  0  0  0  0  0  0  0  0  0
    1.9690    2.6353   -0.4643 H   0  0  0  0  0  0  0  0  0  0  0  0
    2.1168    4.8769   -1.5277 H   0  0  0  0  0  0  0  0  0  0  0  0
    3.2813    5.1401   -3.7280 H   0  0  0  0  0  0  0  0  0  0  0  0
    4.2903    3.1757   -4.8486 H   0  0  0  0  0  0  0  0  0  0  0  0
    6.7987    1.2761   -5.9848 H   0  0  0  0  0  0  0  0  0  0  0  0
    6.9591    0.3100   -4.4794 H   0  0  0  0  0  0  0  0  0  0  0  0
    6.5434    2.0510   -4.3863 H   0  0  0  0  0  0  0  0  0  0  0  0
    2.9340   -5.0107    0.0614 H   0  0  0  0  0  0  0  0  0  0  0  0
    4.1096   -6.0701   -1.8834 H   0  0  0  0  0  0  0  0  0  0  0  0
    4.9465   -4.6687   -3.7676 H   0  0  0  0  0  0  0  0  0  0  0  0
    4.5885   -3.0101   -5.5542 H   0  0  0  0  0  0  0  0  0  0  0  0
    6.2110   -2.5436   -4.9713 H   0  0  0  0  0  0  0  0  0  0  0  0
    5.1368   -1.3206   -5.7236 H   0  0  0  0  0  0  0  0  0  0  0  0
  1  2  1  0
  1 24  1  0
  1 25  1  0
  1 26  1  0
  2  3  1  0
  3  4  2  0
  3 14  1  0
  4  5  1  0
  4  9  1  0
  5  6  2  0
  5 27  1  0
  6  7  1  0
  6 28  1  0
  7  8  2  0
  7 29  1  0
  8  9  1  0
  8 30  1  0
  9 10  2  0
 10 11  1  0
 10 13  1  0
 11 12  1  0
 12 31  1  0
 12 32  1  0
 12 33  1  0
 13 14  2  0
 13 22  1  0
 14 15  1  0
 15 16  2  0
 15 21  1  0
 16 17  1  0
 16 18  1  0
 18 19  2  0
 18 34  1  0
 19 20  1  0
 19 35  1  0
 20 21  2  0
 20 36  1  0
 21 22  1  0
 22 23  1  0
 23 37  1  0
 23 38  1  0
 23 39  1  0
M  END

