
     RDKit          3D

 49 51  0  0  0  0  0  0  0  0999 V2000
    1.6899    0.5841    1.9702 C   0  0  0  0  0  0  0  0  0  0  0  0
    3.1848    0.7816    1.9491 C   0  0  0  0  0  0  0  0  0  0  0  0
    4.0350   -0.0228    2.7311 C   0  0  0  0  0  0  0  0  0  0  0  0
    5.4286    0.1419    2.7336 C   0  0  0  0  0  0  0  0  0  0  0  0
    5.9604    1.1382    1.9271 C   0  0  0  0  0  0  0  0  0  0  0  0
    5.1284    1.9462    1.1419 C   0  0  0  0  0  0  0  0  0  0  0  0
    3.7510    1.7889    1.1380 C   0  0  0  0  0  0  0  0  0  0  0  0
    5.9907    2.9153    0.4047 C   0  0  0  0  0  0  0  0  0  0  0  0
    5.6687    3.8036   -0.3625 O   0  0  0  0  0  0  0  0  0  0  0  0
    7.3011    2.6223    0.7716 N   0  0  0  0  0  0  0  0  0  0  0  0
    8.4630    3.3531    0.2852 C   0  0  1  0  0  0  0  0  0  0  0  0
    8.8271    2.9935   -1.1557 C   0  0  0  0  0  0  0  0  0  0  0  0
    8.2335    4.8472    0.5700 C   0  0  0  0  0  0  0  0  0  0  0  0
    7.9324    5.2719    1.6533 O   0  0  0  0  0  0  0  0  0  0  0  0
    8.4220    5.6061   -0.5274 O   0  0  0  0  0  0  0  0  0  0  0  0
    8.2802    7.0251   -0.4128 C   0  0  0  0  0  0  0  0  0  0  0  0
    7.0766    7.6030   -1.1653 C   0  0  0  0  0  0  0  0  0  0  0  0
    7.0838    8.7955   -1.4160 O   0  0  0  0  0  0  0  0  0  0  0  0
    6.0737    6.7259   -1.4642 N   0  0  0  0  0  0  0  0  0  0  0  0
    4.8506    7.0021   -2.1101 C   0  0  0  0  0  0  0  0  0  0  0  0
    4.5125    8.2708   -2.6188 C   0  0  0  0  0  0  0  0  0  0  0  0
    3.2828    8.4555   -3.2493 C   0  0  0  0  0  0  0  0  0  0  0  0
    2.3621    7.4083   -3.3945 C   0  0  0  0  0  0  0  0  0  0  0  0
    1.0410    7.6806   -4.1038 C   0  0  0  0  0  0  0  0  0  0  0  0
    0.0985    6.5601   -4.1088 C   0  0  0  0  0  0  0  0  0  0  0  0
   -0.6455    5.6719   -4.1120 N   0  0  0  0  0  0  0  0  0  0  0  0
    2.7057    6.1519   -2.8831 C   0  0  0  0  0  0  0  0  0  0  0  0
    3.9308    5.9483   -2.2485 C   0  0  0  0  0  0  0  0  0  0  0  0
    7.3731    1.5655    1.7104 C   0  0  0  0  0  0  0  0  0  0  0  0
    8.3950    1.1428    2.1911 O   0  0  0  0  0  0  0  0  0  0  0  0
    1.3970   -0.2428    2.6324 H   0  0  0  0  0  0  0  0  0  0  0  0
    1.3052    0.3650    0.9606 H   0  0  0  0  0  0  0  0  0  0  0  0
    1.1763    1.4959    2.3171 H   0  0  0  0  0  0  0  0  0  0  0  0
    3.5910   -0.8006    3.3580 H   0  0  0  0  0  0  0  0  0  0  0  0
    6.0744   -0.4884    3.3487 H   0  0  0  0  0  0  0  0  0  0  0  0
    3.1198    2.4334    0.5208 H   0  0  0  0  0  0  0  0  0  0  0  0
    9.2817    3.0512    0.9592 H   0  0  0  0  0  0  0  0  0  0  0  0
    8.0189    3.2594   -1.8507 H   0  0  0  0  0  0  0  0  0  0  0  0
    9.0200    1.9128   -1.2273 H   0  0  0  0  0  0  0  0  0  0  0  0
    9.7344    3.5303   -1.4652 H   0  0  0  0  0  0  0  0  0  0  0  0
    9.1782    7.4878   -0.8435 H   0  0  0  0  0  0  0  0  0  0  0  0
    8.1986    7.3073    0.6478 H   0  0  0  0  0  0  0  0  0  0  0  0
    6.1991    5.7570   -1.1742 H   0  0  0  0  0  0  0  0  0  0  0  0
    5.2131    9.0947   -2.5095 H   0  0  0  0  0  0  0  0  0  0  0  0
    3.0383    9.4493   -3.6371 H   0  0  0  0  0  0  0  0  0  0  0  0
    1.2246    7.9660   -5.1550 H   0  0  0  0  0  0  0  0  0  0  0  0
    0.5326    8.5442   -3.6407 H   0  0  0  0  0  0  0  0  0  0  0  0
    2.0083    5.3159   -2.9753 H   0  0  0  0  0  0  0  0  0  0  0  0
    4.1776    4.9656   -1.8428 H   0  0  0  0  0  0  0  0  0  0  0  0
  1  2  1  0
  1 31  1  0
  1 32  1  0
  1 33  1  0
  2  3  2  0
  2  7  1  0
  3  4  1  0
  3 34  1  0
  4  5  2  0
  4 35  1  0
  5  6  1  0
  5 29  1  0
  6  7  2  0
  6  8  1  0
  7 36  1  0
  8  9  2  0
  8 10  1  0
 10 11  1  0
 10 29  1  0
 11 12  1  0
 11 13  1  0
 11 37  1  1
 12 38  1  0
 12 39  1  0
 12 40  1  0
 13 14  2  0
 13 15  1  0
 15 16  1  0
 16 17  1  0
 16 41  1  0
 16 42  1  0
 17 18  2  0
 17 19  1  0
 19 20  1  0
 19 43  1  0
 20 21  2  0
 20 28  1  0
 21 22  1  0
 21 44  1  0
 22 23  2  0
 22 45  1  0
 23 24  1  0
 23 27  1  0
 24 25  1  0
 24 46  1  0
 24 47  1  0
 25 26  3  0
 27 28  2  0
 27 48  1  0
 28 49  1  0
 29 30  2  0
M  END

