
     RDKit          3D

 41 43  0  0  0  0  0  0  0  0999 V2000
    1.0072    0.1282    0.8791 C   0  0  0  0  0  0  0  0  0  0  0  0
    2.4407    0.1101    0.5982 N   0  0  0  0  0  0  0  0  0  0  0  0
    3.1079   -1.1220    0.8012 C   0  0  0  0  0  0  0  0  0  0  0  0
    2.5073   -2.1034    1.1872 O   0  0  0  0  0  0  0  0  0  0  0  0
    4.5634   -1.1181    0.5213 C   0  0  0  0  0  0  0  0  0  0  0  0
    5.1677   -2.3308    0.6571 N   0  0  0  0  0  0  0  0  0  0  0  0
    6.4371   -2.4002    0.5446 N   0  0  0  0  0  0  0  0  0  0  0  0
    6.9805   -3.7086    0.5551 C   0  0  0  0  0  0  0  0  0  0  0  0
    6.1610   -4.8286    0.3195 C   0  0  0  0  0  0  0  0  0  0  0  0
    6.7348   -6.0926    0.2713 C   0  0  0  0  0  0  0  0  0  0  0  0
    5.6863   -7.5085   -0.0711 S   0  0  1  0  0  0  0  0  0  0  0  0
    6.3955   -8.7219    0.3288 O   0  0  0  0  0  0  0  0  0  0  0  0
    4.3356   -7.2041    0.3603 O   0  0  0  0  0  0  0  0  0  0  0  0
    5.6502   -7.4986   -1.7134 O   0  0  0  0  0  0  0  0  0  0  0  0
    8.1068   -6.2919    0.4630 C   0  0  0  0  0  0  0  0  0  0  0  0
    8.9100   -5.1812    0.7016 C   0  0  0  0  0  0  0  0  0  0  0  0
    8.3741   -3.8853    0.7584 C   0  0  0  0  0  0  0  0  0  0  0  0
    9.3745   -2.7868    1.0706 C   0  0  0  0  0  0  0  0  0  0  0  0
   10.5611   -2.9846    1.0249 O   0  0  0  0  0  0  0  0  0  0  0  0
    8.8880   -1.5923    1.4380 O   0  0  0  0  0  0  0  0  0  0  0  0
    5.2155    0.0442    0.0681 C   0  0  0  0  0  0  0  0  0  0  0  0
    6.4999    0.0494   -0.2165 O   0  0  0  0  0  0  0  0  0  0  0  0
    4.4704    1.2568   -0.1323 C   0  0  0  0  0  0  0  0  0  0  0  0
    5.1079    2.4301   -0.5931 C   0  0  0  0  0  0  0  0  0  0  0  0
    4.3902    3.5995   -0.7779 C   0  0  0  0  0  0  0  0  0  0  0  0
    3.0128    3.6042   -0.4985 C   0  0  0  0  0  0  0  0  0  0  0  0
    2.3615    2.4634   -0.0441 C   0  0  0  0  0  0  0  0  0  0  0  0
    3.0735    1.2577    0.1503 C   0  0  0  0  0  0  0  0  0  0  0  0
    0.7284   -0.8757    1.2148 H   0  0  0  0  0  0  0  0  0  0  0  0
    0.4337    0.3824   -0.0257 H   0  0  0  0  0  0  0  0  0  0  0  0
    0.7726    0.8567    1.6705 H   0  0  0  0  0  0  0  0  0  0  0  0
    5.0893   -4.6839    0.1806 H   0  0  0  0  0  0  0  0  0  0  0  0
    6.2699   -8.1806   -2.0247 H   0  0  0  0  0  0  0  0  0  0  0  0
    8.5237   -7.2998    0.4367 H   0  0  0  0  0  0  0  0  0  0  0  0
    9.9842   -5.2882    0.8602 H   0  0  0  0  0  0  0  0  0  0  0  0
    7.9127   -1.6092    1.3988 H   0  0  0  0  0  0  0  0  0  0  0  0
    6.8438   -0.8780   -0.0462 H   0  0  0  0  0  0  0  0  0  0  0  0
    6.1788    2.3874   -0.7958 H   0  0  0  0  0  0  0  0  0  0  0  0
    4.8859    4.5047   -1.1334 H   0  0  0  0  0  0  0  0  0  0  0  0
    2.4341    4.5208   -0.6385 H   0  0  0  0  0  0  0  0  0  0  0  0
    1.2939    2.5094    0.1600 H   0  0  0  0  0  0  0  0  0  0  0  0
  1  2  1  0
  1 29  1  0
  1 30  1  0
  1 31  1  0
  2  3  1  0
  2 28  1  0
  3  4  2  0
  3  5  1  0
  5  6  1  0
  5 21  2  0
  6  7  2  0
  7  8  1  0
  8  9  2  0
  8 17  1  0
  9 10  1  0
  9 32  1  0
 10 11  1  0
 10 15  2  0
 11 12  2  0
 11 13  2  0
 11 14  1  6
 14 33  1  0
 15 16  1  0
 15 34  1  0
 16 17  2  0
 16 35  1  0
 17 18  1  0
 18 19  2  0
 18 20  1  0
 20 36  1  0
 21 22  1  0
 21 23  1  0
 22 37  1  0
 23 24  1  0
 23 28  2  0
 24 25  2  0
 24 38  1  0
 25 26  1  0
 25 39  1  0
 26 27  2  0
 26 40  1  0
 27 28  1  0
 27 41  1  0
M  END

