
     RDKit          3D

 41 41  0  0  0  0  0  0  0  0999 V2000
    0.7821   -0.3484    0.6840 C   0  0  0  0  0  0  0  0  0  0  0  0
    2.2608   -0.5926    0.3954 C   0  0  0  0  0  0  0  0  0  0  0  0
    3.0708   -0.2341    1.5473 N   0  0  0  0  0  0  0  0  0  0  0  0
    4.5273   -0.2745    1.4332 C   0  0  1  0  0  0  0  0  0  0  0  0
    5.0768   -1.5478    0.7292 C   0  0  0  0  0  0  0  0  0  0  0  0
    5.0579    0.9719    0.6788 C   0  0  0  0  0  0  0  0  0  0  0  0
    4.4341    2.3216    1.0777 C   0  0  1  0  0  0  0  0  0  0  0  0
    4.6534    2.7289    2.5365 C   0  0  0  0  0  0  0  0  0  0  0  0
    4.9348    3.3628    0.1745 N   0  0  0  0  0  0  0  0  0  0  0  0
    4.2188    4.1201   -0.6986 C   0  0  0  0  0  0  0  0  0  0  0  0
    5.1167    4.9683   -1.3242 C   0  0  0  0  0  0  0  0  0  0  0  0
    6.3754    4.6436   -0.7511 C   0  0  0  0  0  0  0  0  0  0  0  0
    7.7180    5.2415   -1.0445 C   0  0  0  0  0  0  0  0  0  0  0  0
    6.2420    3.6708    0.1521 N   0  0  0  0  0  0  0  0  0  0  0  0
    5.0636   -0.3587    2.8747 C   0  0  0  0  0  0  0  0  0  0  0  0
    4.4013   -0.6921    3.8296 O   0  0  0  0  0  0  0  0  0  0  0  0
    6.3763   -0.1005    2.9492 O   0  0  0  0  0  0  0  0  0  0  0  0
    6.9796   -0.2240    4.2388 C   0  0  0  0  0  0  0  0  0  0  0  0
    0.1612   -0.6091   -0.1875 H   0  0  0  0  0  0  0  0  0  0  0  0
    0.5999    0.7060    0.9439 H   0  0  0  0  0  0  0  0  0  0  0  0
    0.4398   -0.9646    1.5326 H   0  0  0  0  0  0  0  0  0  0  0  0
    2.5695    0.0261   -0.4661 H   0  0  0  0  0  0  0  0  0  0  0  0
    2.3917   -1.6479    0.0707 H   0  0  0  0  0  0  0  0  0  0  0  0
    2.7859   -0.7432    2.3831 H   0  0  0  0  0  0  0  0  0  0  0  0
    4.7338   -1.5901   -0.3150 H   0  0  0  0  0  0  0  0  0  0  0  0
    4.7287   -2.4574    1.2441 H   0  0  0  0  0  0  0  0  0  0  0  0
    6.1763   -1.5471    0.7257 H   0  0  0  0  0  0  0  0  0  0  0  0
    4.8621    0.8247   -0.3963 H   0  0  0  0  0  0  0  0  0  0  0  0
    6.1495    1.0320    0.7869 H   0  0  0  0  0  0  0  0  0  0  0  0
    3.3516    2.2658    0.8950 H   0  0  0  0  0  0  0  0  0  0  0  0
    5.7252    2.7584    2.7788 H   0  0  0  0  0  0  0  0  0  0  0  0
    4.1433    2.0256    3.2101 H   0  0  0  0  0  0  0  0  0  0  0  0
    4.2320    3.7299    2.7165 H   0  0  0  0  0  0  0  0  0  0  0  0
    3.1419    4.0012   -0.8043 H   0  0  0  0  0  0  0  0  0  0  0  0
    4.8985    5.7156   -2.0841 H   0  0  0  0  0  0  0  0  0  0  0  0
    7.7353    6.3236   -0.8315 H   0  0  0  0  0  0  0  0  0  0  0  0
    7.9966    5.1135   -2.1038 H   0  0  0  0  0  0  0  0  0  0  0  0
    8.4846    4.7560   -0.4246 H   0  0  0  0  0  0  0  0  0  0  0  0
    8.0442   -0.0009    4.0992 H   0  0  0  0  0  0  0  0  0  0  0  0
    6.8478   -1.2418    4.6354 H   0  0  0  0  0  0  0  0  0  0  0  0
    6.5301    0.4882    4.9469 H   0  0  0  0  0  0  0  0  0  0  0  0
  1  2  1  0
  1 19  1  0
  1 20  1  0
  1 21  1  0
  2  3  1  0
  2 22  1  0
  2 23  1  0
  3  4  1  0
  3 24  1  0
  4  5  1  0
  4  6  1  0
  4 15  1  1
  5 25  1  0
  5 26  1  0
  5 27  1  0
  6  7  1  0
  6 28  1  0
  6 29  1  0
  7  8  1  0
  7  9  1  0
  7 30  1  1
  8 31  1  0
  8 32  1  0
  8 33  1  0
  9 10  1  0
  9 14  1  0
 10 11  2  0
 10 34  1  0
 11 12  1  0
 11 35  1  0
 12 13  1  0
 12 14  2  0
 13 36  1  0
 13 37  1  0
 13 38  1  0
 15 16  2  0
 15 17  1  0
 17 18  1  0
 18 39  1  0
 18 40  1  0
 18 41  1  0
M  END

