
     RDKit          3D

 56 58  0  0  0  0  0  0  0  0999 V2000
    7.3097   -3.1279   -3.4073 C   0  0  0  0  0  0  0  0  0  0  0  0
    6.7133   -1.8731   -2.7418 C   0  0  1  0  0  0  0  0  0  0  0  0
    7.2765   -0.6386   -3.4653 C   0  0  0  0  0  0  0  0  0  0  0  0
    5.1750   -1.8617   -2.8841 C   0  0  0  0  0  0  0  0  0  0  0  0
    4.5011   -2.9392   -2.1555 N   0  0  0  0  0  0  0  0  0  0  0  0
    3.0556   -2.9631   -2.4117 C   0  0  0  0  0  0  0  0  0  0  0  0
    2.6572   -3.5126   -3.7877 C   0  0  0  0  0  0  0  0  0  0  0  0
    2.8988   -5.0051   -4.0452 C   0  0  0  0  0  0  0  0  0  0  0  0
    2.1376   -5.6466   -4.7495 O   0  0  0  0  0  0  0  0  0  0  0  0
    4.0263   -5.5055   -3.4443 N   0  0  0  0  0  0  0  0  0  0  0  0
    4.5321   -6.8172   -3.4788 C   0  0  0  0  0  0  0  0  0  0  0  0
    3.9556   -7.8617   -4.2251 C   0  0  0  0  0  0  0  0  0  0  0  0
    4.5154   -9.1380   -4.2169 C   0  0  0  0  0  0  0  0  0  0  0  0
    5.6720   -9.4233   -3.4640 C   0  0  0  0  0  0  0  0  0  0  0  0
    6.2667  -10.7082   -3.4501 N   0  0  0  0  0  0  0  0  0  0  0  0
    7.5622  -10.9403   -2.8091 C   0  0  0  0  0  0  0  0  0  0  0  0
    7.9673  -12.3463   -3.2781 C   0  0  0  0  0  0  0  0  0  0  0  0
    6.6260  -13.0347   -3.5284 C   0  0  0  0  0  0  0  0  0  0  0  0
    5.6780  -11.8914   -3.8850 C   0  0  0  0  0  0  0  0  0  0  0  0
    4.5989  -12.0108   -4.4263 O   0  0  0  0  0  0  0  0  0  0  0  0
    6.2421   -8.3782   -2.7127 C   0  0  0  0  0  0  0  0  0  0  0  0
    5.6808   -7.1030   -2.7225 C   0  0  0  0  0  0  0  0  0  0  0  0
    4.8033   -2.8716   -0.7228 C   0  0  0  0  0  0  0  0  0  0  0  0
    6.3080   -2.9394   -0.4641 C   0  0  0  0  0  0  0  0  0  0  0  0
    7.0843   -1.8430   -1.2150 C   0  0  2  0  0  0  0  0  0  0  0  0
    6.8941   -0.5673   -0.5258 N   0  0  0  0  0  0  0  0  0  0  0  0
    7.0705   -3.1510   -4.4830 H   0  0  0  0  0  0  0  0  0  0  0  0
    6.9321   -4.0619   -2.9711 H   0  0  0  0  0  0  0  0  0  0  0  0
    8.4079   -3.1326   -3.3118 H   0  0  0  0  0  0  0  0  0  0  0  0
    7.0537   -0.6810   -4.5438 H   0  0  0  0  0  0  0  0  0  0  0  0
    8.3729   -0.5862   -3.3577 H   0  0  0  0  0  0  0  0  0  0  0  0
    6.8533    0.3002   -3.0769 H   0  0  0  0  0  0  0  0  0  0  0  0
    4.9154   -1.9336   -3.9518 H   0  0  0  0  0  0  0  0  0  0  0  0
    4.7863   -0.8745   -2.5392 H   0  0  0  0  0  0  0  0  0  0  0  0
    2.6205   -1.9466   -2.2913 H   0  0  0  0  0  0  0  0  0  0  0  0
    2.5896   -3.5895   -1.6338 H   0  0  0  0  0  0  0  0  0  0  0  0
    3.1535   -2.9475   -4.5960 H   0  0  0  0  0  0  0  0  0  0  0  0
    1.5788   -3.3614   -3.9403 H   0  0  0  0  0  0  0  0  0  0  0  0
    4.5564   -4.8120   -2.9046 H   0  0  0  0  0  0  0  0  0  0  0  0
    3.0626   -7.6603   -4.8123 H   0  0  0  0  0  0  0  0  0  0  0  0
    4.0488   -9.9333   -4.7924 H   0  0  0  0  0  0  0  0  0  0  0  0
    7.4680  -10.8878   -1.7075 H   0  0  0  0  0  0  0  0  0  0  0  0
    8.2886  -10.1711   -3.1133 H   0  0  0  0  0  0  0  0  0  0  0  0
    8.6046  -12.8591   -2.5435 H   0  0  0  0  0  0  0  0  0  0  0  0
    8.5358  -12.2729   -4.2189 H   0  0  0  0  0  0  0  0  0  0  0  0
    6.2314  -13.5240   -2.6201 H   0  0  0  0  0  0  0  0  0  0  0  0
    6.6280  -13.7878   -4.3284 H   0  0  0  0  0  0  0  0  0  0  0  0
    7.1279   -8.5468   -2.1005 H   0  0  0  0  0  0  0  0  0  0  0  0
    6.1434   -6.3151   -2.1217 H   0  0  0  0  0  0  0  0  0  0  0  0
    4.2981   -3.7115   -0.2190 H   0  0  0  0  0  0  0  0  0  0  0  0
    4.3800   -1.9423   -0.2754 H   0  0  0  0  0  0  0  0  0  0  0  0
    6.6756   -3.9336   -0.7626 H   0  0  0  0  0  0  0  0  0  0  0  0
    6.5004   -2.8283    0.6137 H   0  0  0  0  0  0  0  0  0  0  0  0
    8.1614   -2.0743   -1.1372 H   0  0  0  0  0  0  0  0  0  0  0  0
    5.9392   -0.2221   -0.6180 H   0  0  0  0  0  0  0  0  0  0  0  0
    7.5037    0.1542   -0.9054 H   0  0  0  0  0  0  0  0  0  0  0  0
  2  1  1  6
  1 27  1  0
  1 28  1  0
  1 29  1  0
  2  3  1  0
  2  4  1  0
  2 25  1  0
  3 30  1  0
  3 31  1  0
  3 32  1  0
  4  5  1  0
  4 33  1  0
  4 34  1  0
  5  6  1  0
  5 23  1  0
  6  7  1  0
  6 35  1  0
  6 36  1  0
  7  8  1  0
  7 37  1  0
  7 38  1  0
  8  9  2  0
  8 10  1  0
 10 11  1  0
 10 39  1  0
 11 12  2  0
 11 22  1  0
 12 13  1  0
 12 40  1  0
 13 14  2  0
 13 41  1  0
 14 15  1  0
 14 21  1  0
 15 16  1  0
 15 19  1  0
 16 17  1  0
 16 42  1  0
 16 43  1  0
 17 18  1  0
 17 44  1  0
 17 45  1  0
 18 19  1  0
 18 46  1  0
 18 47  1  0
 19 20  2  0
 21 22  2  0
 21 48  1  0
 22 49  1  0
 23 24  1  0
 23 50  1  0
 23 51  1  0
 24 25  1  0
 24 52  1  0
 24 53  1  0
 25 26  1  0
 25 54  1  6
 26 55  1  0
 26 56  1  0
M  END

