
     RDKit          3D

 58 60  0  0  0  0  0  0  0  0999 V2000
    0.8074   -0.0903   -0.4482 O   0  0  0  0  0  0  0  0  0  0  0  0
    1.9382    0.1292   -0.0362 C   0  0  0  0  0  0  0  0  0  0  0  0
    2.2813    1.3150    0.5361 N   0  0  0  0  0  0  0  0  0  0  0  0
    1.3561    2.4255    0.6904 C   0  0  0  0  0  0  0  0  0  0  0  0
    0.8477    2.6144    2.1271 C   0  0  0  0  0  0  0  0  0  0  0  0
    1.9452    2.5801    3.2008 C   0  0  0  0  0  0  0  0  0  0  0  0
    3.1396    3.3494    2.8463 N   0  0  0  0  0  0  0  0  0  0  0  0
    2.9603    4.8029    2.7535 C   0  0  0  0  0  0  0  0  0  0  0  0
    2.9936    5.4930    4.1209 C   0  0  0  0  0  0  0  0  0  0  0  0
    4.1825    5.1736    4.8202 O   0  0  0  0  0  0  0  0  0  0  0  0
    4.3324    3.7782    5.0026 C   0  0  0  0  0  0  0  0  0  0  0  0
    4.3263    3.0521    3.6534 C   0  0  0  0  0  0  0  0  0  0  0  0
    3.0844   -0.8915   -0.1906 C   0  0  1  0  0  0  0  0  0  0  0  0
    3.7523   -0.4676   -0.9627 H   0  0  0  0  0  0  0  0  0  0  0  0
    3.9049   -1.1152    1.0957 C   0  0  0  0  0  0  0  0  0  0  0  0
    3.0986   -1.9207    2.1168 C   0  0  0  0  0  0  0  0  0  0  0  0
    2.6245   -3.2428    1.5156 C   0  0  0  0  0  0  0  0  0  0  0  0
    1.8773   -3.0309    0.2744 N   0  0  0  0  0  0  0  0  0  0  0  0
    0.8541   -3.9224    0.0120 C   0  0  0  0  0  0  0  0  0  0  0  0
    0.5659   -4.8100    0.8043 O   0  0  0  0  0  0  0  0  0  0  0  0
    0.0716   -3.8312   -1.2789 C   0  0  0  0  0  0  0  0  0  0  0  0
   -0.2382   -5.0513   -1.9061 C   0  0  0  0  0  0  0  0  0  0  0  0
   -1.0266   -5.0789   -3.0547 C   0  0  0  0  0  0  0  0  0  0  0  0
   -1.5430   -3.8906   -3.5802 C   0  0  0  0  0  0  0  0  0  0  0  0
   -1.2625   -2.6789   -2.9433 C   0  0  0  0  0  0  0  0  0  0  0  0
   -1.7950   -1.3785   -3.4933 C   0  0  1  0  0  0  0  0  0  0  0  0
   -2.7003   -1.5727   -4.4708 F   0  0  0  0  0  0  0  0  0  0  0  0
   -2.3872   -0.6376   -2.5410 F   0  0  0  0  0  0  0  0  0  0  0  0
   -0.8085   -0.6228   -4.0168 F   0  0  0  0  0  0  0  0  0  0  0  0
   -0.4575   -2.6416   -1.7958 C   0  0  0  0  0  0  0  0  0  0  0  0
    2.5788   -2.2396   -0.7352 C   0  0  0  0  0  0  0  0  0  0  0  0
    3.2273    1.4685    0.8635 H   0  0  0  0  0  0  0  0  0  0  0  0
    0.5085    2.2382    0.0170 H   0  0  0  0  0  0  0  0  0  0  0  0
    1.8637    3.3414    0.3489 H   0  0  0  0  0  0  0  0  0  0  0  0
    0.1195    1.8227    2.3701 H   0  0  0  0  0  0  0  0  0  0  0  0
    0.2843    3.5626    2.1676 H   0  0  0  0  0  0  0  0  0  0  0  0
    2.2735    1.5352    3.3265 H   0  0  0  0  0  0  0  0  0  0  0  0
    1.4938    2.8710    4.1737 H   0  0  0  0  0  0  0  0  0  0  0  0
    2.0197    5.0354    2.2310 H   0  0  0  0  0  0  0  0  0  0  0  0
    3.7834    5.2113    2.1398 H   0  0  0  0  0  0  0  0  0  0  0  0
    2.1064    5.2049    4.7235 H   0  0  0  0  0  0  0  0  0  0  0  0
    2.9745    6.5880    4.0040 H   0  0  0  0  0  0  0  0  0  0  0  0
    3.5249    3.3874    5.6574 H   0  0  0  0  0  0  0  0  0  0  0  0
    5.2897    3.6234    5.5250 H   0  0  0  0  0  0  0  0  0  0  0  0
    4.4062    1.9623    3.8030 H   0  0  0  0  0  0  0  0  0  0  0  0
    5.2185    3.3771    3.0872 H   0  0  0  0  0  0  0  0  0  0  0  0
    4.2534   -0.1636    1.5286 H   0  0  0  0  0  0  0  0  0  0  0  0
    4.8193   -1.6752    0.8305 H   0  0  0  0  0  0  0  0  0  0  0  0
    2.2234   -1.3377    2.4527 H   0  0  0  0  0  0  0  0  0  0  0  0
    3.7078   -2.1307    3.0112 H   0  0  0  0  0  0  0  0  0  0  0  0
    1.9759   -3.7968    2.2034 H   0  0  0  0  0  0  0  0  0  0  0  0
    3.5023   -3.8907    1.3111 H   0  0  0  0  0  0  0  0  0  0  0  0
    0.1398   -5.9771   -1.4685 H   0  0  0  0  0  0  0  0  0  0  0  0
   -1.2523   -6.0316   -3.5398 H   0  0  0  0  0  0  0  0  0  0  0  0
   -2.1694   -3.9044   -4.4733 H   0  0  0  0  0  0  0  0  0  0  0  0
   -0.2501   -1.6877   -1.3052 H   0  0  0  0  0  0  0  0  0  0  0  0
    1.9275   -2.0702   -1.5963 H   0  0  0  0  0  0  0  0  0  0  0  0
    3.4621   -2.8069   -1.0927 H   0  0  0  0  0  0  0  0  0  0  0  0
  1  2  2  0
  2  3  1  0
  2 13  1  0
  3  4  1  0
  3 32  1  0
  4  5  1  0
  4 33  1  0
  4 34  1  0
  5  6  1  0
  5 35  1  0
  5 36  1  0
  6  7  1  0
  6 37  1  0
  6 38  1  0
  7  8  1  0
  7 12  1  0
  8  9  1  0
  8 39  1  0
  8 40  1  0
  9 10  1  0
  9 41  1  0
  9 42  1  0
 10 11  1  0
 11 12  1  0
 11 43  1  0
 11 44  1  0
 12 45  1  0
 12 46  1  0
 13 14  1  6
 13 15  1  0
 13 31  1  0
 15 16  1  0
 15 47  1  0
 15 48  1  0
 16 17  1  0
 16 49  1  0
 16 50  1  0
 17 18  1  0
 17 51  1  0
 17 52  1  0
 18 19  1  0
 18 31  1  0
 19 20  2  0
 19 21  1  0
 21 22  2  0
 21 30  1  0
 22 23  1  0
 22 53  1  0
 23 24  2  0
 23 54  1  0
 24 25  1  0
 24 55  1  0
 25 26  1  0
 25 30  2  0
 26 27  1  6
 26 28  1  0
 26 29  1  0
 30 56  1  0
 31 57  1  0
 31 58  1  0
M  END

