
     RDKit          3D

 51 53  0  0  0  0  0  0  0  0999 V2000
   10.5333   -1.2639    8.6284 N   0  0  0  0  0  0  0  0  0  0  0  0
   10.1191   -1.8569    7.4670 C   0  0  0  0  0  0  0  0  0  0  0  0
   10.7580   -3.0377    6.9592 C   0  0  0  0  0  0  0  0  0  0  0  0
   10.3344   -3.5669    5.7758 C   0  0  0  0  0  0  0  0  0  0  0  0
    9.3184   -3.0160    5.0482 N   0  0  0  0  0  0  0  0  0  0  0  0
    8.8989   -3.6003    3.7737 C   0  0  0  0  0  0  0  0  0  0  0  0
    9.4447   -2.8312    2.5652 C   0  0  0  0  0  0  0  0  0  0  0  0
    9.0646   -3.4796    1.2443 C   0  0  1  0  0  0  0  0  0  0  0  0
    7.6811   -3.5692    1.1519 F   0  0  0  0  0  0  0  0  0  0  0  0
    9.5176   -2.6982    0.0037 C   0  0  0  0  0  0  0  0  0  0  0  0
   10.9639   -2.6608   -0.1372 N   0  0  0  0  0  0  0  0  0  0  0  0
   11.8234   -1.6322    0.0592 C   0  0  0  0  0  0  0  0  0  0  0  0
   13.0681   -2.1907   -0.1695 C   0  0  0  0  0  0  0  0  0  0  0  0
   14.3974   -1.5299   -0.0911 C   0  0  0  0  0  0  0  0  0  0  0  0
   14.5192   -0.3543    0.2252 O   0  0  0  0  0  0  0  0  0  0  0  0
   15.4373   -2.3553   -0.3988 N   0  0  0  0  0  0  0  0  0  0  0  0
   16.8185   -1.9145   -0.3388 C   0  0  0  0  0  0  0  0  0  0  0  0
   17.5193   -2.2833    0.9561 C   0  0  0  0  0  0  0  0  0  0  0  0
   18.5293   -3.2464    1.0098 C   0  0  0  0  0  0  0  0  0  0  0  0
   19.1229   -3.5590    2.2364 C   0  0  0  0  0  0  0  0  0  0  0  0
   18.6685   -2.8831    3.3692 C   0  0  0  0  0  0  0  0  0  0  0  0
   19.2491   -3.1635    4.7445 C   0  0  1  0  0  0  0  0  0  0  0  0
   20.2124   -4.1040    4.6866 F   0  0  0  0  0  0  0  0  0  0  0  0
   19.7925   -2.0635    5.2817 F   0  0  0  0  0  0  0  0  0  0  0  0
   18.3078   -3.6054    5.5911 F   0  0  0  0  0  0  0  0  0  0  0  0
   17.7095   -1.9559    3.3391 N   0  0  0  0  0  0  0  0  0  0  0  0
   17.1537   -1.6630    2.1678 C   0  0  0  0  0  0  0  0  0  0  0  0
   12.8931   -3.5054   -0.4825 N   0  0  0  0  0  0  0  0  0  0  0  0
   11.6308   -3.7886   -0.4620 N   0  0  0  0  0  0  0  0  0  0  0  0
    8.6253   -1.8416    5.4625 C   0  0  0  0  0  0  0  0  0  0  0  0
    7.7295   -1.3738    4.7694 O   0  0  0  0  0  0  0  0  0  0  0  0
    9.0916   -1.3155    6.7179 C   0  0  0  0  0  0  0  0  0  0  0  0
    8.4730   -0.2111    7.1830 F   0  0  0  0  0  0  0  0  0  0  0  0
   11.0952   -1.7955    9.2789 H   0  0  0  0  0  0  0  0  0  0  0  0
    9.9455   -0.5400    9.0218 H   0  0  0  0  0  0  0  0  0  0  0  0
   11.5763   -3.5057    7.5071 H   0  0  0  0  0  0  0  0  0  0  0  0
   10.7912   -4.4653    5.3557 H   0  0  0  0  0  0  0  0  0  0  0  0
    7.8018   -3.5833    3.7384 H   0  0  0  0  0  0  0  0  0  0  0  0
    9.2342   -4.6487    3.7546 H   0  0  0  0  0  0  0  0  0  0  0  0
   10.5444   -2.7712    2.6265 H   0  0  0  0  0  0  0  0  0  0  0  0
    9.0433   -1.8059    2.5998 H   0  0  0  0  0  0  0  0  0  0  0  0
    9.4678   -4.5062    1.1799 H   0  0  0  0  0  0  0  0  0  0  0  0
    9.1469   -1.6649    0.0543 H   0  0  0  0  0  0  0  0  0  0  0  0
    9.0919   -3.1793   -0.8882 H   0  0  0  0  0  0  0  0  0  0  0  0
   11.5169   -0.6259    0.3297 H   0  0  0  0  0  0  0  0  0  0  0  0
   15.2156   -3.3295   -0.5845 H   0  0  0  0  0  0  0  0  0  0  0  0
   16.8029   -0.8204   -0.4515 H   0  0  0  0  0  0  0  0  0  0  0  0
   17.3703   -2.3365   -1.1936 H   0  0  0  0  0  0  0  0  0  0  0  0
   18.8570   -3.7537    0.0975 H   0  0  0  0  0  0  0  0  0  0  0  0
   19.9138   -4.3056    2.3119 H   0  0  0  0  0  0  0  0  0  0  0  0
   16.3731   -0.8930    2.1656 H   0  0  0  0  0  0  0  0  0  0  0  0
  1  2  1  0
  1 34  1  0
  1 35  1  0
  2  3  1  0
  2 32  2  0
  3  4  2  0
  3 36  1  0
  4  5  1  0
  4 37  1  0
  5  6  1  0
  5 30  1  0
  6  7  1  0
  6 38  1  0
  6 39  1  0
  7  8  1  0
  7 40  1  0
  7 41  1  0
  8  9  1  0
  8 10  1  0
  8 42  1  6
 10 11  1  0
 10 43  1  0
 10 44  1  0
 11 12  1  0
 11 29  1  0
 12 13  2  0
 12 45  1  0
 13 14  1  0
 13 28  1  0
 14 15  2  0
 14 16  1  0
 16 17  1  0
 16 46  1  0
 17 18  1  0
 17 47  1  0
 17 48  1  0
 18 19  2  0
 18 27  1  0
 19 20  1  0
 19 49  1  0
 20 21  2  0
 20 50  1  0
 21 22  1  0
 21 26  1  0
 22 23  1  6
 22 24  1  0
 22 25  1  0
 26 27  2  0
 27 51  1  0
 28 29  2  0
 30 31  2  0
 30 32  1  0
 32 33  1  0
M  END

