
     RDKit          3D

 77 81  0  0  0  0  0  0  0  0999 V2000
    0.9281    0.0122    0.0125 C   0  0  0  0  0  0  0  0  0  0  0  0
    2.4374    0.0599    0.0003 C   0  0  0  0  0  0  0  0  0  0  0  0
    3.1748    0.1860    1.1826 C   0  0  0  0  0  0  0  0  0  0  0  0
    4.5776    0.2289    1.1801 C   0  0  0  0  0  0  0  0  0  0  0  0
    5.3261    0.3618    2.4890 C   0  0  0  0  0  0  0  0  0  0  0  0
    5.2838    0.1451   -0.0425 C   0  0  0  0  0  0  0  0  0  0  0  0
    6.8669    0.1923   -0.0615 B   0  0  0  0  0  0  0  0  0  0  0  0
    7.7228   -1.0993    0.0468 C   0  0  0  0  0  0  0  0  0  0  0  0
    7.1123   -2.3680    0.1086 C   0  0  0  0  0  0  0  0  0  0  0  0
    7.8288   -3.5708    0.1608 C   0  0  0  0  0  0  0  0  0  0  0  0
    7.0891   -4.9201    0.2281 C   0  0  1  0  0  0  0  0  0  0  0  0
    6.1934   -5.0774   -1.0228 C   0  0  0  0  0  0  0  0  0  0  0  0
    8.0598   -6.1137    0.2804 C   0  0  0  0  0  0  0  0  0  0  0  0
    6.2070   -4.9563    1.4978 C   0  0  0  0  0  0  0  0  0  0  0  0
    9.2310   -3.4607    0.1372 C   0  0  0  0  0  0  0  0  0  0  0  0
    9.8689   -2.2231    0.0810 C   0  0  0  0  0  0  0  0  0  0  0  0
    9.1448   -1.0163    0.0518 C   0  0  0  0  0  0  0  0  0  0  0  0
    9.8286    0.2969    0.0146 C   0  0  0  0  0  0  0  0  0  0  0  0
   11.1721    0.3996    0.2619 C   0  0  0  0  0  0  0  0  0  0  0  0
   11.9229    1.6329    0.2069 C   0  0  0  0  0  0  0  0  0  0  0  0
   13.2035    1.6249    0.7117 C   0  0  0  0  0  0  0  0  0  0  0  0
   14.1098    2.6995    0.8489 C   0  0  0  0  0  0  0  0  0  0  0  0
   14.9478    3.5694    1.0114 C   0  0  0  0  0  0  0  0  0  0  0  0
   11.9120    3.7700   -1.0498 C   0  0  0  0  0  0  0  0  0  0  0  0
   11.2346    2.7951   -0.4038 C   0  0  0  0  0  0  0  0  0  0  0  0
    9.7493    2.7673   -0.3541 C   0  0  0  0  0  0  0  0  0  0  0  0
    9.0094    3.9556   -0.4768 C   0  0  0  0  0  0  0  0  0  0  0  0
    7.6089    3.9836   -0.4802 C   0  0  0  0  0  0  0  0  0  0  0  0
    6.7956    5.2868   -0.6024 C   0  0  1  0  0  0  0  0  0  0  0  0
    7.6956    6.5283   -0.7361 C   0  0  0  0  0  0  0  0  0  0  0  0
    5.8904    5.2074   -1.8538 C   0  0  0  0  0  0  0  0  0  0  0  0
    5.9151    5.4597    0.6572 C   0  0  0  0  0  0  0  0  0  0  0  0
    6.9543    2.7498   -0.3528 C   0  0  0  0  0  0  0  0  0  0  0  0
    7.6405    1.5313   -0.2111 C   0  0  0  0  0  0  0  0  0  0  0  0
    9.0634    1.5371   -0.1977 C   0  0  0  0  0  0  0  0  0  0  0  0
    4.5459    0.0175   -1.2460 C   0  0  0  0  0  0  0  0  0  0  0  0
    5.2628   -0.0762   -2.5758 C   0  0  0  0  0  0  0  0  0  0  0  0
    3.1464   -0.0230   -1.2061 C   0  0  0  0  0  0  0  0  0  0  0  0
    0.5278    0.1116    1.0326 H   0  0  0  0  0  0  0  0  0  0  0  0
    0.5522   -0.9379   -0.4040 H   0  0  0  0  0  0  0  0  0  0  0  0
    0.4946    0.8215   -0.5990 H   0  0  0  0  0  0  0  0  0  0  0  0
    2.6443    0.2537    2.1379 H   0  0  0  0  0  0  0  0  0  0  0  0
    4.6376    0.4508    3.3424 H   0  0  0  0  0  0  0  0  0  0  0  0
    5.9813    1.2491    2.4934 H   0  0  0  0  0  0  0  0  0  0  0  0
    5.9757   -0.5106    2.6733 H   0  0  0  0  0  0  0  0  0  0  0  0
    6.0198   -2.3935    0.1100 H   0  0  0  0  0  0  0  0  0  0  0  0
    6.7959   -5.0593   -1.9451 H   0  0  0  0  0  0  0  0  0  0  0  0
    5.4452   -4.2737   -1.0946 H   0  0  0  0  0  0  0  0  0  0  0  0
    5.6510   -6.0367   -0.9894 H   0  0  0  0  0  0  0  0  0  0  0  0
    8.6991   -6.1647   -0.6151 H   0  0  0  0  0  0  0  0  0  0  0  0
    7.4907   -7.0552    0.3324 H   0  0  0  0  0  0  0  0  0  0  0  0
    8.7134   -6.0743    1.1661 H   0  0  0  0  0  0  0  0  0  0  0  0
    5.4602   -4.1480    1.5011 H   0  0  0  0  0  0  0  0  0  0  0  0
    6.8195   -4.8517    2.4077 H   0  0  0  0  0  0  0  0  0  0  0  0
    5.6636   -5.9136    1.5614 H   0  0  0  0  0  0  0  0  0  0  0  0
    9.8542   -4.3555    0.1553 H   0  0  0  0  0  0  0  0  0  0  0  0
   10.9591   -2.2166    0.0405 H   0  0  0  0  0  0  0  0  0  0  0  0
   11.7354   -0.4853    0.5614 H   0  0  0  0  0  0  0  0  0  0  0  0
   13.5730    0.6647    1.0913 H   0  0  0  0  0  0  0  0  0  0  0  0
   12.9990    3.7617   -1.1191 H   0  0  0  0  0  0  0  0  0  0  0  0
   15.6729    4.3491    1.1480 H   0  0  0  0  0  0  0  0  0  0  0  0
   11.3909    4.5837   -1.5577 H   0  0  0  0  0  0  0  0  0  0  0  0
    9.5634    4.8901   -0.5488 H   0  0  0  0  0  0  0  0  0  0  0  0
    8.3338    6.4801   -1.6326 H   0  0  0  0  0  0  0  0  0  0  0  0
    8.3471    6.6621    0.1418 H   0  0  0  0  0  0  0  0  0  0  0  0
    7.0726    7.4322   -0.8240 H   0  0  0  0  0  0  0  0  0  0  0  0
    6.4915    5.0886   -2.7695 H   0  0  0  0  0  0  0  0  0  0  0  0
    5.2937    6.1290   -1.9555 H   0  0  0  0  0  0  0  0  0  0  0  0
    5.1892    4.3611   -1.8003 H   0  0  0  0  0  0  0  0  0  0  0  0
    6.5344    5.5239    1.5661 H   0  0  0  0  0  0  0  0  0  0  0  0
    5.2153    4.6203    0.7864 H   0  0  0  0  0  0  0  0  0  0  0  0
    5.3185    6.3842    0.5857 H   0  0  0  0  0  0  0  0  0  0  0  0
    5.8628    2.7144   -0.3480 H   0  0  0  0  0  0  0  0  0  0  0  0
    5.9401   -0.9461   -2.6102 H   0  0  0  0  0  0  0  0  0  0  0  0
    5.8850    0.8149   -2.7640 H   0  0  0  0  0  0  0  0  0  0  0  0
    4.5542   -0.1713   -3.4120 H   0  0  0  0  0  0  0  0  0  0  0  0
    2.5926   -0.1218   -2.1458 H   0  0  0  0  0  0  0  0  0  0  0  0
  1  2  1  0
  1 39  1  0
  1 40  1  0
  1 41  1  0
  2  3  2  0
  2 38  1  0
  3  4  1  0
  3 42  1  0
  4  5  1  0
  4  6  2  0
  5 43  1  0
  5 44  1  0
  5 45  1  0
  6  7  1  0
  6 36  1  0
  7  8  1  0
  7 34  1  0
  8  9  2  0
  8 17  1  0
  9 10  1  0
  9 46  1  0
 10 11  1  0
 10 15  2  0
 11 12  1  6
 11 13  1  0
 11 14  1  0
 12 47  1  0
 12 48  1  0
 12 49  1  0
 13 50  1  0
 13 51  1  0
 13 52  1  0
 14 53  1  0
 14 54  1  0
 14 55  1  0
 15 16  1  0
 15 56  1  0
 16 17  2  0
 16 57  1  0
 17 18  1  0
 18 19  2  0
 18 35  1  0
 19 20  1  0
 19 58  1  0
 20 21  2  0
 20 25  1  0
 21 22  1  0
 21 59  1  0
 22 23  3  0
 23 61  1  0
 24 25  2  0
 24 60  1  0
 24 62  1  0
 25 26  1  0
 26 27  1  0
 26 35  2  0
 27 28  2  0
 27 63  1  0
 28 29  1  0
 28 33  1  0
 29 30  1  6
 29 31  1  0
 29 32  1  0
 30 64  1  0
 30 65  1  0
 30 66  1  0
 31 67  1  0
 31 68  1  0
 31 69  1  0
 32 70  1  0
 32 71  1  0
 32 72  1  0
 33 34  2  0
 33 73  1  0
 34 35  1  0
 36 37  1  0
 36 38  2  0
 37 74  1  0
 37 75  1  0
 37 76  1  0
 38 77  1  0
M  END

