
     RDKit          3D

 39 38  0  0  0  0  0  0  0  0999 V2000
    1.3454   -5.0364   -2.0743 C   0  0  0  0  0  0  0  0  0  0  0  0
    1.3853   -5.6655   -0.6913 C   0  0  0  0  0  0  0  0  0  0  0  0
    2.4328   -5.1117    0.1192 O   0  0  0  0  0  0  0  0  0  0  0  0
    3.6645   -5.6617   -0.0096 C   0  0  0  0  0  0  0  0  0  0  0  0
    3.9276   -6.5946   -0.7457 O   0  0  0  0  0  0  0  0  0  0  0  0
    4.5546   -5.0372    0.8082 N   0  0  0  0  0  0  0  0  0  0  0  0
    5.9646   -5.3857    0.7844 C   0  0  0  0  0  0  0  0  0  0  0  0
    6.7550   -4.6952   -0.3358 C   0  0  0  0  0  0  0  0  0  0  0  0
    8.1817   -5.2335   -0.5256 C   0  0  0  0  0  0  0  0  0  0  0  0
    8.2911   -6.7260   -0.8801 C   0  0  0  0  0  0  0  0  0  0  0  0
    7.4819   -7.1387   -2.1193 C   0  0  0  0  0  0  0  0  0  0  0  0
    7.6664   -8.5299   -2.4951 N   0  0  0  0  0  0  0  0  0  0  0  0
    8.7508   -8.9512   -3.1978 C   0  0  0  0  0  0  0  0  0  0  0  0
    9.6360   -8.2331   -3.6190 O   0  0  0  0  0  0  0  0  0  0  0  0
    8.7068  -10.2987   -3.3725 O   0  0  0  0  0  0  0  0  0  0  0  0
    9.7737  -10.8849   -4.1289 C   0  0  0  0  0  0  0  0  0  0  0  0
    9.5027  -10.8375   -5.6242 C   0  0  0  0  0  0  0  0  0  0  0  0
    0.4828   -5.4239   -2.6403 H   0  0  0  0  0  0  0  0  0  0  0  0
    2.2598   -5.2778   -2.6363 H   0  0  0  0  0  0  0  0  0  0  0  0
    1.2482   -3.9413   -2.0064 H   0  0  0  0  0  0  0  0  0  0  0  0
    1.5246   -6.7546   -0.7606 H   0  0  0  0  0  0  0  0  0  0  0  0
    0.4603   -5.4586   -0.1327 H   0  0  0  0  0  0  0  0  0  0  0  0
    4.2348   -4.2144    1.3047 H   0  0  0  0  0  0  0  0  0  0  0  0
    6.0201   -6.4771    0.6659 H   0  0  0  0  0  0  0  0  0  0  0  0
    6.3987   -5.1464    1.7693 H   0  0  0  0  0  0  0  0  0  0  0  0
    6.7971   -3.6103   -0.1336 H   0  0  0  0  0  0  0  0  0  0  0  0
    6.1851   -4.8077   -1.2727 H   0  0  0  0  0  0  0  0  0  0  0  0
    8.7722   -5.0444    0.3891 H   0  0  0  0  0  0  0  0  0  0  0  0
    8.6689   -4.6427   -1.3210 H   0  0  0  0  0  0  0  0  0  0  0  0
    7.9793   -7.3536   -0.0263 H   0  0  0  0  0  0  0  0  0  0  0  0
    9.3498   -6.9670   -1.0683 H   0  0  0  0  0  0  0  0  0  0  0  0
    7.7821   -6.5123   -2.9754 H   0  0  0  0  0  0  0  0  0  0  0  0
    6.4047   -6.9855   -1.9526 H   0  0  0  0  0  0  0  0  0  0  0  0
    7.0207   -9.2343   -2.1602 H   0  0  0  0  0  0  0  0  0  0  0  0
    9.8372  -11.9231   -3.7693 H   0  0  0  0  0  0  0  0  0  0  0  0
   10.7130  -10.3650   -3.8873 H   0  0  0  0  0  0  0  0  0  0  0  0
    8.5424  -11.3202   -5.8657 H   0  0  0  0  0  0  0  0  0  0  0  0
   10.3012  -11.3651   -6.1709 H   0  0  0  0  0  0  0  0  0  0  0  0
    9.4752   -9.7960   -5.9776 H   0  0  0  0  0  0  0  0  0  0  0  0
  1  2  1  0
  1 18  1  0
  1 19  1  0
  1 20  1  0
  2  3  1  0
  2 21  1  0
  2 22  1  0
  3  4  1  0
  4  5  2  0
  4  6  1  0
  6  7  1  0
  6 23  1  0
  7  8  1  0
  7 24  1  0
  7 25  1  0
  8  9  1  0
  8 26  1  0
  8 27  1  0
  9 10  1  0
  9 28  1  0
  9 29  1  0
 10 11  1  0
 10 30  1  0
 10 31  1  0
 11 12  1  0
 11 32  1  0
 11 33  1  0
 12 13  1  0
 12 34  1  0
 13 14  2  0
 13 15  1  0
 15 16  1  0
 16 17  1  0
 16 35  1  0
 16 36  1  0
 17 37  1  0
 17 38  1  0
 17 39  1  0
M  END

