
     RDKit          3D

 48 49  0  0  0  0  0  0  0  0999 V2000
   -1.7162    0.0615    1.9436 C   0  0  0  0  0  0  0  0  0  0  0  0
   -0.5764   -0.5310    2.3047 C   0  0  0  0  0  0  0  0  0  0  0  0
   -0.3928   -2.0140    2.4209 C   0  0  0  0  0  0  0  0  0  0  0  0
    0.7818   -2.3766    1.7081 O   0  0  0  0  0  0  0  0  0  0  0  0
    1.1951   -3.6651    1.7286 C   0  0  0  0  0  0  0  0  0  0  0  0
    0.5323   -4.7284    2.3552 C   0  0  0  0  0  0  0  0  0  0  0  0
    1.0773   -6.0184    2.2997 C   0  0  0  0  0  0  0  0  0  0  0  0
    2.2706   -6.2620    1.6248 C   0  0  0  0  0  0  0  0  0  0  0  0
    2.9588   -5.2141    0.9814 C   0  0  0  0  0  0  0  0  0  0  0  0
    4.2414   -5.4459    0.2187 C   0  0  0  0  0  0  0  0  0  0  0  0
    4.0455   -5.8176   -1.2773 C   0  0  2  0  0  0  0  0  0  0  0  0
    5.0487   -5.8489   -1.7263 H   0  0  0  0  0  0  0  0  0  0  0  0
    3.2876   -4.8319   -2.0261 N   0  0  0  0  0  0  0  0  0  0  0  0
    3.8852   -3.6977   -2.5136 C   0  0  0  0  0  0  0  0  0  0  0  0
    5.0864   -3.5205   -2.5485 O   0  0  0  0  0  0  0  0  0  0  0  0
    2.9381   -2.8466   -2.9561 O   0  0  0  0  0  0  0  0  0  0  0  0
    3.2643   -1.4936   -3.4116 C   0  0  1  0  0  0  0  0  0  0  0  0
    4.1344   -1.5582   -4.6711 C   0  0  0  0  0  0  0  0  0  0  0  0
    1.8894   -0.9026   -3.7304 C   0  0  0  0  0  0  0  0  0  0  0  0
    3.9393   -0.7133   -2.2783 C   0  0  0  0  0  0  0  0  0  0  0  0
    3.3944   -7.1783   -1.4497 C   0  0  1  0  0  0  0  0  0  0  0  0
    2.3164   -7.2123   -1.2277 H   0  0  0  0  0  0  0  0  0  0  0  0
    3.9435   -8.2019   -2.3474 C   0  0  0  0  0  0  0  0  0  0  0  0
    4.1273   -8.2819   -0.9353 O   0  0  0  0  0  0  0  0  0  0  0  0
    2.4004   -3.9384    1.0491 C   0  0  0  0  0  0  0  0  0  0  0  0
    3.0311   -2.9044    0.4616 F   0  0  0  0  0  0  0  0  0  0  0  0
   -1.8080    1.1504    1.9111 H   0  0  0  0  0  0  0  0  0  0  0  0
   -2.6045   -0.5180    1.6702 H   0  0  0  0  0  0  0  0  0  0  0  0
    0.3036    0.0690    2.5642 H   0  0  0  0  0  0  0  0  0  0  0  0
   -1.2745   -2.5509    2.0242 H   0  0  0  0  0  0  0  0  0  0  0  0
   -0.2790   -2.2997    3.4861 H   0  0  0  0  0  0  0  0  0  0  0  0
   -0.4033   -4.5595    2.8880 H   0  0  0  0  0  0  0  0  0  0  0  0
    0.5551   -6.8390    2.7975 H   0  0  0  0  0  0  0  0  0  0  0  0
    2.6919   -7.2697    1.5923 H   0  0  0  0  0  0  0  0  0  0  0  0
    4.8085   -6.2647    0.6874 H   0  0  0  0  0  0  0  0  0  0  0  0
    4.8674   -4.5429    0.2510 H   0  0  0  0  0  0  0  0  0  0  0  0
    2.2851   -4.7767   -1.8816 H   0  0  0  0  0  0  0  0  0  0  0  0
    3.6347   -2.1528   -5.4522 H   0  0  0  0  0  0  0  0  0  0  0  0
    5.1091   -2.0116   -4.4509 H   0  0  0  0  0  0  0  0  0  0  0  0
    4.2950   -0.5424   -5.0655 H   0  0  0  0  0  0  0  0  0  0  0  0
    1.3806   -1.5010   -4.5016 H   0  0  0  0  0  0  0  0  0  0  0  0
    1.9936    0.1286   -4.1007 H   0  0  0  0  0  0  0  0  0  0  0  0
    1.2567   -0.8889   -2.8300 H   0  0  0  0  0  0  0  0  0  0  0  0
    4.9330   -1.1221   -2.0546 H   0  0  0  0  0  0  0  0  0  0  0  0
    3.3259   -0.7637   -1.3656 H   0  0  0  0  0  0  0  0  0  0  0  0
    4.0484    0.3437   -2.5677 H   0  0  0  0  0  0  0  0  0  0  0  0
    4.8451   -7.9756   -2.9317 H   0  0  0  0  0  0  0  0  0  0  0  0
    3.2808   -8.9610   -2.7835 H   0  0  0  0  0  0  0  0  0  0  0  0
  1  2  2  0
  1 27  1  0
  1 28  1  0
  2  3  1  0
  2 29  1  0
  3  4  1  0
  3 30  1  0
  3 31  1  0
  4  5  1  0
  5  6  2  0
  5 25  1  0
  6  7  1  0
  6 32  1  0
  7  8  2  0
  7 33  1  0
  8  9  1  0
  8 34  1  0
  9 10  1  0
  9 25  2  0
 10 11  1  0
 10 35  1  0
 10 36  1  0
 11 12  1  6
 11 13  1  0
 11 21  1  0
 13 14  1  0
 13 37  1  0
 14 15  2  0
 14 16  1  0
 17 16  1  1
 17 18  1  0
 17 19  1  0
 17 20  1  0
 18 38  1  0
 18 39  1  0
 18 40  1  0
 19 41  1  0
 19 42  1  0
 19 43  1  0
 20 44  1  0
 20 45  1  0
 20 46  1  0
 21 22  1  1
 21 23  1  0
 21 24  1  0
 23 24  1  0
 23 47  1  0
 23 48  1  0
 25 26  1  0
M  END

