
     RDKit          3D

 38 40  0  0  0  0  0  0  0  0999 V2000
    0.4062   -0.4040   -0.3479 C   0  0  0  0  0  0  0  0  0  0  0  0
    1.9219   -0.3302   -0.1057 C   0  0  1  0  0  0  0  0  0  0  0  0
    2.6492   -1.3995   -0.8794 C   0  0  0  0  0  0  0  0  0  0  0  0
    2.3874   -1.8811   -2.0572 N   0  0  0  0  0  0  0  0  0  0  0  0
    3.4182   -2.7763   -2.2582 C   0  0  0  0  0  0  0  0  0  0  0  0
    3.5531   -3.5720   -3.4674 C   0  0  0  0  0  0  0  0  0  0  0  0
    4.5304   -4.4949   -3.7823 C   0  0  0  0  0  0  0  0  0  0  0  0
    4.3373   -5.0814   -5.0633 C   0  0  0  0  0  0  0  0  0  0  0  0
    3.2191   -4.5965   -5.7013 C   0  0  0  0  0  0  0  0  0  0  0  0
    2.3867   -3.4207   -4.7518 S   0  0  0  0  0  0  0  0  0  0  0  0
    4.2649   -2.8432   -1.2533 N   0  0  0  0  0  0  0  0  0  0  0  0
    3.7537   -1.9322   -0.3395 O   0  0  0  0  0  0  0  0  0  0  0  0
    2.5598    0.9659   -0.3843 N   0  0  0  0  0  0  0  0  0  0  0  0
    2.2742    1.5335   -1.6926 C   0  0  0  0  0  0  0  0  0  0  0  0
    2.4573    1.9325    0.6997 C   0  0  0  0  0  0  0  0  0  0  0  0
    3.2080    1.5422    1.9611 C   0  0  0  0  0  0  0  0  0  0  0  0
    4.4617    0.9138    1.8912 C   0  0  0  0  0  0  0  0  0  0  0  0
    5.1680    0.6138    3.0587 C   0  0  0  0  0  0  0  0  0  0  0  0
    4.6442    0.9357    4.3145 C   0  0  0  0  0  0  0  0  0  0  0  0
    3.3992    1.5564    4.3693 C   0  0  0  0  0  0  0  0  0  0  0  0
    2.8740    1.8669    5.5654 F   0  0  0  0  0  0  0  0  0  0  0  0
    2.6745    1.8586    3.2184 C   0  0  0  0  0  0  0  0  0  0  0  0
    0.0045   -1.3619    0.0160 H   0  0  0  0  0  0  0  0  0  0  0  0
    0.1643   -0.3278   -1.4173 H   0  0  0  0  0  0  0  0  0  0  0  0
   -0.1090    0.4056    0.1908 H   0  0  0  0  0  0  0  0  0  0  0  0
    2.1239   -0.5442    0.9547 H   0  0  0  0  0  0  0  0  0  0  0  0
    5.3515   -4.7316   -3.1050 H   0  0  0  0  0  0  0  0  0  0  0  0
    4.9988   -5.8327   -5.4969 H   0  0  0  0  0  0  0  0  0  0  0  0
    2.8373   -4.8694   -6.6843 H   0  0  0  0  0  0  0  0  0  0  0  0
    2.3789    0.7637   -2.4708 H   0  0  0  0  0  0  0  0  0  0  0  0
    2.9980    2.3348   -1.9110 H   0  0  0  0  0  0  0  0  0  0  0  0
    1.2556    1.9685   -1.7825 H   0  0  0  0  0  0  0  0  0  0  0  0
    1.4035    2.1740    0.9642 H   0  0  0  0  0  0  0  0  0  0  0  0
    2.8880    2.8766    0.3221 H   0  0  0  0  0  0  0  0  0  0  0  0
    4.8673    0.6469    0.9139 H   0  0  0  0  0  0  0  0  0  0  0  0
    6.1407    0.1201    2.9923 H   0  0  0  0  0  0  0  0  0  0  0  0
    5.1755    0.7106    5.2411 H   0  0  0  0  0  0  0  0  0  0  0  0
    1.6987    2.3400    3.3192 H   0  0  0  0  0  0  0  0  0  0  0  0
  1  2  1  0
  1 23  1  0
  1 24  1  0
  1 25  1  0
  2  3  1  0
  2 13  1  0
  2 26  1  1
  3  4  2  0
  3 12  1  0
  4  5  1  0
  5  6  1  0
  5 11  2  0
  6  7  2  0
  6 10  1  0
  7  8  1  0
  7 27  1  0
  8  9  2  0
  8 28  1  0
  9 10  1  0
  9 29  1  0
 11 12  1  0
 13 14  1  0
 13 15  1  0
 14 30  1  0
 14 31  1  0
 14 32  1  0
 15 16  1  0
 15 33  1  0
 15 34  1  0
 16 17  2  0
 16 22  1  0
 17 18  1  0
 17 35  1  0
 18 19  2  0
 18 36  1  0
 19 20  1  0
 19 37  1  0
 20 21  1  0
 20 22  2  0
 22 38  1  0
M  END

