
     RDKit          3D

 72 77  0  0  0  0  0  0  0  0999 V2000
    1.9999    2.2344   -0.7064 N   0  0  0  0  0  0  0  0  0  0  0  0
    2.8244    1.4400   -0.5052 C   0  0  0  0  0  0  0  0  0  0  0  0
    3.8660    0.5061   -0.1750 C   0  0  0  0  0  0  0  0  0  0  0  0
    4.0466   -0.6190   -0.9570 C   0  0  0  0  0  0  0  0  0  0  0  0
    5.0978   -1.5432   -0.6261 C   0  0  0  0  0  0  0  0  0  0  0  0
    5.9332   -2.3267   -0.4278 N   0  0  0  0  0  0  0  0  0  0  0  0
    3.2714   -1.0030   -2.1626 C   0  0  0  0  0  0  0  0  0  0  0  0
    2.7568   -0.0658   -3.0821 C   0  0  0  0  0  0  0  0  0  0  0  0
    2.0413   -0.4690   -4.2035 C   0  0  0  0  0  0  0  0  0  0  0  0
    1.8101   -1.8352   -4.4674 C   0  0  0  0  0  0  0  0  0  0  0  0
    1.0829   -2.2445   -5.5998 N   0  0  0  0  0  0  0  0  0  0  0  0
    1.1418   -1.4960   -6.8108 C   0  0  0  0  0  0  0  0  0  0  0  0
    2.3766   -1.0673   -7.3288 C   0  0  0  0  0  0  0  0  0  0  0  0
    2.4257   -0.3367   -8.5172 C   0  0  0  0  0  0  0  0  0  0  0  0
    1.2514   -0.0381   -9.2159 C   0  0  0  0  0  0  0  0  0  0  0  0
    0.0226   -0.4729   -8.7092 C   0  0  0  0  0  0  0  0  0  0  0  0
   -0.0366   -1.1900   -7.5129 C   0  0  0  0  0  0  0  0  0  0  0  0
    0.2750   -3.4173   -5.5567 C   0  0  0  0  0  0  0  0  0  0  0  0
   -0.5974   -3.6466   -4.4783 C   0  0  0  0  0  0  0  0  0  0  0  0
   -1.3872   -4.7971   -4.4444 C   0  0  0  0  0  0  0  0  0  0  0  0
   -1.3343   -5.7256   -5.4892 C   0  0  0  0  0  0  0  0  0  0  0  0
   -0.4759   -5.4946   -6.5688 C   0  0  0  0  0  0  0  0  0  0  0  0
    0.3291   -4.3546   -6.6027 C   0  0  0  0  0  0  0  0  0  0  0  0
    2.3422   -2.7795   -3.5644 C   0  0  0  0  0  0  0  0  0  0  0  0
    3.0589   -2.3693   -2.4479 C   0  0  0  0  0  0  0  0  0  0  0  0
    4.6397    0.8790    1.0343 C   0  0  0  0  0  0  0  0  0  0  0  0
    4.8857    2.2400    1.3173 C   0  0  0  0  0  0  0  0  0  0  0  0
    5.6105    2.6336    2.4347 C   0  0  0  0  0  0  0  0  0  0  0  0
    6.1021    1.6785    3.3496 C   0  0  0  0  0  0  0  0  0  0  0  0
    6.8303    2.0683    4.4871 N   0  0  0  0  0  0  0  0  0  0  0  0
    6.5668    3.3140    5.1274 C   0  0  0  0  0  0  0  0  0  0  0  0
    5.2481    3.7063    5.4169 C   0  0  0  0  0  0  0  0  0  0  0  0
    4.9992    4.9270    6.0467 C   0  0  0  0  0  0  0  0  0  0  0  0
    6.0573    5.7650    6.4135 C   0  0  0  0  0  0  0  0  0  0  0  0
    7.3708    5.3724    6.1372 C   0  0  0  0  0  0  0  0  0  0  0  0
    7.6273    4.1607    5.4930 C   0  0  0  0  0  0  0  0  0  0  0  0
    7.8462    1.2248    5.0237 C   0  0  0  0  0  0  0  0  0  0  0  0
    8.8036    0.6310    4.1825 C   0  0  0  0  0  0  0  0  0  0  0  0
    9.7960   -0.1922    4.7173 C   0  0  0  0  0  0  0  0  0  0  0  0
    9.8618   -0.4213    6.0955 C   0  0  0  0  0  0  0  0  0  0  0  0
    8.9179    0.1771    6.9361 C   0  0  0  0  0  0  0  0  0  0  0  0
    7.9121    0.9884    6.4076 C   0  0  0  0  0  0  0  0  0  0  0  0
    5.8279    0.3185    3.0922 C   0  0  0  0  0  0  0  0  0  0  0  0
    5.1192   -0.0689    1.9617 C   0  0  0  0  0  0  0  0  0  0  0  0
    2.9187    1.0010   -2.9328 H   0  0  0  0  0  0  0  0  0  0  0  0
    1.6545    0.2864   -4.8884 H   0  0  0  0  0  0  0  0  0  0  0  0
    3.2973   -1.3112   -6.7950 H   0  0  0  0  0  0  0  0  0  0  0  0
    3.3934   -0.0102   -8.9069 H   0  0  0  0  0  0  0  0  0  0  0  0
    1.2939    0.5284  -10.1492 H   0  0  0  0  0  0  0  0  0  0  0  0
   -0.9029   -0.2420   -9.2430 H   0  0  0  0  0  0  0  0  0  0  0  0
   -0.9986   -1.5180   -7.1144 H   0  0  0  0  0  0  0  0  0  0  0  0
   -0.6539   -2.9169   -3.6681 H   0  0  0  0  0  0  0  0  0  0  0  0
   -2.0606   -4.9610   -3.5991 H   0  0  0  0  0  0  0  0  0  0  0  0
   -1.9588   -6.6216   -5.4629 H   0  0  0  0  0  0  0  0  0  0  0  0
   -0.4219   -6.2145   -7.3896 H   0  0  0  0  0  0  0  0  0  0  0  0
    1.0061   -4.1831   -7.4418 H   0  0  0  0  0  0  0  0  0  0  0  0
    2.1986   -3.8448   -3.7490 H   0  0  0  0  0  0  0  0  0  0  0  0
    3.4694   -3.1299   -1.7802 H   0  0  0  0  0  0  0  0  0  0  0  0
    4.5206    3.0079    0.6319 H   0  0  0  0  0  0  0  0  0  0  0  0
    5.8045    3.6936    2.6022 H   0  0  0  0  0  0  0  0  0  0  0  0
    4.4198    3.0487    5.1458 H   0  0  0  0  0  0  0  0  0  0  0  0
    3.9684    5.2182    6.2644 H   0  0  0  0  0  0  0  0  0  0  0  0
    5.8594    6.7167    6.9122 H   0  0  0  0  0  0  0  0  0  0  0  0
    8.2063    6.0202    6.4149 H   0  0  0  0  0  0  0  0  0  0  0  0
    8.6533    3.8620    5.2694 H   0  0  0  0  0  0  0  0  0  0  0  0
    8.7653    0.8174    3.1075 H   0  0  0  0  0  0  0  0  0  0  0  0
   10.5318   -0.6480    4.0498 H   0  0  0  0  0  0  0  0  0  0  0  0
   10.6437   -1.0611    6.5113 H   0  0  0  0  0  0  0  0  0  0  0  0
    8.9555    0.0024    8.0144 H   0  0  0  0  0  0  0  0  0  0  0  0
    7.1702    1.4448    7.0657 H   0  0  0  0  0  0  0  0  0  0  0  0
    6.1625   -0.4422    3.7984 H   0  0  0  0  0  0  0  0  0  0  0  0
    4.9073   -1.1288    1.8248 H   0  0  0  0  0  0  0  0  0  0  0  0
  1  2  3  0
  2  3  1  0
  3  4  2  0
  3 26  1  0
  4  5  1  0
  4  7  1  0
  5  6  3  0
  7  8  2  0
  7 25  1  0
  8  9  1  0
  8 45  1  0
  9 10  2  0
  9 46  1  0
 10 11  1  0
 10 24  1  0
 11 12  1  0
 11 18  1  0
 12 13  2  0
 12 17  1  0
 13 14  1  0
 13 47  1  0
 14 15  2  0
 14 48  1  0
 15 16  1  0
 15 49  1  0
 16 17  2  0
 16 50  1  0
 17 51  1  0
 18 19  2  0
 18 23  1  0
 19 20  1  0
 19 52  1  0
 20 21  2  0
 20 53  1  0
 21 22  1  0
 21 54  1  0
 22 23  2  0
 22 55  1  0
 23 56  1  0
 24 25  2  0
 24 57  1  0
 25 58  1  0
 26 27  2  0
 26 44  1  0
 27 28  1  0
 27 59  1  0
 28 29  2  0
 28 60  1  0
 29 30  1  0
 29 43  1  0
 30 31  1  0
 30 37  1  0
 31 32  2  0
 31 36  1  0
 32 33  1  0
 32 61  1  0
 33 34  2  0
 33 62  1  0
 34 35  1  0
 34 63  1  0
 35 36  2  0
 35 64  1  0
 36 65  1  0
 37 38  2  0
 37 42  1  0
 38 39  1  0
 38 66  1  0
 39 40  2  0
 39 67  1  0
 40 41  1  0
 40 68  1  0
 41 42  2  0
 41 69  1  0
 42 70  1  0
 43 44  2  0
 43 71  1  0
 44 72  1  0
M  END

