
     RDKit          3D

 54 54  0  0  0  0  0  0  0  0999 V2000
    0.8348   -0.0324   -0.0843 C   0  0  0  0  0  0  0  0  0  0  0  0
    2.3619   -0.0548   -0.0041 C   0  0  0  0  0  0  0  0  0  0  0  0
    2.9439    1.0183    0.9213 C   0  0  0  0  0  0  0  0  0  0  0  0
    4.4728    1.0030    1.0073 C   0  0  0  0  0  0  0  0  0  0  0  0
    5.0543    2.0760    1.9326 C   0  0  0  0  0  0  0  0  0  0  0  0
    6.5834    2.0604    2.0180 C   0  0  0  0  0  0  0  0  0  0  0  0
    7.1647    3.1334    2.9434 C   0  0  0  0  0  0  0  0  0  0  0  0
    8.6938    3.1179    3.0282 C   0  0  0  0  0  0  0  0  0  0  0  0
    9.2741    4.1912    3.9537 C   0  0  0  0  0  0  0  0  0  0  0  0
   10.8035    4.1756    4.0379 C   0  0  0  0  0  0  0  0  0  0  0  0
   11.3786    5.2503    4.9641 C   0  0  0  0  0  0  0  0  0  0  0  0
   12.9103    5.2201    5.0356 C   0  0  0  0  0  0  0  0  0  0  0  0
   13.4801    6.2314    5.9096 N   0  0  0  0  0  0  0  0  0  0  0  0
   13.7223    6.0840    7.2546 C   0  0  0  0  0  0  0  0  0  0  0  0
   14.1867    7.2879    7.7493 C   0  0  0  0  0  0  0  0  0  0  0  0
   14.2277    8.2167    6.6615 C   0  0  0  0  0  0  0  0  0  0  0  0
   14.6501    9.6587    6.7107 C   0  0  0  0  0  0  0  0  0  0  0  0
   13.6256   10.5867    7.3799 C   0  0  0  0  0  0  0  0  0  0  0  0
   14.0868   11.9721    7.3524 N   0  0  0  0  0  0  0  0  0  0  0  0
   13.7786    7.5259    5.5473 C   0  0  0  0  0  0  0  0  0  0  0  0
    0.4520   -0.8162   -0.7574 H   0  0  0  0  0  0  0  0  0  0  0  0
    0.4671    0.9373   -0.4603 H   0  0  0  0  0  0  0  0  0  0  0  0
    0.3787   -0.1938    0.9071 H   0  0  0  0  0  0  0  0  0  0  0  0
    2.7864    0.0712   -1.0170 H   0  0  0  0  0  0  0  0  0  0  0  0
    2.6988   -1.0503    0.3385 H   0  0  0  0  0  0  0  0  0  0  0  0
    2.5200    0.8931    1.9354 H   0  0  0  0  0  0  0  0  0  0  0  0
    2.6075    2.0152    0.5793 H   0  0  0  0  0  0  0  0  0  0  0  0
    4.8962    1.1281   -0.0069 H   0  0  0  0  0  0  0  0  0  0  0  0
    4.8087    0.0061    1.3490 H   0  0  0  0  0  0  0  0  0  0  0  0
    4.6314    1.9509    2.9470 H   0  0  0  0  0  0  0  0  0  0  0  0
    4.7185    3.0730    1.5911 H   0  0  0  0  0  0  0  0  0  0  0  0
    7.0065    2.1856    1.0037 H   0  0  0  0  0  0  0  0  0  0  0  0
    6.9194    1.0634    2.3595 H   0  0  0  0  0  0  0  0  0  0  0  0
    6.7421    3.0082    3.9578 H   0  0  0  0  0  0  0  0  0  0  0  0
    6.8287    4.1303    2.6020 H   0  0  0  0  0  0  0  0  0  0  0  0
    9.1166    3.2434    2.0139 H   0  0  0  0  0  0  0  0  0  0  0  0
    9.0300    2.1210    3.3698 H   0  0  0  0  0  0  0  0  0  0  0  0
    8.8527    4.0659    4.9683 H   0  0  0  0  0  0  0  0  0  0  0  0
    8.9388    5.1882    3.6127 H   0  0  0  0  0  0  0  0  0  0  0  0
   11.2251    4.3011    3.0229 H   0  0  0  0  0  0  0  0  0  0  0  0
   11.1391    3.1783    4.3789 H   0  0  0  0  0  0  0  0  0  0  0  0
   10.9719    5.1264    5.9831 H   0  0  0  0  0  0  0  0  0  0  0  0
   11.0569    6.2505    4.6252 H   0  0  0  0  0  0  0  0  0  0  0  0
   13.3374    5.3574    4.0284 H   0  0  0  0  0  0  0  0  0  0  0  0
   13.2518    4.2330    5.3882 H   0  0  0  0  0  0  0  0  0  0  0  0
   13.5558    5.1286    7.7493 H   0  0  0  0  0  0  0  0  0  0  0  0
   14.4850    7.4799    8.7793 H   0  0  0  0  0  0  0  0  0  0  0  0
   14.8411   10.0393    5.6943 H   0  0  0  0  0  0  0  0  0  0  0  0
   15.6089    9.7472    7.2558 H   0  0  0  0  0  0  0  0  0  0  0  0
   13.4035   10.1967    8.3975 H   0  0  0  0  0  0  0  0  0  0  0  0
   12.6768   10.5260    6.8194 H   0  0  0  0  0  0  0  0  0  0  0  0
   14.9129   12.0776    7.9441 H   0  0  0  0  0  0  0  0  0  0  0  0
   13.3793   12.5910    7.7486 H   0  0  0  0  0  0  0  0  0  0  0  0
   13.6632    7.8576    4.5164 H   0  0  0  0  0  0  0  0  0  0  0  0
  1  2  1  0
  1 21  1  0
  1 22  1  0
  1 23  1  0
  2  3  1  0
  2 24  1  0
  2 25  1  0
  3  4  1  0
  3 26  1  0
  3 27  1  0
  4  5  1  0
  4 28  1  0
  4 29  1  0
  5  6  1  0
  5 30  1  0
  5 31  1  0
  6  7  1  0
  6 32  1  0
  6 33  1  0
  7  8  1  0
  7 34  1  0
  7 35  1  0
  8  9  1  0
  8 36  1  0
  8 37  1  0
  9 10  1  0
  9 38  1  0
  9 39  1  0
 10 11  1  0
 10 40  1  0
 10 41  1  0
 11 12  1  0
 11 42  1  0
 11 43  1  0
 12 13  1  0
 12 44  1  0
 12 45  1  0
 13 14  1  0
 13 20  1  0
 14 15  2  0
 14 46  1  0
 15 16  1  0
 15 47  1  0
 16 17  1  0
 16 20  2  0
 17 18  1  0
 17 48  1  0
 17 49  1  0
 18 19  1  0
 18 50  1  0
 18 51  1  0
 19 52  1  0
 19 53  1  0
 20 54  1  0
M  END

