
     RDKit          3D

 31 32  0  0  0  0  0  0  0  0999 V2000
    1.3334    0.1439    2.7946 C   0  0  0  0  0  0  0  0  0  0  0  0
    2.7175    0.0075    2.1608 C   0  0  0  0  0  0  0  0  0  0  0  0
    3.1996    1.3125    1.5201 C   0  0  0  0  0  0  0  0  0  0  0  0
    4.5506    1.2060    0.8862 C   0  0  0  0  0  0  0  0  0  0  0  0
    5.2526    0.1153    0.7909 N   0  0  0  0  0  0  0  0  0  0  0  0
    6.3980    0.4954    0.1601 N   0  0  0  0  0  0  0  0  0  0  0  0
    7.1307   -0.1732   -0.0439 H   0  0  0  0  0  0  0  0  0  0  0  0
    6.4587    1.8187   -0.1607 C   0  0  0  0  0  0  0  0  0  0  0  0
    7.6711    2.6481   -0.9357 S   0  0  0  0  0  0  0  0  0  0  0  0
    5.2343    2.2835    0.3271 N   0  0  0  0  0  0  0  0  0  0  0  0
    4.7643    3.6317    0.2248 C   0  0  0  0  0  0  0  0  0  0  0  0
    3.8008    3.9223   -0.7473 C   0  0  0  0  0  0  0  0  0  0  0  0
    3.3058    5.2217   -0.8570 C   0  0  0  0  0  0  0  0  0  0  0  0
    1.9863    5.6187   -2.1737 Br  0  0  0  0  0  0  0  0  0  0  0  0
    3.7765    6.2289   -0.0130 C   0  0  0  0  0  0  0  0  0  0  0  0
    4.7464    5.9195    0.9426 C   0  0  0  0  0  0  0  0  0  0  0  0
    5.2641    4.6241    1.0912 C   0  0  0  0  0  0  0  0  0  0  0  0
    6.3211    4.3167    2.1177 C   0  0  0  0  0  0  0  0  0  0  0  0
    1.0092   -0.8058    3.2477 H   0  0  0  0  0  0  0  0  0  0  0  0
    0.5736    0.4327    2.0493 H   0  0  0  0  0  0  0  0  0  0  0  0
    1.3249    0.9102    3.5879 H   0  0  0  0  0  0  0  0  0  0  0  0
    2.7108   -0.7863    1.3962 H   0  0  0  0  0  0  0  0  0  0  0  0
    3.4529   -0.3162    2.9154 H   0  0  0  0  0  0  0  0  0  0  0  0
    3.2279    2.1229    2.2711 H   0  0  0  0  0  0  0  0  0  0  0  0
    2.4736    1.6525    0.7598 H   0  0  0  0  0  0  0  0  0  0  0  0
    3.4542    3.1353   -1.4180 H   0  0  0  0  0  0  0  0  0  0  0  0
    3.3914    7.2460   -0.1013 H   0  0  0  0  0  0  0  0  0  0  0  0
    5.1143    6.7131    1.5982 H   0  0  0  0  0  0  0  0  0  0  0  0
    6.4800    5.1723    2.7890 H   0  0  0  0  0  0  0  0  0  0  0  0
    7.2752    4.0790    1.6181 H   0  0  0  0  0  0  0  0  0  0  0  0
    6.0518    3.4427    2.7324 H   0  0  0  0  0  0  0  0  0  0  0  0
  1  2  1  0
  1 19  1  0
  1 20  1  0
  1 21  1  0
  2  3  1  0
  2 22  1  0
  2 23  1  0
  3  4  1  0
  3 24  1  0
  3 25  1  0
  4  5  2  0
  4 10  1  0
  5  6  1  0
  6  7  1  0
  6  8  1  0
  8  9  2  0
  8 10  1  0
 10 11  1  0
 11 12  2  0
 11 17  1  0
 12 13  1  0
 12 26  1  0
 13 14  1  0
 13 15  2  0
 15 16  1  0
 15 27  1  0
 16 17  2  0
 16 28  1  0
 17 18  1  0
 18 29  1  0
 18 30  1  0
 18 31  1  0
M  END

