
     RDKit          3D

 27 28  0  0  0  0  0  0  0  0999 V2000
    1.0384   -0.0773    0.1211 N   0  0  0  0  0  0  0  0  0  0  0  0
    2.4946    0.0194    0.1131 C   0  0  1  0  0  0  0  0  0  0  0  0
    2.9747    0.1438   -1.3677 C   0  0  0  0  0  0  0  0  0  0  0  0
    3.5057    1.1661   -1.7458 O   0  0  0  0  0  0  0  0  0  0  0  0
    2.7983   -1.0164   -2.3083 C   0  0  0  0  0  0  0  0  0  0  0  0
    1.7005   -1.8976   -2.2497 C   0  0  0  0  0  0  0  0  0  0  0  0
    1.5399   -2.9366   -3.1645 C   0  0  0  0  0  0  0  0  0  0  0  0
    2.5040   -3.1223   -4.1606 C   0  0  0  0  0  0  0  0  0  0  0  0
    2.3238   -4.4201   -5.3109 Cl  0  0  0  0  0  0  0  0  0  0  0  0
    3.6151   -2.2820   -4.2469 C   0  0  0  0  0  0  0  0  0  0  0  0
    3.7435   -1.2417   -3.3293 C   0  0  0  0  0  0  0  0  0  0  0  0
    4.8276   -0.4751   -3.4289 F   0  0  0  0  0  0  0  0  0  0  0  0
    3.1149    1.1581    0.9569 C   0  0  0  0  0  0  0  0  0  0  0  0
    4.5002    0.6132    1.3441 C   0  0  0  0  0  0  0  0  0  0  0  0
    4.4791   -0.7912    1.0616 O   0  0  0  0  0  0  0  0  0  0  0  0
    3.1602   -1.1955    0.7950 C   0  0  0  0  0  0  0  0  0  0  0  0
    0.6192    0.7871   -0.2234 H   0  0  0  0  0  0  0  0  0  0  0  0
    0.6977   -0.2102    1.0744 H   0  0  0  0  0  0  0  0  0  0  0  0
    0.9556   -1.7267   -1.4711 H   0  0  0  0  0  0  0  0  0  0  0  0
    0.6752   -3.5991   -3.1123 H   0  0  0  0  0  0  0  0  0  0  0  0
    4.3811   -2.4212   -5.0099 H   0  0  0  0  0  0  0  0  0  0  0  0
    2.4811    1.3088    1.8454 H   0  0  0  0  0  0  0  0  0  0  0  0
    3.1688    2.1000    0.3960 H   0  0  0  0  0  0  0  0  0  0  0  0
    4.7270    0.7815    2.4127 H   0  0  0  0  0  0  0  0  0  0  0  0
    5.3091    1.0655    0.7486 H   0  0  0  0  0  0  0  0  0  0  0  0
    2.5950   -1.4353    1.7240 H   0  0  0  0  0  0  0  0  0  0  0  0
    3.1871   -2.1026    0.1747 H   0  0  0  0  0  0  0  0  0  0  0  0
  1  2  1  0
  1 17  1  0
  1 18  1  0
  2  3  1  6
  2 13  1  0
  2 16  1  0
  3  4  2  0
  3  5  1  0
  5  6  2  0
  5 11  1  0
  6  7  1  0
  6 19  1  0
  7  8  2  0
  7 20  1  0
  8  9  1  0
  8 10  1  0
 10 11  2  0
 10 21  1  0
 11 12  1  0
 13 14  1  0
 13 22  1  0
 13 23  1  0
 14 15  1  0
 14 24  1  0
 14 25  1  0
 15 16  1  0
 16 26  1  0
 16 27  1  0
M  END

