
     RDKit          3D

 34 34  0  0  0  0  0  0  0  0999 V2000
    2.5996    1.2680    0.3110 C   0  0  0  0  0  0  0  0  0  0  0  0
    2.4147   -0.2230   -0.0004 C   0  0  1  0  0  0  0  0  0  0  0  0
    0.9258   -0.5882   -0.0662 C   0  0  0  0  0  0  0  0  0  0  0  0
    3.1175   -0.6477   -1.3035 C   0  0  0  0  0  0  0  0  0  0  0  0
    4.6356   -0.4748   -1.3369 C   0  0  1  0  0  0  0  0  0  0  0  0
    5.2769   -1.2883   -0.2994 N   0  0  0  0  0  0  0  0  0  0  0  0
    6.5272   -1.0344    0.1759 C   0  0  0  0  0  0  0  0  0  0  0  0
    7.2468   -0.1730   -0.3466 O   0  0  0  0  0  0  0  0  0  0  0  0
    6.9915   -1.8211    1.3314 C   0  0  0  0  0  0  0  0  0  0  0  0
    8.3337   -1.8815    1.7945 C   0  0  0  0  0  0  0  0  0  0  0  0
    8.4456   -2.6568    2.8620 N   0  0  0  0  0  0  0  0  0  0  0  0
    7.1997   -3.1014    3.1137 N   0  0  0  0  0  0  0  0  0  0  0  0
    6.9711   -3.9768    4.2468 C   0  0  0  0  0  0  0  0  0  0  0  0
    6.2922   -2.6288    2.2277 C   0  0  0  0  0  0  0  0  0  0  0  0
    5.2128   -0.7871   -2.7449 C   0  0  0  0  0  0  0  0  0  0  0  0
    4.5313   -1.1810   -3.6565 O   0  0  0  0  0  0  0  0  0  0  0  0
    6.5189   -0.5645   -2.8698 O   0  0  0  0  0  0  0  0  0  0  0  0
    2.0688    1.5458    1.2357 H   0  0  0  0  0  0  0  0  0  0  0  0
    2.1961    1.8929   -0.5042 H   0  0  0  0  0  0  0  0  0  0  0  0
    3.6580    1.5396    0.4490 H   0  0  0  0  0  0  0  0  0  0  0  0
    2.8609   -0.7951    0.8353 H   0  0  0  0  0  0  0  0  0  0  0  0
    0.4228   -0.0427   -0.8827 H   0  0  0  0  0  0  0  0  0  0  0  0
    0.4089   -0.3329    0.8727 H   0  0  0  0  0  0  0  0  0  0  0  0
    0.7799   -1.6651   -0.2502 H   0  0  0  0  0  0  0  0  0  0  0  0
    2.7039   -0.0795   -2.1516 H   0  0  0  0  0  0  0  0  0  0  0  0
    2.8852   -1.7028   -1.5323 H   0  0  0  0  0  0  0  0  0  0  0  0
    4.9105    0.5723   -1.1237 H   0  0  0  0  0  0  0  0  0  0  0  0
    4.7860   -2.1164    0.0166 H   0  0  0  0  0  0  0  0  0  0  0  0
    9.2009   -1.3809    1.3667 H   0  0  0  0  0  0  0  0  0  0  0  0
    7.5682   -4.8942    4.1391 H   0  0  0  0  0  0  0  0  0  0  0  0
    5.9060   -4.2390    4.2935 H   0  0  0  0  0  0  0  0  0  0  0  0
    7.2644   -3.4717    5.1788 H   0  0  0  0  0  0  0  0  0  0  0  0
    5.2361   -2.8790    2.3121 H   0  0  0  0  0  0  0  0  0  0  0  0
    6.9081   -0.2624   -2.0063 H   0  0  0  0  0  0  0  0  0  0  0  0
  1  2  1  0
  1 18  1  0
  1 19  1  0
  1 20  1  0
  2  3  1  0
  2  4  1  0
  2 21  1  1
  3 22  1  0
  3 23  1  0
  3 24  1  0
  4  5  1  0
  4 25  1  0
  4 26  1  0
  5  6  1  0
  5 15  1  0
  5 27  1  1
  6  7  1  0
  6 28  1  0
  7  8  2  0
  7  9  1  0
  9 10  1  0
  9 14  2  0
 10 11  2  0
 10 29  1  0
 11 12  1  0
 12 13  1  0
 12 14  1  0
 13 30  1  0
 13 31  1  0
 13 32  1  0
 14 33  1  0
 15 16  2  0
 15 17  1  0
 17 34  1  0
M  END

