
     RDKit          3D

 30 31  0  0  0  0  0  0  0  0999 V2000
    1.0698   -0.3559    0.1643 C   0  0  0  0  0  0  0  0  0  0  0  0
    2.5059    0.0276   -0.2098 C   0  0  1  0  0  0  0  0  0  0  0  0
    2.7250    0.0889   -1.7256 C   0  0  0  0  0  0  0  0  0  0  0  0
    2.9100    1.2792    0.4388 N   0  0  0  0  0  0  0  0  0  0  0  0
    2.3687    2.5194    0.2508 C   0  0  0  0  0  0  0  0  0  0  0  0
    2.9528    3.4368    0.9809 N   0  0  0  0  0  0  0  0  0  0  0  0
    3.9352    2.7931    1.6978 C   0  0  0  0  0  0  0  0  0  0  0  0
    4.7930    3.5435    2.6307 C   0  0  0  0  0  0  0  0  0  0  0  0
    4.5849    4.9288    2.7690 C   0  0  0  0  0  0  0  0  0  0  0  0
    5.3752    5.6666    3.6394 C   0  0  0  0  0  0  0  0  0  0  0  0
    5.1842    6.9832    3.7768 F   0  0  0  0  0  0  0  0  0  0  0  0
    6.3863    5.0630    4.3929 C   0  0  0  0  0  0  0  0  0  0  0  0
    7.1403    5.7808    5.2265 F   0  0  0  0  0  0  0  0  0  0  0  0
    6.5859    3.6875    4.2495 C   0  0  0  0  0  0  0  0  0  0  0  0
    7.5537    3.1086    4.9706 F   0  0  0  0  0  0  0  0  0  0  0  0
    5.8088    2.9268    3.3855 C   0  0  0  0  0  0  0  0  0  0  0  0
    3.9328    1.4381    1.3790 C   0  0  0  0  0  0  0  0  0  0  0  0
    4.7416    0.3944    1.8493 N   0  0  0  0  0  0  0  0  0  0  0  0
    0.8164   -1.3418   -0.2555 H   0  0  0  0  0  0  0  0  0  0  0  0
    0.3448    0.3737   -0.2305 H   0  0  0  0  0  0  0  0  0  0  0  0
    0.9441   -0.4027    1.2566 H   0  0  0  0  0  0  0  0  0  0  0  0
    3.1846   -0.7341    0.2054 H   0  0  0  0  0  0  0  0  0  0  0  0
    2.0650    0.8351   -2.1959 H   0  0  0  0  0  0  0  0  0  0  0  0
    2.5058   -0.8886   -2.1826 H   0  0  0  0  0  0  0  0  0  0  0  0
    3.7654    0.3568   -1.9647 H   0  0  0  0  0  0  0  0  0  0  0  0
    1.5418    2.6966   -0.4378 H   0  0  0  0  0  0  0  0  0  0  0  0
    3.8030    5.4232    2.1928 H   0  0  0  0  0  0  0  0  0  0  0  0
    5.9953    1.8570    3.3017 H   0  0  0  0  0  0  0  0  0  0  0  0
    4.2570   -0.3235    2.3847 H   0  0  0  0  0  0  0  0  0  0  0  0
    5.3459   -0.0354    1.1513 H   0  0  0  0  0  0  0  0  0  0  0  0
  1  2  1  0
  1 19  1  0
  1 20  1  0
  1 21  1  0
  2  3  1  0
  2  4  1  0
  2 22  1  1
  3 23  1  0
  3 24  1  0
  3 25  1  0
  4  5  1  0
  4 17  1  0
  5  6  2  0
  5 26  1  0
  6  7  1  0
  7  8  1  0
  7 17  2  0
  8  9  2  0
  8 16  1  0
  9 10  1  0
  9 27  1  0
 10 11  1  0
 10 12  2  0
 12 13  1  0
 12 14  1  0
 14 15  1  0
 14 16  2  0
 16 28  1  0
 17 18  1  0
 18 29  1  0
 18 30  1  0
M  END

