
     RDKit          3D

 34 34  0  0  0  0  0  0  0  0999 V2000
    0.9028    0.1929   -0.1216 C   0  0  0  0  0  0  0  0  0  0  0  0
    2.4329    0.2266    0.0016 C   0  0  1  0  0  0  0  0  0  0  0  0
    3.0321    1.1588   -1.0596 C   0  0  0  0  0  0  0  0  0  0  0  0
    2.8886    0.6205    1.4310 C   0  0  1  0  0  0  0  0  0  0  0  0
    2.3243   -0.2803    2.5363 C   0  0  0  0  0  0  0  0  0  0  0  0
    4.3500    0.6525    1.5254 N   0  0  0  0  0  0  0  0  0  0  0  0
    5.0630    1.7768    1.8073 C   0  0  0  0  0  0  0  0  0  0  0  0
    4.5757    2.8807    1.9640 O   0  0  0  0  0  0  0  0  0  0  0  0
    6.5787    1.5464    1.9836 C   0  0  0  0  0  0  0  0  0  0  0  0
    7.3744    2.6786    1.5508 N   0  0  0  0  0  0  0  0  0  0  0  0
    7.4550    3.8138    2.3287 C   0  0  0  0  0  0  0  0  0  0  0  0
    8.1486    4.9131    1.9325 C   0  0  0  0  0  0  0  0  0  0  0  0
    8.8410    4.9766    0.6386 C   0  0  0  0  0  0  0  0  0  0  0  0
    9.4807    5.9511    0.2528 O   0  0  0  0  0  0  0  0  0  0  0  0
    8.6903    3.7423   -0.1473 C   0  0  0  0  0  0  0  0  0  0  0  0
    7.9859    2.6773    0.3156 C   0  0  0  0  0  0  0  0  0  0  0  0
    0.6053   -0.0335   -1.1575 H   0  0  0  0  0  0  0  0  0  0  0  0
    0.4653    1.1715    0.1408 H   0  0  0  0  0  0  0  0  0  0  0  0
    0.4413   -0.5682    0.5246 H   0  0  0  0  0  0  0  0  0  0  0  0
    2.8089   -0.7990   -0.1892 H   0  0  0  0  0  0  0  0  0  0  0  0
    2.6946    2.1975   -0.9085 H   0  0  0  0  0  0  0  0  0  0  0  0
    2.7232    0.8479   -2.0700 H   0  0  0  0  0  0  0  0  0  0  0  0
    4.1316    1.1615   -1.0324 H   0  0  0  0  0  0  0  0  0  0  0  0
    2.5744    1.6593    1.6189 H   0  0  0  0  0  0  0  0  0  0  0  0
    2.5988   -1.3371    2.3718 H   0  0  0  0  0  0  0  0  0  0  0  0
    1.2278   -0.2240    2.5854 H   0  0  0  0  0  0  0  0  0  0  0  0
    2.7188    0.0268    3.5167 H   0  0  0  0  0  0  0  0  0  0  0  0
    4.8468   -0.2228    1.3977 H   0  0  0  0  0  0  0  0  0  0  0  0
    6.9168    0.6492    1.4444 H   0  0  0  0  0  0  0  0  0  0  0  0
    6.7586    1.3632    3.0566 H   0  0  0  0  0  0  0  0  0  0  0  0
    6.9187    3.7684    3.2774 H   0  0  0  0  0  0  0  0  0  0  0  0
    8.1989    5.7890    2.5816 H   0  0  0  0  0  0  0  0  0  0  0  0
    9.1707    3.6977   -1.1264 H   0  0  0  0  0  0  0  0  0  0  0  0
    7.8745    1.7562   -0.2619 H   0  0  0  0  0  0  0  0  0  0  0  0
  1  2  1  0
  1 17  1  0
  1 18  1  0
  1 19  1  0
  2  3  1  0
  2  4  1  0
  2 20  1  6
  3 21  1  0
  3 22  1  0
  3 23  1  0
  4  5  1  0
  4  6  1  0
  4 24  1  1
  5 25  1  0
  5 26  1  0
  5 27  1  0
  6  7  1  0
  6 28  1  0
  7  8  2  0
  7  9  1  0
  9 10  1  0
  9 29  1  0
  9 30  1  0
 10 11  1  0
 10 16  1  0
 11 12  2  0
 11 31  1  0
 12 13  1  0
 12 32  1  0
 13 14  2  0
 13 15  1  0
 15 16  2  0
 15 33  1  0
 16 34  1  0
M  END

