
     RDKit          3D

 38 39  0  0  0  0  0  0  0  0999 V2000
    1.0143   -0.2929    0.6652 C   0  0  0  0  0  0  0  0  0  0  0  0
    2.4596   -0.1497    0.2542 C   0  0  0  0  0  0  0  0  0  0  0  0
    3.5055   -0.3335    1.1707 C   0  0  0  0  0  0  0  0  0  0  0  0
    4.8413   -0.1974    0.7878 C   0  0  0  0  0  0  0  0  0  0  0  0
    5.1693    0.1213   -0.5351 C   0  0  0  0  0  0  0  0  0  0  0  0
    6.5394    0.2863   -0.9350 N   0  0  0  0  0  0  0  0  0  0  0  0
    6.9230    1.6010   -1.4573 C   0  0  0  0  0  0  0  0  0  0  0  0
    7.2739    2.6026   -0.3555 C   0  0  0  0  0  0  0  0  0  0  0  0
    7.5583    3.9893   -0.9077 C   0  0  0  0  0  0  0  0  0  0  0  0
    7.4598    4.2970   -2.0643 O   0  0  0  0  0  0  0  0  0  0  0  0
    7.9468    4.9072    0.0112 O   0  0  0  0  0  0  0  0  0  0  0  0
    7.3789   -0.8091   -0.8123 C   0  0  0  0  0  0  0  0  0  0  0  0
    6.9555   -1.9083   -0.4867 O   0  0  0  0  0  0  0  0  0  0  0  0
    8.8468   -0.6750   -1.0856 C   0  0  0  0  0  0  0  0  0  0  0  0
    9.6859   -1.7995   -1.3110 C   0  0  0  0  0  0  0  0  0  0  0  0
   10.9613   -1.2817   -1.4460 C   0  0  0  0  0  0  0  0  0  0  0  0
   12.2829   -1.9295   -1.7062 C   0  0  0  0  0  0  0  0  0  0  0  0
   10.8181    0.0692   -1.2880 N   0  0  0  0  0  0  0  0  0  0  0  0
   11.5500    0.7700   -1.3228 H   0  0  0  0  0  0  0  0  0  0  0  0
    9.5577    0.4558   -1.0699 N   0  0  0  0  0  0  0  0  0  0  0  0
    4.1338    0.2951   -1.4638 C   0  0  0  0  0  0  0  0  0  0  0  0
    2.8016    0.1682   -1.0703 C   0  0  0  0  0  0  0  0  0  0  0  0
    0.9196   -0.5373    1.7336 H   0  0  0  0  0  0  0  0  0  0  0  0
    0.5126   -1.0913    0.0929 H   0  0  0  0  0  0  0  0  0  0  0  0
    0.4495    0.6365    0.4811 H   0  0  0  0  0  0  0  0  0  0  0  0
    3.2720   -0.5869    2.2087 H   0  0  0  0  0  0  0  0  0  0  0  0
    5.6386   -0.3533    1.5165 H   0  0  0  0  0  0  0  0  0  0  0  0
    6.0888    1.9985   -2.0510 H   0  0  0  0  0  0  0  0  0  0  0  0
    7.7755    1.4974   -2.1351 H   0  0  0  0  0  0  0  0  0  0  0  0
    8.1661    2.2478    0.1872 H   0  0  0  0  0  0  0  0  0  0  0  0
    6.4493    2.6776    0.3767 H   0  0  0  0  0  0  0  0  0  0  0  0
    7.9826    4.5060    0.8913 H   0  0  0  0  0  0  0  0  0  0  0  0
    9.3748   -2.8390   -1.3562 H   0  0  0  0  0  0  0  0  0  0  0  0
   12.1617   -3.0190   -1.7700 H   0  0  0  0  0  0  0  0  0  0  0  0
   13.0075   -1.7182   -0.9018 H   0  0  0  0  0  0  0  0  0  0  0  0
   12.7280   -1.5847   -2.6549 H   0  0  0  0  0  0  0  0  0  0  0  0
    4.3735    0.5222   -2.5053 H   0  0  0  0  0  0  0  0  0  0  0  0
    2.0107    0.3087   -1.8130 H   0  0  0  0  0  0  0  0  0  0  0  0
  1  2  1  0
  1 23  1  0
  1 24  1  0
  1 25  1  0
  2  3  2  0
  2 22  1  0
  3  4  1  0
  3 26  1  0
  4  5  2  0
  4 27  1  0
  5  6  1  0
  5 21  1  0
  6  7  1  0
  6 12  1  0
  7  8  1  0
  7 28  1  0
  7 29  1  0
  8  9  1  0
  8 30  1  0
  8 31  1  0
  9 10  2  0
  9 11  1  0
 11 32  1  0
 12 13  2  0
 12 14  1  0
 14 15  1  0
 14 20  2  0
 15 16  2  0
 15 33  1  0
 16 17  1  0
 16 18  1  0
 17 34  1  0
 17 35  1  0
 17 36  1  0
 18 19  1  0
 18 20  1  0
 21 22  2  0
 21 37  1  0
 22 38  1  0
M  END

