
     RDKit          3D

 44 46  0  0  0  0  0  0  0  0999 V2000
    3.6692    0.5052    1.7847 C   0  0  0  0  0  0  0  0  0  0  0  0
    3.3036    0.0336    0.4489 N   0  0  0  0  0  0  0  0  0  0  0  0
    3.7526    0.7571   -0.6938 C   0  0  0  0  0  0  0  0  0  0  0  0
    3.9419    2.1483   -0.6554 C   0  0  0  0  0  0  0  0  0  0  0  0
    4.4271    2.8208   -1.7820 C   0  0  0  0  0  0  0  0  0  0  0  0
    4.6966    2.1287   -2.9612 C   0  0  0  0  0  0  0  0  0  0  0  0
    4.4885    0.7414   -3.0179 C   0  0  0  0  0  0  0  0  0  0  0  0
    4.7836    0.0407   -4.3206 C   0  0  0  0  0  0  0  0  0  0  0  0
    5.5308    0.5315   -5.1511 O   0  0  0  0  0  0  0  0  0  0  0  0
    4.1255   -1.1580   -4.4874 N   0  0  0  0  0  0  0  0  0  0  0  0
    4.1971   -2.0617   -5.5621 C   0  0  0  0  0  0  0  0  0  0  0  0
    5.0278   -1.8733   -6.6817 C   0  0  0  0  0  0  0  0  0  0  0  0
    5.0440   -2.8237   -7.7049 C   0  0  0  0  0  0  0  0  0  0  0  0
    4.2385   -3.9614   -7.6253 C   0  0  0  0  0  0  0  0  0  0  0  0
    4.2687   -5.2510   -9.0316 Br  0  0  0  0  0  0  0  0  0  0  0  0
    3.4082   -4.1606   -6.5189 C   0  0  0  0  0  0  0  0  0  0  0  0
    3.3919   -3.2145   -5.4963 C   0  0  0  0  0  0  0  0  0  0  0  0
    4.0569    0.0605   -1.8747 C   0  0  0  0  0  0  0  0  0  0  0  0
    1.8457   -0.8578    0.3473 S   0  0  1  0  0  0  0  0  0  0  0  0
    1.7940   -1.4543   -0.9889 O   0  0  0  0  0  0  0  0  0  0  0  0
    1.7986   -1.6771    1.5568 O   0  0  0  0  0  0  0  0  0  0  0  0
    0.5256    0.3562    0.4509 C   0  0  0  0  0  0  0  0  0  0  0  0
    0.0972    1.0072   -0.7119 C   0  0  0  0  0  0  0  0  0  0  0  0
   -0.9116    1.9681   -0.6142 C   0  0  0  0  0  0  0  0  0  0  0  0
   -1.4842    2.2644    0.6278 C   0  0  0  0  0  0  0  0  0  0  0  0
   -1.0551    1.5965    1.7794 C   0  0  0  0  0  0  0  0  0  0  0  0
   -0.0454    0.6339    1.6978 C   0  0  0  0  0  0  0  0  0  0  0  0
    4.7354    0.7722    1.7743 H   0  0  0  0  0  0  0  0  0  0  0  0
    3.5182   -0.3107    2.5013 H   0  0  0  0  0  0  0  0  0  0  0  0
    3.0874    1.3854    2.1168 H   0  0  0  0  0  0  0  0  0  0  0  0
    3.7161    2.7095    0.2527 H   0  0  0  0  0  0  0  0  0  0  0  0
    4.5832    3.9015   -1.7358 H   0  0  0  0  0  0  0  0  0  0  0  0
    5.0717    2.6375   -3.8506 H   0  0  0  0  0  0  0  0  0  0  0  0
    3.4525   -1.4026   -3.7697 H   0  0  0  0  0  0  0  0  0  0  0  0
    5.6492   -0.9831   -6.7417 H   0  0  0  0  0  0  0  0  0  0  0  0
    5.6907   -2.6711   -8.5708 H   0  0  0  0  0  0  0  0  0  0  0  0
    2.7782   -5.0491   -6.4531 H   0  0  0  0  0  0  0  0  0  0  0  0
    2.7432   -3.3749   -4.6299 H   0  0  0  0  0  0  0  0  0  0  0  0
    3.9593   -1.0230   -1.8607 H   0  0  0  0  0  0  0  0  0  0  0  0
    0.5375    0.7491   -1.6760 H   0  0  0  0  0  0  0  0  0  0  0  0
   -1.2580    2.4813   -1.5146 H   0  0  0  0  0  0  0  0  0  0  0  0
   -2.2762    3.0142    0.6966 H   0  0  0  0  0  0  0  0  0  0  0  0
   -1.5144    1.8181    2.7458 H   0  0  0  0  0  0  0  0  0  0  0  0
    0.2860    0.0831    2.5795 H   0  0  0  0  0  0  0  0  0  0  0  0
  1  2  1  0
  1 28  1  0
  1 29  1  0
  1 30  1  0
  2  3  1  0
 19  2  1  6
  3  4  2  0
  3 18  1  0
  4  5  1  0
  4 31  1  0
  5  6  2  0
  5 32  1  0
  6  7  1  0
  6 33  1  0
  7  8  1  0
  7 18  2  0
  8  9  2  0
  8 10  1  0
 10 11  1  0
 10 34  1  0
 11 12  2  0
 11 17  1  0
 12 13  1  0
 12 35  1  0
 13 14  2  0
 13 36  1  0
 14 15  1  0
 14 16  1  0
 16 17  2  0
 16 37  1  0
 17 38  1  0
 18 39  1  0
 19 20  2  0
 19 21  2  0
 19 22  1  0
 22 23  2  0
 22 27  1  0
 23 24  1  0
 23 40  1  0
 24 25  2  0
 24 41  1  0
 25 26  1  0
 25 42  1  0
 26 27  2  0
 26 43  1  0
 27 44  1  0
M  END

