
     RDKit          3D

 47 48  0  0  0  0  0  0  0  0999 V2000
    1.1908   -0.6384    0.2446 C   0  0  0  0  0  0  0  0  0  0  0  0
    2.6719   -0.4175    0.0596 C   0  0  0  0  0  0  0  0  0  0  0  0
    3.1613    0.2123   -1.0913 C   0  0  0  0  0  0  0  0  0  0  0  0
    4.5290    0.4256   -1.2846 C   0  0  0  0  0  0  0  0  0  0  0  0
    5.4540    0.0139   -0.3201 C   0  0  0  0  0  0  0  0  0  0  0  0
    6.9434    0.2725   -0.4999 C   0  0  1  0  0  0  0  0  0  0  0  0
    7.4308    1.3748    0.4612 C   0  0  0  0  0  0  0  0  0  0  0  0
    7.6866   -0.9701   -0.3166 N   0  0  0  0  0  0  0  0  0  0  0  0
    8.9484   -1.1971   -0.8411 C   0  0  0  0  0  0  0  0  0  0  0  0
    9.6957   -0.2111   -1.5215 C   0  0  0  0  0  0  0  0  0  0  0  0
   10.9665   -0.4940   -2.0281 C   0  0  0  0  0  0  0  0  0  0  0  0
   11.5288   -1.7621   -1.8804 C   0  0  0  0  0  0  0  0  0  0  0  0
   10.7951   -2.7457   -1.2072 C   0  0  0  0  0  0  0  0  0  0  0  0
    9.5271   -2.4921   -0.6796 C   0  0  0  0  0  0  0  0  0  0  0  0
    8.8030   -3.5516    0.1215 C   0  0  0  0  0  0  0  0  0  0  0  0
    7.4533   -3.8628   -0.3644 N   0  0  0  0  0  0  0  0  0  0  0  0
    7.4437   -4.4286   -1.7038 C   0  0  0  0  0  0  0  0  0  0  0  0
    6.7095   -4.6810    0.5764 C   0  0  0  0  0  0  0  0  0  0  0  0
    4.9642   -0.6164    0.8353 C   0  0  0  0  0  0  0  0  0  0  0  0
    3.5977   -0.8419    1.0428 C   0  0  0  0  0  0  0  0  0  0  0  0
    3.1213   -1.5243    2.3021 C   0  0  0  0  0  0  0  0  0  0  0  0
    0.6181   -0.2446   -0.6077 H   0  0  0  0  0  0  0  0  0  0  0  0
    0.8151   -0.1455    1.1576 H   0  0  0  0  0  0  0  0  0  0  0  0
    0.9470   -1.7100    0.3461 H   0  0  0  0  0  0  0  0  0  0  0  0
    2.4546    0.5417   -1.8587 H   0  0  0  0  0  0  0  0  0  0  0  0
    4.8772    0.9161   -2.1981 H   0  0  0  0  0  0  0  0  0  0  0  0
    7.0832    0.6413   -1.5353 H   0  0  0  0  0  0  0  0  0  0  0  0
    7.2467    1.0823    1.5063 H   0  0  0  0  0  0  0  0  0  0  0  0
    6.8991    2.3196    0.2672 H   0  0  0  0  0  0  0  0  0  0  0  0
    8.5102    1.5552    0.3474 H   0  0  0  0  0  0  0  0  0  0  0  0
    7.1290   -1.8264   -0.2713 H   0  0  0  0  0  0  0  0  0  0  0  0
    9.2825    0.7877   -1.6620 H   0  0  0  0  0  0  0  0  0  0  0  0
   11.5174    0.2934   -2.5504 H   0  0  0  0  0  0  0  0  0  0  0  0
   12.5214   -1.9852   -2.2777 H   0  0  0  0  0  0  0  0  0  0  0  0
   11.2231   -3.7445   -1.0763 H   0  0  0  0  0  0  0  0  0  0  0  0
    8.6862   -3.1910    1.1601 H   0  0  0  0  0  0  0  0  0  0  0  0
    9.4338   -4.4670    0.1715 H   0  0  0  0  0  0  0  0  0  0  0  0
    7.9793   -3.7674   -2.4001 H   0  0  0  0  0  0  0  0  0  0  0  0
    6.4064   -4.5346   -2.0585 H   0  0  0  0  0  0  0  0  0  0  0  0
    7.9248   -5.4323   -1.7483 H   0  0  0  0  0  0  0  0  0  0  0  0
    6.6640   -4.1852    1.5590 H   0  0  0  0  0  0  0  0  0  0  0  0
    7.1599   -5.6890    0.7255 H   0  0  0  0  0  0  0  0  0  0  0  0
    5.6775   -4.8238    0.2195 H   0  0  0  0  0  0  0  0  0  0  0  0
    5.6721   -0.9444    1.6020 H   0  0  0  0  0  0  0  0  0  0  0  0
    3.9636   -1.7915    2.9567 H   0  0  0  0  0  0  0  0  0  0  0  0
    2.5620   -2.4490    2.0788 H   0  0  0  0  0  0  0  0  0  0  0  0
    2.4380   -0.8795    2.8812 H   0  0  0  0  0  0  0  0  0  0  0  0
  1  2  1  0
  1 22  1  0
  1 23  1  0
  1 24  1  0
  2  3  2  0
  2 20  1  0
  3  4  1  0
  3 25  1  0
  4  5  2  0
  4 26  1  0
  5  6  1  0
  5 19  1  0
  6  7  1  0
  6  8  1  0
  6 27  1  6
  7 28  1  0
  7 29  1  0
  7 30  1  0
  8  9  1  0
  8 31  1  0
  9 10  2  0
  9 14  1  0
 10 11  1  0
 10 32  1  0
 11 12  2  0
 11 33  1  0
 12 13  1  0
 12 34  1  0
 13 14  2  0
 13 35  1  0
 14 15  1  0
 15 16  1  0
 15 36  1  0
 15 37  1  0
 16 17  1  0
 16 18  1  0
 17 38  1  0
 17 39  1  0
 17 40  1  0
 18 41  1  0
 18 42  1  0
 18 43  1  0
 19 20  2  0
 19 44  1  0
 20 21  1  0
 21 45  1  0
 21 46  1  0
 21 47  1  0
M  END

