
     RDKit          3D

 68 75  0  0  0  0  0  0  0  0999 V2000
    2.2788   -0.9738    1.3161 O   0  0  0  0  0  0  0  0  0  0  0  0
    2.6623   -0.1731    0.0960 P   0  0  1  0  0  0  0  0  0  0  0  0
    2.0136   -0.9198   -1.4467 C   0  0  0  0  0  0  0  0  0  0  0  0
    2.3511   -0.4921   -2.7417 C   0  0  0  0  0  0  0  0  0  0  0  0
    1.7866   -1.1251   -3.8519 C   0  0  0  0  0  0  0  0  0  0  0  0
    0.8868   -2.1827   -3.6787 C   0  0  0  0  0  0  0  0  0  0  0  0
    0.5552   -2.6141   -2.3911 C   0  0  0  0  0  0  0  0  0  0  0  0
    1.1183   -1.9873   -1.2759 C   0  0  0  0  0  0  0  0  0  0  0  0
    2.0511    1.5525    0.1872 C   0  0  0  0  0  0  0  0  0  0  0  0
    1.1446    1.8223    1.2245 C   0  0  0  0  0  0  0  0  0  0  0  0
    0.6081    3.1048    1.3696 C   0  0  0  0  0  0  0  0  0  0  0  0
    0.9780    4.1228    0.4858 C   0  0  0  0  0  0  0  0  0  0  0  0
    1.8899    3.8592   -0.5423 C   0  0  0  0  0  0  0  0  0  0  0  0
    2.4278    2.5788   -0.6952 C   0  0  0  0  0  0  0  0  0  0  0  0
    4.4944   -0.0717   -0.0972 C   0  0  0  0  0  0  0  0  0  0  0  0
    5.2866   -0.7110    0.8639 C   0  0  0  0  0  0  0  0  0  0  0  0
    6.6739   -0.6367    0.7321 C   0  0  0  0  0  0  0  0  0  0  0  0
    7.2312    0.0751   -0.3408 C   0  0  0  0  0  0  0  0  0  0  0  0
    8.7088    0.1691   -0.5655 C   0  0  0  0  0  0  0  0  0  0  0  0
    9.3294   -0.9917   -1.1173 C   0  0  0  0  0  0  0  0  0  0  0  0
    8.5764   -2.1923   -1.3998 C   0  0  0  0  0  0  0  0  0  0  0  0
    9.1668   -3.3080   -1.9103 C   0  0  0  0  0  0  0  0  0  0  0  0
   10.5748   -3.3585   -2.1937 C   0  0  0  0  0  0  0  0  0  0  0  0
   11.1775   -4.5333   -2.7030 C   0  0  0  0  0  0  0  0  0  0  0  0
   12.5346   -4.5776   -2.9733 C   0  0  0  0  0  0  0  0  0  0  0  0
   13.3268   -3.4379   -2.7362 C   0  0  0  0  0  0  0  0  0  0  0  0
   12.7539   -2.2765   -2.2394 C   0  0  0  0  0  0  0  0  0  0  0  0
   11.3692   -2.1991   -1.9576 C   0  0  0  0  0  0  0  0  0  0  0  0
   10.7291   -0.9900   -1.4362 C   0  0  0  0  0  0  0  0  0  0  0  0
   11.4252    0.2063   -1.2647 C   0  0  0  0  0  0  0  0  0  0  0  0
   10.8286    1.3627   -0.7511 C   0  0  0  0  0  0  0  0  0  0  0  0
   11.6170    2.5653   -0.6875 C   0  0  0  0  0  0  0  0  0  0  0  0
   11.0963    3.7259   -0.2187 C   0  0  0  0  0  0  0  0  0  0  0  0
    9.7589    3.7705    0.3073 C   0  0  0  0  0  0  0  0  0  0  0  0
    9.2811    4.9784    0.8677 C   0  0  0  0  0  0  0  0  0  0  0  0
    8.0360    5.0537    1.4663 C   0  0  0  0  0  0  0  0  0  0  0  0
    7.2461    3.8950    1.5329 C   0  0  0  0  0  0  0  0  0  0  0  0
    7.6886    2.7044    0.9721 C   0  0  0  0  0  0  0  0  0  0  0  0
    8.9379    2.5940    0.3091 C   0  0  0  0  0  0  0  0  0  0  0  0
    9.4506    1.3595   -0.3244 C   0  0  0  0  0  0  0  0  0  0  0  0
    6.3356    0.6604   -1.2559 C   0  0  0  0  0  0  0  0  0  0  0  0
    5.0099    0.5941   -1.1387 N   0  0  0  0  0  0  0  0  0  0  0  0
    3.0692    0.3175   -2.8819 H   0  0  0  0  0  0  0  0  0  0  0  0
    2.0530   -0.7927   -4.8586 H   0  0  0  0  0  0  0  0  0  0  0  0
    0.4466   -2.6734   -4.5508 H   0  0  0  0  0  0  0  0  0  0  0  0
   -0.1429   -3.4440   -2.2531 H   0  0  0  0  0  0  0  0  0  0  0  0
    0.8794   -2.3155   -0.2615 H   0  0  0  0  0  0  0  0  0  0  0  0
    0.8769    1.0161    1.9116 H   0  0  0  0  0  0  0  0  0  0  0  0
   -0.0988    3.3097    2.1778 H   0  0  0  0  0  0  0  0  0  0  0  0
    0.5586    5.1259    0.5999 H   0  0  0  0  0  0  0  0  0  0  0  0
    2.1870    4.6569   -1.2282 H   0  0  0  0  0  0  0  0  0  0  0  0
    3.1560    2.3834   -1.4842 H   0  0  0  0  0  0  0  0  0  0  0  0
    4.8025   -1.2453    1.6840 H   0  0  0  0  0  0  0  0  0  0  0  0
    7.3279   -1.1194    1.4633 H   0  0  0  0  0  0  0  0  0  0  0  0
    7.5053   -2.2074   -1.2057 H   0  0  0  0  0  0  0  0  0  0  0  0
    8.5646   -4.1977   -2.1134 H   0  0  0  0  0  0  0  0  0  0  0  0
   10.5499   -5.4112   -2.8792 H   0  0  0  0  0  0  0  0  0  0  0  0
   12.9899   -5.4904   -3.3652 H   0  0  0  0  0  0  0  0  0  0  0  0
   14.3998   -3.4669   -2.9417 H   0  0  0  0  0  0  0  0  0  0  0  0
   13.3973   -1.4146   -2.0590 H   0  0  0  0  0  0  0  0  0  0  0  0
   12.4745    0.2748   -1.5532 H   0  0  0  0  0  0  0  0  0  0  0  0
   12.6476    2.5214   -1.0489 H   0  0  0  0  0  0  0  0  0  0  0  0
   11.6944    4.6405   -0.1987 H   0  0  0  0  0  0  0  0  0  0  0  0
    9.9306    5.8574    0.8331 H   0  0  0  0  0  0  0  0  0  0  0  0
    7.6823    5.9931    1.8983 H   0  0  0  0  0  0  0  0  0  0  0  0
    6.2749    3.9197    2.0329 H   0  0  0  0  0  0  0  0  0  0  0  0
    7.0482    1.8376    1.0789 H   0  0  0  0  0  0  0  0  0  0  0  0
    6.7281    1.2117   -2.1176 H   0  0  0  0  0  0  0  0  0  0  0  0
  1  2  2  0
  2  3  1  6
  2  9  1  0
  2 15  1  0
  3  4  2  0
  3  8  1  0
  4  5  1  0
  4 43  1  0
  5  6  2  0
  5 44  1  0
  6  7  1  0
  6 45  1  0
  7  8  2  0
  7 46  1  0
  8 47  1  0
  9 10  2  0
  9 14  1  0
 10 11  1  0
 10 48  1  0
 11 12  2  0
 11 49  1  0
 12 13  1  0
 12 50  1  0
 13 14  2  0
 13 51  1  0
 14 52  1  0
 15 16  2  0
 15 42  1  0
 16 17  1  0
 16 53  1  0
 17 18  2  0
 17 54  1  0
 18 19  1  0
 18 41  1  0
 19 20  1  0
 19 40  2  0
 20 21  2  0
 20 29  1  0
 21 22  1  0
 21 55  1  0
 22 23  2  0
 22 56  1  0
 23 24  1  0
 23 28  1  0
 24 25  2  0
 24 57  1  0
 25 26  1  0
 25 58  1  0
 26 27  2  0
 26 59  1  0
 27 28  1  0
 27 60  1  0
 28 29  2  0
 29 30  1  0
 30 31  2  0
 30 61  1  0
 31 32  1  0
 31 40  1  0
 32 33  2  0
 32 62  1  0
 33 34  1  0
 33 63  1  0
 34 35  1  0
 34 39  2  0
 35 36  2  0
 35 64  1  0
 36 37  1  0
 36 65  1  0
 37 38  2  0
 37 66  1  0
 38 39  1  0
 38 67  1  0
 39 40  1  0
 41 42  2  0
 41 68  1  0
M  END

