
     RDKit          3D

 33 36  0  0  0  0  0  0  0  0999 V2000
    1.2343   -1.1611   -0.0919 N   0  0  0  0  0  0  0  0  0  0  0  0
    2.3227   -0.2169   -0.0576 C   0  0  1  0  0  0  0  0  0  0  0  0
    3.7423   -0.7388   -0.4545 C   0  0  2  0  0  0  0  0  0  0  0  0
    5.1428   -1.0484    0.0551 C   0  0  0  0  0  0  0  0  0  0  0  0
    5.9570   -0.4602   -1.1694 C   0  0  0  0  0  0  0  0  0  0  0  0
    5.1027    0.4518   -1.9154 O   0  0  0  0  0  0  0  0  0  0  0  0
    3.9779    0.5984   -1.0881 C   0  0  1  0  0  0  0  0  0  0  0  0
    2.4637    0.6992   -1.3485 C   0  0  2  0  0  0  0  0  0  0  0  0
    1.9005    2.0334   -1.3582 N   0  0  0  0  0  0  0  0  0  0  0  0
    0.5657    2.2731   -1.3206 C   0  0  0  0  0  0  0  0  0  0  0  0
   -0.3469    1.3794   -1.0785 N   0  0  0  0  0  0  0  0  0  0  0  0
   -1.6131    1.9351   -1.0912 C   0  0  0  0  0  0  0  0  0  0  0  0
   -2.8145    1.2430   -0.8701 C   0  0  0  0  0  0  0  0  0  0  0  0
   -4.0233    1.9380   -0.9095 C   0  0  0  0  0  0  0  0  0  0  0  0
   -4.0572    3.3180   -1.1668 C   0  0  0  0  0  0  0  0  0  0  0  0
   -2.8745    4.0287   -1.3913 C   0  0  0  0  0  0  0  0  0  0  0  0
   -1.6669    3.3304   -1.3519 C   0  0  0  0  0  0  0  0  0  0  0  0
   -0.0327    3.9370   -1.5959 S   0  0  0  0  0  0  0  0  0  0  0  0
    1.1333   -1.6254    0.8110 H   0  0  0  0  0  0  0  0  0  0  0  0
    0.3714   -0.6406   -0.2723 H   0  0  0  0  0  0  0  0  0  0  0  0
    2.3611    0.4391    0.8359 H   0  0  0  0  0  0  0  0  0  0  0  0
    3.5245   -1.4412   -1.2781 H   0  0  0  0  0  0  0  0  0  0  0  0
    5.3713   -2.1132    0.2112 H   0  0  0  0  0  0  0  0  0  0  0  0
    5.3834   -0.5018    0.9808 H   0  0  0  0  0  0  0  0  0  0  0  0
    6.2787   -1.2566   -1.8603 H   0  0  0  0  0  0  0  0  0  0  0  0
    6.8565    0.0809   -0.8297 H   0  0  0  0  0  0  0  0  0  0  0  0
    4.1911    1.3548   -0.3004 H   0  0  0  0  0  0  0  0  0  0  0  0
    2.1344    0.1083   -2.2198 H   0  0  0  0  0  0  0  0  0  0  0  0
    2.5094    2.7909   -1.6426 H   0  0  0  0  0  0  0  0  0  0  0  0
   -2.7836    0.1694   -0.6730 H   0  0  0  0  0  0  0  0  0  0  0  0
   -4.9587    1.3993   -0.7381 H   0  0  0  0  0  0  0  0  0  0  0  0
   -5.0144    3.8441   -1.1940 H   0  0  0  0  0  0  0  0  0  0  0  0
   -2.8987    5.1019   -1.5929 H   0  0  0  0  0  0  0  0  0  0  0  0
  1  2  1  0
  1 19  1  0
  1 20  1  0
  2  3  1  0
  2  8  1  0
  2 21  1  1
  3  4  1  0
  3  7  1  0
  3 22  1  6
  4  5  1  0
  4 23  1  0
  4 24  1  0
  5  6  1  0
  5 25  1  0
  5 26  1  0
  6  7  1  0
  7  8  1  0
  7 27  1  1
  8  9  1  0
  8 28  1  6
  9 10  1  0
  9 29  1  0
 10 11  2  0
 10 18  1  0
 11 12  1  0
 12 13  2  0
 12 17  1  0
 13 14  1  0
 13 30  1  0
 14 15  2  0
 14 31  1  0
 15 16  1  0
 15 32  1  0
 16 17  2  0
 16 33  1  0
 17 18  1  0
M  END

