
     RDKit          3D

 45 46  0  0  0  0  0  0  0  0999 V2000
    6.1826    1.1718   -2.0450 C   0  0  0  0  0  0  0  0  0  0  0  0
    5.9198   -0.0097   -2.9946 C   0  0  1  0  0  0  0  0  0  0  0  0
    5.1585    0.4810   -4.2475 C   0  0  0  0  0  0  0  0  0  0  0  0
    7.2606   -0.6504   -3.4212 C   0  0  0  0  0  0  0  0  0  0  0  0
    5.0852   -1.0386   -2.2799 C   0  0  0  0  0  0  0  0  0  0  0  0
    4.5325   -1.1529   -1.0305 C   0  0  0  0  0  0  0  0  0  0  0  0
    3.8536   -2.3509   -0.9410 N   0  0  0  0  0  0  0  0  0  0  0  0
    4.0103   -2.9085   -2.1052 C   0  0  0  0  0  0  0  0  0  0  0  0
    3.4818   -4.2283   -2.5683 C   0  0  0  0  0  0  0  0  0  0  0  0
    3.6740   -4.6513   -3.6938 O   0  0  0  0  0  0  0  0  0  0  0  0
    2.7764   -4.8666   -1.5907 N   0  0  0  0  0  0  0  0  0  0  0  0
    2.1587   -6.1572   -1.7862 C   0  0  0  0  0  0  0  0  0  0  0  0
    0.6457   -6.1600   -1.6565 C   0  0  0  0  0  0  0  0  0  0  0  0
   -0.1094   -4.9930   -1.5321 C   0  0  0  0  0  0  0  0  0  0  0  0
   -1.5052   -5.0350   -1.4181 C   0  0  0  0  0  0  0  0  0  0  0  0
   -2.1572   -6.2658   -1.4301 C   0  0  0  0  0  0  0  0  0  0  0  0
   -1.4257   -7.4534   -1.5573 C   0  0  0  0  0  0  0  0  0  0  0  0
   -0.0313   -7.4014   -1.6712 C   0  0  0  0  0  0  0  0  0  0  0  0
    0.7629   -8.5022   -1.8090 O   0  0  0  0  0  0  0  0  0  0  0  0
    0.1875   -9.8006   -1.8485 C   0  0  0  0  0  0  0  0  0  0  0  0
    1.3349  -10.7892   -1.9609 C   0  0  0  0  0  0  0  0  0  0  0  0
    2.1864  -10.7440   -0.8430 O   0  0  0  0  0  0  0  0  0  0  0  0
    4.7449   -2.1701   -2.9634 O   0  0  0  0  0  0  0  0  0  0  0  0
    6.7926    1.9342   -2.5538 H   0  0  0  0  0  0  0  0  0  0  0  0
    6.7286    0.8520   -1.1434 H   0  0  0  0  0  0  0  0  0  0  0  0
    5.2433    1.6512   -1.7268 H   0  0  0  0  0  0  0  0  0  0  0  0
    5.7643    1.2212   -4.7942 H   0  0  0  0  0  0  0  0  0  0  0  0
    4.2040    0.9561   -3.9710 H   0  0  0  0  0  0  0  0  0  0  0  0
    4.9390   -0.3542   -4.9294 H   0  0  0  0  0  0  0  0  0  0  0  0
    7.8771    0.0847   -3.9629 H   0  0  0  0  0  0  0  0  0  0  0  0
    7.0939   -1.5133   -4.0832 H   0  0  0  0  0  0  0  0  0  0  0  0
    7.8311   -0.9970   -2.5451 H   0  0  0  0  0  0  0  0  0  0  0  0
    4.5826   -0.4529   -0.1999 H   0  0  0  0  0  0  0  0  0  0  0  0
    2.7178   -4.4015   -0.6894 H   0  0  0  0  0  0  0  0  0  0  0  0
    2.5810   -6.8909   -1.0765 H   0  0  0  0  0  0  0  0  0  0  0  0
    2.4531   -6.4993   -2.7907 H   0  0  0  0  0  0  0  0  0  0  0  0
    0.4075   -4.0310   -1.5303 H   0  0  0  0  0  0  0  0  0  0  0  0
   -2.0739   -4.1073   -1.3228 H   0  0  0  0  0  0  0  0  0  0  0  0
   -3.2455   -6.3154   -1.3423 H   0  0  0  0  0  0  0  0  0  0  0  0
   -1.9500   -8.4088   -1.5689 H   0  0  0  0  0  0  0  0  0  0  0  0
   -0.4979   -9.8957   -2.7115 H   0  0  0  0  0  0  0  0  0  0  0  0
   -0.3832   -9.9913   -0.9214 H   0  0  0  0  0  0  0  0  0  0  0  0
    1.8795  -10.5988   -2.9084 H   0  0  0  0  0  0  0  0  0  0  0  0
    0.9196  -11.8084   -2.0192 H   0  0  0  0  0  0  0  0  0  0  0  0
    2.4948   -9.8307   -0.7628 H   0  0  0  0  0  0  0  0  0  0  0  0
  2  1  1  1
  1 24  1  0
  1 25  1  0
  1 26  1  0
  2  3  1  0
  2  4  1  0
  2  5  1  0
  3 27  1  0
  3 28  1  0
  3 29  1  0
  4 30  1  0
  4 31  1  0
  4 32  1  0
  5  6  2  0
  5 23  1  0
  6  7  1  0
  6 33  1  0
  7  8  2  0
  8  9  1  0
  8 23  1  0
  9 10  2  0
  9 11  1  0
 11 12  1  0
 11 34  1  0
 12 13  1  0
 12 35  1  0
 12 36  1  0
 13 14  2  0
 13 18  1  0
 14 15  1  0
 14 37  1  0
 15 16  2  0
 15 38  1  0
 16 17  1  0
 16 39  1  0
 17 18  2  0
 17 40  1  0
 18 19  1  0
 19 20  1  0
 20 21  1  0
 20 41  1  0
 20 42  1  0
 21 22  1  0
 21 43  1  0
 21 44  1  0
 22 45  1  0
M  END

