
     RDKit          3D

 36 37  0  0  0  0  0  0  0  0999 V2000
    1.0590   -0.0023    0.3740 N   0  0  0  0  0  0  0  0  0  0  0  0
    2.4982   -0.0365    0.0950 C   0  0  1  0  0  0  0  0  0  0  0  0
    3.2004    0.4216    1.3770 C   0  0  0  0  0  0  0  0  0  0  0  0
    2.8816   -0.4968    2.4243 O   0  0  0  0  0  0  0  0  0  0  0  0
    3.3278   -0.3026    3.6721 C   0  0  0  0  0  0  0  0  0  0  0  0
    4.1549    0.7741    4.0500 C   0  0  0  0  0  0  0  0  0  0  0  0
    4.5871    0.9134    5.3662 C   0  0  0  0  0  0  0  0  0  0  0  0
    4.1920   -0.0274    6.3147 C   0  0  0  0  0  0  0  0  0  0  0  0
    4.6459    0.1131    7.7071 N   0  0  0  0  0  0  0  0  0  0  0  0
    5.3611    1.0670    7.9733 O   0  0  0  0  0  0  0  0  0  0  0  0
    4.2804   -0.7314    8.5101 O   0  0  0  0  0  0  0  0  0  0  0  0
    3.3707   -1.1072    5.9752 C   0  0  0  0  0  0  0  0  0  0  0  0
    2.9419   -1.2420    4.6612 C   0  0  0  0  0  0  0  0  0  0  0  0
    1.6925   -2.8720    4.1348 I   0  0  0  0  0  0  0  0  0  0  0  0
    3.0254   -1.4327   -0.3403 C   0  0  0  0  0  0  0  0  0  0  0  0
    2.4859   -1.8619   -1.7102 C   0  0  0  0  0  0  0  0  0  0  0  0
    2.8038   -0.8219   -2.7918 C   0  0  0  0  0  0  0  0  0  0  0  0
    2.2978    0.5703   -2.3928 C   0  0  0  0  0  0  0  0  0  0  0  0
    2.8207    0.9937   -1.0129 C   0  0  0  0  0  0  0  0  0  0  0  0
    0.8379   -0.6612    1.1215 H   0  0  0  0  0  0  0  0  0  0  0  0
    0.5193   -0.2912   -0.4395 H   0  0  0  0  0  0  0  0  0  0  0  0
    2.8402    1.4279    1.6495 H   0  0  0  0  0  0  0  0  0  0  0  0
    4.2945    0.4512    1.2327 H   0  0  0  0  0  0  0  0  0  0  0  0
    4.4634    1.5105    3.3088 H   0  0  0  0  0  0  0  0  0  0  0  0
    5.2267    1.7416    5.6694 H   0  0  0  0  0  0  0  0  0  0  0  0
    3.0848   -1.8184    6.7489 H   0  0  0  0  0  0  0  0  0  0  0  0
    2.7663   -2.1742    0.4319 H   0  0  0  0  0  0  0  0  0  0  0  0
    4.1298   -1.4007   -0.3864 H   0  0  0  0  0  0  0  0  0  0  0  0
    1.3912   -2.0044   -1.6470 H   0  0  0  0  0  0  0  0  0  0  0  0
    2.9018   -2.8453   -1.9848 H   0  0  0  0  0  0  0  0  0  0  0  0
    2.3711   -1.1248   -3.7599 H   0  0  0  0  0  0  0  0  0  0  0  0
    3.8989   -0.7799   -2.9406 H   0  0  0  0  0  0  0  0  0  0  0  0
    1.1926    0.5763   -2.3891 H   0  0  0  0  0  0  0  0  0  0  0  0
    2.5963    1.3192   -3.1450 H   0  0  0  0  0  0  0  0  0  0  0  0
    2.3962    1.9695   -0.7263 H   0  0  0  0  0  0  0  0  0  0  0  0
    3.9172    1.1168   -1.0726 H   0  0  0  0  0  0  0  0  0  0  0  0
  2  1  1  1
  1 20  1  0
  1 21  1  0
  2  3  1  0
  2 15  1  0
  2 19  1  0
  3  4  1  0
  3 22  1  0
  3 23  1  0
  4  5  1  0
  5  6  2  0
  5 13  1  0
  6  7  1  0
  6 24  1  0
  7  8  2  0
  7 25  1  0
  8  9  1  0
  8 12  1  0
  9 10  2  0
  9 11  1  0
 12 13  2  0
 12 26  1  0
 13 14  1  0
 15 16  1  0
 15 27  1  0
 15 28  1  0
 16 17  1  0
 16 29  1  0
 16 30  1  0
 17 18  1  0
 17 31  1  0
 17 32  1  0
 18 19  1  0
 18 33  1  0
 18 34  1  0
 19 35  1  0
 19 36  1  0
M  CHG  2   9   1  11  -1
M  END

