
     RDKit          3D

 30 30  0  0  0  0  0  0  0  0999 V2000
    0.9876    2.2034    1.8033 C   0  0  0  0  0  0  0  0  0  0  0  0
    2.5139    2.2250    1.7180 C   0  0  0  0  0  0  0  0  0  0  0  0
    3.0871    1.0671    0.8913 C   0  0  1  0  0  0  0  0  0  0  0  0
    2.5633    0.9862   -0.4340 O   0  0  0  0  0  0  0  0  0  0  0  0
    2.6915    2.1097   -1.2779 C   0  0  0  0  0  0  0  0  0  0  0  0
    4.6123    1.0473    0.8904 C   0  0  0  0  0  0  0  0  0  0  0  0
    5.2596    2.1680    0.5581 N   0  0  0  0  0  0  0  0  0  0  0  0
    6.5991    2.0986    0.5355 C   0  0  0  0  0  0  0  0  0  0  0  0
    7.3195    0.9504    0.8426 C   0  0  0  0  0  0  0  0  0  0  0  0
    8.8307    0.8919    0.8271 C   0  0  0  0  0  0  0  0  0  0  0  0
    9.4279    2.0569    0.1938 N   0  0  0  0  0  0  0  0  0  0  0  0
    6.5289   -0.1736    1.2063 C   0  0  0  0  0  0  0  0  0  0  0  0
    7.0864   -1.3576    1.5974 N   0  0  0  0  0  0  0  0  0  0  0  0
    5.1915   -0.1119    1.2141 N   0  0  0  0  0  0  0  0  0  0  0  0
    0.6087    3.0520    2.3949 H   0  0  0  0  0  0  0  0  0  0  0  0
    0.6274    1.2757    2.2785 H   0  0  0  0  0  0  0  0  0  0  0  0
    0.5293    2.2534    0.8039 H   0  0  0  0  0  0  0  0  0  0  0  0
    2.9492    2.1560    2.7302 H   0  0  0  0  0  0  0  0  0  0  0  0
    2.8756    3.1813    1.3070 H   0  0  0  0  0  0  0  0  0  0  0  0
    2.7766    0.1148    1.3463 H   0  0  0  0  0  0  0  0  0  0  0  0
    2.3177    1.8000   -2.2659 H   0  0  0  0  0  0  0  0  0  0  0  0
    3.7350    2.4520   -1.3770 H   0  0  0  0  0  0  0  0  0  0  0  0
    2.0832    2.9697   -0.9376 H   0  0  0  0  0  0  0  0  0  0  0  0
    7.1449    3.0077    0.2643 H   0  0  0  0  0  0  0  0  0  0  0  0
    9.1401   -0.0759    0.3650 H   0  0  0  0  0  0  0  0  0  0  0  0
    9.1970    0.8445    1.8704 H   0  0  0  0  0  0  0  0  0  0  0  0
    9.2669    2.0420   -0.8138 H   0  0  0  0  0  0  0  0  0  0  0  0
   10.4367    2.0660    0.3329 H   0  0  0  0  0  0  0  0  0  0  0  0
    8.0612   -1.5552    1.4235 H   0  0  0  0  0  0  0  0  0  0  0  0
    6.4529   -2.1408    1.7046 H   0  0  0  0  0  0  0  0  0  0  0  0
  1  2  1  0
  1 15  1  0
  1 16  1  0
  1 17  1  0
  2  3  1  0
  2 18  1  0
  2 19  1  0
  3  4  1  0
  3  6  1  0
  3 20  1  1
  4  5  1  0
  5 21  1  0
  5 22  1  0
  5 23  1  0
  6  7  2  0
  6 14  1  0
  7  8  1  0
  8  9  2  0
  8 24  1  0
  9 10  1  0
  9 12  1  0
 10 11  1  0
 10 25  1  0
 10 26  1  0
 11 27  1  0
 11 28  1  0
 12 13  1  0
 12 14  2  0
 13 29  1  0
 13 30  1  0
M  END

