
     RDKit          3D

 44 45  0  0  0  0  0  0  0  0999 V2000
    1.3930    0.1686    1.8653 C   0  0  0  0  0  0  0  0  0  0  0  0
    2.8057    0.1931    1.3136 C   0  0  0  0  0  0  0  0  0  0  0  0
    3.1831   -1.1395    1.0039 O   0  0  0  0  0  0  0  0  0  0  0  0
    4.4368   -1.3899    0.5396 C   0  0  0  0  0  0  0  0  0  0  0  0
    5.3913   -0.4011    0.2750 C   0  0  0  0  0  0  0  0  0  0  0  0
    6.6759   -0.7374   -0.1842 C   0  0  0  0  0  0  0  0  0  0  0  0
    7.7123    0.3491   -0.4088 C   0  0  0  0  0  0  0  0  0  0  0  0
    7.1133    1.6107   -0.8314 N   0  0  0  0  0  0  0  0  0  0  0  0
    6.9945   -2.0835   -0.3847 C   0  0  0  0  0  0  0  0  0  0  0  0
    6.0439   -3.0776   -0.1277 C   0  0  0  0  0  0  0  0  0  0  0  0
    4.7682   -2.7527    0.3317 C   0  0  0  0  0  0  0  0  0  0  0  0
    3.8866   -3.7554    0.6267 O   0  0  0  0  0  0  0  0  0  0  0  0
    2.7372   -3.8872   -0.2059 C   0  0  0  0  0  0  0  0  0  0  0  0
    1.9115   -5.0542    0.3114 C   0  0  0  0  0  0  0  0  0  0  0  0
    0.6440   -5.3008   -0.5240 C   0  0  0  0  0  0  0  0  0  0  0  0
   -0.1921   -6.4551   -0.0149 C   0  0  0  0  0  0  0  0  0  0  0  0
   -1.1796   -6.2539    0.9630 C   0  0  0  0  0  0  0  0  0  0  0  0
   -1.9286   -7.3233    1.4616 C   0  0  0  0  0  0  0  0  0  0  0  0
   -1.7027   -8.6196    0.9891 C   0  0  0  0  0  0  0  0  0  0  0  0
   -0.7238   -8.8354    0.0146 C   0  0  0  0  0  0  0  0  0  0  0  0
    0.0224   -7.7623   -0.4806 C   0  0  0  0  0  0  0  0  0  0  0  0
    1.0719    1.1875    2.1323 H   0  0  0  0  0  0  0  0  0  0  0  0
    1.3387   -0.4618    2.7659 H   0  0  0  0  0  0  0  0  0  0  0  0
    0.6875   -0.2325    1.1212 H   0  0  0  0  0  0  0  0  0  0  0  0
    3.5083    0.6193    2.0538 H   0  0  0  0  0  0  0  0  0  0  0  0
    2.8623    0.8250    0.4072 H   0  0  0  0  0  0  0  0  0  0  0  0
    5.1648    0.6556    0.4124 H   0  0  0  0  0  0  0  0  0  0  0  0
    8.4862   -0.0472   -1.1000 H   0  0  0  0  0  0  0  0  0  0  0  0
    8.2366    0.5396    0.5466 H   0  0  0  0  0  0  0  0  0  0  0  0
    6.7253    1.5227   -1.7717 H   0  0  0  0  0  0  0  0  0  0  0  0
    7.8175    2.3467   -0.8704 H   0  0  0  0  0  0  0  0  0  0  0  0
    7.9877   -2.3634   -0.7471 H   0  0  0  0  0  0  0  0  0  0  0  0
    6.2759   -4.1348   -0.2748 H   0  0  0  0  0  0  0  0  0  0  0  0
    3.0562   -4.0687   -1.2516 H   0  0  0  0  0  0  0  0  0  0  0  0
    2.1449   -2.9565   -0.1922 H   0  0  0  0  0  0  0  0  0  0  0  0
    1.6379   -4.8539    1.3609 H   0  0  0  0  0  0  0  0  0  0  0  0
    2.5387   -5.9614    0.3220 H   0  0  0  0  0  0  0  0  0  0  0  0
    0.9314   -5.4923   -1.5724 H   0  0  0  0  0  0  0  0  0  0  0  0
    0.0322   -4.3820   -0.5333 H   0  0  0  0  0  0  0  0  0  0  0  0
   -1.3667   -5.2424    1.3364 H   0  0  0  0  0  0  0  0  0  0  0  0
   -2.6948   -7.1428    2.2204 H   0  0  0  0  0  0  0  0  0  0  0  0
   -2.2892   -9.4570    1.3758 H   0  0  0  0  0  0  0  0  0  0  0  0
   -0.5420   -9.8445   -0.3652 H   0  0  0  0  0  0  0  0  0  0  0  0
    0.7835   -7.9410   -1.2463 H   0  0  0  0  0  0  0  0  0  0  0  0
  1  2  1  0
  1 22  1  0
  1 23  1  0
  1 24  1  0
  2  3  1  0
  2 25  1  0
  2 26  1  0
  3  4  1  0
  4  5  2  0
  4 11  1  0
  5  6  1  0
  5 27  1  0
  6  7  1  0
  6  9  2  0
  7  8  1  0
  7 28  1  0
  7 29  1  0
  8 30  1  0
  8 31  1  0
  9 10  1  0
  9 32  1  0
 10 11  2  0
 10 33  1  0
 11 12  1  0
 12 13  1  0
 13 14  1  0
 13 34  1  0
 13 35  1  0
 14 15  1  0
 14 36  1  0
 14 37  1  0
 15 16  1  0
 15 38  1  0
 15 39  1  0
 16 17  2  0
 16 21  1  0
 17 18  1  0
 17 40  1  0
 18 19  2  0
 18 41  1  0
 19 20  1  0
 19 42  1  0
 20 21  2  0
 20 43  1  0
 21 44  1  0
M  END

