
     RDKit          3D

 31 31  0  0  0  0  0  0  0  0999 V2000
    1.6342   -0.7006    1.3170 C   0  0  0  0  0  0  0  0  0  0  0  0
    2.9466   -0.1798    0.7358 C   0  0  0  0  0  0  0  0  0  0  0  0
    2.7640    0.5778   -0.5925 C   0  0  1  0  0  0  0  0  0  0  0  0
    1.9759    1.7861   -0.4001 N   0  0  0  0  0  0  0  0  0  0  0  0
    1.1553    2.3803   -1.3178 C   0  0  0  0  0  0  0  0  0  0  0  0
    0.3413    1.6335   -2.2164 C   0  0  0  0  0  0  0  0  0  0  0  0
    0.3775    0.2864   -2.1412 F   0  0  0  0  0  0  0  0  0  0  0  0
   -0.5132    2.2044   -3.1372 C   0  0  0  0  0  0  0  0  0  0  0  0
   -0.6336    3.6008   -3.2165 C   0  0  0  0  0  0  0  0  0  0  0  0
    0.1173    4.3866   -2.3597 C   0  0  0  0  0  0  0  0  0  0  0  0
    0.9931    3.7980   -1.4312 C   0  0  0  0  0  0  0  0  0  0  0  0
    1.7527    4.7241   -0.5924 N   0  0  0  0  0  0  0  0  0  0  0  0
    2.3630    4.2807    0.3851 O   0  0  0  0  0  0  0  0  0  0  0  0
    1.7478    5.9075   -0.8879 O   0  0  0  0  0  0  0  0  0  0  0  0
    4.1348    0.8423   -1.2385 C   0  0  0  0  0  0  0  0  0  0  0  0
    4.9739   -0.0114   -1.3844 O   0  0  0  0  0  0  0  0  0  0  0  0
    4.2890    2.1158   -1.6306 O   0  0  0  0  0  0  0  0  0  0  0  0
    5.5341    2.4424   -2.2549 C   0  0  0  0  0  0  0  0  0  0  0  0
    1.8091   -1.2348    2.2637 H   0  0  0  0  0  0  0  0  0  0  0  0
    1.1400   -1.3989    0.6217 H   0  0  0  0  0  0  0  0  0  0  0  0
    0.9310    0.1226    1.5160 H   0  0  0  0  0  0  0  0  0  0  0  0
    3.6453   -1.0079    0.5447 H   0  0  0  0  0  0  0  0  0  0  0  0
    3.4470    0.4883    1.4602 H   0  0  0  0  0  0  0  0  0  0  0  0
    2.2468   -0.0904   -1.2924 H   0  0  0  0  0  0  0  0  0  0  0  0
    2.4057    2.4801    0.2122 H   0  0  0  0  0  0  0  0  0  0  0  0
   -1.0985    1.5373   -3.7735 H   0  0  0  0  0  0  0  0  0  0  0  0
   -1.3167    4.0563   -3.9350 H   0  0  0  0  0  0  0  0  0  0  0  0
    0.0596    5.4734   -2.3799 H   0  0  0  0  0  0  0  0  0  0  0  0
    5.4897    3.5145   -2.4809 H   0  0  0  0  0  0  0  0  0  0  0  0
    5.6691    1.8595   -3.1783 H   0  0  0  0  0  0  0  0  0  0  0  0
    6.3747    2.2263   -1.5791 H   0  0  0  0  0  0  0  0  0  0  0  0
  1  2  1  0
  1 19  1  0
  1 20  1  0
  1 21  1  0
  2  3  1  0
  2 22  1  0
  2 23  1  0
  3  4  1  0
  3 15  1  0
  3 24  1  6
  4  5  1  0
  4 25  1  0
  5  6  2  0
  5 11  1  0
  6  7  1  0
  6  8  1  0
  8  9  2  0
  8 26  1  0
  9 10  1  0
  9 27  1  0
 10 11  2  0
 10 28  1  0
 11 12  1  0
 12 13  2  0
 12 14  1  0
 15 16  2  0
 15 17  1  0
 17 18  1  0
 18 29  1  0
 18 30  1  0
 18 31  1  0
M  CHG  2  12   1  14  -1
M  END

