
     RDKit          3D

 39 40  0  0  0  0  0  0  0  0999 V2000
    0.9582    3.5201   -6.8639 C   0  0  0  0  0  0  0  0  0  0  0  0
    2.3937    3.5661   -6.6835 N   0  0  0  0  0  0  0  0  0  0  0  0
    3.0077    3.1989   -5.5177 C   0  0  0  0  0  0  0  0  0  0  0  0
    2.3907    2.8395   -4.5281 O   0  0  0  0  0  0  0  0  0  0  0  0
    4.5338    3.2420   -5.5517 C   0  0  0  0  0  0  0  0  0  0  0  0
    5.1348    3.5555   -4.1844 C   0  0  0  0  0  0  0  0  0  0  0  0
    6.5767    3.3773   -4.1911 N   0  0  0  0  0  0  0  0  0  0  0  0
    7.2090    3.6029   -2.9011 C   0  0  0  0  0  0  0  0  0  0  0  0
    8.6946    3.2943   -2.9129 C   0  0  0  0  0  0  0  0  0  0  0  0
    9.2708    2.5050   -3.9159 C   0  0  0  0  0  0  0  0  0  0  0  0
   10.6422    2.2364   -3.9148 C   0  0  0  0  0  0  0  0  0  0  0  0
   11.4533    2.7532   -2.9061 C   0  0  0  0  0  0  0  0  0  0  0  0
   10.9028    3.5472   -1.8924 C   0  0  0  0  0  0  0  0  0  0  0  0
    9.5162    3.8131   -1.8903 C   0  0  0  0  0  0  0  0  0  0  0  0
    8.9306    4.6371   -0.9633 O   0  0  0  0  0  0  0  0  0  0  0  0
    9.0523    4.3195    0.4179 C   0  0  0  0  0  0  0  0  0  0  0  0
   10.4165    4.6723    0.9943 C   0  0  0  0  0  0  0  0  0  0  0  0
   11.5524    3.8485    0.4025 C   0  0  0  0  0  0  0  0  0  0  0  0
   11.7640    4.0979   -0.9807 O   0  0  0  0  0  0  0  0  0  0  0  0
    0.5525    4.5087   -7.1382 H   0  0  0  0  0  0  0  0  0  0  0  0
    0.5146    3.2084   -5.9092 H   0  0  0  0  0  0  0  0  0  0  0  0
    0.6657    2.7952   -7.6433 H   0  0  0  0  0  0  0  0  0  0  0  0
    2.9737    3.8462   -7.4644 H   0  0  0  0  0  0  0  0  0  0  0  0
    4.8854    3.9623   -6.3121 H   0  0  0  0  0  0  0  0  0  0  0  0
    4.8954    2.2479   -5.8698 H   0  0  0  0  0  0  0  0  0  0  0  0
    4.6898    2.8643   -3.4511 H   0  0  0  0  0  0  0  0  0  0  0  0
    4.8199    4.5755   -3.8660 H   0  0  0  0  0  0  0  0  0  0  0  0
    7.0036    3.9909   -4.8864 H   0  0  0  0  0  0  0  0  0  0  0  0
    6.7114    2.9444   -2.1638 H   0  0  0  0  0  0  0  0  0  0  0  0
    7.0612    4.6318   -2.5127 H   0  0  0  0  0  0  0  0  0  0  0  0
    8.6187    2.1026   -4.6924 H   0  0  0  0  0  0  0  0  0  0  0  0
   11.0801    1.6181   -4.7025 H   0  0  0  0  0  0  0  0  0  0  0  0
   12.5298    2.5715   -2.8819 H   0  0  0  0  0  0  0  0  0  0  0  0
    8.8332    3.2453    0.5763 H   0  0  0  0  0  0  0  0  0  0  0  0
    8.2645    4.9010    0.9206 H   0  0  0  0  0  0  0  0  0  0  0  0
   10.3921    4.5107    2.0870 H   0  0  0  0  0  0  0  0  0  0  0  0
   10.6169    5.7436    0.8242 H   0  0  0  0  0  0  0  0  0  0  0  0
   11.3706    2.7679    0.5657 H   0  0  0  0  0  0  0  0  0  0  0  0
   12.5033    4.1061    0.8933 H   0  0  0  0  0  0  0  0  0  0  0  0
  1  2  1  0
  1 20  1  0
  1 21  1  0
  1 22  1  0
  2  3  1  0
  2 23  1  0
  3  4  2  0
  3  5  1  0
  5  6  1  0
  5 24  1  0
  5 25  1  0
  6  7  1  0
  6 26  1  0
  6 27  1  0
  7  8  1  0
  7 28  1  0
  8  9  1  0
  8 29  1  0
  8 30  1  0
  9 10  2  0
  9 14  1  0
 10 11  1  0
 10 31  1  0
 11 12  2  0
 11 32  1  0
 12 13  1  0
 12 33  1  0
 13 14  2  0
 13 19  1  0
 14 15  1  0
 15 16  1  0
 16 17  1  0
 16 34  1  0
 16 35  1  0
 17 18  1  0
 17 36  1  0
 17 37  1  0
 18 19  1  0
 18 38  1  0
 18 39  1  0
M  END

