
     RDKit          3D

 21 22  0  0  0  0  0  0  0  0999 V2000
   -0.7318    0.6373    0.6073 C   0  0  0  0  0  0  0  0  0  0  0  0
   -1.3134    0.0157   -0.4833 C   0  0  0  0  0  0  0  0  0  0  0  0
   -0.4024   -0.8674   -0.9999 N   0  0  0  0  0  0  0  0  0  0  0  0
   -0.5374   -1.4582   -1.8106 H   0  0  0  0  0  0  0  0  0  0  0  0
    0.7587   -0.8345   -0.2517 C   0  0  0  0  0  0  0  0  0  0  0  0
    1.8588   -1.6347   -0.5897 N   0  0  0  0  0  0  0  0  0  0  0  0
    2.0087   -2.9684   -0.2480 C   0  0  0  0  0  0  0  0  0  0  0  0
    3.1941   -3.6609   -0.5683 C   0  0  0  0  0  0  0  0  0  0  0  0
    3.3068   -5.0061   -0.2241 C   0  0  0  0  0  0  0  0  0  0  0  0
    2.3542   -5.7069    0.3996 N   0  0  0  0  0  0  0  0  0  0  0  0
    1.2332   -5.0450    0.7025 C   0  0  0  0  0  0  0  0  0  0  0  0
    1.0023   -3.7007    0.4115 C   0  0  0  0  0  0  0  0  0  0  0  0
    0.5769    0.0962    0.7584 C   0  0  0  0  0  0  0  0  0  0  0  0
   -1.2013    1.3939    1.2330 H   0  0  0  0  0  0  0  0  0  0  0  0
   -2.3011    0.1330   -0.9234 H   0  0  0  0  0  0  0  0  0  0  0  0
    2.6839   -1.1683   -0.9499 H   0  0  0  0  0  0  0  0  0  0  0  0
    4.0159   -3.1516   -1.0798 H   0  0  0  0  0  0  0  0  0  0  0  0
    4.2291   -5.5465   -0.4716 H   0  0  0  0  0  0  0  0  0  0  0  0
    0.4534   -5.6189    1.2188 H   0  0  0  0  0  0  0  0  0  0  0  0
    0.0624   -3.2259    0.6973 H   0  0  0  0  0  0  0  0  0  0  0  0
    1.3120    0.3468    1.5204 H   0  0  0  0  0  0  0  0  0  0  0  0
  1  2  2  0
  1 13  1  0
  1 14  1  0
  2  3  1  0
  2 15  1  0
  3  4  1  0
  3  5  1  0
  5  6  1  0
  5 13  2  0
  6  7  1  0
  6 16  1  0
  7  8  2  0
  7 12  1  0
  8  9  1  0
  8 17  1  0
  9 10  2  0
  9 18  1  0
 10 11  1  0
 11 12  2  0
 11 19  1  0
 12 20  1  0
 13 21  1  0
M  END

