
     RDKit          3D

 41 42  0  0  0  0  0  0  0  0999 V2000
    0.9984   -0.4212    0.4830 O   0  0  0  0  0  0  0  0  0  0  0  0
    2.4072   -0.3698    0.3075 C   0  0  0  0  0  0  0  0  0  0  0  0
    2.8636    1.1047    0.4378 C   0  0  1  0  0  0  0  0  0  0  0  0
    2.4053    1.9360   -0.7977 C   0  0  0  0  0  0  0  0  0  0  0  0
    0.9108    2.0635   -1.0765 C   0  0  0  0  0  0  0  0  0  0  0  0
    0.7709    2.9571   -2.1690 O   0  0  0  0  0  0  0  0  0  0  0  0
   -0.5465    3.1724   -2.5564 C   0  0  0  0  0  0  0  0  0  0  0  0
   -0.5651    4.1184   -3.7436 C   0  0  1  0  0  0  0  0  0  0  0  0
    0.0944    3.6153   -4.7953 F   0  0  0  0  0  0  0  0  0  0  0  0
   -1.8404    4.3316   -4.1227 F   0  0  0  0  0  0  0  0  0  0  0  0
   -0.0230    5.3062   -3.4477 F   0  0  0  0  0  0  0  0  0  0  0  0
    2.3147    1.7400    1.6464 N   0  0  0  0  0  0  0  0  0  0  0  0
    2.6834    1.2056    2.9328 C   0  0  1  0  0  0  0  0  0  0  0  0
    1.7580    1.4090    4.0954 C   0  0  0  0  0  0  0  0  0  0  0  0
    2.0069    0.0085    3.5794 C   0  0  0  0  0  0  0  0  0  0  0  0
    4.4022    1.1994    0.4671 C   0  0  0  0  0  0  0  0  0  0  0  0
    5.0034    2.3847    0.9269 C   0  0  0  0  0  0  0  0  0  0  0  0
    6.3902    2.5403    0.9211 C   0  0  0  0  0  0  0  0  0  0  0  0
    7.2136    1.5115    0.4516 C   0  0  0  0  0  0  0  0  0  0  0  0
    6.6319    0.3302   -0.0101 C   0  0  0  0  0  0  0  0  0  0  0  0
    5.2404    0.1763   -0.0021 C   0  0  0  0  0  0  0  0  0  0  0  0
    0.7124   -1.3396    0.4062 H   0  0  0  0  0  0  0  0  0  0  0  0
    2.6893   -0.7648   -0.6859 H   0  0  0  0  0  0  0  0  0  0  0  0
    2.9193   -0.9798    1.0726 H   0  0  0  0  0  0  0  0  0  0  0  0
    2.8848    1.5155   -1.6962 H   0  0  0  0  0  0  0  0  0  0  0  0
    2.8007    2.9560   -0.6816 H   0  0  0  0  0  0  0  0  0  0  0  0
    0.3700    2.4690   -0.1973 H   0  0  0  0  0  0  0  0  0  0  0  0
    0.4509    1.0887   -1.3153 H   0  0  0  0  0  0  0  0  0  0  0  0
   -1.1572    3.6345   -1.7540 H   0  0  0  0  0  0  0  0  0  0  0  0
   -1.0569    2.2385   -2.8686 H   0  0  0  0  0  0  0  0  0  0  0  0
    1.3020    1.7844    1.5695 H   0  0  0  0  0  0  0  0  0  0  0  0
    3.7509    1.3208    3.1454 H   0  0  0  0  0  0  0  0  0  0  0  0
    0.7801    1.8584    3.8909 H   0  0  0  0  0  0  0  0  0  0  0  0
    2.1840    1.7051    5.0582 H   0  0  0  0  0  0  0  0  0  0  0  0
    1.1996   -0.4659    3.0163 H   0  0  0  0  0  0  0  0  0  0  0  0
    2.6112   -0.6733    4.1867 H   0  0  0  0  0  0  0  0  0  0  0  0
    4.3608    3.1843    1.3008 H   0  0  0  0  0  0  0  0  0  0  0  0
    6.8314    3.4717    1.2861 H   0  0  0  0  0  0  0  0  0  0  0  0
    8.3000    1.6313    0.4460 H   0  0  0  0  0  0  0  0  0  0  0  0
    7.2613   -0.4831   -0.3810 H   0  0  0  0  0  0  0  0  0  0  0  0
    4.8236   -0.7601   -0.3762 H   0  0  0  0  0  0  0  0  0  0  0  0
  1  2  1  0
  1 22  1  0
  2  3  1  0
  2 23  1  0
  2 24  1  0
  3  4  1  0
  3 12  1  1
  3 16  1  0
  4  5  1  0
  4 25  1  0
  4 26  1  0
  5  6  1  0
  5 27  1  0
  5 28  1  0
  6  7  1  0
  7  8  1  0
  7 29  1  0
  7 30  1  0
  8  9  1  6
  8 10  1  0
  8 11  1  0
 12 13  1  0
 12 31  1  0
 13 14  1  0
 13 15  1  0
 13 32  1  1
 14 15  1  0
 14 33  1  0
 14 34  1  0
 15 35  1  0
 15 36  1  0
 16 17  2  0
 16 21  1  0
 17 18  1  0
 17 37  1  0
 18 19  2  0
 18 38  1  0
 19 20  1  0
 19 39  1  0
 20 21  2  0
 20 40  1  0
 21 41  1  0
M  END

