
     RDKit          3D

 40 42  0  0  0  0  0  0  0  0999 V2000
    0.6395   -0.5229   -0.2724 C   0  0  0  0  0  0  0  0  0  0  0  0
    2.0915   -0.3050    0.0017 C   0  0  0  0  0  0  0  0  0  0  0  0
    2.5960    0.6509    0.7686 N   0  0  0  0  0  0  0  0  0  0  0  0
    3.9497    0.4904    0.7317 C   0  0  0  0  0  0  0  0  0  0  0  0
    4.2972   -0.5857   -0.0799 C   0  0  0  0  0  0  0  0  0  0  0  0
    5.4838   -1.3856   -0.4802 C   0  0  0  0  0  0  0  0  0  0  0  0
    5.2808   -2.4935   -0.9810 O   0  0  0  0  0  0  0  0  0  0  0  0
    6.7529   -0.9021   -0.2859 N   0  0  0  0  0  0  0  0  0  0  0  0
    7.8849   -1.8065   -0.4915 C   0  0  0  0  0  0  0  0  0  0  0  0
    8.9357   -1.1634   -1.4054 C   0  0  0  0  0  0  0  0  0  0  0  0
    9.3610    0.1603   -0.9604 N   0  0  0  0  0  0  0  0  0  0  0  0
   10.3211    0.1730    0.1380 C   0  0  0  0  0  0  0  0  0  0  0  0
   11.0417    1.4889    0.2349 C   0  0  0  0  0  0  0  0  0  0  0  0
   11.7057    2.2118   -0.8041 C   0  0  0  0  0  0  0  0  0  0  0  0
   12.2031    3.3144   -0.1683 C   0  0  0  0  0  0  0  0  0  0  0  0
   13.0007    4.4900   -0.6131 C   0  0  0  0  0  0  0  0  0  0  0  0
   11.8636    3.2626    1.1357 O   0  0  0  0  0  0  0  0  0  0  0  0
   11.1283    2.1172    1.3848 N   0  0  0  0  0  0  0  0  0  0  0  0
    8.2028    1.0291   -0.7852 C   0  0  0  0  0  0  0  0  0  0  0  0
    7.1090    0.4488    0.1337 C   0  0  0  0  0  0  0  0  0  0  0  0
    3.0821   -1.0706   -0.5239 N   0  0  0  0  0  0  0  0  0  0  0  0
    3.0213   -1.9099   -1.0927 H   0  0  0  0  0  0  0  0  0  0  0  0
    0.0582    0.1746    0.3438 H   0  0  0  0  0  0  0  0  0  0  0  0
    0.3281   -1.5525   -0.0299 H   0  0  0  0  0  0  0  0  0  0  0  0
    0.3924   -0.3403   -1.3320 H   0  0  0  0  0  0  0  0  0  0  0  0
    4.6012    1.1394    1.3129 H   0  0  0  0  0  0  0  0  0  0  0  0
    7.4939   -2.7348   -0.9253 H   0  0  0  0  0  0  0  0  0  0  0  0
    8.3342   -2.0504    0.4910 H   0  0  0  0  0  0  0  0  0  0  0  0
    8.5074   -1.0634   -2.4187 H   0  0  0  0  0  0  0  0  0  0  0  0
    9.8149   -1.8230   -1.4852 H   0  0  0  0  0  0  0  0  0  0  0  0
   11.0654   -0.6155   -0.0667 H   0  0  0  0  0  0  0  0  0  0  0  0
    9.8969   -0.0490    1.1388 H   0  0  0  0  0  0  0  0  0  0  0  0
   11.7838    1.9438   -1.8538 H   0  0  0  0  0  0  0  0  0  0  0  0
   13.1987    4.4314   -1.6916 H   0  0  0  0  0  0  0  0  0  0  0  0
   13.9646    4.5349   -0.0806 H   0  0  0  0  0  0  0  0  0  0  0  0
   12.4653    5.4301   -0.4033 H   0  0  0  0  0  0  0  0  0  0  0  0
    7.7567    1.2086   -1.7797 H   0  0  0  0  0  0  0  0  0  0  0  0
    8.5280    2.0044   -0.3915 H   0  0  0  0  0  0  0  0  0  0  0  0
    6.2291    1.0968    0.0712 H   0  0  0  0  0  0  0  0  0  0  0  0
    7.4501    0.4453    1.1868 H   0  0  0  0  0  0  0  0  0  0  0  0
  1  2  1  0
  1 23  1  0
  1 24  1  0
  1 25  1  0
  2  3  2  0
  2 21  1  0
  3  4  1  0
  4  5  2  0
  4 26  1  0
  5  6  1  0
  5 21  1  0
  6  7  2  0
  6  8  1  0
  8  9  1  0
  8 20  1  0
  9 10  1  0
  9 27  1  0
  9 28  1  0
 10 11  1  0
 10 29  1  0
 10 30  1  0
 11 12  1  0
 11 19  1  0
 12 13  1  0
 12 31  1  0
 12 32  1  0
 13 14  1  0
 13 18  2  0
 14 15  2  0
 14 33  1  0
 15 16  1  0
 15 17  1  0
 16 34  1  0
 16 35  1  0
 16 36  1  0
 17 18  1  0
 19 20  1  0
 19 37  1  0
 19 38  1  0
 20 39  1  0
 20 40  1  0
 21 22  1  0
M  END

