
     RDKit          3D

 68 72  0  0  0  0  0  0  0  0999 V2000
   -0.9157   -2.2551   -2.4050 C   0  0  0  0  0  0  0  0  0  0  0  0
   -0.9928   -0.8198   -2.6005 N   0  0  0  0  0  0  0  0  0  0  0  0
   -0.3291   -0.0158   -1.5787 C   0  0  0  0  0  0  0  0  0  0  0  0
    1.1943    0.0619   -1.7593 C   0  0  0  0  0  0  0  0  0  0  0  0
    1.5390    0.4998   -3.1125 N   0  0  0  0  0  0  0  0  0  0  0  0
    2.2369    1.6810   -3.2666 C   0  0  0  0  0  0  0  0  0  0  0  0
    2.4446    2.4346   -2.3221 O   0  0  0  0  0  0  0  0  0  0  0  0
    2.7884    2.0238   -4.6242 C   0  0  0  0  0  0  0  0  0  0  0  0
    2.8251    3.3780   -4.9981 C   0  0  0  0  0  0  0  0  0  0  0  0
    3.3998    3.7736   -6.1997 C   0  0  0  0  0  0  0  0  0  0  0  0
    3.9940    2.8285   -7.0633 C   0  0  0  0  0  0  0  0  0  0  0  0
    4.5702    3.3078   -8.2446 N   0  0  0  0  0  0  0  0  0  0  0  0
    5.0708    2.6633   -9.3511 C   0  0  0  0  0  0  0  0  0  0  0  0
    5.6150    3.4892  -10.2711 N   0  0  0  0  0  0  0  0  0  0  0  0
    6.1155    2.9042  -11.3527 C   0  0  0  0  0  0  0  0  0  0  0  0
    6.0927    1.5217  -11.5572 C   0  0  0  0  0  0  0  0  0  0  0  0
    5.4926    0.7521  -10.5479 C   0  0  0  0  0  0  0  0  0  0  0  0
    5.3694   -0.7060  -10.6223 C   0  0  0  0  0  0  0  0  0  0  0  0
    5.9517   -1.6432  -11.5209 C   0  0  0  0  0  0  0  0  0  0  0  0
    5.5981   -2.8874  -11.2277 N   0  0  0  0  0  0  0  0  0  0  0  0
    4.7846   -2.7837  -10.1540 N   0  0  0  0  0  0  0  0  0  0  0  0
    4.1917   -3.9966   -9.5924 C   0  0  1  0  0  0  0  0  0  0  0  0
    4.6828   -4.2414   -8.1418 C   0  0  0  0  0  0  0  0  0  0  0  0
    4.1105   -3.3419   -7.1358 C   0  0  0  0  0  0  0  0  0  0  0  0
    3.6458   -2.6271   -6.3512 N   0  0  0  0  0  0  0  0  0  0  0  0
    2.6644   -4.0211   -9.7475 C   0  0  1  0  0  0  0  0  0  0  0  0
    2.1670   -3.8615  -11.1948 C   0  0  0  0  0  0  0  0  0  0  0  0
    0.6941   -4.2848  -11.1051 C   0  0  0  0  0  0  0  0  0  0  0  0
    0.6733   -5.4484  -10.0811 C   0  0  0  0  0  0  0  0  0  0  0  0
    2.0086   -5.3459   -9.2916 C   0  0  0  0  0  0  0  0  0  0  0  0
    4.6189   -1.4978   -9.7572 C   0  0  0  0  0  0  0  0  0  0  0  0
    4.9865    1.3352   -9.4491 N   0  0  0  0  0  0  0  0  0  0  0  0
    3.9997    1.4765   -6.6726 C   0  0  0  0  0  0  0  0  0  0  0  0
    3.4002    1.0899   -5.4740 C   0  0  0  0  0  0  0  0  0  0  0  0
    0.8960   -0.2715   -4.1756 C   0  0  0  0  0  0  0  0  0  0  0  0
   -0.6246   -0.3532   -3.9294 C   0  0  0  0  0  0  0  0  0  0  0  0
   -1.3221   -2.5143   -1.4136 H   0  0  0  0  0  0  0  0  0  0  0  0
    0.1040   -2.6962   -2.4676 H   0  0  0  0  0  0  0  0  0  0  0  0
   -1.5373   -2.7644   -3.1598 H   0  0  0  0  0  0  0  0  0  0  0  0
   -0.5708   -0.4210   -0.5823 H   0  0  0  0  0  0  0  0  0  0  0  0
   -0.7378    1.0098   -1.6239 H   0  0  0  0  0  0  0  0  0  0  0  0
    1.6498   -0.9311   -1.5823 H   0  0  0  0  0  0  0  0  0  0  0  0
    1.6372    0.7771   -1.0554 H   0  0  0  0  0  0  0  0  0  0  0  0
    2.3974    4.1210   -4.3220 H   0  0  0  0  0  0  0  0  0  0  0  0
    3.3999    4.8316   -6.4789 H   0  0  0  0  0  0  0  0  0  0  0  0
    4.6464    4.3158   -8.3291 H   0  0  0  0  0  0  0  0  0  0  0  0
    6.5593    3.5675  -12.1053 H   0  0  0  0  0  0  0  0  0  0  0  0
    6.5062    1.0750  -12.4614 H   0  0  0  0  0  0  0  0  0  0  0  0
    6.6243   -1.4573  -12.3579 H   0  0  0  0  0  0  0  0  0  0  0  0
    4.6231   -4.8019  -10.2048 H   0  0  0  0  0  0  0  0  0  0  0  0
    5.7805   -4.1515   -8.1100 H   0  0  0  0  0  0  0  0  0  0  0  0
    4.4365   -5.2745   -7.8499 H   0  0  0  0  0  0  0  0  0  0  0  0
    2.2412   -3.1956   -9.1460 H   0  0  0  0  0  0  0  0  0  0  0  0
    2.7296   -4.5456  -11.8552 H   0  0  0  0  0  0  0  0  0  0  0  0
    2.3044   -2.8440  -11.5906 H   0  0  0  0  0  0  0  0  0  0  0  0
    0.2706   -4.5657  -12.0814 H   0  0  0  0  0  0  0  0  0  0  0  0
    0.0941   -3.4395  -10.7292 H   0  0  0  0  0  0  0  0  0  0  0  0
    0.6017   -6.4230  -10.5883 H   0  0  0  0  0  0  0  0  0  0  0  0
   -0.1997   -5.3809   -9.4144 H   0  0  0  0  0  0  0  0  0  0  0  0
    2.6696   -6.1905   -9.5547 H   0  0  0  0  0  0  0  0  0  0  0  0
    1.8573   -5.3863   -8.2020 H   0  0  0  0  0  0  0  0  0  0  0  0
    3.9956   -1.2116   -8.9147 H   0  0  0  0  0  0  0  0  0  0  0  0
    4.4779    0.7390   -7.3093 H   0  0  0  0  0  0  0  0  0  0  0  0
    3.4390    0.0326   -5.2029 H   0  0  0  0  0  0  0  0  0  0  0  0
    1.3371   -1.2848   -4.2249 H   0  0  0  0  0  0  0  0  0  0  0  0
    1.0772    0.2065   -5.1449 H   0  0  0  0  0  0  0  0  0  0  0  0
   -1.0853   -1.0075   -4.6882 H   0  0  0  0  0  0  0  0  0  0  0  0
   -1.0470    0.6592   -4.0690 H   0  0  0  0  0  0  0  0  0  0  0  0
  1  2  1  0
  1 37  1  0
  1 38  1  0
  1 39  1  0
  2  3  1  0
  2 36  1  0
  3  4  1  0
  3 40  1  0
  3 41  1  0
  4  5  1  0
  4 42  1  0
  4 43  1  0
  5  6  1  0
  5 35  1  0
  6  7  2  0
  6  8  1  0
  8  9  2  0
  8 34  1  0
  9 10  1  0
  9 44  1  0
 10 11  2  0
 10 45  1  0
 11 12  1  0
 11 33  1  0
 12 13  1  0
 12 46  1  0
 13 14  2  0
 13 32  1  0
 14 15  1  0
 15 16  2  0
 15 47  1  0
 16 17  1  0
 16 48  1  0
 17 18  1  0
 17 32  2  0
 18 19  1  0
 18 31  2  0
 19 20  2  0
 19 49  1  0
 20 21  1  0
 21 22  1  0
 21 31  1  0
 22 23  1  0
 22 26  1  0
 22 50  1  6
 23 24  1  0
 23 51  1  0
 23 52  1  0
 24 25  3  0
 26 27  1  0
 26 30  1  0
 26 53  1  1
 27 28  1  0
 27 54  1  0
 27 55  1  0
 28 29  1  0
 28 56  1  0
 28 57  1  0
 29 30  1  0
 29 58  1  0
 29 59  1  0
 30 60  1  0
 30 61  1  0
 31 62  1  0
 33 34  2  0
 33 63  1  0
 34 64  1  0
 35 36  1  0
 35 65  1  0
 35 66  1  0
 36 67  1  0
 36 68  1  0
M  END

