
     RDKit          3D

 43 45  0  0  0  0  0  0  0  0999 V2000
    2.9719    0.0341    1.4933 C   0  0  0  0  0  0  0  0  0  0  0  0
    2.2313    0.3167    0.1875 C   0  0  0  0  0  0  0  0  0  0  0  0
    2.6918    1.5255   -0.4923 N   0  0  0  0  0  0  0  0  0  0  0  0
    2.2458    2.8095   -0.2959 C   0  0  0  0  0  0  0  0  0  0  0  0
    0.9503    3.2050    0.8298 S   0  0  0  0  0  0  0  0  0  0  0  0
    0.8005    5.0127    0.4569 C   0  0  0  0  0  0  0  0  0  0  0  0
   -0.2559    5.6151    1.3450 C   0  0  0  0  0  0  0  0  0  0  0  0
   -1.5984    5.6546    0.9347 C   0  0  0  0  0  0  0  0  0  0  0  0
   -2.5694    6.2066    1.7704 C   0  0  0  0  0  0  0  0  0  0  0  0
   -2.2138    6.7190    3.0221 C   0  0  0  0  0  0  0  0  0  0  0  0
   -0.8813    6.6881    3.4585 C   0  0  0  0  0  0  0  0  0  0  0  0
   -0.4802    7.2409    4.8052 C   0  0  0  0  0  0  0  0  0  0  0  0
    0.0824    6.1288    2.6043 C   0  0  0  0  0  0  0  0  0  0  0  0
    2.9069    3.6538   -1.0547 N   0  0  0  0  0  0  0  0  0  0  0  0
    3.8197    2.9246   -1.7711 N   0  0  0  0  0  0  0  0  0  0  0  0
    3.6935    1.6640   -1.4351 C   0  0  0  0  0  0  0  0  0  0  0  0
    4.5292    0.5332   -1.9488 C   0  0  1  0  0  0  0  0  0  0  0  0
    5.3627    0.8726   -3.2131 C   0  0  0  0  0  0  0  0  0  0  0  0
    6.6426    0.0086   -3.0667 C   0  0  0  0  0  0  0  0  0  0  0  0
    6.4576   -0.7296   -1.7136 C   0  0  0  0  0  0  0  0  0  0  0  0
    5.4887    0.0489   -0.9356 N   0  0  0  0  0  0  0  0  0  0  0  0
    2.5618   -0.8718    1.9672 H   0  0  0  0  0  0  0  0  0  0  0  0
    2.8589    0.8709    2.1999 H   0  0  0  0  0  0  0  0  0  0  0  0
    4.0394   -0.1300    1.2859 H   0  0  0  0  0  0  0  0  0  0  0  0
    1.1496    0.4350    0.3612 H   0  0  0  0  0  0  0  0  0  0  0  0
    2.3528   -0.5240   -0.5112 H   0  0  0  0  0  0  0  0  0  0  0  0
    0.5555    5.1100   -0.6091 H   0  0  0  0  0  0  0  0  0  0  0  0
    1.7901    5.4605    0.6160 H   0  0  0  0  0  0  0  0  0  0  0  0
   -1.8777    5.2541   -0.0436 H   0  0  0  0  0  0  0  0  0  0  0  0
   -3.6125    6.2411    1.4455 H   0  0  0  0  0  0  0  0  0  0  0  0
   -2.9822    7.1517    3.6691 H   0  0  0  0  0  0  0  0  0  0  0  0
   -1.3483    7.6278    5.3589 H   0  0  0  0  0  0  0  0  0  0  0  0
    0.2458    8.0646    4.6998 H   0  0  0  0  0  0  0  0  0  0  0  0
    0.0001    6.4683    5.4285 H   0  0  0  0  0  0  0  0  0  0  0  0
    1.1280    6.0947    2.9270 H   0  0  0  0  0  0  0  0  0  0  0  0
    3.8638   -0.3197   -2.1834 H   0  0  0  0  0  0  0  0  0  0  0  0
    5.5912    1.9471   -3.2152 H   0  0  0  0  0  0  0  0  0  0  0  0
    4.8015    0.6569   -4.1346 H   0  0  0  0  0  0  0  0  0  0  0  0
    7.5405    0.6461   -3.0414 H   0  0  0  0  0  0  0  0  0  0  0  0
    6.7756   -0.6971   -3.9012 H   0  0  0  0  0  0  0  0  0  0  0  0
    7.3919   -0.8607   -1.1475 H   0  0  0  0  0  0  0  0  0  0  0  0
    6.0378   -1.7363   -1.8849 H   0  0  0  0  0  0  0  0  0  0  0  0
    5.9614    0.8661   -0.5422 H   0  0  0  0  0  0  0  0  0  0  0  0
  1  2  1  0
  1 22  1  0
  1 23  1  0
  1 24  1  0
  2  3  1  0
  2 25  1  0
  2 26  1  0
  3  4  1  0
  3 16  1  0
  4  5  1  0
  4 14  2  0
  5  6  1  0
  6  7  1  0
  6 27  1  0
  6 28  1  0
  7  8  2  0
  7 13  1  0
  8  9  1  0
  8 29  1  0
  9 10  2  0
  9 30  1  0
 10 11  1  0
 10 31  1  0
 11 12  1  0
 11 13  2  0
 12 32  1  0
 12 33  1  0
 12 34  1  0
 13 35  1  0
 14 15  1  0
 15 16  2  0
 16 17  1  0
 17 18  1  0
 17 21  1  0
 17 36  1  6
 18 19  1  0
 18 37  1  0
 18 38  1  0
 19 20  1  0
 19 39  1  0
 19 40  1  0
 20 21  1  0
 20 41  1  0
 20 42  1  0
 21 43  1  0
M  END

