
     RDKit          3D

 31 33  0  0  0  0  0  0  0  0999 V2000
    3.2156    0.2312   -2.4591 O   0  0  0  0  0  0  0  0  0  0  0  0
    3.6669    0.4069   -1.3347 C   0  0  0  0  0  0  0  0  0  0  0  0
    3.4042    1.4604   -0.5240 N   0  0  0  0  0  0  0  0  0  0  0  0
    2.5181    2.5514   -0.8915 C   0  0  2  0  0  0  0  0  0  0  0  0
    3.1222    3.9503   -0.5262 C   0  0  0  0  0  0  0  0  0  0  0  0
    2.1867    4.7623    0.2463 N   0  0  0  0  0  0  0  0  0  0  0  0
    0.9500    4.9574   -0.5158 C   0  0  0  0  0  0  0  0  0  0  0  0
    0.2529    3.5930   -0.8184 C   0  0  0  0  0  0  0  0  0  0  0  0
    1.1225    2.4692   -0.2223 C   0  0  2  0  0  0  0  0  0  0  0  0
    1.2569    2.6915    1.2959 C   0  0  0  0  0  0  0  0  0  0  0  0
    1.8875    4.1023    1.5208 C   0  0  0  0  0  0  0  0  0  0  0  0
    4.6059   -0.5836   -0.7345 C   0  0  0  0  0  0  0  0  0  0  0  0
    5.1849   -0.5631    0.4564 N   0  0  0  0  0  0  0  0  0  0  0  0
    5.9203   -1.7056    0.4546 C   0  0  0  0  0  0  0  0  0  0  0  0
    5.8279   -2.4226   -0.6595 N   0  0  0  0  0  0  0  0  0  0  0  0
    4.9870   -1.6921   -1.4033 N   0  0  0  0  0  0  0  0  0  0  0  0
    4.6989   -1.9660   -2.3379 H   0  0  0  0  0  0  0  0  0  0  0  0
    3.8602    1.4503    0.3850 H   0  0  0  0  0  0  0  0  0  0  0  0
    2.3816    2.4556   -1.9784 H   0  0  0  0  0  0  0  0  0  0  0  0
    3.4040    4.4987   -1.4391 H   0  0  0  0  0  0  0  0  0  0  0  0
    4.0447    3.8183    0.0636 H   0  0  0  0  0  0  0  0  0  0  0  0
    1.2002    5.4903   -1.4472 H   0  0  0  0  0  0  0  0  0  0  0  0
    0.2893    5.6225    0.0629 H   0  0  0  0  0  0  0  0  0  0  0  0
    0.1302    3.4398   -1.9031 H   0  0  0  0  0  0  0  0  0  0  0  0
   -0.7560    3.5528   -0.3762 H   0  0  0  0  0  0  0  0  0  0  0  0
    0.6785    1.4846   -0.4351 H   0  0  0  0  0  0  0  0  0  0  0  0
    1.8730    1.8962    1.7467 H   0  0  0  0  0  0  0  0  0  0  0  0
    0.2648    2.6165    1.7698 H   0  0  0  0  0  0  0  0  0  0  0  0
    2.8222    4.0327    2.1010 H   0  0  0  0  0  0  0  0  0  0  0  0
    1.2087    4.7541    2.0935 H   0  0  0  0  0  0  0  0  0  0  0  0
    6.5417   -2.0245    1.2908 H   0  0  0  0  0  0  0  0  0  0  0  0
  1  2  2  0
  2  3  1  0
  2 12  1  0
  3  4  1  0
  3 18  1  0
  4  5  1  0
  4  9  1  0
  4 19  1  6
  5  6  1  0
  5 20  1  0
  5 21  1  0
  6  7  1  0
  6 11  1  0
  7  8  1  0
  7 22  1  0
  7 23  1  0
  8  9  1  0
  8 24  1  0
  8 25  1  0
  9 10  1  0
  9 26  1  1
 10 11  1  0
 10 27  1  0
 10 28  1  0
 11 29  1  0
 11 30  1  0
 12 13  2  0
 12 16  1  0
 13 14  1  0
 14 15  2  0
 14 31  1  0
 15 16  1  0
 16 17  1  0
M  END

