
     RDKit          3D

 45 48  0  0  0  0  0  0  0  0999 V2000
    1.0859    0.1909   -0.0489 N   0  0  0  0  0  0  0  0  0  0  0  0
    2.2409    0.1416   -0.1603 C   0  0  0  0  0  0  0  0  0  0  0  0
    3.6588    0.0548   -0.3037 C   0  0  0  0  0  0  0  0  0  0  0  0
    4.4516    1.1667   -0.2926 N   0  0  0  0  0  0  0  0  0  0  0  0
    5.6923    0.7377   -0.4167 C   0  0  0  0  0  0  0  0  0  0  0  0
    6.9100    1.5641   -0.4606 C   0  0  0  0  0  0  0  0  0  0  0  0
    8.1689    1.0116   -0.1418 C   0  0  0  0  0  0  0  0  0  0  0  0
    8.2380   -0.3040    0.1735 F   0  0  0  0  0  0  0  0  0  0  0  0
    9.3571    1.7254   -0.1282 C   0  0  0  0  0  0  0  0  0  0  0  0
    9.3211    3.0815   -0.4541 C   0  0  0  0  0  0  0  0  0  0  0  0
    8.1104    3.6830   -0.7921 C   0  0  0  0  0  0  0  0  0  0  0  0
    6.9221    2.9430   -0.8006 C   0  0  0  0  0  0  0  0  0  0  0  0
    5.4851    3.7915   -1.2828 Cl  0  0  0  0  0  0  0  0  0  0  0  0
    5.7153   -0.6380   -0.5003 N   0  0  0  0  0  0  0  0  0  0  0  0
    6.5511   -1.2001   -0.6026 H   0  0  0  0  0  0  0  0  0  0  0  0
    4.4306   -1.1090   -0.4348 C   0  0  0  0  0  0  0  0  0  0  0  0
    4.0993   -2.5316   -0.4690 C   0  0  0  0  0  0  0  0  0  0  0  0
    5.0363   -3.5189   -0.1047 C   0  0  0  0  0  0  0  0  0  0  0  0
    4.6807   -4.8617   -0.1593 C   0  0  0  0  0  0  0  0  0  0  0  0
    3.3837   -5.1902   -0.5710 C   0  0  0  0  0  0  0  0  0  0  0  0
    2.9751   -6.6463   -0.6260 C   0  0  0  0  0  0  0  0  0  0  0  0
    3.7571   -7.5330   -0.3160 O   0  0  0  0  0  0  0  0  0  0  0  0
    1.6858   -6.8160   -1.0371 N   0  0  0  0  0  0  0  0  0  0  0  0
    0.9769   -8.0060   -1.2458 C   0  0  0  0  0  0  0  0  0  0  0  0
    1.5792   -9.2722   -1.2341 C   0  0  0  0  0  0  0  0  0  0  0  0
    0.8018  -10.3893   -1.5255 C   0  0  0  0  0  0  0  0  0  0  0  0
    1.3872  -11.5994   -1.5220 F   0  0  0  0  0  0  0  0  0  0  0  0
   -0.5529  -10.2922   -1.8237 C   0  0  0  0  0  0  0  0  0  0  0  0
   -1.1521   -9.0291   -1.7979 C   0  0  0  0  0  0  0  0  0  0  0  0
   -0.4155   -7.8773   -1.5000 C   0  0  0  0  0  0  0  0  0  0  0  0
   -0.9820   -6.5855   -1.5034 N   0  0  0  0  0  0  0  0  0  0  0  0
    2.4824   -4.2625   -0.9162 N   0  0  0  0  0  0  0  0  0  0  0  0
    2.8216   -2.9795   -0.8735 C   0  0  0  0  0  0  0  0  0  0  0  0
   10.2809    1.2100    0.1381 H   0  0  0  0  0  0  0  0  0  0  0  0
   10.2408    3.6703   -0.4511 H   0  0  0  0  0  0  0  0  0  0  0  0
    8.0668    4.7386   -1.0618 H   0  0  0  0  0  0  0  0  0  0  0  0
    6.0337   -3.2392    0.2452 H   0  0  0  0  0  0  0  0  0  0  0  0
    5.3672   -5.6631    0.1163 H   0  0  0  0  0  0  0  0  0  0  0  0
    1.2096   -5.9516   -1.3005 H   0  0  0  0  0  0  0  0  0  0  0  0
    2.6391   -9.3750   -1.0129 H   0  0  0  0  0  0  0  0  0  0  0  0
   -1.1253  -11.1927   -2.0521 H   0  0  0  0  0  0  0  0  0  0  0  0
   -2.2225   -8.9357   -2.0016 H   0  0  0  0  0  0  0  0  0  0  0  0
   -1.9616   -6.5780   -1.7717 H   0  0  0  0  0  0  0  0  0  0  0  0
   -0.8758   -6.0909   -0.6177 H   0  0  0  0  0  0  0  0  0  0  0  0
    2.0545   -2.2613   -1.1771 H   0  0  0  0  0  0  0  0  0  0  0  0
  1  2  3  0
  2  3  1  0
  3  4  1  0
  3 16  2  0
  4  5  2  0
  5  6  1  0
  5 14  1  0
  6  7  2  0
  6 12  1  0
  7  8  1  0
  7  9  1  0
  9 10  2  0
  9 34  1  0
 10 11  1  0
 10 35  1  0
 11 12  2  0
 11 36  1  0
 12 13  1  0
 14 15  1  0
 14 16  1  0
 16 17  1  0
 17 18  2  0
 17 33  1  0
 18 19  1  0
 18 37  1  0
 19 20  2  0
 19 38  1  0
 20 21  1  0
 20 32  1  0
 21 22  2  0
 21 23  1  0
 23 24  1  0
 23 39  1  0
 24 25  2  0
 24 30  1  0
 25 26  1  0
 25 40  1  0
 26 27  1  0
 26 28  2  0
 28 29  1  0
 28 41  1  0
 29 30  2  0
 29 42  1  0
 30 31  1  0
 31 43  1  0
 31 44  1  0
 32 33  2  0
 33 45  1  0
M  END

