
     RDKit          3D

 78 87  0  0  0  0  0  0  0  0999 V2000
    3.7298    2.2680    0.6986 C   0  0  0  0  0  0  0  0  0  0  0  0
    4.6973    1.1807    0.2289 C   0  0  0  0  0  0  0  0  0  0  0  0
    4.4906   -0.1645    0.9312 C   0  0  0  0  0  0  0  0  0  0  0  0
    5.4620   -1.2606    0.4564 C   0  0  0  0  0  0  0  0  0  0  0  0
    5.2688   -2.5837    1.1605 C   0  0  0  0  0  0  0  0  0  0  0  0
    5.8192   -2.8051    2.4466 C   0  0  0  0  0  0  0  0  0  0  0  0
    5.6006   -3.9889    3.1203 C   0  0  0  0  0  0  0  0  0  0  0  0
    4.8184   -5.0421    2.5650 C   0  0  0  0  0  0  0  0  0  0  0  0
    4.3424   -4.8665    1.2257 C   0  0  0  0  0  0  0  0  0  0  0  0
    4.5600   -3.6216    0.5776 C   0  0  0  0  0  0  0  0  0  0  0  0
    3.6988   -5.9719    0.5501 C   0  0  0  0  0  0  0  0  0  0  0  0
    3.0560   -5.8250   -0.7187 C   0  0  0  0  0  0  0  0  0  0  0  0
    2.4608   -6.8846   -1.3465 C   0  0  0  0  0  0  0  0  0  0  0  0
    2.4869   -8.1925   -0.7733 C   0  0  0  0  0  0  0  0  0  0  0  0
    1.8241   -9.2805   -1.3828 C   0  0  0  0  0  0  0  0  0  0  0  0
    1.8134  -10.5201   -0.7643 C   0  0  0  0  0  0  0  0  0  0  0  0
    2.5229  -10.7253    0.4276 C   0  0  0  0  0  0  0  0  0  0  0  0
    3.2627   -9.6967    1.0350 C   0  0  0  0  0  0  0  0  0  0  0  0
    3.1742   -8.3843    0.4671 C   0  0  0  0  0  0  0  0  0  0  0  0
    3.7259   -7.2532    1.1527 C   0  0  0  0  0  0  0  0  0  0  0  0
    4.2043   -7.4187    2.5023 C   0  0  0  0  0  0  0  0  0  0  0  0
    4.5839   -6.2945    3.2580 C   0  0  0  0  0  0  0  0  0  0  0  0
    4.7332   -6.4507    4.7073 C   0  0  0  0  0  0  0  0  0  0  0  0
    4.6394   -5.3792    5.6115 C   0  0  0  0  0  0  0  0  0  0  0  0
    4.8235   -5.5578    6.9900 C   0  0  0  0  0  0  0  0  0  0  0  0
    5.1076   -6.8128    7.5033 C   0  0  0  0  0  0  0  0  0  0  0  0
    5.1363   -7.9361    6.6479 C   0  0  0  0  0  0  0  0  0  0  0  0
    5.3584   -9.2543    7.1512 C   0  0  0  0  0  0  0  0  0  0  0  0
    5.3274  -10.3425    6.3231 C   0  0  0  0  0  0  0  0  0  0  0  0
    5.0383  -10.2135    4.9285 C   0  0  0  0  0  0  0  0  0  0  0  0
    5.0126  -11.3492    4.0334 C   0  0  0  0  0  0  0  0  0  0  0  0
    5.4761  -12.6295    4.4396 C   0  0  0  0  0  0  0  0  0  0  0  0
    5.5655  -13.7080    3.5748 C   0  0  0  0  0  0  0  0  0  0  0  0
    6.0867  -15.0548    4.0277 C   0  0  0  0  0  0  0  0  0  0  0  0
    7.4786  -15.4251    3.4712 C   0  0  0  0  0  0  0  0  0  0  0  0
    8.6362  -14.5187    3.9133 C   0  0  0  0  0  0  0  0  0  0  0  0
    8.9588  -14.5751    5.4086 C   0  0  0  0  0  0  0  0  0  0  0  0
    5.1973  -13.4959    2.2229 C   0  0  0  0  0  0  0  0  0  0  0  0
    4.7097  -12.2771    1.7999 C   0  0  0  0  0  0  0  0  0  0  0  0
    4.5534  -11.1743    2.6886 C   0  0  0  0  0  0  0  0  0  0  0  0
    4.0468   -9.8852    2.2587 C   0  0  0  0  0  0  0  0  0  0  0  0
    4.3303   -8.7560    3.0486 C   0  0  0  0  0  0  0  0  0  0  0  0
    4.7955   -8.9210    4.4028 C   0  0  0  0  0  0  0  0  0  0  0  0
    4.9034   -7.7673    5.2461 C   0  0  0  0  0  0  0  0  0  0  0  0
    3.9061    3.2208    0.1742 H   0  0  0  0  0  0  0  0  0  0  0  0
    3.8353    2.4588    1.7798 H   0  0  0  0  0  0  0  0  0  0  0  0
    2.6814    1.9774    0.5173 H   0  0  0  0  0  0  0  0  0  0  0  0
    5.7380    1.5175    0.3887 H   0  0  0  0  0  0  0  0  0  0  0  0
    4.5936    1.0401   -0.8626 H   0  0  0  0  0  0  0  0  0  0  0  0
    3.4532   -0.5106    0.7733 H   0  0  0  0  0  0  0  0  0  0  0  0
    4.5984   -0.0311    2.0230 H   0  0  0  0  0  0  0  0  0  0  0  0
    6.4980   -0.9105    0.6127 H   0  0  0  0  0  0  0  0  0  0  0  0
    5.3434   -1.4006   -0.6315 H   0  0  0  0  0  0  0  0  0  0  0  0
    6.4498   -2.0363    2.9028 H   0  0  0  0  0  0  0  0  0  0  0  0
    6.0875   -4.1379    4.0820 H   0  0  0  0  0  0  0  0  0  0  0  0
    4.1924   -3.4810   -0.4396 H   0  0  0  0  0  0  0  0  0  0  0  0
    3.0072   -4.8426   -1.1876 H   0  0  0  0  0  0  0  0  0  0  0  0
    1.9445   -6.7407   -2.2993 H   0  0  0  0  0  0  0  0  0  0  0  0
    1.2939   -9.1207   -2.3252 H   0  0  0  0  0  0  0  0  0  0  0  0
    1.2507  -11.3486   -1.2019 H   0  0  0  0  0  0  0  0  0  0  0  0
    2.4674  -11.7027    0.9033 H   0  0  0  0  0  0  0  0  0  0  0  0
    4.3867   -4.3857    5.2457 H   0  0  0  0  0  0  0  0  0  0  0  0
    4.7407   -4.6962    7.6574 H   0  0  0  0  0  0  0  0  0  0  0  0
    5.2769   -6.9544    8.5739 H   0  0  0  0  0  0  0  0  0  0  0  0
    5.5466   -9.3815    8.2205 H   0  0  0  0  0  0  0  0  0  0  0  0
    5.4968  -11.3309    6.7493 H   0  0  0  0  0  0  0  0  0  0  0  0
    5.8089  -12.7710    5.4682 H   0  0  0  0  0  0  0  0  0  0  0  0
    5.3738  -15.8361    3.7104 H   0  0  0  0  0  0  0  0  0  0  0  0
    6.1024  -15.0881    5.1290 H   0  0  0  0  0  0  0  0  0  0  0  0
    7.4298  -15.4276    2.3682 H   0  0  0  0  0  0  0  0  0  0  0  0
    7.7014  -16.4672    3.7646 H   0  0  0  0  0  0  0  0  0  0  0  0
    8.4186  -13.4764    3.6210 H   0  0  0  0  0  0  0  0  0  0  0  0
    9.5361  -14.8079    3.3429 H   0  0  0  0  0  0  0  0  0  0  0  0
    8.1212  -14.2168    6.0288 H   0  0  0  0  0  0  0  0  0  0  0  0
    9.8315  -13.9477    5.6506 H   0  0  0  0  0  0  0  0  0  0  0  0
    9.1904  -15.6048    5.7308 H   0  0  0  0  0  0  0  0  0  0  0  0
    5.3121  -14.3064    1.4974 H   0  0  0  0  0  0  0  0  0  0  0  0
    4.4823  -12.1462    0.7440 H   0  0  0  0  0  0  0  0  0  0  0  0
  1  2  1  0
  1 45  1  0
  1 46  1  0
  1 47  1  0
  2  3  1  0
  2 48  1  0
  2 49  1  0
  3  4  1  0
  3 50  1  0
  3 51  1  0
  4  5  1  0
  4 52  1  0
  4 53  1  0
  5  6  2  0
  5 10  1  0
  6  7  1  0
  6 54  1  0
  7  8  2  0
  7 55  1  0
  8  9  1  0
  8 22  1  0
  9 10  2  0
  9 11  1  0
 10 56  1  0
 11 12  2  0
 11 20  1  0
 12 13  1  0
 12 57  1  0
 13 14  2  0
 13 58  1  0
 14 15  1  0
 14 19  1  0
 15 16  2  0
 15 59  1  0
 16 17  1  0
 16 60  1  0
 17 18  2  0
 17 61  1  0
 18 19  1  0
 18 41  1  0
 19 20  2  0
 20 21  1  0
 21 22  2  0
 21 42  1  0
 22 23  1  0
 23 24  2  0
 23 44  1  0
 24 25  1  0
 24 62  1  0
 25 26  2  0
 25 63  1  0
 26 27  1  0
 26 64  1  0
 27 28  1  0
 27 44  2  0
 28 29  2  0
 28 65  1  0
 29 30  1  0
 29 66  1  0
 30 31  1  0
 30 43  2  0
 31 32  1  0
 31 40  2  0
 32 33  2  0
 32 67  1  0
 33 34  1  0
 33 38  1  0
 34 35  1  0
 34 68  1  0
 34 69  1  0
 35 36  1  0
 35 70  1  0
 35 71  1  0
 36 37  1  0
 36 72  1  0
 36 73  1  0
 37 74  1  0
 37 75  1  0
 37 76  1  0
 38 39  2  0
 38 77  1  0
 39 40  1  0
 39 78  1  0
 40 41  1  0
 41 42  2  0
 42 43  1  0
 43 44  1  0
M  END

