
     RDKit          3D

 95 97  0  0  0  0  0  0  0  0999 V2000
   -9.5136    1.5186    5.0419 C   0  0  0  0  0  0  0  0  0  0  0  0
   -8.9440    0.9413    3.8695 O   0  0  0  0  0  0  0  0  0  0  0  0
   -7.8471    0.1775    4.0602 C   0  0  0  0  0  0  0  0  0  0  0  0
   -7.3542   -0.0222    5.1481 O   0  0  0  0  0  0  0  0  0  0  0  0
   -7.3390   -0.3706    2.7939 C   0  0  0  0  0  0  0  0  0  0  0  0
   -7.8130   -0.2063    1.5087 C   0  0  0  0  0  0  0  0  0  0  0  0
   -7.0338   -0.8999    0.5453 C   0  0  0  0  0  0  0  0  0  0  0  0
   -5.9701   -1.5892    1.0940 C   0  0  0  0  0  0  0  0  0  0  0  0
   -4.9653   -2.4536    0.3860 C   0  0  0  0  0  0  0  0  0  0  0  0
   -5.2008   -3.9672    0.5530 C   0  0  0  0  0  0  0  0  0  0  0  0
   -4.1473   -4.8045   -0.1784 C   0  0  0  0  0  0  0  0  0  0  0  0
   -4.3507   -6.3290   -0.0626 C   0  0  2  0  0  0  0  0  0  0  0  0
   -4.4061   -6.6003    1.0050 H   0  0  0  0  0  0  0  0  0  0  0  0
   -3.2505   -7.1502   -0.7350 C   0  0  0  0  0  0  0  0  0  0  0  0
   -2.0199   -7.4153   -0.2742 C   0  0  0  0  0  0  0  0  0  0  0  0
   -1.4081   -6.9135    1.0023 C   0  0  0  0  0  0  0  0  0  0  0  0
    0.1229   -6.8340    0.9630 C   0  0  0  0  0  0  0  0  0  0  0  0
    0.7622   -7.4590    0.1423 O   0  0  0  0  0  0  0  0  0  0  0  0
    0.7634   -5.9522    2.0171 C   0  0  0  0  0  0  0  0  0  0  0  0
    2.2748   -6.1290    2.2118 C   0  0  0  0  0  0  0  0  0  0  0  0
    3.1888   -5.6779    1.0600 C   0  0  0  0  0  0  0  0  0  0  0  0
    3.1822   -4.1871    0.6765 C   0  0  2  0  0  0  0  0  0  0  0  0
    3.9841   -4.0616   -0.0770 H   0  0  0  0  0  0  0  0  0  0  0  0
    3.4925   -3.2467    1.8400 C   0  0  0  0  0  0  0  0  0  0  0  0
    1.9310   -3.8043    0.1082 O   0  0  0  0  0  0  0  0  0  0  0  0
    1.4937   -3.6200   -1.5162 Si  0  0  1  0  0  4  0  0  0  0  0  0
    2.2321   -5.0207   -2.5463 C   0  0  0  0  0  0  0  0  0  0  0  0
   -0.3816   -3.7471   -1.5018 C   0  0  0  0  0  0  0  0  0  0  0  0
    2.0639   -1.8973   -2.1656 C   0  0  1  0  0  0  0  0  0  0  0  0
    3.6024   -1.7897   -2.1504 C   0  0  0  0  0  0  0  0  0  0  0  0
    1.5618   -1.7016   -3.6116 C   0  0  0  0  0  0  0  0  0  0  0  0
    1.4734   -0.7906   -1.2682 C   0  0  0  0  0  0  0  0  0  0  0  0
   -3.8312   -7.7757   -1.9910 C   0  0  2  0  0  0  0  0  0  0  0  0
   -3.2712   -8.6728   -2.3118 H   0  0  0  0  0  0  0  0  0  0  0  0
   -3.9373   -6.8417   -3.0711 O   0  0  0  0  0  0  0  0  0  0  0  0
   -2.7300   -6.3779   -3.6564 C   0  0  1  0  0  0  0  0  0  0  0  0
   -2.4516   -7.1237   -4.9676 C   0  0  0  0  0  0  0  0  0  0  0  0
   -3.4738   -6.7510   -6.0472 C   0  0  0  0  0  0  0  0  0  0  0  0
   -3.5476   -5.2253   -6.1847 C   0  0  0  0  0  0  0  0  0  0  0  0
   -3.7971   -4.5859   -4.8208 C   0  0  0  0  0  0  0  0  0  0  0  0
   -2.8238   -4.9917   -3.8581 O   0  0  0  0  0  0  0  0  0  0  0  0
   -5.2618   -8.0843   -1.5499 C   0  0  0  0  0  0  0  0  0  0  0  0
   -5.6499   -6.8250   -0.7643 C   0  0  1  0  0  0  0  0  0  0  0  0
   -6.0274   -6.0575   -1.4508 H   0  0  0  0  0  0  0  0  0  0  0  0
   -7.0152   -7.1322    0.3932 Cl  0  0  0  0  0  0  0  0  0  0  0  0
   -5.9238   -1.3841    2.8194 S   0  0  0  0  0  0  0  0  0  0  0  0
  -10.3839    2.0965    4.7064 H   0  0  0  0  0  0  0  0  0  0  0  0
   -8.7908    2.1774    5.5475 H   0  0  0  0  0  0  0  0  0  0  0  0
   -9.8254    0.7386    5.7533 H   0  0  0  0  0  0  0  0  0  0  0  0
   -8.6916    0.3981    1.2827 H   0  0  0  0  0  0  0  0  0  0  0  0
   -7.2420   -0.8945   -0.5265 H   0  0  0  0  0  0  0  0  0  0  0  0
   -3.9470   -2.2053    0.7340 H   0  0  0  0  0  0  0  0  0  0  0  0
   -4.9921   -2.1972   -0.6863 H   0  0  0  0  0  0  0  0  0  0  0  0
   -6.2135   -4.2150    0.1949 H   0  0  0  0  0  0  0  0  0  0  0  0
   -5.1979   -4.2212    1.6276 H   0  0  0  0  0  0  0  0  0  0  0  0
   -3.1496   -4.5480    0.2165 H   0  0  0  0  0  0  0  0  0  0  0  0
   -4.1128   -4.5374   -1.2484 H   0  0  0  0  0  0  0  0  0  0  0  0
   -1.3687   -8.0790   -0.8531 H   0  0  0  0  0  0  0  0  0  0  0  0
   -1.6343   -7.6182    1.8304 H   0  0  0  0  0  0  0  0  0  0  0  0
   -1.8231   -5.9480    1.3299 H   0  0  0  0  0  0  0  0  0  0  0  0
    0.2296   -6.1260    2.9692 H   0  0  0  0  0  0  0  0  0  0  0  0
    0.5280   -4.9125    1.7285 H   0  0  0  0  0  0  0  0  0  0  0  0
    2.4791   -7.1964    2.4027 H   0  0  0  0  0  0  0  0  0  0  0  0
    2.5595   -5.6008    3.1374 H   0  0  0  0  0  0  0  0  0  0  0  0
    2.9526   -6.2672    0.1625 H   0  0  0  0  0  0  0  0  0  0  0  0
    4.2273   -5.9362    1.3348 H   0  0  0  0  0  0  0  0  0  0  0  0
    3.5815   -2.2094    1.4827 H   0  0  0  0  0  0  0  0  0  0  0  0
    4.4388   -3.5242    2.3320 H   0  0  0  0  0  0  0  0  0  0  0  0
    2.6896   -3.2701    2.5929 H   0  0  0  0  0  0  0  0  0  0  0  0
    1.8597   -5.9900   -2.1766 H   0  0  0  0  0  0  0  0  0  0  0  0
    3.3331   -5.0449   -2.5052 H   0  0  0  0  0  0  0  0  0  0  0  0
    1.9418   -4.9285   -3.6059 H   0  0  0  0  0  0  0  0  0  0  0  0
   -0.6823   -4.7165   -1.0735 H   0  0  0  0  0  0  0  0  0  0  0  0
   -0.8248   -3.6967   -2.5090 H   0  0  0  0  0  0  0  0  0  0  0  0
   -0.8366   -2.9544   -0.8868 H   0  0  0  0  0  0  0  0  0  0  0  0
    4.0809   -2.5616   -2.7755 H   0  0  0  0  0  0  0  0  0  0  0  0
    4.0135   -1.8795   -1.1318 H   0  0  0  0  0  0  0  0  0  0  0  0
    3.9248   -0.8076   -2.5431 H   0  0  0  0  0  0  0  0  0  0  0  0
    1.9819   -2.4512   -4.3026 H   0  0  0  0  0  0  0  0  0  0  0  0
    1.8594   -0.7071   -3.9920 H   0  0  0  0  0  0  0  0  0  0  0  0
    0.4633   -1.7615   -3.6817 H   0  0  0  0  0  0  0  0  0  0  0  0
    1.7778   -0.9122   -0.2164 H   0  0  0  0  0  0  0  0  0  0  0  0
    0.3715   -0.7812   -1.2957 H   0  0  0  0  0  0  0  0  0  0  0  0
    1.8163    0.2055   -1.6037 H   0  0  0  0  0  0  0  0  0  0  0  0
   -1.8977   -6.5076   -2.9466 H   0  0  0  0  0  0  0  0  0  0  0  0
   -2.4487   -8.2088   -4.7730 H   0  0  0  0  0  0  0  0  0  0  0  0
   -1.4345   -6.8532   -5.3004 H   0  0  0  0  0  0  0  0  0  0  0  0
   -4.4640   -7.1435   -5.7591 H   0  0  0  0  0  0  0  0  0  0  0  0
   -3.2095   -7.2211   -7.0083 H   0  0  0  0  0  0  0  0  0  0  0  0
   -4.3464   -4.9248   -6.8837 H   0  0  0  0  0  0  0  0  0  0  0  0
   -2.5967   -4.8408   -6.5945 H   0  0  0  0  0  0  0  0  0  0  0  0
   -4.8083   -4.8453   -4.4569 H   0  0  0  0  0  0  0  0  0  0  0  0
   -3.7255   -3.4892   -4.8700 H   0  0  0  0  0  0  0  0  0  0  0  0
   -5.2564   -8.9560   -0.8774 H   0  0  0  0  0  0  0  0  0  0  0  0
   -5.9353   -8.2911   -2.3938 H   0  0  0  0  0  0  0  0  0  0  0  0
  1  2  1  0
  1 47  1  0
  1 48  1  0
  1 49  1  0
  2  3  1  0
  3  4  2  0
  3  5  1  0
  5  6  2  0
  5 46  1  0
  6  7  1  0
  6 50  1  0
  7  8  2  0
  7 51  1  0
  8  9  1  0
  8 46  1  0
  9 10  1  0
  9 52  1  0
  9 53  1  0
 10 11  1  0
 10 54  1  0
 10 55  1  0
 11 12  1  0
 11 56  1  0
 11 57  1  0
 12 13  1  1
 12 14  1  0
 12 43  1  0
 14 15  2  0
 14 33  1  0
 15 16  1  0
 15 58  1  0
 16 17  1  0
 16 59  1  0
 16 60  1  0
 17 18  2  0
 17 19  1  0
 19 20  1  0
 19 61  1  0
 19 62  1  0
 20 21  1  0
 20 63  1  0
 20 64  1  0
 21 22  1  0
 21 65  1  0
 21 66  1  0
 22 23  1  6
 22 24  1  0
 22 25  1  0
 24 67  1  0
 24 68  1  0
 24 69  1  0
 26 25  1  1
 26 27  1  0
 26 28  1  0
 26 29  1  0
 27 70  1  0
 27 71  1  0
 27 72  1  0
 28 73  1  0
 28 74  1  0
 28 75  1  0
 29 30  1  6
 29 31  1  0
 29 32  1  0
 30 76  1  0
 30 77  1  0
 30 78  1  0
 31 79  1  0
 31 80  1  0
 31 81  1  0
 32 82  1  0
 32 83  1  0
 32 84  1  0
 33 34  1  6
 33 35  1  0
 33 42  1  0
 35 36  1  0
 36 37  1  0
 36 41  1  0
 36 85  1  1
 37 38  1  0
 37 86  1  0
 37 87  1  0
 38 39  1  0
 38 88  1  0
 38 89  1  0
 39 40  1  0
 39 90  1  0
 39 91  1  0
 40 41  1  0
 40 92  1  0
 40 93  1  0
 42 43  1  0
 42 94  1  0
 42 95  1  0
 43 44  1  6
 43 45  1  0
M  END

