
     RDKit          3D

 58 60  0  0  0  0  0  0  0  0999 V2000
    0.9300   -0.7906    1.4294 C   0  0  0  0  0  0  0  0  0  0  0  0
    2.4297   -0.9988    1.5182 C   0  0  0  0  0  0  0  0  0  0  0  0
    2.9362   -1.1431    0.2007 O   0  0  0  0  0  0  0  0  0  0  0  0
    4.2601   -1.3861    0.0129 C   0  0  0  0  0  0  0  0  0  0  0  0
    5.2120   -1.4585    1.0371 C   0  0  0  0  0  0  0  0  0  0  0  0
    6.5536   -1.7361    0.7440 C   0  0  0  0  0  0  0  0  0  0  0  0
    6.9832   -1.9465   -0.5696 C   0  0  0  0  0  0  0  0  0  0  0  0
    8.4201   -2.2934   -0.8890 C   0  0  0  0  0  0  0  0  0  0  0  0
    8.6639   -3.8039   -1.0126 C   0  0  0  0  0  0  0  0  0  0  0  0
   10.0441   -4.0864   -1.3744 N   0  0  0  0  0  0  0  0  0  0  0  0
   10.3559   -5.4912   -1.5228 C   0  0  0  0  0  0  0  0  0  0  0  0
   11.7338   -5.7501   -2.0908 C   0  0  0  0  0  0  0  0  0  0  0  0
   12.4944   -4.7410   -2.5913 C   0  0  0  0  0  0  0  0  0  0  0  0
   13.8293   -4.9474   -3.1422 C   0  0  0  0  0  0  0  0  0  0  0  0
   14.5548   -4.0995   -3.5904 O   0  0  0  0  0  0  0  0  0  0  0  0
   14.2873   -6.2619   -3.1344 O   0  0  0  0  0  0  0  0  0  0  0  0
   13.5515   -7.2997   -2.6630 C   0  0  0  0  0  0  0  0  0  0  0  0
   14.1295   -8.5719   -2.7401 C   0  0  0  0  0  0  0  0  0  0  0  0
   13.4371   -9.6968   -2.2861 C   0  0  0  0  0  0  0  0  0  0  0  0
   14.0754  -11.0677   -2.3280 C   0  0  0  0  0  0  0  0  0  0  0  0
   14.8237  -11.4250   -1.0338 C   0  0  0  0  0  0  0  0  0  0  0  0
   12.1446   -9.5178   -1.7509 C   0  0  0  0  0  0  0  0  0  0  0  0
   11.5717   -8.2547   -1.6711 C   0  0  0  0  0  0  0  0  0  0  0  0
   12.2606   -7.1090   -2.1231 C   0  0  0  0  0  0  0  0  0  0  0  0
    6.0224   -1.8605   -1.5922 C   0  0  0  0  0  0  0  0  0  0  0  0
    4.6819   -1.5853   -1.3266 C   0  0  0  0  0  0  0  0  0  0  0  0
    3.7906   -1.5729   -2.3606 O   0  0  0  0  0  0  0  0  0  0  0  0
    3.2006   -0.3189   -2.7103 C   0  0  0  0  0  0  0  0  0  0  0  0
    2.2523   -0.5537   -3.8691 C   0  0  0  0  0  0  0  0  0  0  0  0
    0.5002   -0.6909    2.4382 H   0  0  0  0  0  0  0  0  0  0  0  0
    0.4490   -1.6440    0.9277 H   0  0  0  0  0  0  0  0  0  0  0  0
    0.6936    0.1217    0.8605 H   0  0  0  0  0  0  0  0  0  0  0  0
    2.6646   -1.9029    2.1113 H   0  0  0  0  0  0  0  0  0  0  0  0
    2.9155   -0.1404    2.0202 H   0  0  0  0  0  0  0  0  0  0  0  0
    4.9170   -1.3035    2.0750 H   0  0  0  0  0  0  0  0  0  0  0  0
    7.2742   -1.7854    1.5654 H   0  0  0  0  0  0  0  0  0  0  0  0
    9.0798   -1.8881   -0.1014 H   0  0  0  0  0  0  0  0  0  0  0  0
    8.7317   -1.8199   -1.8342 H   0  0  0  0  0  0  0  0  0  0  0  0
    8.0081   -4.2129   -1.8015 H   0  0  0  0  0  0  0  0  0  0  0  0
    8.3492   -4.3021   -0.0675 H   0  0  0  0  0  0  0  0  0  0  0  0
   10.6770   -3.6604   -0.6968 H   0  0  0  0  0  0  0  0  0  0  0  0
    9.6148   -5.9417   -2.2101 H   0  0  0  0  0  0  0  0  0  0  0  0
   10.2520   -6.0652   -0.5741 H   0  0  0  0  0  0  0  0  0  0  0  0
   12.1237   -3.7169   -2.6109 H   0  0  0  0  0  0  0  0  0  0  0  0
   15.1299   -8.6551   -3.1705 H   0  0  0  0  0  0  0  0  0  0  0  0
   14.7743  -11.1185   -3.1790 H   0  0  0  0  0  0  0  0  0  0  0  0
   13.2959  -11.8246   -2.5182 H   0  0  0  0  0  0  0  0  0  0  0  0
   15.6342  -10.7066   -0.8324 H   0  0  0  0  0  0  0  0  0  0  0  0
   15.2696  -12.4302   -1.1024 H   0  0  0  0  0  0  0  0  0  0  0  0
   14.1462  -11.4131   -0.1650 H   0  0  0  0  0  0  0  0  0  0  0  0
   11.5833  -10.3871   -1.3981 H   0  0  0  0  0  0  0  0  0  0  0  0
   10.5676   -8.1520   -1.2559 H   0  0  0  0  0  0  0  0  0  0  0  0
    6.3018   -2.0123   -2.6382 H   0  0  0  0  0  0  0  0  0  0  0  0
    3.9994    0.3935   -2.9935 H   0  0  0  0  0  0  0  0  0  0  0  0
    2.6642    0.1019   -1.8439 H   0  0  0  0  0  0  0  0  0  0  0  0
    2.7877   -0.9769   -4.7332 H   0  0  0  0  0  0  0  0  0  0  0  0
    1.7832    0.3936   -4.1783 H   0  0  0  0  0  0  0  0  0  0  0  0
    1.4577   -1.2585   -3.5795 H   0  0  0  0  0  0  0  0  0  0  0  0
  1  2  1  0
  1 30  1  0
  1 31  1  0
  1 32  1  0
  2  3  1  0
  2 33  1  0
  2 34  1  0
  3  4  1  0
  4  5  2  0
  4 26  1  0
  5  6  1  0
  5 35  1  0
  6  7  2  0
  6 36  1  0
  7  8  1  0
  7 25  1  0
  8  9  1  0
  8 37  1  0
  8 38  1  0
  9 10  1  0
  9 39  1  0
  9 40  1  0
 10 11  1  0
 10 41  1  0
 11 12  1  0
 11 42  1  0
 11 43  1  0
 12 13  2  0
 12 24  1  0
 13 14  1  0
 13 44  1  0
 14 15  2  0
 14 16  1  0
 16 17  1  0
 17 18  1  0
 17 24  2  0
 18 19  2  0
 18 45  1  0
 19 20  1  0
 19 22  1  0
 20 21  1  0
 20 46  1  0
 20 47  1  0
 21 48  1  0
 21 49  1  0
 21 50  1  0
 22 23  2  0
 22 51  1  0
 23 24  1  0
 23 52  1  0
 25 26  2  0
 25 53  1  0
 26 27  1  0
 27 28  1  0
 28 29  1  0
 28 54  1  0
 28 55  1  0
 29 56  1  0
 29 57  1  0
 29 58  1  0
M  END

