
     RDKit          3D

 31 32  0  0  0  0  0  0  0  0999 V2000
    1.0041   -0.0026   -0.1631 C   0  0  0  0  0  0  0  0  0  0  0  0
    2.4000   -0.1487   -0.0672 O   0  0  0  0  0  0  0  0  0  0  0  0
    3.0206   -0.5075   -1.2945 C   0  0  0  0  0  0  0  0  0  0  0  0
    4.5158   -0.6384   -1.1374 C   0  0  0  0  0  0  0  0  0  0  0  0
    5.3627    0.0487   -2.0135 C   0  0  0  0  0  0  0  0  0  0  0  0
    6.7482   -0.1247   -1.9786 C   0  0  0  0  0  0  0  0  0  0  0  0
    7.2947   -1.0031   -1.0414 C   0  0  0  0  0  0  0  0  0  0  0  0
    6.4785   -1.6893   -0.1405 C   0  0  0  0  0  0  0  0  0  0  0  0
    5.0837   -1.5096   -0.1692 C   0  0  0  0  0  0  0  0  0  0  0  0
    4.2002   -2.1287    0.7269 N   0  0  0  0  0  0  0  0  0  0  0  0
    4.3590   -3.1776    1.5913 C   0  0  0  0  0  0  0  0  0  0  0  0
    3.2805   -3.4406    2.3493 N   0  0  0  0  0  0  0  0  0  0  0  0
    3.3615   -4.4645    3.2019 C   0  0  0  0  0  0  0  0  0  0  0  0
    2.2590   -4.7354    3.9505 N   0  0  0  0  0  0  0  0  0  0  0  0
    4.5400   -5.2493    3.3132 C   0  0  0  0  0  0  0  0  0  0  0  0
    5.5738   -4.8597    2.4775 C   0  0  0  0  0  0  0  0  0  0  0  0
    7.2252   -5.8378    2.5451 Br  0  0  0  0  0  0  0  0  0  0  0  0
    5.5190   -3.8547    1.6262 N   0  0  0  0  0  0  0  0  0  0  0  0
    0.6260    0.2644    0.8341 H   0  0  0  0  0  0  0  0  0  0  0  0
    0.5106   -0.9383   -0.4940 H   0  0  0  0  0  0  0  0  0  0  0  0
    0.7282    0.8008   -0.8742 H   0  0  0  0  0  0  0  0  0  0  0  0
    2.7945    0.2513   -2.0677 H   0  0  0  0  0  0  0  0  0  0  0  0
    2.5904   -1.4695   -1.6504 H   0  0  0  0  0  0  0  0  0  0  0  0
    4.9192    0.7263   -2.7490 H   0  0  0  0  0  0  0  0  0  0  0  0
    7.3898    0.4185   -2.6763 H   0  0  0  0  0  0  0  0  0  0  0  0
    8.3762   -1.1576   -0.9993 H   0  0  0  0  0  0  0  0  0  0  0  0
    6.9068   -2.3774    0.5840 H   0  0  0  0  0  0  0  0  0  0  0  0
    3.2953   -1.6671    0.8148 H   0  0  0  0  0  0  0  0  0  0  0  0
    1.4831   -4.0880    3.9042 H   0  0  0  0  0  0  0  0  0  0  0  0
    2.2940   -5.4078    4.7026 H   0  0  0  0  0  0  0  0  0  0  0  0
    4.6252   -6.0891    4.0010 H   0  0  0  0  0  0  0  0  0  0  0  0
  1  2  1  0
  1 19  1  0
  1 20  1  0
  1 21  1  0
  2  3  1  0
  3  4  1  0
  3 22  1  0
  3 23  1  0
  4  5  2  0
  4  9  1  0
  5  6  1  0
  5 24  1  0
  6  7  2  0
  6 25  1  0
  7  8  1  0
  7 26  1  0
  8  9  2  0
  8 27  1  0
  9 10  1  0
 10 11  1  0
 10 28  1  0
 11 12  2  0
 11 18  1  0
 12 13  1  0
 13 14  1  0
 13 15  2  0
 14 29  1  0
 14 30  1  0
 15 16  1  0
 15 31  1  0
 16 17  1  0
 16 18  2  0
M  END

