
     RDKit          3D

 14 13  0  0  0  0  0  0  0  0999 V2000
    2.6810    1.2082   -0.9289 C   0  0  0  0  0  0  0  0  0  0  0  0
    2.6902    0.0031   -0.0028 C   0  0  0  0  0  0  0  0  0  0  0  0
    3.1629    0.3452    1.3123 O   0  0  0  0  0  0  0  0  0  0  0  0
    4.4963    0.3293    1.5160 C   0  0  0  0  0  0  0  0  0  0  0  0
    4.8476    0.7155    2.9337 C   0  0  0  0  0  0  0  0  0  0  0  0
    5.3014    0.0401    0.6648 O   0  0  0  0  0  0  0  0  0  0  0  0
    2.2436    0.9312   -1.9015 H   0  0  0  0  0  0  0  0  0  0  0  0
    3.7043    1.5710   -1.1064 H   0  0  0  0  0  0  0  0  0  0  0  0
    2.0820    2.0282   -0.5027 H   0  0  0  0  0  0  0  0  0  0  0  0
    3.3201   -0.8010   -0.4120 H   0  0  0  0  0  0  0  0  0  0  0  0
    1.6730   -0.3835    0.1573 H   0  0  0  0  0  0  0  0  0  0  0  0
    3.9546    0.8883    3.5468 H   0  0  0  0  0  0  0  0  0  0  0  0
    5.4646    1.6269    2.9106 H   0  0  0  0  0  0  0  0  0  0  0  0
    5.4620   -0.0817    3.3781 H   0  0  0  0  0  0  0  0  0  0  0  0
  1  2  1  0
  1  7  1  0
  1  8  1  0
  1  9  1  0
  2  3  1  0
  2 10  1  0
  2 11  1  0
  3  4  1  0
  4  5  1  0
  4  6  2  0
  5 12  1  0
  5 13  1  0
  5 14  1  0
M  END

