
     RDKit          3D

 40 42  0  0  0  0  0  0  0  0999 V2000
    1.0328   -0.1038   -0.3117 C   0  0  0  0  0  0  0  0  0  0  0  0
    2.4798   -0.1624   -0.2281 N   0  0  0  0  0  0  0  0  0  0  0  0
    2.9917   -1.4284   -0.7239 C   0  0  0  0  0  0  0  0  0  0  0  0
    4.4934   -1.6428   -0.5299 C   0  0  0  0  0  0  0  0  0  0  0  0
    5.4153   -0.7679   -1.3836 C   0  0  0  0  0  0  0  0  0  0  0  0
    5.6340    0.5968   -0.9188 N   0  0  0  0  0  0  0  0  0  0  0  0
    6.6413    1.3324   -1.5837 C   0  0  0  0  0  0  0  0  0  0  0  0
    7.0985    2.5676   -1.0658 C   0  0  0  0  0  0  0  0  0  0  0  0
    8.0938    3.3269   -1.7050 C   0  0  0  0  0  0  0  0  0  0  0  0
    8.6428    2.8243   -2.8704 C   0  0  0  0  0  0  0  0  0  0  0  0
    8.2165    1.6028   -3.3825 C   0  0  0  0  0  0  0  0  0  0  0  0
    7.2313    0.8386   -2.7826 C   0  0  0  0  0  0  0  0  0  0  0  0
    8.9349    1.3118   -4.5139 O   0  0  0  0  0  0  0  0  0  0  0  0
    9.6587    2.5016   -4.8198 C   0  0  0  0  0  0  0  0  0  0  0  0
    9.6541    3.3222   -3.6615 O   0  0  0  0  0  0  0  0  0  0  0  0
    4.5340    1.3373   -0.2659 C   0  0  2  0  0  0  0  0  0  0  0  0
    4.5698    1.2701    1.2734 C   0  0  0  0  0  0  0  0  0  0  0  0
    5.8387    1.7649    1.7958 N   0  0  0  0  0  0  0  0  0  0  0  0
    3.1238    1.0103   -0.8049 C   0  0  0  0  0  0  0  0  0  0  0  0
    0.5893   -0.9596    0.2222 H   0  0  0  0  0  0  0  0  0  0  0  0
    0.6473   -0.1279   -1.3579 H   0  0  0  0  0  0  0  0  0  0  0  0
    0.6589    0.8176    0.1616 H   0  0  0  0  0  0  0  0  0  0  0  0
    2.7597   -1.5569   -1.8107 H   0  0  0  0  0  0  0  0  0  0  0  0
    2.4531   -2.2362   -0.2000 H   0  0  0  0  0  0  0  0  0  0  0  0
    4.7003   -2.6852   -0.8248 H   0  0  0  0  0  0  0  0  0  0  0  0
    4.7614   -1.5667    0.5358 H   0  0  0  0  0  0  0  0  0  0  0  0
    5.0258   -0.7900   -2.4253 H   0  0  0  0  0  0  0  0  0  0  0  0
    6.4018   -1.2574   -1.4245 H   0  0  0  0  0  0  0  0  0  0  0  0
    6.7041    2.9190   -0.1122 H   0  0  0  0  0  0  0  0  0  0  0  0
    8.4364    4.2709   -1.2775 H   0  0  0  0  0  0  0  0  0  0  0  0
    6.9269   -0.0938   -3.2511 H   0  0  0  0  0  0  0  0  0  0  0  0
    9.1600    3.0298   -5.6598 H   0  0  0  0  0  0  0  0  0  0  0  0
   10.6948    2.2453   -5.0929 H   0  0  0  0  0  0  0  0  0  0  0  0
    4.6966    2.3909   -0.5334 H   0  0  0  0  0  0  0  0  0  0  0  0
    4.3070    0.2479    1.6027 H   0  0  0  0  0  0  0  0  0  0  0  0
    3.7604    1.9205    1.6497 H   0  0  0  0  0  0  0  0  0  0  0  0
    6.5931    1.1483    1.4882 H   0  0  0  0  0  0  0  0  0  0  0  0
    5.8387    1.7335    2.8150 H   0  0  0  0  0  0  0  0  0  0  0  0
    3.1588    0.9686   -1.9184 H   0  0  0  0  0  0  0  0  0  0  0  0
    2.4927    1.8774   -0.5554 H   0  0  0  0  0  0  0  0  0  0  0  0
  1  2  1  0
  1 20  1  0
  1 21  1  0
  1 22  1  0
  2  3  1  0
  2 19  1  0
  3  4  1  0
  3 23  1  0
  3 24  1  0
  4  5  1  0
  4 25  1  0
  4 26  1  0
  5  6  1  0
  5 27  1  0
  5 28  1  0
  6  7  1  0
  6 16  1  0
  7  8  2  0
  7 12  1  0
  8  9  1  0
  8 29  1  0
  9 10  2  0
  9 30  1  0
 10 11  1  0
 10 15  1  0
 11 12  2  0
 11 13  1  0
 12 31  1  0
 13 14  1  0
 14 15  1  0
 14 32  1  0
 14 33  1  0
 16 17  1  0
 16 19  1  0
 16 34  1  1
 17 18  1  0
 17 35  1  0
 17 36  1  0
 18 37  1  0
 18 38  1  0
 19 39  1  0
 19 40  1  0
M  END

