
     RDKit          3D

 25 25  0  0  0  0  0  0  0  0999 V2000
    0.9145   -0.2655   -0.0766 C   0  0  0  0  0  0  0  0  0  0  0  0
    2.3841   -0.1588   -0.0687 N   0  0  0  0  0  0  0  0  0  0  0  0
    3.0241    1.0538   -0.0282 C   0  0  0  0  0  0  0  0  0  0  0  0
    2.2235    2.3326    0.0356 C   0  0  0  0  0  0  0  0  0  0  0  0
    2.0844    3.0188   -1.3391 C   0  0  0  0  0  0  0  0  0  0  0  0
    1.3578    2.1913   -2.3015 N   0  0  0  0  0  0  0  0  0  0  0  0
    4.3305    1.1749   -0.0612 N   0  0  0  0  0  0  0  0  0  0  0  0
    5.0773    0.0489   -0.1296 C   0  0  0  0  0  0  0  0  0  0  0  0
    4.5489   -1.2195   -0.1470 C   0  0  0  0  0  0  0  0  0  0  0  0
    5.4664   -2.4143   -0.2152 C   0  0  0  0  0  0  0  0  0  0  0  0
    6.6664   -2.2884   -0.2591 O   0  0  0  0  0  0  0  0  0  0  0  0
    4.8658   -3.6029   -0.2248 O   0  0  0  0  0  0  0  0  0  0  0  0
    3.1127   -1.3730   -0.1053 C   0  0  0  0  0  0  0  0  0  0  0  0
    2.5169   -2.4556   -0.1128 O   0  0  0  0  0  0  0  0  0  0  0  0
    0.5074    0.4040   -0.8447 H   0  0  0  0  0  0  0  0  0  0  0  0
    0.5060   -0.0073    0.9123 H   0  0  0  0  0  0  0  0  0  0  0  0
    0.6677   -1.3089   -0.2970 H   0  0  0  0  0  0  0  0  0  0  0  0
    2.7861    3.0066    0.6982 H   0  0  0  0  0  0  0  0  0  0  0  0
    1.2284    2.1730    0.4693 H   0  0  0  0  0  0  0  0  0  0  0  0
    3.0963    3.3129   -1.6791 H   0  0  0  0  0  0  0  0  0  0  0  0
    1.5190    3.9513   -1.1832 H   0  0  0  0  0  0  0  0  0  0  0  0
    1.9917    1.5598   -2.7924 H   0  0  0  0  0  0  0  0  0  0  0  0
    0.9255    2.7688   -3.0211 H   0  0  0  0  0  0  0  0  0  0  0  0
    6.1650    0.1660   -0.1674 H   0  0  0  0  0  0  0  0  0  0  0  0
    3.8842   -3.4689   -0.1841 H   0  0  0  0  0  0  0  0  0  0  0  0
  1  2  1  0
  1 15  1  0
  1 16  1  0
  1 17  1  0
  2  3  1  0
  2 13  1  0
  3  4  1  0
  3  7  2  0
  4  5  1  0
  4 18  1  0
  4 19  1  0
  5  6  1  0
  5 20  1  0
  5 21  1  0
  6 22  1  0
  6 23  1  0
  7  8  1  0
  8  9  2  0
  8 24  1  0
  9 10  1  0
  9 13  1  0
 10 11  2  0
 10 12  1  0
 12 25  1  0
 13 14  2  0
M  END

