
     RDKit          3D

 49 51  0  0  0  0  0  0  0  0999 V2000
   -1.7117   -1.2130    2.4600 C   0  0  0  0  0  0  0  0  0  0  0  0
   -0.2041   -1.1826    2.4686 C   0  0  0  0  0  0  0  0  0  0  0  0
    0.4947   -0.8934    3.6479 C   0  0  0  0  0  0  0  0  0  0  0  0
    1.8877   -0.8609    3.6934 C   0  0  0  0  0  0  0  0  0  0  0  0
    2.5814   -1.1283    2.5163 C   0  0  0  0  0  0  0  0  0  0  0  0
    4.0612   -1.1001    2.5371 N   0  0  0  0  0  0  0  0  0  0  0  0
    4.6029   -0.8414    3.6009 O   0  0  0  0  0  0  0  0  0  0  0  0
    4.6485   -1.3352    1.4948 O   0  0  0  0  0  0  0  0  0  0  0  0
    1.9410   -1.4219    1.3150 C   0  0  0  0  0  0  0  0  0  0  0  0
    0.5384   -1.4491    1.2875 C   0  0  0  0  0  0  0  0  0  0  0  0
   -0.1772   -1.7353    0.1117 N   0  0  0  0  0  0  0  0  0  0  0  0
    0.3049   -2.0290   -1.1384 C   0  0  0  0  0  0  0  0  0  0  0  0
    1.4786   -2.1132   -1.4423 O   0  0  0  0  0  0  0  0  0  0  0  0
   -0.7613   -2.2313   -2.2281 C   0  0  0  0  0  0  0  0  0  0  0  0
   -2.5322   -2.2799   -1.7580 S   0  0  0  0  0  0  0  0  0  0  0  0
   -2.8272   -4.0183   -1.4402 C   0  0  0  0  0  0  0  0  0  0  0  0
   -1.9608   -4.8335   -0.6971 C   0  0  0  0  0  0  0  0  0  0  0  0
   -2.2607   -6.1738   -0.4511 C   0  0  0  0  0  0  0  0  0  0  0  0
   -3.4636   -6.7239   -0.9321 C   0  0  0  0  0  0  0  0  0  0  0  0
   -3.8419   -8.0618   -0.7283 N   0  0  0  0  0  0  0  0  0  0  0  0
   -3.1952   -9.0421   -0.0049 C   0  0  0  0  0  0  0  0  0  0  0  0
   -2.1699   -8.8523    0.6260 O   0  0  0  0  0  0  0  0  0  0  0  0
   -3.8640  -10.3949   -0.0262 C   0  0  0  0  0  0  0  0  0  0  0  0
   -4.7335  -10.8251   -1.0415 C   0  0  0  0  0  0  0  0  0  0  0  0
   -5.2924  -12.1047   -0.9908 C   0  0  0  0  0  0  0  0  0  0  0  0
   -4.9942  -12.9674    0.0656 C   0  0  0  0  0  0  0  0  0  0  0  0
   -4.1160  -12.5383    1.0676 C   0  0  0  0  0  0  0  0  0  0  0  0
   -3.7285  -13.6139    2.3878 Cl  0  0  0  0  0  0  0  0  0  0  0  0
   -3.5439  -11.2675    1.0248 C   0  0  0  0  0  0  0  0  0  0  0  0
   -4.3385   -5.9020   -1.6664 C   0  0  0  0  0  0  0  0  0  0  0  0
   -4.0220   -4.5714   -1.9257 C   0  0  0  0  0  0  0  0  0  0  0  0
   -2.1156   -0.9886    3.4565 H   0  0  0  0  0  0  0  0  0  0  0  0
   -2.1010   -2.2015    2.1598 H   0  0  0  0  0  0  0  0  0  0  0  0
   -2.1348   -0.4729    1.7582 H   0  0  0  0  0  0  0  0  0  0  0  0
   -0.0745   -0.6884    4.5580 H   0  0  0  0  0  0  0  0  0  0  0  0
    2.4350   -0.6373    4.6079 H   0  0  0  0  0  0  0  0  0  0  0  0
    2.5191   -1.6264    0.4182 H   0  0  0  0  0  0  0  0  0  0  0  0
   -1.1935   -1.7022    0.1671 H   0  0  0  0  0  0  0  0  0  0  0  0
   -0.4973   -3.1392   -2.7891 H   0  0  0  0  0  0  0  0  0  0  0  0
   -0.6600   -1.3871   -2.9291 H   0  0  0  0  0  0  0  0  0  0  0  0
   -1.0321   -4.4279   -0.2910 H   0  0  0  0  0  0  0  0  0  0  0  0
   -1.5814   -6.7972    0.1252 H   0  0  0  0  0  0  0  0  0  0  0  0
   -4.7448   -8.3124   -1.1116 H   0  0  0  0  0  0  0  0  0  0  0  0
   -4.9558  -10.1858   -1.8994 H   0  0  0  0  0  0  0  0  0  0  0  0
   -5.9610  -12.4393   -1.7875 H   0  0  0  0  0  0  0  0  0  0  0  0
   -5.4275  -13.9676    0.1152 H   0  0  0  0  0  0  0  0  0  0  0  0
   -2.8462  -10.9371    1.7946 H   0  0  0  0  0  0  0  0  0  0  0  0
   -5.2745   -6.3150   -2.0546 H   0  0  0  0  0  0  0  0  0  0  0  0
   -4.7039   -3.9575   -2.5184 H   0  0  0  0  0  0  0  0  0  0  0  0
  1  2  1  0
  1 32  1  0
  1 33  1  0
  1 34  1  0
  2  3  2  0
  2 10  1  0
  3  4  1  0
  3 35  1  0
  4  5  2  0
  4 36  1  0
  5  6  1  0
  5  9  1  0
  6  7  1  0
  6  8  1  0
  9 10  2  0
  9 37  1  0
 10 11  1  0
 11 12  1  0
 11 38  1  0
 12 13  2  0
 12 14  1  0
 14 15  1  0
 14 39  1  0
 14 40  1  0
 15 16  2  0
 16 17  1  0
 16 31  1  0
 17 18  2  0
 17 41  1  0
 18 19  1  0
 18 42  1  0
 19 20  2  0
 19 30  1  0
 20 21  1  0
 20 43  1  0
 21 22  2  0
 21 23  1  0
 23 24  2  0
 23 29  1  0
 24 25  1  0
 24 44  1  0
 25 26  2  0
 25 45  1  0
 26 27  1  0
 26 46  1  0
 27 28  1  0
 27 29  2  0
 29 47  1  0
 30 31  2  0
 30 48  1  0
 31 49  1  0
M  CHG  4   7  -1   8  -1  15   1  20   1
M  END

