
     RDKit          3D

 66 74  0  0  0  0  0  0  0  0999 V2000
    1.9712   -1.9709   -1.4315 C   0  0  0  0  0  0  0  0  0  0  0  0
    2.3470   -0.9440   -0.3329 C   0  0  1  0  0  0  0  0  0  0  0  0
    1.8995   -1.4685    1.0462 C   0  0  0  0  0  0  0  0  0  0  0  0
    3.8816   -0.7315   -0.3817 C   0  0  1  0  0  0  0  0  0  0  0  0
    4.3329    0.2786   -1.4293 C   0  0  2  0  0  0  0  0  0  0  0  0
    3.4277    1.0802   -2.2534 C   0  0  0  0  0  0  0  0  0  0  0  0
    3.8776    1.8055   -3.3677 C   0  0  0  0  0  0  0  0  0  0  0  0
    3.0040    2.5975   -4.1070 C   0  0  0  0  0  0  0  0  0  0  0  0
    1.6426    2.6643   -3.7571 C   0  0  0  0  0  0  0  0  0  0  0  0
    0.7384    3.4601   -4.5047 N   0  0  0  0  0  0  0  0  0  0  0  0
   -0.2630    4.2178   -3.8404 C   0  0  0  0  0  0  0  0  0  0  0  0
    0.0353    4.9235   -2.6600 C   0  0  0  0  0  0  0  0  0  0  0  0
   -0.9548    5.6611   -2.0091 C   0  0  0  0  0  0  0  0  0  0  0  0
   -2.2525    5.7247   -2.5273 C   0  0  0  0  0  0  0  0  0  0  0  0
   -2.5514    5.0317   -3.7047 C   0  0  0  0  0  0  0  0  0  0  0  0
   -1.5720    4.2778   -4.3534 C   0  0  0  0  0  0  0  0  0  0  0  0
    0.8378    3.5098   -5.9212 C   0  0  0  0  0  0  0  0  0  0  0  0
    1.0571    2.3364   -6.6660 C   0  0  0  0  0  0  0  0  0  0  0  0
    1.1619    2.3914   -8.0567 C   0  0  0  0  0  0  0  0  0  0  0  0
    1.0334    3.6092   -8.7324 C   0  0  0  0  0  0  0  0  0  0  0  0
    0.8065    4.7770   -7.9970 C   0  0  0  0  0  0  0  0  0  0  0  0
    0.7173    4.7337   -6.6048 C   0  0  0  0  0  0  0  0  0  0  0  0
    1.1952    1.9213   -2.6496 C   0  0  0  0  0  0  0  0  0  0  0  0
    2.0702    1.1474   -1.8821 C   0  0  0  0  0  0  0  0  0  0  0  0
    6.0549    0.2130   -0.9323 P   0  0  1  0  0  0  0  0  0  0  0  0
    7.1911    1.1263   -1.2539 O   0  0  0  0  0  0  0  0  0  0  0  0
    4.5943    0.5309    0.1105 C   0  0  2  0  0  0  0  0  0  0  0  0
    1.5294    0.3648   -0.6814 C   0  0  2  0  0  0  0  0  0  0  0  0
    1.1300    1.2394    0.5032 C   0  0  0  0  0  0  0  0  0  0  0  0
    1.8472    2.0293    1.3256 C   0  0  0  0  0  0  0  0  0  0  0  0
    3.2679    2.3526    1.3879 C   0  0  0  0  0  0  0  0  0  0  0  0
    4.3703    1.7432    0.8958 C   0  0  0  0  0  0  0  0  0  0  0  0
    6.1586   -1.5595   -0.6354 C   0  0  0  0  0  0  0  0  0  0  0  0
    7.2346   -2.4372   -0.6336 C   0  0  0  0  0  0  0  0  0  0  0  0
    6.9981   -3.7719   -0.2773 C   0  0  0  0  0  0  0  0  0  0  0  0
    5.7069   -4.1739    0.0701 C   0  0  0  0  0  0  0  0  0  0  0  0
    4.6307   -3.2703    0.0634 C   0  0  0  0  0  0  0  0  0  0  0  0
    4.8441   -1.9384   -0.3006 C   0  0  0  0  0  0  0  0  0  0  0  0
    2.5079   -2.9213   -1.3272 H   0  0  0  0  0  0  0  0  0  0  0  0
    2.1903   -1.5755   -2.4348 H   0  0  0  0  0  0  0  0  0  0  0  0
    0.8929   -2.1908   -1.3830 H   0  0  0  0  0  0  0  0  0  0  0  0
    2.2937   -2.4729    1.2491 H   0  0  0  0  0  0  0  0  0  0  0  0
    0.8005   -1.5333    1.0924 H   0  0  0  0  0  0  0  0  0  0  0  0
    2.2298   -0.8059    1.8571 H   0  0  0  0  0  0  0  0  0  0  0  0
    4.9352    1.7622   -3.6389 H   0  0  0  0  0  0  0  0  0  0  0  0
    3.3733    3.1693   -4.9597 H   0  0  0  0  0  0  0  0  0  0  0  0
    1.0486    4.8896   -2.2556 H   0  0  0  0  0  0  0  0  0  0  0  0
   -0.7033    6.2032   -1.0937 H   0  0  0  0  0  0  0  0  0  0  0  0
   -3.0229    6.3092   -2.0188 H   0  0  0  0  0  0  0  0  0  0  0  0
   -3.5625    5.0663   -4.1191 H   0  0  0  0  0  0  0  0  0  0  0  0
   -1.8163    3.7295   -5.2651 H   0  0  0  0  0  0  0  0  0  0  0  0
    1.1454    1.3803   -6.1467 H   0  0  0  0  0  0  0  0  0  0  0  0
    1.3329    1.4689   -8.6180 H   0  0  0  0  0  0  0  0  0  0  0  0
    1.1099    3.6478   -9.8216 H   0  0  0  0  0  0  0  0  0  0  0  0
    0.7111    5.7375   -8.5102 H   0  0  0  0  0  0  0  0  0  0  0  0
    0.5538    5.6513   -6.0366 H   0  0  0  0  0  0  0  0  0  0  0  0
    0.1369    1.9585   -2.3818 H   0  0  0  0  0  0  0  0  0  0  0  0
    0.5647   -0.0362   -1.0267 H   0  0  0  0  0  0  0  0  0  0  0  0
    0.0562    1.2133    0.7163 H   0  0  0  0  0  0  0  0  0  0  0  0
    1.2554    2.5667    2.0762 H   0  0  0  0  0  0  0  0  0  0  0  0
    3.4761    3.2614    1.9635 H   0  0  0  0  0  0  0  0  0  0  0  0
    5.3138    2.2646    1.0960 H   0  0  0  0  0  0  0  0  0  0  0  0
    8.2366   -2.0899   -0.8975 H   0  0  0  0  0  0  0  0  0  0  0  0
    7.8199   -4.4918   -0.2647 H   0  0  0  0  0  0  0  0  0  0  0  0
    5.5226   -5.2125    0.3568 H   0  0  0  0  0  0  0  0  0  0  0  0
    3.6448   -3.6356    0.3473 H   0  0  0  0  0  0  0  0  0  0  0  0
  2  1  1  6
  1 39  1  0
  1 40  1  0
  1 41  1  0
  2  3  1  0
  2  4  1  0
  2 28  1  0
  3 42  1  0
  3 43  1  0
  3 44  1  0
  4  5  1  0
  4 27  1  0
  4 38  1  6
  5  6  1  1
  5 25  1  0
  5 27  1  0
  6  7  1  0
  6 24  2  0
  7  8  2  0
  7 45  1  0
  8  9  1  0
  8 46  1  0
  9 10  1  0
  9 23  2  0
 10 11  1  0
 10 17  1  0
 11 12  2  0
 11 16  1  0
 12 13  1  0
 12 47  1  0
 13 14  2  0
 13 48  1  0
 14 15  1  0
 14 49  1  0
 15 16  2  0
 15 50  1  0
 16 51  1  0
 17 18  2  0
 17 22  1  0
 18 19  1  0
 18 52  1  0
 19 20  2  0
 19 53  1  0
 20 21  1  0
 20 54  1  0
 21 22  2  0
 21 55  1  0
 22 56  1  0
 23 24  1  0
 23 57  1  0
 24 28  1  0
 25 26  2  0
 25 27  1  0
 25 33  1  1
 27 32  1  1
 28 29  1  0
 28 58  1  6
 29 30  2  0
 29 59  1  0
 30 31  1  0
 30 60  1  0
 31 32  2  0
 31 61  1  0
 32 62  1  0
 33 34  2  0
 33 38  1  0
 34 35  1  0
 34 63  1  0
 35 36  2  0
 35 64  1  0
 36 37  1  0
 36 65  1  0
 37 38  2  0
 37 66  1  0
M  END

