
     RDKit          3D

 66 68  0  0  0  0  0  0  0  0999 V2000
    3.1313    0.4490   -2.0489 C   0  0  0  0  0  0  0  0  0  0  0  0
    3.6072   -0.0915   -0.6998 C   0  0  0  0  0  0  0  0  0  0  0  0
    4.2884   -1.4596   -0.7998 C   0  0  0  0  0  0  0  0  0  0  0  0
    4.7455   -1.9957    0.5611 C   0  0  0  0  0  0  0  0  0  0  0  0
    5.4238   -3.2888    0.4787 N   0  0  0  0  0  0  0  0  0  0  0  0
    4.7222   -4.4372    0.6987 C   0  0  0  0  0  0  0  0  0  0  0  0
    3.5378   -4.4685    0.9930 O   0  0  0  0  0  0  0  0  0  0  0  0
    5.5333   -5.7263    0.5833 C   0  0  0  0  0  0  0  0  0  0  0  0
    6.5775   -5.6780   -0.4320 N   0  0  0  0  0  0  0  0  0  0  0  0
    7.0623   -6.8767   -1.1658 C   0  0  1  0  0  0  0  0  0  0  0  0
    6.7317   -8.2266   -0.4936 C   0  0  0  0  0  0  0  0  0  0  0  0
    5.3439   -8.8225   -0.7988 C   0  0  0  0  0  0  0  0  0  0  0  0
    4.9945   -8.7634   -2.2914 C   0  0  0  0  0  0  0  0  0  0  0  0
    5.1763   -7.3459   -2.8480 C   0  0  0  0  0  0  0  0  0  0  0  0
    6.6156   -6.8643   -2.6427 C   0  0  0  0  0  0  0  0  0  0  0  0
    7.2937   -4.5299   -0.6019 C   0  0  0  0  0  0  0  0  0  0  0  0
    8.2493   -4.4325   -1.3587 O   0  0  0  0  0  0  0  0  0  0  0  0
    6.8619   -3.3202    0.2485 C   0  0  2  0  0  0  0  0  0  0  0  0
    7.1155   -2.4593   -0.3872 H   0  0  0  0  0  0  0  0  0  0  0  0
    7.7095   -3.2359    1.5280 C   0  0  0  0  0  0  0  0  0  0  0  0
    9.0970   -3.1261    1.4311 C   0  0  0  0  0  0  0  0  0  0  0  0
    9.8875   -3.0467    2.5854 C   0  0  0  0  0  0  0  0  0  0  0  0
    9.3116   -3.0754    3.8588 C   0  0  0  0  0  0  0  0  0  0  0  0
    9.9802   -3.0231    5.0349 O   0  0  0  0  0  0  0  0  0  0  0  0
   11.4007   -2.8532    5.0828 C   0  0  1  0  0  0  0  0  0  0  0  0
   11.7794   -1.3879    4.8713 C   0  0  0  0  0  0  0  0  0  0  0  0
   11.8389   -3.3829    6.4423 C   0  0  0  0  0  0  0  0  0  0  0  0
    7.8968   -3.1825    3.9630 C   0  0  0  0  0  0  0  0  0  0  0  0
    7.4005   -3.2007    5.2244 O   0  0  0  0  0  0  0  0  0  0  0  0
    6.0094   -3.3034    5.4136 C   0  0  0  0  0  0  0  0  0  0  0  0
    7.1191   -3.2630    2.8046 C   0  0  0  0  0  0  0  0  0  0  0  0
    2.6461    1.4321   -1.9416 H   0  0  0  0  0  0  0  0  0  0  0  0
    2.4028   -0.2329   -2.5183 H   0  0  0  0  0  0  0  0  0  0  0  0
    3.9722    0.5675   -2.7526 H   0  0  0  0  0  0  0  0  0  0  0  0
    2.7489   -0.1640   -0.0075 H   0  0  0  0  0  0  0  0  0  0  0  0
    4.3051    0.6313   -0.2384 H   0  0  0  0  0  0  0  0  0  0  0  0
    5.1550   -1.3913   -1.4825 H   0  0  0  0  0  0  0  0  0  0  0  0
    3.5941   -2.1909   -1.2484 H   0  0  0  0  0  0  0  0  0  0  0  0
    3.8740   -2.1291    1.2184 H   0  0  0  0  0  0  0  0  0  0  0  0
    5.4286   -1.2798    1.0480 H   0  0  0  0  0  0  0  0  0  0  0  0
    4.8040   -6.5038    0.3446 H   0  0  0  0  0  0  0  0  0  0  0  0
    5.9429   -5.9599    1.5857 H   0  0  0  0  0  0  0  0  0  0  0  0
    8.1559   -6.7611   -1.1640 H   0  0  0  0  0  0  0  0  0  0  0  0
    6.9017   -8.1671    0.5941 H   0  0  0  0  0  0  0  0  0  0  0  0
    7.4898   -8.9346   -0.8709 H   0  0  0  0  0  0  0  0  0  0  0  0
    4.5566   -8.2983   -0.2312 H   0  0  0  0  0  0  0  0  0  0  0  0
    5.3176   -9.8653   -0.4403 H   0  0  0  0  0  0  0  0  0  0  0  0
    3.9628   -9.1186   -2.4507 H   0  0  0  0  0  0  0  0  0  0  0  0
    5.6514   -9.4547   -2.8516 H   0  0  0  0  0  0  0  0  0  0  0  0
    4.4723   -6.6550   -2.3483 H   0  0  0  0  0  0  0  0  0  0  0  0
    4.9211   -7.3184   -3.9204 H   0  0  0  0  0  0  0  0  0  0  0  0
    6.7756   -5.8570   -3.0538 H   0  0  0  0  0  0  0  0  0  0  0  0
    7.2971   -7.5334   -3.1993 H   0  0  0  0  0  0  0  0  0  0  0  0
    9.5716   -3.1152    0.4480 H   0  0  0  0  0  0  0  0  0  0  0  0
   10.9685   -2.9604    2.4754 H   0  0  0  0  0  0  0  0  0  0  0  0
   11.8654   -3.4754    4.2957 H   0  0  0  0  0  0  0  0  0  0  0  0
   11.3320   -0.7645    5.6616 H   0  0  0  0  0  0  0  0  0  0  0  0
   11.4263   -1.0124    3.8995 H   0  0  0  0  0  0  0  0  0  0  0  0
   12.8733   -1.2636    4.9076 H   0  0  0  0  0  0  0  0  0  0  0  0
   11.3600   -2.8062    7.2492 H   0  0  0  0  0  0  0  0  0  0  0  0
   12.9311   -3.3031    6.5548 H   0  0  0  0  0  0  0  0  0  0  0  0
   11.5494   -4.4380    6.5571 H   0  0  0  0  0  0  0  0  0  0  0  0
    5.8404   -3.3005    6.4990 H   0  0  0  0  0  0  0  0  0  0  0  0
    5.6011   -4.2400    4.9915 H   0  0  0  0  0  0  0  0  0  0  0  0
    5.4662   -2.4509    4.9658 H   0  0  0  0  0  0  0  0  0  0  0  0
    6.0361   -3.3373    2.8910 H   0  0  0  0  0  0  0  0  0  0  0  0
  1  2  1  0
  1 32  1  0
  1 33  1  0
  1 34  1  0
  2  3  1  0
  2 35  1  0
  2 36  1  0
  3  4  1  0
  3 37  1  0
  3 38  1  0
  4  5  1  0
  4 39  1  0
  4 40  1  0
  5  6  1  0
  5 18  1  0
  6  7  2  0
  6  8  1  0
  8  9  1  0
  8 41  1  0
  8 42  1  0
  9 10  1  0
  9 16  1  0
 10 11  1  0
 10 15  1  0
 10 43  1  6
 11 12  1  0
 11 44  1  0
 11 45  1  0
 12 13  1  0
 12 46  1  0
 12 47  1  0
 13 14  1  0
 13 48  1  0
 13 49  1  0
 14 15  1  0
 14 50  1  0
 14 51  1  0
 15 52  1  0
 15 53  1  0
 16 17  2  0
 16 18  1  0
 18 19  1  6
 18 20  1  0
 20 21  2  0
 20 31  1  0
 21 22  1  0
 21 54  1  0
 22 23  2  0
 22 55  1  0
 23 24  1  0
 23 28  1  0
 24 25  1  0
 25 26  1  0
 25 27  1  0
 25 56  1  6
 26 57  1  0
 26 58  1  0
 26 59  1  0
 27 60  1  0
 27 61  1  0
 27 62  1  0
 28 29  1  0
 28 31  2  0
 29 30  1  0
 30 63  1  0
 30 64  1  0
 30 65  1  0
 31 66  1  0
M  END

