
     RDKit          3D

 41 44  0  0  0  0  0  0  0  0999 V2000
    1.4279    1.5376    1.2875 C   0  0  0  0  0  0  0  0  0  0  0  0
    2.4789    1.8419    0.2375 C   0  0  0  0  0  0  0  0  0  0  0  0
    3.7339    1.3938    0.7282 O   0  0  0  0  0  0  0  0  0  0  0  0
    4.8494    1.5517   -0.0228 C   0  0  0  0  0  0  0  0  0  0  0  0
    6.0489    1.0831    0.5443 C   0  0  0  0  0  0  0  0  0  0  0  0
    7.2472    1.2031   -0.1478 C   0  0  0  0  0  0  0  0  0  0  0  0
    7.2706    1.7879   -1.4198 C   0  0  0  0  0  0  0  0  0  0  0  0
    8.5186    1.9125   -2.1379 N   0  0  0  0  0  0  0  0  0  0  0  0
    9.0171    0.7565   -2.7758 C   0  0  0  0  0  0  0  0  0  0  0  0
    8.4181   -0.2967   -2.7230 O   0  0  0  0  0  0  0  0  0  0  0  0
   10.3077    0.9036   -3.5085 C   0  0  0  0  0  0  0  0  0  0  0  0
   10.8492   -0.1952   -4.1578 C   0  0  0  0  0  0  0  0  0  0  0  0
   12.0711   -0.0857   -4.8596 C   0  0  0  0  0  0  0  0  0  0  0  0
   12.7444    1.1196   -4.9084 C   0  0  0  0  0  0  0  0  0  0  0  0
   12.2188    2.2687   -4.2542 C   0  0  0  0  0  0  0  0  0  0  0  0
   12.8733    3.5260   -4.2764 C   0  0  0  0  0  0  0  0  0  0  0  0
   12.3049    4.5985   -3.6195 C   0  0  0  0  0  0  0  0  0  0  0  0
   13.0033    5.9044   -3.6545 N   0  0  0  0  0  0  0  0  0  0  0  0
   14.0570    5.9629   -4.2669 O   0  0  0  0  0  0  0  0  0  0  0  0
   12.4781    6.8349   -3.0684 O   0  0  0  0  0  0  0  0  0  0  0  0
   11.0868    4.5011   -2.9179 C   0  0  0  0  0  0  0  0  0  0  0  0
   10.4316    3.2834   -2.8836 C   0  0  0  0  0  0  0  0  0  0  0  0
   10.9800    2.1517   -3.5452 C   0  0  0  0  0  0  0  0  0  0  0  0
    9.1405    3.1785   -2.1406 C   0  0  0  0  0  0  0  0  0  0  0  0
    8.6456    4.1253   -1.5682 O   0  0  0  0  0  0  0  0  0  0  0  0
    6.0855    2.2509   -1.9868 C   0  0  0  0  0  0  0  0  0  0  0  0
    4.8744    2.1397   -1.2976 C   0  0  0  0  0  0  0  0  0  0  0  0
    0.4372    1.8715    0.9421 H   0  0  0  0  0  0  0  0  0  0  0  0
    1.6606    2.0538    2.2314 H   0  0  0  0  0  0  0  0  0  0  0  0
    1.3811    0.4565    1.4889 H   0  0  0  0  0  0  0  0  0  0  0  0
    2.5217    2.9275    0.0282 H   0  0  0  0  0  0  0  0  0  0  0  0
    2.2419    1.3304   -0.7146 H   0  0  0  0  0  0  0  0  0  0  0  0
    6.0107    0.6282    1.5358 H   0  0  0  0  0  0  0  0  0  0  0  0
    8.1750    0.8386    0.2979 H   0  0  0  0  0  0  0  0  0  0  0  0
   10.3075   -1.1421   -4.1110 H   0  0  0  0  0  0  0  0  0  0  0  0
   12.4819   -0.9625   -5.3649 H   0  0  0  0  0  0  0  0  0  0  0  0
   13.6896    1.2062   -5.4502 H   0  0  0  0  0  0  0  0  0  0  0  0
   13.8182    3.6611   -4.8033 H   0  0  0  0  0  0  0  0  0  0  0  0
   10.6658    5.3683   -2.4103 H   0  0  0  0  0  0  0  0  0  0  0  0
    6.1032    2.7094   -2.9777 H   0  0  0  0  0  0  0  0  0  0  0  0
    3.9634    2.5138   -1.7636 H   0  0  0  0  0  0  0  0  0  0  0  0
  1  2  1  0
  1 28  1  0
  1 29  1  0
  1 30  1  0
  2  3  1  0
  2 31  1  0
  2 32  1  0
  3  4  1  0
  4  5  2  0
  4 27  1  0
  5  6  1  0
  5 33  1  0
  6  7  2  0
  6 34  1  0
  7  8  1  0
  7 26  1  0
  8  9  1  0
  8 24  1  0
  9 10  2  0
  9 11  1  0
 11 12  2  0
 11 23  1  0
 12 13  1  0
 12 35  1  0
 13 14  2  0
 13 36  1  0
 14 15  1  0
 14 37  1  0
 15 16  1  0
 15 23  2  0
 16 17  2  0
 16 38  1  0
 17 18  1  0
 17 21  1  0
 18 19  2  0
 18 20  1  0
 21 22  2  0
 21 39  1  0
 22 23  1  0
 22 24  1  0
 24 25  2  0
 26 27  2  0
 26 40  1  0
 27 41  1  0
M  CHG  2  18   1  20  -1
M  END

