
     RDKit          3D

 50 51  0  0  0  0  0  0  0  0999 V2000
    3.2194   -2.5577    1.3600 C   0  0  0  0  0  0  0  0  0  0  0  0
    3.3358   -1.0853    0.9666 C   0  0  0  0  0  0  0  0  0  0  0  0
    4.4153   -0.3335    1.7452 C   0  0  0  0  0  0  0  0  0  0  0  0
    4.5227    1.0479    1.2991 N   0  0  0  0  0  0  0  0  0  0  0  0
    5.4208    1.9092    2.0716 C   0  0  1  0  0  0  0  0  0  0  0  0
    6.8976    1.5053    1.8894 C   0  0  0  0  0  0  0  0  0  0  0  0
    7.3954    1.7154    0.4544 C   0  0  0  0  0  0  0  0  0  0  0  0
    7.1791    3.1637   -0.0029 C   0  0  0  0  0  0  0  0  0  0  0  0
    5.7148    3.5899    0.1560 C   0  0  0  0  0  0  0  0  0  0  0  0
    5.1996    3.3683    1.5986 C   0  0  2  0  0  0  0  0  0  0  0  0
    5.7706    4.3646    2.5656 C   0  0  0  0  0  0  0  0  0  0  0  0
    6.2809    4.1835    3.7479 N   0  0  0  0  0  0  0  0  0  0  0  0
    6.5796    5.4631    4.1567 C   0  0  0  0  0  0  0  0  0  0  0  0
    7.2687    5.7908    5.4621 C   0  0  1  0  0  0  0  0  0  0  0  0
    6.6996    4.9968    6.6383 C   0  0  0  0  0  0  0  0  0  0  0  0
    5.2319    5.2938    6.9417 C   0  0  0  0  0  0  0  0  0  0  0  0
    8.6494    5.4873    5.3713 O   0  0  0  0  0  0  0  0  0  0  0  0
    9.4384    6.4284    4.6659 C   0  0  0  0  0  0  0  0  0  0  0  0
   10.8706    5.9286    4.6340 C   0  0  0  0  0  0  0  0  0  0  0  0
    6.2724    6.3857    3.2806 N   0  0  0  0  0  0  0  0  0  0  0  0
    5.7345    5.6627    2.2193 O   0  0  0  0  0  0  0  0  0  0  0  0
    2.4291   -3.0652    0.7848 H   0  0  0  0  0  0  0  0  0  0  0  0
    2.9773   -2.6726    2.4298 H   0  0  0  0  0  0  0  0  0  0  0  0
    4.1628   -3.0981    1.1753 H   0  0  0  0  0  0  0  0  0  0  0  0
    2.3621   -0.5841    1.1246 H   0  0  0  0  0  0  0  0  0  0  0  0
    3.5554   -0.9919   -0.1107 H   0  0  0  0  0  0  0  0  0  0  0  0
    5.3828   -0.8403    1.5875 H   0  0  0  0  0  0  0  0  0  0  0  0
    4.2055   -0.4131    2.8380 H   0  0  0  0  0  0  0  0  0  0  0  0
    3.5900    1.4614    1.2949 H   0  0  0  0  0  0  0  0  0  0  0  0
    5.1925    1.8632    3.1572 H   0  0  0  0  0  0  0  0  0  0  0  0
    7.0366    0.4569    2.1978 H   0  0  0  0  0  0  0  0  0  0  0  0
    7.4975    2.1067    2.5911 H   0  0  0  0  0  0  0  0  0  0  0  0
    6.8523    1.0358   -0.2239 H   0  0  0  0  0  0  0  0  0  0  0  0
    8.4635    1.4496    0.3853 H   0  0  0  0  0  0  0  0  0  0  0  0
    7.4871    3.2877   -1.0546 H   0  0  0  0  0  0  0  0  0  0  0  0
    7.8277    3.8376    0.5874 H   0  0  0  0  0  0  0  0  0  0  0  0
    5.0838    2.9848   -0.5125 H   0  0  0  0  0  0  0  0  0  0  0  0
    5.5781    4.6448   -0.1280 H   0  0  0  0  0  0  0  0  0  0  0  0
    4.1094    3.5639    1.5992 H   0  0  0  0  0  0  0  0  0  0  0  0
    7.1291    6.8759    5.6355 H   0  0  0  0  0  0  0  0  0  0  0  0
    7.3310    5.2289    7.5110 H   0  0  0  0  0  0  0  0  0  0  0  0
    6.8399    3.9266    6.4179 H   0  0  0  0  0  0  0  0  0  0  0  0
    5.0686    6.3624    7.1602 H   0  0  0  0  0  0  0  0  0  0  0  0
    4.8925    4.7208    7.8185 H   0  0  0  0  0  0  0  0  0  0  0  0
    4.5771    5.0207    6.0986 H   0  0  0  0  0  0  0  0  0  0  0  0
    9.3803    7.4176    5.1662 H   0  0  0  0  0  0  0  0  0  0  0  0
    9.0535    6.5722    3.6376 H   0  0  0  0  0  0  0  0  0  0  0  0
   11.2576    5.7938    5.6559 H   0  0  0  0  0  0  0  0  0  0  0  0
   11.5177    6.6470    4.1067 H   0  0  0  0  0  0  0  0  0  0  0  0
   10.9305    4.9590    4.1159 H   0  0  0  0  0  0  0  0  0  0  0  0
  1  2  1  0
  1 22  1  0
  1 23  1  0
  1 24  1  0
  2  3  1  0
  2 25  1  0
  2 26  1  0
  3  4  1  0
  3 27  1  0
  3 28  1  0
  4  5  1  0
  4 29  1  0
  5  6  1  0
  5 10  1  0
  5 30  1  1
  6  7  1  0
  6 31  1  0
  6 32  1  0
  7  8  1  0
  7 33  1  0
  7 34  1  0
  8  9  1  0
  8 35  1  0
  8 36  1  0
  9 10  1  0
  9 37  1  0
  9 38  1  0
 10 11  1  0
 10 39  1  6
 11 12  2  0
 11 21  1  0
 12 13  1  0
 13 14  1  0
 13 20  2  0
 14 15  1  0
 14 17  1  0
 14 40  1  1
 15 16  1  0
 15 41  1  0
 15 42  1  0
 16 43  1  0
 16 44  1  0
 16 45  1  0
 17 18  1  0
 18 19  1  0
 18 46  1  0
 18 47  1  0
 19 48  1  0
 19 49  1  0
 19 50  1  0
 20 21  1  0
M  END

