
     RDKit          3D

 43 47  0  0  0  0  0  0  0  0999 V2000
   -1.2520   -0.8883    0.8714 C   0  0  0  0  0  0  0  0  0  0  0  0
   -1.6188   -2.0168    0.1865 C   0  0  0  0  0  0  0  0  0  0  0  0
   -0.5312   -2.7423   -0.1532 O   0  0  0  0  0  0  0  0  0  0  0  0
    0.5641   -2.0807    0.3142 C   0  0  0  0  0  0  0  0  0  0  0  0
    1.8872   -2.6547    0.0804 C   0  0  0  0  0  0  0  0  0  0  0  0
    1.9374   -3.8126   -0.6350 N   0  0  0  0  0  0  0  0  0  0  0  0
    3.1041   -4.3629   -0.8585 C   0  0  0  0  0  0  0  0  0  0  0  0
    3.2086   -5.8761   -1.7843 S   0  0  0  0  0  0  0  0  0  0  0  0
    1.4522   -6.1504   -2.2690 C   0  0  0  0  0  0  0  0  0  0  0  0
    0.8386   -7.3525   -1.6262 C   0  0  0  0  0  0  0  0  0  0  0  0
    0.5912   -8.4161   -2.3621 N   0  0  0  0  0  0  0  0  0  0  0  0
    0.0043   -9.3426   -1.5175 O   0  0  0  0  0  0  0  0  0  0  0  0
   -0.0874   -8.8154   -0.2845 C   0  0  0  0  0  0  0  0  0  0  0  0
    0.4280   -7.5513   -0.2667 C   0  0  0  0  0  0  0  0  0  0  0  0
    0.4621   -6.6978    0.9683 C   0  0  0  0  0  0  0  0  0  0  0  0
    0.1678   -7.5649    2.2096 C   0  0  0  0  0  0  0  0  0  0  0  0
   -0.9913   -8.5519    1.9866 C   0  0  0  0  0  0  0  0  0  0  0  0
   -0.6896   -9.5595    0.8579 C   0  0  0  0  0  0  0  0  0  0  0  0
    4.3230   -3.7718   -0.3693 C   0  0  0  0  0  0  0  0  0  0  0  0
    5.6241   -4.2966   -0.5665 C   0  0  0  0  0  0  0  0  0  0  0  0
    6.7248   -3.6391   -0.0506 C   0  0  0  0  0  0  0  0  0  0  0  0
    6.5600   -2.4355    0.6783 C   0  0  0  0  0  0  0  0  0  0  0  0
    5.3039   -1.9022    0.8835 C   0  0  0  0  0  0  0  0  0  0  0  0
    4.1516   -2.5552    0.3657 C   0  0  0  0  0  0  0  0  0  0  0  0
    2.9244   -2.0132    0.5812 N   0  0  0  0  0  0  0  0  0  0  0  0
    0.1717   -0.9292    0.9567 C   0  0  0  0  0  0  0  0  0  0  0  0
   -1.9188   -0.1237    1.2644 H   0  0  0  0  0  0  0  0  0  0  0  0
   -2.5796   -2.4207   -0.1228 H   0  0  0  0  0  0  0  0  0  0  0  0
    1.4429   -6.2742   -3.3597 H   0  0  0  0  0  0  0  0  0  0  0  0
    0.9270   -5.2265   -1.9841 H   0  0  0  0  0  0  0  0  0  0  0  0
   -0.2746   -5.8787    0.8824 H   0  0  0  0  0  0  0  0  0  0  0  0
    1.4403   -6.2027    1.0736 H   0  0  0  0  0  0  0  0  0  0  0  0
   -0.0533   -6.9163    3.0723 H   0  0  0  0  0  0  0  0  0  0  0  0
    1.0759   -8.1364    2.4739 H   0  0  0  0  0  0  0  0  0  0  0  0
   -1.9045   -7.9865    1.7290 H   0  0  0  0  0  0  0  0  0  0  0  0
   -1.2120   -9.0960    2.9185 H   0  0  0  0  0  0  0  0  0  0  0  0
   -1.6018  -10.0889    0.5365 H   0  0  0  0  0  0  0  0  0  0  0  0
    0.0126  -10.3380    1.2090 H   0  0  0  0  0  0  0  0  0  0  0  0
    5.7533   -5.2232   -1.1302 H   0  0  0  0  0  0  0  0  0  0  0  0
    7.7264   -4.0468   -0.2055 H   0  0  0  0  0  0  0  0  0  0  0  0
    7.4396   -1.9260    1.0802 H   0  0  0  0  0  0  0  0  0  0  0  0
    5.1521   -0.9762    1.4409 H   0  0  0  0  0  0  0  0  0  0  0  0
    0.8427   -0.2134    1.4240 H   0  0  0  0  0  0  0  0  0  0  0  0
  1  2  2  0
  1 26  1  0
  1 27  1  0
  2  3  1  0
  2 28  1  0
  3  4  1  0
  4  5  1  0
  4 26  2  0
  5  6  2  0
  5 25  1  0
  6  7  1  0
  7  8  1  0
  7 19  2  0
  8  9  1  0
  9 10  1  0
  9 29  1  0
  9 30  1  0
 10 11  2  0
 10 14  1  0
 11 12  1  0
 12 13  1  0
 13 14  2  0
 13 18  1  0
 14 15  1  0
 15 16  1  0
 15 31  1  0
 15 32  1  0
 16 17  1  0
 16 33  1  0
 16 34  1  0
 17 18  1  0
 17 35  1  0
 17 36  1  0
 18 37  1  0
 18 38  1  0
 19 20  1  0
 19 24  1  0
 20 21  2  0
 20 39  1  0
 21 22  1  0
 21 40  1  0
 22 23  2  0
 22 41  1  0
 23 24  1  0
 23 42  1  0
 24 25  2  0
 26 43  1  0
M  END

