
     RDKit          3D

 44 45  0  0  0  0  0  0  0  0999 V2000
    1.6778   -1.8662   -2.5287 N   0  0  0  0  0  0  0  0  0  0  0  0
    2.9743   -1.5060   -1.9392 C   0  0  1  0  0  0  0  0  0  0  0  0
    3.2338   -0.4963   -2.3010 H   0  0  0  0  0  0  0  0  0  0  0  0
    3.0457   -1.4447   -0.4018 C   0  0  0  0  0  0  0  0  0  0  0  0
    2.4933   -2.6375    0.3681 C   0  0  0  0  0  0  0  0  0  0  0  0
    2.5146   -3.9207   -0.2030 C   0  0  0  0  0  0  0  0  0  0  0  0
    2.0659   -5.0375    0.5020 C   0  0  0  0  0  0  0  0  0  0  0  0
    1.5786   -4.8839    1.7961 C   0  0  0  0  0  0  0  0  0  0  0  0
    1.5287   -3.6154    2.3974 C   0  0  0  0  0  0  0  0  0  0  0  0
    0.9858   -3.5321    3.7916 C   0  0  0  0  0  0  0  0  0  0  0  0
    1.6972   -4.0998    4.8626 C   0  0  0  0  0  0  0  0  0  0  0  0
    1.1840   -4.0649    6.1629 C   0  0  0  0  0  0  0  0  0  0  0  0
   -0.0532   -3.4663    6.4139 C   0  0  0  0  0  0  0  0  0  0  0  0
   -0.7757   -2.9056    5.3561 C   0  0  0  0  0  0  0  0  0  0  0  0
   -0.2617   -2.9397    4.0577 C   0  0  0  0  0  0  0  0  0  0  0  0
    1.9922   -2.4788    1.6888 C   0  0  0  0  0  0  0  0  0  0  0  0
    2.0151   -1.1204    2.3681 C   0  0  0  0  0  0  0  0  0  0  0  0
    3.4009   -0.7534    2.9352 C   0  0  0  0  0  0  0  0  0  0  0  0
    3.4315    0.8958    3.6757 P   0  0  1  0  0  0  0  0  0  0  0  0
    2.4847    1.2215    4.7779 O   0  0  0  0  0  0  0  0  0  0  0  0
    4.9994    1.0619    4.0893 O   0  0  0  0  0  0  0  0  0  0  0  0
    3.2436    1.8376    2.3527 O   0  0  0  0  0  0  0  0  0  0  0  0
    4.0910   -2.3918   -2.5475 C   0  0  0  0  0  0  0  0  0  0  0  0
    5.2238   -2.3881   -2.1413 O   0  0  0  0  0  0  0  0  0  0  0  0
    3.6730   -3.1186   -3.5849 O   0  0  0  0  0  0  0  0  0  0  0  0
    1.1097   -1.0466   -2.7336 H   0  0  0  0  0  0  0  0  0  0  0  0
    1.1380   -2.4626   -1.8997 H   0  0  0  0  0  0  0  0  0  0  0  0
    2.5387   -0.5247   -0.0785 H   0  0  0  0  0  0  0  0  0  0  0  0
    4.1120   -1.3071   -0.1523 H   0  0  0  0  0  0  0  0  0  0  0  0
    2.8911   -4.0675   -1.2163 H   0  0  0  0  0  0  0  0  0  0  0  0
    2.0987   -6.0259    0.0371 H   0  0  0  0  0  0  0  0  0  0  0  0
    1.2172   -5.7502    2.3553 H   0  0  0  0  0  0  0  0  0  0  0  0
    2.6655   -4.5699    4.6714 H   0  0  0  0  0  0  0  0  0  0  0  0
    1.7556   -4.5073    6.9830 H   0  0  0  0  0  0  0  0  0  0  0  0
   -0.4545   -3.4370    7.4300 H   0  0  0  0  0  0  0  0  0  0  0  0
   -1.7475   -2.4412    5.5421 H   0  0  0  0  0  0  0  0  0  0  0  0
   -0.8380   -2.5098    3.2342 H   0  0  0  0  0  0  0  0  0  0  0  0
    1.2966   -1.0952    3.1963 H   0  0  0  0  0  0  0  0  0  0  0  0
    1.7009   -0.3326    1.6670 H   0  0  0  0  0  0  0  0  0  0  0  0
    4.1871   -0.7809    2.1646 H   0  0  0  0  0  0  0  0  0  0  0  0
    3.6986   -1.4614    3.7250 H   0  0  0  0  0  0  0  0  0  0  0  0
    5.0701    1.5098    4.9461 H   0  0  0  0  0  0  0  0  0  0  0  0
    2.8071    2.6690    2.5937 H   0  0  0  0  0  0  0  0  0  0  0  0
    2.7100   -2.8936   -3.6627 H   0  0  0  0  0  0  0  0  0  0  0  0
  1  2  1  0
  1 26  1  0
  1 27  1  0
  2  3  1  6
  2  4  1  0
  2 23  1  0
  4  5  1  0
  4 28  1  0
  4 29  1  0
  5  6  2  0
  5 16  1  0
  6  7  1  0
  6 30  1  0
  7  8  2  0
  7 31  1  0
  8  9  1  0
  8 32  1  0
  9 10  1  0
  9 16  2  0
 10 11  2  0
 10 15  1  0
 11 12  1  0
 11 33  1  0
 12 13  2  0
 12 34  1  0
 13 14  1  0
 13 35  1  0
 14 15  2  0
 14 36  1  0
 15 37  1  0
 16 17  1  0
 17 18  1  0
 17 38  1  0
 17 39  1  0
 18 19  1  0
 18 40  1  0
 18 41  1  0
 19 20  2  0
 19 21  1  1
 19 22  1  0
 21 42  1  0
 22 43  1  0
 23 24  2  0
 23 25  1  0
 25 44  1  0
M  END

