
     RDKit          3D

 32 32  0  0  0  0  0  0  0  0999 V2000
    6.4271   -2.3231    1.9171 C   0  0  0  0  0  0  0  0  0  0  0  0
    5.2233   -1.5798    1.3719 C   0  0  0  0  0  0  0  0  0  0  0  0
    5.3942   -0.1923    1.6008 O   0  0  0  0  0  0  0  0  0  0  0  0
    4.3454    0.6159    1.1425 C   0  0  0  0  0  0  0  0  0  0  0  0
    4.6117    2.0948    1.4230 C   0  0  0  0  0  0  0  0  0  0  0  0
    3.7975    2.9389    1.0918 O   0  0  0  0  0  0  0  0  0  0  0  0
    5.8022    2.3312    2.0511 N   0  0  0  0  0  0  0  0  0  0  0  0
    6.3624    3.5480    2.4548 C   0  0  0  0  0  0  0  0  0  0  0  0
    5.7312    4.7854    2.2552 C   0  0  0  0  0  0  0  0  0  0  0  0
    6.3822    5.9470    2.6995 C   0  0  0  0  0  0  0  0  0  0  0  0
    5.8092    7.2890    2.5393 C   0  0  0  0  0  0  0  0  0  0  0  0
    4.6332    7.6084    1.9686 C   0  0  0  0  0  0  0  0  0  0  0  0
    4.2033    9.0353    1.8903 C   0  0  0  0  0  0  0  0  0  0  0  0
    4.8469    9.9625    2.3093 O   0  0  0  0  0  0  0  0  0  0  0  0
    3.0029    9.2473    1.3004 O   0  0  0  0  0  0  0  0  0  0  0  0
    7.6358    5.8039    3.3228 C   0  0  0  0  0  0  0  0  0  0  0  0
    8.1700    4.5231    3.4689 C   0  0  0  0  0  0  0  0  0  0  0  0
    7.5561    3.4184    3.0487 N   0  0  0  0  0  0  0  0  0  0  0  0
    6.3164   -3.4056    1.7499 H   0  0  0  0  0  0  0  0  0  0  0  0
    6.5354   -2.1479    2.9986 H   0  0  0  0  0  0  0  0  0  0  0  0
    7.3498   -1.9873    1.4191 H   0  0  0  0  0  0  0  0  0  0  0  0
    4.2916   -1.9284    1.8625 H   0  0  0  0  0  0  0  0  0  0  0  0
    5.1045   -1.7684    0.2853 H   0  0  0  0  0  0  0  0  0  0  0  0
    3.3808    0.3614    1.6266 H   0  0  0  0  0  0  0  0  0  0  0  0
    4.1893    0.5152    0.0492 H   0  0  0  0  0  0  0  0  0  0  0  0
    6.3693    1.5116    2.2597 H   0  0  0  0  0  0  0  0  0  0  0  0
    4.7611    4.8063    1.7646 H   0  0  0  0  0  0  0  0  0  0  0  0
    6.4027    8.1246    2.9261 H   0  0  0  0  0  0  0  0  0  0  0  0
    3.9761    6.8363    1.5551 H   0  0  0  0  0  0  0  0  0  0  0  0
    2.6076    8.4108    1.0179 H   0  0  0  0  0  0  0  0  0  0  0  0
    8.1820    6.6772    3.6857 H   0  0  0  0  0  0  0  0  0  0  0  0
    9.1447    4.3837    3.9506 H   0  0  0  0  0  0  0  0  0  0  0  0
  1  2  1  0
  1 19  1  0
  1 20  1  0
  1 21  1  0
  2  3  1  0
  2 22  1  0
  2 23  1  0
  3  4  1  0
  4  5  1  0
  4 24  1  0
  4 25  1  0
  5  6  2  0
  5  7  1  0
  7  8  1  0
  7 26  1  0
  8  9  2  0
  8 18  1  0
  9 10  1  0
  9 27  1  0
 10 11  1  0
 10 16  2  0
 11 12  2  0
 11 28  1  0
 12 13  1  0
 12 29  1  0
 13 14  2  0
 13 15  1  0
 15 30  1  0
 16 17  1  0
 16 31  1  0
 17 18  2  0
 17 32  1  0
M  END

