
     RDKit          3D

 82 83  0  0  0  0  0  0  0  0999 V2000
   -7.7920   -6.6856  -21.1424 C   0  0  0  0  0  0  0  0  0  0  0  0
   -8.2092   -7.5584  -20.1180 O   0  0  0  0  0  0  0  0  0  0  0  0
   -7.3244   -7.9237  -19.1548 C   0  0  0  0  0  0  0  0  0  0  0  0
   -7.8102   -8.7929  -18.1628 C   0  0  0  0  0  0  0  0  0  0  0  0
   -6.9755   -9.2189  -17.1344 C   0  0  0  0  0  0  0  0  0  0  0  0
   -5.6356   -8.7979  -17.0527 C   0  0  0  0  0  0  0  0  0  0  0  0
   -4.7182   -9.2969  -15.9593 C   0  0  0  0  0  0  0  0  0  0  0  0
   -3.9235  -10.5493  -16.3812 C   0  0  0  0  0  0  0  0  0  0  0  0
   -3.0100  -11.0240  -15.3522 N   0  0  0  0  0  0  0  0  0  0  0  0
   -1.7015  -10.6693  -15.3182 C   0  0  0  0  0  0  0  0  0  0  0  0
   -1.1556  -10.0223  -16.2019 O   0  0  0  0  0  0  0  0  0  0  0  0
   -0.9065  -11.1591  -14.0894 C   0  0  2  0  0  0  0  0  0  0  0  0
   -0.9519  -12.2641  -14.0543 H   0  0  0  0  0  0  0  0  0  0  0  0
   -1.4727  -10.6586  -12.7449 C   0  0  0  0  0  0  0  0  0  0  0  0
   -1.6592   -8.8400  -12.6022 S   0  0  0  0  0  0  0  0  0  0  0  0
    0.4682  -10.7602  -14.2951 N   0  0  0  0  0  0  0  0  0  0  0  0
    1.5058  -11.4193  -13.7038 C   0  0  0  0  0  0  0  0  0  0  0  0
    1.3346  -12.2598  -12.8369 O   0  0  0  0  0  0  0  0  0  0  0  0
    2.9168  -11.0082  -14.1961 C   0  0  2  0  0  0  0  0  0  0  0  0
    2.9124   -9.9135  -14.3225 H   0  0  0  0  0  0  0  0  0  0  0  0
    3.2992  -11.6501  -15.5535 C   0  0  0  0  0  0  0  0  0  0  0  0
    2.6118  -11.0889  -16.8145 C   0  0  1  0  0  0  0  0  0  0  0  0
    2.9341   -9.6097  -17.0701 C   0  0  0  0  0  0  0  0  0  0  0  0
    3.0065  -11.9412  -18.0289 C   0  0  0  0  0  0  0  0  0  0  0  0
    3.8863  -11.2735  -13.1419 N   0  0  0  0  0  0  0  0  0  0  0  0
    4.3651  -12.5006  -12.8085 C   0  0  0  0  0  0  0  0  0  0  0  0
    4.2517  -13.5151  -13.4820 O   0  0  0  0  0  0  0  0  0  0  0  0
    5.1575  -12.5449  -11.4791 C   0  0  2  0  0  0  0  0  0  0  0  0
    4.6111  -11.9770  -10.7085 H   0  0  0  0  0  0  0  0  0  0  0  0
    6.5952  -11.9756  -11.5902 C   0  0  0  0  0  0  0  0  0  0  0  0
    6.7218  -10.4721  -11.9120 C   0  0  0  0  0  0  0  0  0  0  0  0
    5.9343   -9.5930  -10.9523 C   0  0  0  0  0  0  0  0  0  0  0  0
    4.7659   -9.3222  -11.1108 O   0  0  0  0  0  0  0  0  0  0  0  0
    6.5788   -9.1384   -9.8661 O   0  0  0  0  0  0  0  0  0  0  0  0
    5.2025  -13.9372  -11.0828 N   0  0  0  0  0  0  0  0  0  0  0  0
    5.5067  -14.3309   -9.8216 C   0  0  0  0  0  0  0  0  0  0  0  0
    5.8218  -13.5422   -8.9394 O   0  0  0  0  0  0  0  0  0  0  0  0
    5.4174  -15.8392   -9.5640 C   0  0  0  0  0  0  0  0  0  0  0  0
    6.7132  -16.4278   -9.0679 C   0  0  0  0  0  0  0  0  0  0  0  0
    7.5348  -15.9798   -8.0601 C   0  0  0  0  0  0  0  0  0  0  0  0
    8.6797  -16.8107   -7.8602 C   0  0  0  0  0  0  0  0  0  0  0  0
    8.7171  -17.8833   -8.7149 C   0  0  0  0  0  0  0  0  0  0  0  0
    7.3509  -17.8868   -9.7771 S   0  0  0  0  0  0  0  0  0  0  0  0
   -5.1676   -7.9318  -18.0489 C   0  0  0  0  0  0  0  0  0  0  0  0
   -5.9910   -7.4918  -19.0916 C   0  0  0  0  0  0  0  0  0  0  0  0
   -8.6602   -6.5332  -21.7977 H   0  0  0  0  0  0  0  0  0  0  0  0
   -6.9659   -7.1140  -21.7388 H   0  0  0  0  0  0  0  0  0  0  0  0
   -7.4694   -5.7062  -20.7445 H   0  0  0  0  0  0  0  0  0  0  0  0
   -8.8518   -9.1154  -18.2210 H   0  0  0  0  0  0  0  0  0  0  0  0
   -7.3773   -9.8901  -16.3690 H   0  0  0  0  0  0  0  0  0  0  0  0
   -5.3050   -9.5310  -15.0545 H   0  0  0  0  0  0  0  0  0  0  0  0
   -3.9972   -8.5142  -15.6740 H   0  0  0  0  0  0  0  0  0  0  0  0
   -3.3174  -10.3227  -17.2689 H   0  0  0  0  0  0  0  0  0  0  0  0
   -4.6143  -11.3653  -16.6493 H   0  0  0  0  0  0  0  0  0  0  0  0
   -3.3967  -11.5266  -14.5623 H   0  0  0  0  0  0  0  0  0  0  0  0
   -0.8318  -11.0436  -11.9398 H   0  0  0  0  0  0  0  0  0  0  0  0
   -2.4824  -11.0625  -12.5719 H   0  0  0  0  0  0  0  0  0  0  0  0
   -0.3457   -8.5521  -12.7502 H   0  0  0  0  0  0  0  0  0  0  0  0
    0.6029  -10.1416  -15.0929 H   0  0  0  0  0  0  0  0  0  0  0  0
    3.1332  -12.7336  -15.4835 H   0  0  0  0  0  0  0  0  0  0  0  0
    4.3899  -11.5214  -15.6665 H   0  0  0  0  0  0  0  0  0  0  0  0
    1.5179  -11.1817  -16.6992 H   0  0  0  0  0  0  0  0  0  0  0  0
    4.0204   -9.4592  -17.1971 H   0  0  0  0  0  0  0  0  0  0  0  0
    2.6035   -8.9500  -16.2510 H   0  0  0  0  0  0  0  0  0  0  0  0
    2.4373   -9.2525  -17.9858 H   0  0  0  0  0  0  0  0  0  0  0  0
    4.0946  -11.8949  -18.2083 H   0  0  0  0  0  0  0  0  0  0  0  0
    2.5016  -11.5901  -18.9430 H   0  0  0  0  0  0  0  0  0  0  0  0
    2.7397  -12.9997  -17.8802 H   0  0  0  0  0  0  0  0  0  0  0  0
    3.9693  -10.5460  -12.4279 H   0  0  0  0  0  0  0  0  0  0  0  0
    7.1382  -12.5456  -12.3613 H   0  0  0  0  0  0  0  0  0  0  0  0
    7.0774  -12.1883  -10.6239 H   0  0  0  0  0  0  0  0  0  0  0  0
    6.3412  -10.2641  -12.9216 H   0  0  0  0  0  0  0  0  0  0  0  0
    7.7893  -10.1947  -11.8996 H   0  0  0  0  0  0  0  0  0  0  0  0
    7.4918   -9.4594   -9.8477 H   0  0  0  0  0  0  0  0  0  0  0  0
    4.9274  -14.5896  -11.8147 H   0  0  0  0  0  0  0  0  0  0  0  0
    5.0721  -16.3721  -10.4624 H   0  0  0  0  0  0  0  0  0  0  0  0
    4.6325  -15.9675   -8.7973 H   0  0  0  0  0  0  0  0  0  0  0  0
    7.3160  -15.0709   -7.4997 H   0  0  0  0  0  0  0  0  0  0  0  0
    9.4466  -16.6184   -7.1077 H   0  0  0  0  0  0  0  0  0  0  0  0
    9.4659  -18.6713   -8.7811 H   0  0  0  0  0  0  0  0  0  0  0  0
   -4.1316   -7.5814  -18.0129 H   0  0  0  0  0  0  0  0  0  0  0  0
   -5.5837   -6.8129  -19.8411 H   0  0  0  0  0  0  0  0  0  0  0  0
  1  2  1  0
  1 46  1  0
  1 47  1  0
  1 48  1  0
  2  3  1  0
  3  4  2  0
  3 45  1  0
  4  5  1  0
  4 49  1  0
  5  6  2  0
  5 50  1  0
  6  7  1  0
  6 44  1  0
  7  8  1  0
  7 51  1  0
  7 52  1  0
  8  9  1  0
  8 53  1  0
  8 54  1  0
  9 10  1  0
  9 55  1  0
 10 11  2  0
 10 12  1  0
 12 13  1  1
 12 14  1  0
 12 16  1  0
 14 15  1  0
 14 56  1  0
 14 57  1  0
 15 58  1  0
 16 17  1  0
 16 59  1  0
 17 18  2  0
 17 19  1  0
 19 20  1  6
 19 21  1  0
 19 25  1  0
 21 22  1  0
 21 60  1  0
 21 61  1  0
 22 23  1  0
 22 24  1  0
 22 62  1  1
 23 63  1  0
 23 64  1  0
 23 65  1  0
 24 66  1  0
 24 67  1  0
 24 68  1  0
 25 26  1  0
 25 69  1  0
 26 27  2  0
 26 28  1  0
 28 29  1  1
 28 30  1  0
 28 35  1  0
 30 31  1  0
 30 70  1  0
 30 71  1  0
 31 32  1  0
 31 72  1  0
 31 73  1  0
 32 33  2  0
 32 34  1  0
 34 74  1  0
 35 36  1  0
 35 75  1  0
 36 37  2  0
 36 38  1  0
 38 39  1  0
 38 76  1  0
 38 77  1  0
 39 40  2  0
 39 43  1  0
 40 41  1  0
 40 78  1  0
 41 42  2  0
 41 79  1  0
 42 43  1  0
 42 80  1  0
 44 45  2  0
 44 81  1  0
 45 82  1  0
M  END

