
     RDKit          3D

 42 43  0  0  0  0  0  0  0  0999 V2000
    7.0816    5.7966    0.6489 C   0  0  0  0  0  0  0  0  0  0  0  0
    7.7026    5.5045   -0.5751 O   0  0  0  0  0  0  0  0  0  0  0  0
    6.8260    5.5389   -1.6827 C   0  0  0  0  0  0  0  0  0  0  0  0
    7.6075    5.2559   -2.9568 C   0  0  0  0  0  0  0  0  0  0  0  0
    8.4390    3.9697   -2.8970 C   0  0  0  0  0  0  0  0  0  0  0  0
    7.6365    2.7683   -2.6727 N   0  0  0  0  0  0  0  0  0  0  0  0
    7.3430    2.1756   -1.4722 C   0  0  0  0  0  0  0  0  0  0  0  0
    6.4916    1.1930   -1.6283 N   0  0  0  0  0  0  0  0  0  0  0  0
    6.2091    1.1095   -2.9661 N   0  0  0  0  0  0  0  0  0  0  0  0
    6.8879    2.0554   -3.5745 C   0  0  0  0  0  0  0  0  0  0  0  0
    6.8748    2.3859   -5.3092 S   0  0  0  0  0  0  0  0  0  0  0  0
    5.0913    2.1618   -5.6003 C   0  0  0  0  0  0  0  0  0  0  0  0
    4.2261    3.3363   -5.1109 C   0  0  0  0  0  0  0  0  0  0  0  0
    4.7030    4.2700   -4.4808 O   0  0  0  0  0  0  0  0  0  0  0  0
    2.8938    3.2692   -5.4197 N   0  0  0  0  0  0  0  0  0  0  0  0
    2.2667    2.1826   -6.1533 C   0  0  0  0  0  0  0  0  0  0  0  0
    2.0299    4.3933   -5.0427 C   0  0  0  0  0  0  0  0  0  0  0  0
    1.2246    4.1608   -3.7797 C   0  0  1  0  0  0  0  0  0  0  0  0
    1.8702    4.3553   -2.4314 C   0  0  0  0  0  0  0  0  0  0  0  0
    0.8393    5.3408   -2.9203 C   0  0  0  0  0  0  0  0  0  0  0  0
    7.8448    5.7379    1.4390 H   0  0  0  0  0  0  0  0  0  0  0  0
    6.2708    5.0782    0.8859 H   0  0  0  0  0  0  0  0  0  0  0  0
    6.6441    6.8156    0.6575 H   0  0  0  0  0  0  0  0  0  0  0  0
    6.3358    6.5310   -1.7614 H   0  0  0  0  0  0  0  0  0  0  0  0
    6.0142    4.7936   -1.5561 H   0  0  0  0  0  0  0  0  0  0  0  0
    8.3049    6.0881   -3.1529 H   0  0  0  0  0  0  0  0  0  0  0  0
    6.8939    5.2000   -3.7930 H   0  0  0  0  0  0  0  0  0  0  0  0
    9.1667    4.0300   -2.0762 H   0  0  0  0  0  0  0  0  0  0  0  0
    8.9996    3.8393   -3.8340 H   0  0  0  0  0  0  0  0  0  0  0  0
    7.7789    2.5093   -0.5317 H   0  0  0  0  0  0  0  0  0  0  0  0
    4.7975    1.2309   -5.0923 H   0  0  0  0  0  0  0  0  0  0  0  0
    4.9844    2.0074   -6.6846 H   0  0  0  0  0  0  0  0  0  0  0  0
    2.8337    1.2491   -6.0592 H   0  0  0  0  0  0  0  0  0  0  0  0
    2.1526    2.4162   -7.2289 H   0  0  0  0  0  0  0  0  0  0  0  0
    1.2633    1.9899   -5.7436 H   0  0  0  0  0  0  0  0  0  0  0  0
    1.3537    4.5986   -5.8917 H   0  0  0  0  0  0  0  0  0  0  0  0
    2.6778    5.2698   -4.9107 H   0  0  0  0  0  0  0  0  0  0  0  0
    0.4796    3.3591   -3.8488 H   0  0  0  0  0  0  0  0  0  0  0  0
    2.9184    4.6656   -2.4250 H   0  0  0  0  0  0  0  0  0  0  0  0
    1.5942    3.6712   -1.6243 H   0  0  0  0  0  0  0  0  0  0  0  0
    1.1830    6.3327   -3.2306 H   0  0  0  0  0  0  0  0  0  0  0  0
   -0.1502    5.3399   -2.4545 H   0  0  0  0  0  0  0  0  0  0  0  0
  1  2  1  0
  1 21  1  0
  1 22  1  0
  1 23  1  0
  2  3  1  0
  3  4  1  0
  3 24  1  0
  3 25  1  0
  4  5  1  0
  4 26  1  0
  4 27  1  0
  5  6  1  0
  5 28  1  0
  5 29  1  0
  6  7  1  0
  6 10  1  0
  7  8  2  0
  7 30  1  0
  8  9  1  0
  9 10  2  0
 10 11  1  0
 11 12  1  0
 12 13  1  0
 12 31  1  0
 12 32  1  0
 13 14  2  0
 13 15  1  0
 15 16  1  0
 15 17  1  0
 16 33  1  0
 16 34  1  0
 16 35  1  0
 17 18  1  0
 17 36  1  0
 17 37  1  0
 18 19  1  0
 18 20  1  0
 18 38  1  1
 19 20  1  0
 19 39  1  0
 19 40  1  0
 20 41  1  0
 20 42  1  0
M  END

