
     RDKit          3D

 35 36  0  0  0  0  0  0  0  0999 V2000
    4.4550   -1.9450    1.9920 C   0  0  0  0  0  0  0  0  0  0  0  0
    4.0371   -0.7805    1.1282 C   0  0  0  0  0  0  0  0  0  0  0  0
    4.7204    0.4401    1.1914 C   0  0  0  0  0  0  0  0  0  0  0  0
    4.3083    1.5179    0.4017 C   0  0  0  0  0  0  0  0  0  0  0  0
    3.2164    1.3989   -0.4510 C   0  0  0  0  0  0  0  0  0  0  0  0
    2.5090    0.1828   -0.5491 C   0  0  0  0  0  0  0  0  0  0  0  0
    1.4478    0.0434   -1.4207 N   0  0  0  0  0  0  0  0  0  0  0  0
    2.9465   -0.9089    0.2430 C   0  0  0  0  0  0  0  0  0  0  0  0
    2.2968   -2.1771    0.0816 N   0  0  0  0  0  0  0  0  0  0  0  0
    0.9412   -2.6174    0.9859 S   0  0  1  0  0  0  0  0  0  0  0  0
    1.0234   -4.0788    1.0757 O   0  0  0  0  0  0  0  0  0  0  0  0
    0.7970   -1.7881    2.1798 O   0  0  0  0  0  0  0  0  0  0  0  0
   -0.3203   -2.1511   -0.0622 N   0  0  0  0  0  0  0  0  0  0  0  0
   -0.5900   -3.0770   -1.1806 C   0  0  0  0  0  0  0  0  0  0  0  0
   -1.6286   -4.1333   -0.8003 C   0  0  0  0  0  0  0  0  0  0  0  0
   -2.8035   -3.5265   -0.2933 O   0  0  0  0  0  0  0  0  0  0  0  0
   -2.5441   -2.7539    0.8630 C   0  0  0  0  0  0  0  0  0  0  0  0
   -1.5531   -1.6318    0.5602 C   0  0  0  0  0  0  0  0  0  0  0  0
    5.2676   -1.6559    2.6730 H   0  0  0  0  0  0  0  0  0  0  0  0
    4.8208   -2.7993    1.3940 H   0  0  0  0  0  0  0  0  0  0  0  0
    3.6124   -2.3103    2.6009 H   0  0  0  0  0  0  0  0  0  0  0  0
    5.5705    0.5471    1.8689 H   0  0  0  0  0  0  0  0  0  0  0  0
    4.8428    2.4698    0.4598 H   0  0  0  0  0  0  0  0  0  0  0  0
    2.8956    2.2489   -1.0597 H   0  0  0  0  0  0  0  0  0  0  0  0
    1.0511    0.9064   -1.7725 H   0  0  0  0  0  0  0  0  0  0  0  0
    0.7567   -0.6604   -1.1708 H   0  0  0  0  0  0  0  0  0  0  0  0
    2.9126   -2.9883    0.0679 H   0  0  0  0  0  0  0  0  0  0  0  0
    0.3530   -3.5378   -1.5062 H   0  0  0  0  0  0  0  0  0  0  0  0
   -0.9714   -2.4675   -2.0182 H   0  0  0  0  0  0  0  0  0  0  0  0
   -1.1915   -4.8232   -0.0542 H   0  0  0  0  0  0  0  0  0  0  0  0
   -1.9235   -4.7145   -1.6877 H   0  0  0  0  0  0  0  0  0  0  0  0
   -2.1460   -3.3929    1.6779 H   0  0  0  0  0  0  0  0  0  0  0  0
   -3.5070   -2.3360    1.1955 H   0  0  0  0  0  0  0  0  0  0  0  0
   -1.2858   -1.0701    1.4643 H   0  0  0  0  0  0  0  0  0  0  0  0
   -2.0022   -0.9307   -0.1645 H   0  0  0  0  0  0  0  0  0  0  0  0
  1  2  1  0
  1 19  1  0
  1 20  1  0
  1 21  1  0
  2  3  2  0
  2  8  1  0
  3  4  1  0
  3 22  1  0
  4  5  2  0
  4 23  1  0
  5  6  1  0
  5 24  1  0
  6  7  1  0
  6  8  2  0
  7 25  1  0
  7 26  1  0
  8  9  1  0
 10  9  1  6
  9 27  1  0
 10 11  2  0
 10 12  2  0
 10 13  1  0
 13 14  1  0
 13 18  1  0
 14 15  1  0
 14 28  1  0
 14 29  1  0
 15 16  1  0
 15 30  1  0
 15 31  1  0
 16 17  1  0
 17 18  1  0
 17 32  1  0
 17 33  1  0
 18 34  1  0
 18 35  1  0
M  END

