
     RDKit          3D

 35 37  0  0  0  0  0  0  0  0999 V2000
    1.7200   -0.4829   -1.0185 C   0  0  0  0  0  0  0  0  0  0  0  0
    2.8137   -0.1687   -0.1017 N   0  0  0  0  0  0  0  0  0  0  0  0
    3.2439    1.0834    0.3141 C   0  0  0  0  0  0  0  0  0  0  0  0
    2.5529    2.3444   -0.0430 C   0  0  0  0  0  0  0  0  0  0  0  0
    1.4036    2.3970   -0.4640 O   0  0  0  0  0  0  0  0  0  0  0  0
    3.3308    3.4669    0.1563 N   0  0  0  0  0  0  0  0  0  0  0  0
    2.9650    4.8111    0.0282 C   0  0  0  0  0  0  0  0  0  0  0  0
    1.7077    5.2708   -0.3903 C   0  0  0  0  0  0  0  0  0  0  0  0
    1.4500    6.6486   -0.4709 C   0  0  0  0  0  0  0  0  0  0  0  0
    0.1698    7.0930   -0.8820 N   0  0  0  0  0  0  0  0  0  0  0  0
   -0.0919    8.2410   -1.6106 C   0  0  0  0  0  0  0  0  0  0  0  0
   -1.4523    8.3295   -1.8108 C   0  0  0  0  0  0  0  0  0  0  0  0
   -2.0489    7.1971   -1.1780 C   0  0  0  0  0  0  0  0  0  0  0  0
   -1.0305    6.4548   -0.6207 C   0  0  0  0  0  0  0  0  0  0  0  0
    2.4492    7.5785   -0.1484 C   0  0  0  0  0  0  0  0  0  0  0  0
    3.7120    7.1276    0.2439 C   0  0  0  0  0  0  0  0  0  0  0  0
    3.9521    5.7674    0.3322 C   0  0  0  0  0  0  0  0  0  0  0  0
    5.1654    5.3140    0.7216 F   0  0  0  0  0  0  0  0  0  0  0  0
    4.3578    0.9076    1.1372 C   0  0  0  0  0  0  0  0  0  0  0  0
    4.6148   -0.4760    1.2135 C   0  0  0  0  0  0  0  0  0  0  0  0
    5.8655   -1.2560    2.1083 Cl  0  0  0  0  0  0  0  0  0  0  0  0
    3.6506   -1.1087    0.4368 C   0  0  0  0  0  0  0  0  0  0  0  0
    3.4601   -2.7850    0.1275 Cl  0  0  0  0  0  0  0  0  0  0  0  0
    1.1069    0.4136   -1.1435 H   0  0  0  0  0  0  0  0  0  0  0  0
    1.1124   -1.2949   -0.5957 H   0  0  0  0  0  0  0  0  0  0  0  0
    2.1180   -0.8123   -1.9911 H   0  0  0  0  0  0  0  0  0  0  0  0
    4.2999    3.3201    0.4123 H   0  0  0  0  0  0  0  0  0  0  0  0
    0.9524    4.5415   -0.6680 H   0  0  0  0  0  0  0  0  0  0  0  0
    0.7178    8.8733   -1.9649 H   0  0  0  0  0  0  0  0  0  0  0  0
   -1.9627    9.1162   -2.3635 H   0  0  0  0  0  0  0  0  0  0  0  0
   -3.1094    6.9570   -1.1281 H   0  0  0  0  0  0  0  0  0  0  0  0
   -1.0601    5.5456   -0.0260 H   0  0  0  0  0  0  0  0  0  0  0  0
    2.2389    8.6476   -0.1813 H   0  0  0  0  0  0  0  0  0  0  0  0
    4.5115    7.8241    0.5029 H   0  0  0  0  0  0  0  0  0  0  0  0
    4.9078    1.6781    1.6727 H   0  0  0  0  0  0  0  0  0  0  0  0
  1  2  1  0
  1 24  1  0
  1 25  1  0
  1 26  1  0
  2  3  1  0
  2 22  1  0
  3  4  1  0
  3 19  2  0
  4  5  2  0
  4  6  1  0
  6  7  1  0
  6 27  1  0
  7  8  2  0
  7 17  1  0
  8  9  1  0
  8 28  1  0
  9 10  1  0
  9 15  2  0
 10 11  1  0
 10 14  1  0
 11 12  2  0
 11 29  1  0
 12 13  1  0
 12 30  1  0
 13 14  2  0
 13 31  1  0
 14 32  1  0
 15 16  1  0
 15 33  1  0
 16 17  2  0
 16 34  1  0
 17 18  1  0
 19 20  1  0
 19 35  1  0
 20 21  1  0
 20 22  2  0
 22 23  1  0
M  END

