
     RDKit          3D

 58 61  0  0  0  0  0  0  0  0999 V2000
    3.0762   -4.9318   -0.2186 C   0  0  0  0  0  0  0  0  0  0  0  0
    2.8508   -3.6091    0.2254 O   0  0  0  0  0  0  0  0  0  0  0  0
    3.5197   -3.1459    1.3166 C   0  0  0  0  0  0  0  0  0  0  0  0
    4.5599   -3.8123    1.9678 C   0  0  0  0  0  0  0  0  0  0  0  0
    5.1757   -3.2254    3.0816 C   0  0  0  0  0  0  0  0  0  0  0  0
    4.7567   -1.9768    3.5366 C   0  0  0  0  0  0  0  0  0  0  0  0
    3.7194   -1.2977    2.8853 C   0  0  0  0  0  0  0  0  0  0  0  0
    3.0876   -1.8785    1.7825 C   0  0  0  0  0  0  0  0  0  0  0  0
    2.0393   -1.2718    1.0546 N   0  0  0  0  0  0  0  0  0  0  0  0
    0.8287   -0.2834    1.6527 S   0  0  1  0  0  0  0  0  0  0  0  0
    1.4568    0.7416    2.4885 O   0  0  0  0  0  0  0  0  0  0  0  0
    0.0367    0.0865    0.4799 O   0  0  0  0  0  0  0  0  0  0  0  0
   -0.2194   -1.3011    2.7298 C   0  0  0  0  0  0  0  0  0  0  0  0
   -0.1045   -2.6918    2.6643 C   0  0  0  0  0  0  0  0  0  0  0  0
   -0.9328   -3.4947    3.4687 C   0  0  0  0  0  0  0  0  0  0  0  0
   -0.8777   -4.8976    3.4925 N   0  0  0  0  0  0  0  0  0  0  0  0
   -0.1452   -5.7638    2.7031 C   0  0  0  0  0  0  0  0  0  0  0  0
    0.5767   -5.3815    1.7887 O   0  0  0  0  0  0  0  0  0  0  0  0
   -0.3264   -7.1915    3.0591 C   0  0  0  0  0  0  0  0  0  0  0  0
   -0.7842   -7.7361    4.3098 C   0  0  0  0  0  0  0  0  0  0  0  0
   -0.8239   -9.1024    4.2012 C   0  0  0  0  0  0  0  0  0  0  0  0
   -1.1867  -10.1411    5.2105 C   0  0  0  0  0  0  0  0  0  0  0  0
   -0.3989   -9.4197    2.9030 N   0  0  0  0  0  0  0  0  0  0  0  0
   -0.3231  -10.7288    2.4041 C   0  0  0  0  0  0  0  0  0  0  0  0
   -1.3158  -11.5674    2.4083 N   0  0  0  0  0  0  0  0  0  0  0  0
   -0.9374  -12.7865    1.9143 C   0  0  0  0  0  0  0  0  0  0  0  0
    0.3700  -12.8908    1.5172 C   0  0  0  0  0  0  0  0  0  0  0  0
    1.1900  -11.3954    1.7995 S   0  0  0  0  0  0  0  0  0  0  0  0
   -0.0918   -8.2575    2.2004 C   0  0  0  0  0  0  0  0  0  0  0  0
    0.3274   -8.2652    0.7663 C   0  0  0  0  0  0  0  0  0  0  0  0
   -1.8658   -2.8632    4.3072 C   0  0  0  0  0  0  0  0  0  0  0  0
   -1.9752   -1.4758    4.3343 C   0  0  0  0  0  0  0  0  0  0  0  0
   -1.1627   -0.6450    3.5491 C   0  0  0  0  0  0  0  0  0  0  0  0
   -1.3307    0.8536    3.5977 C   0  0  0  0  0  0  0  0  0  0  0  0
    2.4039   -5.0901   -1.0721 H   0  0  0  0  0  0  0  0  0  0  0  0
    2.8264   -5.6580    0.5709 H   0  0  0  0  0  0  0  0  0  0  0  0
    4.1194   -5.0730   -0.5530 H   0  0  0  0  0  0  0  0  0  0  0  0
    4.8892   -4.7906    1.6173 H   0  0  0  0  0  0  0  0  0  0  0  0
    5.9873   -3.7547    3.5865 H   0  0  0  0  0  0  0  0  0  0  0  0
    5.2389   -1.5143    4.4009 H   0  0  0  0  0  0  0  0  0  0  0  0
    3.3888   -0.3175    3.2261 H   0  0  0  0  0  0  0  0  0  0  0  0
    1.7444   -1.7852    0.2262 H   0  0  0  0  0  0  0  0  0  0  0  0
    0.6073   -3.1715    1.9984 H   0  0  0  0  0  0  0  0  0  0  0  0
   -1.5261   -5.3359    4.1352 H   0  0  0  0  0  0  0  0  0  0  0  0
   -1.0119   -7.1882    5.2231 H   0  0  0  0  0  0  0  0  0  0  0  0
   -1.4418   -9.6518    6.1608 H   0  0  0  0  0  0  0  0  0  0  0  0
   -0.3529  -10.8382    5.4023 H   0  0  0  0  0  0  0  0  0  0  0  0
   -2.0459  -10.7463    4.8831 H   0  0  0  0  0  0  0  0  0  0  0  0
   -1.6718  -13.5909    1.8470 H   0  0  0  0  0  0  0  0  0  0  0  0
    0.8792  -13.7435    1.0711 H   0  0  0  0  0  0  0  0  0  0  0  0
   -0.3034   -8.9385    0.1636 H   0  0  0  0  0  0  0  0  0  0  0  0
    1.3736   -8.5917    0.6392 H   0  0  0  0  0  0  0  0  0  0  0  0
    0.2564   -7.2459    0.3698 H   0  0  0  0  0  0  0  0  0  0  0  0
   -2.5211   -3.4675    4.9418 H   0  0  0  0  0  0  0  0  0  0  0  0
   -2.7223   -1.0161    4.9867 H   0  0  0  0  0  0  0  0  0  0  0  0
   -2.2265    1.1205    4.1766 H   0  0  0  0  0  0  0  0  0  0  0  0
   -1.4324    1.2748    2.5857 H   0  0  0  0  0  0  0  0  0  0  0  0
   -0.4543    1.3397    4.0516 H   0  0  0  0  0  0  0  0  0  0  0  0
  1  2  1  0
  1 35  1  0
  1 36  1  0
  1 37  1  0
  2  3  1  0
  3  4  2  0
  3  8  1  0
  4  5  1  0
  4 38  1  0
  5  6  2  0
  5 39  1  0
  6  7  1  0
  6 40  1  0
  7  8  2  0
  7 41  1  0
  8  9  1  0
 10  9  1  6
  9 42  1  0
 10 11  2  0
 10 12  2  0
 10 13  1  0
 13 14  2  0
 13 33  1  0
 14 15  1  0
 14 43  1  0
 15 16  1  0
 15 31  2  0
 16 17  1  0
 16 44  1  0
 17 18  2  0
 17 19  1  0
 19 20  1  0
 19 29  2  0
 20 21  2  0
 20 45  1  0
 21 22  1  0
 21 23  1  0
 22 46  1  0
 22 47  1  0
 22 48  1  0
 23 24  1  0
 23 29  1  0
 24 25  2  0
 24 28  1  0
 25 26  1  0
 26 27  2  0
 26 49  1  0
 27 28  1  0
 27 50  1  0
 29 30  1  0
 30 51  1  0
 30 52  1  0
 30 53  1  0
 31 32  1  0
 31 54  1  0
 32 33  2  0
 32 55  1  0
 33 34  1  0
 34 56  1  0
 34 57  1  0
 34 58  1  0
M  END

