
     RDKit          3D

 34 36  0  0  0  0  0  0  0  0999 V2000
    0.9447   -0.0968   -0.0378 C   0  0  0  0  0  0  0  0  0  0  0  0
    2.4525   -0.0840   -0.0426 C   0  0  0  0  0  0  0  0  0  0  0  0
    3.1655   -1.2660   -0.0471 C   0  0  0  0  0  0  0  0  0  0  0  0
    4.5868   -1.2768   -0.0517 C   0  0  0  0  0  0  0  0  0  0  0  0
    5.2600   -2.4482   -0.0559 N   0  0  0  0  0  0  0  0  0  0  0  0
    6.5727   -2.4068   -0.0602 C   0  0  0  0  0  0  0  0  0  0  0  0
    7.3247   -3.6956   -0.0646 C   0  0  0  0  0  0  0  0  0  0  0  0
    6.7958   -4.7837   -0.0641 O   0  0  0  0  0  0  0  0  0  0  0  0
    8.7213   -3.5423   -0.0694 N   0  0  0  0  0  0  0  0  0  0  0  0
    9.5515   -4.7492   -0.0741 C   0  0  0  0  0  0  0  0  0  0  0  0
    9.4241   -2.3289   -0.0702 C   0  0  0  0  0  0  0  0  0  0  0  0
   10.6383   -2.3166   -0.0747 O   0  0  0  0  0  0  0  0  0  0  0  0
    8.6656   -1.1562   -0.0655 N   0  0  0  0  0  0  0  0  0  0  0  0
    9.3674    0.1275   -0.0660 C   0  0  0  0  0  0  0  0  0  0  0  0
    7.2797   -1.1589   -0.0606 C   0  0  0  0  0  0  0  0  0  0  0  0
    6.6510   -0.0024   -0.0564 N   0  0  0  0  0  0  0  0  0  0  0  0
    5.2967   -0.0294   -0.0519 C   0  0  0  0  0  0  0  0  0  0  0  0
    4.5492    1.1762   -0.0472 C   0  0  0  0  0  0  0  0  0  0  0  0
    3.1662    1.1698   -0.0427 C   0  0  0  0  0  0  0  0  0  0  0  0
    2.4013    2.4684   -0.0376 C   0  0  0  0  0  0  0  0  0  0  0  0
    0.5569   -1.1251   -0.0376 H   0  0  0  0  0  0  0  0  0  0  0  0
    0.5311    0.4210   -0.9197 H   0  0  0  0  0  0  0  0  0  0  0  0
    0.5367    0.4192    0.8478 H   0  0  0  0  0  0  0  0  0  0  0  0
    2.6596   -2.2341   -0.0471 H   0  0  0  0  0  0  0  0  0  0  0  0
    8.8775   -5.6118   -0.0727 H   0  0  0  0  0  0  0  0  0  0  0  0
   10.2010   -4.7661    0.8123 H   0  0  0  0  0  0  0  0  0  0  0  0
   10.1943   -4.7638   -0.9655 H   0  0  0  0  0  0  0  0  0  0  0  0
   10.4415   -0.0806   -0.0698 H   0  0  0  0  0  0  0  0  0  0  0  0
    9.0909    0.7103    0.8243 H   0  0  0  0  0  0  0  0  0  0  0  0
    9.0852    0.7128   -0.9528 H   0  0  0  0  0  0  0  0  0  0  0  0
    5.1066    2.1156   -0.0473 H   0  0  0  0  0  0  0  0  0  0  0  0
    3.0800    3.3327   -0.0396 H   0  0  0  0  0  0  0  0  0  0  0  0
    1.7496    2.5490    0.8489 H   0  0  0  0  0  0  0  0  0  0  0  0
    1.7413    2.5513   -0.9176 H   0  0  0  0  0  0  0  0  0  0  0  0
  1  2  1  0
  1 21  1  0
  1 22  1  0
  1 23  1  0
  2  3  2  0
  2 19  1  0
  3  4  1  0
  3 24  1  0
  4  5  2  0
  4 17  1  0
  5  6  1  0
  6  7  1  0
  6 15  2  0
  7  8  2  0
  7  9  1  0
  9 10  1  0
  9 11  1  0
 10 25  1  0
 10 26  1  0
 10 27  1  0
 11 12  2  0
 11 13  1  0
 13 14  1  0
 13 15  1  0
 14 28  1  0
 14 29  1  0
 14 30  1  0
 15 16  1  0
 16 17  2  0
 17 18  1  0
 18 19  2  0
 18 31  1  0
 19 20  1  0
 20 32  1  0
 20 33  1  0
 20 34  1  0
M  END

