
     RDKit          3D

 58 62  0  0  0  0  0  0  0  0999 V2000
    1.5649   -0.6717   -0.2012 C   0  0  0  0  0  0  0  0  0  0  0  0
    2.0381    0.5689    0.2699 O   0  0  0  0  0  0  0  0  0  0  0  0
    2.9162    0.5954    1.3044 C   0  0  0  0  0  0  0  0  0  0  0  0
    3.4079   -0.5405    1.9626 C   0  0  0  0  0  0  0  0  0  0  0  0
    4.3127   -0.3945    3.0198 C   0  0  0  0  0  0  0  0  0  0  0  0
    4.7480    0.8674    3.4461 C   0  0  0  0  0  0  0  0  0  0  0  0
    5.7049    1.0255    4.5545 C   0  0  0  0  0  0  0  0  0  0  0  0
    6.0806    2.2557    4.9508 N   0  0  0  0  0  0  0  0  0  0  0  0
    6.9594    2.0926    5.9496 N   0  0  0  0  0  0  0  0  0  0  0  0
    7.3767    2.9007    6.3959 H   0  0  0  0  0  0  0  0  0  0  0  0
    7.1626    0.7853    6.2154 C   0  0  0  0  0  0  0  0  0  0  0  0
    6.3820    0.0540    5.3520 C   0  0  0  0  0  0  0  0  0  0  0  0
    6.6195   -1.4186    5.6093 C   0  0  2  0  0  0  0  0  0  0  0  0
    5.3949   -2.2501    5.9690 C   0  0  0  0  0  0  0  0  0  0  0  0
    5.1481   -3.4749    5.3320 C   0  0  0  0  0  0  0  0  0  0  0  0
    4.0390   -4.2520    5.6652 C   0  0  0  0  0  0  0  0  0  0  0  0
    3.1405   -3.8236    6.6591 C   0  0  0  0  0  0  0  0  0  0  0  0
    1.7646   -4.8919    7.0002 S   0  0  0  0  0  0  0  0  0  0  0  0
    0.8476   -4.0164    8.2998 C   0  0  0  0  0  0  0  0  0  0  0  0
    3.3868   -2.5998    7.3059 C   0  0  0  0  0  0  0  0  0  0  0  0
    4.4986   -1.8302    6.9602 C   0  0  0  0  0  0  0  0  0  0  0  0
    7.6010   -1.3567    6.7196 N   0  0  0  0  0  0  0  0  0  0  0  0
    8.2212   -2.5386    7.2931 C   0  0  0  0  0  0  0  0  0  0  0  0
    9.2232   -3.2178    6.3754 C   0  0  0  0  0  0  0  0  0  0  0  0
   10.4017   -2.5564    5.9957 C   0  0  0  0  0  0  0  0  0  0  0  0
   11.3235   -3.1718    5.1476 C   0  0  0  0  0  0  0  0  0  0  0  0
   11.1070   -4.4687    4.6525 C   0  0  0  0  0  0  0  0  0  0  0  0
   12.1183   -5.1461    3.7594 C   0  0  0  0  0  0  0  0  0  0  0  0
    9.9284   -5.1258    5.0362 C   0  0  0  0  0  0  0  0  0  0  0  0
    9.0017   -4.5107    5.8829 C   0  0  0  0  0  0  0  0  0  0  0  0
    7.9788   -0.0764    7.0942 C   0  0  0  0  0  0  0  0  0  0  0  0
    8.8019    0.2210    7.9412 O   0  0  0  0  0  0  0  0  0  0  0  0
    4.2421    2.0002    2.7727 C   0  0  0  0  0  0  0  0  0  0  0  0
    3.3447    1.8693    1.7233 C   0  0  0  0  0  0  0  0  0  0  0  0
    0.8765   -0.4517   -1.0285 H   0  0  0  0  0  0  0  0  0  0  0  0
    1.0167   -1.2282    0.5808 H   0  0  0  0  0  0  0  0  0  0  0  0
    2.3848   -1.3093   -0.5793 H   0  0  0  0  0  0  0  0  0  0  0  0
    3.0949   -1.5425    1.6687 H   0  0  0  0  0  0  0  0  0  0  0  0
    4.6704   -1.2941    3.5222 H   0  0  0  0  0  0  0  0  0  0  0  0
    7.1052   -1.8885    4.7340 H   0  0  0  0  0  0  0  0  0  0  0  0
    5.8366   -3.8302    4.5596 H   0  0  0  0  0  0  0  0  0  0  0  0
    3.8672   -5.2016    5.1514 H   0  0  0  0  0  0  0  0  0  0  0  0
   -0.0159   -4.6564    8.5295 H   0  0  0  0  0  0  0  0  0  0  0  0
    0.4815   -3.0386    7.9534 H   0  0  0  0  0  0  0  0  0  0  0  0
    1.4490   -3.8929    9.2127 H   0  0  0  0  0  0  0  0  0  0  0  0
    2.7136   -2.2322    8.0808 H   0  0  0  0  0  0  0  0  0  0  0  0
    4.6673   -0.8792    7.4723 H   0  0  0  0  0  0  0  0  0  0  0  0
    7.4363   -3.2540    7.5872 H   0  0  0  0  0  0  0  0  0  0  0  0
    8.7237   -2.1927    8.2093 H   0  0  0  0  0  0  0  0  0  0  0  0
   10.5989   -1.5503    6.3767 H   0  0  0  0  0  0  0  0  0  0  0  0
   12.2349   -2.6358    4.8666 H   0  0  0  0  0  0  0  0  0  0  0  0
   12.8045   -4.4190    3.3000 H   0  0  0  0  0  0  0  0  0  0  0  0
   11.6290   -5.7115    2.9503 H   0  0  0  0  0  0  0  0  0  0  0  0
   12.7336   -5.8649    4.3285 H   0  0  0  0  0  0  0  0  0  0  0  0
    9.7296   -6.1360    4.6655 H   0  0  0  0  0  0  0  0  0  0  0  0
    8.0908   -5.0466    6.1664 H   0  0  0  0  0  0  0  0  0  0  0  0
    4.5711    2.9902    3.0920 H   0  0  0  0  0  0  0  0  0  0  0  0
    2.9526    2.7442    1.2005 H   0  0  0  0  0  0  0  0  0  0  0  0
  1  2  1  0
  1 35  1  0
  1 36  1  0
  1 37  1  0
  2  3  1  0
  3  4  2  0
  3 34  1  0
  4  5  1  0
  4 38  1  0
  5  6  2  0
  5 39  1  0
  6  7  1  0
  6 33  1  0
  7  8  2  0
  7 12  1  0
  8  9  1  0
  9 10  1  0
  9 11  1  0
 11 12  2  0
 11 31  1  0
 12 13  1  0
 13 14  1  0
 13 22  1  0
 13 40  1  6
 14 15  2  0
 14 21  1  0
 15 16  1  0
 15 41  1  0
 16 17  2  0
 16 42  1  0
 17 18  1  0
 17 20  1  0
 18 19  1  0
 19 43  1  0
 19 44  1  0
 19 45  1  0
 20 21  2  0
 20 46  1  0
 21 47  1  0
 22 23  1  0
 22 31  1  0
 23 24  1  0
 23 48  1  0
 23 49  1  0
 24 25  2  0
 24 30  1  0
 25 26  1  0
 25 50  1  0
 26 27  2  0
 26 51  1  0
 27 28  1  0
 27 29  1  0
 28 52  1  0
 28 53  1  0
 28 54  1  0
 29 30  2  0
 29 55  1  0
 30 56  1  0
 31 32  2  0
 33 34  2  0
 33 57  1  0
 34 58  1  0
M  END

