
     RDKit          3D

 51 56  0  0  0  0  0  0  0  0999 V2000
    0.5871    0.1231   -1.1887 C   0  0  0  0  0  0  0  0  0  0  0  0
    2.0743   -0.2224   -1.3744 C   0  0  0  0  0  0  0  0  0  0  0  0
    2.9284    0.9429   -1.7953 C   0  0  0  0  0  0  0  0  0  0  0  0
    3.5972    1.8425   -0.9493 C   0  0  0  0  0  0  0  0  0  0  0  0
    3.6208    1.8252    0.5488 C   0  0  0  0  0  0  0  0  0  0  0  0
    4.2243    2.8027   -1.7904 C   0  0  0  0  0  0  0  0  0  0  0  0
    4.9418    3.9637   -1.4544 C   0  0  0  0  0  0  0  0  0  0  0  0
    5.3447    4.8747   -2.4201 C   0  0  0  0  0  0  0  0  0  0  0  0
    5.8352    6.2300   -2.3735 C   0  0  0  0  0  0  0  0  0  0  0  0
    6.2511    7.0564   -1.3165 C   0  0  0  0  0  0  0  0  0  0  0  0
    6.6310    8.3632   -1.6014 C   0  0  0  0  0  0  0  0  0  0  0  0
    6.5854    8.8631   -2.9213 C   0  0  0  0  0  0  0  0  0  0  0  0
    6.1684    8.0610   -3.9779 C   0  0  0  0  0  0  0  0  0  0  0  0
    5.8016    6.7269   -3.7165 C   0  0  0  0  0  0  0  0  0  0  0  0
    5.3132    5.6385   -4.5452 C   0  0  0  0  0  0  0  0  0  0  0  0
    5.0939    4.5847   -3.7498 N   0  0  0  0  0  0  0  0  0  0  0  0
    4.6944    3.1787   -4.3034 B   0  0  2  0  0  0  0  0  0  0  0  0
    6.0073    2.3403   -4.7491 C   0  0  0  0  0  0  0  0  0  0  0  0
    3.7797    3.4539   -5.4381 O   0  0  0  0  0  0  0  0  0  0  0  0
    4.0952    4.4197   -6.3029 C   0  0  0  0  0  0  0  0  0  0  0  0
    3.5629    4.3660   -7.6043 C   0  0  0  0  0  0  0  0  0  0  0  0
    3.8886    5.3366   -8.5464 C   0  0  0  0  0  0  0  0  0  0  0  0
    4.7513    6.3939   -8.2161 C   0  0  0  0  0  0  0  0  0  0  0  0
    5.2580    6.4833   -6.9248 C   0  0  0  0  0  0  0  0  0  0  0  0
    4.9342    5.5246   -5.9416 C   0  0  0  0  0  0  0  0  0  0  0  0
    3.9426    2.4804   -3.1212 N   0  0  0  0  0  0  0  0  0  0  0  0
    3.1736    1.3680   -3.1292 C   0  0  0  0  0  0  0  0  0  0  0  0
    2.6880    0.7411   -4.3956 C   0  0  0  0  0  0  0  0  0  0  0  0
    0.0096   -0.7599   -0.8692 H   0  0  0  0  0  0  0  0  0  0  0  0
    0.1446    0.4959   -2.1263 H   0  0  0  0  0  0  0  0  0  0  0  0
    0.4521    0.9089   -0.4282 H   0  0  0  0  0  0  0  0  0  0  0  0
    2.1654   -1.0380   -2.1116 H   0  0  0  0  0  0  0  0  0  0  0  0
    2.4676   -0.6347   -0.4296 H   0  0  0  0  0  0  0  0  0  0  0  0
    2.6567    2.1485    0.9791 H   0  0  0  0  0  0  0  0  0  0  0  0
    4.3998    2.4848    0.9587 H   0  0  0  0  0  0  0  0  0  0  0  0
    3.8152    0.8106    0.9336 H   0  0  0  0  0  0  0  0  0  0  0  0
    5.1152    4.1888   -0.4008 H   0  0  0  0  0  0  0  0  0  0  0  0
    6.2781    6.6820   -0.2901 H   0  0  0  0  0  0  0  0  0  0  0  0
    6.9646    9.0178   -0.7922 H   0  0  0  0  0  0  0  0  0  0  0  0
    6.8782    9.8981   -3.1132 H   0  0  0  0  0  0  0  0  0  0  0  0
    6.1239    8.4747   -4.9855 H   0  0  0  0  0  0  0  0  0  0  0  0
    6.5732    2.8559   -5.5440 H   0  0  0  0  0  0  0  0  0  0  0  0
    5.7353    1.3446   -5.1395 H   0  0  0  0  0  0  0  0  0  0  0  0
    6.6984    2.1808   -3.9038 H   0  0  0  0  0  0  0  0  0  0  0  0
    2.9072    3.5292   -7.8527 H   0  0  0  0  0  0  0  0  0  0  0  0
    3.4775    5.2640   -9.5569 H   0  0  0  0  0  0  0  0  0  0  0  0
    5.0210    7.1421   -8.9644 H   0  0  0  0  0  0  0  0  0  0  0  0
    5.9292    7.3033   -6.6683 H   0  0  0  0  0  0  0  0  0  0  0  0
    2.0907    1.4551   -4.9829 H   0  0  0  0  0  0  0  0  0  0  0  0
    2.0765   -0.1463   -4.1859 H   0  0  0  0  0  0  0  0  0  0  0  0
    3.5281    0.4368   -5.0410 H   0  0  0  0  0  0  0  0  0  0  0  0
  1  2  1  0
  1 29  1  0
  1 30  1  0
  1 31  1  0
  2  3  1  0
  2 32  1  0
  2 33  1  0
  3  4  2  0
  3 27  1  0
  4  5  1  0
  4  6  1  0
  5 34  1  0
  5 35  1  0
  5 36  1  0
  6  7  2  0
  6 26  1  0
  7  8  1  0
  7 37  1  0
  8  9  2  0
  8 16  1  0
  9 10  1  0
  9 14  1  0
 10 11  2  0
 10 38  1  0
 11 12  1  0
 11 39  1  0
 12 13  2  0
 12 40  1  0
 13 14  1  0
 13 41  1  0
 14 15  2  0
 15 16  1  0
 15 25  1  0
 16 17  1  0
 17 18  1  6
 17 19  1  0
 17 26  1  0
 18 42  1  0
 18 43  1  0
 18 44  1  0
 19 20  1  0
 20 21  1  0
 20 25  2  0
 21 22  2  0
 21 45  1  0
 22 23  1  0
 22 46  1  0
 23 24  2  0
 23 47  1  0
 24 25  1  0
 24 48  1  0
 26 27  2  0
 27 28  1  0
 28 49  1  0
 28 50  1  0
 28 51  1  0
M  CHG  2  17  -1  26   1
M  END

