
     RDKit          3D

  5  4  0  0  0  0  0  0  0  0999 V2000
    0.9322   -0.0496    0.0446 C   0  0  0  0  0  0  0  0  0  0  0  0
    2.7210   -0.0496    0.0446 Cl  0  0  0  0  0  0  0  0  0  0  0  0
    0.5683    0.9274    0.3891 H   0  0  0  0  0  0  0  0  0  0  0  0
    0.5683   -0.8365    0.7184 H   0  0  0  0  0  0  0  0  0  0  0  0
    0.5682   -0.2397   -0.9738 H   0  0  0  0  0  0  0  0  0  0  0  0
  1  2  1  0
  1  3  1  0
  1  4  1  0
  1  5  1  0
M  END

