
     RDKit          3D

 39 40  0  0  0  0  0  0  0  0999 V2000
    0.5156    0.3341   -0.4900 C   0  0  0  0  0  0  0  0  0  0  0  0
    1.9931    0.3498   -0.1168 C   0  0  0  0  0  0  0  0  0  0  0  0
    2.8080    0.8230   -1.2306 N   0  0  0  0  0  0  0  0  0  0  0  0
    4.2377    0.9125   -0.9644 C   0  0  1  0  0  0  0  0  0  0  0  0
    4.9555   -0.4769   -1.0060 C   0  0  0  0  0  0  0  0  0  0  0  0
    5.0631   -1.1465   -2.3595 C   0  0  0  0  0  0  0  0  0  0  0  0
    6.1123   -0.7518   -3.2177 C   0  0  0  0  0  0  0  0  0  0  0  0
    6.2783   -1.3048   -4.4923 C   0  0  0  0  0  0  0  0  0  0  0  0
    7.2654   -0.9609   -5.3570 O   0  0  0  0  0  0  0  0  0  0  0  0
    8.2185    0.0062   -4.9751 C   0  0  0  0  0  0  0  0  0  0  0  0
    5.3806   -2.2908   -4.9350 C   0  0  0  0  0  0  0  0  0  0  0  0
    4.3550   -2.7116   -4.0997 C   0  0  0  0  0  0  0  0  0  0  0  0
    4.1989   -2.1495   -2.8242 C   0  0  0  0  0  0  0  0  0  0  0  0
    2.7944   -2.8755   -1.7383 Br  0  0  0  0  0  0  0  0  0  0  0  0
    4.9030    1.9042   -1.9046 C   0  0  0  0  0  0  0  0  0  0  0  0
    4.3834    2.2012   -3.1746 C   0  0  0  0  0  0  0  0  0  0  0  0
    5.0579    3.1064   -3.9937 C   0  0  0  0  0  0  0  0  0  0  0  0
    6.2391    3.6750   -3.5159 C   0  0  0  0  0  0  0  0  0  0  0  0
    7.1508    4.8019   -4.4876 Cl  0  0  0  0  0  0  0  0  0  0  0  0
    6.6951    3.3187   -2.2401 C   0  0  0  0  0  0  0  0  0  0  0  0
    6.0410    2.4586   -1.4636 N   0  0  0  0  0  0  0  0  0  0  0  0
   -0.0982   -0.0291    0.3491 H   0  0  0  0  0  0  0  0  0  0  0  0
    0.3450   -0.3206   -1.3583 H   0  0  0  0  0  0  0  0  0  0  0  0
    0.1559    1.3452   -0.7492 H   0  0  0  0  0  0  0  0  0  0  0  0
    2.3077   -0.6726    0.1425 H   0  0  0  0  0  0  0  0  0  0  0  0
    2.1458    0.9644    0.7999 H   0  0  0  0  0  0  0  0  0  0  0  0
    2.4653    1.7439   -1.5032 H   0  0  0  0  0  0  0  0  0  0  0  0
    4.4405    1.3018    0.0568 H   0  0  0  0  0  0  0  0  0  0  0  0
    4.4495   -1.1443   -0.2946 H   0  0  0  0  0  0  0  0  0  0  0  0
    5.9706   -0.3072   -0.6151 H   0  0  0  0  0  0  0  0  0  0  0  0
    6.8065    0.0054   -2.8549 H   0  0  0  0  0  0  0  0  0  0  0  0
    8.9148    0.1079   -5.8184 H   0  0  0  0  0  0  0  0  0  0  0  0
    8.7858   -0.3065   -4.0799 H   0  0  0  0  0  0  0  0  0  0  0  0
    7.7543    0.9886   -4.7756 H   0  0  0  0  0  0  0  0  0  0  0  0
    5.5158   -2.7212   -5.9290 H   0  0  0  0  0  0  0  0  0  0  0  0
    3.6674   -3.4912   -4.4315 H   0  0  0  0  0  0  0  0  0  0  0  0
    3.4709    1.7119   -3.5179 H   0  0  0  0  0  0  0  0  0  0  0  0
    4.6850    3.3595   -4.9882 H   0  0  0  0  0  0  0  0  0  0  0  0
    7.6218    3.7540   -1.8500 H   0  0  0  0  0  0  0  0  0  0  0  0
  1  2  1  0
  1 22  1  0
  1 23  1  0
  1 24  1  0
  2  3  1  0
  2 25  1  0
  2 26  1  0
  3  4  1  0
  3 27  1  0
  4  5  1  0
  4 15  1  0
  4 28  1  1
  5  6  1  0
  5 29  1  0
  5 30  1  0
  6  7  2  0
  6 13  1  0
  7  8  1  0
  7 31  1  0
  8  9  1  0
  8 11  2  0
  9 10  1  0
 10 32  1  0
 10 33  1  0
 10 34  1  0
 11 12  1  0
 11 35  1  0
 12 13  2  0
 12 36  1  0
 13 14  1  0
 15 16  2  0
 15 21  1  0
 16 17  1  0
 16 37  1  0
 17 18  2  0
 17 38  1  0
 18 19  1  0
 18 20  1  0
 20 21  2  0
 20 39  1  0
M  END

