
     RDKit          3D

 59 60  0  0  0  0  0  0  0  0999 V2000
    3.6737   -1.0242    1.6914 C   0  0  0  0  0  0  0  0  0  0  0  0
    3.1005   -0.7790    0.2936 C   0  0  0  0  0  0  0  0  0  0  0  0
    3.1691   -1.9471   -0.5845 N   0  0  0  0  0  0  0  0  0  0  0  0
    2.3632   -3.0820   -0.1111 C   0  0  0  0  0  0  0  0  0  0  0  0
    0.8483   -2.9064   -0.1583 C   0  0  0  0  0  0  0  0  0  0  0  0
    0.1063   -3.2593   -1.2992 C   0  0  0  0  0  0  0  0  0  0  0  0
   -1.2751   -3.0790   -1.3473 C   0  0  0  0  0  0  0  0  0  0  0  0
   -1.9617   -2.5129   -0.2613 C   0  0  0  0  0  0  0  0  0  0  0  0
   -3.4597   -2.4333   -0.3620 C   0  0  0  0  0  0  0  0  0  0  0  0
   -4.0793   -3.2646   -1.0119 O   0  0  0  0  0  0  0  0  0  0  0  0
   -4.1403   -1.4366    0.3298 N   0  0  0  0  0  0  0  0  0  0  0  0
   -5.5994   -1.5573    0.3598 C   0  0  0  0  0  0  0  0  0  0  0  0
   -6.2601   -1.0333   -0.9353 C   0  0  0  0  0  0  0  0  0  0  0  0
   -7.7207   -1.0677   -0.8674 C   0  0  0  0  0  0  0  0  0  0  0  0
   -8.8763   -1.0982   -0.7857 N   0  0  0  0  0  0  0  0  0  0  0  0
   -3.5724   -0.1766    0.7034 C   0  0  0  0  0  0  0  0  0  0  0  0
   -3.7426    0.3193    2.0018 C   0  0  0  0  0  0  0  0  0  0  0  0
   -3.2110    1.5633    2.3437 C   0  0  0  0  0  0  0  0  0  0  0  0
   -2.4925    2.3390    1.4229 C   0  0  0  0  0  0  0  0  0  0  0  0
   -1.9234    3.6764    1.8252 C   0  0  0  0  0  0  0  0  0  0  0  0
   -2.3183    1.8416    0.1099 C   0  0  0  0  0  0  0  0  0  0  0  0
   -1.5600    2.6400   -0.9214 C   0  0  0  0  0  0  0  0  0  0  0  0
   -2.8706    0.5999   -0.2297 C   0  0  0  0  0  0  0  0  0  0  0  0
   -1.2343   -2.1755    0.8905 C   0  0  0  0  0  0  0  0  0  0  0  0
    0.1458   -2.3783    0.9380 C   0  0  0  0  0  0  0  0  0  0  0  0
    3.0885   -1.6881   -2.0369 C   0  0  1  0  0  0  0  0  0  0  0  0
    3.9388   -0.4840   -2.4687 C   0  0  0  0  0  0  0  0  0  0  0  0
    3.5555   -2.9149   -2.8373 C   0  0  0  0  0  0  0  0  0  0  0  0
    3.7322   -0.0725    2.2434 H   0  0  0  0  0  0  0  0  0  0  0  0
    4.6884   -1.4469    1.6201 H   0  0  0  0  0  0  0  0  0  0  0  0
    3.0652   -1.7109    2.2998 H   0  0  0  0  0  0  0  0  0  0  0  0
    3.6986    0.0200   -0.1593 H   0  0  0  0  0  0  0  0  0  0  0  0
    2.0682   -0.3708    0.3823 H   0  0  0  0  0  0  0  0  0  0  0  0
    2.6602   -3.2964    0.9257 H   0  0  0  0  0  0  0  0  0  0  0  0
    2.6380   -3.9744   -0.6894 H   0  0  0  0  0  0  0  0  0  0  0  0
    0.6139   -3.7064   -2.1577 H   0  0  0  0  0  0  0  0  0  0  0  0
   -1.8477   -3.3898   -2.2232 H   0  0  0  0  0  0  0  0  0  0  0  0
   -5.9787   -0.9965    1.2246 H   0  0  0  0  0  0  0  0  0  0  0  0
   -5.8575   -2.6163    0.4899 H   0  0  0  0  0  0  0  0  0  0  0  0
   -5.9242   -1.6552   -1.7793 H   0  0  0  0  0  0  0  0  0  0  0  0
   -5.9429    0.0050   -1.1299 H   0  0  0  0  0  0  0  0  0  0  0  0
   -4.2790   -0.2723    2.7472 H   0  0  0  0  0  0  0  0  0  0  0  0
   -3.3499    1.9389    3.3613 H   0  0  0  0  0  0  0  0  0  0  0  0
   -2.1408    3.9037    2.8787 H   0  0  0  0  0  0  0  0  0  0  0  0
   -2.3375    4.4957    1.2129 H   0  0  0  0  0  0  0  0  0  0  0  0
   -0.8287    3.7100    1.6925 H   0  0  0  0  0  0  0  0  0  0  0  0
   -2.0189    3.6293   -1.0876 H   0  0  0  0  0  0  0  0  0  0  0  0
   -1.5246    2.1182   -1.8883 H   0  0  0  0  0  0  0  0  0  0  0  0
   -0.5205    2.8268   -0.6024 H   0  0  0  0  0  0  0  0  0  0  0  0
   -2.7476    0.2217   -1.2472 H   0  0  0  0  0  0  0  0  0  0  0  0
   -1.7451   -1.7726    1.7657 H   0  0  0  0  0  0  0  0  0  0  0  0
    0.6853   -2.1343    1.8569 H   0  0  0  0  0  0  0  0  0  0  0  0
    2.0400   -1.4649   -2.3391 H   0  0  0  0  0  0  0  0  0  0  0  0
    4.9776   -0.5901   -2.1144 H   0  0  0  0  0  0  0  0  0  0  0  0
    3.5444    0.4770   -2.1094 H   0  0  0  0  0  0  0  0  0  0  0  0
    3.9594   -0.4292   -3.5676 H   0  0  0  0  0  0  0  0  0  0  0  0
    4.5856   -3.1830   -2.5515 H   0  0  0  0  0  0  0  0  0  0  0  0
    3.5406   -2.6897   -3.9146 H   0  0  0  0  0  0  0  0  0  0  0  0
    2.9237   -3.8017   -2.6889 H   0  0  0  0  0  0  0  0  0  0  0  0
  1  2  1  0
  1 29  1  0
  1 30  1  0
  1 31  1  0
  2  3  1  0
  2 32  1  0
  2 33  1  0
  3  4  1  0
  3 26  1  0
  4  5  1  0
  4 34  1  0
  4 35  1  0
  5  6  2  0
  5 25  1  0
  6  7  1  0
  6 36  1  0
  7  8  2  0
  7 37  1  0
  8  9  1  0
  8 24  1  0
  9 10  2  0
  9 11  1  0
 11 12  1  0
 11 16  1  0
 12 13  1  0
 12 38  1  0
 12 39  1  0
 13 14  1  0
 13 40  1  0
 13 41  1  0
 14 15  3  0
 16 17  2  0
 16 23  1  0
 17 18  1  0
 17 42  1  0
 18 19  2  0
 18 43  1  0
 19 20  1  0
 19 21  1  0
 20 44  1  0
 20 45  1  0
 20 46  1  0
 21 22  1  0
 21 23  2  0
 22 47  1  0
 22 48  1  0
 22 49  1  0
 23 50  1  0
 24 25  2  0
 24 51  1  0
 25 52  1  0
 26 27  1  0
 26 28  1  0
 26 53  1  6
 27 54  1  0
 27 55  1  0
 27 56  1  0
 28 57  1  0
 28 58  1  0
 28 59  1  0
M  END

