
     RDKit          3D

 43 45  0  0  0  0  0  0  0  0999 V2000
    7.8042   -1.9333   -4.7943 C   0  0  0  0  0  0  0  0  0  0  0  0
    7.0386   -1.8193   -3.5918 O   0  0  0  0  0  0  0  0  0  0  0  0
    7.7121   -1.9393   -2.4401 C   0  0  0  0  0  0  0  0  0  0  0  0
    8.9039   -2.1333   -2.3729 O   0  0  0  0  0  0  0  0  0  0  0  0
    6.8231   -1.8045   -1.2420 C   0  0  0  0  0  0  0  0  0  0  0  0
    7.4150   -1.9259    0.0241 C   0  0  0  0  0  0  0  0  0  0  0  0
    6.6518   -1.8136    1.1926 C   0  0  0  0  0  0  0  0  0  0  0  0
    7.2038   -1.9548    2.5942 C   0  0  0  0  0  0  0  0  0  0  0  0
    6.4545   -2.1720    3.5333 O   0  0  0  0  0  0  0  0  0  0  0  0
    8.5616   -1.8084    2.7077 N   0  0  0  0  0  0  0  0  0  0  0  0
    9.3669   -1.9069    3.8624 C   0  0  0  0  0  0  0  0  0  0  0  0
   10.7505   -1.7088    3.7093 C   0  0  0  0  0  0  0  0  0  0  0  0
   11.6030   -1.7875    4.8102 C   0  0  0  0  0  0  0  0  0  0  0  0
   11.0913   -2.0781    6.0741 C   0  0  0  0  0  0  0  0  0  0  0  0
    9.7084   -2.2868    6.2287 C   0  0  0  0  0  0  0  0  0  0  0  0
    8.8443   -2.1936    5.1344 C   0  0  0  0  0  0  0  0  0  0  0  0
    9.2478   -2.6232    7.5076 N   0  0  0  0  0  0  0  0  0  0  0  0
    9.9985   -2.4960    8.6499 C   0  0  0  0  0  0  0  0  0  0  0  0
    9.5837   -2.7995    9.7497 O   0  0  0  0  0  0  0  0  0  0  0  0
   11.3830   -1.8665    8.4209 C   0  0  1  0  0  0  0  0  0  0  0  0
   12.3810   -2.2764    9.4848 C   0  0  0  0  0  0  0  0  0  0  0  0
   11.9253   -2.2151    7.1417 O   0  0  0  0  0  0  0  0  0  0  0  0
    5.2697   -1.5978    1.0836 C   0  0  0  0  0  0  0  0  0  0  0  0
    4.7001   -1.4733   -0.1794 C   0  0  0  0  0  0  0  0  0  0  0  0
    3.2398   -1.2320   -0.2866 N   0  0  0  0  0  0  0  0  0  0  0  0
    2.6084   -1.1439    0.7513 O   0  0  0  0  0  0  0  0  0  0  0  0
    2.7705   -1.1369   -1.4082 O   0  0  0  0  0  0  0  0  0  0  0  0
    5.4482   -1.5713   -1.3514 C   0  0  0  0  0  0  0  0  0  0  0  0
    7.0925   -1.8156   -5.6199 H   0  0  0  0  0  0  0  0  0  0  0  0
    8.2969   -2.9155   -4.8484 H   0  0  0  0  0  0  0  0  0  0  0  0
    8.5762   -1.1507   -4.8379 H   0  0  0  0  0  0  0  0  0  0  0  0
    8.4873   -2.1329    0.0424 H   0  0  0  0  0  0  0  0  0  0  0  0
    9.0638   -1.5513    1.8674 H   0  0  0  0  0  0  0  0  0  0  0  0
   11.1650   -1.4867    2.7221 H   0  0  0  0  0  0  0  0  0  0  0  0
   12.6787   -1.6364    4.7029 H   0  0  0  0  0  0  0  0  0  0  0  0
    7.7743   -2.3482    5.2555 H   0  0  0  0  0  0  0  0  0  0  0  0
    8.2948   -2.9544    7.6289 H   0  0  0  0  0  0  0  0  0  0  0  0
   11.2299   -0.7666    8.4495 H   0  0  0  0  0  0  0  0  0  0  0  0
   12.5634   -3.3603    9.4383 H   0  0  0  0  0  0  0  0  0  0  0  0
   11.9815   -2.0336   10.4781 H   0  0  0  0  0  0  0  0  0  0  0  0
   13.3332   -1.7490    9.3316 H   0  0  0  0  0  0  0  0  0  0  0  0
    4.6562   -1.5334    1.9816 H   0  0  0  0  0  0  0  0  0  0  0  0
    4.9622   -1.4720   -2.3200 H   0  0  0  0  0  0  0  0  0  0  0  0
  1  2  1  0
  1 29  1  0
  1 30  1  0
  1 31  1  0
  2  3  1  0
  3  4  2  0
  3  5  1  0
  5  6  2  0
  5 28  1  0
  6  7  1  0
  6 32  1  0
  7  8  1  0
  7 23  2  0
  8  9  2  0
  8 10  1  0
 10 11  1  0
 10 33  1  0
 11 12  2  0
 11 16  1  0
 12 13  1  0
 12 34  1  0
 13 14  2  0
 13 35  1  0
 14 15  1  0
 14 22  1  0
 15 16  2  0
 15 17  1  0
 16 36  1  0
 17 18  1  0
 17 37  1  0
 18 19  2  0
 18 20  1  0
 20 21  1  0
 20 22  1  0
 20 38  1  6
 21 39  1  0
 21 40  1  0
 21 41  1  0
 23 24  1  0
 23 42  1  0
 24 25  1  0
 24 28  2  0
 25 26  2  0
 25 27  1  0
 28 43  1  0
M  CHG  2  25   1  27  -1
M  END

