
     RDKit          3D

 35 36  0  0  0  0  0  0  0  0999 V2000
    0.9320   -0.2109   -0.2779 C   0  0  0  0  0  0  0  0  0  0  0  0
    2.4480   -0.4005   -0.2324 C   0  0  0  0  0  0  0  0  0  0  0  0
    2.9831   -0.6397    1.1788 C   0  0  0  0  0  0  0  0  0  0  0  0
    4.4253   -0.8464    1.1689 N   0  0  0  0  0  0  0  0  0  0  0  0
    5.0446   -1.0771    2.4700 C   0  0  1  0  0  0  0  0  0  0  0  0
    4.5954   -2.4059    3.0429 C   0  0  0  0  0  0  0  0  0  0  0  0
    4.0938   -2.6840    4.2938 C   0  0  0  0  0  0  0  0  0  0  0  0
    3.7904   -3.9928    4.5460 N   0  0  0  0  0  0  0  0  0  0  0  0
    4.0455   -4.7264    3.5067 C   0  0  0  0  0  0  0  0  0  0  0  0
    3.7960   -6.2144    3.4717 C   0  0  1  0  0  0  0  0  0  0  0  0
    4.4829   -6.8505    4.4277 F   0  0  0  0  0  0  0  0  0  0  0  0
    2.4994   -6.5001    3.6466 F   0  0  0  0  0  0  0  0  0  0  0  0
    4.1719   -6.7239    2.2844 F   0  0  0  0  0  0  0  0  0  0  0  0
    4.6802   -3.8772    2.1209 S   0  0  0  0  0  0  0  0  0  0  0  0
    6.5602   -1.0068    2.3449 C   0  0  0  0  0  0  0  0  0  0  0  0
    7.2359   -1.3146    1.1867 C   0  0  0  0  0  0  0  0  0  0  0  0
    8.9447   -1.1669    1.3741 S   0  0  0  0  0  0  0  0  0  0  0  0
    8.7649   -0.6873    3.0253 C   0  0  0  0  0  0  0  0  0  0  0  0
    7.4496   -0.6412    3.4225 C   0  0  0  0  0  0  0  0  0  0  0  0
    7.0072   -0.2528    4.8072 C   0  0  0  0  0  0  0  0  0  0  0  0
    0.5812   -0.0397   -1.3075 H   0  0  0  0  0  0  0  0  0  0  0  0
    0.6136    0.6531    0.3291 H   0  0  0  0  0  0  0  0  0  0  0  0
    0.4048   -1.0988    0.1090 H   0  0  0  0  0  0  0  0  0  0  0  0
    2.9445    0.4901   -0.6612 H   0  0  0  0  0  0  0  0  0  0  0  0
    2.7485   -1.2522   -0.8658 H   0  0  0  0  0  0  0  0  0  0  0  0
    2.5034   -1.5388    1.6022 H   0  0  0  0  0  0  0  0  0  0  0  0
    2.6818    0.2057    1.8397 H   0  0  0  0  0  0  0  0  0  0  0  0
    4.8882   -0.0552    0.7228 H   0  0  0  0  0  0  0  0  0  0  0  0
    4.7314   -0.3198    3.2228 H   0  0  0  0  0  0  0  0  0  0  0  0
    3.9251   -1.9324    5.0676 H   0  0  0  0  0  0  0  0  0  0  0  0
    6.8042   -1.6287    0.2383 H   0  0  0  0  0  0  0  0  0  0  0  0
    9.6433   -0.4555    3.6268 H   0  0  0  0  0  0  0  0  0  0  0  0
    7.8677    0.0299    5.4307 H   0  0  0  0  0  0  0  0  0  0  0  0
    6.4851   -1.0809    5.3143 H   0  0  0  0  0  0  0  0  0  0  0  0
    6.3136    0.6052    4.7894 H   0  0  0  0  0  0  0  0  0  0  0  0
  1  2  1  0
  1 21  1  0
  1 22  1  0
  1 23  1  0
  2  3  1  0
  2 24  1  0
  2 25  1  0
  3  4  1  0
  3 26  1  0
  3 27  1  0
  4  5  1  0
  4 28  1  0
  5  6  1  0
  5 15  1  0
  5 29  1  1
  6  7  2  0
  6 14  1  0
  7  8  1  0
  7 30  1  0
  8  9  2  0
  9 10  1  0
  9 14  1  0
 10 11  1  1
 10 12  1  0
 10 13  1  0
 15 16  2  0
 15 19  1  0
 16 17  1  0
 16 31  1  0
 17 18  1  0
 18 19  2  0
 18 32  1  0
 19 20  1  0
 20 33  1  0
 20 34  1  0
 20 35  1  0
M  END

