
     RDKit          3D

 39 40  0  0  0  0  0  0  0  0999 V2000
    3.1838    0.7541   -0.8447 F   0  0  0  0  0  0  0  0  0  0  0  0
    3.6030   -0.3065   -0.1334 C   0  0  1  0  0  0  0  0  0  0  0  0
    2.5332   -1.0324    0.1975 F   0  0  0  0  0  0  0  0  0  0  0  0
    4.3682   -1.0383   -0.9602 F   0  0  0  0  0  0  0  0  0  0  0  0
    4.4720    0.1630    1.3923 S   0  0  0  0  0  0  0  0  0  0  0  0
    5.8565    1.0926    0.6051 C   0  0  0  0  0  0  0  0  0  0  0  0
    6.5660    1.9395    1.6533 C   0  0  0  0  0  0  0  0  0  0  0  0
    7.0135    1.1296    2.7611 N   0  0  0  0  0  0  0  0  0  0  0  0
    7.6593    1.6823    3.8710 C   0  0  0  0  0  0  0  0  0  0  0  0
    7.6879    3.0606    4.1341 C   0  0  0  0  0  0  0  0  0  0  0  0
    8.3186    3.5656    5.2784 C   0  0  0  0  0  0  0  0  0  0  0  0
    8.9402    2.7222    6.2145 C   0  0  0  0  0  0  0  0  0  0  0  0
    9.5510    3.1980    7.3975 N   0  0  0  0  0  0  0  0  0  0  0  0
    9.2696    4.5643    7.8127 C   0  0  0  0  0  0  0  0  0  0  0  0
    9.6021    4.7731    9.2942 C   0  0  0  0  0  0  0  0  0  0  0  0
   11.0455    4.3713    9.6096 C   0  0  0  0  0  0  0  0  0  0  0  0
   11.3140    2.9457    9.1185 C   0  0  0  0  0  0  0  0  0  0  0  0
   10.9376    2.7973    7.6434 C   0  0  0  0  0  0  0  0  0  0  0  0
    8.9058    1.3359    5.9418 C   0  0  0  0  0  0  0  0  0  0  0  0
    8.2920    0.8320    4.8035 C   0  0  0  0  0  0  0  0  0  0  0  0
    5.4435    1.7389   -0.1817 H   0  0  0  0  0  0  0  0  0  0  0  0
    6.5463    0.3728    0.1363 H   0  0  0  0  0  0  0  0  0  0  0  0
    5.8659    2.7063    2.0258 H   0  0  0  0  0  0  0  0  0  0  0  0
    7.3940    2.4865    1.1500 H   0  0  0  0  0  0  0  0  0  0  0  0
    7.3602    0.2123    2.4995 H   0  0  0  0  0  0  0  0  0  0  0  0
    7.2255    3.7670    3.4431 H   0  0  0  0  0  0  0  0  0  0  0  0
    8.3286    4.6467    5.4208 H   0  0  0  0  0  0  0  0  0  0  0  0
    8.2019    4.7695    7.6445 H   0  0  0  0  0  0  0  0  0  0  0  0
    9.8398    5.3042    7.2028 H   0  0  0  0  0  0  0  0  0  0  0  0
    8.9092    4.1626    9.8990 H   0  0  0  0  0  0  0  0  0  0  0  0
    9.4211    5.8281    9.5602 H   0  0  0  0  0  0  0  0  0  0  0  0
   11.2477    4.4588   10.6900 H   0  0  0  0  0  0  0  0  0  0  0  0
   11.7392    5.0678    9.1026 H   0  0  0  0  0  0  0  0  0  0  0  0
   10.7176    2.2305    9.7117 H   0  0  0  0  0  0  0  0  0  0  0  0
   12.3751    2.6765    9.2532 H   0  0  0  0  0  0  0  0  0  0  0  0
   11.0765    1.7565    7.3224 H   0  0  0  0  0  0  0  0  0  0  0  0
   11.6321    3.4128    7.0251 H   0  0  0  0  0  0  0  0  0  0  0  0
    9.3490    0.6369    6.6545 H   0  0  0  0  0  0  0  0  0  0  0  0
    8.2740   -0.2498    4.6387 H   0  0  0  0  0  0  0  0  0  0  0  0
  2  1  1  6
  2  3  1  0
  2  4  1  0
  2  5  1  0
  5  6  1  0
  6  7  1  0
  6 21  1  0
  6 22  1  0
  7  8  1  0
  7 23  1  0
  7 24  1  0
  8  9  1  0
  8 25  1  0
  9 10  2  0
  9 20  1  0
 10 11  1  0
 10 26  1  0
 11 12  2  0
 11 27  1  0
 12 13  1  0
 12 19  1  0
 13 14  1  0
 13 18  1  0
 14 15  1  0
 14 28  1  0
 14 29  1  0
 15 16  1  0
 15 30  1  0
 15 31  1  0
 16 17  1  0
 16 32  1  0
 16 33  1  0
 17 18  1  0
 17 34  1  0
 17 35  1  0
 18 36  1  0
 18 37  1  0
 19 20  2  0
 19 38  1  0
 20 39  1  0
M  END

