
     RDKit          3D

 40 41  0  0  0  0  0  0  0  0999 V2000
    1.2777   -0.2636    0.8860 C   0  0  0  0  0  0  0  0  0  0  0  0
    2.6760   -0.1867    0.3267 C   0  0  0  0  0  0  0  0  0  0  0  0
    3.1992    1.0205   -0.1690 C   0  0  0  0  0  0  0  0  0  0  0  0
    4.4885    1.0832   -0.6918 C   0  0  0  0  0  0  0  0  0  0  0  0
    5.2947   -0.0659   -0.7329 C   0  0  0  0  0  0  0  0  0  0  0  0
    6.6702    0.0554   -1.3029 C   0  0  0  0  0  0  0  0  0  0  0  0
    7.1171    1.1073   -1.7332 O   0  0  0  0  0  0  0  0  0  0  0  0
    7.4747   -1.1580   -1.3265 C   0  0  0  0  0  0  0  0  0  0  0  0
    8.1442   -2.1758   -1.3445 C   0  0  0  0  0  0  0  0  0  0  0  0
    8.8581   -3.3996   -1.3315 C   0  0  0  0  0  0  0  0  0  0  0  0
   10.1362   -3.5115   -1.8036 C   0  0  0  0  0  0  0  0  0  0  0  0
   10.8395   -4.6871   -1.8168 N   0  0  0  0  0  0  0  0  0  0  0  0
   12.2269   -4.6847   -2.2373 C   0  0  0  0  0  0  0  0  0  0  0  0
   12.9976   -4.1049   -1.2226 O   0  0  0  0  0  0  0  0  0  0  0  0
   14.3894   -4.0463   -1.5045 C   0  0  0  0  0  0  0  0  0  0  0  0
   15.0818   -3.5613   -0.2427 C   0  0  0  0  0  0  0  0  0  0  0  0
   14.9003   -4.4519    0.8277 O   0  0  0  0  0  0  0  0  0  0  0  0
   10.3028   -5.8822   -1.2904 C   0  0  0  0  0  0  0  0  0  0  0  0
   10.9184   -6.9228   -1.2608 O   0  0  0  0  0  0  0  0  0  0  0  0
    9.0076   -5.7485   -0.8279 N   0  0  0  0  0  0  0  0  0  0  0  0
    8.5943   -6.6006   -0.4550 H   0  0  0  0  0  0  0  0  0  0  0  0
    8.1933   -4.6050   -0.7863 C   0  0  0  0  0  0  0  0  0  0  0  0
    7.0695   -4.6580   -0.3377 O   0  0  0  0  0  0  0  0  0  0  0  0
    4.7824   -1.2792   -0.2391 C   0  0  0  0  0  0  0  0  0  0  0  0
    3.4911   -1.3315    0.2820 C   0  0  0  0  0  0  0  0  0  0  0  0
    0.8033    0.7274    0.9346 H   0  0  0  0  0  0  0  0  0  0  0  0
    1.2769   -0.6926    1.9016 H   0  0  0  0  0  0  0  0  0  0  0  0
    0.6377   -0.9132    0.2647 H   0  0  0  0  0  0  0  0  0  0  0  0
    2.5826    1.9234   -0.1421 H   0  0  0  0  0  0  0  0  0  0  0  0
    4.8985    2.0189   -1.0773 H   0  0  0  0  0  0  0  0  0  0  0  0
   10.6659   -2.6425   -2.1980 H   0  0  0  0  0  0  0  0  0  0  0  0
   12.3088   -4.1032   -3.1763 H   0  0  0  0  0  0  0  0  0  0  0  0
   12.5161   -5.7308   -2.4272 H   0  0  0  0  0  0  0  0  0  0  0  0
   14.5890   -3.3610   -2.3536 H   0  0  0  0  0  0  0  0  0  0  0  0
   14.7649   -5.0524   -1.7750 H   0  0  0  0  0  0  0  0  0  0  0  0
   14.7141   -2.5412   -0.0061 H   0  0  0  0  0  0  0  0  0  0  0  0
   16.1645   -3.4842   -0.4339 H   0  0  0  0  0  0  0  0  0  0  0  0
   13.9464   -4.5910    0.9163 H   0  0  0  0  0  0  0  0  0  0  0  0
    5.3957   -2.1835   -0.2621 H   0  0  0  0  0  0  0  0  0  0  0  0
    3.1060   -2.2815    0.6636 H   0  0  0  0  0  0  0  0  0  0  0  0
  1  2  1  0
  1 26  1  0
  1 27  1  0
  1 28  1  0
  2  3  2  0
  2 25  1  0
  3  4  1  0
  3 29  1  0
  4  5  2  0
  4 30  1  0
  5  6  1  0
  5 24  1  0
  6  7  2  0
  6  8  1  0
  8  9  3  0
  9 10  1  0
 10 11  2  0
 10 22  1  0
 11 12  1  0
 11 31  1  0
 12 13  1  0
 12 18  1  0
 13 14  1  0
 13 32  1  0
 13 33  1  0
 14 15  1  0
 15 16  1  0
 15 34  1  0
 15 35  1  0
 16 17  1  0
 16 36  1  0
 16 37  1  0
 17 38  1  0
 18 19  2  0
 18 20  1  0
 20 21  1  0
 20 22  1  0
 22 23  2  0
 24 25  2  0
 24 39  1  0
 25 40  1  0
M  END

