
     RDKit          3D

 29 30  0  0  0  0  0  0  0  0999 V2000
    1.0704   -0.1193   -0.9766 C   0  0  0  0  0  0  0  0  0  0  0  0
    2.4822   -0.0641   -0.3558 C   0  0  1  0  0  0  0  0  0  0  0  0
    3.4458    0.6520   -1.3148 C   0  0  0  0  0  0  0  0  0  0  0  0
    2.4285    0.6949    1.0066 C   0  0  0  0  0  0  0  0  0  0  0  0
    1.9910    2.0776    0.8565 N   0  0  0  0  0  0  0  0  0  0  0  0
    2.9396   -1.4817   -0.0548 C   0  0  0  0  0  0  0  0  0  0  0  0
    2.3222   -2.2789    0.7645 N   0  0  0  0  0  0  0  0  0  0  0  0
    2.9289   -3.5118    0.8717 C   0  0  0  0  0  0  0  0  0  0  0  0
    2.3385   -4.5116    1.7591 C   0  0  0  0  0  0  0  0  0  0  0  0
    1.1923   -4.3762    2.5159 C   0  0  0  0  0  0  0  0  0  0  0  0
    0.8826   -5.5406    3.2769 C   0  0  0  0  0  0  0  0  0  0  0  0
    1.7933   -6.5513    3.0956 C   0  0  0  0  0  0  0  0  0  0  0  0
    3.0425   -6.0930    1.9885 S   0  0  0  0  0  0  0  0  0  0  0  0
    4.0619   -3.6557    0.0979 C   0  0  0  0  0  0  0  0  0  0  0  0
    4.3723   -2.2058   -0.7829 S   0  0  0  0  0  0  0  0  0  0  0  0
    0.6733    0.9020   -1.0668 H   0  0  0  0  0  0  0  0  0  0  0  0
    0.3940   -0.7084   -0.3406 H   0  0  0  0  0  0  0  0  0  0  0  0
    1.0960   -0.5866   -1.9739 H   0  0  0  0  0  0  0  0  0  0  0  0
    3.0797    1.6696   -1.5156 H   0  0  0  0  0  0  0  0  0  0  0  0
    3.5149    0.1292   -2.2821 H   0  0  0  0  0  0  0  0  0  0  0  0
    4.4624    0.7284   -0.8938 H   0  0  0  0  0  0  0  0  0  0  0  0
    3.4201    0.5935    1.4942 H   0  0  0  0  0  0  0  0  0  0  0  0
    1.7144    0.1601    1.6505 H   0  0  0  0  0  0  0  0  0  0  0  0
    2.7777    2.7016    0.6845 H   0  0  0  0  0  0  0  0  0  0  0  0
    1.5392    2.4089    1.7064 H   0  0  0  0  0  0  0  0  0  0  0  0
    0.6052   -3.4583    2.5088 H   0  0  0  0  0  0  0  0  0  0  0  0
    0.0165   -5.6261    3.9352 H   0  0  0  0  0  0  0  0  0  0  0  0
    1.8044   -7.5421    3.5475 H   0  0  0  0  0  0  0  0  0  0  0  0
    4.7101   -4.5252    0.0061 H   0  0  0  0  0  0  0  0  0  0  0  0
  2  1  1  6
  1 16  1  0
  1 17  1  0
  1 18  1  0
  2  3  1  0
  2  4  1  0
  2  6  1  0
  3 19  1  0
  3 20  1  0
  3 21  1  0
  4  5  1  0
  4 22  1  0
  4 23  1  0
  5 24  1  0
  5 25  1  0
  6  7  2  0
  6 15  1  0
  7  8  1  0
  8  9  1  0
  8 14  2  0
  9 10  2  0
  9 13  1  0
 10 11  1  0
 10 26  1  0
 11 12  2  0
 11 27  1  0
 12 13  1  0
 12 28  1  0
 14 15  1  0
 14 29  1  0
M  END

