
     RDKit          3D

 19 20  0  0  0  0  0  0  0  0999 V2000
    1.1356    0.1520   -0.1307 N   0  0  0  0  0  0  0  0  0  0  0  0
    2.2947    0.0873   -0.1037 C   0  0  0  0  0  0  0  0  0  0  0  0
    3.7244    0.1091   -0.0675 C   0  0  0  0  0  0  0  0  0  0  0  0
    4.4039    1.3052   -0.0316 C   0  0  0  0  0  0  0  0  0  0  0  0
    6.1198    1.1282    0.0102 S   0  0  0  0  0  0  0  0  0  0  0  0
    5.9808   -0.6177   -0.0208 C   0  0  0  0  0  0  0  0  0  0  0  0
    7.0494   -1.5223   -0.0060 C   0  0  0  0  0  0  0  0  0  0  0  0
    6.7736   -2.8880   -0.0297 C   0  0  0  0  0  0  0  0  0  0  0  0
    7.8890   -3.8938   -0.0260 C   0  0  0  0  0  0  0  0  0  0  0  0
    8.1587   -4.6147   -1.6769 Cl  0  0  0  0  0  0  0  0  0  0  0  0
    5.4321   -3.3270   -0.0766 C   0  0  0  0  0  0  0  0  0  0  0  0
    4.3762   -2.4262   -0.0919 C   0  0  0  0  0  0  0  0  0  0  0  0
    2.7482   -3.0418   -0.1430 Cl  0  0  0  0  0  0  0  0  0  0  0  0
    4.6239   -1.0327   -0.0632 C   0  0  0  0  0  0  0  0  0  0  0  0
    3.9539    2.2971   -0.0288 H   0  0  0  0  0  0  0  0  0  0  0  0
    8.0807   -1.1634    0.0229 H   0  0  0  0  0  0  0  0  0  0  0  0
    7.6709   -4.7393    0.6397 H   0  0  0  0  0  0  0  0  0  0  0  0
    8.8408   -3.4393    0.2756 H   0  0  0  0  0  0  0  0  0  0  0  0
    5.2101   -4.3950   -0.1097 H   0  0  0  0  0  0  0  0  0  0  0  0
  1  2  3  0
  2  3  1  0
  3  4  2  0
  3 14  1  0
  4  5  1  0
  4 15  1  0
  5  6  1  0
  6  7  1  0
  6 14  2  0
  7  8  2  0
  7 16  1  0
  8  9  1  0
  8 11  1  0
  9 10  1  0
  9 17  1  0
  9 18  1  0
 11 12  2  0
 11 19  1  0
 12 13  1  0
 12 14  1  0
M  END

