
     RDKit          3D

 47 48  0  0  0  0  0  0  0  0999 V2000
    1.4322   -1.7142   -0.5371 C   0  0  0  0  0  0  0  0  0  0  0  0
    2.7890   -1.0799   -0.3479 C   0  0  0  0  0  0  0  0  0  0  0  0
    3.3365   -0.2164   -1.2989 C   0  0  0  0  0  0  0  0  0  0  0  0
    4.5969    0.3785   -1.1341 C   0  0  0  0  0  0  0  0  0  0  0  0
    5.1040    1.2808   -2.2403 C   0  0  0  0  0  0  0  0  0  0  0  0
    5.3568    0.1147    0.0336 C   0  0  0  0  0  0  0  0  0  0  0  0
    6.7307    0.7894    0.1947 C   0  0  1  0  0  0  0  0  0  0  0  0
    6.9833    1.4839    1.4612 N   0  0  0  0  0  0  0  0  0  0  0  0
    7.9329   -0.1420   -0.0994 C   0  0  0  0  0  0  0  0  0  0  0  0
    7.9444   -0.6755   -1.4569 N   0  0  0  0  0  0  0  0  0  0  0  0
    9.1305   -0.3783   -2.2545 C   0  0  0  0  0  0  0  0  0  0  0  0
   10.3134   -1.3163   -1.9638 C   0  0  0  0  0  0  0  0  0  0  0  0
    9.8848   -2.7809   -2.1208 C   0  0  0  0  0  0  0  0  0  0  0  0
    8.6302   -3.0976   -1.2884 C   0  0  2  0  0  0  0  0  0  0  0  0
    8.1376   -4.5299   -1.5008 C   0  0  0  0  0  0  0  0  0  0  0  0
    7.5250   -2.0659   -1.6057 C   0  0  0  0  0  0  0  0  0  0  0  0
    4.8129   -0.7657    1.0063 C   0  0  0  0  0  0  0  0  0  0  0  0
    5.5158   -1.1178    2.3036 C   0  0  0  0  0  0  0  0  0  0  0  0
    3.5518   -1.3402    0.7956 C   0  0  0  0  0  0  0  0  0  0  0  0
    0.9805   -1.4242   -1.4974 H   0  0  0  0  0  0  0  0  0  0  0  0
    0.7345   -1.4181    0.2646 H   0  0  0  0  0  0  0  0  0  0  0  0
    1.4959   -2.8152   -0.5142 H   0  0  0  0  0  0  0  0  0  0  0  0
    2.7682    0.0023   -2.2083 H   0  0  0  0  0  0  0  0  0  0  0  0
    4.3869    1.3116   -3.0736 H   0  0  0  0  0  0  0  0  0  0  0  0
    6.0703    0.9245   -2.6285 H   0  0  0  0  0  0  0  0  0  0  0  0
    5.2515    2.3190   -1.8966 H   0  0  0  0  0  0  0  0  0  0  0  0
    6.7910    1.5684   -0.5763 H   0  0  0  0  0  0  0  0  0  0  0  0
    7.0531    0.8348    2.2412 H   0  0  0  0  0  0  0  0  0  0  0  0
    6.2153    2.1177    1.6809 H   0  0  0  0  0  0  0  0  0  0  0  0
    7.9735   -0.9523    0.6543 H   0  0  0  0  0  0  0  0  0  0  0  0
    8.8334    0.4682    0.0784 H   0  0  0  0  0  0  0  0  0  0  0  0
    9.4143    0.6746   -2.0979 H   0  0  0  0  0  0  0  0  0  0  0  0
    8.8588   -0.4722   -3.3236 H   0  0  0  0  0  0  0  0  0  0  0  0
   10.6754   -1.1420   -0.9341 H   0  0  0  0  0  0  0  0  0  0  0  0
   11.1564   -1.0823   -2.6370 H   0  0  0  0  0  0  0  0  0  0  0  0
   10.7088   -3.4618   -1.8448 H   0  0  0  0  0  0  0  0  0  0  0  0
    9.6620   -2.9815   -3.1869 H   0  0  0  0  0  0  0  0  0  0  0  0
    8.8990   -2.9816   -0.2204 H   0  0  0  0  0  0  0  0  0  0  0  0
    7.8410   -4.6953   -2.5511 H   0  0  0  0  0  0  0  0  0  0  0  0
    7.2614   -4.7539   -0.8702 H   0  0  0  0  0  0  0  0  0  0  0  0
    8.9221   -5.2656   -1.2590 H   0  0  0  0  0  0  0  0  0  0  0  0
    6.6391   -2.2422   -0.9767 H   0  0  0  0  0  0  0  0  0  0  0  0
    7.1947   -2.2201   -2.6516 H   0  0  0  0  0  0  0  0  0  0  0  0
    6.5817   -1.3526    2.1679 H   0  0  0  0  0  0  0  0  0  0  0  0
    5.0466   -1.9991    2.7657 H   0  0  0  0  0  0  0  0  0  0  0  0
    5.4513   -0.2982    3.0389 H   0  0  0  0  0  0  0  0  0  0  0  0
    3.1533   -2.0188    1.5571 H   0  0  0  0  0  0  0  0  0  0  0  0
  1  2  1  0
  1 20  1  0
  1 21  1  0
  1 22  1  0
  2  3  2  0
  2 19  1  0
  3  4  1  0
  3 23  1  0
  4  5  1  0
  4  6  2  0
  5 24  1  0
  5 25  1  0
  5 26  1  0
  6  7  1  0
  6 17  1  0
  7  8  1  0
  7  9  1  0
  7 27  1  6
  8 28  1  0
  8 29  1  0
  9 10  1  0
  9 30  1  0
  9 31  1  0
 10 11  1  0
 10 16  1  0
 11 12  1  0
 11 32  1  0
 11 33  1  0
 12 13  1  0
 12 34  1  0
 12 35  1  0
 13 14  1  0
 13 36  1  0
 13 37  1  0
 14 15  1  0
 14 16  1  0
 14 38  1  1
 15 39  1  0
 15 40  1  0
 15 41  1  0
 16 42  1  0
 16 43  1  0
 17 18  1  0
 17 19  2  0
 18 44  1  0
 18 45  1  0
 18 46  1  0
 19 47  1  0
M  END

