
     RDKit          3D

 52 55  0  0  0  0  0  0  0  0999 V2000
    2.5581   -1.5632    1.3881 N   0  0  0  0  0  0  0  0  0  0  0  0
    3.7340   -1.7536    0.7311 C   0  0  0  0  0  0  0  0  0  0  0  0
    4.7371   -2.2221    1.2443 O   0  0  0  0  0  0  0  0  0  0  0  0
    3.7101   -1.3365   -0.7041 C   0  0  0  0  0  0  0  0  0  0  0  0
    4.7868   -1.4195   -1.6201 C   0  0  0  0  0  0  0  0  0  0  0  0
    4.2877   -0.9183   -2.8124 C   0  0  0  0  0  0  0  0  0  0  0  0
    4.9674   -0.7539   -4.1472 C   0  0  1  0  0  0  0  0  0  0  0  0
    4.4363   -1.7035   -5.2492 C   0  0  0  0  0  0  0  0  0  0  0  0
    3.0769   -1.2579   -5.8008 C   0  0  0  0  0  0  0  0  0  0  0  0
    3.0994    0.2191   -6.2078 C   0  0  0  0  0  0  0  0  0  0  0  0
    3.6058    1.0759   -5.1295 N   0  0  0  0  0  0  0  0  0  0  0  0
    2.7688    2.0238   -4.5726 C   0  0  0  0  0  0  0  0  0  0  0  0
    1.5760    2.0376   -4.8538 O   0  0  0  0  0  0  0  0  0  0  0  0
    3.3797    3.0278   -3.5770 C   0  0  1  0  0  0  0  0  0  0  0  0
    4.5278    3.9127   -4.1725 C   0  0  0  0  0  0  0  0  0  0  0  0
    4.1962    5.3898   -4.5148 C   0  0  1  0  0  0  0  0  0  0  0  0
    3.4558    5.6216   -5.8545 C   0  0  0  0  0  0  0  0  0  0  0  0
    2.0237    5.0721   -5.8686 C   0  0  0  0  0  0  0  0  0  0  0  0
    1.2313    5.4523   -4.6083 C   0  0  0  0  0  0  0  0  0  0  0  0
    2.0133    5.2810   -3.2804 C   0  0  1  0  0  0  0  0  0  0  0  0
    2.2903    3.8283   -2.8159 C   0  0  0  0  0  0  0  0  0  0  0  0
    3.3493    5.9911   -3.4029 C   0  0  0  0  0  0  0  0  0  0  0  0
    3.7017    6.9206   -2.7106 O   0  0  0  0  0  0  0  0  0  0  0  0
    4.9380    0.7067   -4.6649 C   0  0  0  0  0  0  0  0  0  0  0  0
    2.9846   -0.5781   -2.5418 N   0  0  0  0  0  0  0  0  0  0  0  0
    2.3044   -0.1727   -3.1756 H   0  0  0  0  0  0  0  0  0  0  0  0
    2.6230   -0.8218   -1.2784 N   0  0  0  0  0  0  0  0  0  0  0  0
    2.4970   -1.8236    2.3637 H   0  0  0  0  0  0  0  0  0  0  0  0
    1.7591   -1.1715    0.9054 H   0  0  0  0  0  0  0  0  0  0  0  0
    5.7852   -1.7974   -1.4178 H   0  0  0  0  0  0  0  0  0  0  0  0
    6.0241   -1.0060   -3.9666 H   0  0  0  0  0  0  0  0  0  0  0  0
    4.3867   -2.7340   -4.8646 H   0  0  0  0  0  0  0  0  0  0  0  0
    5.1729   -1.7076   -6.0728 H   0  0  0  0  0  0  0  0  0  0  0  0
    2.2842   -1.4248   -5.0520 H   0  0  0  0  0  0  0  0  0  0  0  0
    2.8023   -1.8707   -6.6750 H   0  0  0  0  0  0  0  0  0  0  0  0
    2.0983    0.5756   -6.4750 H   0  0  0  0  0  0  0  0  0  0  0  0
    3.7620    0.3487   -7.0846 H   0  0  0  0  0  0  0  0  0  0  0  0
    3.8568    2.3918   -2.8148 H   0  0  0  0  0  0  0  0  0  0  0  0
    4.9555    3.4359   -5.0692 H   0  0  0  0  0  0  0  0  0  0  0  0
    5.3405    3.9420   -3.4291 H   0  0  0  0  0  0  0  0  0  0  0  0
    5.1470    5.9438   -4.5405 H   0  0  0  0  0  0  0  0  0  0  0  0
    4.0462    5.1874   -6.6803 H   0  0  0  0  0  0  0  0  0  0  0  0
    3.4354    6.7116   -6.0322 H   0  0  0  0  0  0  0  0  0  0  0  0
    2.0307    3.9806   -5.9751 H   0  0  0  0  0  0  0  0  0  0  0  0
    1.4951    5.4521   -6.7590 H   0  0  0  0  0  0  0  0  0  0  0  0
    0.2986    4.8677   -4.5602 H   0  0  0  0  0  0  0  0  0  0  0  0
    0.9364    6.5149   -4.6728 H   0  0  0  0  0  0  0  0  0  0  0  0
    1.4474    5.7792   -2.4785 H   0  0  0  0  0  0  0  0  0  0  0  0
    1.3514    3.2562   -2.8277 H   0  0  0  0  0  0  0  0  0  0  0  0
    2.6091    3.8975   -1.7634 H   0  0  0  0  0  0  0  0  0  0  0  0
    5.2809    1.3876   -3.8800 H   0  0  0  0  0  0  0  0  0  0  0  0
    5.6510    0.7937   -5.5061 H   0  0  0  0  0  0  0  0  0  0  0  0
  1  2  1  0
  1 28  1  0
  1 29  1  0
  2  3  2  0
  2  4  1  0
  4  5  1  0
  4 27  2  0
  5  6  2  0
  5 30  1  0
  6  7  1  0
  6 25  1  0
  7  8  1  0
  7 24  1  0
  7 31  1  1
  8  9  1  0
  8 32  1  0
  8 33  1  0
  9 10  1  0
  9 34  1  0
  9 35  1  0
 10 11  1  0
 10 36  1  0
 10 37  1  0
 11 12  1  0
 11 24  1  0
 12 13  2  0
 12 14  1  0
 14 15  1  0
 14 21  1  0
 14 38  1  1
 15 16  1  0
 15 39  1  0
 15 40  1  0
 16 17  1  0
 16 22  1  0
 16 41  1  6
 17 18  1  0
 17 42  1  0
 17 43  1  0
 18 19  1  0
 18 44  1  0
 18 45  1  0
 19 20  1  0
 19 46  1  0
 19 47  1  0
 20 21  1  0
 20 22  1  0
 20 48  1  1
 21 49  1  0
 21 50  1  0
 22 23  2  0
 24 51  1  0
 24 52  1  0
 25 26  1  0
 25 27  1  0
M  END

