
     RDKit          3D

 70 73  0  0  0  0  0  0  0  0999 V2000
    1.5442    0.1068    1.4178 C   0  0  0  0  0  0  0  0  0  0  0  0
    2.4817    0.1902    0.2562 C   0  0  0  0  0  0  0  0  0  0  0  0
    3.1286    1.3142   -0.0097 N   0  0  0  0  0  0  0  0  0  0  0  0
    3.9208    1.0519   -1.0767 N   0  0  0  0  0  0  0  0  0  0  0  0
    4.7538    2.1033   -1.6229 C   0  0  0  0  0  0  0  0  0  0  0  0
    3.8164   -0.2292   -1.5052 C   0  0  0  0  0  0  0  0  0  0  0  0
    4.5957   -0.7552   -2.6660 C   0  0  0  0  0  0  0  0  0  0  0  0
    2.8695   -0.8424   -0.6663 C   0  0  0  0  0  0  0  0  0  0  0  0
    2.4770   -2.2290   -0.7200 C   0  0  0  0  0  0  0  0  0  0  0  0
    1.4353   -2.7242   -0.1356 N   0  0  0  0  0  0  0  0  0  0  0  0
    1.2113   -4.0818   -0.0882 C   0  0  0  0  0  0  0  0  0  0  0  0
    2.5335   -5.2457   -0.2172 S   0  0  0  0  0  0  0  0  0  0  0  0
    1.4412   -6.5868   -0.0307 C   0  0  0  0  0  0  0  0  0  0  0  0
    0.1401   -6.1739    0.1342 C   0  0  0  0  0  0  0  0  0  0  0  0
   -0.0073   -4.7351    0.0988 C   0  0  0  0  0  0  0  0  0  0  0  0
   -1.3575   -4.0804    0.1894 C   0  0  0  0  0  0  0  0  0  0  0  0
   -2.3790   -4.7518    0.3304 O   0  0  0  0  0  0  0  0  0  0  0  0
   -1.4033   -2.7245    0.0840 N   0  0  0  0  0  0  0  0  0  0  0  0
   -2.6767   -2.0083    0.1502 C   0  0  1  0  0  0  0  0  0  0  0  0
   -2.4408   -0.5207    0.4562 C   0  0  0  0  0  0  0  0  0  0  0  0
   -1.8343    0.2483   -0.7287 C   0  0  0  0  0  0  0  0  0  0  0  0
   -2.6672    0.0694   -2.0054 C   0  0  0  0  0  0  0  0  0  0  0  0
   -2.8759   -1.4159   -2.3306 C   0  0  0  0  0  0  0  0  0  0  0  0
   -3.4991   -2.1659   -1.1480 C   0  0  0  0  0  0  0  0  0  0  0  0
   -0.9584   -7.1921    0.3198 C   0  0  0  0  0  0  0  0  0  0  0  0
   -0.4036   -8.5949    0.6068 C   0  0  0  0  0  0  0  0  0  0  0  0
    0.8054   -9.0340   -0.2494 C   0  0  1  0  0  0  0  0  0  0  0  0
    0.5361   -9.3948   -1.7581 C   0  0  1  0  0  0  0  0  0  0  0  0
    0.3876   -8.1685   -2.6821 C   0  0  0  0  0  0  0  0  0  0  0  0
    1.7212  -10.2432   -2.2709 C   0  0  0  0  0  0  0  0  0  0  0  0
   -0.7378  -10.2557   -1.8727 C   0  0  0  0  0  0  0  0  0  0  0  0
    1.9423   -8.0059   -0.0271 C   0  0  0  0  0  0  0  0  0  0  0  0
    1.6688    0.9941    2.0540 H   0  0  0  0  0  0  0  0  0  0  0  0
    1.7284   -0.8007    2.0122 H   0  0  0  0  0  0  0  0  0  0  0  0
    0.4954    0.0623    1.0881 H   0  0  0  0  0  0  0  0  0  0  0  0
    4.5850    2.9988   -1.0139 H   0  0  0  0  0  0  0  0  0  0  0  0
    4.4867    2.3211   -2.6695 H   0  0  0  0  0  0  0  0  0  0  0  0
    5.8204    1.8310   -1.5785 H   0  0  0  0  0  0  0  0  0  0  0  0
    5.6786   -0.5912   -2.5372 H   0  0  0  0  0  0  0  0  0  0  0  0
    4.3002   -0.2653   -3.6096 H   0  0  0  0  0  0  0  0  0  0  0  0
    4.4325   -1.8337   -2.7910 H   0  0  0  0  0  0  0  0  0  0  0  0
    3.1441   -2.8951   -1.3004 H   0  0  0  0  0  0  0  0  0  0  0  0
   -0.5158   -2.2274    0.0197 H   0  0  0  0  0  0  0  0  0  0  0  0
   -3.2573   -2.4637    0.9690 H   0  0  0  0  0  0  0  0  0  0  0  0
   -1.8111   -0.4192    1.3565 H   0  0  0  0  0  0  0  0  0  0  0  0
   -3.4170   -0.0726    0.7103 H   0  0  0  0  0  0  0  0  0  0  0  0
   -0.8044   -0.1042   -0.9207 H   0  0  0  0  0  0  0  0  0  0  0  0
   -1.7431    1.3172   -0.4721 H   0  0  0  0  0  0  0  0  0  0  0  0
   -2.1848    0.5886   -2.8510 H   0  0  0  0  0  0  0  0  0  0  0  0
   -3.6526    0.5525   -1.8658 H   0  0  0  0  0  0  0  0  0  0  0  0
   -1.9024   -1.8758   -2.5792 H   0  0  0  0  0  0  0  0  0  0  0  0
   -3.5089   -1.5283   -3.2270 H   0  0  0  0  0  0  0  0  0  0  0  0
   -3.6142   -3.2380   -1.3650 H   0  0  0  0  0  0  0  0  0  0  0  0
   -4.5136   -1.7715   -0.9553 H   0  0  0  0  0  0  0  0  0  0  0  0
   -1.6124   -7.1863   -0.5687 H   0  0  0  0  0  0  0  0  0  0  0  0
   -1.6218   -6.8729    1.1350 H   0  0  0  0  0  0  0  0  0  0  0  0
   -1.2167   -9.3325    0.5425 H   0  0  0  0  0  0  0  0  0  0  0  0
   -0.0667   -8.6192    1.6589 H   0  0  0  0  0  0  0  0  0  0  0  0
    1.1542   -9.9819    0.1961 H   0  0  0  0  0  0  0  0  0  0  0  0
    1.2892   -7.5372   -2.6826 H   0  0  0  0  0  0  0  0  0  0  0  0
   -0.4638   -7.5339   -2.4004 H   0  0  0  0  0  0  0  0  0  0  0  0
    0.2211   -8.5027   -3.7199 H   0  0  0  0  0  0  0  0  0  0  0  0
    2.6773   -9.6990   -2.2146 H   0  0  0  0  0  0  0  0  0  0  0  0
    1.5695  -10.5259   -3.3254 H   0  0  0  0  0  0  0  0  0  0  0  0
    1.8301  -11.1728   -1.6880 H   0  0  0  0  0  0  0  0  0  0  0  0
   -1.6484   -9.6826   -1.6411 H   0  0  0  0  0  0  0  0  0  0  0  0
   -0.7018  -11.1241   -1.1937 H   0  0  0  0  0  0  0  0  0  0  0  0
   -0.8471  -10.6421   -2.8992 H   0  0  0  0  0  0  0  0  0  0  0  0
    2.7415   -8.1292   -0.7753 H   0  0  0  0  0  0  0  0  0  0  0  0
    2.4217   -8.2159    0.9473 H   0  0  0  0  0  0  0  0  0  0  0  0
  1  2  1  0
  1 33  1  0
  1 34  1  0
  1 35  1  0
  2  3  2  0
  2  8  1  0
  3  4  1  0
  4  5  1  0
  4  6  1  0
  5 36  1  0
  5 37  1  0
  5 38  1  0
  6  7  1  0
  6  8  2  0
  7 39  1  0
  7 40  1  0
  7 41  1  0
  8  9  1  0
  9 10  2  0
  9 42  1  0
 10 11  1  0
 11 12  2  0
 11 15  1  0
 12 13  1  0
 13 14  2  0
 13 32  1  0
 14 15  1  0
 14 25  1  0
 15 16  2  0
 16 17  1  0
 16 18  1  0
 18 19  1  0
 18 43  1  0
 19 20  1  0
 19 24  1  0
 19 44  1  1
 20 21  1  0
 20 45  1  0
 20 46  1  0
 21 22  1  0
 21 47  1  0
 21 48  1  0
 22 23  1  0
 22 49  1  0
 22 50  1  0
 23 24  1  0
 23 51  1  0
 23 52  1  0
 24 53  1  0
 24 54  1  0
 25 26  1  0
 25 55  1  0
 25 56  1  0
 26 27  1  0
 26 57  1  0
 26 58  1  0
 27 28  1  0
 27 32  1  0
 27 59  1  1
 28 29  1  6
 28 30  1  0
 28 31  1  0
 29 60  1  0
 29 61  1  0
 29 62  1  0
 30 63  1  0
 30 64  1  0
 30 65  1  0
 31 66  1  0
 31 67  1  0
 31 68  1  0
 32 69  1  0
 32 70  1  0
M  CHG  2  12   1  17  -1
M  END

