
     RDKit          3D

 49 52  0  0  0  0  0  0  0  0999 V2000
   -0.4896    0.2284    0.8098 O   0  0  0  0  0  0  0  0  0  0  0  0
    0.4479    0.2503    0.0488 C   0  0  0  0  0  0  0  0  0  0  0  0
    1.1345    1.4893   -0.5410 C   0  0  0  0  0  0  0  0  0  0  0  0
    2.1801    0.9101   -1.3508 N   0  0  0  0  0  0  0  0  0  0  0  0
    2.1800   -0.4591   -1.3280 C   0  0  0  0  0  0  0  0  0  0  0  0
    2.9210   -1.2215   -1.9064 O   0  0  0  0  0  0  0  0  0  0  0  0
    1.1172   -0.8387   -0.4750 N   0  0  0  0  0  0  0  0  0  0  0  0
    0.8063   -2.2287   -0.1875 C   0  0  0  0  0  0  0  0  0  0  0  0
    1.6576   -2.7799    0.9674 C   0  0  0  0  0  0  0  0  0  0  0  0
    1.4266   -4.1899    1.2094 N   0  0  0  0  0  0  0  0  0  0  0  0
    1.7013   -4.6491    2.5680 C   0  0  0  0  0  0  0  0  0  0  0  0
    0.8841   -5.9018    2.8641 C   0  0  0  0  0  0  0  0  0  0  0  0
    1.0029   -6.9299    1.7632 C   0  0  0  0  0  0  0  0  0  0  0  0
    0.6536   -8.2702    2.0024 C   0  0  0  0  0  0  0  0  0  0  0  0
    0.7014   -9.2251    0.9890 C   0  0  0  0  0  0  0  0  0  0  0  0
    1.0971   -8.8426   -0.2979 C   0  0  0  0  0  0  0  0  0  0  0  0
    1.4505   -7.5170   -0.5432 C   0  0  0  0  0  0  0  0  0  0  0  0
    1.4209   -6.5482    0.4757 C   0  0  0  0  0  0  0  0  0  0  0  0
    1.8280   -5.1138    0.1467 C   0  0  2  0  0  0  0  0  0  0  0  0
    3.3181   -4.9989   -0.3439 C   0  0  0  0  0  0  0  0  0  0  0  0
    4.4243   -5.2773    0.6522 C   0  0  0  0  0  0  0  0  0  0  0  0
    4.7245   -6.5862    1.0725 C   0  0  0  0  0  0  0  0  0  0  0  0
    5.7477   -6.8298    1.9920 C   0  0  0  0  0  0  0  0  0  0  0  0
    6.5015   -5.7706    2.5082 C   0  0  0  0  0  0  0  0  0  0  0  0
    6.2284   -4.4666    2.0866 C   0  0  0  0  0  0  0  0  0  0  0  0
    5.2026   -4.2269    1.1673 C   0  0  0  0  0  0  0  0  0  0  0  0
    1.5097    2.1273    0.2781 H   0  0  0  0  0  0  0  0  0  0  0  0
    0.3987    2.0760   -1.1188 H   0  0  0  0  0  0  0  0  0  0  0  0
    2.8475    1.4214   -1.9129 H   0  0  0  0  0  0  0  0  0  0  0  0
    0.9849   -2.7923   -1.1134 H   0  0  0  0  0  0  0  0  0  0  0  0
   -0.2610   -2.2925    0.0668 H   0  0  0  0  0  0  0  0  0  0  0  0
    1.3770   -2.2319    1.8806 H   0  0  0  0  0  0  0  0  0  0  0  0
    2.7198   -2.5276    0.7657 H   0  0  0  0  0  0  0  0  0  0  0  0
    1.4097   -3.8475    3.2642 H   0  0  0  0  0  0  0  0  0  0  0  0
    2.7764   -4.8485    2.7466 H   0  0  0  0  0  0  0  0  0  0  0  0
   -0.1788   -5.6177    2.9683 H   0  0  0  0  0  0  0  0  0  0  0  0
    1.1917   -6.3393    3.8287 H   0  0  0  0  0  0  0  0  0  0  0  0
    0.3356   -8.5613    3.0082 H   0  0  0  0  0  0  0  0  0  0  0  0
    0.4262  -10.2623    1.1974 H   0  0  0  0  0  0  0  0  0  0  0  0
    1.1266   -9.5755   -1.1082 H   0  0  0  0  0  0  0  0  0  0  0  0
    1.7525   -7.2242   -1.5531 H   0  0  0  0  0  0  0  0  0  0  0  0
    1.2394   -4.8443   -0.7479 H   0  0  0  0  0  0  0  0  0  0  0  0
    3.4554   -3.9896   -0.7620 H   0  0  0  0  0  0  0  0  0  0  0  0
    3.4210   -5.6866   -1.1989 H   0  0  0  0  0  0  0  0  0  0  0  0
    4.1504   -7.4251    0.6731 H   0  0  0  0  0  0  0  0  0  0  0  0
    5.9612   -7.8558    2.3037 H   0  0  0  0  0  0  0  0  0  0  0  0
    7.3030   -5.9623    3.2264 H   0  0  0  0  0  0  0  0  0  0  0  0
    6.8197   -3.6307    2.4703 H   0  0  0  0  0  0  0  0  0  0  0  0
    5.0065   -3.2034    0.8352 H   0  0  0  0  0  0  0  0  0  0  0  0
  1  2  2  0
  2  3  1  0
  2  7  1  0
  3  4  1  0
  3 27  1  0
  3 28  1  0
  4  5  1  0
  4 29  1  0
  5  6  2  0
  5  7  1  0
  7  8  1  0
  8  9  1  0
  8 30  1  0
  8 31  1  0
  9 10  1  0
  9 32  1  0
  9 33  1  0
 10 11  1  0
 10 19  1  0
 11 12  1  0
 11 34  1  0
 11 35  1  0
 12 13  1  0
 12 36  1  0
 12 37  1  0
 13 14  2  0
 13 18  1  0
 14 15  1  0
 14 38  1  0
 15 16  2  0
 15 39  1  0
 16 17  1  0
 16 40  1  0
 17 18  2  0
 17 41  1  0
 18 19  1  0
 19 20  1  0
 19 42  1  6
 20 21  1  0
 20 43  1  0
 20 44  1  0
 21 22  2  0
 21 26  1  0
 22 23  1  0
 22 45  1  0
 23 24  2  0
 23 46  1  0
 24 25  1  0
 24 47  1  0
 25 26  2  0
 25 48  1  0
 26 49  1  0
M  END

