
     RDKit          3D

 74 79  0  0  0  0  0  0  0  0999 V2000
    4.1660    1.4919    3.2918 N   0  0  0  0  0  0  0  0  0  0  0  0
    4.1884    0.9019    2.2894 C   0  0  0  0  0  0  0  0  0  0  0  0
    4.2222    0.1940    1.0455 C   0  0  0  0  0  0  0  0  0  0  0  0
    3.6442    0.7874   -0.1132 C   0  0  0  0  0  0  0  0  0  0  0  0
    2.9280    2.0607    0.0068 C   0  0  0  0  0  0  0  0  0  0  0  0
    2.3510    2.7595   -0.9989 C   0  0  0  0  0  0  0  0  0  0  0  0
    1.6317    4.0272   -0.8895 C   0  0  0  0  0  0  0  0  0  0  0  0
    1.1079    4.6264   -2.0539 C   0  0  0  0  0  0  0  0  0  0  0  0
    0.4230    5.8369   -2.0164 C   0  0  0  0  0  0  0  0  0  0  0  0
    0.2174    6.5045   -0.7939 C   0  0  0  0  0  0  0  0  0  0  0  0
   -0.4815    7.7304   -0.7409 N   0  0  0  0  0  0  0  0  0  0  0  0
   -1.5858    7.9668   -1.6056 C   0  0  0  0  0  0  0  0  0  0  0  0
   -2.5682    6.9790   -1.8004 C   0  0  0  0  0  0  0  0  0  0  0  0
   -3.6483    7.2166   -2.6519 C   0  0  0  0  0  0  0  0  0  0  0  0
   -3.7788    8.4443   -3.3095 C   0  0  0  0  0  0  0  0  0  0  0  0
   -2.8095    9.4326   -3.1108 C   0  0  0  0  0  0  0  0  0  0  0  0
   -1.7174    9.1974   -2.2737 C   0  0  0  0  0  0  0  0  0  0  0  0
   -0.0822    8.7464    0.1714 C   0  0  0  0  0  0  0  0  0  0  0  0
    1.2772    9.0681    0.3362 C   0  0  0  0  0  0  0  0  0  0  0  0
    1.6622   10.0632    1.2362 C   0  0  0  0  0  0  0  0  0  0  0  0
    0.7028   10.7658    1.9724 C   0  0  0  0  0  0  0  0  0  0  0  0
   -0.6505   10.4560    1.8037 C   0  0  0  0  0  0  0  0  0  0  0  0
   -1.0433    9.4509    0.9183 C   0  0  0  0  0  0  0  0  0  0  0  0
    0.7290    5.9108    0.3806 C   0  0  0  0  0  0  0  0  0  0  0  0
    1.4211    4.7084    0.3302 C   0  0  0  0  0  0  0  0  0  0  0  0
    3.8031    0.1249   -1.3427 C   0  0  0  0  0  0  0  0  0  0  0  0
    4.5071   -1.0802   -1.4468 C   0  0  0  0  0  0  0  0  0  0  0  0
    4.6649   -1.7533   -2.7653 C   0  0  0  0  0  0  0  0  0  0  0  0
    4.8959   -1.0044   -3.9349 C   0  0  0  0  0  0  0  0  0  0  0  0
    5.0467   -1.6329   -5.1727 C   0  0  0  0  0  0  0  0  0  0  0  0
    4.9668   -3.0253   -5.2704 C   0  0  0  0  0  0  0  0  0  0  0  0
    4.7361   -3.7830   -4.1184 C   0  0  0  0  0  0  0  0  0  0  0  0
    4.5885   -3.1544   -2.8803 C   0  0  0  0  0  0  0  0  0  0  0  0
    5.0454   -1.6607   -0.2843 C   0  0  0  0  0  0  0  0  0  0  0  0
    4.9071   -1.0565    0.9747 C   0  0  0  0  0  0  0  0  0  0  0  0
    5.4608   -1.6225    2.1305 N   0  0  0  0  0  0  0  0  0  0  0  0
    6.5836   -2.5448    1.9944 C   0  0  0  0  0  0  0  0  0  0  0  0
    7.4017   -2.5922    3.2900 C   0  0  0  0  0  0  0  0  0  0  0  0
    6.5263   -2.9420    4.4973 C   0  0  0  0  0  0  0  0  0  0  0  0
    5.3186   -2.0022    4.5726 C   0  0  0  0  0  0  0  0  0  0  0  0
    4.5661   -1.9743    3.2428 C   0  0  0  0  0  0  0  0  0  0  0  0
    2.8706    2.4645    1.0204 H   0  0  0  0  0  0  0  0  0  0  0  0
    2.4100    2.3660   -2.0189 H   0  0  0  0  0  0  0  0  0  0  0  0
    1.2568    4.1325   -3.0185 H   0  0  0  0  0  0  0  0  0  0  0  0
    0.0450    6.2756   -2.9412 H   0  0  0  0  0  0  0  0  0  0  0  0
   -2.4799    6.0241   -1.2786 H   0  0  0  0  0  0  0  0  0  0  0  0
   -4.4028    6.4378   -2.7908 H   0  0  0  0  0  0  0  0  0  0  0  0
   -4.6292    8.6293   -3.9700 H   0  0  0  0  0  0  0  0  0  0  0  0
   -2.8956   10.3950   -3.6222 H   0  0  0  0  0  0  0  0  0  0  0  0
   -0.9578    9.9684   -2.1317 H   0  0  0  0  0  0  0  0  0  0  0  0
    2.0300    8.5331   -0.2458 H   0  0  0  0  0  0  0  0  0  0  0  0
    2.7232   10.2995    1.3523 H   0  0  0  0  0  0  0  0  0  0  0  0
    1.0073   11.5482    2.6715 H   0  0  0  0  0  0  0  0  0  0  0  0
   -1.4110   10.9928    2.3769 H   0  0  0  0  0  0  0  0  0  0  0  0
   -2.1003    9.2046    0.8003 H   0  0  0  0  0  0  0  0  0  0  0  0
    0.5728    6.4029    1.3420 H   0  0  0  0  0  0  0  0  0  0  0  0
    1.7929    4.2833    1.2649 H   0  0  0  0  0  0  0  0  0  0  0  0
    3.3507    0.5481   -2.2393 H   0  0  0  0  0  0  0  0  0  0  0  0
    4.9844    0.0824   -3.8686 H   0  0  0  0  0  0  0  0  0  0  0  0
    5.2357   -1.0310   -6.0654 H   0  0  0  0  0  0  0  0  0  0  0  0
    5.0836   -3.5173   -6.2392 H   0  0  0  0  0  0  0  0  0  0  0  0
    4.6626   -4.8717   -4.1843 H   0  0  0  0  0  0  0  0  0  0  0  0
    4.3843   -3.7574   -1.9925 H   0  0  0  0  0  0  0  0  0  0  0  0
    5.5832   -2.6039   -0.3674 H   0  0  0  0  0  0  0  0  0  0  0  0
    7.2214   -2.2050    1.1655 H   0  0  0  0  0  0  0  0  0  0  0  0
    6.2369   -3.5725    1.7415 H   0  0  0  0  0  0  0  0  0  0  0  0
    7.8678   -1.6040    3.4448 H   0  0  0  0  0  0  0  0  0  0  0  0
    8.2194   -3.3229    3.1727 H   0  0  0  0  0  0  0  0  0  0  0  0
    7.1155   -2.8965    5.4280 H   0  0  0  0  0  0  0  0  0  0  0  0
    6.1720   -3.9855    4.4013 H   0  0  0  0  0  0  0  0  0  0  0  0
    5.6476   -0.9765    4.8099 H   0  0  0  0  0  0  0  0  0  0  0  0
    4.6278   -2.3158    5.3728 H   0  0  0  0  0  0  0  0  0  0  0  0
    3.7383   -1.2574    3.2925 H   0  0  0  0  0  0  0  0  0  0  0  0
    4.1171   -2.9743    3.0487 H   0  0  0  0  0  0  0  0  0  0  0  0
  1  2  3  0
  2  3  1  0
  3  4  2  0
  3 35  1  0
  4  5  1  0
  4 26  1  0
  5  6  2  0
  5 42  1  0
  6  7  1  0
  6 43  1  0
  7  8  2  0
  7 25  1  0
  8  9  1  0
  8 44  1  0
  9 10  2  0
  9 45  1  0
 10 11  1  0
 10 24  1  0
 11 12  1  0
 11 18  1  0
 12 13  2  0
 12 17  1  0
 13 14  1  0
 13 46  1  0
 14 15  2  0
 14 47  1  0
 15 16  1  0
 15 48  1  0
 16 17  2  0
 16 49  1  0
 17 50  1  0
 18 19  2  0
 18 23  1  0
 19 20  1  0
 19 51  1  0
 20 21  2  0
 20 52  1  0
 21 22  1  0
 21 53  1  0
 22 23  2  0
 22 54  1  0
 23 55  1  0
 24 25  2  0
 24 56  1  0
 25 57  1  0
 26 27  2  0
 26 58  1  0
 27 28  1  0
 27 34  1  0
 28 29  2  0
 28 33  1  0
 29 30  1  0
 29 59  1  0
 30 31  2  0
 30 60  1  0
 31 32  1  0
 31 61  1  0
 32 33  2  0
 32 62  1  0
 33 63  1  0
 34 35  2  0
 34 64  1  0
 35 36  1  0
 36 37  1  0
 36 41  1  0
 37 38  1  0
 37 65  1  0
 37 66  1  0
 38 39  1  0
 38 67  1  0
 38 68  1  0
 39 40  1  0
 39 69  1  0
 39 70  1  0
 40 41  1  0
 40 71  1  0
 40 72  1  0
 41 73  1  0
 41 74  1  0
M  END

