
     RDKit          3D

 43 44  0  0  0  0  0  0  0  0999 V2000
    3.3612    0.2211    2.2655 C   0  0  0  0  0  0  0  0  0  0  0  0
    3.0674   -0.3036    0.8600 C   0  0  0  0  0  0  0  0  0  0  0  0
    4.3217   -0.7549    0.1306 C   0  0  0  0  0  0  0  0  0  0  0  0
    3.9464   -1.1963   -1.1802 O   0  0  0  0  0  0  0  0  0  0  0  0
    4.8279   -1.9418   -1.9031 C   0  0  0  0  0  0  0  0  0  0  0  0
    5.3258   -1.4639   -3.1366 C   0  0  0  0  0  0  0  0  0  0  0  0
    5.0345   -0.2616   -3.6903 O   0  0  0  0  0  0  0  0  0  0  0  0
    4.6891    0.8769   -2.9203 C   0  0  0  0  0  0  0  0  0  0  0  0
    6.1464   -2.2978   -3.9143 C   0  0  0  0  0  0  0  0  0  0  0  0
    6.4806   -3.5801   -3.4805 C   0  0  0  0  0  0  0  0  0  0  0  0
    7.3529   -4.4349   -4.3194 C   0  0  0  0  0  0  0  0  0  0  0  0
    7.7024   -5.5583   -4.0345 O   0  0  0  0  0  0  0  0  0  0  0  0
    5.9953   -4.0683   -2.2552 C   0  0  0  0  0  0  0  0  0  0  0  0
    5.1725   -3.2573   -1.4835 C   0  0  0  0  0  0  0  0  0  0  0  0
    4.6199   -3.6503   -0.2933 O   0  0  0  0  0  0  0  0  0  0  0  0
    4.7156   -4.9695    0.1216 C   0  0  0  0  0  0  0  0  0  0  0  0
    5.6814   -5.3275    1.0691 C   0  0  0  0  0  0  0  0  0  0  0  0
    5.7362   -6.6345    1.5430 C   0  0  0  0  0  0  0  0  0  0  0  0
    4.8295   -7.6019    1.0734 C   0  0  0  0  0  0  0  0  0  0  0  0
    4.9636   -8.8476    1.5936 O   0  0  0  0  0  0  0  0  0  0  0  0
    4.1019   -9.8748    1.1582 C   0  0  0  0  0  0  0  0  0  0  0  0
    3.8627   -7.2359    0.1233 C   0  0  0  0  0  0  0  0  0  0  0  0
    3.8094   -5.9189   -0.3468 C   0  0  0  0  0  0  0  0  0  0  0  0
    2.4357    0.5358    2.7719 H   0  0  0  0  0  0  0  0  0  0  0  0
    4.0376    1.0920    2.2415 H   0  0  0  0  0  0  0  0  0  0  0  0
    3.8364   -0.5504    2.8940 H   0  0  0  0  0  0  0  0  0  0  0  0
    2.5654    0.4738    0.2584 H   0  0  0  0  0  0  0  0  0  0  0  0
    2.3730   -1.1591    0.9047 H   0  0  0  0  0  0  0  0  0  0  0  0
    4.8151   -1.5701    0.6806 H   0  0  0  0  0  0  0  0  0  0  0  0
    5.0440    0.0798    0.0362 H   0  0  0  0  0  0  0  0  0  0  0  0
    4.7824    1.7366   -3.5993 H   0  0  0  0  0  0  0  0  0  0  0  0
    5.3833    1.0207   -2.0739 H   0  0  0  0  0  0  0  0  0  0  0  0
    3.6608    0.8218   -2.5363 H   0  0  0  0  0  0  0  0  0  0  0  0
    6.5156   -1.9072   -4.8653 H   0  0  0  0  0  0  0  0  0  0  0  0
    7.6827   -3.9548   -5.2783 H   0  0  0  0  0  0  0  0  0  0  0  0
    6.2609   -5.0780   -1.9429 H   0  0  0  0  0  0  0  0  0  0  0  0
    6.3834   -4.5732    1.4305 H   0  0  0  0  0  0  0  0  0  0  0  0
    6.4794   -6.9368    2.2833 H   0  0  0  0  0  0  0  0  0  0  0  0
    4.3989  -10.7830    1.6997 H   0  0  0  0  0  0  0  0  0  0  0  0
    4.1967  -10.0591    0.0727 H   0  0  0  0  0  0  0  0  0  0  0  0
    3.0444   -9.6515    1.3895 H   0  0  0  0  0  0  0  0  0  0  0  0
    3.1441   -7.9621   -0.2562 H   0  0  0  0  0  0  0  0  0  0  0  0
    3.0557   -5.6245   -1.0801 H   0  0  0  0  0  0  0  0  0  0  0  0
  1  2  1  0
  1 24  1  0
  1 25  1  0
  1 26  1  0
  2  3  1  0
  2 27  1  0
  2 28  1  0
  3  4  1  0
  3 29  1  0
  3 30  1  0
  4  5  1  0
  5  6  2  0
  5 14  1  0
  6  7  1  0
  6  9  1  0
  7  8  1  0
  8 31  1  0
  8 32  1  0
  8 33  1  0
  9 10  2  0
  9 34  1  0
 10 11  1  0
 10 13  1  0
 11 12  2  0
 11 35  1  0
 13 14  2  0
 13 36  1  0
 14 15  1  0
 15 16  1  0
 16 17  2  0
 16 23  1  0
 17 18  1  0
 17 37  1  0
 18 19  2  0
 18 38  1  0
 19 20  1  0
 19 22  1  0
 20 21  1  0
 21 39  1  0
 21 40  1  0
 21 41  1  0
 22 23  2  0
 22 42  1  0
 23 43  1  0
M  END

