
     RDKit          3D

 34 35  0  0  0  0  0  0  0  0999 V2000
    2.9579    0.4962   -0.9304 O   0  0  0  0  0  0  0  0  0  0  0  0
    2.5243    0.1311    0.1280 C   0  0  0  0  0  0  0  0  0  0  0  0
    1.3926    0.6720    0.6247 O   0  0  0  0  0  0  0  0  0  0  0  0
    3.1500   -1.0235    0.9650 C   0  0  1  0  0  0  0  0  0  0  0  0
    3.0332   -0.6622    2.4601 C   0  0  0  0  0  0  0  0  0  0  0  0
    2.1806   -1.3318    3.3547 C   0  0  0  0  0  0  0  0  0  0  0  0
    2.0823   -0.9347    4.6942 C   0  0  0  0  0  0  0  0  0  0  0  0
    2.8256    0.1402    5.1785 C   0  0  0  0  0  0  0  0  0  0  0  0
    3.6685    0.8169    4.2908 C   0  0  0  0  0  0  0  0  0  0  0  0
    4.6894    2.3011    4.9176 Br  0  0  0  0  0  0  0  0  0  0  0  0
    3.7749    0.4294    2.9560 C   0  0  0  0  0  0  0  0  0  0  0  0
    2.3185   -2.2779    0.5594 C   0  0  0  0  0  0  0  0  0  0  0  0
    2.8343   -3.6710    0.9667 C   0  0  0  0  0  0  0  0  0  0  0  0
    4.0713   -4.1426    0.1853 C   0  0  0  0  0  0  0  0  0  0  0  0
    5.4301   -3.6440    0.7115 C   0  0  0  0  0  0  0  0  0  0  0  0
    5.4471   -2.2216    1.2992 C   0  0  0  0  0  0  0  0  0  0  0  0
    4.6359   -1.1634    0.5324 C   0  0  0  0  0  0  0  0  0  0  0  0
    1.2308    0.3389    1.5218 H   0  0  0  0  0  0  0  0  0  0  0  0
    1.5829   -2.1792    3.0203 H   0  0  0  0  0  0  0  0  0  0  0  0
    1.4163   -1.4766    5.3704 H   0  0  0  0  0  0  0  0  0  0  0  0
    2.7532    0.4522    6.2213 H   0  0  0  0  0  0  0  0  0  0  0  0
    4.4364    0.9908    2.2951 H   0  0  0  0  0  0  0  0  0  0  0  0
    2.2427   -2.2640   -0.5408 H   0  0  0  0  0  0  0  0  0  0  0  0
    1.2849   -2.1495    0.9197 H   0  0  0  0  0  0  0  0  0  0  0  0
    2.0097   -4.3777    0.7720 H   0  0  0  0  0  0  0  0  0  0  0  0
    3.0243   -3.7281    2.0519 H   0  0  0  0  0  0  0  0  0  0  0  0
    3.9450   -3.8392   -0.8687 H   0  0  0  0  0  0  0  0  0  0  0  0
    4.0903   -5.2451    0.1700 H   0  0  0  0  0  0  0  0  0  0  0  0
    6.1628   -3.7096   -0.1114 H   0  0  0  0  0  0  0  0  0  0  0  0
    5.7979   -4.3355    1.4894 H   0  0  0  0  0  0  0  0  0  0  0  0
    6.4972   -1.8903    1.3534 H   0  0  0  0  0  0  0  0  0  0  0  0
    5.1046   -2.2501    2.3468 H   0  0  0  0  0  0  0  0  0  0  0  0
    4.6554   -1.3557   -0.5509 H   0  0  0  0  0  0  0  0  0  0  0  0
    5.1168   -0.1806    0.6443 H   0  0  0  0  0  0  0  0  0  0  0  0
  1  2  2  0
  2  3  1  0
  4  2  1  6
  3 18  1  0
  4  5  1  0
  4 12  1  0
  4 17  1  0
  5  6  2  0
  5 11  1  0
  6  7  1  0
  6 19  1  0
  7  8  2  0
  7 20  1  0
  8  9  1  0
  8 21  1  0
  9 10  1  0
  9 11  2  0
 11 22  1  0
 12 13  1  0
 12 23  1  0
 12 24  1  0
 13 14  1  0
 13 25  1  0
 13 26  1  0
 14 15  1  0
 14 27  1  0
 14 28  1  0
 15 16  1  0
 15 29  1  0
 15 30  1  0
 16 17  1  0
 16 31  1  0
 16 32  1  0
 17 33  1  0
 17 34  1  0
M  END

