
     RDKit          3D

 52 55  0  0  0  0  0  0  0  0999 V2000
   -1.2036   -1.0266   -5.4533 O   0  0  0  0  0  0  0  0  0  0  0  0
   -0.9012    0.1314   -5.6351 C   0  0  0  0  0  0  0  0  0  0  0  0
    0.0433    0.9195   -4.7390 C   0  0  0  0  0  0  0  0  0  0  0  0
    0.3521    0.1933   -3.4305 C   0  0  0  0  0  0  0  0  0  0  0  0
    1.3264    0.9613   -2.5084 C   0  0  2  0  0  0  0  0  0  0  0  0
    2.1972    1.2680   -3.1085 H   0  0  0  0  0  0  0  0  0  0  0  0
    1.8049    0.1150   -1.3156 C   0  0  0  0  0  0  0  0  0  0  0  0
    0.7392   -0.0404   -0.2573 C   0  0  0  0  0  0  0  0  0  0  0  0
    0.5895   -1.1828    0.5335 C   0  0  0  0  0  0  0  0  0  0  0  0
   -0.3674   -1.2392    1.5526 C   0  0  0  0  0  0  0  0  0  0  0  0
   -1.1922   -0.1356    1.7856 C   0  0  0  0  0  0  0  0  0  0  0  0
   -1.0711    1.0107    0.9973 C   0  0  0  0  0  0  0  0  0  0  0  0
   -0.1118    1.0582   -0.0232 C   0  0  0  0  0  0  0  0  0  0  0  0
    0.0231    2.1991   -0.8312 N   0  0  0  0  0  0  0  0  0  0  0  0
    0.6816    2.2661   -2.0399 C   0  0  0  0  0  0  0  0  0  0  0  0
    0.6866    3.2901   -2.7010 O   0  0  0  0  0  0  0  0  0  0  0  0
   -1.4072    0.8685   -6.7020 N   0  0  0  0  0  0  0  0  0  0  0  0
   -2.1244    0.1957   -8.1194 S   0  0  1  0  0  0  0  0  0  0  0  0
   -2.3581    1.3948   -8.9157 O   0  0  0  0  0  0  0  0  0  0  0  0
   -1.2808   -0.8865   -8.5918 O   0  0  0  0  0  0  0  0  0  0  0  0
   -3.6168   -0.4160   -7.6768 N   0  0  0  0  0  0  0  0  0  0  0  0
   -4.6196    0.5751   -7.2493 C   0  0  0  0  0  0  0  0  0  0  0  0
   -4.8162    0.5251   -5.7365 C   0  0  0  0  0  0  0  0  0  0  0  0
   -5.2855   -0.8701   -5.3192 C   0  0  0  0  0  0  0  0  0  0  0  0
   -4.6169   -1.9951   -6.0879 C   0  0  0  0  0  0  0  0  0  0  0  0
   -4.8471   -3.3225   -5.6941 C   0  0  0  0  0  0  0  0  0  0  0  0
   -4.3040   -4.3992   -6.3907 C   0  0  0  0  0  0  0  0  0  0  0  0
   -3.5258   -4.1563   -7.5268 C   0  0  0  0  0  0  0  0  0  0  0  0
   -3.2931   -2.8510   -7.9505 C   0  0  0  0  0  0  0  0  0  0  0  0
   -3.8144   -1.7652   -7.2257 C   0  0  0  0  0  0  0  0  0  0  0  0
   -0.3660    1.9260   -4.5535 H   0  0  0  0  0  0  0  0  0  0  0  0
    0.9738    1.0877   -5.3124 H   0  0  0  0  0  0  0  0  0  0  0  0
    0.7906   -0.7894   -3.6657 H   0  0  0  0  0  0  0  0  0  0  0  0
   -0.5871   -0.0253   -2.8956 H   0  0  0  0  0  0  0  0  0  0  0  0
    2.6826    0.6123   -0.8609 H   0  0  0  0  0  0  0  0  0  0  0  0
    2.1537   -0.8692   -1.6649 H   0  0  0  0  0  0  0  0  0  0  0  0
    1.2421   -2.0415    0.3513 H   0  0  0  0  0  0  0  0  0  0  0  0
   -0.4666   -2.1406    2.1615 H   0  0  0  0  0  0  0  0  0  0  0  0
   -1.9421   -0.1662    2.5799 H   0  0  0  0  0  0  0  0  0  0  0  0
   -1.7244    1.8711    1.1672 H   0  0  0  0  0  0  0  0  0  0  0  0
   -0.4797    3.0439   -0.5740 H   0  0  0  0  0  0  0  0  0  0  0  0
   -1.1140    1.8312   -6.8530 H   0  0  0  0  0  0  0  0  0  0  0  0
   -5.5614    0.3393   -7.7744 H   0  0  0  0  0  0  0  0  0  0  0  0
   -4.2977    1.5634   -7.5980 H   0  0  0  0  0  0  0  0  0  0  0  0
   -5.5474    1.2888   -5.4260 H   0  0  0  0  0  0  0  0  0  0  0  0
   -3.8615    0.7765   -5.2477 H   0  0  0  0  0  0  0  0  0  0  0  0
   -6.3767   -0.9489   -5.4794 H   0  0  0  0  0  0  0  0  0  0  0  0
   -5.1315   -1.0211   -4.2382 H   0  0  0  0  0  0  0  0  0  0  0  0
   -5.4690   -3.5045   -4.8122 H   0  0  0  0  0  0  0  0  0  0  0  0
   -4.4931   -5.4220   -6.0559 H   0  0  0  0  0  0  0  0  0  0  0  0
   -3.1040   -4.9881   -8.0962 H   0  0  0  0  0  0  0  0  0  0  0  0
   -2.6959   -2.6601   -8.8389 H   0  0  0  0  0  0  0  0  0  0  0  0
  1  2  2  0
  2  3  1  0
  2 17  1  0
  3  4  1  0
  3 31  1  0
  3 32  1  0
  4  5  1  0
  4 33  1  0
  4 34  1  0
  5  6  1  6
  5  7  1  0
  5 15  1  0
  7  8  1  0
  7 35  1  0
  7 36  1  0
  8  9  2  0
  8 13  1  0
  9 10  1  0
  9 37  1  0
 10 11  2  0
 10 38  1  0
 11 12  1  0
 11 39  1  0
 12 13  2  0
 12 40  1  0
 13 14  1  0
 14 15  1  0
 14 41  1  0
 15 16  2  0
 18 17  1  1
 17 42  1  0
 18 19  2  0
 18 20  2  0
 18 21  1  0
 21 22  1  0
 21 30  1  0
 22 23  1  0
 22 43  1  0
 22 44  1  0
 23 24  1  0
 23 45  1  0
 23 46  1  0
 24 25  1  0
 24 47  1  0
 24 48  1  0
 25 26  2  0
 25 30  1  0
 26 27  1  0
 26 49  1  0
 27 28  2  0
 27 50  1  0
 28 29  1  0
 28 51  1  0
 29 30  2  0
 29 52  1  0
M  END

