
     RDKit          3D

 32 32  0  0  0  0  0  0  0  0999 V2000
    1.1261    0.1267    0.6368 C   0  0  0  0  0  0  0  0  0  0  0  0
    2.6171    0.0669    0.4178 C   0  0  0  0  0  0  0  0  0  0  0  0
    3.2578    1.1772    0.2947 N   0  0  0  0  0  0  0  0  0  0  0  0
    4.5924    1.2291    0.1363 N   0  0  0  0  0  0  0  0  0  0  0  0
    5.1465    2.4836   -0.4144 C   0  0  1  0  0  0  0  0  0  0  0  0
    4.7695    3.6425    0.5196 C   0  0  0  0  0  0  0  0  0  0  0  0
    6.6699    2.3004   -0.4445 C   0  0  0  0  0  0  0  0  0  0  0  0
    4.6103    2.7439   -1.8356 C   0  0  0  0  0  0  0  0  0  0  0  0
    3.2781   -1.2791    0.4197 C   0  0  0  0  0  0  0  0  0  0  0  0
    4.2894   -1.6026    1.3451 C   0  0  0  0  0  0  0  0  0  0  0  0
    4.8733   -2.8695    1.3835 C   0  0  0  0  0  0  0  0  0  0  0  0
    4.4501   -3.8448    0.4842 C   0  0  0  0  0  0  0  0  0  0  0  0
    4.9881   -5.0651    0.4958 F   0  0  0  0  0  0  0  0  0  0  0  0
    3.4526   -3.5603   -0.4511 C   0  0  0  0  0  0  0  0  0  0  0  0
    3.0528   -4.4887   -1.3171 F   0  0  0  0  0  0  0  0  0  0  0  0
    2.8833   -2.2840   -0.4750 C   0  0  0  0  0  0  0  0  0  0  0  0
    1.9422   -2.0455   -1.3945 F   0  0  0  0  0  0  0  0  0  0  0  0
    0.7972    1.1746    0.6148 H   0  0  0  0  0  0  0  0  0  0  0  0
    0.8499   -0.3117    1.6121 H   0  0  0  0  0  0  0  0  0  0  0  0
    0.5807   -0.4373   -0.1368 H   0  0  0  0  0  0  0  0  0  0  0  0
    5.0358    0.3849   -0.2378 H   0  0  0  0  0  0  0  0  0  0  0  0
    5.1698    3.4698    1.5308 H   0  0  0  0  0  0  0  0  0  0  0  0
    3.6772    3.7352    0.5965 H   0  0  0  0  0  0  0  0  0  0  0  0
    5.1776    4.5919    0.1389 H   0  0  0  0  0  0  0  0  0  0  0  0
    7.0606    2.1019    0.5656 H   0  0  0  0  0  0  0  0  0  0  0  0
    7.1598    3.2049   -0.8353 H   0  0  0  0  0  0  0  0  0  0  0  0
    6.9590    1.4588   -1.0972 H   0  0  0  0  0  0  0  0  0  0  0  0
    3.5128    2.8229   -1.8209 H   0  0  0  0  0  0  0  0  0  0  0  0
    4.8850    1.9204   -2.5159 H   0  0  0  0  0  0  0  0  0  0  0  0
    5.0203    3.6781   -2.2516 H   0  0  0  0  0  0  0  0  0  0  0  0
    4.6178   -0.8372    2.0505 H   0  0  0  0  0  0  0  0  0  0  0  0
    5.6520   -3.1223    2.1052 H   0  0  0  0  0  0  0  0  0  0  0  0
  1  2  1  0
  1 18  1  0
  1 19  1  0
  1 20  1  0
  2  3  2  0
  2  9  1  0
  3  4  1  0
  5  4  1  1
  4 21  1  0
  5  6  1  0
  5  7  1  0
  5  8  1  0
  6 22  1  0
  6 23  1  0
  6 24  1  0
  7 25  1  0
  7 26  1  0
  7 27  1  0
  8 28  1  0
  8 29  1  0
  8 30  1  0
  9 10  2  0
  9 16  1  0
 10 11  1  0
 10 31  1  0
 11 12  2  0
 11 32  1  0
 12 13  1  0
 12 14  1  0
 14 15  1  0
 14 16  2  0
 16 17  1  0
M  END

