
     RDKit          3D

 36 40  0  0  0  0  0  0  0  0999 V2000
   -0.5903    1.2191   -0.2144 C   0  0  0  0  0  0  0  0  0  0  0  0
    0.7961    1.1432   -0.0970 C   0  0  0  0  0  0  0  0  0  0  0  0
    1.4354   -0.1115   -0.0496 C   0  0  0  0  0  0  0  0  0  0  0  0
    2.8381   -0.1372    0.0354 N   0  0  0  0  0  0  0  0  0  0  0  0
    3.6778   -1.0926    0.5629 C   0  0  0  0  0  0  0  0  0  0  0  0
    3.2260   -2.0729    1.5274 C   0  0  0  0  0  0  0  0  0  0  0  0
    4.1217   -2.9587    2.0573 C   0  0  0  0  0  0  0  0  0  0  0  0
    5.4712   -2.8613    1.6295 C   0  0  0  0  0  0  0  0  0  0  0  0
    6.6007   -3.5057    1.9063 N   0  0  0  0  0  0  0  0  0  0  0  0
    7.5490   -2.9043    1.1790 N   0  0  0  0  0  0  0  0  0  0  0  0
    7.0838   -1.9204    0.4623 N   0  0  0  0  0  0  0  0  0  0  0  0
    5.7721   -1.8699    0.7267 N   0  0  0  0  0  0  0  0  0  0  0  0
    4.9362   -0.9958    0.1689 N   0  0  0  0  0  0  0  0  0  0  0  0
    0.6603   -1.2751   -0.1343 C   0  0  0  0  0  0  0  0  0  0  0  0
   -0.7411   -1.1981   -0.2247 C   0  0  0  0  0  0  0  0  0  0  0  0
   -1.5027   -2.4573   -0.2907 C   0  0  0  0  0  0  0  0  0  0  0  0
   -0.9644   -3.6330   -0.1804 N   0  0  0  0  0  0  0  0  0  0  0  0
   -1.8951   -4.6421   -0.2798 C   0  0  0  0  0  0  0  0  0  0  0  0
   -1.6212   -6.0200   -0.2010 C   0  0  0  0  0  0  0  0  0  0  0  0
   -2.6702   -6.9251   -0.3184 C   0  0  0  0  0  0  0  0  0  0  0  0
   -3.9927   -6.4792   -0.5135 C   0  0  0  0  0  0  0  0  0  0  0  0
   -4.2892   -5.1194   -0.5950 C   0  0  0  0  0  0  0  0  0  0  0  0
   -3.2339   -4.2073   -0.4774 C   0  0  0  0  0  0  0  0  0  0  0  0
   -3.2663   -2.4618   -0.5379 S   0  0  0  0  0  0  0  0  0  0  0  0
   -1.3656    0.0591   -0.2659 C   0  0  0  0  0  0  0  0  0  0  0  0
   -1.0743    2.1978   -0.2511 H   0  0  0  0  0  0  0  0  0  0  0  0
    1.3952    2.0551   -0.0337 H   0  0  0  0  0  0  0  0  0  0  0  0
    3.3372    0.6070   -0.4429 H   0  0  0  0  0  0  0  0  0  0  0  0
    2.1843   -2.0792    1.8430 H   0  0  0  0  0  0  0  0  0  0  0  0
    3.8388   -3.7094    2.7961 H   0  0  0  0  0  0  0  0  0  0  0  0
    1.1157   -2.2643   -0.1575 H   0  0  0  0  0  0  0  0  0  0  0  0
   -0.5915   -6.3498   -0.0505 H   0  0  0  0  0  0  0  0  0  0  0  0
   -2.4690   -7.9974   -0.2595 H   0  0  0  0  0  0  0  0  0  0  0  0
   -4.8003   -7.2098   -0.6030 H   0  0  0  0  0  0  0  0  0  0  0  0
   -5.3158   -4.7795   -0.7469 H   0  0  0  0  0  0  0  0  0  0  0  0
   -2.4526    0.1364   -0.3379 H   0  0  0  0  0  0  0  0  0  0  0  0
  1  2  2  0
  1 25  1  0
  1 26  1  0
  2  3  1  0
  2 27  1  0
  3  4  1  0
  3 14  2  0
  4  5  1  0
  4 28  1  0
  5  6  1  0
  5 13  2  0
  6  7  2  0
  6 29  1  0
  7  8  1  0
  7 30  1  0
  8  9  2  0
  8 12  1  0
  9 10  1  0
 10 11  2  0
 11 12  1  0
 12 13  1  0
 14 15  1  0
 14 31  1  0
 15 16  1  0
 15 25  2  0
 16 17  2  0
 16 24  1  0
 17 18  1  0
 18 19  2  0
 18 23  1  0
 19 20  1  0
 19 32  1  0
 20 21  2  0
 20 33  1  0
 21 22  1  0
 21 34  1  0
 22 23  2  0
 22 35  1  0
 23 24  1  0
 25 36  1  0
M  END

