
     RDKit          3D

 39 43  0  0  0  0  0  0  0  0999 V2000
    4.7860   -2.5035   -0.5123 O   0  0  0  0  0  0  0  0  0  0  0  0
    4.1854   -1.4728   -0.2391 C   0  0  0  0  0  0  0  0  0  0  0  0
    3.1347   -1.3832    0.6319 N   0  0  0  0  0  0  0  0  0  0  0  0
    2.5244   -2.4025    1.3837 C   0  0  0  0  0  0  0  0  0  0  0  0
    2.9377   -3.7507    1.3428 C   0  0  0  0  0  0  0  0  0  0  0  0
    2.2797   -4.7107    2.1206 C   0  0  0  0  0  0  0  0  0  0  0  0
    1.2152   -4.3429    2.9385 C   0  0  0  0  0  0  0  0  0  0  0  0
    0.8012   -2.9929    2.9796 C   0  0  0  0  0  0  0  0  0  0  0  0
    1.4474   -2.0263    2.2102 C   0  0  0  0  0  0  0  0  0  0  0  0
   -0.3307   -2.8797    3.9126 C   0  0  0  0  0  0  0  0  0  0  0  0
   -1.0932   -1.7739    4.3048 C   0  0  0  0  0  0  0  0  0  0  0  0
   -2.1299   -1.9582    5.2253 C   0  0  0  0  0  0  0  0  0  0  0  0
   -2.4028   -3.2295    5.7480 C   0  0  0  0  0  0  0  0  0  0  0  0
   -1.6406   -4.3389    5.3569 C   0  0  0  0  0  0  0  0  0  0  0  0
   -0.6064   -4.1622    4.4402 C   0  0  0  0  0  0  0  0  0  0  0  0
    0.3541   -5.1801    3.8602 C   0  0  0  0  0  0  0  0  0  0  0  0
    4.5866   -0.1675   -0.8798 C   0  0  0  0  0  0  0  0  0  0  0  0
    5.6481   -0.2022   -1.7742 C   0  0  0  0  0  0  0  0  0  0  0  0
    6.1448    0.8627   -2.4410 N   0  0  0  0  0  0  0  0  0  0  0  0
    5.5572    2.0005   -2.2024 C   0  0  0  0  0  0  0  0  0  0  0  0
    5.9989    3.5350   -2.9300 S   0  0  0  0  0  0  0  0  0  0  0  0
    4.7280    4.3409   -2.0337 C   0  0  0  0  0  0  0  0  0  0  0  0
    4.0352    3.4875   -1.2493 C   0  0  0  0  0  0  0  0  0  0  0  0
    4.4973    2.1764   -1.3416 N   0  0  0  0  0  0  0  0  0  0  0  0
    3.9260    1.0882   -0.6063 C   0  0  0  0  0  0  0  0  0  0  0  0
    2.9818    1.3227    0.1420 O   0  0  0  0  0  0  0  0  0  0  0  0
    2.7495   -0.4423    0.7432 H   0  0  0  0  0  0  0  0  0  0  0  0
    3.7704   -4.0256    0.7003 H   0  0  0  0  0  0  0  0  0  0  0  0
    2.6149   -5.7509    2.0752 H   0  0  0  0  0  0  0  0  0  0  0  0
    1.1275   -0.9808    2.2413 H   0  0  0  0  0  0  0  0  0  0  0  0
   -0.8857   -0.7794    3.9009 H   0  0  0  0  0  0  0  0  0  0  0  0
   -2.7335   -1.1029    5.5403 H   0  0  0  0  0  0  0  0  0  0  0  0
   -3.2167   -3.3566    6.4665 H   0  0  0  0  0  0  0  0  0  0  0  0
   -1.8588   -5.3285    5.7686 H   0  0  0  0  0  0  0  0  0  0  0  0
   -0.1769   -5.9834    3.3179 H   0  0  0  0  0  0  0  0  0  0  0  0
    0.9493   -5.6779    4.6472 H   0  0  0  0  0  0  0  0  0  0  0  0
    6.1226   -1.1708   -1.9556 H   0  0  0  0  0  0  0  0  0  0  0  0
    4.5647    5.4115   -2.1400 H   0  0  0  0  0  0  0  0  0  0  0  0
    3.1985    3.6880   -0.5840 H   0  0  0  0  0  0  0  0  0  0  0  0
  1  2  2  0
  2  3  1  0
  2 17  1  0
  3  4  1  0
  3 27  1  0
  4  5  2  0
  4  9  1  0
  5  6  1  0
  5 28  1  0
  6  7  2  0
  6 29  1  0
  7  8  1  0
  7 16  1  0
  8  9  2  0
  8 10  1  0
  9 30  1  0
 10 11  2  0
 10 15  1  0
 11 12  1  0
 11 31  1  0
 12 13  2  0
 12 32  1  0
 13 14  1  0
 13 33  1  0
 14 15  2  0
 14 34  1  0
 15 16  1  0
 16 35  1  0
 16 36  1  0
 17 18  1  0
 17 25  2  0
 18 19  2  0
 18 37  1  0
 19 20  1  0
 20 21  2  0
 20 24  1  0
 21 22  1  0
 22 23  2  0
 22 38  1  0
 23 24  1  0
 23 39  1  0
 24 25  1  0
 25 26  1  0
M  CHG  2  21   1  26  -1
M  END

