
     RDKit          3D

 74 77  0  0  0  0  0  0  0  0999 V2000
    0.8154   -0.5741    1.6372 C   0  0  0  0  0  0  0  0  0  0  0  0
    1.9604   -0.2104    0.8584 N   0  0  0  0  0  0  0  0  0  0  0  0
    2.9199   -1.1586    0.3891 C   0  0  0  0  0  0  0  0  0  0  0  0
    2.8083   -2.5049    0.6081 C   0  0  0  0  0  0  0  0  0  0  0  0
    3.6757   -3.5901    0.2388 C   0  0  0  0  0  0  0  0  0  0  0  0
    3.3539   -4.9288    0.5233 C   0  0  0  0  0  0  0  0  0  0  0  0
    3.9870   -6.1293    0.2129 C   0  0  0  0  0  0  0  0  0  0  0  0
    3.4162   -7.4143    0.5948 N   0  0  0  0  0  0  0  0  0  0  0  0
    2.0029   -7.6105    0.7578 C   0  0  0  0  0  0  0  0  0  0  0  0
    1.1388   -7.0847   -0.4288 C   0  0  0  0  0  0  0  0  0  0  0  0
    1.7840   -7.4159   -1.7710 C   0  0  0  0  0  0  0  0  0  0  0  0
    1.5235   -6.4070   -2.8953 N   0  0  1  0  0  0  0  0  0  0  0  0
    0.0687   -6.3511   -3.2332 C   0  0  0  0  0  0  0  0  0  0  0  0
    2.0161   -5.0231   -2.5105 C   0  0  0  0  0  0  0  0  0  0  0  0
    2.2988   -6.8654   -4.0943 C   0  0  0  0  0  0  0  0  0  0  0  0
    4.2877   -8.4349    0.2735 C   0  0  0  0  0  0  0  0  0  0  0  0
    4.1118   -9.8293    0.3514 C   0  0  0  0  0  0  0  0  0  0  0  0
    5.1579  -10.6637   -0.0615 C   0  0  0  0  0  0  0  0  0  0  0  0
    6.3614  -10.1400   -0.5474 C   0  0  0  0  0  0  0  0  0  0  0  0
    6.5275   -8.7446   -0.6217 C   0  0  0  0  0  0  0  0  0  0  0  0
    5.5036   -7.8968   -0.2204 C   0  0  0  0  0  0  0  0  0  0  0  0
    5.4565   -6.3698   -0.1736 C   0  0  2  0  0  0  0  0  0  0  0  0
    6.4107   -5.8385    0.9326 C   0  0  0  0  0  0  0  0  0  0  0  0
    5.8812   -5.7496   -1.5251 C   0  0  0  0  0  0  0  0  0  0  0  0
    4.0176   -0.3825   -0.3602 C   0  0  2  0  0  0  0  0  0  0  0  0
    4.1439   -0.8314   -1.8350 C   0  0  0  0  0  0  0  0  0  0  0  0
    5.3910   -0.4943    0.3442 C   0  0  0  0  0  0  0  0  0  0  0  0
    3.4899    1.0494   -0.2793 C   0  0  0  0  0  0  0  0  0  0  0  0
    4.0167    2.2270   -0.7873 C   0  0  0  0  0  0  0  0  0  0  0  0
    3.3438    3.4464   -0.5770 C   0  0  0  0  0  0  0  0  0  0  0  0
    2.1468    3.4551    0.1450 C   0  0  0  0  0  0  0  0  0  0  0  0
    1.5968    2.2761    0.6665 C   0  0  0  0  0  0  0  0  0  0  0  0
    2.2794    1.0668    0.4529 C   0  0  0  0  0  0  0  0  0  0  0  0
    1.1110   -1.1541    2.5314 H   0  0  0  0  0  0  0  0  0  0  0  0
    0.1001   -1.1990    1.0643 H   0  0  0  0  0  0  0  0  0  0  0  0
    0.2853    0.3256    1.9758 H   0  0  0  0  0  0  0  0  0  0  0  0
    1.9133   -2.8219    1.1605 H   0  0  0  0  0  0  0  0  0  0  0  0
    4.6285   -3.3606   -0.2426 H   0  0  0  0  0  0  0  0  0  0  0  0
    2.3888   -5.0382    1.0403 H   0  0  0  0  0  0  0  0  0  0  0  0
    1.6315   -7.1107    1.6725 H   0  0  0  0  0  0  0  0  0  0  0  0
    1.8164   -8.6841    0.9001 H   0  0  0  0  0  0  0  0  0  0  0  0
    1.0339   -5.9986   -0.3188 H   0  0  0  0  0  0  0  0  0  0  0  0
    0.1287   -7.5184   -0.3487 H   0  0  0  0  0  0  0  0  0  0  0  0
    1.4566   -8.3894   -2.1670 H   0  0  0  0  0  0  0  0  0  0  0  0
    2.8745   -7.4227   -1.6542 H   0  0  0  0  0  0  0  0  0  0  0  0
   -0.4946   -6.0424   -2.3453 H   0  0  0  0  0  0  0  0  0  0  0  0
   -0.2659   -7.3445   -3.5598 H   0  0  0  0  0  0  0  0  0  0  0  0
   -0.0851   -5.6206   -4.0381 H   0  0  0  0  0  0  0  0  0  0  0  0
    1.3281   -4.5715   -1.7907 H   0  0  0  0  0  0  0  0  0  0  0  0
    2.0539   -4.4117   -3.4209 H   0  0  0  0  0  0  0  0  0  0  0  0
    2.9954   -5.1204   -2.0248 H   0  0  0  0  0  0  0  0  0  0  0  0
    1.9930   -7.8865   -4.3548 H   0  0  0  0  0  0  0  0  0  0  0  0
    3.3671   -6.8499   -3.8440 H   0  0  0  0  0  0  0  0  0  0  0  0
    2.1000   -6.1861   -4.9330 H   0  0  0  0  0  0  0  0  0  0  0  0
    3.1903  -10.2689    0.7406 H   0  0  0  0  0  0  0  0  0  0  0  0
    5.0269  -11.7478    0.0055 H   0  0  0  0  0  0  0  0  0  0  0  0
    7.1671  -10.8082   -0.8601 H   0  0  0  0  0  0  0  0  0  0  0  0
    7.4680   -8.3290   -0.9968 H   0  0  0  0  0  0  0  0  0  0  0  0
    6.1763   -6.3105    1.8983 H   0  0  0  0  0  0  0  0  0  0  0  0
    6.2975   -4.7501    1.0525 H   0  0  0  0  0  0  0  0  0  0  0  0
    7.4652   -6.0570    0.6908 H   0  0  0  0  0  0  0  0  0  0  0  0
    5.2721   -6.1474   -2.3542 H   0  0  0  0  0  0  0  0  0  0  0  0
    6.9359   -5.9795   -1.7530 H   0  0  0  0  0  0  0  0  0  0  0  0
    5.7771   -4.6546   -1.5157 H   0  0  0  0  0  0  0  0  0  0  0  0
    4.4468   -1.8870   -1.9037 H   0  0  0  0  0  0  0  0  0  0  0  0
    4.8959   -0.2236   -2.3658 H   0  0  0  0  0  0  0  0  0  0  0  0
    3.1824   -0.7151   -2.3591 H   0  0  0  0  0  0  0  0  0  0  0  0
    5.7501   -1.5344    0.3552 H   0  0  0  0  0  0  0  0  0  0  0  0
    5.3205   -0.1503    1.3869 H   0  0  0  0  0  0  0  0  0  0  0  0
    6.1456    0.1253   -0.1695 H   0  0  0  0  0  0  0  0  0  0  0  0
    4.9551    2.2131   -1.3505 H   0  0  0  0  0  0  0  0  0  0  0  0
    3.7545    4.3774   -0.9749 H   0  0  0  0  0  0  0  0  0  0  0  0
    1.6209    4.4004    0.3090 H   0  0  0  0  0  0  0  0  0  0  0  0
    0.6576    2.3114    1.2225 H   0  0  0  0  0  0  0  0  0  0  0  0
  1  2  1  0
  1 34  1  0
  1 35  1  0
  1 36  1  0
  2  3  1  0
  2 33  1  0
  3  4  1  0
  3 25  1  0
  4  5  2  0
  4 37  1  0
  5  6  1  0
  5 38  1  0
  6  7  2  0
  6 39  1  0
  7  8  1  0
  7 22  1  0
  8  9  1  0
  8 16  1  0
  9 10  1  0
  9 40  1  0
  9 41  1  0
 10 11  1  0
 10 42  1  0
 10 43  1  0
 12 11  1  1
 11 44  1  0
 11 45  1  0
 12 13  1  0
 12 14  1  0
 12 15  1  0
 13 46  1  0
 13 47  1  0
 13 48  1  0
 14 49  1  0
 14 50  1  0
 14 51  1  0
 15 52  1  0
 15 53  1  0
 15 54  1  0
 16 17  1  0
 16 21  2  0
 17 18  2  0
 17 55  1  0
 18 19  1  0
 18 56  1  0
 19 20  2  0
 19 57  1  0
 20 21  1  0
 20 58  1  0
 21 22  1  0
 22 23  1  1
 22 24  1  0
 23 59  1  0
 23 60  1  0
 23 61  1  0
 24 62  1  0
 24 63  1  0
 24 64  1  0
 25 26  1  6
 25 27  1  0
 25 28  1  0
 26 65  1  0
 26 66  1  0
 26 67  1  0
 27 68  1  0
 27 69  1  0
 27 70  1  0
 28 29  2  0
 28 33  1  0
 29 30  1  0
 29 71  1  0
 30 31  2  0
 30 72  1  0
 31 32  1  0
 31 73  1  0
 32 33  2  0
 32 74  1  0
M  CHG  2   3  -1  12   1
M  END

