
     RDKit          3D

 39 40  0  0  0  0  0  0  0  0999 V2000
    1.5577    0.9804   -3.0915 C   0  0  0  0  0  0  0  0  0  0  0  0
    3.0204    1.2386   -2.7828 C   0  0  0  0  0  0  0  0  0  0  0  0
    3.5708    0.0497   -2.2428 O   0  0  0  0  0  0  0  0  0  0  0  0
    4.8821    0.0063   -1.8803 C   0  0  0  0  0  0  0  0  0  0  0  0
    5.7678    1.1033   -2.0008 C   0  0  0  0  0  0  0  0  0  0  0  0
    7.1054    0.9967   -1.6115 C   0  0  0  0  0  0  0  0  0  0  0  0
    7.5648   -0.2178   -1.0946 C   0  0  0  0  0  0  0  0  0  0  0  0
    8.8227   -0.5916   -0.6387 N   0  0  0  0  0  0  0  0  0  0  0  0
    8.6972   -1.8369   -0.2701 C   0  0  0  0  0  0  0  0  0  0  0  0
    9.9512   -2.8681    0.4205 S   0  0  0  0  0  0  0  0  0  0  0  0
   11.4094   -1.7511    0.1938 C   0  0  0  0  0  0  0  0  0  0  0  0
   12.0659   -1.9472   -1.1303 C   0  0  0  0  0  0  0  0  0  0  0  0
   13.3076   -2.4184   -1.3684 C   0  0  0  0  0  0  0  0  0  0  0  0
   14.3085   -2.8599   -0.3337 C   0  0  0  0  0  0  0  0  0  0  0  0
   13.7080   -2.4985   -2.8118 C   0  0  0  0  0  0  0  0  0  0  0  0
   13.0186   -2.1936   -3.7577 O   0  0  0  0  0  0  0  0  0  0  0  0
   14.9689   -2.9645   -2.9517 O   0  0  0  0  0  0  0  0  0  0  0  0
   15.4511   -3.0790   -4.2882 C   0  0  0  0  0  0  0  0  0  0  0  0
    7.4208   -2.3349   -0.4494 N   0  0  0  0  0  0  0  0  0  0  0  0
    7.1155   -3.2795   -0.2536 H   0  0  0  0  0  0  0  0  0  0  0  0
    6.6601   -1.3066   -0.9823 C   0  0  0  0  0  0  0  0  0  0  0  0
    5.3238   -1.2225   -1.3640 C   0  0  0  0  0  0  0  0  0  0  0  0
    1.0914    1.8838   -3.5143 H   0  0  0  0  0  0  0  0  0  0  0  0
    1.0112    0.7006   -2.1778 H   0  0  0  0  0  0  0  0  0  0  0  0
    1.4529    0.1607   -3.8188 H   0  0  0  0  0  0  0  0  0  0  0  0
    3.1255    2.0701   -2.0598 H   0  0  0  0  0  0  0  0  0  0  0  0
    3.5673    1.5296   -3.7000 H   0  0  0  0  0  0  0  0  0  0  0  0
    5.4117    2.0511   -2.4031 H   0  0  0  0  0  0  0  0  0  0  0  0
    7.7849    1.8459   -1.7075 H   0  0  0  0  0  0  0  0  0  0  0  0
   12.0640   -1.9597    1.0491 H   0  0  0  0  0  0  0  0  0  0  0  0
   11.0007   -0.7330    0.2807 H   0  0  0  0  0  0  0  0  0  0  0  0
   11.4654   -1.6707   -2.0026 H   0  0  0  0  0  0  0  0  0  0  0  0
   13.9147   -2.7789    0.6882 H   0  0  0  0  0  0  0  0  0  0  0  0
   15.2300   -2.2591   -0.3962 H   0  0  0  0  0  0  0  0  0  0  0  0
   14.6118   -3.9050   -0.5047 H   0  0  0  0  0  0  0  0  0  0  0  0
   16.4753   -3.4655   -4.2136 H   0  0  0  0  0  0  0  0  0  0  0  0
   15.4478   -2.1001   -4.7918 H   0  0  0  0  0  0  0  0  0  0  0  0
   14.8242   -3.7687   -4.8739 H   0  0  0  0  0  0  0  0  0  0  0  0
    4.6208   -2.0529   -1.2823 H   0  0  0  0  0  0  0  0  0  0  0  0
  1  2  1  0
  1 23  1  0
  1 24  1  0
  1 25  1  0
  2  3  1  0
  2 26  1  0
  2 27  1  0
  3  4  1  0
  4  5  2  0
  4 22  1  0
  5  6  1  0
  5 28  1  0
  6  7  2  0
  6 29  1  0
  7  8  1  0
  7 21  1  0
  8  9  2  0
  9 10  1  0
  9 19  1  0
 10 11  1  0
 11 12  1  0
 11 30  1  0
 11 31  1  0
 12 13  2  0
 12 32  1  0
 13 14  1  0
 13 15  1  0
 14 33  1  0
 14 34  1  0
 14 35  1  0
 15 16  2  0
 15 17  1  0
 17 18  1  0
 18 36  1  0
 18 37  1  0
 18 38  1  0
 19 20  1  0
 19 21  1  0
 21 22  2  0
 22 39  1  0
M  END

