
     RDKit          3D

 28 30  0  0  0  0  0  0  0  0999 V2000
    2.3281   -0.2373    1.3661 O   0  0  0  0  0  0  0  0  0  0  0  0
    2.2581    0.2394    0.0488 C   0  0  1  0  0  0  0  0  0  0  0  0
    2.9745    1.5747   -0.0266 C   0  0  0  0  0  0  0  0  0  0  0  0
    3.3668    2.1820    1.0552 N   0  0  0  0  0  0  0  0  0  0  0  0
    3.9537    3.3922    0.7930 C   0  0  0  0  0  0  0  0  0  0  0  0
    4.0035    3.7247   -0.5346 C   0  0  0  0  0  0  0  0  0  0  0  0
    4.6603    5.1483   -1.2412 Cl  0  0  0  0  0  0  0  0  0  0  0  0
    3.2888    2.4573   -1.5031 S   0  0  0  0  0  0  0  0  0  0  0  0
    2.8443   -0.8007   -0.9233 C   0  0  1  0  0  0  0  0  0  0  0  0
    4.2134   -1.1627   -0.5334 N   0  0  0  0  0  0  0  0  0  0  0  0
    4.4216   -2.5658   -0.9284 C   0  0  0  0  0  0  0  0  0  0  0  0
    3.0299   -3.1646   -1.0201 C   0  0  0  0  0  0  0  0  0  0  0  0
    2.6158   -4.4917   -1.1334 C   0  0  0  0  0  0  0  0  0  0  0  0
    1.2450   -4.7673   -1.2231 C   0  0  0  0  0  0  0  0  0  0  0  0
    0.3085   -3.7265   -1.2129 C   0  0  0  0  0  0  0  0  0  0  0  0
    0.7285   -2.3936   -1.1126 C   0  0  0  0  0  0  0  0  0  0  0  0
    2.0927   -2.1237   -1.0084 C   0  0  0  0  0  0  0  0  0  0  0  0
    2.6295    0.5129    1.9117 H   0  0  0  0  0  0  0  0  0  0  0  0
    1.2013    0.4103   -0.2460 H   0  0  0  0  0  0  0  0  0  0  0  0
    4.3386    4.0137    1.6019 H   0  0  0  0  0  0  0  0  0  0  0  0
    2.8464   -0.3338   -1.9315 H   0  0  0  0  0  0  0  0  0  0  0  0
    4.2241   -1.1203    0.4872 H   0  0  0  0  0  0  0  0  0  0  0  0
    5.0782   -3.0824   -0.2100 H   0  0  0  0  0  0  0  0  0  0  0  0
    4.9259   -2.6206   -1.9130 H   0  0  0  0  0  0  0  0  0  0  0  0
    3.3435   -5.3083   -1.1453 H   0  0  0  0  0  0  0  0  0  0  0  0
    0.9030   -5.8028   -1.2989 H   0  0  0  0  0  0  0  0  0  0  0  0
   -0.7582   -3.9557   -1.2805 H   0  0  0  0  0  0  0  0  0  0  0  0
   -0.0105   -1.5873   -1.1084 H   0  0  0  0  0  0  0  0  0  0  0  0
  1  2  1  0
  1 18  1  0
  2  3  1  0
  2  9  1  0
  2 19  1  6
  3  4  2  0
  3  8  1  0
  4  5  1  0
  5  6  2  0
  5 20  1  0
  6  7  1  0
  6  8  1  0
  9 10  1  0
  9 17  1  0
  9 21  1  6
 10 11  1  0
 10 22  1  0
 11 12  1  0
 11 23  1  0
 11 24  1  0
 12 13  1  0
 12 17  2  0
 13 14  2  0
 13 25  1  0
 14 15  1  0
 14 26  1  0
 15 16  2  0
 15 27  1  0
 16 17  1  0
 16 28  1  0
M  END

