
     RDKit          3D

 45 48  0  0  0  0  0  0  0  0999 V2000
    1.4101    0.0234    0.4372 C   0  0  0  0  0  0  0  0  0  0  0  0
    2.8941    0.0059    0.1018 C   0  0  2  0  0  0  0  0  0  0  0  0
    3.0586    0.5311   -0.8574 H   0  0  0  0  0  0  0  0  0  0  0  0
    3.4390   -1.4292    0.0024 C   0  0  0  0  0  0  0  0  0  0  0  0
    4.8279   -1.5802   -0.4025 N   0  0  0  0  0  0  0  0  0  0  0  0
    5.1374   -1.3158   -1.8129 C   0  0  0  0  0  0  0  0  0  0  0  0
    4.3351   -2.1243   -2.7934 C   0  0  0  0  0  0  0  0  0  0  0  0
    3.2890   -1.6512   -3.6280 C   0  0  0  0  0  0  0  0  0  0  0  0
    2.8082   -2.5990   -4.4251 N   0  0  0  0  0  0  0  0  0  0  0  0
    3.5368   -3.6807   -4.1278 N   0  0  0  0  0  0  0  0  0  0  0  0
    3.3209   -4.5629   -4.5767 H   0  0  0  0  0  0  0  0  0  0  0  0
    4.4734   -3.4720   -3.1539 C   0  0  0  0  0  0  0  0  0  0  0  0
    5.3975   -4.5307   -2.7234 C   0  0  0  0  0  0  0  0  0  0  0  0
    5.8156   -5.5332   -3.6224 C   0  0  0  0  0  0  0  0  0  0  0  0
    6.6814   -6.5496   -3.2192 C   0  0  0  0  0  0  0  0  0  0  0  0
    7.1458   -6.5568   -1.9055 C   0  0  0  0  0  0  0  0  0  0  0  0
    7.9824   -7.5280   -1.5131 F   0  0  0  0  0  0  0  0  0  0  0  0
    6.7625   -5.5758   -0.9935 C   0  0  0  0  0  0  0  0  0  0  0  0
    5.8881   -4.5685   -1.4027 C   0  0  0  0  0  0  0  0  0  0  0  0
    5.7899   -0.9928    0.5246 C   0  0  0  0  0  0  0  0  0  0  0  0
    5.8974    0.5250    0.5422 C   0  0  0  0  0  0  0  0  0  0  0  0
    7.1169    1.1735    0.3034 C   0  0  0  0  0  0  0  0  0  0  0  0
    7.2382    2.5631    0.3986 C   0  0  0  0  0  0  0  0  0  0  0  0
    6.1211    3.3303    0.7391 C   0  0  0  0  0  0  0  0  0  0  0  0
    4.8917    2.7076    0.9667 C   0  0  0  0  0  0  0  0  0  0  0  0
    4.7753    1.3162    0.8638 C   0  0  0  0  0  0  0  0  0  0  0  0
    3.5577    0.7523    1.1381 O   0  0  0  0  0  0  0  0  0  0  0  0
    0.8270   -0.4898   -0.3429 H   0  0  0  0  0  0  0  0  0  0  0  0
    1.0477    1.0581    0.5236 H   0  0  0  0  0  0  0  0  0  0  0  0
    1.2281   -0.4833    1.3986 H   0  0  0  0  0  0  0  0  0  0  0  0
    2.8079   -1.9935   -0.7024 H   0  0  0  0  0  0  0  0  0  0  0  0
    3.3157   -1.8997    0.9940 H   0  0  0  0  0  0  0  0  0  0  0  0
    6.2101   -1.5419   -1.9442 H   0  0  0  0  0  0  0  0  0  0  0  0
    5.0237   -0.2440   -2.0785 H   0  0  0  0  0  0  0  0  0  0  0  0
    2.8818   -0.6402   -3.6760 H   0  0  0  0  0  0  0  0  0  0  0  0
    5.4835   -5.5084   -4.6634 H   0  0  0  0  0  0  0  0  0  0  0  0
    7.0133   -7.3264   -3.9108 H   0  0  0  0  0  0  0  0  0  0  0  0
    7.1449   -5.6175    0.0285 H   0  0  0  0  0  0  0  0  0  0  0  0
    5.5583   -3.8019   -0.6960 H   0  0  0  0  0  0  0  0  0  0  0  0
    6.7867   -1.4101    0.3019 H   0  0  0  0  0  0  0  0  0  0  0  0
    5.5174   -1.3368    1.5380 H   0  0  0  0  0  0  0  0  0  0  0  0
    7.9941    0.5696    0.0514 H   0  0  0  0  0  0  0  0  0  0  0  0
    8.2022    3.0427    0.2123 H   0  0  0  0  0  0  0  0  0  0  0  0
    6.2026    4.4173    0.8215 H   0  0  0  0  0  0  0  0  0  0  0  0
    4.0018    3.2825    1.2317 H   0  0  0  0  0  0  0  0  0  0  0  0
  1  2  1  0
  1 28  1  0
  1 29  1  0
  1 30  1  0
  2  3  1  6
  2  4  1  0
  2 27  1  0
  4  5  1  0
  4 31  1  0
  4 32  1  0
  5  6  1  0
  5 20  1  0
  6  7  1  0
  6 33  1  0
  6 34  1  0
  7  8  1  0
  7 12  2  0
  8  9  2  0
  8 35  1  0
  9 10  1  0
 10 11  1  0
 10 12  1  0
 12 13  1  0
 13 14  2  0
 13 19  1  0
 14 15  1  0
 14 36  1  0
 15 16  2  0
 15 37  1  0
 16 17  1  0
 16 18  1  0
 18 19  2  0
 18 38  1  0
 19 39  1  0
 20 21  1  0
 20 40  1  0
 20 41  1  0
 21 22  2  0
 21 26  1  0
 22 23  1  0
 22 42  1  0
 23 24  2  0
 23 43  1  0
 24 25  1  0
 24 44  1  0
 25 26  2  0
 25 45  1  0
 26 27  1  0
M  END

