
     RDKit          3D

 60 63  0  0  0  0  0  0  0  0999 V2000
    0.5121    0.2334    0.7609 C   0  0  0  0  0  0  0  0  0  0  0  0
    1.9559    0.3756    1.1286 C   0  0  0  0  0  0  0  0  0  0  0  0
    2.7533    1.5575    1.0654 C   0  0  0  0  0  0  0  0  0  0  0  0
    4.0008    1.1640    1.5077 C   0  0  0  0  0  0  0  0  0  0  0  0
    5.1894    1.8500    1.6756 N   0  0  0  0  0  0  0  0  0  0  0  0
    5.3750    3.1863    1.3944 C   0  0  0  0  0  0  0  0  0  0  0  0
    4.4897    3.9133    0.9853 O   0  0  0  0  0  0  0  0  0  0  0  0
    6.8093    3.6657    1.6111 C   0  0  0  0  0  0  0  0  0  0  0  0
    6.8987    5.1753    1.8234 C   0  0  0  0  0  0  0  0  0  0  0  0
    8.3336    5.6728    1.8810 C   0  0  0  0  0  0  0  0  0  0  0  0
    8.3123    7.0792    2.0954 O   0  0  0  0  0  0  0  0  0  0  0  0
    9.5355    7.7130    2.1645 C   0  0  0  0  0  0  0  0  0  0  0  0
   10.1019    8.2358    0.9853 C   0  0  0  0  0  0  0  0  0  0  0  0
    9.3917    8.0824   -0.3367 C   0  0  0  0  0  0  0  0  0  0  0  0
   11.3230    8.9181    1.0863 C   0  0  0  0  0  0  0  0  0  0  0  0
   11.9559    9.0807    2.3199 C   0  0  0  0  0  0  0  0  0  0  0  0
   11.3640    8.5740    3.4783 C   0  0  0  0  0  0  0  0  0  0  0  0
   10.1438    7.8853    3.4235 C   0  0  0  0  0  0  0  0  0  0  0  0
    9.4763    7.3631    4.6715 C   0  0  0  0  0  0  0  0  0  0  0  0
    3.9091   -0.1902    1.8096 N   0  0  0  0  0  0  0  0  0  0  0  0
    4.8934   -1.0669    2.2953 C   0  0  0  0  0  0  0  0  0  0  0  0
    4.5377   -2.4285    2.5300 C   0  0  0  0  0  0  0  0  0  0  0  0
    5.4854   -3.3050    3.0060 C   0  0  0  0  0  0  0  0  0  0  0  0
    5.1356   -4.7464    3.2622 C   0  0  0  0  0  0  0  0  0  0  0  0
    6.8132   -2.8083    3.2508 C   0  0  0  0  0  0  0  0  0  0  0  0
    7.8742   -3.6146    3.7408 C   0  0  0  0  0  0  0  0  0  0  0  0
    9.1314   -3.0821    3.9569 C   0  0  0  0  0  0  0  0  0  0  0  0
    9.3788   -1.7156    3.6902 C   0  0  0  0  0  0  0  0  0  0  0  0
    8.3687   -0.9041    3.2131 C   0  0  0  0  0  0  0  0  0  0  0  0
    7.0674   -1.4248    2.9824 C   0  0  0  0  0  0  0  0  0  0  0  0
    6.1000   -0.5861    2.5107 N   0  0  0  0  0  0  0  0  0  0  0  0
    2.6462   -0.6594    1.5710 N   0  0  0  0  0  0  0  0  0  0  0  0
    0.3436    0.4976   -0.2960 H   0  0  0  0  0  0  0  0  0  0  0  0
   -0.1198    0.9025    1.3677 H   0  0  0  0  0  0  0  0  0  0  0  0
    0.1822   -0.8023    0.9209 H   0  0  0  0  0  0  0  0  0  0  0  0
    2.4787    2.5571    0.7495 H   0  0  0  0  0  0  0  0  0  0  0  0
    5.9521    1.2588    2.0264 H   0  0  0  0  0  0  0  0  0  0  0  0
    7.3839    3.3727    0.7117 H   0  0  0  0  0  0  0  0  0  0  0  0
    7.2629    3.1147    2.4533 H   0  0  0  0  0  0  0  0  0  0  0  0
    6.3841    5.4579    2.7565 H   0  0  0  0  0  0  0  0  0  0  0  0
    6.3628    5.6887    1.0110 H   0  0  0  0  0  0  0  0  0  0  0  0
    8.8641    5.4364    0.9382 H   0  0  0  0  0  0  0  0  0  0  0  0
    8.8917    5.1714    2.6957 H   0  0  0  0  0  0  0  0  0  0  0  0
    8.3139    8.2780   -0.2308 H   0  0  0  0  0  0  0  0  0  0  0  0
    9.4910    7.0601   -0.7413 H   0  0  0  0  0  0  0  0  0  0  0  0
    9.8036    8.7720   -1.0879 H   0  0  0  0  0  0  0  0  0  0  0  0
   11.7752    9.3349    0.1818 H   0  0  0  0  0  0  0  0  0  0  0  0
   12.9056    9.6183    2.3809 H   0  0  0  0  0  0  0  0  0  0  0  0
   11.8484    8.7211    4.4480 H   0  0  0  0  0  0  0  0  0  0  0  0
    9.9367    7.7917    5.5737 H   0  0  0  0  0  0  0  0  0  0  0  0
    9.5555    6.2650    4.7524 H   0  0  0  0  0  0  0  0  0  0  0  0
    8.4023    7.6041    4.6754 H   0  0  0  0  0  0  0  0  0  0  0  0
    3.5144   -2.7351    2.3224 H   0  0  0  0  0  0  0  0  0  0  0  0
    4.0828   -4.9462    3.0205 H   0  0  0  0  0  0  0  0  0  0  0  0
    5.3014   -5.0166    4.3182 H   0  0  0  0  0  0  0  0  0  0  0  0
    5.7601   -5.4234    2.6562 H   0  0  0  0  0  0  0  0  0  0  0  0
    7.6939   -4.6706    3.9496 H   0  0  0  0  0  0  0  0  0  0  0  0
    9.9366   -3.7168    4.3343 H   0  0  0  0  0  0  0  0  0  0  0  0
   10.3753   -1.3012    3.8630 H   0  0  0  0  0  0  0  0  0  0  0  0
    8.5443    0.1528    3.0017 H   0  0  0  0  0  0  0  0  0  0  0  0
  1  2  1  0
  1 33  1  0
  1 34  1  0
  1 35  1  0
  2  3  1  0
  2 32  2  0
  3  4  2  0
  3 36  1  0
  4  5  1  0
  4 20  1  0
  5  6  1  0
  5 37  1  0
  6  7  2  0
  6  8  1  0
  8  9  1  0
  8 38  1  0
  8 39  1  0
  9 10  1  0
  9 40  1  0
  9 41  1  0
 10 11  1  0
 10 42  1  0
 10 43  1  0
 11 12  1  0
 12 13  2  0
 12 18  1  0
 13 14  1  0
 13 15  1  0
 14 44  1  0
 14 45  1  0
 14 46  1  0
 15 16  2  0
 15 47  1  0
 16 17  1  0
 16 48  1  0
 17 18  2  0
 17 49  1  0
 18 19  1  0
 19 50  1  0
 19 51  1  0
 19 52  1  0
 20 21  1  0
 20 32  1  0
 21 22  2  0
 21 31  1  0
 22 23  1  0
 22 53  1  0
 23 24  1  0
 23 25  2  0
 24 54  1  0
 24 55  1  0
 24 56  1  0
 25 26  1  0
 25 30  1  0
 26 27  2  0
 26 57  1  0
 27 28  1  0
 27 58  1  0
 28 29  2  0
 28 59  1  0
 29 30  1  0
 29 60  1  0
 30 31  2  0
M  END

