
     RDKit          3D

 53 53  0  0  0  0  0  0  0  0999 V2000
    1.3012    3.0755   -3.0872 C   0  0  0  0  0  0  0  0  0  0  0  0
    2.3901    2.7602   -2.0573 C   0  0  0  0  0  0  0  0  0  0  0  0
    2.6211    1.2535   -1.8097 C   0  0  1  0  0  0  0  0  0  0  0  0
    2.9413    0.5118   -3.1166 C   0  0  0  0  0  0  0  0  0  0  0  0
    3.7509    0.9775   -0.7738 C   0  0  1  0  0  0  0  0  0  0  0  0
    3.8080    1.9716    0.2890 N   0  0  0  0  0  0  0  0  0  0  0  0
    4.4186    1.8096    1.4914 C   0  0  0  0  0  0  0  0  0  0  0  0
    4.5407    2.7184    2.2977 O   0  0  0  0  0  0  0  0  0  0  0  0
    4.9646    0.4093    1.7794 C   0  0  2  0  0  0  0  0  0  0  0  0
    6.5194    0.3404    1.5958 C   0  0  1  0  0  0  0  0  0  0  0  0
    6.9906    0.6583    0.1725 C   0  0  0  0  0  0  0  0  0  0  0  0
    7.2328    1.1934    2.6659 C   0  0  0  0  0  0  0  0  0  0  0  0
    8.7464    0.9786    2.7423 C   0  0  0  0  0  0  0  0  0  0  0  0
    4.2058   -0.6351    1.0713 N   0  0  0  0  0  0  0  0  0  0  0  0
    3.8419   -1.9064    1.7598 C   0  0  1  0  0  0  0  0  0  0  0  0
    4.9863   -2.4903    2.6044 C   0  0  0  0  0  0  0  0  0  0  0  0
    4.6686   -3.8695    3.1901 C   0  0  0  0  0  0  0  0  0  0  0  0
    2.4874   -1.7794    2.4948 C   0  0  0  0  0  0  0  0  0  0  0  0
    2.4257   -0.8591    3.7172 C   0  0  0  0  0  0  0  0  0  0  0  0
    3.6023   -0.4272   -0.1431 C   0  0  0  0  0  0  0  0  0  0  0  0
    2.9492   -1.2958   -0.7048 O   0  0  0  0  0  0  0  0  0  0  0  0
    1.1091    4.1592   -3.1291 H   0  0  0  0  0  0  0  0  0  0  0  0
    0.3514    2.5791   -2.8268 H   0  0  0  0  0  0  0  0  0  0  0  0
    1.5788    2.7521   -4.1015 H   0  0  0  0  0  0  0  0  0  0  0  0
    2.0935    3.2476   -1.1129 H   0  0  0  0  0  0  0  0  0  0  0  0
    3.3387    3.2348   -2.3736 H   0  0  0  0  0  0  0  0  0  0  0  0
    1.6884    0.8330   -1.3968 H   0  0  0  0  0  0  0  0  0  0  0  0
    3.8128    0.9659   -3.6209 H   0  0  0  0  0  0  0  0  0  0  0  0
    2.0932    0.5503   -3.8155 H   0  0  0  0  0  0  0  0  0  0  0  0
    3.1575   -0.5445   -2.9167 H   0  0  0  0  0  0  0  0  0  0  0  0
    4.7039    0.9809   -1.3371 H   0  0  0  0  0  0  0  0  0  0  0  0
    3.5324    2.9262    0.0838 H   0  0  0  0  0  0  0  0  0  0  0  0
    4.7812    0.2713    2.8515 H   0  0  0  0  0  0  0  0  0  0  0  0
    6.7842   -0.7098    1.7962 H   0  0  0  0  0  0  0  0  0  0  0  0
    6.7747    1.7030   -0.1074 H   0  0  0  0  0  0  0  0  0  0  0  0
    6.5203   -0.0071   -0.5667 H   0  0  0  0  0  0  0  0  0  0  0  0
    8.0772    0.5132    0.0811 H   0  0  0  0  0  0  0  0  0  0  0  0
    6.7910    0.9566    3.6495 H   0  0  0  0  0  0  0  0  0  0  0  0
    7.0085    2.2590    2.4994 H   0  0  0  0  0  0  0  0  0  0  0  0
    8.9991   -0.0844    2.8977 H   0  0  0  0  0  0  0  0  0  0  0  0
    9.1766    1.5463    3.5824 H   0  0  0  0  0  0  0  0  0  0  0  0
    9.2646    1.3121    1.8293 H   0  0  0  0  0  0  0  0  0  0  0  0
    3.6626   -2.6094    0.9347 H   0  0  0  0  0  0  0  0  0  0  0  0
    5.2697   -1.8095    3.4248 H   0  0  0  0  0  0  0  0  0  0  0  0
    5.8737   -2.5807    1.9574 H   0  0  0  0  0  0  0  0  0  0  0  0
    3.8734   -3.8284    3.9503 H   0  0  0  0  0  0  0  0  0  0  0  0
    5.5604   -4.2983    3.6735 H   0  0  0  0  0  0  0  0  0  0  0  0
    4.3442   -4.5734    2.4059 H   0  0  0  0  0  0  0  0  0  0  0  0
    2.1769   -2.7955    2.7910 H   0  0  0  0  0  0  0  0  0  0  0  0
    1.7433   -1.4577    1.7486 H   0  0  0  0  0  0  0  0  0  0  0  0
    3.1555   -1.1424    4.4937 H   0  0  0  0  0  0  0  0  0  0  0  0
    1.4274   -0.9089    4.1806 H   0  0  0  0  0  0  0  0  0  0  0  0
    2.6035    0.1965    3.4591 H   0  0  0  0  0  0  0  0  0  0  0  0
  1  2  1  0
  1 22  1  0
  1 23  1  0
  1 24  1  0
  2  3  1  0
  2 25  1  0
  2 26  1  0
  3  4  1  0
  3  5  1  0
  3 27  1  1
  4 28  1  0
  4 29  1  0
  4 30  1  0
  5  6  1  0
  5 20  1  0
  5 31  1  6
  6  7  1  0
  6 32  1  0
  7  8  2  0
  7  9  1  0
  9 10  1  0
  9 14  1  0
  9 33  1  1
 10 11  1  0
 10 12  1  0
 10 34  1  1
 11 35  1  0
 11 36  1  0
 11 37  1  0
 12 13  1  0
 12 38  1  0
 12 39  1  0
 13 40  1  0
 13 41  1  0
 13 42  1  0
 14 15  1  0
 14 20  1  0
 15 16  1  0
 15 18  1  0
 15 43  1  6
 16 17  1  0
 16 44  1  0
 16 45  1  0
 17 46  1  0
 17 47  1  0
 17 48  1  0
 18 19  1  0
 18 49  1  0
 18 50  1  0
 19 51  1  0
 19 52  1  0
 19 53  1  0
 20 21  2  0
M  END

