
     RDKit          3D

 41 42  0  0  0  0  0  0  0  0999 V2000
    5.8242   -1.0341   -3.5275 C   0  0  0  0  0  0  0  0  0  0  0  0
    4.3950   -1.0230   -4.0979 C   0  0  0  0  0  0  0  0  0  0  0  0
    3.4545   -0.0607   -3.3979 C   0  0  0  0  0  0  0  0  0  0  0  0
    3.1997    1.1941   -3.9670 C   0  0  0  0  0  0  0  0  0  0  0  0
    2.3710    2.1329   -3.3498 C   0  0  0  0  0  0  0  0  0  0  0  0
    1.7777    1.8093   -2.1283 C   0  0  0  0  0  0  0  0  0  0  0  0
    2.0041    0.5684   -1.5318 C   0  0  0  0  0  0  0  0  0  0  0  0
    2.8416   -0.3749   -2.1560 C   0  0  0  0  0  0  0  0  0  0  0  0
    3.0915   -1.6418   -1.5968 N   0  0  0  0  0  0  0  0  0  0  0  0
    2.6401   -2.1732   -0.3951 C   0  0  0  0  0  0  0  0  0  0  0  0
    1.9562   -1.5742    0.4208 O   0  0  0  0  0  0  0  0  0  0  0  0
    3.0681   -3.4656   -0.1903 N   0  0  0  0  0  0  0  0  0  0  0  0
    2.5884   -4.2208    0.9350 C   0  0  0  0  0  0  0  0  0  0  0  0
    2.5960   -5.7060    0.5637 C   0  0  0  0  0  0  0  0  0  0  0  0
    3.0281   -6.0823   -0.5216 O   0  0  0  0  0  0  0  0  0  0  0  0
    2.1153   -6.5659    1.4950 N   0  0  0  0  0  0  0  0  0  0  0  0
    2.0512   -8.0089    1.2273 C   0  0  0  0  0  0  0  0  0  0  0  0
    1.1086   -8.5298    2.3183 C   0  0  0  0  0  0  0  0  0  0  0  0
    1.3580   -7.5663    3.4883 C   0  0  0  0  0  0  0  0  0  0  0  0
    1.5371   -6.2078    2.7956 C   0  0  0  0  0  0  0  0  0  0  0  0
    6.4649   -1.7449   -4.0743 H   0  0  0  0  0  0  0  0  0  0  0  0
    5.8405   -1.3149   -2.4619 H   0  0  0  0  0  0  0  0  0  0  0  0
    6.2801   -0.0348   -3.6050 H   0  0  0  0  0  0  0  0  0  0  0  0
    3.9809   -2.0491   -4.0851 H   0  0  0  0  0  0  0  0  0  0  0  0
    4.4399   -0.7521   -5.1647 H   0  0  0  0  0  0  0  0  0  0  0  0
    3.6679    1.4345   -4.9264 H   0  0  0  0  0  0  0  0  0  0  0  0
    2.1910    3.1028   -3.8195 H   0  0  0  0  0  0  0  0  0  0  0  0
    1.1249    2.5280   -1.6257 H   0  0  0  0  0  0  0  0  0  0  0  0
    1.5468    0.3106   -0.5797 H   0  0  0  0  0  0  0  0  0  0  0  0
    3.7014   -2.2394   -2.1381 H   0  0  0  0  0  0  0  0  0  0  0  0
    3.3792   -4.0579   -0.9597 H   0  0  0  0  0  0  0  0  0  0  0  0
    1.5749   -3.8887    1.2206 H   0  0  0  0  0  0  0  0  0  0  0  0
    3.2166   -4.0712    1.8351 H   0  0  0  0  0  0  0  0  0  0  0  0
    3.0583   -8.4576    1.3042 H   0  0  0  0  0  0  0  0  0  0  0  0
    1.6967   -8.1902    0.2021 H   0  0  0  0  0  0  0  0  0  0  0  0
    1.2989   -9.5823    2.5743 H   0  0  0  0  0  0  0  0  0  0  0  0
    0.0612   -8.4532    1.9812 H   0  0  0  0  0  0  0  0  0  0  0  0
    2.2864   -7.8430    4.0153 H   0  0  0  0  0  0  0  0  0  0  0  0
    0.5461   -7.5539    4.2300 H   0  0  0  0  0  0  0  0  0  0  0  0
    2.1970   -5.5312    3.3613 H   0  0  0  0  0  0  0  0  0  0  0  0
    0.5673   -5.6917    2.6682 H   0  0  0  0  0  0  0  0  0  0  0  0
  1  2  1  0
  1 21  1  0
  1 22  1  0
  1 23  1  0
  2  3  1  0
  2 24  1  0
  2 25  1  0
  3  4  2  0
  3  8  1  0
  4  5  1  0
  4 26  1  0
  5  6  2  0
  5 27  1  0
  6  7  1  0
  6 28  1  0
  7  8  2  0
  7 29  1  0
  8  9  1  0
  9 10  1  0
  9 30  1  0
 10 11  2  0
 10 12  1  0
 12 13  1  0
 12 31  1  0
 13 14  1  0
 13 32  1  0
 13 33  1  0
 14 15  2  0
 14 16  1  0
 16 17  1  0
 16 20  1  0
 17 18  1  0
 17 34  1  0
 17 35  1  0
 18 19  1  0
 18 36  1  0
 18 37  1  0
 19 20  1  0
 19 38  1  0
 19 39  1  0
 20 40  1  0
 20 41  1  0
M  END

