
     RDKit          3D

 57 60  0  0  0  0  0  0  0  0999 V2000
    4.6968   -5.8936   -0.7700 C   0  0  0  0  0  0  0  0  0  0  0  0
    3.8067   -5.1941   -1.7453 C   0  0  0  0  0  0  0  0  0  0  0  0
    3.5157   -5.7525   -2.8963 N   0  0  0  0  0  0  0  0  0  0  0  0
    2.6931   -4.8547   -3.5732 O   0  0  0  0  0  0  0  0  0  0  0  0
    2.4919   -3.7620   -2.8356 C   0  0  0  0  0  0  0  0  0  0  0  0
    1.6374   -2.6801   -3.3884 C   0  0  0  0  0  0  0  0  0  0  0  0
    3.1676   -3.9093   -1.6470 C   0  0  0  0  0  0  0  0  0  0  0  0
    3.2767   -2.7064   -0.3590 S   0  0  1  0  0  0  0  0  0  0  0  0
    4.1856   -3.2666    0.6513 O   0  0  0  0  0  0  0  0  0  0  0  0
    3.5585   -1.3955   -0.9535 O   0  0  0  0  0  0  0  0  0  0  0  0
    1.6850   -2.6299    0.2074 N   0  0  0  0  0  0  0  0  0  0  0  0
    1.2375   -3.7516    1.0489 C   0  0  0  0  0  0  0  0  0  0  0  0
    1.5365   -3.5464    2.5399 C   0  0  0  0  0  0  0  0  0  0  0  0
    1.0215   -2.2017    3.0595 C   0  0  2  0  0  0  0  0  0  0  0  0
    1.5326   -1.0704    2.1512 C   0  0  0  0  0  0  0  0  0  0  0  0
    1.2063   -1.3187    0.6758 C   0  0  0  0  0  0  0  0  0  0  0  0
    1.2570   -1.8942    4.5614 C   0  0  0  0  0  0  0  0  0  0  0  0
   -0.1092   -1.3895    4.6449 N   0  0  0  0  0  0  0  0  0  0  0  0
   -0.8931   -1.3051    5.8645 C   0  0  1  0  0  0  0  0  0  0  0  0
   -0.0979   -0.5407    6.9276 C   0  0  0  0  0  0  0  0  0  0  0  0
   -2.2328   -0.6216    5.5771 C   0  0  0  0  0  0  0  0  0  0  0  0
   -0.5266   -2.0206    3.3825 C   0  0  2  0  0  0  0  0  0  0  0  0
   -1.4016   -3.2615    3.4356 C   0  0  0  0  0  0  0  0  0  0  0  0
   -2.4567   -3.3960    2.5166 C   0  0  0  0  0  0  0  0  0  0  0  0
   -3.2833   -4.5232    2.5147 C   0  0  0  0  0  0  0  0  0  0  0  0
   -3.0777   -5.5428    3.4478 C   0  0  0  0  0  0  0  0  0  0  0  0
   -2.0402   -5.4225    4.3773 C   0  0  0  0  0  0  0  0  0  0  0  0
   -1.2115   -4.2969    4.3703 C   0  0  0  0  0  0  0  0  0  0  0  0
    5.0355   -6.8444   -1.2025 H   0  0  0  0  0  0  0  0  0  0  0  0
    4.1686   -6.0900    0.1750 H   0  0  0  0  0  0  0  0  0  0  0  0
    5.5631   -5.2654   -0.5188 H   0  0  0  0  0  0  0  0  0  0  0  0
    1.6402   -2.7180   -4.4865 H   0  0  0  0  0  0  0  0  0  0  0  0
    2.0101   -1.7057   -3.0445 H   0  0  0  0  0  0  0  0  0  0  0  0
    0.5977   -2.7927   -3.0384 H   0  0  0  0  0  0  0  0  0  0  0  0
    1.6978   -4.6811    0.6816 H   0  0  0  0  0  0  0  0  0  0  0  0
    0.1509   -3.8573    0.8889 H   0  0  0  0  0  0  0  0  0  0  0  0
    2.6288   -3.5788    2.6860 H   0  0  0  0  0  0  0  0  0  0  0  0
    1.1063   -4.3844    3.1081 H   0  0  0  0  0  0  0  0  0  0  0  0
    2.6282   -0.9884    2.2618 H   0  0  0  0  0  0  0  0  0  0  0  0
    1.1020   -0.1094    2.4767 H   0  0  0  0  0  0  0  0  0  0  0  0
    1.6400   -0.5407    0.0352 H   0  0  0  0  0  0  0  0  0  0  0  0
    0.1139   -1.3086    0.5143 H   0  0  0  0  0  0  0  0  0  0  0  0
    2.0498   -1.1584    4.7891 H   0  0  0  0  0  0  0  0  0  0  0  0
    1.4603   -2.8095    5.1591 H   0  0  0  0  0  0  0  0  0  0  0  0
   -1.1142   -2.3157    6.2792 H   0  0  0  0  0  0  0  0  0  0  0  0
    0.1323    0.4793    6.5791 H   0  0  0  0  0  0  0  0  0  0  0  0
    0.8536   -1.0425    7.1647 H   0  0  0  0  0  0  0  0  0  0  0  0
   -0.6759   -0.4688    7.8622 H   0  0  0  0  0  0  0  0  0  0  0  0
   -2.0685    0.3970    5.1892 H   0  0  0  0  0  0  0  0  0  0  0  0
   -2.8363   -0.5529    6.4959 H   0  0  0  0  0  0  0  0  0  0  0  0
   -2.8222   -1.1814    4.8348 H   0  0  0  0  0  0  0  0  0  0  0  0
   -1.0239   -1.3070    2.6989 H   0  0  0  0  0  0  0  0  0  0  0  0
   -2.6367   -2.5956    1.7924 H   0  0  0  0  0  0  0  0  0  0  0  0
   -4.0953   -4.6008    1.7867 H   0  0  0  0  0  0  0  0  0  0  0  0
   -3.7246   -6.4236    3.4547 H   0  0  0  0  0  0  0  0  0  0  0  0
   -1.8732   -6.2115    5.1153 H   0  0  0  0  0  0  0  0  0  0  0  0
   -0.4082   -4.2275    5.1057 H   0  0  0  0  0  0  0  0  0  0  0  0
  1  2  1  0
  1 29  1  0
  1 30  1  0
  1 31  1  0
  2  3  2  0
  2  7  1  0
  3  4  1  0
  4  5  1  0
  5  6  1  0
  5  7  2  0
  6 32  1  0
  6 33  1  0
  6 34  1  0
  8  7  1  6
  8  9  2  0
  8 10  2  0
  8 11  1  0
 11 12  1  0
 11 16  1  0
 12 13  1  0
 12 35  1  0
 12 36  1  0
 14 13  1  6
 13 37  1  0
 13 38  1  0
 14 15  1  0
 14 17  1  0
 14 22  1  0
 15 16  1  0
 15 39  1  0
 15 40  1  0
 16 41  1  0
 16 42  1  0
 17 18  1  0
 17 43  1  0
 17 44  1  0
 18 19  1  0
 18 22  1  0
 19 20  1  0
 19 21  1  0
 19 45  1  1
 20 46  1  0
 20 47  1  0
 20 48  1  0
 21 49  1  0
 21 50  1  0
 21 51  1  0
 22 23  1  0
 22 52  1  6
 23 24  2  0
 23 28  1  0
 24 25  1  0
 24 53  1  0
 25 26  2  0
 25 54  1  0
 26 27  1  0
 26 55  1  0
 27 28  2  0
 27 56  1  0
 28 57  1  0
M  END

