
     RDKit          3D

 42 45  0  0  0  0  0  0  0  0999 V2000
    1.3964   -0.3781   -0.5967 C   0  0  0  0  0  0  0  0  0  0  0  0
    2.8758   -0.2021   -0.4793 C   0  0  0  0  0  0  0  0  0  0  0  0
    3.5008    0.9932   -0.6250 N   0  0  0  0  0  0  0  0  0  0  0  0
    4.7901    0.7068   -0.4500 C   0  0  0  0  0  0  0  0  0  0  0  0
    6.0197    1.5044   -0.4622 C   0  0  0  0  0  0  0  0  0  0  0  0
    6.0004    2.8474   -0.6955 N   0  0  0  0  0  0  0  0  0  0  0  0
    4.8211    3.6487   -1.0327 C   0  0  0  0  0  0  0  0  0  0  0  0
    4.7316    4.8645   -0.0923 C   0  0  0  0  0  0  0  0  0  0  0  0
    5.9452    5.6691   -0.0493 N   0  0  0  0  0  0  0  0  0  0  0  0
    6.1146    6.5953   -1.1533 C   0  0  0  0  0  0  0  0  0  0  0  0
    7.1019    4.8340    0.2458 C   0  0  0  0  0  0  0  0  0  0  0  0
    7.2463    3.6184   -0.6869 C   0  0  0  0  0  0  0  0  0  0  0  0
    7.1741    0.9074   -0.2362 N   0  0  0  0  0  0  0  0  0  0  0  0
    7.2557   -0.4324    0.0083 C   0  0  0  0  0  0  0  0  0  0  0  0
    8.5110   -1.0404    0.2486 C   0  0  0  0  0  0  0  0  0  0  0  0
    8.6131   -2.4009    0.4953 C   0  0  0  0  0  0  0  0  0  0  0  0
    7.4622   -3.2134    0.5125 C   0  0  0  0  0  0  0  0  0  0  0  0
    7.5561   -4.6937    0.7791 C   0  0  1  0  0  0  0  0  0  0  0  0
    8.8227   -5.0935    0.9839 F   0  0  0  0  0  0  0  0  0  0  0  0
    6.8436   -5.0497    1.8660 F   0  0  0  0  0  0  0  0  0  0  0  0
    7.0700   -5.4162   -0.2494 F   0  0  0  0  0  0  0  0  0  0  0  0
    6.2065   -2.6548    0.2810 C   0  0  0  0  0  0  0  0  0  0  0  0
    6.1172   -1.2838    0.0336 C   0  0  0  0  0  0  0  0  0  0  0  0
    4.9073   -0.6381   -0.2062 N   0  0  0  0  0  0  0  0  0  0  0  0
    3.6993   -1.2193   -0.2237 N   0  0  0  0  0  0  0  0  0  0  0  0
    0.9183    0.5963   -0.7581 H   0  0  0  0  0  0  0  0  0  0  0  0
    0.9823   -0.8359    0.3149 H   0  0  0  0  0  0  0  0  0  0  0  0
    1.1460   -1.0413   -1.4397 H   0  0  0  0  0  0  0  0  0  0  0  0
    3.9184    3.0340   -0.9612 H   0  0  0  0  0  0  0  0  0  0  0  0
    4.9178    3.9882   -2.0820 H   0  0  0  0  0  0  0  0  0  0  0  0
    4.5193    4.4944    0.9275 H   0  0  0  0  0  0  0  0  0  0  0  0
    3.8819    5.4983   -0.3930 H   0  0  0  0  0  0  0  0  0  0  0  0
    5.2349    7.2558   -1.2192 H   0  0  0  0  0  0  0  0  0  0  0  0
    6.2520    6.1294   -2.1547 H   0  0  0  0  0  0  0  0  0  0  0  0
    6.9934    7.2339   -0.9677 H   0  0  0  0  0  0  0  0  0  0  0  0
    7.0106    4.4633    1.2830 H   0  0  0  0  0  0  0  0  0  0  0  0
    8.0173    5.4458    0.1978 H   0  0  0  0  0  0  0  0  0  0  0  0
    8.0598    2.9603   -0.3633 H   0  0  0  0  0  0  0  0  0  0  0  0
    7.4663    3.9479   -1.7201 H   0  0  0  0  0  0  0  0  0  0  0  0
    9.3952   -0.4009    0.2321 H   0  0  0  0  0  0  0  0  0  0  0  0
    9.5894   -2.8515    0.6782 H   0  0  0  0  0  0  0  0  0  0  0  0
    5.2954   -3.2538    0.2875 H   0  0  0  0  0  0  0  0  0  0  0  0
  1  2  1  0
  1 26  1  0
  1 27  1  0
  1 28  1  0
  2  3  1  0
  2 25  2  0
  3  4  2  0
  4  5  1  0
  4 24  1  0
  5  6  1  0
  5 13  2  0
  6  7  1  0
  6 12  1  0
  7  8  1  0
  7 29  1  0
  7 30  1  0
  8  9  1  0
  8 31  1  0
  8 32  1  0
  9 10  1  0
  9 11  1  0
 10 33  1  0
 10 34  1  0
 10 35  1  0
 11 12  1  0
 11 36  1  0
 11 37  1  0
 12 38  1  0
 12 39  1  0
 13 14  1  0
 14 15  1  0
 14 23  2  0
 15 16  2  0
 15 40  1  0
 16 17  1  0
 16 41  1  0
 17 18  1  0
 17 22  2  0
 18 19  1  1
 18 20  1  0
 18 21  1  0
 22 23  1  0
 22 42  1  0
 23 24  1  0
 24 25  1  0
M  END

