
     RDKit          3D

 38 39  0  0  0  0  0  0  0  0999 V2000
    1.0611   -0.2812   -1.0241 O   0  0  0  0  0  0  0  0  0  0  0  0
    1.9023    0.5727   -1.0660 C   0  0  0  0  0  0  0  0  0  0  0  0
    2.1120    1.2871   -2.1900 O   0  0  0  0  0  0  0  0  0  0  0  0
    2.7937    0.9379    0.1316 C   0  0  0  0  0  0  0  0  0  0  0  0
    4.2739    0.7281   -0.1014 C   0  0  0  0  0  0  0  0  0  0  0  0
    4.9654   -0.3901    0.3884 C   0  0  0  0  0  0  0  0  0  0  0  0
    6.3311   -0.5842    0.1783 C   0  0  0  0  0  0  0  0  0  0  0  0
    7.0668    0.3661   -0.5548 C   0  0  0  0  0  0  0  0  0  0  0  0
    8.4419    0.2532   -0.8141 N   0  0  0  0  0  0  0  0  0  0  0  0
    9.3208   -0.7452   -0.4312 C   0  0  0  0  0  0  0  0  0  0  0  0
    8.9893   -1.7202    0.2173 O   0  0  0  0  0  0  0  0  0  0  0  0
   10.7641   -0.5072   -0.8574 C   0  0  0  0  0  0  0  0  0  0  0  0
   11.6667   -0.0755    0.3112 C   0  0  1  0  0  0  0  0  0  0  0  0
   11.8701   -1.1161    1.4254 C   0  0  0  0  0  0  0  0  0  0  0  0
   13.0605   -0.5599    2.2268 C   0  0  0  0  0  0  0  0  0  0  0  0
   13.9459    0.1918    1.1910 C   0  0  0  0  0  0  0  0  0  0  0  0
   13.1138    0.2434   -0.1152 C   0  0  0  0  0  0  0  0  0  0  0  0
    6.3991    1.4954   -1.0645 C   0  0  0  0  0  0  0  0  0  0  0  0
    5.0424    1.6411   -0.8265 C   0  0  0  0  0  0  0  0  0  0  0  0
    4.4186    2.7370   -1.3447 F   0  0  0  0  0  0  0  0  0  0  0  0
    2.8067    1.9524   -2.0593 H   0  0  0  0  0  0  0  0  0  0  0  0
    2.4522    0.3194    0.9702 H   0  0  0  0  0  0  0  0  0  0  0  0
    2.6002    1.9940    0.3890 H   0  0  0  0  0  0  0  0  0  0  0  0
    4.4112   -1.1372    0.9625 H   0  0  0  0  0  0  0  0  0  0  0  0
    6.8398   -1.4597    0.5728 H   0  0  0  0  0  0  0  0  0  0  0  0
    8.8406    1.0082   -1.3587 H   0  0  0  0  0  0  0  0  0  0  0  0
   10.8202    0.2423   -1.6654 H   0  0  0  0  0  0  0  0  0  0  0  0
   11.1347   -1.4599   -1.2698 H   0  0  0  0  0  0  0  0  0  0  0  0
   11.2307    0.8353    0.7665 H   0  0  0  0  0  0  0  0  0  0  0  0
   12.1309   -2.0856    0.9647 H   0  0  0  0  0  0  0  0  0  0  0  0
   10.9699   -1.2875    2.0323 H   0  0  0  0  0  0  0  0  0  0  0  0
   13.6097   -1.3494    2.7623 H   0  0  0  0  0  0  0  0  0  0  0  0
   12.6957    0.1433    2.9935 H   0  0  0  0  0  0  0  0  0  0  0  0
   14.9078   -0.3177    1.0261 H   0  0  0  0  0  0  0  0  0  0  0  0
   14.1898    1.2051    1.5467 H   0  0  0  0  0  0  0  0  0  0  0  0
   13.4550   -0.5370   -0.8177 H   0  0  0  0  0  0  0  0  0  0  0  0
   13.1991    1.2065   -0.6440 H   0  0  0  0  0  0  0  0  0  0  0  0
    6.9188    2.2612   -1.6446 H   0  0  0  0  0  0  0  0  0  0  0  0
  1  2  2  0
  2  3  1  0
  2  4  1  0
  3 21  1  0
  4  5  1  0
  4 22  1  0
  4 23  1  0
  5  6  2  0
  5 19  1  0
  6  7  1  0
  6 24  1  0
  7  8  2  0
  7 25  1  0
  8  9  1  0
  8 18  1  0
  9 10  1  0
  9 26  1  0
 10 11  2  0
 10 12  1  0
 12 13  1  0
 12 27  1  0
 12 28  1  0
 13 14  1  0
 13 17  1  0
 13 29  1  1
 14 15  1  0
 14 30  1  0
 14 31  1  0
 15 16  1  0
 15 32  1  0
 15 33  1  0
 16 17  1  0
 16 34  1  0
 16 35  1  0
 17 36  1  0
 17 37  1  0
 18 19  2  0
 18 38  1  0
 19 20  1  0
M  END

