
     RDKit          3D

 42 43  0  0  0  0  0  0  0  0999 V2000
    0.7784   -1.8411    0.5315 C   0  0  0  0  0  0  0  0  0  0  0  0
    2.1693   -1.9927    0.4777 O   0  0  0  0  0  0  0  0  0  0  0  0
    2.8013   -1.1448   -0.4531 C   0  0  0  0  0  0  0  0  0  0  0  0
    4.3079   -1.4133   -0.4420 C   0  0  1  0  0  0  0  0  0  0  0  0
    4.6602   -2.8798   -0.7534 C   0  0  0  0  0  0  0  0  0  0  0  0
    4.4735   -3.2046   -2.2396 C   0  0  0  0  0  0  0  0  0  0  0  0
    5.1882   -2.1828   -3.1247 C   0  0  0  0  0  0  0  0  0  0  0  0
    4.7667   -0.8198   -2.8085 N   0  0  0  0  0  0  0  0  0  0  0  0
    5.2817    0.1664   -3.7449 C   0  0  0  0  0  0  0  0  0  0  0  0
    4.6314    0.0855   -5.0926 C   0  0  0  0  0  0  0  0  0  0  0  0
    3.3703   -0.2246   -5.5152 C   0  0  0  0  0  0  0  0  0  0  0  0
    3.3536   -0.0487   -6.9449 C   0  0  0  0  0  0  0  0  0  0  0  0
    2.1766   -0.3108   -7.8488 C   0  0  0  0  0  0  0  0  0  0  0  0
    2.0513    0.6906   -8.9077 N   0  0  0  0  0  0  0  0  0  0  0  0
    4.6194    0.3638   -7.2886 C   0  0  0  0  0  0  0  0  0  0  0  0
    5.2827    0.6933   -8.5798 C   0  0  0  0  0  0  0  0  0  0  0  0
    5.3918    0.4437   -6.1632 O   0  0  0  0  0  0  0  0  0  0  0  0
    5.0423   -0.4795   -1.4161 C   0  0  0  0  0  0  0  0  0  0  0  0
    0.3877   -2.5518    1.2751 H   0  0  0  0  0  0  0  0  0  0  0  0
    0.2971   -2.0533   -0.4456 H   0  0  0  0  0  0  0  0  0  0  0  0
    0.4815   -0.8160    0.8362 H   0  0  0  0  0  0  0  0  0  0  0  0
    2.6157   -0.0804   -0.1915 H   0  0  0  0  0  0  0  0  0  0  0  0
    2.3849   -1.2960   -1.4687 H   0  0  0  0  0  0  0  0  0  0  0  0
    4.6620   -1.1803    0.5773 H   0  0  0  0  0  0  0  0  0  0  0  0
    4.0539   -3.5469   -0.1226 H   0  0  0  0  0  0  0  0  0  0  0  0
    5.7171   -3.0485   -0.4791 H   0  0  0  0  0  0  0  0  0  0  0  0
    3.4009   -3.2143   -2.4972 H   0  0  0  0  0  0  0  0  0  0  0  0
    4.8588   -4.2137   -2.4619 H   0  0  0  0  0  0  0  0  0  0  0  0
    4.9726   -2.3788   -4.1861 H   0  0  0  0  0  0  0  0  0  0  0  0
    6.2929   -2.2893   -2.9959 H   0  0  0  0  0  0  0  0  0  0  0  0
    6.3844    0.0921   -3.8888 H   0  0  0  0  0  0  0  0  0  0  0  0
    5.1030    1.1673   -3.3111 H   0  0  0  0  0  0  0  0  0  0  0  0
    2.5447   -0.5398   -4.8808 H   0  0  0  0  0  0  0  0  0  0  0  0
    1.2740   -0.4068   -7.2082 H   0  0  0  0  0  0  0  0  0  0  0  0
    2.2957   -1.2953   -8.3385 H   0  0  0  0  0  0  0  0  0  0  0  0
    1.8742    1.6104   -8.5020 H   0  0  0  0  0  0  0  0  0  0  0  0
    1.2565    0.4748   -9.5095 H   0  0  0  0  0  0  0  0  0  0  0  0
    4.5209    0.7522   -9.3677 H   0  0  0  0  0  0  0  0  0  0  0  0
    6.0337   -0.0680   -8.8562 H   0  0  0  0  0  0  0  0  0  0  0  0
    5.8090    1.6608   -8.5183 H   0  0  0  0  0  0  0  0  0  0  0  0
    4.7329    0.5654   -1.2442 H   0  0  0  0  0  0  0  0  0  0  0  0
    6.1360   -0.5253   -1.1978 H   0  0  0  0  0  0  0  0  0  0  0  0
  1  2  1  0
  1 19  1  0
  1 20  1  0
  1 21  1  0
  2  3  1  0
  3  4  1  0
  3 22  1  0
  3 23  1  0
  4  5  1  0
  4 18  1  0
  4 24  1  1
  5  6  1  0
  5 25  1  0
  5 26  1  0
  6  7  1  0
  6 27  1  0
  6 28  1  0
  7  8  1  0
  7 29  1  0
  7 30  1  0
  8  9  1  0
  8 18  1  0
  9 10  1  0
  9 31  1  0
  9 32  1  0
 10 11  2  0
 10 17  1  0
 11 12  1  0
 11 33  1  0
 12 13  1  0
 12 15  2  0
 13 14  1  0
 13 34  1  0
 13 35  1  0
 14 36  1  0
 14 37  1  0
 15 16  1  0
 15 17  1  0
 16 38  1  0
 16 39  1  0
 16 40  1  0
 18 41  1  0
 18 42  1  0
M  END

