
     RDKit          3D

 30 32  0  0  0  0  0  0  0  0999 V2000
    0.8786    0.0877    0.0165 C   0  0  0  0  0  0  0  0  0  0  0  0
    2.4083    0.1057    0.0346 C   0  0  2  0  0  0  0  0  0  0  0  0
    3.0078    1.2479   -0.7882 C   0  0  0  0  0  0  0  0  0  0  0  0
    4.5241    1.2540   -0.6247 C   0  0  0  0  0  0  0  0  0  0  0  0
    5.1924   -0.0933   -0.8033 C   0  0  0  0  0  0  0  0  0  0  0  0
    6.4657   -0.1039   -1.0377 N   0  0  0  0  0  0  0  0  0  0  0  0
    7.1209   -1.3112   -1.1419 C   0  0  0  0  0  0  0  0  0  0  0  0
    8.5123   -1.3303   -1.3896 C   0  0  0  0  0  0  0  0  0  0  0  0
    9.1860   -2.5386   -1.4935 C   0  0  0  0  0  0  0  0  0  0  0  0
    8.4988   -3.7620   -1.3568 C   0  0  0  0  0  0  0  0  0  0  0  0
    7.1318   -3.7626   -1.1173 C   0  0  0  0  0  0  0  0  0  0  0  0
    6.4376   -2.5430   -1.0070 C   0  0  0  0  0  0  0  0  0  0  0  0
    4.9917   -2.5343   -0.7691 C   0  0  0  0  0  0  0  0  0  0  0  0
    4.2867   -3.5255   -0.6758 O   0  0  0  0  0  0  0  0  0  0  0  0
    4.4256   -1.2401   -0.6573 N   0  0  0  0  0  0  0  0  0  0  0  0
    2.9595   -1.2226   -0.4766 C   0  0  0  0  0  0  0  0  0  0  0  0
    0.4694    1.0215    0.4330 H   0  0  0  0  0  0  0  0  0  0  0  0
    0.4777   -0.7497    0.6097 H   0  0  0  0  0  0  0  0  0  0  0  0
    0.4944   -0.0165   -1.0124 H   0  0  0  0  0  0  0  0  0  0  0  0
    2.7407    0.2341    1.0827 H   0  0  0  0  0  0  0  0  0  0  0  0
    2.5926    2.2183   -0.4719 H   0  0  0  0  0  0  0  0  0  0  0  0
    2.7318    1.1180   -1.8510 H   0  0  0  0  0  0  0  0  0  0  0  0
    4.7822    1.6004    0.3931 H   0  0  0  0  0  0  0  0  0  0  0  0
    5.0261    1.9498   -1.3118 H   0  0  0  0  0  0  0  0  0  0  0  0
    9.0256   -0.3725   -1.4927 H   0  0  0  0  0  0  0  0  0  0  0  0
   10.2628   -2.5429   -1.6839 H   0  0  0  0  0  0  0  0  0  0  0  0
    9.0431   -4.7057   -1.4410 H   0  0  0  0  0  0  0  0  0  0  0  0
    6.5654   -4.6900   -1.0099 H   0  0  0  0  0  0  0  0  0  0  0  0
    2.7124   -2.0541    0.1971 H   0  0  0  0  0  0  0  0  0  0  0  0
    2.4941   -1.4749   -1.4471 H   0  0  0  0  0  0  0  0  0  0  0  0
  1  2  1  0
  1 17  1  0
  1 18  1  0
  1 19  1  0
  2  3  1  0
  2 16  1  0
  2 20  1  1
  3  4  1  0
  3 21  1  0
  3 22  1  0
  4  5  1  0
  4 23  1  0
  4 24  1  0
  5  6  2  0
  5 15  1  0
  6  7  1  0
  7  8  1  0
  7 12  2  0
  8  9  2  0
  8 25  1  0
  9 10  1  0
  9 26  1  0
 10 11  2  0
 10 27  1  0
 11 12  1  0
 11 28  1  0
 12 13  1  0
 13 14  2  0
 13 15  1  0
 15 16  1  0
 16 29  1  0
 16 30  1  0
M  END

