
     RDKit          3D

 38 38  0  0  0  0  0  0  0  0999 V2000
    6.1681    2.5374   -0.1527 C   0  0  0  0  0  0  0  0  0  0  0  0
    5.9375    1.0400   -0.3585 C   0  0  0  0  0  0  0  0  0  0  0  0
    4.5388    0.7010   -0.9145 C   0  0  1  0  0  0  0  0  0  0  0  0
    4.1848    1.3879   -2.1501 N   0  0  0  0  0  0  0  0  0  0  0  0
    4.3667   -0.8296   -1.1314 C   0  0  1  0  0  0  0  0  0  0  0  0
    4.7509   -1.6137    0.0207 N   0  0  0  0  0  0  0  0  0  0  0  0
    3.9627   -1.5238    1.2534 C   0  0  0  0  0  0  0  0  0  0  0  0
    4.5490   -2.6395    2.1144 C   0  0  0  0  0  0  0  0  0  0  0  0
    4.8078   -3.7568    1.0899 C   0  0  2  0  0  0  0  0  0  0  0  0
    5.7356   -4.8676    1.5769 C   0  0  0  0  0  0  0  0  0  0  0  0
    5.2576   -2.9911   -0.1903 C   0  0  2  0  0  0  0  0  0  0  0  0
    6.7686   -2.9447   -0.4516 C   0  0  0  0  0  0  0  0  0  0  0  0
    7.4761   -2.2837    0.5710 O   0  0  0  0  0  0  0  0  0  0  0  0
    2.9388   -1.1601   -1.6544 C   0  0  1  0  0  0  0  0  0  0  0  0
    1.9818   -0.4408   -1.0394 F   0  0  0  0  0  0  0  0  0  0  0  0
    2.8173   -0.9696   -2.9736 F   0  0  0  0  0  0  0  0  0  0  0  0
    2.6373   -2.4615   -1.4288 F   0  0  0  0  0  0  0  0  0  0  0  0
    7.1692    2.7316    0.2623 H   0  0  0  0  0  0  0  0  0  0  0  0
    5.4299    2.9645    0.5474 H   0  0  0  0  0  0  0  0  0  0  0  0
    6.0905    3.0961   -1.0991 H   0  0  0  0  0  0  0  0  0  0  0  0
    6.0759    0.5182    0.6011 H   0  0  0  0  0  0  0  0  0  0  0  0
    6.7045    0.6335   -1.0443 H   0  0  0  0  0  0  0  0  0  0  0  0
    3.7920    1.0127   -0.1639 H   0  0  0  0  0  0  0  0  0  0  0  0
    4.9108    1.2800   -2.8597 H   0  0  0  0  0  0  0  0  0  0  0  0
    4.0508    2.3851   -2.0002 H   0  0  0  0  0  0  0  0  0  0  0  0
    5.0338   -1.1166   -1.9623 H   0  0  0  0  0  0  0  0  0  0  0  0
    2.8816   -1.6979    1.0850 H   0  0  0  0  0  0  0  0  0  0  0  0
    4.0623   -0.5277    1.7178 H   0  0  0  0  0  0  0  0  0  0  0  0
    3.8702   -2.9506    2.9234 H   0  0  0  0  0  0  0  0  0  0  0  0
    5.4993   -2.3172    2.5703 H   0  0  0  0  0  0  0  0  0  0  0  0
    3.8275   -4.2042    0.8485 H   0  0  0  0  0  0  0  0  0  0  0  0
    6.7262   -4.4681    1.8418 H   0  0  0  0  0  0  0  0  0  0  0  0
    5.8729   -5.6492    0.8117 H   0  0  0  0  0  0  0  0  0  0  0  0
    5.3129   -5.3563    2.4696 H   0  0  0  0  0  0  0  0  0  0  0  0
    4.7877   -3.4635   -1.0715 H   0  0  0  0  0  0  0  0  0  0  0  0
    6.9431   -2.4625   -1.4380 H   0  0  0  0  0  0  0  0  0  0  0  0
    7.1730   -3.9659   -0.5327 H   0  0  0  0  0  0  0  0  0  0  0  0
    6.9792   -1.4668    0.7336 H   0  0  0  0  0  0  0  0  0  0  0  0
  1  2  1  0
  1 18  1  0
  1 19  1  0
  1 20  1  0
  2  3  1  0
  2 21  1  0
  2 22  1  0
  3  4  1  0
  3  5  1  0
  3 23  1  1
  4 24  1  0
  4 25  1  0
  5  6  1  0
  5 14  1  0
  5 26  1  6
  6  7  1  0
  6 11  1  0
  7  8  1  0
  7 27  1  0
  7 28  1  0
  8  9  1  0
  8 29  1  0
  8 30  1  0
  9 10  1  0
  9 11  1  0
  9 31  1  6
 10 32  1  0
 10 33  1  0
 10 34  1  0
 11 12  1  0
 11 35  1  6
 12 13  1  0
 12 36  1  0
 12 37  1  0
 13 38  1  0
 14 15  1  1
 14 16  1  0
 14 17  1  0
M  END

