
     RDKit          3D

 31 33  0  0  0  0  0  0  0  0999 V2000
    1.1737   -0.3056   -0.3210 C   0  0  0  0  0  0  0  0  0  0  0  0
    2.5639   -0.3558   -0.6363 O   0  0  0  0  0  0  0  0  0  0  0  0
    3.1414    0.8155   -0.9691 C   0  0  0  0  0  0  0  0  0  0  0  0
    2.5359    1.8625   -1.0055 O   0  0  0  0  0  0  0  0  0  0  0  0
    4.5924    0.6687   -1.2818 C   0  0  0  0  0  0  0  0  0  0  0  0
    5.3121    1.8188   -1.6383 C   0  0  0  0  0  0  0  0  0  0  0  0
    6.6684    1.7378   -1.9385 C   0  0  0  0  0  0  0  0  0  0  0  0
    7.3478    0.5019   -1.8996 C   0  0  0  0  0  0  0  0  0  0  0  0
    8.7750    0.4033   -2.2137 C   0  0  0  0  0  0  0  0  0  0  0  0
    9.7008   -0.5586   -1.8485 C   0  0  0  0  0  0  0  0  0  0  0  0
   10.9645   -0.1700   -2.4007 C   0  0  0  0  0  0  0  0  0  0  0  0
   12.2719   -0.6966   -2.3948 C   0  0  0  0  0  0  0  0  0  0  0  0
   13.2788   -0.1055   -3.0238 N   0  0  0  0  0  0  0  0  0  0  0  0
   13.0472    1.0421   -3.6938 C   0  0  0  0  0  0  0  0  0  0  0  0
   11.8088    1.6745   -3.7777 C   0  0  0  0  0  0  0  0  0  0  0  0
   10.7511    1.0478   -3.1071 C   0  0  0  0  0  0  0  0  0  0  0  0
    9.4278    1.3774   -2.9667 N   0  0  0  0  0  0  0  0  0  0  0  0
    8.9662    2.1413   -3.4419 H   0  0  0  0  0  0  0  0  0  0  0  0
    6.6138   -0.6478   -1.5406 C   0  0  0  0  0  0  0  0  0  0  0  0
    5.2597   -0.5669   -1.2325 C   0  0  0  0  0  0  0  0  0  0  0  0
    0.8775   -1.3333   -0.0773 H   0  0  0  0  0  0  0  0  0  0  0  0
    0.5910    0.0672   -1.1772 H   0  0  0  0  0  0  0  0  0  0  0  0
    0.9905    0.3586    0.5373 H   0  0  0  0  0  0  0  0  0  0  0  0
    4.7868    2.7755   -1.6643 H   0  0  0  0  0  0  0  0  0  0  0  0
    7.2114    2.6556   -2.1771 H   0  0  0  0  0  0  0  0  0  0  0  0
    9.5024   -1.4251   -1.2221 H   0  0  0  0  0  0  0  0  0  0  0  0
   12.4937   -1.6291   -1.8603 H   0  0  0  0  0  0  0  0  0  0  0  0
   13.9134    1.4867   -4.1971 H   0  0  0  0  0  0  0  0  0  0  0  0
   11.6851    2.6060   -4.3347 H   0  0  0  0  0  0  0  0  0  0  0  0
    7.1118   -1.6191   -1.5242 H   0  0  0  0  0  0  0  0  0  0  0  0
    4.7037   -1.4648   -0.9605 H   0  0  0  0  0  0  0  0  0  0  0  0
  1  2  1  0
  1 21  1  0
  1 22  1  0
  1 23  1  0
  2  3  1  0
  3  4  2  0
  3  5  1  0
  5  6  2  0
  5 20  1  0
  6  7  1  0
  6 24  1  0
  7  8  2  0
  7 25  1  0
  8  9  1  0
  8 19  1  0
  9 10  2  0
  9 17  1  0
 10 11  1  0
 10 26  1  0
 11 12  2  0
 11 16  1  0
 12 13  1  0
 12 27  1  0
 13 14  2  0
 14 15  1  0
 14 28  1  0
 15 16  2  0
 15 29  1  0
 16 17  1  0
 17 18  1  0
 19 20  2  0
 19 30  1  0
 20 31  1  0
M  END

