
     RDKit          3D

 94104  0  0  0  0  0  0  0  0999 V2000
   12.2544  -13.9734    6.5973 C   0  0  0  0  0  0  0  0  0  0  0  0
   11.0887  -13.2279    5.9459 C   0  0  0  0  0  0  0  0  0  0  0  0
   11.2534  -11.7049    5.9526 C   0  0  0  0  0  0  0  0  0  0  0  0
   10.0903  -10.9505    5.3021 C   0  0  0  0  0  0  0  0  0  0  0  0
   10.2562   -9.4280    5.3081 C   0  0  0  0  0  0  0  0  0  0  0  0
    9.0926   -8.6733    4.6581 C   0  0  0  0  0  0  0  0  0  0  0  0
    9.2628   -7.1511    4.6631 C   0  0  0  0  0  0  0  0  0  0  0  0
    8.0935   -6.4057    4.0133 C   0  0  0  0  0  0  0  0  0  0  0  0
    8.2149   -4.8665    4.0351 C   0  0  0  0  0  0  0  0  0  0  0  0
    9.3661   -4.3011    3.2328 C   0  0  0  0  0  0  0  0  0  0  0  0
    9.3296   -4.1287    1.8086 C   0  0  0  0  0  0  0  0  0  0  0  0
    8.1787   -4.4651    1.0347 C   0  0  0  0  0  0  0  0  0  0  0  0
    8.1516   -4.2913   -0.3327 C   0  0  0  0  0  0  0  0  0  0  0  0
    9.2798   -3.7680   -1.0139 C   0  0  0  0  0  0  0  0  0  0  0  0
   10.4088   -3.4269   -0.3049 C   0  0  0  0  0  0  0  0  0  0  0  0
   10.4765   -3.5900    1.1111 C   0  0  0  0  0  0  0  0  0  0  0  0
   11.6491   -3.2249    1.8213 C   0  0  0  0  0  0  0  0  0  0  0  0
   11.6911   -3.3861    3.1966 C   0  0  0  0  0  0  0  0  0  0  0  0
   10.5388   -3.9224    3.8518 C   0  0  0  0  0  0  0  0  0  0  0  0
   10.7524   -4.0095    5.2082 O   0  0  0  0  0  0  0  0  0  0  0  0
   12.0097   -3.5356    5.4298 C   0  0  0  0  0  0  0  0  0  0  0  0
   12.5949   -3.4387    6.7070 C   0  0  0  0  0  0  0  0  0  0  0  0
   13.8737   -2.9019    6.8291 C   0  0  0  0  0  0  0  0  0  0  0  0
   14.6228   -2.5765    5.6333 C   0  0  0  0  0  0  0  0  0  0  0  0
   15.9966   -2.2090    5.6893 C   0  0  0  0  0  0  0  0  0  0  0  0
   16.7122   -1.9054    4.5481 C   0  0  0  0  0  0  0  0  0  0  0  0
   16.0872   -1.9549    3.2826 C   0  0  0  0  0  0  0  0  0  0  0  0
   14.7642   -2.3368    3.1821 C   0  0  0  0  0  0  0  0  0  0  0  0
   14.0041   -2.6718    4.3338 C   0  0  0  0  0  0  0  0  0  0  0  0
   12.6552   -3.1403    4.2618 C   0  0  0  0  0  0  0  0  0  0  0  0
   14.4110   -2.7597    8.2122 C   0  0  0  0  0  0  0  0  0  0  0  0
   14.3077   -3.8739    9.0408 C   0  0  0  0  0  0  0  0  0  0  0  0
   14.8547   -3.8190   10.3371 C   0  0  0  0  0  0  0  0  0  0  0  0
   14.8373   -4.8662   11.2101 O   0  0  0  0  0  0  0  0  0  0  0  0
   15.4817   -4.4330   12.3390 C   0  0  0  0  0  0  0  0  0  0  0  0
   15.6903   -5.1863   13.4668 C   0  0  0  0  0  0  0  0  0  0  0  0
   16.3820   -4.5813   14.5511 C   0  0  0  0  0  0  0  0  0  0  0  0
   16.6429   -5.2889   15.7604 C   0  0  0  0  0  0  0  0  0  0  0  0
   17.3165   -4.6916   16.8032 C   0  0  0  0  0  0  0  0  0  0  0  0
   17.7669   -3.3493   16.6912 C   0  0  0  0  0  0  0  0  0  0  0  0
   17.5330   -2.6344   15.5379 C   0  0  0  0  0  0  0  0  0  0  0  0
   16.8387   -3.2161   14.4352 C   0  0  0  0  0  0  0  0  0  0  0  0
   16.5955   -2.4821   13.2444 C   0  0  0  0  0  0  0  0  0  0  0  0
   15.9174   -3.0773   12.1902 C   0  0  0  0  0  0  0  0  0  0  0  0
   15.4855   -2.6900   10.8530 C   0  0  0  0  0  0  0  0  0  0  0  0
   15.5303   -1.4955   10.0684 C   0  0  0  0  0  0  0  0  0  0  0  0
   16.0717   -0.2763   10.5547 C   0  0  0  0  0  0  0  0  0  0  0  0
   16.0342    0.8772    9.7969 C   0  0  0  0  0  0  0  0  0  0  0  0
   15.4370    0.8606    8.5173 C   0  0  0  0  0  0  0  0  0  0  0  0
   14.9165   -0.3125    8.0081 C   0  0  0  0  0  0  0  0  0  0  0  0
   14.9627   -1.5305    8.7430 C   0  0  0  0  0  0  0  0  0  0  0  0
   13.7286   -5.0346    8.6022 O   0  0  0  0  0  0  0  0  0  0  0  0
   12.3281   -5.0015    8.4477 C   0  0  0  0  0  0  0  0  0  0  0  0
   11.8788   -3.8288    7.8075 O   0  0  0  0  0  0  0  0  0  0  0  0
   12.1023  -15.0644    6.5744 H   0  0  0  0  0  0  0  0  0  0  0  0
   12.3803  -13.6774    7.6525 H   0  0  0  0  0  0  0  0  0  0  0  0
   13.2057  -13.7594    6.0814 H   0  0  0  0  0  0  0  0  0  0  0  0
   10.1472  -13.4930    6.4610 H   0  0  0  0  0  0  0  0  0  0  0  0
   10.9658  -13.5744    4.9034 H   0  0  0  0  0  0  0  0  0  0  0  0
   12.1952  -11.4384    5.4371 H   0  0  0  0  0  0  0  0  0  0  0  0
   11.3766  -11.3570    6.9956 H   0  0  0  0  0  0  0  0  0  0  0  0
    9.1488  -11.2168    5.8181 H   0  0  0  0  0  0  0  0  0  0  0  0
    9.9674  -11.2991    4.2596 H   0  0  0  0  0  0  0  0  0  0  0  0
   11.1970   -9.1614    4.7915 H   0  0  0  0  0  0  0  0  0  0  0  0
   10.3794   -9.0792    6.3506 H   0  0  0  0  0  0  0  0  0  0  0  0
    8.1516   -8.9390    5.1755 H   0  0  0  0  0  0  0  0  0  0  0  0
    8.9687   -9.0228    3.6161 H   0  0  0  0  0  0  0  0  0  0  0  0
   10.2019   -6.8904    4.1434 H   0  0  0  0  0  0  0  0  0  0  0  0
    9.3876   -6.7975    5.7029 H   0  0  0  0  0  0  0  0  0  0  0  0
    7.1575   -6.6794    4.5328 H   0  0  0  0  0  0  0  0  0  0  0  0
    7.9752   -6.7530    2.9718 H   0  0  0  0  0  0  0  0  0  0  0  0
    8.3223   -4.5353    5.0797 H   0  0  0  0  0  0  0  0  0  0  0  0
    7.2701   -4.4315    3.6715 H   0  0  0  0  0  0  0  0  0  0  0  0
    7.2976   -4.8675    1.5362 H   0  0  0  0  0  0  0  0  0  0  0  0
    7.2537   -4.5575   -0.8962 H   0  0  0  0  0  0  0  0  0  0  0  0
    9.2485   -3.6350   -2.0982 H   0  0  0  0  0  0  0  0  0  0  0  0
   11.2820   -3.0189   -0.8216 H   0  0  0  0  0  0  0  0  0  0  0  0
   12.4923   -2.8179    1.2621 H   0  0  0  0  0  0  0  0  0  0  0  0
   16.4969   -2.1809    6.6569 H   0  0  0  0  0  0  0  0  0  0  0  0
   17.7677   -1.6337    4.6258 H   0  0  0  0  0  0  0  0  0  0  0  0
   16.6548   -1.7085    2.3819 H   0  0  0  0  0  0  0  0  0  0  0  0
   14.2956   -2.4003    2.2005 H   0  0  0  0  0  0  0  0  0  0  0  0
   15.3383   -6.2176   13.5291 H   0  0  0  0  0  0  0  0  0  0  0  0
   16.2967   -6.3224   15.8464 H   0  0  0  0  0  0  0  0  0  0  0  0
   17.5072   -5.2508   17.7226 H   0  0  0  0  0  0  0  0  0  0  0  0
   18.3003   -2.8860   17.5249 H   0  0  0  0  0  0  0  0  0  0  0  0
   17.8790   -1.6008   15.4500 H   0  0  0  0  0  0  0  0  0  0  0  0
   16.9563   -1.4544   13.1851 H   0  0  0  0  0  0  0  0  0  0  0  0
   16.5086   -0.2503   11.5525 H   0  0  0  0  0  0  0  0  0  0  0  0
   16.4506    1.8060   10.1945 H   0  0  0  0  0  0  0  0  0  0  0  0
   15.3789    1.7800    7.9297 H   0  0  0  0  0  0  0  0  0  0  0  0
   14.4456   -0.3062    7.0255 H   0  0  0  0  0  0  0  0  0  0  0  0
   11.8117   -5.0133    9.4218 H   0  0  0  0  0  0  0  0  0  0  0  0
   12.0819   -5.9034    7.8632 H   0  0  0  0  0  0  0  0  0  0  0  0
  1  2  1  0
  1 55  1  0
  1 56  1  0
  1 57  1  0
  2  3  1  0
  2 58  1  0
  2 59  1  0
  3  4  1  0
  3 60  1  0
  3 61  1  0
  4  5  1  0
  4 62  1  0
  4 63  1  0
  5  6  1  0
  5 64  1  0
  5 65  1  0
  6  7  1  0
  6 66  1  0
  6 67  1  0
  7  8  1  0
  7 68  1  0
  7 69  1  0
  8  9  1  0
  8 70  1  0
  8 71  1  0
  9 10  1  0
  9 72  1  0
  9 73  1  0
 10 11  2  0
 10 19  1  0
 11 12  1  0
 11 16  1  0
 12 13  2  0
 12 74  1  0
 13 14  1  0
 13 75  1  0
 14 15  2  0
 14 76  1  0
 15 16  1  0
 15 77  1  0
 16 17  2  0
 17 18  1  0
 17 78  1  0
 18 19  2  0
 18 30  1  0
 19 20  1  0
 20 21  1  0
 21 22  1  0
 21 30  2  0
 22 23  2  0
 22 54  1  0
 23 24  1  0
 23 31  1  0
 24 25  1  0
 24 29  2  0
 25 26  2  0
 25 79  1  0
 26 27  1  0
 26 80  1  0
 27 28  2  0
 27 81  1  0
 28 29  1  0
 28 82  1  0
 29 30  1  0
 31 32  2  0
 31 51  1  0
 32 33  1  0
 32 52  1  0
 33 34  1  0
 33 45  2  0
 34 35  1  0
 35 36  2  0
 35 44  1  0
 36 37  1  0
 36 83  1  0
 37 38  2  0
 37 42  1  0
 38 39  1  0
 38 84  1  0
 39 40  2  0
 39 85  1  0
 40 41  1  0
 40 86  1  0
 41 42  2  0
 41 87  1  0
 42 43  1  0
 43 44  2  0
 43 88  1  0
 44 45  1  0
 45 46  1  0
 46 47  1  0
 46 51  2  0
 47 48  2  0
 47 89  1  0
 48 49  1  0
 48 90  1  0
 49 50  2  0
 49 91  1  0
 50 51  1  0
 50 92  1  0
 52 53  1  0
 53 54  1  0
 53 93  1  0
 53 94  1  0
M  END

