
     RDKit          3D

 45 46  0  0  0  0  0  0  0  0999 V2000
    0.9795    1.8566   -0.5365 C   0  0  0  0  0  0  0  0  0  0  0  0
    2.4491    2.1024   -0.2376 C   0  0  0  0  0  0  0  0  0  0  0  0
    3.1895    1.0357   -0.7985 O   0  0  0  0  0  0  0  0  0  0  0  0
    4.6198    1.0858   -0.8316 C   0  0  1  0  0  0  0  0  0  0  0  0
    5.1674    1.4968    0.5742 C   0  0  1  0  0  0  0  0  0  0  0  0
    4.5474    0.7587    1.6046 O   0  0  0  0  0  0  0  0  0  0  0  0
    6.7107    1.4753    0.7003 C   0  0  0  0  0  0  0  0  0  0  0  0
    7.1903    1.8472    2.0841 C   0  0  0  0  0  0  0  0  0  0  0  0
    7.4059    3.1944    2.4211 C   0  0  0  0  0  0  0  0  0  0  0  0
    7.8234    3.5825    3.6950 C   0  0  0  0  0  0  0  0  0  0  0  0
    8.0408    2.6143    4.6785 C   0  0  0  0  0  0  0  0  0  0  0  0
    7.8402    1.2661    4.3783 C   0  0  0  0  0  0  0  0  0  0  0  0
    7.4189    0.8999    3.0974 C   0  0  0  0  0  0  0  0  0  0  0  0
    7.1979   -0.8223    2.7795 Cl  0  0  0  0  0  0  0  0  0  0  0  0
    5.0268   -0.3472   -1.2236 C   0  0  0  0  0  0  0  0  0  0  0  0
    4.4916   -0.7380   -2.6065 C   0  0  0  0  0  0  0  0  0  0  0  0
    4.9365    0.2597   -3.6817 C   0  0  0  0  0  0  0  0  0  0  0  0
    4.5538    1.7065   -3.3271 C   0  0  2  0  0  0  0  0  0  0  0  0
    5.0336    2.7022   -4.3863 C   0  0  0  0  0  0  0  0  0  0  0  0
    5.0874    2.0697   -1.9300 C   0  0  0  0  0  0  0  0  0  0  0  0
    0.3567    2.6460   -0.0865 H   0  0  0  0  0  0  0  0  0  0  0  0
    0.6639    0.8864   -0.1225 H   0  0  0  0  0  0  0  0  0  0  0  0
    0.7930    1.8412   -1.6218 H   0  0  0  0  0  0  0  0  0  0  0  0
    2.6048    2.1474    0.8551 H   0  0  0  0  0  0  0  0  0  0  0  0
    2.7602    3.0781   -0.6623 H   0  0  0  0  0  0  0  0  0  0  0  0
    4.8494    2.5388    0.7482 H   0  0  0  0  0  0  0  0  0  0  0  0
    4.9319   -0.1278    1.6383 H   0  0  0  0  0  0  0  0  0  0  0  0
    7.1386    2.1840   -0.0236 H   0  0  0  0  0  0  0  0  0  0  0  0
    7.0927    0.4780    0.4387 H   0  0  0  0  0  0  0  0  0  0  0  0
    7.2416    3.9556    1.6529 H   0  0  0  0  0  0  0  0  0  0  0  0
    7.9819    4.6403    3.9181 H   0  0  0  0  0  0  0  0  0  0  0  0
    8.3695    2.9028    5.6798 H   0  0  0  0  0  0  0  0  0  0  0  0
    8.0065    0.4924    5.1295 H   0  0  0  0  0  0  0  0  0  0  0  0
    4.6453   -1.0427   -0.4585 H   0  0  0  0  0  0  0  0  0  0  0  0
    6.1266   -0.4262   -1.2275 H   0  0  0  0  0  0  0  0  0  0  0  0
    3.3916   -0.7707   -2.5641 H   0  0  0  0  0  0  0  0  0  0  0  0
    4.8340   -1.7544   -2.8638 H   0  0  0  0  0  0  0  0  0  0  0  0
    4.5020   -0.0130   -4.6589 H   0  0  0  0  0  0  0  0  0  0  0  0
    6.0356    0.2029   -3.8062 H   0  0  0  0  0  0  0  0  0  0  0  0
    3.4519    1.7553   -3.2797 H   0  0  0  0  0  0  0  0  0  0  0  0
    6.1341    2.6937   -4.4729 H   0  0  0  0  0  0  0  0  0  0  0  0
    4.7282    3.7329   -4.1407 H   0  0  0  0  0  0  0  0  0  0  0  0
    4.6217    2.4594   -5.3795 H   0  0  0  0  0  0  0  0  0  0  0  0
    4.7838    3.0981   -1.6667 H   0  0  0  0  0  0  0  0  0  0  0  0
    6.1906    2.0766   -1.9671 H   0  0  0  0  0  0  0  0  0  0  0  0
  1  2  1  0
  1 21  1  0
  1 22  1  0
  1 23  1  0
  2  3  1  0
  2 24  1  0
  2 25  1  0
  4  3  1  1
  4  5  1  0
  4 15  1  0
  4 20  1  0
  5  6  1  0
  5  7  1  0
  5 26  1  1
  6 27  1  0
  7  8  1  0
  7 28  1  0
  7 29  1  0
  8  9  2  0
  8 13  1  0
  9 10  1  0
  9 30  1  0
 10 11  2  0
 10 31  1  0
 11 12  1  0
 11 32  1  0
 12 13  2  0
 12 33  1  0
 13 14  1  0
 15 16  1  0
 15 34  1  0
 15 35  1  0
 16 17  1  0
 16 36  1  0
 16 37  1  0
 17 18  1  0
 17 38  1  0
 17 39  1  0
 18 19  1  0
 18 20  1  0
 18 40  1  1
 19 41  1  0
 19 42  1  0
 19 43  1  0
 20 44  1  0
 20 45  1  0
M  END

