
     RDKit          3D

 51 53  0  0  0  0  0  0  0  0999 V2000
    4.8106    0.7879    5.6251 C   0  0  0  0  0  0  0  0  0  0  0  0
    4.7991   -0.6535    5.1289 C   0  0  0  0  0  0  0  0  0  0  0  0
    6.0486   -1.6423    6.0004 S   0  0  1  0  0  0  0  0  0  0  0  0
    7.3568   -1.0551    5.7127 O   0  0  0  0  0  0  0  0  0  0  0  0
    5.5902   -1.8675    7.3697 O   0  0  0  0  0  0  0  0  0  0  0  0
    5.9639   -3.1721    5.2885 N   0  0  0  0  0  0  0  0  0  0  0  0
    6.2999   -3.5511    3.9763 C   0  0  0  0  0  0  0  0  0  0  0  0
    7.1997   -2.8177    3.1820 C   0  0  0  0  0  0  0  0  0  0  0  0
    7.4883   -3.2582    1.8895 C   0  0  0  0  0  0  0  0  0  0  0  0
    6.9169   -4.4236    1.3734 C   0  0  0  0  0  0  0  0  0  0  0  0
    6.0278   -5.1688    2.1637 C   0  0  0  0  0  0  0  0  0  0  0  0
    5.4113   -6.4287    1.6403 C   0  0  0  0  0  0  0  0  0  0  0  0
    6.1145   -7.6877    1.8059 C   0  0  0  0  0  0  0  0  0  0  0  0
    7.4517   -7.7549    2.4958 C   0  0  0  0  0  0  0  0  0  0  0  0
    5.6301   -8.8132    1.3670 N   0  0  0  0  0  0  0  0  0  0  0  0
    4.4442   -8.8426    0.7286 N   0  0  0  0  0  0  0  0  0  0  0  0
    4.0186  -10.1601    0.3402 C   0  0  0  0  0  0  0  0  0  0  0  0
    3.2260  -10.3765   -0.7975 C   0  0  0  0  0  0  0  0  0  0  0  0
    2.8596  -11.6763   -1.1472 C   0  0  0  0  0  0  0  0  0  0  0  0
    3.2704  -12.7666   -0.3746 C   0  0  0  0  0  0  0  0  0  0  0  0
    2.8252  -14.1625   -0.7273 C   0  0  1  0  0  0  0  0  0  0  0  0
    2.5965  -14.2993   -2.0456 F   0  0  0  0  0  0  0  0  0  0  0  0
    3.7430  -15.0827   -0.3782 F   0  0  0  0  0  0  0  0  0  0  0  0
    1.6818  -14.4949   -0.0956 F   0  0  0  0  0  0  0  0  0  0  0  0
    4.0652  -12.5482    0.7566 C   0  0  0  0  0  0  0  0  0  0  0  0
    4.4381  -11.2550    1.1124 C   0  0  0  0  0  0  0  0  0  0  0  0
    3.6363   -7.7053    0.5060 C   0  0  0  0  0  0  0  0  0  0  0  0
    2.5529   -7.7687   -0.0570 O   0  0  0  0  0  0  0  0  0  0  0  0
    4.1975   -6.4409    1.0052 C   0  0  0  0  0  0  0  0  0  0  0  0
    3.3387   -5.2386    0.7545 C   0  0  0  0  0  0  0  0  0  0  0  0
    5.7202   -4.7224    3.4553 C   0  0  0  0  0  0  0  0  0  0  0  0
    4.0368    1.3682    5.0995 H   0  0  0  0  0  0  0  0  0  0  0  0
    5.7873    1.2569    5.4383 H   0  0  0  0  0  0  0  0  0  0  0  0
    4.6026    0.8309    6.7044 H   0  0  0  0  0  0  0  0  0  0  0  0
    5.0392   -0.7309    4.0574 H   0  0  0  0  0  0  0  0  0  0  0  0
    3.8416   -1.1599    5.3217 H   0  0  0  0  0  0  0  0  0  0  0  0
    5.3744   -3.7967    5.8313 H   0  0  0  0  0  0  0  0  0  0  0  0
    7.6798   -1.9280    3.5878 H   0  0  0  0  0  0  0  0  0  0  0  0
    8.1863   -2.6813    1.2775 H   0  0  0  0  0  0  0  0  0  0  0  0
    7.1576   -4.7564    0.3613 H   0  0  0  0  0  0  0  0  0  0  0  0
    7.3885   -7.3759    3.5283 H   0  0  0  0  0  0  0  0  0  0  0  0
    8.1998   -7.1344    1.9777 H   0  0  0  0  0  0  0  0  0  0  0  0
    7.8015   -8.7950    2.5151 H   0  0  0  0  0  0  0  0  0  0  0  0
    2.8898   -9.5370   -1.3991 H   0  0  0  0  0  0  0  0  0  0  0  0
    2.2518  -11.8400   -2.0388 H   0  0  0  0  0  0  0  0  0  0  0  0
    4.3982  -13.3935    1.3616 H   0  0  0  0  0  0  0  0  0  0  0  0
    5.0670  -11.0812    1.9839 H   0  0  0  0  0  0  0  0  0  0  0  0
    3.1354   -5.1397   -0.3241 H   0  0  0  0  0  0  0  0  0  0  0  0
    3.7988   -4.3151    1.1260 H   0  0  0  0  0  0  0  0  0  0  0  0
    2.3520   -5.3740    1.2270 H   0  0  0  0  0  0  0  0  0  0  0  0
    5.0171   -5.2932    4.0686 H   0  0  0  0  0  0  0  0  0  0  0  0
  1  2  1  0
  1 32  1  0
  1 33  1  0
  1 34  1  0
  2  3  1  0
  2 35  1  0
  2 36  1  0
  3  4  2  0
  3  5  2  0
  3  6  1  6
  6  7  1  0
  6 37  1  0
  7  8  2  0
  7 31  1  0
  8  9  1  0
  8 38  1  0
  9 10  2  0
  9 39  1  0
 10 11  1  0
 10 40  1  0
 11 12  1  0
 11 31  2  0
 12 13  1  0
 12 29  2  0
 13 14  1  0
 13 15  2  0
 14 41  1  0
 14 42  1  0
 14 43  1  0
 15 16  1  0
 16 17  1  0
 16 27  1  0
 17 18  2  0
 17 26  1  0
 18 19  1  0
 18 44  1  0
 19 20  2  0
 19 45  1  0
 20 21  1  0
 20 25  1  0
 21 22  1  6
 21 23  1  0
 21 24  1  0
 25 26  2  0
 25 46  1  0
 26 47  1  0
 27 28  2  0
 27 29  1  0
 29 30  1  0
 30 48  1  0
 30 49  1  0
 30 50  1  0
 31 51  1  0
M  END

