
     RDKit          3D

 50 53  0  0  0  0  0  0  0  0999 V2000
    4.2245    1.5557    3.8369 C   0  0  0  0  0  0  0  0  0  0  0  0
    4.6346    2.8700    3.5426 O   0  0  0  0  0  0  0  0  0  0  0  0
    4.5171    3.3251    2.2646 C   0  0  0  0  0  0  0  0  0  0  0  0
    4.0093    2.5860    1.1941 C   0  0  0  0  0  0  0  0  0  0  0  0
    3.9343    3.1597   -0.0848 C   0  0  0  0  0  0  0  0  0  0  0  0
    4.3621    4.4680   -0.3136 C   0  0  0  0  0  0  0  0  0  0  0  0
    4.3350    5.1354   -1.5518 N   0  0  0  0  0  0  0  0  0  0  0  0
    3.8775    4.6519   -2.7586 C   0  0  0  0  0  0  0  0  0  0  0  0
    3.4028    3.5370   -2.9155 O   0  0  0  0  0  0  0  0  0  0  0  0
    3.9911    5.5591   -3.8121 N   0  0  0  0  0  0  0  0  0  0  0  0
    4.8460    6.7490   -3.7676 C   0  0  0  0  0  0  0  0  0  0  0  0
    5.0265    7.2384   -5.2081 C   0  0  0  0  0  0  0  0  0  0  0  0
    5.0107    5.7208   -6.2295 S   0  0  0  0  0  0  0  0  0  0  0  0
    3.6359    5.0916   -5.1453 C   0  0  2  0  0  0  0  0  0  0  0  0
    3.6811    3.9940   -5.1529 H   0  0  0  0  0  0  0  0  0  0  0  0
    2.2654    5.5466   -5.6266 C   0  0  0  0  0  0  0  0  0  0  0  0
    1.7893    5.1206   -6.8793 C   0  0  0  0  0  0  0  0  0  0  0  0
    0.5264    5.4976   -7.3263 C   0  0  0  0  0  0  0  0  0  0  0  0
   -0.2896    6.3180   -6.5386 C   0  0  0  0  0  0  0  0  0  0  0  0
    0.1850    6.7653   -5.2926 C   0  0  0  0  0  0  0  0  0  0  0  0
    1.4498    6.3679   -4.8440 C   0  0  0  0  0  0  0  0  0  0  0  0
   -0.5655    7.5830   -4.4911 O   0  0  0  0  0  0  0  0  0  0  0  0
   -1.6680    8.1925   -5.1428 C   0  0  0  0  0  0  0  0  0  0  0  0
   -2.3998    7.1773   -6.0055 C   0  0  0  0  0  0  0  0  0  0  0  0
   -1.5309    6.6618   -7.0009 O   0  0  0  0  0  0  0  0  0  0  0  0
    4.8770    5.2102    0.7835 C   0  0  0  0  0  0  0  0  0  0  0  0
    5.2750    6.4833    0.4809 O   0  0  0  0  0  0  0  0  0  0  0  0
    5.7950    7.3064    1.5014 C   0  0  0  0  0  0  0  0  0  0  0  0
    4.9523    4.6474    2.0526 C   0  0  0  0  0  0  0  0  0  0  0  0
    4.4083    1.4011    4.9090 H   0  0  0  0  0  0  0  0  0  0  0  0
    4.7998    0.8054    3.2641 H   0  0  0  0  0  0  0  0  0  0  0  0
    3.1485    1.4033    3.6336 H   0  0  0  0  0  0  0  0  0  0  0  0
    3.6639    1.5612    1.3271 H   0  0  0  0  0  0  0  0  0  0  0  0
    3.5373    2.5910   -0.9226 H   0  0  0  0  0  0  0  0  0  0  0  0
    4.6578    6.0930   -1.4933 H   0  0  0  0  0  0  0  0  0  0  0  0
    5.8262    6.4920   -3.3275 H   0  0  0  0  0  0  0  0  0  0  0  0
    4.3964    7.5510   -3.1526 H   0  0  0  0  0  0  0  0  0  0  0  0
    5.9785    7.7692   -5.3468 H   0  0  0  0  0  0  0  0  0  0  0  0
    4.2029    7.9022   -5.5131 H   0  0  0  0  0  0  0  0  0  0  0  0
    2.4165    4.4884   -7.5124 H   0  0  0  0  0  0  0  0  0  0  0  0
    0.1395    5.1616   -8.2907 H   0  0  0  0  0  0  0  0  0  0  0  0
    1.7736    6.7084   -3.8597 H   0  0  0  0  0  0  0  0  0  0  0  0
   -1.3193    9.0333   -5.7725 H   0  0  0  0  0  0  0  0  0  0  0  0
   -2.3254    8.5927   -4.3567 H   0  0  0  0  0  0  0  0  0  0  0  0
   -3.2498    7.6405   -6.5282 H   0  0  0  0  0  0  0  0  0  0  0  0
   -2.7812    6.3546   -5.3713 H   0  0  0  0  0  0  0  0  0  0  0  0
    6.0426    8.2694    1.0346 H   0  0  0  0  0  0  0  0  0  0  0  0
    6.7101    6.8758    1.9451 H   0  0  0  0  0  0  0  0  0  0  0  0
    5.0561    7.4752    2.3047 H   0  0  0  0  0  0  0  0  0  0  0  0
    5.3431    5.1980    2.9069 H   0  0  0  0  0  0  0  0  0  0  0  0
  1  2  1  0
  1 30  1  0
  1 31  1  0
  1 32  1  0
  2  3  1  0
  3  4  2  0
  3 29  1  0
  4  5  1  0
  4 33  1  0
  5  6  2  0
  5 34  1  0
  6  7  1  0
  6 26  1  0
  7  8  1  0
  7 35  1  0
  8  9  2  0
  8 10  1  0
 10 11  1  0
 10 14  1  0
 11 12  1  0
 11 36  1  0
 11 37  1  0
 12 13  1  0
 12 38  1  0
 12 39  1  0
 13 14  1  0
 14 15  1  1
 14 16  1  0
 16 17  2  0
 16 21  1  0
 17 18  1  0
 17 40  1  0
 18 19  2  0
 18 41  1  0
 19 20  1  0
 19 25  1  0
 20 21  2  0
 20 22  1  0
 21 42  1  0
 22 23  1  0
 23 24  1  0
 23 43  1  0
 23 44  1  0
 24 25  1  0
 24 45  1  0
 24 46  1  0
 26 27  1  0
 26 29  2  0
 27 28  1  0
 28 47  1  0
 28 48  1  0
 28 49  1  0
 29 50  1  0
M  END

