
     RDKit          3D

 39 40  0  0  0  0  0  0  0  0999 V2000
    6.7982    0.7499   -1.6807 C   0  0  0  0  0  0  0  0  0  0  0  0
    5.6664    1.8183   -0.7342 S   0  0  0  0  0  0  0  0  0  0  0  0
    4.7854    0.5572    0.2894 C   0  0  0  0  0  0  0  0  0  0  0  0
    5.5422    0.0422    1.4587 C   0  0  0  0  0  0  0  0  0  0  0  0
    5.4802    0.2969    2.8020 C   0  0  0  0  0  0  0  0  0  0  0  0
    6.5004   -0.5010    3.4188 C   0  0  0  0  0  0  0  0  0  0  0  0
    7.1227   -1.1813    2.4106 C   0  0  0  0  0  0  0  0  0  0  0  0
    8.2526   -2.1526    2.3611 C   0  0  0  0  0  0  0  0  0  0  0  0
    7.8419   -3.4046    1.7506 N   0  0  0  0  0  0  0  0  0  0  0  0
    8.7310   -4.4375    1.5135 C   0  0  0  0  0  0  0  0  0  0  0  0
   10.0018   -4.5103    2.1192 C   0  0  0  0  0  0  0  0  0  0  0  0
   10.8501   -5.5896    1.8648 C   0  0  0  0  0  0  0  0  0  0  0  0
   10.4651   -6.6205    1.0039 C   0  0  0  0  0  0  0  0  0  0  0  0
    9.2077   -6.5615    0.3989 C   0  0  0  0  0  0  0  0  0  0  0  0
    8.3461   -5.4880    0.6360 C   0  0  0  0  0  0  0  0  0  0  0  0
    7.0641   -5.3878    0.0017 N   0  0  0  0  0  0  0  0  0  0  0  0
    5.7663   -6.3789    0.5548 S   0  0  1  0  0  0  0  0  0  0  0  0
    4.9336   -5.3090    1.7333 C   0  0  0  0  0  0  0  0  0  0  0  0
    4.9075   -6.5442   -0.6198 O   0  0  0  0  0  0  0  0  0  0  0  0
    6.2809   -7.5321    1.2929 O   0  0  0  0  0  0  0  0  0  0  0  0
    6.5434   -0.8579    1.2158 O   0  0  0  0  0  0  0  0  0  0  0  0
    7.3860    1.4172   -2.3277 H   0  0  0  0  0  0  0  0  0  0  0  0
    6.2428    0.0415   -2.3152 H   0  0  0  0  0  0  0  0  0  0  0  0
    7.4811    0.1984   -1.0193 H   0  0  0  0  0  0  0  0  0  0  0  0
    4.4696   -0.2657   -0.3727 H   0  0  0  0  0  0  0  0  0  0  0  0
    3.8780    1.0649    0.6454 H   0  0  0  0  0  0  0  0  0  0  0  0
    4.7857    0.9750    3.2935 H   0  0  0  0  0  0  0  0  0  0  0  0
    6.7399   -0.5635    4.4784 H   0  0  0  0  0  0  0  0  0  0  0  0
    8.5891   -2.3237    3.3965 H   0  0  0  0  0  0  0  0  0  0  0  0
    9.1138   -1.7012    1.8212 H   0  0  0  0  0  0  0  0  0  0  0  0
    7.1338   -3.3201    1.0263 H   0  0  0  0  0  0  0  0  0  0  0  0
   10.3320   -3.7179    2.7920 H   0  0  0  0  0  0  0  0  0  0  0  0
   11.8301   -5.6198    2.3484 H   0  0  0  0  0  0  0  0  0  0  0  0
   11.1306   -7.4640    0.8105 H   0  0  0  0  0  0  0  0  0  0  0  0
    8.8720   -7.3625   -0.2633 H   0  0  0  0  0  0  0  0  0  0  0  0
    7.0734   -5.5089   -1.0122 H   0  0  0  0  0  0  0  0  0  0  0  0
    4.5071   -4.4593    1.1862 H   0  0  0  0  0  0  0  0  0  0  0  0
    5.6591   -4.9750    2.4858 H   0  0  0  0  0  0  0  0  0  0  0  0
    4.1430   -5.9195    2.1903 H   0  0  0  0  0  0  0  0  0  0  0  0
  1  2  1  0
  1 22  1  0
  1 23  1  0
  1 24  1  0
  2  3  1  0
  3  4  1  0
  3 25  1  0
  3 26  1  0
  4  5  2  0
  4 21  1  0
  5  6  1  0
  5 27  1  0
  6  7  2  0
  6 28  1  0
  7  8  1  0
  7 21  1  0
  8  9  1  0
  8 29  1  0
  8 30  1  0
  9 10  1  0
  9 31  1  0
 10 11  2  0
 10 15  1  0
 11 12  1  0
 11 32  1  0
 12 13  2  0
 12 33  1  0
 13 14  1  0
 13 34  1  0
 14 15  2  0
 14 35  1  0
 15 16  1  0
 17 16  1  6
 16 36  1  0
 17 18  1  0
 17 19  2  0
 17 20  2  0
 18 37  1  0
 18 38  1  0
 18 39  1  0
M  END

