
     RDKit          3D

 32 33  0  0  0  0  0  0  0  0999 V2000
    1.7246   -0.3420   -1.2103 O   0  0  0  0  0  0  0  0  0  0  0  0
    2.8129   -0.8021   -0.8902 C   0  0  0  0  0  0  0  0  0  0  0  0
    3.0558   -1.4374    0.4697 C   0  0  0  0  0  0  0  0  0  0  0  0
    3.0206   -0.4034    1.6221 C   0  0  1  0  0  0  0  0  0  0  0  0
    1.6178    0.1603    1.9226 C   0  0  0  0  0  0  0  0  0  0  0  0
    0.7570   -0.7706    2.6418 N   0  0  0  0  0  0  0  0  0  0  0  0
    1.4221   -1.3280    3.8130 C   0  0  0  0  0  0  0  0  0  0  0  0
    2.8017   -1.9009    3.4875 C   0  0  0  0  0  0  0  0  0  0  0  0
    3.6047   -0.9522    2.8013 O   0  0  0  0  0  0  0  0  0  0  0  0
    3.8934   -0.7711   -1.7265 N   0  0  0  0  0  0  0  0  0  0  0  0
    3.8429   -0.0892   -3.0146 C   0  0  0  0  0  0  0  0  0  0  0  0
    4.2588    1.3589   -2.9649 C   0  0  0  0  0  0  0  0  0  0  0  0
    3.4941    2.4443   -2.6042 C   0  0  0  0  0  0  0  0  0  0  0  0
    4.2233    3.6720   -2.6111 C   0  0  0  0  0  0  0  0  0  0  0  0
    5.5365    3.5073   -2.9745 C   0  0  0  0  0  0  0  0  0  0  0  0
    5.8952    1.8495   -3.3135 S   0  0  0  0  0  0  0  0  0  0  0  0
    4.0285   -1.9518    0.5095 H   0  0  0  0  0  0  0  0  0  0  0  0
    2.2715   -2.1978    0.6121 H   0  0  0  0  0  0  0  0  0  0  0  0
    3.6868    0.4312    1.3451 H   0  0  0  0  0  0  0  0  0  0  0  0
    1.1316    0.4649    0.9853 H   0  0  0  0  0  0  0  0  0  0  0  0
    1.7467    1.0606    2.5497 H   0  0  0  0  0  0  0  0  0  0  0  0
    0.4200   -1.5081    2.0240 H   0  0  0  0  0  0  0  0  0  0  0  0
    0.7841   -2.1015    4.2729 H   0  0  0  0  0  0  0  0  0  0  0  0
    1.5416   -0.5199    4.5580 H   0  0  0  0  0  0  0  0  0  0  0  0
    2.6910   -2.8305    2.8901 H   0  0  0  0  0  0  0  0  0  0  0  0
    3.3551   -2.1647    4.4034 H   0  0  0  0  0  0  0  0  0  0  0  0
    4.7957   -1.0595   -1.3676 H   0  0  0  0  0  0  0  0  0  0  0  0
    2.7998   -0.1464   -3.3550 H   0  0  0  0  0  0  0  0  0  0  0  0
    4.4644   -0.6469   -3.7325 H   0  0  0  0  0  0  0  0  0  0  0  0
    2.4400    2.3502   -2.3374 H   0  0  0  0  0  0  0  0  0  0  0  0
    3.7886    4.6415   -2.3619 H   0  0  0  0  0  0  0  0  0  0  0  0
    6.3104    4.2672   -3.0731 H   0  0  0  0  0  0  0  0  0  0  0  0
  1  2  2  0
  2  3  1  0
  2 10  1  0
  3  4  1  0
  3 17  1  0
  3 18  1  0
  4  5  1  0
  4  9  1  0
  4 19  1  6
  5  6  1  0
  5 20  1  0
  5 21  1  0
  6  7  1  0
  6 22  1  0
  7  8  1  0
  7 23  1  0
  7 24  1  0
  8  9  1  0
  8 25  1  0
  8 26  1  0
 10 11  1  0
 10 27  1  0
 11 12  1  0
 11 28  1  0
 11 29  1  0
 12 13  2  0
 12 16  1  0
 13 14  1  0
 13 30  1  0
 14 15  2  0
 14 31  1  0
 15 16  1  0
 15 32  1  0
M  END

