
     RDKit          3D

 42 41  0  0  0  0  0  0  0  0999 V2000
    3.2280    0.0220   -1.4905 C   0  0  0  0  0  0  0  0  0  0  0  0
    2.8470   -0.0981   -0.0153 C   0  0  0  0  0  0  0  0  0  0  0  0
    3.2255    1.0548    0.8223 N   0  0  0  0  0  0  0  0  0  0  0  0
    2.1864    1.7529    1.5942 C   0  0  0  0  0  0  0  0  0  0  0  0
    1.6405    3.0652    0.9962 C   0  0  1  0  0  0  0  0  0  0  0  0
    0.9022    2.8608   -0.3303 C   0  0  0  0  0  0  0  0  0  0  0  0
    0.7422    3.7554    2.0310 C   0  0  0  0  0  0  0  0  0  0  0  0
    4.5617    1.2066    1.0740 C   0  0  0  0  0  0  0  0  0  0  0  0
    5.3950    0.4259    0.6146 O   0  0  0  0  0  0  0  0  0  0  0  0
    5.0379    2.3534    1.9848 C   0  0  1  0  0  0  0  0  0  0  0  0
    5.3501    1.7534    3.3416 C   0  0  0  0  0  0  0  0  0  0  0  0
    6.3302    0.8038    3.4080 N   0  0  0  0  0  0  0  0  0  0  0  0
    4.6825    2.2094    4.3500 N   0  0  0  0  0  0  0  0  0  0  0  0
    5.0876    1.5470    5.5325 O   0  0  0  0  0  0  0  0  0  0  0  0
    6.2526    3.0860    1.3465 C   0  0  1  0  0  0  0  0  0  0  0  0
    5.8419    3.7760    0.0396 C   0  0  0  0  0  0  0  0  0  0  0  0
    6.8824    4.0848    2.3231 C   0  0  0  0  0  0  0  0  0  0  0  0
    2.8927   -0.8771   -2.0326 H   0  0  0  0  0  0  0  0  0  0  0  0
    4.3178    0.1004   -1.6005 H   0  0  0  0  0  0  0  0  0  0  0  0
    2.7591    0.8971   -1.9660 H   0  0  0  0  0  0  0  0  0  0  0  0
    3.3264   -1.0005    0.4008 H   0  0  0  0  0  0  0  0  0  0  0  0
    1.7595   -0.2240    0.0841 H   0  0  0  0  0  0  0  0  0  0  0  0
    2.5673    1.9485    2.6068 H   0  0  0  0  0  0  0  0  0  0  0  0
    1.3484    1.0470    1.7230 H   0  0  0  0  0  0  0  0  0  0  0  0
    2.5069    3.7236    0.8038 H   0  0  0  0  0  0  0  0  0  0  0  0
    0.0255    2.2025   -0.1998 H   0  0  0  0  0  0  0  0  0  0  0  0
    1.5520    2.4119   -1.0954 H   0  0  0  0  0  0  0  0  0  0  0  0
    0.5377    3.8210   -0.7292 H   0  0  0  0  0  0  0  0  0  0  0  0
   -0.1306    3.1271    2.2804 H   0  0  0  0  0  0  0  0  0  0  0  0
    0.3590    4.7138    1.6466 H   0  0  0  0  0  0  0  0  0  0  0  0
    1.2850    3.9598    2.9679 H   0  0  0  0  0  0  0  0  0  0  0  0
    4.2492    3.0941    2.1584 H   0  0  0  0  0  0  0  0  0  0  0  0
    6.5188    0.2976    2.5468 H   0  0  0  0  0  0  0  0  0  0  0  0
    6.3897    0.2911    4.2806 H   0  0  0  0  0  0  0  0  0  0  0  0
    4.5352    1.9618    6.2049 H   0  0  0  0  0  0  0  0  0  0  0  0
    6.9998    2.3144    1.1005 H   0  0  0  0  0  0  0  0  0  0  0  0
    5.0868    4.5602    0.2229 H   0  0  0  0  0  0  0  0  0  0  0  0
    5.4243    3.0643   -0.6893 H   0  0  0  0  0  0  0  0  0  0  0  0
    6.7108    4.2603   -0.4339 H   0  0  0  0  0  0  0  0  0  0  0  0
    6.1529    4.8477    2.6438 H   0  0  0  0  0  0  0  0  0  0  0  0
    7.7260    4.6082    1.8447 H   0  0  0  0  0  0  0  0  0  0  0  0
    7.2644    3.5864    3.2260 H   0  0  0  0  0  0  0  0  0  0  0  0
  1  2  1  0
  1 18  1  0
  1 19  1  0
  1 20  1  0
  2  3  1  0
  2 21  1  0
  2 22  1  0
  3  4  1  0
  3  8  1  0
  4  5  1  0
  4 23  1  0
  4 24  1  0
  5  6  1  0
  5  7  1  0
  5 25  1  6
  6 26  1  0
  6 27  1  0
  6 28  1  0
  7 29  1  0
  7 30  1  0
  7 31  1  0
  8  9  2  0
  8 10  1  0
 10 11  1  0
 10 15  1  0
 10 32  1  1
 11 12  1  0
 11 13  2  0
 12 33  1  0
 12 34  1  0
 13 14  1  0
 14 35  1  0
 15 16  1  0
 15 17  1  0
 15 36  1  6
 16 37  1  0
 16 38  1  0
 16 39  1  0
 17 40  1  0
 17 41  1  0
 17 42  1  0
M  END

