
     RDKit          3D

 46 49  0  0  0  0  0  0  0  0999 V2000
    1.8933   -0.8016    3.4939 C   0  0  0  0  0  0  0  0  0  0  0  0
    3.1545   -0.2031    2.9501 C   0  0  0  0  0  0  0  0  0  0  0  0
    3.4259   -0.0715    1.6849 N   0  0  0  0  0  0  0  0  0  0  0  0
    4.6543    0.5125    1.4721 C   0  0  0  0  0  0  0  0  0  0  0  0
    5.1019    0.7784    0.0536 C   0  0  0  0  0  0  0  0  0  0  0  0
    6.5413    0.9695   -0.0591 N   0  0  0  0  0  0  0  0  0  0  0  0
    7.3227   -0.2712   -0.0442 C   0  0  0  0  0  0  0  0  0  0  0  0
    7.3773   -0.9509   -1.4241 C   0  0  0  0  0  0  0  0  0  0  0  0
    7.8592   -0.0624   -2.4850 N   0  0  0  0  0  0  0  0  0  0  0  0
    9.3026    0.1617   -2.5884 C   0  0  1  0  0  0  0  0  0  0  0  0
   10.1262   -1.1325   -2.4790 C   0  0  0  0  0  0  0  0  0  0  0  0
    9.6152    0.8126   -3.9127 C   0  0  0  0  0  0  0  0  0  0  0  0
   10.3202    1.8824   -4.1281 N   0  0  0  0  0  0  0  0  0  0  0  0
   10.3280    1.9678   -5.5053 C   0  0  0  0  0  0  0  0  0  0  0  0
   11.0077    3.0296   -6.2297 C   0  0  0  0  0  0  0  0  0  0  0  0
   11.0825    3.2262   -7.5941 C   0  0  0  0  0  0  0  0  0  0  0  0
   11.8398    4.3790   -7.9407 C   0  0  0  0  0  0  0  0  0  0  0  0
   12.3280    5.0395   -6.8372 C   0  0  0  0  0  0  0  0  0  0  0  0
   11.8727    4.2679   -5.3626 S   0  0  0  0  0  0  0  0  0  0  0  0
    9.6605    1.0028   -6.1007 N   0  0  0  0  0  0  0  0  0  0  0  0
    9.1889    0.2357   -5.0432 O   0  0  0  0  0  0  0  0  0  0  0  0
    7.0520    1.1637   -2.5066 C   0  0  0  0  0  0  0  0  0  0  0  0
    6.9891    1.8564   -1.1328 C   0  0  0  0  0  0  0  0  0  0  0  0
    5.3495    0.8343    2.6087 C   0  0  0  0  0  0  0  0  0  0  0  0
    4.4303    0.3916    4.0078 S   0  0  0  0  0  0  0  0  0  0  0  0
    1.2665   -1.1189    2.6496 H   0  0  0  0  0  0  0  0  0  0  0  0
    1.3278   -0.0751    4.1001 H   0  0  0  0  0  0  0  0  0  0  0  0
    2.0995   -1.6766    4.1314 H   0  0  0  0  0  0  0  0  0  0  0  0
    4.6036    1.6993   -0.2965 H   0  0  0  0  0  0  0  0  0  0  0  0
    4.6897   -0.0351   -0.5796 H   0  0  0  0  0  0  0  0  0  0  0  0
    6.8982   -0.9553    0.7077 H   0  0  0  0  0  0  0  0  0  0  0  0
    8.3494   -0.0326    0.2918 H   0  0  0  0  0  0  0  0  0  0  0  0
    6.3605   -1.2742   -1.7106 H   0  0  0  0  0  0  0  0  0  0  0  0
    7.9835   -1.8663   -1.3835 H   0  0  0  0  0  0  0  0  0  0  0  0
    9.6994    0.8765   -1.8376 H   0  0  0  0  0  0  0  0  0  0  0  0
    9.7477   -1.8899   -3.1820 H   0  0  0  0  0  0  0  0  0  0  0  0
   10.0999   -1.5436   -1.4601 H   0  0  0  0  0  0  0  0  0  0  0  0
   11.1785   -0.9231   -2.7214 H   0  0  0  0  0  0  0  0  0  0  0  0
   10.6040    2.5563   -8.3091 H   0  0  0  0  0  0  0  0  0  0  0  0
   12.0170    4.7076   -8.9658 H   0  0  0  0  0  0  0  0  0  0  0  0
   12.9345    5.9440   -6.8119 H   0  0  0  0  0  0  0  0  0  0  0  0
    6.0315    0.8906   -2.8306 H   0  0  0  0  0  0  0  0  0  0  0  0
    7.4456    1.8585   -3.2656 H   0  0  0  0  0  0  0  0  0  0  0  0
    6.3272    2.7364   -1.1769 H   0  0  0  0  0  0  0  0  0  0  0  0
    7.9939    2.2347   -0.8685 H   0  0  0  0  0  0  0  0  0  0  0  0
    6.3290    1.3018    2.6738 H   0  0  0  0  0  0  0  0  0  0  0  0
  1  2  1  0
  1 26  1  0
  1 27  1  0
  1 28  1  0
  2  3  2  0
  2 25  1  0
  3  4  1  0
  4  5  1  0
  4 24  2  0
  5  6  1  0
  5 29  1  0
  5 30  1  0
  6  7  1  0
  6 23  1  0
  7  8  1  0
  7 31  1  0
  7 32  1  0
  8  9  1  0
  8 33  1  0
  8 34  1  0
  9 10  1  0
  9 22  1  0
 10 11  1  0
 10 12  1  0
 10 35  1  1
 11 36  1  0
 11 37  1  0
 11 38  1  0
 12 13  2  0
 12 21  1  0
 13 14  1  0
 14 15  1  0
 14 20  2  0
 15 16  2  0
 15 19  1  0
 16 17  1  0
 16 39  1  0
 17 18  2  0
 17 40  1  0
 18 19  1  0
 18 41  1  0
 20 21  1  0
 22 23  1  0
 22 42  1  0
 22 43  1  0
 23 44  1  0
 23 45  1  0
 24 25  1  0
 24 46  1  0
M  END

