
     RDKit          3D

 23 23  0  0  0  0  0  0  0  0999 V2000
    2.8432    1.3926   -0.6692 O   0  0  0  0  0  0  0  0  0  0  0  0
    2.4767    0.1846   -0.0179 C   0  0  0  0  0  0  0  0  0  0  0  0
    2.9997   -0.9593   -0.8873 C   0  0  1  0  0  0  0  0  0  0  0  0
    2.4698   -0.8255   -2.1939 O   0  0  0  0  0  0  0  0  0  0  0  0
    4.5342   -1.0356   -0.8940 C   0  0  0  0  0  0  0  0  0  0  0  0
    5.0710   -2.1573   -1.7966 C   0  0  0  0  0  0  0  0  0  0  0  0
    6.5759   -2.1999   -1.8799 C   0  0  0  0  0  0  0  0  0  0  0  0
    7.3711   -1.2112   -2.5559 C   0  0  0  0  0  0  0  0  0  0  0  0
    8.7179   -1.4532   -2.4820 C   0  0  0  0  0  0  0  0  0  0  0  0
    9.0555   -2.8929   -1.5833 S   0  0  0  0  0  0  0  0  0  0  0  0
    7.3676   -3.1689   -1.3084 C   0  0  0  0  0  0  0  0  0  0  0  0
    2.3671    2.1281   -0.2666 H   0  0  0  0  0  0  0  0  0  0  0  0
    1.3768    0.0953    0.0619 H   0  0  0  0  0  0  0  0  0  0  0  0
    2.9041    0.1219    1.0021 H   0  0  0  0  0  0  0  0  0  0  0  0
    2.5978   -1.9061   -0.4836 H   0  0  0  0  0  0  0  0  0  0  0  0
    2.5785    0.1121   -2.4192 H   0  0  0  0  0  0  0  0  0  0  0  0
    4.8946   -1.1837    0.1392 H   0  0  0  0  0  0  0  0  0  0  0  0
    4.9309   -0.0605   -1.2239 H   0  0  0  0  0  0  0  0  0  0  0  0
    4.6421   -2.0183   -2.8023 H   0  0  0  0  0  0  0  0  0  0  0  0
    4.6965   -3.1296   -1.4342 H   0  0  0  0  0  0  0  0  0  0  0  0
    6.9461   -0.3550   -3.0838 H   0  0  0  0  0  0  0  0  0  0  0  0
    9.5325   -0.8699   -2.9092 H   0  0  0  0  0  0  0  0  0  0  0  0
    7.0441   -4.0401   -0.7395 H   0  0  0  0  0  0  0  0  0  0  0  0
  1  2  1  0
  1 12  1  0
  2  3  1  0
  2 13  1  0
  2 14  1  0
  3  4  1  0
  3  5  1  0
  3 15  1  1
  4 16  1  0
  5  6  1  0
  5 17  1  0
  5 18  1  0
  6  7  1  0
  6 19  1  0
  6 20  1  0
  7  8  1  0
  7 11  2  0
  8  9  2  0
  8 21  1  0
  9 10  1  0
  9 22  1  0
 10 11  1  0
 11 23  1  0
M  END

