
     RDKit          3D

104104  0  0  0  0  0  0  0  0999 V2000
    0.4254    1.1137   -1.2827 C   0  0  0  0  0  0  0  0  0  0  0  0
    1.9347    0.8950   -1.1673 C   0  0  0  0  0  0  0  0  0  0  0  0
    2.4864    1.1501    0.2389 C   0  0  0  0  0  0  0  0  0  0  0  0
    3.9973    0.9336    0.3634 C   0  0  0  0  0  0  0  0  0  0  0  0
    4.5484    1.1890    1.7694 C   0  0  0  0  0  0  0  0  0  0  0  0
    6.0595    0.9726    1.8935 C   0  0  0  0  0  0  0  0  0  0  0  0
    6.6107    1.2284    3.2993 C   0  0  0  0  0  0  0  0  0  0  0  0
    8.1218    1.0124    3.4234 C   0  0  0  0  0  0  0  0  0  0  0  0
    8.6731    1.2688    4.8292 C   0  0  0  0  0  0  0  0  0  0  0  0
   10.1844    1.0532    4.9531 C   0  0  0  0  0  0  0  0  0  0  0  0
   10.7358    1.3104    6.3586 C   0  0  0  0  0  0  0  0  0  0  0  0
   12.2471    1.0953    6.4824 C   0  0  0  0  0  0  0  0  0  0  0  0
   12.7989    1.3533    7.8876 C   0  0  0  0  0  0  0  0  0  0  0  0
   14.3103    1.1386    8.0110 C   0  0  0  0  0  0  0  0  0  0  0  0
   14.8624    1.3975    9.4160 C   0  0  0  0  0  0  0  0  0  0  0  0
   16.3738    1.1832    9.5391 C   0  0  0  0  0  0  0  0  0  0  0  0
   16.9267    1.4439   10.9437 C   0  0  0  0  0  0  0  0  0  0  0  0
   18.4404    1.2286   11.0569 C   0  0  0  0  0  0  0  0  0  0  0  0
   19.0442    1.5434   12.4329 C   0  0  0  0  0  0  0  0  0  0  0  0
   18.6074    0.6085   13.5668 C   0  0  0  0  0  0  0  0  0  0  0  0
   19.2814    0.9151   14.9078 C   0  0  0  0  0  0  0  0  0  0  0  0
   18.8533   -0.0159   16.0459 C   0  0  0  0  0  0  0  0  0  0  0  0
   19.5283    0.2904   17.3861 C   0  0  0  0  0  0  0  0  0  0  0  0
   19.1015   -0.6424   18.5238 C   0  0  0  0  0  0  0  0  0  0  0  0
   19.7818   -0.3275   19.8608 C   0  0  0  0  0  0  0  0  0  0  0  0
   19.3360   -1.2027   21.0409 C   0  0  0  0  0  0  0  0  0  0  0  0
   19.7179   -2.6825   20.9212 C   0  0  0  0  0  0  0  0  0  0  0  0
   19.3104   -3.4843   22.1530 C   0  0  0  0  0  0  0  0  0  0  0  0
   19.7542   -4.8455   22.0807 O   0  0  0  0  0  0  0  0  0  0  0  0
   18.9619   -5.7310   21.4293 C   0  0  0  0  0  0  0  0  0  0  0  0
   17.9071   -5.4017   20.9212 O   0  0  0  0  0  0  0  0  0  0  0  0
   19.5892   -7.0645   21.4636 C   0  0  0  0  0  0  0  0  0  0  0  0
   19.1810   -8.2580   20.9560 C   0  0  0  0  0  0  0  0  0  0  0  0
   18.0263   -8.7446   20.2036 C   0  0  0  0  0  0  0  0  0  0  0  0
   16.9214   -7.9690   19.7846 C   0  0  0  0  0  0  0  0  0  0  0  0
   15.8749   -8.5444   19.0707 C   0  0  0  0  0  0  0  0  0  0  0  0
   15.8904   -9.9110   18.7485 C   0  0  0  0  0  0  0  0  0  0  0  0
   14.8940  -10.5106   18.0564 O   0  0  0  0  0  0  0  0  0  0  0  0
   16.9773  -10.7014   19.1542 C   0  0  0  0  0  0  0  0  0  0  0  0
   18.0177  -10.1204   19.8664 C   0  0  0  0  0  0  0  0  0  0  0  0
    0.0643    0.9217   -2.3059 H   0  0  0  0  0  0  0  0  0  0  0  0
    0.1491    2.1492   -1.0216 H   0  0  0  0  0  0  0  0  0  0  0  0
   -0.1298    0.4451   -0.6034 H   0  0  0  0  0  0  0  0  0  0  0  0
    2.4586    1.5509   -1.8865 H   0  0  0  0  0  0  0  0  0  0  0  0
    2.1820   -0.1385   -1.4717 H   0  0  0  0  0  0  0  0  0  0  0  0
    1.9629    0.4940    0.9596 H   0  0  0  0  0  0  0  0  0  0  0  0
    2.2394    2.1843    0.5445 H   0  0  0  0  0  0  0  0  0  0  0  0
    4.5201    1.5896   -0.3576 H   0  0  0  0  0  0  0  0  0  0  0  0
    4.2437   -0.1005    0.0577 H   0  0  0  0  0  0  0  0  0  0  0  0
    4.0258    0.5330    2.4905 H   0  0  0  0  0  0  0  0  0  0  0  0
    4.3021    2.2230    2.0753 H   0  0  0  0  0  0  0  0  0  0  0  0
    6.5821    1.6284    1.1722 H   0  0  0  0  0  0  0  0  0  0  0  0
    6.3059   -0.0615    1.5879 H   0  0  0  0  0  0  0  0  0  0  0  0
    6.0882    0.5725    4.0206 H   0  0  0  0  0  0  0  0  0  0  0  0
    6.3641    2.2624    3.6049 H   0  0  0  0  0  0  0  0  0  0  0  0
    8.6442    1.6680    2.7019 H   0  0  0  0  0  0  0  0  0  0  0  0
    8.3685   -0.0218    3.1181 H   0  0  0  0  0  0  0  0  0  0  0  0
    8.1509    0.6130    5.5507 H   0  0  0  0  0  0  0  0  0  0  0  0
    8.4262    2.3029    5.1344 H   0  0  0  0  0  0  0  0  0  0  0  0
   10.7064    1.7088    4.2312 H   0  0  0  0  0  0  0  0  0  0  0  0
   10.4312    0.0191    4.6482 H   0  0  0  0  0  0  0  0  0  0  0  0
   10.2139    0.6548    7.0806 H   0  0  0  0  0  0  0  0  0  0  0  0
   10.4887    2.3446    6.6635 H   0  0  0  0  0  0  0  0  0  0  0  0
   12.7689    1.7507    5.7600 H   0  0  0  0  0  0  0  0  0  0  0  0
   12.4942    0.0611    6.1779 H   0  0  0  0  0  0  0  0  0  0  0  0
   12.2773    0.6979    8.6101 H   0  0  0  0  0  0  0  0  0  0  0  0
   12.5516    2.3876    8.1921 H   0  0  0  0  0  0  0  0  0  0  0  0
   14.8316    1.7937    7.2882 H   0  0  0  0  0  0  0  0  0  0  0  0
   14.5575    0.1043    7.7071 H   0  0  0  0  0  0  0  0  0  0  0  0
   14.3410    0.7425   10.1389 H   0  0  0  0  0  0  0  0  0  0  0  0
   14.6150    2.4319    9.7198 H   0  0  0  0  0  0  0  0  0  0  0  0
   16.8950    1.8368    8.8147 H   0  0  0  0  0  0  0  0  0  0  0  0
   16.6209    0.1483    9.2368 H   0  0  0  0  0  0  0  0  0  0  0  0
   16.3977    0.7931   11.6626 H   0  0  0  0  0  0  0  0  0  0  0  0
   16.6850    2.4810   11.2440 H   0  0  0  0  0  0  0  0  0  0  0  0
   18.9425    1.8566   10.2990 H   0  0  0  0  0  0  0  0  0  0  0  0
   18.6807    0.1836   10.7845 H   0  0  0  0  0  0  0  0  0  0  0  0
   18.8002    2.5870   12.7073 H   0  0  0  0  0  0  0  0  0  0  0  0
   20.1456    1.5069   12.3518 H   0  0  0  0  0  0  0  0  0  0  0  0
   18.8268   -0.4370   13.2791 H   0  0  0  0  0  0  0  0  0  0  0  0
   17.5117    0.6594   13.6975 H   0  0  0  0  0  0  0  0  0  0  0  0
   19.0661    1.9620   15.1926 H   0  0  0  0  0  0  0  0  0  0  0  0
   20.3794    0.8602   14.7852 H   0  0  0  0  0  0  0  0  0  0  0  0
   19.0677   -1.0629   15.7609 H   0  0  0  0  0  0  0  0  0  0  0  0
   17.7556    0.0398   16.1696 H   0  0  0  0  0  0  0  0  0  0  0  0
   19.3138    1.3373   17.6719 H   0  0  0  0  0  0  0  0  0  0  0  0
   20.6260    0.2350   17.2622 H   0  0  0  0  0  0  0  0  0  0  0  0
   19.3122   -1.6858   18.2294 H   0  0  0  0  0  0  0  0  0  0  0  0
   18.0044   -0.5834   18.6525 H   0  0  0  0  0  0  0  0  0  0  0  0
   19.5888    0.7300   20.1155 H   0  0  0  0  0  0  0  0  0  0  0  0
   20.8782   -0.4108   19.7410 H   0  0  0  0  0  0  0  0  0  0  0  0
   18.2403   -1.1164   21.1634 H   0  0  0  0  0  0  0  0  0  0  0  0
   19.7756   -0.7936   21.9688 H   0  0  0  0  0  0  0  0  0  0  0  0
   20.8090   -2.7792   20.7799 H   0  0  0  0  0  0  0  0  0  0  0  0
   19.2367   -3.1341   20.0394 H   0  0  0  0  0  0  0  0  0  0  0  0
   18.2173   -3.4650   22.2822 H   0  0  0  0  0  0  0  0  0  0  0  0
   19.7850   -3.0790   23.0597 H   0  0  0  0  0  0  0  0  0  0  0  0
   20.5450   -7.0632   21.9926 H   0  0  0  0  0  0  0  0  0  0  0  0
   19.8949   -9.0656   21.1594 H   0  0  0  0  0  0  0  0  0  0  0  0
   16.8978   -6.9079   20.0284 H   0  0  0  0  0  0  0  0  0  0  0  0
   15.0286   -7.9246   18.7564 H   0  0  0  0  0  0  0  0  0  0  0  0
   14.2128   -9.8598   17.8398 H   0  0  0  0  0  0  0  0  0  0  0  0
   16.9824  -11.7631   18.9003 H   0  0  0  0  0  0  0  0  0  0  0  0
   18.8583  -10.7475   20.1767 H   0  0  0  0  0  0  0  0  0  0  0  0
  1  2  1  0
  1 41  1  0
  1 42  1  0
  1 43  1  0
  2  3  1  0
  2 44  1  0
  2 45  1  0
  3  4  1  0
  3 46  1  0
  3 47  1  0
  4  5  1  0
  4 48  1  0
  4 49  1  0
  5  6  1  0
  5 50  1  0
  5 51  1  0
  6  7  1  0
  6 52  1  0
  6 53  1  0
  7  8  1  0
  7 54  1  0
  7 55  1  0
  8  9  1  0
  8 56  1  0
  8 57  1  0
  9 10  1  0
  9 58  1  0
  9 59  1  0
 10 11  1  0
 10 60  1  0
 10 61  1  0
 11 12  1  0
 11 62  1  0
 11 63  1  0
 12 13  1  0
 12 64  1  0
 12 65  1  0
 13 14  1  0
 13 66  1  0
 13 67  1  0
 14 15  1  0
 14 68  1  0
 14 69  1  0
 15 16  1  0
 15 70  1  0
 15 71  1  0
 16 17  1  0
 16 72  1  0
 16 73  1  0
 17 18  1  0
 17 74  1  0
 17 75  1  0
 18 19  1  0
 18 76  1  0
 18 77  1  0
 19 20  1  0
 19 78  1  0
 19 79  1  0
 20 21  1  0
 20 80  1  0
 20 81  1  0
 21 22  1  0
 21 82  1  0
 21 83  1  0
 22 23  1  0
 22 84  1  0
 22 85  1  0
 23 24  1  0
 23 86  1  0
 23 87  1  0
 24 25  1  0
 24 88  1  0
 24 89  1  0
 25 26  1  0
 25 90  1  0
 25 91  1  0
 26 27  1  0
 26 92  1  0
 26 93  1  0
 27 28  1  0
 27 94  1  0
 27 95  1  0
 28 29  1  0
 28 96  1  0
 28 97  1  0
 29 30  1  0
 30 31  2  0
 30 32  1  0
 32 33  2  0
 32 98  1  0
 33 34  1  0
 33 99  1  0
 34 35  2  0
 34 40  1  0
 35 36  1  0
 35100  1  0
 36 37  2  0
 36101  1  0
 37 38  1  0
 37 39  1  0
 38102  1  0
 39 40  2  0
 39103  1  0
 40104  1  0
M  END

