
     RDKit          3D

 51 52  0  0  0  0  0  0  0  0999 V2000
    0.7743    0.2234    1.7394 C   0  0  0  0  0  0  0  0  0  0  0  0
    2.2915    0.2086    1.5863 C   0  0  0  0  0  0  0  0  0  0  0  0
    2.7079    0.9608    0.4129 N   0  0  0  0  0  0  0  0  0  0  0  0
    4.1537    1.1233    0.2351 C   0  0  1  0  0  0  0  0  0  0  0  0
    4.8295   -0.1984   -0.1769 C   0  0  0  0  0  0  0  0  0  0  0  0
    4.3264   -0.7093   -1.5301 C   0  0  0  0  0  0  0  0  0  0  0  0
    4.4964    0.3641   -2.6104 C   0  0  0  0  0  0  0  0  0  0  0  0
    3.8558    1.6935   -2.1893 C   0  0  0  0  0  0  0  0  0  0  0  0
    4.3850    2.2290   -0.8366 C   0  0  2  0  0  0  0  0  0  0  0  0
    5.7857    2.6869   -0.9420 N   0  0  0  0  0  0  0  0  0  0  0  0
    5.9867    3.7219   -1.9599 C   0  0  0  0  0  0  0  0  0  0  0  0
    6.7403    3.2515   -3.2038 C   0  0  0  0  0  0  0  0  0  0  0  0
    6.9588    4.3772   -4.0222 O   0  0  0  0  0  0  0  0  0  0  0  0
    7.6343    4.0938   -5.2154 C   0  0  0  0  0  0  0  0  0  0  0  0
    6.5272    2.9532    0.3085 C   0  0  1  0  0  0  0  0  0  0  0  0
    8.0434    2.9249    0.0633 C   0  0  0  0  0  0  0  0  0  0  0  0
    6.1272    4.2372    1.0417 C   0  0  1  0  0  0  0  0  0  0  0  0
    4.9341    4.3106    1.9637 C   0  0  0  0  0  0  0  0  0  0  0  0
    6.3297    4.3585    2.5316 C   0  0  0  0  0  0  0  0  0  0  0  0
    0.4584   -0.3725    2.6098 H   0  0  0  0  0  0  0  0  0  0  0  0
    0.2888   -0.1862    0.8399 H   0  0  0  0  0  0  0  0  0  0  0  0
    0.3977    1.2505    1.8870 H   0  0  0  0  0  0  0  0  0  0  0  0
    2.6312   -0.8356    1.4815 H   0  0  0  0  0  0  0  0  0  0  0  0
    2.7640    0.5867    2.5239 H   0  0  0  0  0  0  0  0  0  0  0  0
    2.2716    1.8829    0.4377 H   0  0  0  0  0  0  0  0  0  0  0  0
    4.6041    1.4401    1.1961 H   0  0  0  0  0  0  0  0  0  0  0  0
    4.6794   -0.9588    0.6072 H   0  0  0  0  0  0  0  0  0  0  0  0
    5.9166   -0.0202   -0.2301 H   0  0  0  0  0  0  0  0  0  0  0  0
    3.2603   -0.9768   -1.4414 H   0  0  0  0  0  0  0  0  0  0  0  0
    4.8662   -1.6292   -1.8125 H   0  0  0  0  0  0  0  0  0  0  0  0
    4.0532    0.0258   -3.5627 H   0  0  0  0  0  0  0  0  0  0  0  0
    5.5723    0.5155   -2.7991 H   0  0  0  0  0  0  0  0  0  0  0  0
    2.7713    1.5455   -2.0722 H   0  0  0  0  0  0  0  0  0  0  0  0
    3.9775    2.4490   -2.9798 H   0  0  0  0  0  0  0  0  0  0  0  0
    3.7341    3.0876   -0.5478 H   0  0  0  0  0  0  0  0  0  0  0  0
    6.5651    4.5655   -1.5528 H   0  0  0  0  0  0  0  0  0  0  0  0
    5.0277    4.1666   -2.2794 H   0  0  0  0  0  0  0  0  0  0  0  0
    6.1666    2.4777   -3.7509 H   0  0  0  0  0  0  0  0  0  0  0  0
    7.7015    2.7850   -2.9050 H   0  0  0  0  0  0  0  0  0  0  0  0
    7.7508    5.0358   -5.7721 H   0  0  0  0  0  0  0  0  0  0  0  0
    7.0756    3.3766   -5.8520 H   0  0  0  0  0  0  0  0  0  0  0  0
    8.6423    3.6663   -5.0338 H   0  0  0  0  0  0  0  0  0  0  0  0
    6.3205    2.1164    0.9895 H   0  0  0  0  0  0  0  0  0  0  0  0
    8.3790    3.7608   -0.5707 H   0  0  0  0  0  0  0  0  0  0  0  0
    8.3374    1.9848   -0.4276 H   0  0  0  0  0  0  0  0  0  0  0  0
    8.5838    3.0052    1.0191 H   0  0  0  0  0  0  0  0  0  0  0  0
    6.3310    5.1538    0.4766 H   0  0  0  0  0  0  0  0  0  0  0  0
    4.3477    3.4040    2.1359 H   0  0  0  0  0  0  0  0  0  0  0  0
    4.3391    5.2287    1.9647 H   0  0  0  0  0  0  0  0  0  0  0  0
    6.6878    3.4744    3.0699 H   0  0  0  0  0  0  0  0  0  0  0  0
    6.7013    5.3039    2.9371 H   0  0  0  0  0  0  0  0  0  0  0  0
  1  2  1  0
  1 20  1  0
  1 21  1  0
  1 22  1  0
  2  3  1  0
  2 23  1  0
  2 24  1  0
  3  4  1  0
  3 25  1  0
  4  5  1  0
  4  9  1  0
  4 26  1  1
  5  6  1  0
  5 27  1  0
  5 28  1  0
  6  7  1  0
  6 29  1  0
  6 30  1  0
  7  8  1  0
  7 31  1  0
  7 32  1  0
  8  9  1  0
  8 33  1  0
  8 34  1  0
  9 10  1  0
  9 35  1  1
 10 11  1  0
 10 15  1  0
 11 12  1  0
 11 36  1  0
 11 37  1  0
 12 13  1  0
 12 38  1  0
 12 39  1  0
 13 14  1  0
 14 40  1  0
 14 41  1  0
 14 42  1  0
 15 16  1  0
 15 17  1  0
 15 43  1  1
 16 44  1  0
 16 45  1  0
 16 46  1  0
 17 18  1  0
 17 19  1  0
 17 47  1  6
 18 19  1  0
 18 48  1  0
 18 49  1  0
 19 50  1  0
 19 51  1  0
M  END

