
     RDKit          3D

 33 34  0  0  0  0  0  0  0  0999 V2000
    1.1985    0.2167    0.1401 C   0  0  0  0  0  0  0  0  0  0  0  0
    2.6798    0.4701    0.0141 C   0  0  0  0  0  0  0  0  0  0  0  0
    3.2012    1.2549   -0.7298 O   0  0  0  0  0  0  0  0  0  0  0  0
    3.3616   -0.3315    0.8842 O   0  0  0  0  0  0  0  0  0  0  0  0
    4.7504   -0.2803    0.9832 C   0  0  0  0  0  0  0  0  0  0  0  0
    5.5710   -0.4243   -0.1528 C   0  0  0  0  0  0  0  0  0  0  0  0
    6.9599   -0.4391   -0.0192 C   0  0  0  0  0  0  0  0  0  0  0  0
    7.4774   -0.3104    1.2662 C   0  0  0  0  0  0  0  0  0  0  0  0
    8.7952   -0.3038    1.6154 O   0  0  0  0  0  0  0  0  0  0  0  0
    8.8520   -0.1605    2.9810 C   0  0  0  0  0  0  0  0  0  0  0  0
   10.2163   -0.1274    3.5795 C   0  0  0  0  0  0  0  0  0  0  0  0
   11.1015    1.0551    3.1154 C   0  0  1  0  0  0  0  0  0  0  0  0
   10.5131    2.4087    3.5277 C   0  0  0  0  0  0  0  0  0  0  0  0
   12.5320    0.8844    3.6384 C   0  0  0  0  0  0  0  0  0  0  0  0
    7.5989   -0.0742    3.5168 C   0  0  0  0  0  0  0  0  0  0  0  0
    6.6714   -0.1707    2.4149 C   0  0  0  0  0  0  0  0  0  0  0  0
    5.2749   -0.1532    2.2672 C   0  0  0  0  0  0  0  0  0  0  0  0
    0.6566    0.8421   -0.5790 H   0  0  0  0  0  0  0  0  0  0  0  0
    0.8658    0.4448    1.1646 H   0  0  0  0  0  0  0  0  0  0  0  0
    0.9824   -0.8473   -0.0411 H   0  0  0  0  0  0  0  0  0  0  0  0
    5.1152   -0.5152   -1.1380 H   0  0  0  0  0  0  0  0  0  0  0  0
    7.6145   -0.5469   -0.8856 H   0  0  0  0  0  0  0  0  0  0  0  0
   10.7316   -1.0721    3.3280 H   0  0  0  0  0  0  0  0  0  0  0  0
   10.1096   -0.1067    4.6767 H   0  0  0  0  0  0  0  0  0  0  0  0
   11.1337    1.0173    2.0118 H   0  0  0  0  0  0  0  0  0  0  0  0
   10.4649    2.5004    4.6270 H   0  0  0  0  0  0  0  0  0  0  0  0
    9.4933    2.5482    3.1364 H   0  0  0  0  0  0  0  0  0  0  0  0
   11.1331    3.2385    3.1524 H   0  0  0  0  0  0  0  0  0  0  0  0
   12.5552    0.8974    4.7420 H   0  0  0  0  0  0  0  0  0  0  0  0
   13.1845    1.6983    3.2838 H   0  0  0  0  0  0  0  0  0  0  0  0
   12.9745   -0.0691    3.3068 H   0  0  0  0  0  0  0  0  0  0  0  0
    7.3660    0.0429    4.5729 H   0  0  0  0  0  0  0  0  0  0  0  0
    4.5997   -0.0505    3.1184 H   0  0  0  0  0  0  0  0  0  0  0  0
  1  2  1  0
  1 18  1  0
  1 19  1  0
  1 20  1  0
  2  3  2  0
  2  4  1  0
  4  5  1  0
  5  6  2  0
  5 17  1  0
  6  7  1  0
  6 21  1  0
  7  8  2  0
  7 22  1  0
  8  9  1  0
  8 16  1  0
  9 10  1  0
 10 11  1  0
 10 15  2  0
 11 12  1  0
 11 23  1  0
 11 24  1  0
 12 13  1  0
 12 14  1  0
 12 25  1  6
 13 26  1  0
 13 27  1  0
 13 28  1  0
 14 29  1  0
 14 30  1  0
 14 31  1  0
 15 16  1  0
 15 32  1  0
 16 17  2  0
 17 33  1  0
M  END

