
     RDKit          3D

 28 30  0  0  0  0  0  0  0  0999 V2000
    0.7864    0.8885   -0.1385 O   0  0  0  0  0  0  0  0  0  0  0  0
    1.8945    0.4345    0.0905 C   0  0  0  0  0  0  0  0  0  0  0  0
    2.5287   -0.5316   -0.6518 N   0  0  0  0  0  0  0  0  0  0  0  0
    2.0575   -1.1999   -1.7831 C   0  0  0  0  0  0  0  0  0  0  0  0
    0.8113   -0.9790   -2.3952 C   0  0  0  0  0  0  0  0  0  0  0  0
    0.4385   -1.7064   -3.5288 C   0  0  0  0  0  0  0  0  0  0  0  0
    1.3022   -2.6619   -4.0668 C   0  0  0  0  0  0  0  0  0  0  0  0
    0.7905   -3.6512   -5.6129 Br  0  0  0  0  0  0  0  0  0  0  0  0
    2.5488   -2.9042   -3.4804 C   0  0  0  0  0  0  0  0  0  0  0  0
    2.8984   -2.1719   -2.3567 C   0  0  0  0  0  0  0  0  0  0  0  0
    4.0953   -2.3874   -1.7724 F   0  0  0  0  0  0  0  0  0  0  0  0
    2.7151    0.9115    1.2454 C   0  0  0  0  0  0  0  0  0  0  0  0
    2.3420    1.8956    2.1744 C   0  0  0  0  0  0  0  0  0  0  0  0
    3.4263    1.9837    3.0490 C   0  0  0  0  0  0  0  0  0  0  0  0
    3.6831    2.7302    4.1381 N   0  0  0  0  0  0  0  0  0  0  0  0
    4.8372    2.5547    4.7409 C   0  0  0  0  0  0  0  0  0  0  0  0
    5.8242    1.6193    4.3034 C   0  0  0  0  0  0  0  0  0  0  0  0
    5.5634    0.8580    3.1939 C   0  0  0  0  0  0  0  0  0  0  0  0
    4.3668    1.0396    2.5678 N   0  0  0  0  0  0  0  0  0  0  0  0
    3.9375    0.3981    1.4820 N   0  0  0  0  0  0  0  0  0  0  0  0
    3.4532   -0.7991   -0.3208 H   0  0  0  0  0  0  0  0  0  0  0  0
    0.1464   -0.2323   -1.9666 H   0  0  0  0  0  0  0  0  0  0  0  0
   -0.5322   -1.5241   -3.9920 H   0  0  0  0  0  0  0  0  0  0  0  0
    3.2446   -3.6440   -3.8765 H   0  0  0  0  0  0  0  0  0  0  0  0
    1.4165    2.4611    2.2077 H   0  0  0  0  0  0  0  0  0  0  0  0
    5.0333    3.1689    5.6275 H   0  0  0  0  0  0  0  0  0  0  0  0
    6.7688    1.5081    4.8362 H   0  0  0  0  0  0  0  0  0  0  0  0
    6.2293    0.1115    2.7586 H   0  0  0  0  0  0  0  0  0  0  0  0
  1  2  2  0
  2  3  1  0
  2 12  1  0
  3  4  1  0
  3 21  1  0
  4  5  2  0
  4 10  1  0
  5  6  1  0
  5 22  1  0
  6  7  2  0
  6 23  1  0
  7  8  1  0
  7  9  1  0
  9 10  2  0
  9 24  1  0
 10 11  1  0
 12 13  1  0
 12 20  2  0
 13 14  2  0
 13 25  1  0
 14 15  1  0
 14 19  1  0
 15 16  2  0
 16 17  1  0
 16 26  1  0
 17 18  2  0
 17 27  1  0
 18 19  1  0
 18 28  1  0
 19 20  1  0
M  END

