
     RDKit          3D

 56 60  0  0  0  0  0  0  0  0999 V2000
   -1.6907    5.2463   -0.8539 C   0  0  0  0  0  0  0  0  0  0  0  0
   -1.2764    5.2491   -2.2058 O   0  0  0  0  0  0  0  0  0  0  0  0
   -0.0095    5.6282   -2.5087 C   0  0  0  0  0  0  0  0  0  0  0  0
    0.9640    5.9744   -1.5673 C   0  0  0  0  0  0  0  0  0  0  0  0
    2.2511    6.3590   -1.9818 C   0  0  0  0  0  0  0  0  0  0  0  0
    3.2458    6.7191   -0.9609 C   0  0  0  0  0  0  0  0  0  0  0  0
    4.4764    7.0793   -1.2488 N   0  0  0  0  0  0  0  0  0  0  0  0
    5.0475    7.3233   -0.0068 O   0  0  0  0  0  0  0  0  0  0  0  0
    4.1043    7.0797    0.9088 C   0  0  0  0  0  0  0  0  0  0  0  0
    4.4247    7.3045    2.3572 C   0  0  0  0  0  0  0  0  0  0  0  0
    5.8107    7.0676    2.6826 N   0  0  0  0  0  0  0  0  0  0  0  0
    6.7043    8.1066    3.0401 C   0  0  0  0  0  0  0  0  0  0  0  0
    6.4107    9.2741    3.1387 O   0  0  0  0  0  0  0  0  0  0  0  0
    7.9028    7.4962    3.2601 N   0  0  0  0  0  0  0  0  0  0  0  0
    7.8954    6.0413    3.1120 C   0  0  2  0  0  0  0  0  0  0  0  0
    8.2262    5.4027    4.4790 C   0  0  0  0  0  0  0  0  0  0  0  0
    8.8572    5.5707    1.9879 C   0  0  0  0  0  0  0  0  0  0  0  0
    9.5904    6.5342    1.3129 C   0  0  0  0  0  0  0  0  0  0  0  0
   10.5704    6.2048    0.3477 C   0  0  0  0  0  0  0  0  0  0  0  0
   10.8321    4.8883    0.0583 C   0  0  0  0  0  0  0  0  0  0  0  0
   10.0940    3.8533    0.6942 C   0  0  0  0  0  0  0  0  0  0  0  0
   10.3523    2.4914    0.3697 C   0  0  0  0  0  0  0  0  0  0  0  0
    9.6253    1.4706    0.9396 C   0  0  0  0  0  0  0  0  0  0  0  0
    8.5894    1.7821    1.8504 C   0  0  0  0  0  0  0  0  0  0  0  0
    8.3176    3.0911    2.1938 C   0  0  0  0  0  0  0  0  0  0  0  0
    9.0685    4.1795    1.6550 C   0  0  0  0  0  0  0  0  0  0  0  0
    6.3954    5.8206    2.7476 C   0  0  0  0  0  0  0  0  0  0  0  0
    5.8115    4.7761    2.5795 O   0  0  0  0  0  0  0  0  0  0  0  0
    2.9767    6.7053    0.3939 N   0  0  0  0  0  0  0  0  0  0  0  0
    2.5698    6.3968   -3.3460 C   0  0  0  0  0  0  0  0  0  0  0  0
    1.6010    6.0471   -4.2867 C   0  0  0  0  0  0  0  0  0  0  0  0
    0.3238    5.6659   -3.8827 C   0  0  0  0  0  0  0  0  0  0  0  0
   -0.6297    5.4061   -4.8452 O   0  0  0  0  0  0  0  0  0  0  0  0
   -1.1043    4.1218   -4.9562 C   0  0  1  0  0  0  0  0  0  0  0  0
   -2.1582    4.1715   -5.7796 F   0  0  0  0  0  0  0  0  0  0  0  0
   -0.1645    3.3275   -5.5269 F   0  0  0  0  0  0  0  0  0  0  0  0
   -2.7440    4.9368   -0.8532 H   0  0  0  0  0  0  0  0  0  0  0  0
   -1.6093    6.2509   -0.4039 H   0  0  0  0  0  0  0  0  0  0  0  0
   -1.1040    4.5339   -0.2478 H   0  0  0  0  0  0  0  0  0  0  0  0
    0.7490    5.9592   -0.5002 H   0  0  0  0  0  0  0  0  0  0  0  0
    3.7664    6.6534    2.9499 H   0  0  0  0  0  0  0  0  0  0  0  0
    4.2181    8.3548    2.6202 H   0  0  0  0  0  0  0  0  0  0  0  0
    8.6797    8.0181    3.6456 H   0  0  0  0  0  0  0  0  0  0  0  0
    9.2492    5.6862    4.7716 H   0  0  0  0  0  0  0  0  0  0  0  0
    8.1756    4.3092    4.4505 H   0  0  0  0  0  0  0  0  0  0  0  0
    7.5280    5.7700    5.2465 H   0  0  0  0  0  0  0  0  0  0  0  0
    9.4164    7.5881    1.5260 H   0  0  0  0  0  0  0  0  0  0  0  0
   11.1191    7.0064   -0.1523 H   0  0  0  0  0  0  0  0  0  0  0  0
   11.5989    4.6166   -0.6719 H   0  0  0  0  0  0  0  0  0  0  0  0
   11.1413    2.2728   -0.3549 H   0  0  0  0  0  0  0  0  0  0  0  0
    9.8329    0.4298    0.6791 H   0  0  0  0  0  0  0  0  0  0  0  0
    7.9840    0.9794    2.2789 H   0  0  0  0  0  0  0  0  0  0  0  0
    7.4697    3.2919    2.8430 H   0  0  0  0  0  0  0  0  0  0  0  0
    3.5700    6.6958   -3.6619 H   0  0  0  0  0  0  0  0  0  0  0  0
    1.8136    6.0667   -5.3569 H   0  0  0  0  0  0  0  0  0  0  0  0
   -1.3976    3.6809   -3.9904 H   0  0  0  0  0  0  0  0  0  0  0  0
  1  2  1  0
  1 37  1  0
  1 38  1  0
  1 39  1  0
  2  3  1  0
  3  4  2  0
  3 32  1  0
  4  5  1  0
  4 40  1  0
  5  6  1  0
  5 30  2  0
  6  7  2  0
  6 29  1  0
  7  8  1  0
  8  9  1  0
  9 10  1  0
  9 29  2  0
 10 11  1  0
 10 41  1  0
 10 42  1  0
 11 12  1  0
 11 27  1  0
 12 13  2  0
 12 14  1  0
 14 15  1  0
 14 43  1  0
 15 16  1  1
 15 17  1  0
 15 27  1  0
 16 44  1  0
 16 45  1  0
 16 46  1  0
 17 18  2  0
 17 26  1  0
 18 19  1  0
 18 47  1  0
 19 20  2  0
 19 48  1  0
 20 21  1  0
 20 49  1  0
 21 22  1  0
 21 26  2  0
 22 23  2  0
 22 50  1  0
 23 24  1  0
 23 51  1  0
 24 25  2  0
 24 52  1  0
 25 26  1  0
 25 53  1  0
 27 28  2  0
 30 31  1  0
 30 54  1  0
 31 32  2  0
 31 55  1  0
 32 33  1  0
 33 34  1  0
 34 35  1  0
 34 36  1  0
 34 56  1  1
M  END

