
     RDKit          3D

 51 54  0  0  0  0  0  0  0  0999 V2000
    3.6601    0.9726   -2.7075 C   0  0  0  0  0  0  0  0  0  0  0  0
    4.2092   -0.2305   -1.9823 C   0  0  0  0  0  0  0  0  0  0  0  0
    5.1946   -1.0431   -2.5676 C   0  0  0  0  0  0  0  0  0  0  0  0
    5.6854   -2.1739   -1.9131 C   0  0  0  0  0  0  0  0  0  0  0  0
    5.1889   -2.4954   -0.6460 C   0  0  0  0  0  0  0  0  0  0  0  0
    5.8356   -3.9261    0.2228 S   0  0  1  0  0  0  0  0  0  0  0  0
    4.8716   -4.2906    1.2608 O   0  0  0  0  0  0  0  0  0  0  0  0
    6.2905   -4.8863   -0.7812 O   0  0  0  0  0  0  0  0  0  0  0  0
    7.2225   -3.3693    1.0580 N   0  0  0  0  0  0  0  0  0  0  0  0
    6.9614   -2.5831    2.2636 C   0  0  0  0  0  0  0  0  0  0  0  0
    8.4319   -3.1516    0.3367 C   0  0  0  0  0  0  0  0  0  0  0  0
    9.0309   -1.8796    0.2955 C   0  0  0  0  0  0  0  0  0  0  0  0
   10.2445   -1.6910   -0.3640 C   0  0  0  0  0  0  0  0  0  0  0  0
   10.8701   -2.7506   -1.0356 C   0  0  0  0  0  0  0  0  0  0  0  0
   12.2266   -2.5003   -1.6437 C   0  0  0  0  0  0  0  0  0  0  0  0
   13.0505   -1.8418   -1.0236 O   0  0  0  0  0  0  0  0  0  0  0  0
   12.5131   -3.0578   -2.8733 N   0  0  0  0  0  0  0  0  0  0  0  0
   13.8788   -2.9652   -3.3846 C   0  0  0  0  0  0  0  0  0  0  0  0
   14.3920   -4.3546   -3.7934 C   0  0  0  0  0  0  0  0  0  0  0  0
   13.3350   -5.0514   -4.6033 C   0  0  0  0  0  0  0  0  0  0  0  0
   13.6094   -6.4520   -5.5972 S   0  0  0  0  0  0  0  0  0  0  0  0
   11.9435   -6.5064   -6.0744 C   0  0  0  0  0  0  0  0  0  0  0  0
   11.2181   -5.4989   -5.4946 C   0  0  0  0  0  0  0  0  0  0  0  0
   12.0153   -4.6649   -4.6451 C   0  0  0  0  0  0  0  0  0  0  0  0
   11.5285   -3.4609   -3.8745 C   0  0  0  0  0  0  0  0  0  0  0  0
   10.2756   -4.0227   -0.9808 C   0  0  0  0  0  0  0  0  0  0  0  0
    9.0812   -4.2285   -0.2932 C   0  0  0  0  0  0  0  0  0  0  0  0
    4.2010   -1.7105   -0.0413 C   0  0  0  0  0  0  0  0  0  0  0  0
    3.7224   -0.5850   -0.7121 C   0  0  0  0  0  0  0  0  0  0  0  0
    4.3325    1.3034   -3.5126 H   0  0  0  0  0  0  0  0  0  0  0  0
    3.5016    1.8191   -2.0213 H   0  0  0  0  0  0  0  0  0  0  0  0
    2.6831    0.7415   -3.1666 H   0  0  0  0  0  0  0  0  0  0  0  0
    5.5809   -0.7900   -3.5587 H   0  0  0  0  0  0  0  0  0  0  0  0
    6.4352   -2.8128   -2.3822 H   0  0  0  0  0  0  0  0  0  0  0  0
    6.1842   -3.0862    2.8510 H   0  0  0  0  0  0  0  0  0  0  0  0
    6.6361   -1.5467    2.0545 H   0  0  0  0  0  0  0  0  0  0  0  0
    7.8852   -2.5473    2.8579 H   0  0  0  0  0  0  0  0  0  0  0  0
    8.5529   -1.0320    0.7887 H   0  0  0  0  0  0  0  0  0  0  0  0
   10.7245   -0.7103   -0.3622 H   0  0  0  0  0  0  0  0  0  0  0  0
   14.4994   -2.5162   -2.6008 H   0  0  0  0  0  0  0  0  0  0  0  0
   13.8982   -2.2897   -4.2608 H   0  0  0  0  0  0  0  0  0  0  0  0
   14.6366   -4.9408   -2.8894 H   0  0  0  0  0  0  0  0  0  0  0  0
   15.3301   -4.2488   -4.3638 H   0  0  0  0  0  0  0  0  0  0  0  0
   11.5941   -7.2833   -6.7528 H   0  0  0  0  0  0  0  0  0  0  0  0
   10.1482   -5.3575   -5.6610 H   0  0  0  0  0  0  0  0  0  0  0  0
   10.5646   -3.6692   -3.3963 H   0  0  0  0  0  0  0  0  0  0  0  0
   11.3511   -2.6194   -4.5776 H   0  0  0  0  0  0  0  0  0  0  0  0
   10.7732   -4.8779   -1.4444 H   0  0  0  0  0  0  0  0  0  0  0  0
    8.6400   -5.2219   -0.2333 H   0  0  0  0  0  0  0  0  0  0  0  0
    3.8035   -1.9973    0.9337 H   0  0  0  0  0  0  0  0  0  0  0  0
    2.9477    0.0276   -0.2422 H   0  0  0  0  0  0  0  0  0  0  0  0
  1  2  1  0
  1 30  1  0
  1 31  1  0
  1 32  1  0
  2  3  2  0
  2 29  1  0
  3  4  1  0
  3 33  1  0
  4  5  2  0
  4 34  1  0
  5  6  1  0
  5 28  1  0
  6  7  2  0
  6  8  2  0
  6  9  1  1
  9 10  1  0
  9 11  1  0
 10 35  1  0
 10 36  1  0
 10 37  1  0
 11 12  2  0
 11 27  1  0
 12 13  1  0
 12 38  1  0
 13 14  2  0
 13 39  1  0
 14 15  1  0
 14 26  1  0
 15 16  2  0
 15 17  1  0
 17 18  1  0
 17 25  1  0
 18 19  1  0
 18 40  1  0
 18 41  1  0
 19 20  1  0
 19 42  1  0
 19 43  1  0
 20 21  1  0
 20 24  2  0
 21 22  1  0
 22 23  2  0
 22 44  1  0
 23 24  1  0
 23 45  1  0
 24 25  1  0
 25 46  1  0
 25 47  1  0
 26 27  2  0
 26 48  1  0
 27 49  1  0
 28 29  2  0
 28 50  1  0
 29 51  1  0
M  END

