
     RDKit          3D

 43 45  0  0  0  0  0  0  0  0999 V2000
    1.4032    0.4415   -0.2294 C   0  0  0  0  0  0  0  0  0  0  0  0
    2.7959    0.2053    0.2873 C   0  0  0  0  0  0  0  0  0  0  0  0
    3.6240    1.2476    0.5828 C   0  0  0  0  0  0  0  0  0  0  0  0
    4.9791    1.0698    1.0849 C   0  0  0  0  0  0  0  0  0  0  0  0
    5.7603    1.9418    1.3643 O   0  0  0  0  0  0  0  0  0  0  0  0
    5.3928   -0.2510    1.2512 O   0  0  0  0  0  0  0  0  0  0  0  0
    4.6031   -1.3182    0.9700 C   0  0  0  0  0  0  0  0  0  0  0  0
    5.1504   -2.5783    1.1841 C   0  0  0  0  0  0  0  0  0  0  0  0
    4.3963   -3.7403    0.9164 C   0  0  0  0  0  0  0  0  0  0  0  0
    4.9480   -4.9708    1.1316 N   0  0  0  0  0  0  0  0  0  0  0  0
    4.3028   -6.2243    0.8927 C   0  0  0  0  0  0  0  0  0  0  0  0
    5.2862   -7.3483    1.2593 C   0  0  0  0  0  0  0  0  0  0  0  0
    6.4055   -7.0694    1.6669 O   0  0  0  0  0  0  0  0  0  0  0  0
    4.8542   -8.6347    1.1089 N   0  0  0  0  0  0  0  0  0  0  0  0
    3.5290   -9.0523    0.6661 C   0  0  0  0  0  0  0  0  0  0  0  0
    3.6662  -10.1260   -0.4165 C   0  0  0  0  0  0  0  0  0  0  0  0
    4.4689  -11.1968    0.0196 O   0  0  0  0  0  0  0  0  0  0  0  0
    5.7886  -10.7902    0.3720 C   0  0  2  0  0  0  0  0  0  0  0  0
    6.5650  -12.0317    0.7727 C   0  0  0  0  0  0  0  0  0  0  0  0
    5.7327   -9.7411    1.4875 C   0  0  0  0  0  0  0  0  0  0  0  0
    3.0715   -3.5843    0.4256 C   0  0  0  0  0  0  0  0  0  0  0  0
    2.5442   -2.3181    0.2188 C   0  0  0  0  0  0  0  0  0  0  0  0
    3.2831   -1.1468    0.4805 C   0  0  0  0  0  0  0  0  0  0  0  0
    1.1898    1.5155   -0.3189 H   0  0  0  0  0  0  0  0  0  0  0  0
    0.6500   -0.0047    0.4411 H   0  0  0  0  0  0  0  0  0  0  0  0
    1.2638   -0.0212   -1.2206 H   0  0  0  0  0  0  0  0  0  0  0  0
    3.3110    2.2852    0.4568 H   0  0  0  0  0  0  0  0  0  0  0  0
    6.1721   -2.6465    1.5620 H   0  0  0  0  0  0  0  0  0  0  0  0
    5.8999   -5.0548    1.4793 H   0  0  0  0  0  0  0  0  0  0  0  0
    3.9958   -6.3382   -0.1670 H   0  0  0  0  0  0  0  0  0  0  0  0
    3.3787   -6.3408    1.4948 H   0  0  0  0  0  0  0  0  0  0  0  0
    2.9590   -8.2020    0.2720 H   0  0  0  0  0  0  0  0  0  0  0  0
    2.9658   -9.4701    1.5222 H   0  0  0  0  0  0  0  0  0  0  0  0
    4.0930   -9.6658   -1.3323 H   0  0  0  0  0  0  0  0  0  0  0  0
    2.6776  -10.5408   -0.6672 H   0  0  0  0  0  0  0  0  0  0  0  0
    6.2638  -10.3193   -0.5147 H   0  0  0  0  0  0  0  0  0  0  0  0
    6.1043  -12.5073    1.6528 H   0  0  0  0  0  0  0  0  0  0  0  0
    7.6087  -11.7789    1.0142 H   0  0  0  0  0  0  0  0  0  0  0  0
    6.5612  -12.7607   -0.0508 H   0  0  0  0  0  0  0  0  0  0  0  0
    6.7258   -9.3261    1.6994 H   0  0  0  0  0  0  0  0  0  0  0  0
    5.3473  -10.2171    2.4092 H   0  0  0  0  0  0  0  0  0  0  0  0
    2.4587   -4.4596    0.2085 H   0  0  0  0  0  0  0  0  0  0  0  0
    1.5234   -2.2320   -0.1589 H   0  0  0  0  0  0  0  0  0  0  0  0
  1  2  1  0
  1 24  1  0
  1 25  1  0
  1 26  1  0
  2  3  2  0
  2 23  1  0
  3  4  1  0
  3 27  1  0
  4  5  2  0
  4  6  1  0
  6  7  1  0
  7  8  1  0
  7 23  2  0
  8  9  2  0
  8 28  1  0
  9 10  1  0
  9 21  1  0
 10 11  1  0
 10 29  1  0
 11 12  1  0
 11 30  1  0
 11 31  1  0
 12 13  2  0
 12 14  1  0
 14 15  1  0
 14 20  1  0
 15 16  1  0
 15 32  1  0
 15 33  1  0
 16 17  1  0
 16 34  1  0
 16 35  1  0
 17 18  1  0
 18 19  1  0
 18 20  1  0
 18 36  1  6
 19 37  1  0
 19 38  1  0
 19 39  1  0
 20 40  1  0
 20 41  1  0
 21 22  2  0
 21 42  1  0
 22 23  1  0
 22 43  1  0
M  END

