
     RDKit          3D

 37 39  0  0  0  0  0  0  0  0999 V2000
    2.1075   -0.6804   -0.5636 O   0  0  0  0  0  0  0  0  0  0  0  0
    1.9121    0.4436   -0.1747 C   0  0  0  0  0  0  0  0  0  0  0  0
    0.7959    1.1200   -0.4948 O   0  0  0  0  0  0  0  0  0  0  0  0
    2.8484    1.2188    0.6869 C   0  0  0  0  0  0  0  0  0  0  0  0
    2.5045    2.4662    1.0288 N   0  0  0  0  0  0  0  0  0  0  0  0
    3.4449    2.9251    1.8384 N   0  0  0  0  0  0  0  0  0  0  0  0
    4.4525    2.0056    2.0443 C   0  0  0  0  0  0  0  0  0  0  0  0
    4.0783    0.8631    1.3096 C   0  0  0  0  0  0  0  0  0  0  0  0
    4.7232   -0.3016    1.3198 O   0  0  0  0  0  0  0  0  0  0  0  0
    5.1658   -0.8737    0.0732 C   0  0  0  0  0  0  0  0  0  0  0  0
    6.1444   -1.9817    0.3654 C   0  0  0  0  0  0  0  0  0  0  0  0
    7.1632   -1.8021    1.3154 C   0  0  0  0  0  0  0  0  0  0  0  0
    8.0889   -2.8213    1.5492 C   0  0  0  0  0  0  0  0  0  0  0  0
    8.0140   -4.0242    0.8373 C   0  0  0  0  0  0  0  0  0  0  0  0
    7.0010   -4.2076   -0.1072 C   0  0  0  0  0  0  0  0  0  0  0  0
    6.0665   -3.1923   -0.3359 C   0  0  0  0  0  0  0  0  0  0  0  0
    5.7073    2.1404    2.8410 C   0  0  0  0  0  0  0  0  0  0  0  0
    6.6000    1.3196    2.6893 O   0  0  0  0  0  0  0  0  0  0  0  0
    5.8648    3.1274    3.7886 N   0  0  0  0  0  0  0  0  0  0  0  0
    5.2071    4.3995    4.0406 C   0  0  0  0  0  0  0  0  0  0  0  0
    3.7041    4.4281    3.7983 C   0  0  0  0  0  0  0  0  0  0  0  0
    3.3164    4.2896    2.3322 C   0  0  0  0  0  0  0  0  0  0  0  0
    0.8468    2.0003   -0.0781 H   0  0  0  0  0  0  0  0  0  0  0  0
    5.6542   -0.0738   -0.5142 H   0  0  0  0  0  0  0  0  0  0  0  0
    4.2969   -1.2412   -0.4917 H   0  0  0  0  0  0  0  0  0  0  0  0
    7.2106   -0.8629    1.8714 H   0  0  0  0  0  0  0  0  0  0  0  0
    8.8769   -2.6759    2.2933 H   0  0  0  0  0  0  0  0  0  0  0  0
    8.7417   -4.8189    1.0227 H   0  0  0  0  0  0  0  0  0  0  0  0
    6.9296   -5.1473   -0.6613 H   0  0  0  0  0  0  0  0  0  0  0  0
    5.2652   -3.3440   -1.0649 H   0  0  0  0  0  0  0  0  0  0  0  0
    6.7876    3.0363    4.2062 H   0  0  0  0  0  0  0  0  0  0  0  0
    5.6738    5.2084    3.4414 H   0  0  0  0  0  0  0  0  0  0  0  0
    5.3977    4.6512    5.0962 H   0  0  0  0  0  0  0  0  0  0  0  0
    3.3334    5.4041    4.1506 H   0  0  0  0  0  0  0  0  0  0  0  0
    3.1956    3.6550    4.3980 H   0  0  0  0  0  0  0  0  0  0  0  0
    3.9263    4.9674    1.7078 H   0  0  0  0  0  0  0  0  0  0  0  0
    2.2630    4.5534    2.1723 H   0  0  0  0  0  0  0  0  0  0  0  0
  1  2  2  0
  2  3  1  0
  2  4  1  0
  3 23  1  0
  4  5  2  0
  4  8  1  0
  5  6  1  0
  6  7  1  0
  6 22  1  0
  7  8  2  0
  7 17  1  0
  8  9  1  0
  9 10  1  0
 10 11  1  0
 10 24  1  0
 10 25  1  0
 11 12  2  0
 11 16  1  0
 12 13  1  0
 12 26  1  0
 13 14  2  0
 13 27  1  0
 14 15  1  0
 14 28  1  0
 15 16  2  0
 15 29  1  0
 16 30  1  0
 17 18  2  0
 17 19  1  0
 19 20  1  0
 19 31  1  0
 20 21  1  0
 20 32  1  0
 20 33  1  0
 21 22  1  0
 21 34  1  0
 21 35  1  0
 22 36  1  0
 22 37  1  0
M  END

