
     RDKit          3D

 40 39  0  0  0  0  0  0  0  0999 V2000
    2.3505    1.8560    1.2034 C   0  0  0  0  0  0  0  0  0  0  0  0
    2.3788    0.3267    1.1589 C   0  0  0  0  0  0  0  0  0  0  0  0
    3.5132   -0.3381    1.9637 C   0  0  2  0  0  0  0  0  0  0  0  0
    3.3997   -1.4305    1.8225 H   0  0  0  0  0  0  0  0  0  0  0  0
    3.4759    0.0678    3.3700 N   0  0  0  0  0  0  0  0  0  0  0  0
    4.8757   -0.0208    1.3130 C   0  0  0  0  0  0  0  0  0  0  0  0
    5.2153   -0.5874    0.2819 O   0  0  0  0  0  0  0  0  0  0  0  0
    5.6089    0.9280    1.9455 N   0  0  0  0  0  0  0  0  0  0  0  0
    6.9702    1.2802    1.5698 C   0  0  1  0  0  0  0  0  0  0  0  0
    7.0507    1.9355    0.1867 C   0  0  0  0  0  0  0  0  0  0  0  0
    7.5501    2.2200    2.6451 C   0  0  0  0  0  0  0  0  0  0  0  0
    7.2896    1.7977    4.0146 N   0  0  0  0  0  0  0  0  0  0  0  0
    8.0396    0.6091    4.4139 C   0  0  0  0  0  0  0  0  0  0  0  0
    7.5301   -0.0468    5.6958 C   0  0  0  0  0  0  0  0  0  0  0  0
    7.2731    2.8936    4.9838 C   0  0  0  0  0  0  0  0  0  0  0  0
    8.6165    3.5758    5.2847 C   0  0  0  0  0  0  0  0  0  0  0  0
    1.5074    2.2453    0.6107 H   0  0  0  0  0  0  0  0  0  0  0  0
    3.2767    2.2877    0.7936 H   0  0  0  0  0  0  0  0  0  0  0  0
    2.2414    2.2325    2.2324 H   0  0  0  0  0  0  0  0  0  0  0  0
    2.4762   -0.0212    0.1183 H   0  0  0  0  0  0  0  0  0  0  0  0
    1.4180   -0.0753    1.5310 H   0  0  0  0  0  0  0  0  0  0  0  0
    3.9621   -0.6121    3.9543 H   0  0  0  0  0  0  0  0  0  0  0  0
    2.5153    0.1069    3.7102 H   0  0  0  0  0  0  0  0  0  0  0  0
    5.2869    1.2063    2.8727 H   0  0  0  0  0  0  0  0  0  0  0  0
    7.5693    0.3509    1.5236 H   0  0  0  0  0  0  0  0  0  0  0  0
    6.4604    2.8665    0.1605 H   0  0  0  0  0  0  0  0  0  0  0  0
    6.6592    1.2484   -0.5746 H   0  0  0  0  0  0  0  0  0  0  0  0
    8.0960    2.1810   -0.0627 H   0  0  0  0  0  0  0  0  0  0  0  0
    7.0828    3.2104    2.5121 H   0  0  0  0  0  0  0  0  0  0  0  0
    8.6325    2.3523    2.4258 H   0  0  0  0  0  0  0  0  0  0  0  0
    9.1292    0.8181    4.5127 H   0  0  0  0  0  0  0  0  0  0  0  0
    7.9537   -0.1229    3.5961 H   0  0  0  0  0  0  0  0  0  0  0  0
    7.7093    0.5710    6.5894 H   0  0  0  0  0  0  0  0  0  0  0  0
    8.0421   -1.0084    5.8573 H   0  0  0  0  0  0  0  0  0  0  0  0
    6.4469   -0.2381    5.6286 H   0  0  0  0  0  0  0  0  0  0  0  0
    6.8392    2.5184    5.9247 H   0  0  0  0  0  0  0  0  0  0  0  0
    6.5605    3.6484    4.6103 H   0  0  0  0  0  0  0  0  0  0  0  0
    9.3477    2.8776    5.7229 H   0  0  0  0  0  0  0  0  0  0  0  0
    8.4717    4.3954    6.0070 H   0  0  0  0  0  0  0  0  0  0  0  0
    9.0686    4.0097    4.3782 H   0  0  0  0  0  0  0  0  0  0  0  0
  1  2  1  0
  1 17  1  0
  1 18  1  0
  1 19  1  0
  2  3  1  0
  2 20  1  0
  2 21  1  0
  3  4  1  1
  3  5  1  0
  3  6  1  0
  5 22  1  0
  5 23  1  0
  6  7  2  0
  6  8  1  0
  8  9  1  0
  8 24  1  0
  9 10  1  0
  9 11  1  0
  9 25  1  6
 10 26  1  0
 10 27  1  0
 10 28  1  0
 11 12  1  0
 11 29  1  0
 11 30  1  0
 12 13  1  0
 12 15  1  0
 13 14  1  0
 13 31  1  0
 13 32  1  0
 14 33  1  0
 14 34  1  0
 14 35  1  0
 15 16  1  0
 15 36  1  0
 15 37  1  0
 16 38  1  0
 16 39  1  0
 16 40  1  0
M  END

