
     RDKit          3D

 24 25  0  0  0  0  0  0  0  0999 V2000
    1.4548   -0.2875   -0.2910 C   0  0  0  0  0  0  0  0  0  0  0  0
    2.3942    0.3325    0.5751 O   0  0  0  0  0  0  0  0  0  0  0  0
    3.0153    1.4492    0.0803 C   0  0  0  0  0  0  0  0  0  0  0  0
    4.2148    1.2859   -0.6491 C   0  0  0  0  0  0  0  0  0  0  0  0
    4.9065    2.3884   -1.1454 C   0  0  0  0  0  0  0  0  0  0  0  0
    6.0604    2.3278   -1.8536 O   0  0  0  0  0  0  0  0  0  0  0  0
    6.6319    1.0680   -2.1289 C   0  0  0  0  0  0  0  0  0  0  0  0
    4.3967    3.6886   -0.8970 C   0  0  0  0  0  0  0  0  0  0  0  0
    4.9440    4.9587   -1.2937 C   0  0  0  0  0  0  0  0  0  0  0  0
    4.1972    6.0093   -0.8530 C   0  0  0  0  0  0  0  0  0  0  0  0
    2.8005    5.5139    0.0746 S   0  0  0  0  0  0  0  0  0  0  0  0
    3.2081    3.8247   -0.1428 C   0  0  0  0  0  0  0  0  0  0  0  0
    2.4832    2.7162    0.3392 C   0  0  0  0  0  0  0  0  0  0  0  0
    0.9952    2.8635    1.3127 S   0  0  0  0  0  0  0  0  0  0  0  0
    1.0673   -1.1706    0.2361 H   0  0  0  0  0  0  0  0  0  0  0  0
    1.9286   -0.6112   -1.2357 H   0  0  0  0  0  0  0  0  0  0  0  0
    0.6148    0.3899   -0.5233 H   0  0  0  0  0  0  0  0  0  0  0  0
    4.5750    0.2679   -0.7913 H   0  0  0  0  0  0  0  0  0  0  0  0
    7.5474    1.2580   -2.7048 H   0  0  0  0  0  0  0  0  0  0  0  0
    5.9547    0.4342   -2.7293 H   0  0  0  0  0  0  0  0  0  0  0  0
    6.8957    0.5275   -1.2022 H   0  0  0  0  0  0  0  0  0  0  0  0
    5.8574    5.0592   -1.8796 H   0  0  0  0  0  0  0  0  0  0  0  0
    4.3835    7.0716   -1.0071 H   0  0  0  0  0  0  0  0  0  0  0  0
    0.4926    3.9242    0.6346 H   0  0  0  0  0  0  0  0  0  0  0  0
  1  2  1  0
  1 15  1  0
  1 16  1  0
  1 17  1  0
  2  3  1  0
  3  4  2  0
  3 13  1  0
  4  5  1  0
  4 18  1  0
  5  6  1  0
  5  8  2  0
  6  7  1  0
  7 19  1  0
  7 20  1  0
  7 21  1  0
  8  9  1  0
  8 12  1  0
  9 10  2  0
  9 22  1  0
 10 11  1  0
 10 23  1  0
 11 12  1  0
 12 13  2  0
 13 14  1  0
 14 24  1  0
M  END

