
     RDKit          3D

 55 57  0  0  0  0  0  0  0  0999 V2000
    2.7282   -2.3913   -0.0353 C   0  0  0  0  0  0  0  0  0  0  0  0
    3.3628   -1.0059    0.0828 C   0  0  0  0  0  0  0  0  0  0  0  0
    4.0441   -0.7626    1.4297 C   0  0  0  0  0  0  0  0  0  0  0  0
    4.6658    0.5513    1.4771 N   0  0  0  0  0  0  0  0  0  0  0  0
    5.2312    0.9553    2.7708 C   0  0  1  0  0  0  0  0  0  0  0  0
    6.5081    0.1416    3.0729 C   0  0  0  0  0  0  0  0  0  0  0  0
    7.6372    0.4363    2.0827 C   0  0  0  0  0  0  0  0  0  0  0  0
    7.9778    1.9371    2.0285 C   0  0  2  0  0  0  0  0  0  0  0  0
    8.7618    2.4155    3.2595 C   0  0  0  0  0  0  0  0  0  0  0  0
    6.6982    2.7536    1.7483 C   0  0  0  0  0  0  0  0  0  0  0  0
    5.5005    2.4899    2.6970 C   0  0  2  0  0  0  0  0  0  0  0  0
    5.6300    3.2028    3.9981 N   0  0  0  0  0  0  0  0  0  0  0  0
    5.2482    2.4692    5.2034 C   0  0  0  0  0  0  0  0  0  0  0  0
    5.6267    3.2496    6.4542 C   0  0  0  0  0  0  0  0  0  0  0  0
    4.9976    4.5080    6.4798 O   0  0  0  0  0  0  0  0  0  0  0  0
    5.3157    5.2702    5.3334 C   0  0  2  0  0  0  0  0  0  0  0  0
    4.5803    6.6021    5.4542 C   0  0  0  0  0  0  0  0  0  0  0  0
    4.8591    7.5181    4.2612 C   0  0  0  0  0  0  0  0  0  0  0  0
    4.5604    6.7967    2.9436 C   0  0  0  0  0  0  0  0  0  0  0  0
    5.3095    5.4604    2.8431 C   0  0  0  0  0  0  0  0  0  0  0  0
    4.9717    4.5280    4.0201 C   0  0  1  0  0  0  0  0  0  0  0  0
    2.2433   -2.5285   -1.0146 H   0  0  0  0  0  0  0  0  0  0  0  0
    1.9608   -2.5525    0.7404 H   0  0  0  0  0  0  0  0  0  0  0  0
    3.4818   -3.1889    0.0758 H   0  0  0  0  0  0  0  0  0  0  0  0
    2.5880   -0.2316   -0.0736 H   0  0  0  0  0  0  0  0  0  0  0  0
    4.1087   -0.8555   -0.7162 H   0  0  0  0  0  0  0  0  0  0  0  0
    4.8165   -1.5366    1.5791 H   0  0  0  0  0  0  0  0  0  0  0  0
    3.3022   -0.9137    2.2503 H   0  0  0  0  0  0  0  0  0  0  0  0
    3.9810    1.2474    1.1841 H   0  0  0  0  0  0  0  0  0  0  0  0
    4.4959    0.7577    3.5770 H   0  0  0  0  0  0  0  0  0  0  0  0
    6.2678   -0.9340    3.0701 H   0  0  0  0  0  0  0  0  0  0  0  0
    6.8449    0.3615    4.0978 H   0  0  0  0  0  0  0  0  0  0  0  0
    7.3218    0.1049    1.0802 H   0  0  0  0  0  0  0  0  0  0  0  0
    8.5342   -0.1494    2.3478 H   0  0  0  0  0  0  0  0  0  0  0  0
    8.6382    2.0912    1.1558 H   0  0  0  0  0  0  0  0  0  0  0  0
    8.1882    2.3130    4.1914 H   0  0  0  0  0  0  0  0  0  0  0  0
    9.0247    3.4820    3.1670 H   0  0  0  0  0  0  0  0  0  0  0  0
    9.7012    1.8472    3.3670 H   0  0  0  0  0  0  0  0  0  0  0  0
    6.3572    2.5038    0.7300 H   0  0  0  0  0  0  0  0  0  0  0  0
    6.9456    3.8227    1.7469 H   0  0  0  0  0  0  0  0  0  0  0  0
    4.5956    2.8947    2.1968 H   0  0  0  0  0  0  0  0  0  0  0  0
    5.7645    1.5022    5.2439 H   0  0  0  0  0  0  0  0  0  0  0  0
    4.1538    2.2646    5.2473 H   0  0  0  0  0  0  0  0  0  0  0  0
    6.7295    3.3656    6.4973 H   0  0  0  0  0  0  0  0  0  0  0  0
    5.2996    2.7050    7.3540 H   0  0  0  0  0  0  0  0  0  0  0  0
    6.4125    5.4538    5.3131 H   0  0  0  0  0  0  0  0  0  0  0  0
    4.8747    7.0748    6.4048 H   0  0  0  0  0  0  0  0  0  0  0  0
    3.4994    6.3900    5.5298 H   0  0  0  0  0  0  0  0  0  0  0  0
    5.9199    7.8286    4.2741 H   0  0  0  0  0  0  0  0  0  0  0  0
    4.2643    8.4430    4.3422 H   0  0  0  0  0  0  0  0  0  0  0  0
    4.8277    7.4342    2.0845 H   0  0  0  0  0  0  0  0  0  0  0  0
    3.4733    6.6123    2.8667 H   0  0  0  0  0  0  0  0  0  0  0  0
    6.3973    5.6485    2.8332 H   0  0  0  0  0  0  0  0  0  0  0  0
    5.0629    4.9831    1.8844 H   0  0  0  0  0  0  0  0  0  0  0  0
    3.8635    4.3812    4.0173 H   0  0  0  0  0  0  0  0  0  0  0  0
  1  2  1  0
  1 22  1  0
  1 23  1  0
  1 24  1  0
  2  3  1  0
  2 25  1  0
  2 26  1  0
  3  4  1  0
  3 27  1  0
  3 28  1  0
  4  5  1  0
  4 29  1  0
  5  6  1  0
  5 11  1  0
  5 30  1  1
  6  7  1  0
  6 31  1  0
  6 32  1  0
  7  8  1  0
  7 33  1  0
  7 34  1  0
  8  9  1  0
  8 10  1  0
  8 35  1  6
  9 36  1  0
  9 37  1  0
  9 38  1  0
 10 11  1  0
 10 39  1  0
 10 40  1  0
 11 12  1  0
 11 41  1  6
 12 13  1  0
 12 21  1  0
 13 14  1  0
 13 42  1  0
 13 43  1  0
 14 15  1  0
 14 44  1  0
 14 45  1  0
 15 16  1  0
 16 17  1  0
 16 21  1  0
 16 46  1  6
 17 18  1  0
 17 47  1  0
 17 48  1  0
 18 19  1  0
 18 49  1  0
 18 50  1  0
 19 20  1  0
 19 51  1  0
 19 52  1  0
 20 21  1  0
 20 53  1  0
 20 54  1  0
 21 55  1  1
M  END

