
     RDKit          3D

 35 37  0  0  0  0  0  0  0  0999 V2000
    1.2681    0.1034   -0.8635 C   0  0  0  0  0  0  0  0  0  0  0  0
    2.6553   -0.2738   -0.4698 C   0  0  0  0  0  0  0  0  0  0  0  0
    3.4855    0.7429   -0.2019 O   0  0  0  0  0  0  0  0  0  0  0  0
    4.7432    0.2642    0.1075 N   0  0  0  0  0  0  0  0  0  0  0  0
    4.6821   -1.0457    0.0067 C   0  0  0  0  0  0  0  0  0  0  0  0
    5.8986   -1.8422    0.2779 C   0  0  0  0  0  0  0  0  0  0  0  0
    5.8346   -3.1406    0.8098 C   0  0  0  0  0  0  0  0  0  0  0  0
    7.0048   -3.8486    1.0895 C   0  0  0  0  0  0  0  0  0  0  0  0
    8.2538   -3.2728    0.8411 C   0  0  0  0  0  0  0  0  0  0  0  0
    8.3273   -1.9793    0.3142 C   0  0  0  0  0  0  0  0  0  0  0  0
    7.1603   -1.2681    0.0354 C   0  0  0  0  0  0  0  0  0  0  0  0
    3.3429   -1.4611   -0.3519 C   0  0  0  0  0  0  0  0  0  0  0  0
    2.8774   -2.8357   -0.6963 C   0  0  0  0  0  0  0  0  0  0  0  0
    3.5717   -3.6211   -1.3156 O   0  0  0  0  0  0  0  0  0  0  0  0
    1.5954   -3.1199   -0.2585 N   0  0  0  0  0  0  0  0  0  0  0  0
    0.8302   -4.2722   -0.4780 C   0  0  0  0  0  0  0  0  0  0  0  0
    1.2942   -5.3958   -1.1883 C   0  0  0  0  0  0  0  0  0  0  0  0
    0.4800   -6.5120   -1.3753 C   0  0  0  0  0  0  0  0  0  0  0  0
   -0.8153   -6.5320   -0.8536 C   0  0  0  0  0  0  0  0  0  0  0  0
   -1.8345   -7.9312   -1.0840 Cl  0  0  0  0  0  0  0  0  0  0  0  0
   -1.3064   -5.4339   -0.1442 C   0  0  0  0  0  0  0  0  0  0  0  0
   -0.4863   -4.3220    0.0336 C   0  0  0  0  0  0  0  0  0  0  0  0
   -1.1249   -2.9427    0.9184 Cl  0  0  0  0  0  0  0  0  0  0  0  0
    1.2968    0.8560   -1.6667 H   0  0  0  0  0  0  0  0  0  0  0  0
    0.7296    0.5528   -0.0128 H   0  0  0  0  0  0  0  0  0  0  0  0
    0.7007   -0.7670   -1.2138 H   0  0  0  0  0  0  0  0  0  0  0  0
    4.8695   -3.6040    1.0154 H   0  0  0  0  0  0  0  0  0  0  0  0
    6.9386   -4.8575    1.5044 H   0  0  0  0  0  0  0  0  0  0  0  0
    9.1683   -3.8314    1.0564 H   0  0  0  0  0  0  0  0  0  0  0  0
    9.3001   -1.5223    0.1158 H   0  0  0  0  0  0  0  0  0  0  0  0
    7.2117   -0.2589   -0.3763 H   0  0  0  0  0  0  0  0  0  0  0  0
    1.1572   -2.4334    0.3464 H   0  0  0  0  0  0  0  0  0  0  0  0
    2.3057   -5.3732   -1.5872 H   0  0  0  0  0  0  0  0  0  0  0  0
    0.8558   -7.3739   -1.9285 H   0  0  0  0  0  0  0  0  0  0  0  0
   -2.3164   -5.4390    0.2648 H   0  0  0  0  0  0  0  0  0  0  0  0
  1  2  1  0
  1 24  1  0
  1 25  1  0
  1 26  1  0
  2  3  1  0
  2 12  2  0
  3  4  1  0
  4  5  2  0
  5  6  1  0
  5 12  1  0
  6  7  2  0
  6 11  1  0
  7  8  1  0
  7 27  1  0
  8  9  2  0
  8 28  1  0
  9 10  1  0
  9 29  1  0
 10 11  2  0
 10 30  1  0
 11 31  1  0
 12 13  1  0
 13 14  2  0
 13 15  1  0
 15 16  1  0
 15 32  1  0
 16 17  2  0
 16 22  1  0
 17 18  1  0
 17 33  1  0
 18 19  2  0
 18 34  1  0
 19 20  1  0
 19 21  1  0
 21 22  2  0
 21 35  1  0
 22 23  1  0
M  END

