
     RDKit          3D

 48 51  0  0  0  0  0  0  0  0999 V2000
    2.1991    1.1311    0.6341 O   0  0  0  0  0  0  0  0  0  0  0  0
    1.9705   -0.0590    0.7573 C   0  0  0  0  0  0  0  0  0  0  0  0
    0.5317   -0.5832    0.8522 C   0  0  0  0  0  0  0  0  0  0  0  0
   -0.1797   -0.5759   -0.4890 C   0  0  0  0  0  0  0  0  0  0  0  0
   -0.7274   -1.7530   -1.0180 C   0  0  0  0  0  0  0  0  0  0  0  0
   -1.3875   -1.7488   -2.2487 C   0  0  0  0  0  0  0  0  0  0  0  0
   -1.5051   -0.5581   -2.9713 C   0  0  0  0  0  0  0  0  0  0  0  0
   -2.2623   -0.5302   -4.2750 C   0  0  1  0  0  0  0  0  0  0  0  0
   -2.2669   -1.7317   -4.8797 F   0  0  0  0  0  0  0  0  0  0  0  0
   -3.5510   -0.1789   -4.0933 F   0  0  0  0  0  0  0  0  0  0  0  0
   -1.7365    0.3562   -5.1392 F   0  0  0  0  0  0  0  0  0  0  0  0
   -0.9553    0.6236   -2.4569 C   0  0  0  0  0  0  0  0  0  0  0  0
   -0.3006    0.6142   -1.2267 C   0  0  0  0  0  0  0  0  0  0  0  0
    2.9323   -1.0396    0.8022 N   0  0  0  0  0  0  0  0  0  0  0  0
    4.3356   -0.9165    0.7142 C   0  0  0  0  0  0  0  0  0  0  0  0
    4.9572    0.2853    0.3668 C   0  0  0  0  0  0  0  0  0  0  0  0
    6.3551    0.3586    0.2595 C   0  0  0  0  0  0  0  0  0  0  0  0
    7.1436   -0.7582    0.4890 C   0  0  0  0  0  0  0  0  0  0  0  0
    6.5373   -1.9736    0.8520 C   0  0  0  0  0  0  0  0  0  0  0  0
    7.4170   -3.1373    1.0879 C   0  0  0  0  0  0  0  0  0  0  0  0
    8.6334   -3.1151    0.9619 O   0  0  0  0  0  0  0  0  0  0  0  0
    6.7745   -4.3261    1.4802 N   0  0  0  0  0  0  0  0  0  0  0  0
    7.6623   -5.4705    1.7123 C   0  0  1  0  0  0  0  0  0  0  0  0
    8.5790   -5.4880    2.9590 C   0  0  0  0  0  0  0  0  0  0  0  0
    8.3876   -7.0257    2.9933 C   0  0  0  0  0  0  0  0  0  0  0  0
    7.1024   -6.8442    2.1411 C   0  0  0  0  0  0  0  0  0  0  0  0
    5.4111   -4.4034    1.6174 C   0  0  0  0  0  0  0  0  0  0  0  0
    4.5843   -3.3478    1.3897 C   0  0  0  0  0  0  0  0  0  0  0  0
    5.1275   -2.0752    0.9852 C   0  0  0  0  0  0  0  0  0  0  0  0
    0.0152    0.0963    1.5490 H   0  0  0  0  0  0  0  0  0  0  0  0
    0.4960   -1.5922    1.2909 H   0  0  0  0  0  0  0  0  0  0  0  0
   -0.6420   -2.6901   -0.4606 H   0  0  0  0  0  0  0  0  0  0  0  0
   -1.8058   -2.6734   -2.6503 H   0  0  0  0  0  0  0  0  0  0  0  0
   -1.0356    1.5524   -3.0252 H   0  0  0  0  0  0  0  0  0  0  0  0
    0.1407    1.5316   -0.8321 H   0  0  0  0  0  0  0  0  0  0  0  0
    2.5838   -1.9859    0.8695 H   0  0  0  0  0  0  0  0  0  0  0  0
    4.3380    1.1603    0.1842 H   0  0  0  0  0  0  0  0  0  0  0  0
    6.8155    1.3104   -0.0157 H   0  0  0  0  0  0  0  0  0  0  0  0
    8.2305   -0.7308    0.4014 H   0  0  0  0  0  0  0  0  0  0  0  0
    8.2891   -5.5742    0.8138 H   0  0  0  0  0  0  0  0  0  0  0  0
    8.0880   -4.9994    3.8157 H   0  0  0  0  0  0  0  0  0  0  0  0
    9.5885   -5.0744    2.8375 H   0  0  0  0  0  0  0  0  0  0  0  0
    8.2719   -7.5061    3.9756 H   0  0  0  0  0  0  0  0  0  0  0  0
    9.1787   -7.5511    2.4369 H   0  0  0  0  0  0  0  0  0  0  0  0
    6.2254   -6.7558    2.8002 H   0  0  0  0  0  0  0  0  0  0  0  0
    6.8774   -7.5751    1.3493 H   0  0  0  0  0  0  0  0  0  0  0  0
    5.0178   -5.3721    1.9226 H   0  0  0  0  0  0  0  0  0  0  0  0
    3.5180   -3.5046    1.5527 H   0  0  0  0  0  0  0  0  0  0  0  0
  1  2  2  0
  2  3  1  0
  2 14  1  0
  3  4  1  0
  3 30  1  0
  3 31  1  0
  4  5  2  0
  4 13  1  0
  5  6  1  0
  5 32  1  0
  6  7  2  0
  6 33  1  0
  7  8  1  0
  7 12  1  0
  8  9  1  6
  8 10  1  0
  8 11  1  0
 12 13  2  0
 12 34  1  0
 13 35  1  0
 14 15  1  0
 14 36  1  0
 15 16  2  0
 15 29  1  0
 16 17  1  0
 16 37  1  0
 17 18  2  0
 17 38  1  0
 18 19  1  0
 18 39  1  0
 19 20  1  0
 19 29  2  0
 20 21  2  0
 20 22  1  0
 22 23  1  0
 22 27  1  0
 23 24  1  0
 23 26  1  0
 23 40  1  6
 24 25  1  0
 24 41  1  0
 24 42  1  0
 25 26  1  0
 25 43  1  0
 25 44  1  0
 26 45  1  0
 26 46  1  0
 27 28  2  0
 27 47  1  0
 28 29  1  0
 28 48  1  0
M  END

