
     RDKit          3D

 38 40  0  0  0  0  0  0  0  0999 V2000
    1.3932    0.8503    0.6961 C   0  0  0  0  0  0  0  0  0  0  0  0
    2.8444    0.5174    0.4575 C   0  0  0  0  0  0  0  0  0  0  0  0
    3.4096   -0.1209    1.4184 N   0  0  0  0  0  0  0  0  0  0  0  0
    4.7695   -0.3692    1.1706 O   0  0  0  0  0  0  0  0  0  0  0  0
    5.4006   -1.0635    2.1701 C   0  0  0  0  0  0  0  0  0  0  0  0
    4.8735   -1.4779    3.1649 O   0  0  0  0  0  0  0  0  0  0  0  0
    6.8379   -1.2309    1.8125 C   0  0  1  0  0  0  0  0  0  0  0  0
    7.1528   -0.7598    0.8792 H   0  0  0  0  0  0  0  0  0  0  0  0
    7.8348   -1.3356    2.9409 C   0  0  0  0  0  0  0  0  0  0  0  0
    7.4874   -2.5740    2.1720 C   0  0  2  0  0  0  0  0  0  0  0  0
    6.8071   -3.2562    2.6899 H   0  0  0  0  0  0  0  0  0  0  0  0
    8.4296   -3.2441    1.2276 C   0  0  0  0  0  0  0  0  0  0  0  0
    9.4186   -2.5431    0.5148 C   0  0  0  0  0  0  0  0  0  0  0  0
   10.2780   -3.2079   -0.3625 C   0  0  0  0  0  0  0  0  0  0  0  0
   10.1704   -4.5903   -0.5456 C   0  0  0  0  0  0  0  0  0  0  0  0
    9.1933   -5.3000    0.1574 C   0  0  0  0  0  0  0  0  0  0  0  0
    8.3329   -4.6323    1.0328 C   0  0  0  0  0  0  0  0  0  0  0  0
    3.4656    0.9334   -0.8356 C   0  0  0  0  0  0  0  0  0  0  0  0
    3.2557    2.2337   -1.3283 C   0  0  0  0  0  0  0  0  0  0  0  0
    3.8025    2.6319   -2.5505 C   0  0  0  0  0  0  0  0  0  0  0  0
    4.5478    1.7286   -3.3125 C   0  0  0  0  0  0  0  0  0  0  0  0
    4.7485    0.4270   -2.8412 C   0  0  0  0  0  0  0  0  0  0  0  0
    4.2194    0.0331   -1.6114 C   0  0  0  0  0  0  0  0  0  0  0  0
    1.0731    0.4439    1.6644 H   0  0  0  0  0  0  0  0  0  0  0  0
    0.7640    0.4327   -0.1067 H   0  0  0  0  0  0  0  0  0  0  0  0
    1.2327    1.9408    0.6999 H   0  0  0  0  0  0  0  0  0  0  0  0
    7.4312   -1.2487    3.9530 H   0  0  0  0  0  0  0  0  0  0  0  0
    8.8178   -0.8834    2.7852 H   0  0  0  0  0  0  0  0  0  0  0  0
    9.5247   -1.4622    0.6413 H   0  0  0  0  0  0  0  0  0  0  0  0
   11.0391   -2.6414   -0.9057 H   0  0  0  0  0  0  0  0  0  0  0  0
   10.8446   -5.1099   -1.2311 H   0  0  0  0  0  0  0  0  0  0  0  0
    9.0988   -6.3810    0.0248 H   0  0  0  0  0  0  0  0  0  0  0  0
    7.5715   -5.1961    1.5788 H   0  0  0  0  0  0  0  0  0  0  0  0
    2.6725    2.9499   -0.7452 H   0  0  0  0  0  0  0  0  0  0  0  0
    3.6406    3.6513   -2.9098 H   0  0  0  0  0  0  0  0  0  0  0  0
    4.9692    2.0364   -4.2728 H   0  0  0  0  0  0  0  0  0  0  0  0
    5.3237   -0.2879   -3.4350 H   0  0  0  0  0  0  0  0  0  0  0  0
    4.3840   -0.9823   -1.2500 H   0  0  0  0  0  0  0  0  0  0  0  0
  1  2  1  0
  1 24  1  0
  1 25  1  0
  1 26  1  0
  2  3  2  0
  2 18  1  0
  3  4  1  0
  4  5  1  0
  5  6  2  0
  5  7  1  0
  7  8  1  6
  7  9  1  0
  7 10  1  0
  9 10  1  0
  9 27  1  0
  9 28  1  0
 10 11  1  1
 10 12  1  0
 12 13  2  0
 12 17  1  0
 13 14  1  0
 13 29  1  0
 14 15  2  0
 14 30  1  0
 15 16  1  0
 15 31  1  0
 16 17  2  0
 16 32  1  0
 17 33  1  0
 18 19  2  0
 18 23  1  0
 19 20  1  0
 19 34  1  0
 20 21  2  0
 20 35  1  0
 21 22  1  0
 21 36  1  0
 22 23  2  0
 22 37  1  0
 23 38  1  0
M  END

