
     RDKit          3D

 43 45  0  0  0  0  0  0  0  0999 V2000
    2.4280    1.0189    3.1054 C   0  0  0  0  0  0  0  0  0  0  0  0
    3.7751    0.7589    2.4759 C   0  0  0  0  0  0  0  0  0  0  0  0
    4.8898    1.5546    2.7700 C   0  0  0  0  0  0  0  0  0  0  0  0
    6.1329    1.3069    2.1794 C   0  0  0  0  0  0  0  0  0  0  0  0
    6.3027    0.2486    1.2790 C   0  0  0  0  0  0  0  0  0  0  0  0
    7.6487    0.0517    0.5983 C   0  0  1  0  0  0  0  0  0  0  0  0
    8.7303    0.6141    1.3337 O   0  0  0  0  0  0  0  0  0  0  0  0
    8.0027   -1.4294    0.3323 C   0  0  0  0  0  0  0  0  0  0  0  0
    7.6389   -2.3177    1.0881 O   0  0  0  0  0  0  0  0  0  0  0  0
    8.8173   -1.6706   -0.7410 N   0  0  0  0  0  0  0  0  0  0  0  0
    9.5244   -0.6450   -1.5320 C   0  0  0  0  0  0  0  0  0  0  0  0
   10.4989   -1.4564   -2.3979 C   0  0  0  0  0  0  0  0  0  0  0  0
   10.7642   -2.7115   -1.5587 C   0  0  0  0  0  0  0  0  0  0  0  0
    9.3849   -3.0138   -0.9299 C   0  0  2  0  0  0  0  0  0  0  0  0
    8.5123   -3.9200   -1.7907 C   0  0  0  0  0  0  0  0  0  0  0  0
    7.3957   -3.4781   -2.5109 C   0  0  0  0  0  0  0  0  0  0  0  0
    6.6354   -4.3576   -3.2895 C   0  0  0  0  0  0  0  0  0  0  0  0
    6.9808   -5.7095   -3.3574 C   0  0  0  0  0  0  0  0  0  0  0  0
    8.0880   -6.1803   -2.6452 C   0  0  0  0  0  0  0  0  0  0  0  0
    8.8260   -5.2819   -1.8828 C   0  0  0  0  0  0  0  0  0  0  0  0
    9.8961   -5.7376   -1.1997 F   0  0  0  0  0  0  0  0  0  0  0  0
    5.1899   -0.5537    0.9800 C   0  0  0  0  0  0  0  0  0  0  0  0
    3.9516   -0.2991    1.5675 C   0  0  0  0  0  0  0  0  0  0  0  0
    2.4712    1.8486    3.8263 H   0  0  0  0  0  0  0  0  0  0  0  0
    2.0553    0.1282    3.6383 H   0  0  0  0  0  0  0  0  0  0  0  0
    1.6721    1.2754    2.3437 H   0  0  0  0  0  0  0  0  0  0  0  0
    4.7871    2.3868    3.4728 H   0  0  0  0  0  0  0  0  0  0  0  0
    6.9861    1.9456    2.4167 H   0  0  0  0  0  0  0  0  0  0  0  0
    7.6369    0.6099   -0.3511 H   0  0  0  0  0  0  0  0  0  0  0  0
    8.7614    0.1513    2.1852 H   0  0  0  0  0  0  0  0  0  0  0  0
   10.0533    0.0484   -0.8578 H   0  0  0  0  0  0  0  0  0  0  0  0
    8.8278   -0.0502   -2.1448 H   0  0  0  0  0  0  0  0  0  0  0  0
   11.4108   -0.8894   -2.6363 H   0  0  0  0  0  0  0  0  0  0  0  0
   10.0211   -1.7332   -3.3514 H   0  0  0  0  0  0  0  0  0  0  0  0
   11.4850   -2.4900   -0.7544 H   0  0  0  0  0  0  0  0  0  0  0  0
   11.1588   -3.5571   -2.1377 H   0  0  0  0  0  0  0  0  0  0  0  0
    9.4861   -3.4913    0.0553 H   0  0  0  0  0  0  0  0  0  0  0  0
    7.1150   -2.4249   -2.4443 H   0  0  0  0  0  0  0  0  0  0  0  0
    5.7682   -3.9845   -3.8393 H   0  0  0  0  0  0  0  0  0  0  0  0
    6.3894   -6.4026   -3.9604 H   0  0  0  0  0  0  0  0  0  0  0  0
    8.3884   -7.2298   -2.6674 H   0  0  0  0  0  0  0  0  0  0  0  0
    5.2918   -1.4001    0.2983 H   0  0  0  0  0  0  0  0  0  0  0  0
    3.1025   -0.9447    1.3232 H   0  0  0  0  0  0  0  0  0  0  0  0
  1  2  1  0
  1 24  1  0
  1 25  1  0
  1 26  1  0
  2  3  2  0
  2 23  1  0
  3  4  1  0
  3 27  1  0
  4  5  2  0
  4 28  1  0
  5  6  1  0
  5 22  1  0
  6  7  1  0
  6  8  1  0
  6 29  1  6
  7 30  1  0
  8  9  2  0
  8 10  1  0
 10 11  1  0
 10 14  1  0
 11 12  1  0
 11 31  1  0
 11 32  1  0
 12 13  1  0
 12 33  1  0
 12 34  1  0
 13 14  1  0
 13 35  1  0
 13 36  1  0
 14 15  1  0
 14 37  1  1
 15 16  2  0
 15 20  1  0
 16 17  1  0
 16 38  1  0
 17 18  2  0
 17 39  1  0
 18 19  1  0
 18 40  1  0
 19 20  2  0
 19 41  1  0
 20 21  1  0
 22 23  2  0
 22 42  1  0
 23 43  1  0
M  END

