
     RDKit          3D

 32 33  0  0  0  0  0  0  0  0999 V2000
    3.6978   -2.2798   -1.6449 C   0  0  0  0  0  0  0  0  0  0  0  0
    4.9107   -1.5410   -1.1067 C   0  0  0  0  0  0  0  0  0  0  0  0
    5.2047   -1.9173    0.2549 O   0  0  0  0  0  0  0  0  0  0  0  0
    4.5615   -1.2568    1.2355 C   0  0  0  0  0  0  0  0  0  0  0  0
    3.7541   -0.3792    1.0419 O   0  0  0  0  0  0  0  0  0  0  0  0
    4.9375   -1.7529    2.6033 C   0  0  1  0  0  0  0  0  0  0  0  0
    4.3586   -0.8655    3.7004 C   0  0  0  0  0  0  0  0  0  0  0  0
    4.8868    0.1373    4.0863 O   0  0  0  0  0  0  0  0  0  0  0  0
    3.1846   -1.2815    4.2215 O   0  0  0  0  0  0  0  0  0  0  0  0
    5.0627   -3.2607    2.8097 C   0  0  0  0  0  0  0  0  0  0  0  0
    6.2999   -2.4210    2.8157 C   0  0  2  0  0  0  0  0  0  0  0  0
    7.1179   -2.2079    4.0547 C   0  0  0  0  0  0  0  0  0  0  0  0
    7.2621   -3.2115    5.0208 C   0  0  0  0  0  0  0  0  0  0  0  0
    8.0754   -3.0272    6.1430 C   0  0  0  0  0  0  0  0  0  0  0  0
    8.7672   -1.8222    6.3163 C   0  0  0  0  0  0  0  0  0  0  0  0
    9.5719   -1.5820    7.3828 O   0  0  0  0  0  0  0  0  0  0  0  0
    8.6340   -0.8077    5.3546 C   0  0  0  0  0  0  0  0  0  0  0  0
    7.8203   -1.0030    4.2443 C   0  0  0  0  0  0  0  0  0  0  0  0
    3.5473   -2.0249   -2.7061 H   0  0  0  0  0  0  0  0  0  0  0  0
    2.7892   -1.9935   -1.0948 H   0  0  0  0  0  0  0  0  0  0  0  0
    3.8326   -3.3703   -1.5707 H   0  0  0  0  0  0  0  0  0  0  0  0
    4.7598   -0.4526   -1.1464 H   0  0  0  0  0  0  0  0  0  0  0  0
    5.8203   -1.8001   -1.6672 H   0  0  0  0  0  0  0  0  0  0  0  0
    2.8726   -2.0623    3.7424 H   0  0  0  0  0  0  0  0  0  0  0  0
    4.8672   -3.9037    1.9489 H   0  0  0  0  0  0  0  0  0  0  0  0
    4.7110   -3.6494    3.7704 H   0  0  0  0  0  0  0  0  0  0  0  0
    6.8812   -2.4611    1.8888 H   0  0  0  0  0  0  0  0  0  0  0  0
    6.7422   -4.1650    4.8974 H   0  0  0  0  0  0  0  0  0  0  0  0
    8.1747   -3.8260    6.8851 H   0  0  0  0  0  0  0  0  0  0  0  0
    9.5674   -2.3490    7.9703 H   0  0  0  0  0  0  0  0  0  0  0  0
    9.1705    0.1312    5.5051 H   0  0  0  0  0  0  0  0  0  0  0  0
    7.7065   -0.1966    3.5170 H   0  0  0  0  0  0  0  0  0  0  0  0
  1  2  1  0
  1 19  1  0
  1 20  1  0
  1 21  1  0
  2  3  1  0
  2 22  1  0
  2 23  1  0
  3  4  1  0
  4  5  2  0
  6  4  1  6
  6  7  1  0
  6 10  1  0
  6 11  1  0
  7  8  2  0
  7  9  1  0
  9 24  1  0
 10 11  1  0
 10 25  1  0
 10 26  1  0
 11 12  1  0
 11 27  1  6
 12 13  2  0
 12 18  1  0
 13 14  1  0
 13 28  1  0
 14 15  2  0
 14 29  1  0
 15 16  1  0
 15 17  1  0
 16 30  1  0
 17 18  2  0
 17 31  1  0
 18 32  1  0
M  END

