
     RDKit          3D

 58 61  0  0  0  0  0  0  0  0999 V2000
    1.7787    0.7963    0.6051 C   0  0  0  0  0  0  0  0  0  0  0  0
    3.1761    0.3083    0.4003 C   0  0  0  0  0  0  0  0  0  0  0  0
    4.2222    1.1038    0.5484 N   0  0  0  0  0  0  0  0  0  0  0  0
    5.3169    0.3384    0.3138 N   0  0  0  0  0  0  0  0  0  0  0  0
    6.6327    0.9519    0.3693 C   0  0  0  0  0  0  0  0  0  0  0  0
    7.1564    1.2582   -0.9431 N   0  0  0  0  0  0  0  0  0  0  0  0
    6.4332    2.2992   -1.6739 C   0  0  0  0  0  0  0  0  0  0  0  0
    7.3378    2.5926   -2.8802 C   0  0  0  0  0  0  0  0  0  0  0  0
    8.7588    2.2052   -2.3996 C   0  0  0  0  0  0  0  0  0  0  0  0
    8.5645    1.6886   -0.9494 C   0  0  2  0  0  0  0  0  0  0  0  0
    8.6952    2.5522   -0.2567 H   0  0  0  0  0  0  0  0  0  0  0  0
    9.5254    0.6092   -0.5237 C   0  0  0  0  0  0  0  0  0  0  0  0
    9.7006   -0.6522   -1.0474 C   0  0  0  0  0  0  0  0  0  0  0  0
   10.7274   -1.3971   -0.3928 C   0  0  0  0  0  0  0  0  0  0  0  0
   11.3250   -0.6947    0.6240 C   0  0  0  0  0  0  0  0  0  0  0  0
   10.6353    0.8811    0.7912 S   0  0  0  0  0  0  0  0  0  0  0  0
    5.0122   -0.9504    0.0024 C   0  0  0  0  0  0  0  0  0  0  0  0
    6.0548   -1.9764   -0.2945 C   0  0  0  0  0  0  0  0  0  0  0  0
    3.6164   -1.0054    0.0443 C   0  0  0  0  0  0  0  0  0  0  0  0
    2.5770   -2.4098   -0.1618 S   0  0  1  0  0  0  0  0  0  0  0  0
    3.4219   -3.5826   -0.4360 O   0  0  0  0  0  0  0  0  0  0  0  0
    1.6105   -2.4564    0.9398 O   0  0  0  0  0  0  0  0  0  0  0  0
    1.6794   -1.9965   -1.5513 N   0  0  0  0  0  0  0  0  0  0  0  0
    0.3290   -2.5820   -1.6122 C   0  0  0  0  0  0  0  0  0  0  0  0
   -0.4805   -1.8816   -2.7058 C   0  0  0  0  0  0  0  0  0  0  0  0
    0.2109   -1.9196   -4.0836 C   0  0  2  0  0  0  0  0  0  0  0  0
    0.1491   -3.3045   -4.7441 C   0  0  0  0  0  0  0  0  0  0  0  0
    1.6525   -1.3941   -3.9308 C   0  0  0  0  0  0  0  0  0  0  0  0
    2.4264   -2.0981   -2.8120 C   0  0  0  0  0  0  0  0  0  0  0  0
    1.7949    1.8560    0.8935 H   0  0  0  0  0  0  0  0  0  0  0  0
    1.2753    0.2079    1.3870 H   0  0  0  0  0  0  0  0  0  0  0  0
    1.1859    0.6794   -0.3159 H   0  0  0  0  0  0  0  0  0  0  0  0
    7.3296    0.2652    0.8715 H   0  0  0  0  0  0  0  0  0  0  0  0
    6.5067    1.8512    1.0061 H   0  0  0  0  0  0  0  0  0  0  0  0
    6.3107    3.2103   -1.0463 H   0  0  0  0  0  0  0  0  0  0  0  0
    5.4233    1.9613   -1.9473 H   0  0  0  0  0  0  0  0  0  0  0  0
    7.2638    3.6451   -3.1908 H   0  0  0  0  0  0  0  0  0  0  0  0
    7.0425    1.9764   -3.7423 H   0  0  0  0  0  0  0  0  0  0  0  0
    9.4690    3.0447   -2.4189 H   0  0  0  0  0  0  0  0  0  0  0  0
    9.1834    1.4067   -3.0237 H   0  0  0  0  0  0  0  0  0  0  0  0
    9.1104   -1.0335   -1.8821 H   0  0  0  0  0  0  0  0  0  0  0  0
   11.0123   -2.4142   -0.6671 H   0  0  0  0  0  0  0  0  0  0  0  0
   12.1328   -1.0134    1.2813 H   0  0  0  0  0  0  0  0  0  0  0  0
    6.6822   -1.6504   -1.1380 H   0  0  0  0  0  0  0  0  0  0  0  0
    5.5756   -2.9333   -0.5280 H   0  0  0  0  0  0  0  0  0  0  0  0
    6.7224   -2.1210    0.5709 H   0  0  0  0  0  0  0  0  0  0  0  0
   -0.1456   -2.4487   -0.6320 H   0  0  0  0  0  0  0  0  0  0  0  0
    0.3816   -3.6724   -1.8048 H   0  0  0  0  0  0  0  0  0  0  0  0
   -0.6309   -0.8305   -2.4057 H   0  0  0  0  0  0  0  0  0  0  0  0
   -1.4798   -2.3455   -2.7627 H   0  0  0  0  0  0  0  0  0  0  0  0
   -0.3286   -1.2207   -4.7465 H   0  0  0  0  0  0  0  0  0  0  0  0
    0.6657   -4.0793   -4.1560 H   0  0  0  0  0  0  0  0  0  0  0  0
    0.6162   -3.2850   -5.7423 H   0  0  0  0  0  0  0  0  0  0  0  0
   -0.8954   -3.6325   -4.8714 H   0  0  0  0  0  0  0  0  0  0  0  0
    1.6212   -0.3151   -3.7032 H   0  0  0  0  0  0  0  0  0  0  0  0
    2.2074   -1.5083   -4.8774 H   0  0  0  0  0  0  0  0  0  0  0  0
    3.4066   -1.6152   -2.6789 H   0  0  0  0  0  0  0  0  0  0  0  0
    2.6220   -3.1575   -3.0661 H   0  0  0  0  0  0  0  0  0  0  0  0
  1  2  1  0
  1 30  1  0
  1 31  1  0
  1 32  1  0
  2  3  2  0
  2 19  1  0
  3  4  1  0
  4  5  1  0
  4 17  1  0
  5  6  1  0
  5 33  1  0
  5 34  1  0
  6  7  1  0
  6 10  1  0
  7  8  1  0
  7 35  1  0
  7 36  1  0
  8  9  1  0
  8 37  1  0
  8 38  1  0
  9 10  1  0
  9 39  1  0
  9 40  1  0
 10 11  1  1
 10 12  1  0
 12 13  2  0
 12 16  1  0
 13 14  1  0
 13 41  1  0
 14 15  2  0
 14 42  1  0
 15 16  1  0
 15 43  1  0
 17 18  1  0
 17 19  2  0
 18 44  1  0
 18 45  1  0
 18 46  1  0
 20 19  1  1
 20 21  2  0
 20 22  2  0
 20 23  1  0
 23 24  1  0
 23 29  1  0
 24 25  1  0
 24 47  1  0
 24 48  1  0
 25 26  1  0
 25 49  1  0
 25 50  1  0
 26 27  1  0
 26 28  1  0
 26 51  1  6
 27 52  1  0
 27 53  1  0
 27 54  1  0
 28 29  1  0
 28 55  1  0
 28 56  1  0
 29 57  1  0
 29 58  1  0
M  END

