
     RDKit          3D

 45 48  0  0  0  0  0  0  0  0999 V2000
    1.6433    0.1046    1.1336 O   0  0  0  0  0  0  0  0  0  0  0  0
    2.7066    0.0991    0.5313 C   0  0  0  0  0  0  0  0  0  0  0  0
    3.5380    1.3288    0.5437 C   0  0  0  0  0  0  0  0  0  0  0  0
    3.4557    2.4004    1.4005 C   0  0  0  0  0  0  0  0  0  0  0  0
    4.4368    3.3402    0.9686 C   0  0  0  0  0  0  0  0  0  0  0  0
    5.0274    2.7673   -0.1279 C   0  0  0  0  0  0  0  0  0  0  0  0
    6.3988    3.3213   -1.1179 S   0  0  1  0  0  0  0  0  0  0  0  0
    6.7782    4.6180   -0.5460 O   0  0  0  0  0  0  0  0  0  0  0  0
    7.3429    2.2056   -1.2330 O   0  0  0  0  0  0  0  0  0  0  0  0
    5.6977    3.6061   -2.7474 C   0  0  0  0  0  0  0  0  0  0  0  0
    5.2330    4.8824   -3.0770 C   0  0  0  0  0  0  0  0  0  0  0  0
    4.7021    5.1080   -4.3471 C   0  0  0  0  0  0  0  0  0  0  0  0
    4.6482    4.0526   -5.2656 C   0  0  0  0  0  0  0  0  0  0  0  0
    3.9836    4.3327   -6.8527 Cl  0  0  0  0  0  0  0  0  0  0  0  0
    5.1238    2.7775   -4.9354 C   0  0  0  0  0  0  0  0  0  0  0  0
    5.6573    2.5532   -3.6662 C   0  0  0  0  0  0  0  0  0  0  0  0
    4.4892    1.5591   -0.3994 O   0  0  0  0  0  0  0  0  0  0  0  0
    3.1164   -0.9872   -0.2268 N   0  0  0  0  0  0  0  0  0  0  0  0
    2.1294   -2.0782   -0.3610 C   0  0  0  0  0  0  0  0  0  0  0  0
    2.1637   -3.0814    0.7451 C   0  0  0  0  0  0  0  0  0  0  0  0
    1.5761   -3.1464    1.9784 C   0  0  0  0  0  0  0  0  0  0  0  0
    2.0401   -4.3545    2.5949 C   0  0  0  0  0  0  0  0  0  0  0  0
    2.8810   -4.9263    1.6810 C   0  0  0  0  0  0  0  0  0  0  0  0
    3.8671   -6.5129    1.7249 Br  0  0  0  0  0  0  0  0  0  0  0  0
    2.9691   -4.1766    0.5618 O   0  0  0  0  0  0  0  0  0  0  0  0
    4.4859   -1.2667   -0.5038 C   0  0  0  0  0  0  0  0  0  0  0  0
    4.8647   -1.8040   -1.7444 C   0  0  0  0  0  0  0  0  0  0  0  0
    6.2155   -2.0714   -1.9606 C   0  0  0  0  0  0  0  0  0  0  0  0
    7.1374   -1.7766   -0.9531 C   0  0  0  0  0  0  0  0  0  0  0  0
    6.6534   -1.2354    0.2401 C   0  0  0  0  0  0  0  0  0  0  0  0
    5.3590   -1.0078    0.4678 N   0  0  0  0  0  0  0  0  0  0  0  0
    2.7695    2.4808    2.2396 H   0  0  0  0  0  0  0  0  0  0  0  0
    4.6916    4.3059    1.3973 H   0  0  0  0  0  0  0  0  0  0  0  0
    5.3022    5.6899   -2.3456 H   0  0  0  0  0  0  0  0  0  0  0  0
    4.3361    6.0954   -4.6326 H   0  0  0  0  0  0  0  0  0  0  0  0
    5.0804    1.9752   -5.6735 H   0  0  0  0  0  0  0  0  0  0  0  0
    6.0507    1.5741   -3.3876 H   0  0  0  0  0  0  0  0  0  0  0  0
    2.3030   -2.5892   -1.3176 H   0  0  0  0  0  0  0  0  0  0  0  0
    1.1381   -1.6115   -0.3881 H   0  0  0  0  0  0  0  0  0  0  0  0
    0.9045   -2.4000    2.3961 H   0  0  0  0  0  0  0  0  0  0  0  0
    1.7883   -4.7469    3.5767 H   0  0  0  0  0  0  0  0  0  0  0  0
    4.1236   -1.9910   -2.5233 H   0  0  0  0  0  0  0  0  0  0  0  0
    6.5458   -2.4915   -2.9140 H   0  0  0  0  0  0  0  0  0  0  0  0
    8.2056   -1.9568   -1.0872 H   0  0  0  0  0  0  0  0  0  0  0  0
    7.3418   -0.9839    1.0544 H   0  0  0  0  0  0  0  0  0  0  0  0
  1  2  2  0
  2  3  1  0
  2 18  1  0
  3  4  2  0
  3 17  1  0
  4  5  1  0
  4 32  1  0
  5  6  2  0
  5 33  1  0
  7  6  1  1
  6 17  1  0
  7  8  2  0
  7  9  2  0
  7 10  1  0
 10 11  2  0
 10 16  1  0
 11 12  1  0
 11 34  1  0
 12 13  2  0
 12 35  1  0
 13 14  1  0
 13 15  1  0
 15 16  2  0
 15 36  1  0
 16 37  1  0
 18 19  1  0
 18 26  1  0
 19 20  1  0
 19 38  1  0
 19 39  1  0
 20 21  2  0
 20 25  1  0
 21 22  1  0
 21 40  1  0
 22 23  2  0
 22 41  1  0
 23 24  1  0
 23 25  1  0
 26 27  2  0
 26 31  1  0
 27 28  1  0
 27 42  1  0
 28 29  2  0
 28 43  1  0
 29 30  1  0
 29 44  1  0
 30 31  2  0
 30 45  1  0
M  END

