
     RDKit          3D

 47 49  0  0  0  0  0  0  0  0999 V2000
    0.8462   -1.3814    0.7161 C   0  0  0  0  0  0  0  0  0  0  0  0
    2.1129   -0.6371    0.3309 C   0  0  0  0  0  0  0  0  0  0  0  0
    3.1290   -1.5915    0.1011 O   0  0  0  0  0  0  0  0  0  0  0  0
    4.4850   -1.1647    0.1446 C   0  0  1  0  0  0  0  0  0  0  0  0
    4.8942   -0.7569    1.5726 C   0  0  0  0  0  0  0  0  0  0  0  0
    5.9874   -0.0131    1.7046 N   0  0  0  0  0  0  0  0  0  0  0  0
    6.4044    0.2684    2.9557 C   0  0  0  0  0  0  0  0  0  0  0  0
    5.7356   -0.1960    4.0872 C   0  0  0  0  0  0  0  0  0  0  0  0
    4.5581   -0.9532    3.8243 C   0  0  0  0  0  0  0  0  0  0  0  0
    3.7832   -1.4258    4.8474 N   0  0  0  0  0  0  0  0  0  0  0  0
    2.6853   -2.2663    4.6586 N   0  0  0  0  0  0  0  0  0  0  0  0
    4.1583   -1.2355    2.5803 N   0  0  0  0  0  0  0  0  0  0  0  0
    6.1973    0.1048    5.4962 C   0  0  0  0  0  0  0  0  0  0  0  0
    7.6257    0.6625    5.5500 C   0  0  0  0  0  0  0  0  0  0  0  0
    7.8433    1.7212    4.4660 C   0  0  0  0  0  0  0  0  0  0  0  0
    7.6549    1.1117    3.0744 C   0  0  0  0  0  0  0  0  0  0  0  0
    5.3056   -2.4222   -0.2317 C   0  0  0  0  0  0  0  0  0  0  0  0
    5.0515   -2.8749   -1.6738 C   0  0  0  0  0  0  0  0  0  0  0  0
    5.3164   -1.7433   -2.6736 C   0  0  0  0  0  0  0  0  0  0  0  0
    4.5075   -0.4896   -2.3181 C   0  0  0  0  0  0  0  0  0  0  0  0
    4.7686   -0.0391   -0.8758 C   0  0  0  0  0  0  0  0  0  0  0  0
    0.0082   -0.6812    0.8629 H   0  0  0  0  0  0  0  0  0  0  0  0
    1.0092   -1.9432    1.6486 H   0  0  0  0  0  0  0  0  0  0  0  0
    0.5650   -2.1004   -0.0693 H   0  0  0  0  0  0  0  0  0  0  0  0
    2.3985    0.0593    1.1403 H   0  0  0  0  0  0  0  0  0  0  0  0
    1.9342   -0.0268   -0.5771 H   0  0  0  0  0  0  0  0  0  0  0  0
    4.1011   -1.3383    5.8026 H   0  0  0  0  0  0  0  0  0  0  0  0
    2.9443   -2.9898    3.9826 H   0  0  0  0  0  0  0  0  0  0  0  0
    1.9423   -1.7340    4.1992 H   0  0  0  0  0  0  0  0  0  0  0  0
    6.1372   -0.8095    6.1155 H   0  0  0  0  0  0  0  0  0  0  0  0
    5.4988    0.8265    5.9640 H   0  0  0  0  0  0  0  0  0  0  0  0
    8.3465   -0.1611    5.3993 H   0  0  0  0  0  0  0  0  0  0  0  0
    7.8273    1.0753    6.5516 H   0  0  0  0  0  0  0  0  0  0  0  0
    8.8481    2.1653    4.5521 H   0  0  0  0  0  0  0  0  0  0  0  0
    7.1232    2.5470    4.6116 H   0  0  0  0  0  0  0  0  0  0  0  0
    8.5191    0.4697    2.8204 H   0  0  0  0  0  0  0  0  0  0  0  0
    7.6204    1.8819    2.2881 H   0  0  0  0  0  0  0  0  0  0  0  0
    5.0434   -3.2206    0.4808 H   0  0  0  0  0  0  0  0  0  0  0  0
    6.3729   -2.1855   -0.0875 H   0  0  0  0  0  0  0  0  0  0  0  0
    4.0035   -3.2056   -1.7612 H   0  0  0  0  0  0  0  0  0  0  0  0
    5.6837   -3.7495   -1.9036 H   0  0  0  0  0  0  0  0  0  0  0  0
    5.0808   -2.0742   -3.6994 H   0  0  0  0  0  0  0  0  0  0  0  0
    6.3941   -1.4935   -2.6660 H   0  0  0  0  0  0  0  0  0  0  0  0
    3.4328   -0.7040   -2.4503 H   0  0  0  0  0  0  0  0  0  0  0  0
    4.7508    0.3333   -3.0116 H   0  0  0  0  0  0  0  0  0  0  0  0
    4.1672    0.8510   -0.6283 H   0  0  0  0  0  0  0  0  0  0  0  0
    5.8178    0.2653   -0.7512 H   0  0  0  0  0  0  0  0  0  0  0  0
  1  2  1  0
  1 22  1  0
  1 23  1  0
  1 24  1  0
  2  3  1  0
  2 25  1  0
  2 26  1  0
  4  3  1  1
  4  5  1  0
  4 17  1  0
  4 21  1  0
  5  6  2  0
  5 12  1  0
  6  7  1  0
  7  8  2  0
  7 16  1  0
  8  9  1  0
  8 13  1  0
  9 10  1  0
  9 12  2  0
 10 11  1  0
 10 27  1  0
 11 28  1  0
 11 29  1  0
 13 14  1  0
 13 30  1  0
 13 31  1  0
 14 15  1  0
 14 32  1  0
 14 33  1  0
 15 16  1  0
 15 34  1  0
 15 35  1  0
 16 36  1  0
 16 37  1  0
 17 18  1  0
 17 38  1  0
 17 39  1  0
 18 19  1  0
 18 40  1  0
 18 41  1  0
 19 20  1  0
 19 42  1  0
 19 43  1  0
 20 21  1  0
 20 44  1  0
 20 45  1  0
 21 46  1  0
 21 47  1  0
M  END

