
     RDKit          3D

 30 30  0  0  0  0  0  0  0  0999 V2000
    1.0870   -0.2719    0.1412 C   0  0  0  0  0  0  0  0  0  0  0  0
    2.5892   -0.3699   -0.0550 C   0  0  0  0  0  0  0  0  0  0  0  0
    3.2042   -1.3786    0.2079 O   0  0  0  0  0  0  0  0  0  0  0  0
    3.2834    0.8741   -0.6036 C   0  0  0  0  0  0  0  0  0  0  0  0
    4.7891    0.7077   -0.7823 C   0  0  0  0  0  0  0  0  0  0  0  0
    5.4511    1.9622   -1.3300 C   0  0  0  0  0  0  0  0  0  0  0  0
    6.8387    1.7050   -1.4526 O   0  0  0  0  0  0  0  0  0  0  0  0
    7.6693    2.6639   -1.9170 C   0  0  0  0  0  0  0  0  0  0  0  0
    7.2598    3.9487   -2.3098 C   0  0  0  0  0  0  0  0  0  0  0  0
    8.1748    4.9014   -2.7849 C   0  0  0  0  0  0  0  0  0  0  0  0
    7.7072    6.2716   -3.2146 C   0  0  0  0  0  0  0  0  0  0  0  0
    9.5291    4.5514   -2.8629 C   0  0  0  0  0  0  0  0  0  0  0  0
    9.9555    3.2785   -2.4767 C   0  0  0  0  0  0  0  0  0  0  0  0
    9.0399    2.3392   -2.0075 C   0  0  0  0  0  0  0  0  0  0  0  0
    9.5812    0.7520   -1.5243 Cl  0  0  0  0  0  0  0  0  0  0  0  0
    0.7024   -1.2205    0.5376 H   0  0  0  0  0  0  0  0  0  0  0  0
    0.5874   -0.0401   -0.8141 H   0  0  0  0  0  0  0  0  0  0  0  0
    0.8417    0.5469    0.8379 H   0  0  0  0  0  0  0  0  0  0  0  0
    3.0500    1.7146    0.0774 H   0  0  0  0  0  0  0  0  0  0  0  0
    2.7912    1.1392   -1.5585 H   0  0  0  0  0  0  0  0  0  0  0  0
    4.9966   -0.1361   -1.4587 H   0  0  0  0  0  0  0  0  0  0  0  0
    5.2548    0.4427    0.1796 H   0  0  0  0  0  0  0  0  0  0  0  0
    5.2816    2.8226   -0.6535 H   0  0  0  0  0  0  0  0  0  0  0  0
    5.0253    2.2311   -2.3163 H   0  0  0  0  0  0  0  0  0  0  0  0
    6.2059    4.2212   -2.2461 H   0  0  0  0  0  0  0  0  0  0  0  0
    6.6464    6.4349   -2.9738 H   0  0  0  0  0  0  0  0  0  0  0  0
    7.8275    6.4106   -4.3025 H   0  0  0  0  0  0  0  0  0  0  0  0
    8.2915    7.0666   -2.7232 H   0  0  0  0  0  0  0  0  0  0  0  0
   10.2618    5.2758   -3.2279 H   0  0  0  0  0  0  0  0  0  0  0  0
   11.0094    3.0005   -2.5344 H   0  0  0  0  0  0  0  0  0  0  0  0
  1  2  1  0
  1 16  1  0
  1 17  1  0
  1 18  1  0
  2  3  2  0
  2  4  1  0
  4  5  1  0
  4 19  1  0
  4 20  1  0
  5  6  1  0
  5 21  1  0
  5 22  1  0
  6  7  1  0
  6 23  1  0
  6 24  1  0
  7  8  1  0
  8  9  2  0
  8 14  1  0
  9 10  1  0
  9 25  1  0
 10 11  1  0
 10 12  2  0
 11 26  1  0
 11 27  1  0
 11 28  1  0
 12 13  1  0
 12 29  1  0
 13 14  2  0
 13 30  1  0
 14 15  1  0
M  END

