
     RDKit          3D

 51 54  0  0  0  0  0  0  0  0999 V2000
    0.0570    0.4491    2.5448 C   0  0  0  0  0  0  0  0  0  0  0  0
    1.3861   -0.0210    2.4923 O   0  0  0  0  0  0  0  0  0  0  0  0
    2.3819    0.8088    2.0942 C   0  0  0  0  0  0  0  0  0  0  0  0
    2.1887    2.1569    1.7714 C   0  0  0  0  0  0  0  0  0  0  0  0
    3.2580    2.9819    1.3616 C   0  0  0  0  0  0  0  0  0  0  0  0
    3.1106    4.4066    1.0296 C   0  0  0  0  0  0  0  0  0  0  0  0
    2.0713    5.0571    0.4512 C   0  0  0  0  0  0  0  0  0  0  0  0
    0.8263    4.3952   -0.0923 C   0  0  0  0  0  0  0  0  0  0  0  0
    0.3986    5.0407   -1.4113 C   0  0  0  0  0  0  0  0  0  0  0  0
    0.2450    6.5438   -1.2426 C   0  0  0  0  0  0  0  0  0  0  0  0
    1.4761    7.1603   -0.7472 N   0  0  0  0  0  0  0  0  0  0  0  0
    2.1555    6.5449    0.3123 C   0  0  0  0  0  0  0  0  0  0  0  0
    2.8899    7.1478    1.1949 N   0  0  0  0  0  0  0  0  0  0  0  0
    3.0173    8.5316    1.0855 O   0  0  0  0  0  0  0  0  0  0  0  0
    2.9040    9.0273   -0.2278 C   0  0  0  0  0  0  0  0  0  0  0  0
    1.5773    8.6139   -0.8544 C   0  0  1  0  0  0  0  0  0  0  0  0
    0.7584    9.1026   -0.2808 H   0  0  0  0  0  0  0  0  0  0  0  0
    1.5105    9.1130   -2.3109 C   0  0  0  0  0  0  0  0  0  0  0  0
    1.7157   10.5070   -2.3923 O   0  0  0  0  0  0  0  0  0  0  0  0
    4.5458    2.4162    1.3230 C   0  0  0  0  0  0  0  0  0  0  0  0
    4.7469    1.0750    1.6400 C   0  0  0  0  0  0  0  0  0  0  0  0
    3.6821    0.2493    2.0174 C   0  0  0  0  0  0  0  0  0  0  0  0
    3.9098   -1.1210    2.2963 N   0  0  0  0  0  0  0  0  0  0  0  0
    3.4096   -1.8773    3.3332 C   0  0  0  0  0  0  0  0  0  0  0  0
    3.8841   -3.0969    3.3300 N   0  0  0  0  0  0  0  0  0  0  0  0
    4.7360   -3.1742    2.2471 C   0  0  0  0  0  0  0  0  0  0  0  0
    5.4600   -4.4382    1.9061 C   0  0  0  0  0  0  0  0  0  0  0  0
    4.7720   -1.9609    1.5989 C   0  0  0  0  0  0  0  0  0  0  0  0
   -0.5607   -0.4041    2.8546 H   0  0  0  0  0  0  0  0  0  0  0  0
   -0.2903    0.8046    1.5583 H   0  0  0  0  0  0  0  0  0  0  0  0
   -0.0621    1.2640    3.2809 H   0  0  0  0  0  0  0  0  0  0  0  0
    1.1953    2.5872    1.8717 H   0  0  0  0  0  0  0  0  0  0  0  0
    3.9789    5.0237    1.2745 H   0  0  0  0  0  0  0  0  0  0  0  0
   -0.0020    4.4974    0.6363 H   0  0  0  0  0  0  0  0  0  0  0  0
    0.9952    3.3189   -0.2316 H   0  0  0  0  0  0  0  0  0  0  0  0
   -0.5557    4.6134   -1.7594 H   0  0  0  0  0  0  0  0  0  0  0  0
    1.1536    4.8373   -2.1893 H   0  0  0  0  0  0  0  0  0  0  0  0
   -0.6022    6.7603   -0.5553 H   0  0  0  0  0  0  0  0  0  0  0  0
   -0.0125    6.9980   -2.2085 H   0  0  0  0  0  0  0  0  0  0  0  0
    3.7398    8.6553   -0.8534 H   0  0  0  0  0  0  0  0  0  0  0  0
    2.9781   10.1198   -0.1648 H   0  0  0  0  0  0  0  0  0  0  0  0
    0.5567    8.8246   -2.7890 H   0  0  0  0  0  0  0  0  0  0  0  0
    2.3193    8.6352   -2.8877 H   0  0  0  0  0  0  0  0  0  0  0  0
    0.9506   10.9535   -2.0059 H   0  0  0  0  0  0  0  0  0  0  0  0
    5.3984    3.0383    1.0418 H   0  0  0  0  0  0  0  0  0  0  0  0
    5.7525    0.6515    1.6133 H   0  0  0  0  0  0  0  0  0  0  0  0
    2.7066   -1.4620    4.0514 H   0  0  0  0  0  0  0  0  0  0  0  0
    6.0996   -4.7621    2.7439 H   0  0  0  0  0  0  0  0  0  0  0  0
    6.0939   -4.3113    1.0160 H   0  0  0  0  0  0  0  0  0  0  0  0
    4.7494   -5.2585    1.7110 H   0  0  0  0  0  0  0  0  0  0  0  0
    5.2923   -1.6298    0.7043 H   0  0  0  0  0  0  0  0  0  0  0  0
  1  2  1  0
  1 29  1  0
  1 30  1  0
  1 31  1  0
  2  3  1  0
  3  4  2  0
  3 22  1  0
  4  5  1  0
  4 32  1  0
  5  6  1  0
  5 20  2  0
  6  7  2  0
  6 33  1  0
  7  8  1  0
  7 12  1  0
  8  9  1  0
  8 34  1  0
  8 35  1  0
  9 10  1  0
  9 36  1  0
  9 37  1  0
 10 11  1  0
 10 38  1  0
 10 39  1  0
 11 12  1  0
 11 16  1  0
 12 13  2  0
 13 14  1  0
 14 15  1  0
 15 16  1  0
 15 40  1  0
 15 41  1  0
 16 17  1  1
 16 18  1  0
 18 19  1  0
 18 42  1  0
 18 43  1  0
 19 44  1  0
 20 21  1  0
 20 45  1  0
 21 22  2  0
 21 46  1  0
 22 23  1  0
 23 24  1  0
 23 28  1  0
 24 25  2  0
 24 47  1  0
 25 26  1  0
 26 27  1  0
 26 28  2  0
 27 48  1  0
 27 49  1  0
 27 50  1  0
 28 51  1  0
M  END

