
     RDKit          3D

 40 43  0  0  0  0  0  0  0  0999 V2000
    2.5035    0.5457   -1.2761 C   0  0  0  0  0  0  0  0  0  0  0  0
    3.1822    0.0162   -0.1626 O   0  0  0  0  0  0  0  0  0  0  0  0
    3.6267    0.8550    0.8153 C   0  0  0  0  0  0  0  0  0  0  0  0
    3.4563    2.2596    0.7835 C   0  0  0  0  0  0  0  0  0  0  0  0
    3.9385    3.0596    1.8200 C   0  0  0  0  0  0  0  0  0  0  0  0
    4.5997    2.4706    2.9089 C   0  0  0  0  0  0  0  0  0  0  0  0
    5.2028    2.9762    4.1238 C   0  0  0  0  0  0  0  0  0  0  0  0
    5.2545    4.4158    4.5399 C   0  0  0  0  0  0  0  0  0  0  0  0
    6.2809    5.2996    3.8428 C   0  0  0  0  0  0  0  0  0  0  0  0
    7.2799    4.7876    2.9965 C   0  0  0  0  0  0  0  0  0  0  0  0
    8.1942    5.6652    2.4140 C   0  0  0  0  0  0  0  0  0  0  0  0
    8.0962    7.0294    2.6859 C   0  0  0  0  0  0  0  0  0  0  0  0
    7.0645    7.4454    3.5431 C   0  0  0  0  0  0  0  0  0  0  0  0
    6.9183    8.8518    3.8573 C   0  0  0  0  0  0  0  0  0  0  0  0
    6.8231    9.9835    4.0938 N   0  0  0  0  0  0  0  0  0  0  0  0
    6.1839    6.6081    4.1026 N   0  0  0  0  0  0  0  0  0  0  0  0
    5.6952    1.8808    4.8107 C   0  0  0  0  0  0  0  0  0  0  0  0
    6.4001    1.8294    6.1096 C   0  0  1  0  0  0  0  0  0  0  0  0
    6.2012    0.6831    7.0841 C   0  0  0  0  0  0  0  0  0  0  0  0
    7.5166    0.8354    6.3756 C   0  0  0  0  0  0  0  0  0  0  0  0
    5.4243    0.7299    4.0779 N   0  0  0  0  0  0  0  0  0  0  0  0
    5.6616   -0.2107    4.3606 H   0  0  0  0  0  0  0  0  0  0  0  0
    4.7570    1.0553    2.9168 C   0  0  0  0  0  0  0  0  0  0  0  0
    4.2822    0.2391    1.8889 C   0  0  0  0  0  0  0  0  0  0  0  0
    2.2418   -0.3069   -1.9179 H   0  0  0  0  0  0  0  0  0  0  0  0
    3.1355    1.2444   -1.8546 H   0  0  0  0  0  0  0  0  0  0  0  0
    1.5743    1.0697   -0.9858 H   0  0  0  0  0  0  0  0  0  0  0  0
    2.9442    2.7321   -0.0544 H   0  0  0  0  0  0  0  0  0  0  0  0
    3.7955    4.1423    1.7737 H   0  0  0  0  0  0  0  0  0  0  0  0
    5.4412    4.5032    5.6234 H   0  0  0  0  0  0  0  0  0  0  0  0
    4.2724    4.8958    4.3886 H   0  0  0  0  0  0  0  0  0  0  0  0
    7.3251    3.7151    2.8028 H   0  0  0  0  0  0  0  0  0  0  0  0
    8.9776    5.2895    1.7511 H   0  0  0  0  0  0  0  0  0  0  0  0
    8.7864    7.7561    2.2546 H   0  0  0  0  0  0  0  0  0  0  0  0
    6.5302    2.8157    6.5607 H   0  0  0  0  0  0  0  0  0  0  0  0
    5.5342   -0.1314    6.7847 H   0  0  0  0  0  0  0  0  0  0  0  0
    6.1484    0.9247    8.1493 H   0  0  0  0  0  0  0  0  0  0  0  0
    7.7683    0.1279    5.5793 H   0  0  0  0  0  0  0  0  0  0  0  0
    8.3829    1.1821    6.9460 H   0  0  0  0  0  0  0  0  0  0  0  0
    4.3988   -0.8462    1.8909 H   0  0  0  0  0  0  0  0  0  0  0  0
  1  2  1  0
  1 25  1  0
  1 26  1  0
  1 27  1  0
  2  3  1  0
  3  4  2  0
  3 24  1  0
  4  5  1  0
  4 28  1  0
  5  6  2  0
  5 29  1  0
  6  7  1  0
  6 23  1  0
  7  8  1  0
  7 17  2  0
  8  9  1  0
  8 30  1  0
  8 31  1  0
  9 10  2  0
  9 16  1  0
 10 11  1  0
 10 32  1  0
 11 12  2  0
 11 33  1  0
 12 13  1  0
 12 34  1  0
 13 14  1  0
 13 16  2  0
 14 15  3  0
 17 18  1  0
 17 21  1  0
 18 19  1  0
 18 20  1  0
 18 35  1  1
 19 20  1  0
 19 36  1  0
 19 37  1  0
 20 38  1  0
 20 39  1  0
 21 22  1  0
 21 23  1  0
 23 24  2  0
 24 40  1  0
M  END

