
     RDKit          3D

 32 33  0  0  0  0  0  0  0  0999 V2000
    1.6461    0.1977    0.8127 C   0  0  0  0  0  0  0  0  0  0  0  0
    2.5280   -0.3059   -0.1626 O   0  0  0  0  0  0  0  0  0  0  0  0
    3.0565    0.5384   -1.0883 C   0  0  0  0  0  0  0  0  0  0  0  0
    2.7560    1.9028   -1.1555 C   0  0  0  0  0  0  0  0  0  0  0  0
    3.3477    2.6849   -2.1555 C   0  0  0  0  0  0  0  0  0  0  0  0
    4.2151    2.1161   -3.0803 C   0  0  0  0  0  0  0  0  0  0  0  0
    4.5185    0.7429   -3.0214 C   0  0  0  0  0  0  0  0  0  0  0  0
    3.9398   -0.0528   -2.0245 C   0  0  0  0  0  0  0  0  0  0  0  0
    4.2730   -1.5231   -1.8808 C   0  0  2  0  0  0  0  0  0  0  0  0
    5.1287   -1.6667   -0.7528 O   0  0  0  0  0  0  0  0  0  0  0  0
    4.9979   -2.8824   -0.0703 C   0  0  0  0  0  0  0  0  0  0  0  0
    4.9135   -2.0674   -3.1603 C   0  0  0  0  0  0  0  0  0  0  0  0
    5.9449   -1.1565   -3.6193 N   0  0  0  0  0  0  0  0  0  0  0  0
    5.4559    0.1441   -4.0624 C   0  0  1  0  0  0  0  0  0  0  0  0
    6.3329    0.8137   -4.1241 H   0  0  0  0  0  0  0  0  0  0  0  0
    4.7999    0.1215   -5.4631 C   0  0  0  0  0  0  0  0  0  0  0  0
    1.3585   -0.6533    1.4450 H   0  0  0  0  0  0  0  0  0  0  0  0
    0.7349    0.6315    0.3619 H   0  0  0  0  0  0  0  0  0  0  0  0
    2.1277    0.9652    1.4449 H   0  0  0  0  0  0  0  0  0  0  0  0
    2.0761    2.3652   -0.4403 H   0  0  0  0  0  0  0  0  0  0  0  0
    3.1231    3.7538   -2.2014 H   0  0  0  0  0  0  0  0  0  0  0  0
    4.6779    2.7402   -3.8493 H   0  0  0  0  0  0  0  0  0  0  0  0
    3.3334   -2.0759   -1.6904 H   0  0  0  0  0  0  0  0  0  0  0  0
    5.7153   -2.8740    0.7644 H   0  0  0  0  0  0  0  0  0  0  0  0
    5.2264   -3.7635   -0.7051 H   0  0  0  0  0  0  0  0  0  0  0  0
    3.9778   -3.0161    0.3438 H   0  0  0  0  0  0  0  0  0  0  0  0
    4.1028   -2.2555   -3.9016 H   0  0  0  0  0  0  0  0  0  0  0  0
    5.3728   -3.0449   -2.9445 H   0  0  0  0  0  0  0  0  0  0  0  0
    6.5272   -1.5825   -4.3358 H   0  0  0  0  0  0  0  0  0  0  0  0
    5.5146   -0.2612   -6.2114 H   0  0  0  0  0  0  0  0  0  0  0  0
    4.4893    1.1288   -5.7808 H   0  0  0  0  0  0  0  0  0  0  0  0
    3.9055   -0.5212   -5.4796 H   0  0  0  0  0  0  0  0  0  0  0  0
  1  2  1  0
  1 17  1  0
  1 18  1  0
  1 19  1  0
  2  3  1  0
  3  4  2  0
  3  8  1  0
  4  5  1  0
  4 20  1  0
  5  6  2  0
  5 21  1  0
  6  7  1  0
  6 22  1  0
  7  8  2  0
  7 14  1  0
  8  9  1  0
  9 10  1  0
  9 12  1  0
  9 23  1  1
 10 11  1  0
 11 24  1  0
 11 25  1  0
 11 26  1  0
 12 13  1  0
 12 27  1  0
 12 28  1  0
 13 14  1  0
 13 29  1  0
 14 15  1  6
 14 16  1  0
 16 30  1  0
 16 31  1  0
 16 32  1  0
M  END

