
     RDKit          3D

 74 77  0  0  0  0  0  0  0  0999 V2000
    2.4002   -2.0472    2.3418 C   0  0  0  0  0  0  0  0  0  0  0  0
    2.9033   -1.0258    1.6405 C   0  0  0  0  0  0  0  0  0  0  0  0
    2.9580   -0.9518    0.1403 C   0  0  0  0  0  0  0  0  0  0  0  0
    4.3875   -0.9100   -0.4812 C   0  0  2  0  0  0  0  0  0  0  0  0
    4.2695   -0.8211   -2.0252 C   0  0  0  0  0  0  0  0  0  0  0  0
    3.6207   -2.0060   -2.6849 C   0  0  0  0  0  0  0  0  0  0  0  0
    2.5243   -1.9607   -3.4481 C   0  0  0  0  0  0  0  0  0  0  0  0
    5.2926   -2.0652    0.0159 C   0  0  0  0  0  0  0  0  0  0  0  0
    6.1725   -1.4770    1.1534 C   0  0  2  0  0  0  0  0  0  0  0  0
    5.6914   -1.6890    2.1222 H   0  0  0  0  0  0  0  0  0  0  0  0
    6.0858   -0.0335    0.9033 N   0  0  0  0  0  0  0  0  0  0  0  0
    6.7649    0.9203    1.7520 C   0  0  0  0  0  0  0  0  0  0  0  0
    8.1990    0.4589    2.0009 C   0  0  0  0  0  0  0  0  0  0  0  0
    8.2249   -0.9631    2.4019 N   0  0  0  0  0  0  0  0  0  0  0  0
    7.8935   -1.1521    3.7625 C   0  0  0  0  0  0  0  0  0  0  0  0
    6.9800   -1.7961    4.2072 O   0  0  0  0  0  0  0  0  0  0  0  0
    8.7365   -0.5063    4.6094 O   0  0  0  0  0  0  0  0  0  0  0  0
    7.6742   -1.9356    1.3777 C   0  0  1  0  0  0  0  0  0  0  0  0
    7.6896   -3.3314    2.0103 C   0  0  0  0  0  0  0  0  0  0  0  0
    6.6313   -4.2297    1.9910 C   0  0  0  0  0  0  0  0  0  0  0  0
    7.0040   -5.3297    2.6884 N   0  0  0  0  0  0  0  0  0  0  0  0
    6.1813   -6.4640    3.0597 C   0  0  0  0  0  0  0  0  0  0  0  0
    5.1973   -6.1955    4.1899 C   0  0  0  0  0  0  0  0  0  0  0  0
    5.2851   -5.0567    5.0022 C   0  0  0  0  0  0  0  0  0  0  0  0
    4.3743   -4.8674    6.0479 C   0  0  0  0  0  0  0  0  0  0  0  0
    3.3729   -5.8091    6.2963 C   0  0  0  0  0  0  0  0  0  0  0  0
    3.2804   -6.9470    5.4879 C   0  0  0  0  0  0  0  0  0  0  0  0
    4.1854   -7.1354    4.4414 C   0  0  0  0  0  0  0  0  0  0  0  0
    8.2414   -5.2077    3.1837 N   0  0  0  0  0  0  0  0  0  0  0  0
    8.6900   -4.0183    2.7849 C   0  0  0  0  0  0  0  0  0  0  0  0
   10.0774   -3.6430    3.2301 C   0  0  0  0  0  0  0  0  0  0  0  0
    8.6123   -1.9311    0.0424 C   0  0  1  0  0  0  0  0  0  0  0  0
   10.0996   -1.7169    0.3996 C   0  0  0  0  0  0  0  0  0  0  0  0
    8.5351   -3.3085   -0.6651 C   0  0  0  0  0  0  0  0  0  0  0  0
    8.2502   -0.8746   -1.0354 C   0  0  0  0  0  0  0  0  0  0  0  0
    5.0959    0.3478    0.0421 C   0  0  0  0  0  0  0  0  0  0  0  0
    4.8036    1.4987   -0.2310 O   0  0  0  0  0  0  0  0  0  0  0  0
    2.3857   -2.0423    3.4351 H   0  0  0  0  0  0  0  0  0  0  0  0
    1.9759   -2.9276    1.8464 H   0  0  0  0  0  0  0  0  0  0  0  0
    3.3021   -0.1605    2.1855 H   0  0  0  0  0  0  0  0  0  0  0  0
    2.4396   -0.0364   -0.1956 H   0  0  0  0  0  0  0  0  0  0  0  0
    2.4181   -1.8077   -0.2953 H   0  0  0  0  0  0  0  0  0  0  0  0
    5.2875   -0.6991   -2.4384 H   0  0  0  0  0  0  0  0  0  0  0  0
    3.7259    0.1038   -2.2736 H   0  0  0  0  0  0  0  0  0  0  0  0
    4.1094   -2.9773   -2.5294 H   0  0  0  0  0  0  0  0  0  0  0  0
    1.9998   -1.0186   -3.6399 H   0  0  0  0  0  0  0  0  0  0  0  0
    2.1132   -2.8603   -3.9151 H   0  0  0  0  0  0  0  0  0  0  0  0
    5.9054   -2.4433   -0.8093 H   0  0  0  0  0  0  0  0  0  0  0  0
    4.6877   -2.9050    0.3798 H   0  0  0  0  0  0  0  0  0  0  0  0
    6.2348    1.0148    2.7206 H   0  0  0  0  0  0  0  0  0  0  0  0
    6.7260    1.9024    1.2578 H   0  0  0  0  0  0  0  0  0  0  0  0
    8.6420    1.0742    2.7956 H   0  0  0  0  0  0  0  0  0  0  0  0
    8.8185    0.6006    1.1099 H   0  0  0  0  0  0  0  0  0  0  0  0
    9.5343   -0.2365    4.1323 H   0  0  0  0  0  0  0  0  0  0  0  0
    5.6344   -4.1596    1.5708 H   0  0  0  0  0  0  0  0  0  0  0  0
    6.8845   -7.2599    3.3488 H   0  0  0  0  0  0  0  0  0  0  0  0
    5.6392   -6.8166    2.1668 H   0  0  0  0  0  0  0  0  0  0  0  0
    6.0557   -4.3042    4.8215 H   0  0  0  0  0  0  0  0  0  0  0  0
    4.4542   -3.9726    6.6705 H   0  0  0  0  0  0  0  0  0  0  0  0
    2.6641   -5.6572    7.1144 H   0  0  0  0  0  0  0  0  0  0  0  0
    2.4981   -7.6886    5.6702 H   0  0  0  0  0  0  0  0  0  0  0  0
    4.1042   -8.0263    3.8104 H   0  0  0  0  0  0  0  0  0  0  0  0
   10.2974   -4.1650    4.1718 H   0  0  0  0  0  0  0  0  0  0  0  0
   10.1953   -2.5649    3.3898 H   0  0  0  0  0  0  0  0  0  0  0  0
   10.8427   -3.9558    2.5002 H   0  0  0  0  0  0  0  0  0  0  0  0
   10.7043   -1.8311   -0.5142 H   0  0  0  0  0  0  0  0  0  0  0  0
   10.4608   -2.4526    1.1236 H   0  0  0  0  0  0  0  0  0  0  0  0
   10.3099   -0.7169    0.8030 H   0  0  0  0  0  0  0  0  0  0  0  0
    9.0780   -3.2517   -1.6220 H   0  0  0  0  0  0  0  0  0  0  0  0
    7.5058   -3.6210   -0.8875 H   0  0  0  0  0  0  0  0  0  0  0  0
    8.9933   -4.1058   -0.0658 H   0  0  0  0  0  0  0  0  0  0  0  0
    8.9831   -0.9595   -1.8538 H   0  0  0  0  0  0  0  0  0  0  0  0
    8.2814    0.1635   -0.6860 H   0  0  0  0  0  0  0  0  0  0  0  0
    7.2622   -1.0363   -1.4808 H   0  0  0  0  0  0  0  0  0  0  0  0
  1  2  2  0
  1 38  1  0
  1 39  1  0
  2  3  1  0
  2 40  1  0
  4  3  1  1
  3 41  1  0
  3 42  1  0
  4  5  1  0
  4  8  1  0
  4 36  1  0
  5  6  1  0
  5 43  1  0
  5 44  1  0
  6  7  2  0
  6 45  1  0
  7 46  1  0
  7 47  1  0
  8  9  1  0
  8 48  1  0
  8 49  1  0
  9 10  1  1
  9 11  1  0
  9 18  1  0
 11 12  1  0
 11 36  1  0
 12 13  1  0
 12 50  1  0
 12 51  1  0
 13 14  1  0
 13 52  1  0
 13 53  1  0
 14 15  1  0
 14 18  1  0
 15 16  2  0
 15 17  1  0
 17 54  1  0
 18 19  1  1
 18 32  1  0
 19 20  2  0
 19 30  1  0
 20 21  1  0
 20 55  1  0
 21 22  1  0
 21 29  1  0
 22 23  1  0
 22 56  1  0
 22 57  1  0
 23 24  2  0
 23 28  1  0
 24 25  1  0
 24 58  1  0
 25 26  2  0
 25 59  1  0
 26 27  1  0
 26 60  1  0
 27 28  2  0
 27 61  1  0
 28 62  1  0
 29 30  2  0
 30 31  1  0
 31 63  1  0
 31 64  1  0
 31 65  1  0
 32 33  1  1
 32 34  1  0
 32 35  1  0
 33 66  1  0
 33 67  1  0
 33 68  1  0
 34 69  1  0
 34 70  1  0
 34 71  1  0
 35 72  1  0
 35 73  1  0
 35 74  1  0
 36 37  2  0
M  END

