
     RDKit          3D

 49 50  0  0  0  0  0  0  0  0999 V2000
    3.4875   -1.9916    0.7087 C   0  0  0  0  0  0  0  0  0  0  0  0
    3.3641   -0.7250    1.5708 C   0  0  1  0  0  0  0  0  0  0  0  0
    2.0330   -0.0040    1.2962 C   0  0  0  0  0  0  0  0  0  0  0  0
    3.4681   -1.0904    3.0554 C   0  0  0  0  0  0  0  0  0  0  0  0
    4.4696    0.1665    1.3579 O   0  0  0  0  0  0  0  0  0  0  0  0
    4.7887    0.6000    0.0585 C   0  0  2  0  0  0  0  0  0  0  0  0
    3.8826    0.6593   -0.5700 H   0  0  0  0  0  0  0  0  0  0  0  0
    5.9519   -0.1161   -0.6628 C   0  0  0  0  0  0  0  0  0  0  0  0
    6.5944    1.2621   -0.9972 C   0  0  2  0  0  0  0  0  0  0  0  0
    6.3376    1.5745   -2.0337 H   0  0  0  0  0  0  0  0  0  0  0  0
    7.9918    1.4197   -0.7191 N   0  0  0  0  0  0  0  0  0  0  0  0
    8.8703    1.1915   -1.6240 C   0  0  0  0  0  0  0  0  0  0  0  0
    8.6295    0.6387   -2.8807 N   0  0  0  0  0  0  0  0  0  0  0  0
   10.2178    1.4954   -1.3922 N   0  0  0  0  0  0  0  0  0  0  0  0
   11.2557    0.5327   -1.7750 C   0  0  0  0  0  0  0  0  0  0  0  0
   12.6117    1.2293   -1.8194 C   0  0  0  0  0  0  0  0  0  0  0  0
   12.9147    1.8574   -0.5919 O   0  0  0  0  0  0  0  0  0  0  0  0
   11.9200    2.8032   -0.2403 C   0  0  0  0  0  0  0  0  0  0  0  0
   10.5390    2.1659   -0.1363 C   0  0  0  0  0  0  0  0  0  0  0  0
    5.5862    1.9489    0.0043 C   0  0  1  0  0  0  0  0  0  0  0  0
    4.8105    3.1223   -0.5938 C   0  0  0  0  0  0  0  0  0  0  0  0
    6.2187    2.3361    1.3377 C   0  0  0  0  0  0  0  0  0  0  0  0
    2.6786   -2.6997    0.9484 H   0  0  0  0  0  0  0  0  0  0  0  0
    4.4511   -2.4917    0.8921 H   0  0  0  0  0  0  0  0  0  0  0  0
    3.4188   -1.7640   -0.3667 H   0  0  0  0  0  0  0  0  0  0  0  0
    1.1766   -0.6574    1.5264 H   0  0  0  0  0  0  0  0  0  0  0  0
    1.9418    0.2981    0.2411 H   0  0  0  0  0  0  0  0  0  0  0  0
    1.9576    0.9012    1.9183 H   0  0  0  0  0  0  0  0  0  0  0  0
    2.6761   -1.7977    3.3473 H   0  0  0  0  0  0  0  0  0  0  0  0
    3.3798   -0.1874    3.6785 H   0  0  0  0  0  0  0  0  0  0  0  0
    4.4470   -1.5496    3.2604 H   0  0  0  0  0  0  0  0  0  0  0  0
    5.7044   -0.7878   -1.5007 H   0  0  0  0  0  0  0  0  0  0  0  0
    6.5763   -0.6601    0.0596 H   0  0  0  0  0  0  0  0  0  0  0  0
    7.6515    0.5222   -3.1189 H   0  0  0  0  0  0  0  0  0  0  0  0
    9.1770    1.0280   -3.6423 H   0  0  0  0  0  0  0  0  0  0  0  0
   11.0306    0.0920   -2.7553 H   0  0  0  0  0  0  0  0  0  0  0  0
   11.2998   -0.2985   -1.0400 H   0  0  0  0  0  0  0  0  0  0  0  0
   12.6110    1.9747   -2.6432 H   0  0  0  0  0  0  0  0  0  0  0  0
   13.4103    0.4969   -2.0150 H   0  0  0  0  0  0  0  0  0  0  0  0
   11.8929    3.6205   -0.9910 H   0  0  0  0  0  0  0  0  0  0  0  0
   12.2151    3.2330    0.7291 H   0  0  0  0  0  0  0  0  0  0  0  0
    9.7747    2.9274    0.0683 H   0  0  0  0  0  0  0  0  0  0  0  0
   10.5157    1.4504    0.7098 H   0  0  0  0  0  0  0  0  0  0  0  0
    4.3331    2.8510   -1.5510 H   0  0  0  0  0  0  0  0  0  0  0  0
    5.4806    3.9780   -0.7850 H   0  0  0  0  0  0  0  0  0  0  0  0
    4.0164    3.4646    0.0914 H   0  0  0  0  0  0  0  0  0  0  0  0
    6.7907    1.5102    1.7796 H   0  0  0  0  0  0  0  0  0  0  0  0
    5.4388    2.6322    2.0569 H   0  0  0  0  0  0  0  0  0  0  0  0
    6.9099    3.1813    1.1959 H   0  0  0  0  0  0  0  0  0  0  0  0
  1  2  1  0
  1 23  1  0
  1 24  1  0
  1 25  1  0
  2  3  1  0
  2  4  1  0
  2  5  1  6
  3 26  1  0
  3 27  1  0
  3 28  1  0
  4 29  1  0
  4 30  1  0
  4 31  1  0
  5  6  1  0
  6  7  1  6
  6  8  1  0
  6 20  1  0
  8  9  1  0
  8 32  1  0
  8 33  1  0
  9 10  1  6
  9 11  1  0
  9 20  1  0
 11 12  2  0
 12 13  1  0
 12 14  1  0
 13 34  1  0
 13 35  1  0
 14 15  1  0
 14 19  1  0
 15 16  1  0
 15 36  1  0
 15 37  1  0
 16 17  1  0
 16 38  1  0
 16 39  1  0
 17 18  1  0
 18 19  1  0
 18 40  1  0
 18 41  1  0
 19 42  1  0
 19 43  1  0
 20 21  1  6
 20 22  1  0
 21 44  1  0
 21 45  1  0
 21 46  1  0
 22 47  1  0
 22 48  1  0
 22 49  1  0
M  END

