
     RDKit          3D

 33 34  0  0  0  0  0  0  0  0999 V2000
    3.2087   -0.6777    4.1543 N   0  0  0  0  0  0  0  0  0  0  0  0
    3.9709   -0.5390    3.2897 C   0  0  0  0  0  0  0  0  0  0  0  0
    4.9165   -0.3713    2.2244 C   0  0  0  0  0  0  0  0  0  0  0  0
    4.5828   -0.6770    0.8926 C   0  0  0  0  0  0  0  0  0  0  0  0
    5.5465   -0.5028   -0.0933 C   0  0  0  0  0  0  0  0  0  0  0  0
    6.8069   -0.0035    0.2719 C   0  0  0  0  0  0  0  0  0  0  0  0
    7.8741    0.0623   -0.8090 C   0  0  0  0  0  0  0  0  0  0  0  0
    7.8517   -0.8101   -1.6680 O   0  0  0  0  0  0  0  0  0  0  0  0
    8.8331    1.0436   -0.7661 N   0  0  0  0  0  0  0  0  0  0  0  0
    9.9787    0.9023   -1.6734 C   0  0  0  0  0  0  0  0  0  0  0  0
   10.1198    2.0568   -2.6611 C   0  0  0  0  0  0  0  0  0  0  0  0
   10.3326    3.6650   -1.8118 S   0  0  0  0  0  0  0  0  0  0  0  0
    8.8268    3.5241   -0.7863 C   0  0  0  0  0  0  0  0  0  0  0  0
    8.7652    2.2495    0.0750 C   0  0  2  0  0  0  0  0  0  0  0  0
    9.8116    2.2210    1.1988 C   0  0  0  0  0  0  0  0  0  0  0  0
    9.4713    3.1762    2.3340 C   0  0  0  0  0  0  0  0  0  0  0  0
    8.4896    3.8688    2.3739 O   0  0  0  0  0  0  0  0  0  0  0  0
   10.3643    3.2028    3.3475 O   0  0  0  0  0  0  0  0  0  0  0  0
    7.1266    0.2844    1.5399 N   0  0  0  0  0  0  0  0  0  0  0  0
    6.2157    0.1037    2.4911 C   0  0  0  0  0  0  0  0  0  0  0  0
    3.5867   -1.0514    0.6480 H   0  0  0  0  0  0  0  0  0  0  0  0
    5.3536   -0.7574   -1.1356 H   0  0  0  0  0  0  0  0  0  0  0  0
    9.8326   -0.0403   -2.2167 H   0  0  0  0  0  0  0  0  0  0  0  0
   10.9043    0.8192   -1.0771 H   0  0  0  0  0  0  0  0  0  0  0  0
    9.2437    2.1081   -3.3284 H   0  0  0  0  0  0  0  0  0  0  0  0
   11.0136    1.9096   -3.2857 H   0  0  0  0  0  0  0  0  0  0  0  0
    7.9428    3.5616   -1.4432 H   0  0  0  0  0  0  0  0  0  0  0  0
    8.7934    4.4050   -0.1306 H   0  0  0  0  0  0  0  0  0  0  0  0
    7.7862    2.2658    0.5623 H   0  0  0  0  0  0  0  0  0  0  0  0
   10.8157    2.4686    0.8125 H   0  0  0  0  0  0  0  0  0  0  0  0
    9.8500    1.2025    1.6188 H   0  0  0  0  0  0  0  0  0  0  0  0
   11.0982    2.5963    3.1719 H   0  0  0  0  0  0  0  0  0  0  0  0
    6.5090    0.3442    3.5182 H   0  0  0  0  0  0  0  0  0  0  0  0
  1  2  3  0
  2  3  1  0
  3  4  2  0
  3 20  1  0
  4  5  1  0
  4 21  1  0
  5  6  2  0
  5 22  1  0
  6  7  1  0
  6 19  1  0
  7  8  2  0
  7  9  1  0
  9 10  1  0
  9 14  1  0
 10 11  1  0
 10 23  1  0
 10 24  1  0
 11 12  1  0
 11 25  1  0
 11 26  1  0
 12 13  1  0
 13 14  1  0
 13 27  1  0
 13 28  1  0
 14 15  1  0
 14 29  1  1
 15 16  1  0
 15 30  1  0
 15 31  1  0
 16 17  2  0
 16 18  1  0
 18 32  1  0
 19 20  2  0
 20 33  1  0
M  END

