
     RDKit          3D

 52 52  0  0  0  0  0  0  0  0999 V2000
    1.8046   -1.8535   -6.5650 C   0  0  0  0  0  0  0  0  0  0  0  0
    2.7247   -1.5829   -5.3738 C   0  0  0  0  0  0  0  0  0  0  0  0
    4.0935   -2.2797   -5.4450 C   0  0  1  0  0  0  0  0  0  0  0  0
    4.9529   -1.8388   -6.6367 C   0  0  0  0  0  0  0  0  0  0  0  0
    4.7944   -2.0799   -4.1766 N   0  0  0  0  0  0  0  0  0  0  0  0
    5.6776   -3.0116   -3.6885 C   0  0  0  0  0  0  0  0  0  0  0  0
    5.8577   -4.1102   -4.1969 O   0  0  0  0  0  0  0  0  0  0  0  0
    6.3460   -2.6091   -2.5332 N   0  0  0  0  0  0  0  0  0  0  0  0
    7.0846   -3.5648   -1.8186 N   0  0  0  0  0  0  0  0  0  0  0  0
    8.5455   -3.4124   -1.9476 C   0  0  1  0  0  0  0  0  0  0  0  0
    9.2297   -4.4267   -1.0158 C   0  0  0  0  0  0  0  0  0  0  0  0
    9.2109   -5.8542   -1.5774 C   0  0  0  0  0  0  0  0  0  0  0  0
    9.7484   -5.8890   -2.9318 N   0  0  0  0  0  0  0  0  0  0  0  0
   10.7631   -6.7608   -3.2261 C   0  0  0  0  0  0  0  0  0  0  0  0
   11.2730   -7.5111   -2.4119 O   0  0  0  0  0  0  0  0  0  0  0  0
   11.1257   -6.6778   -4.5275 O   0  0  0  0  0  0  0  0  0  0  0  0
   12.1900   -7.5116   -5.0849 C   0  0  1  0  0  0  0  0  0  0  0  0
   11.8126   -8.9934   -4.9768 C   0  0  0  0  0  0  0  0  0  0  0  0
   12.2337   -7.0736   -6.5509 C   0  0  0  0  0  0  0  0  0  0  0  0
   13.5220   -7.2046   -4.3910 C   0  0  0  0  0  0  0  0  0  0  0  0
    9.0950   -4.9943   -3.8870 C   0  0  0  0  0  0  0  0  0  0  0  0
    9.1135   -3.5485   -3.3763 C   0  0  0  0  0  0  0  0  0  0  0  0
    0.8179   -1.3894   -6.4105 H   0  0  0  0  0  0  0  0  0  0  0  0
    1.6439   -2.9352   -6.7068 H   0  0  0  0  0  0  0  0  0  0  0  0
    2.2114   -1.4510   -7.5059 H   0  0  0  0  0  0  0  0  0  0  0  0
    2.2313   -1.9126   -4.4440 H   0  0  0  0  0  0  0  0  0  0  0  0
    2.8812   -0.4918   -5.2690 H   0  0  0  0  0  0  0  0  0  0  0  0
    3.9350   -3.3669   -5.5211 H   0  0  0  0  0  0  0  0  0  0  0  0
    5.1591   -0.7550   -6.5982 H   0  0  0  0  0  0  0  0  0  0  0  0
    4.4567   -2.0549   -7.5953 H   0  0  0  0  0  0  0  0  0  0  0  0
    5.9123   -2.3772   -6.6283 H   0  0  0  0  0  0  0  0  0  0  0  0
    4.9022   -1.1212   -3.8605 H   0  0  0  0  0  0  0  0  0  0  0  0
    5.8250   -1.9838   -1.9229 H   0  0  0  0  0  0  0  0  0  0  0  0
    6.7778   -4.4855   -2.1382 H   0  0  0  0  0  0  0  0  0  0  0  0
    8.7686   -2.3958   -1.5820 H   0  0  0  0  0  0  0  0  0  0  0  0
    8.7388   -4.4059   -0.0299 H   0  0  0  0  0  0  0  0  0  0  0  0
   10.2797   -4.1214   -0.8740 H   0  0  0  0  0  0  0  0  0  0  0  0
    8.1767   -6.2527   -1.5835 H   0  0  0  0  0  0  0  0  0  0  0  0
    9.8128   -6.5302   -0.9586 H   0  0  0  0  0  0  0  0  0  0  0  0
   10.8350   -9.1737   -5.4511 H   0  0  0  0  0  0  0  0  0  0  0  0
   11.7606   -9.3096   -3.9276 H   0  0  0  0  0  0  0  0  0  0  0  0
   12.5634   -9.6078   -5.4982 H   0  0  0  0  0  0  0  0  0  0  0  0
   11.2635   -7.2541   -7.0384 H   0  0  0  0  0  0  0  0  0  0  0  0
   13.0077   -7.6362   -7.0949 H   0  0  0  0  0  0  0  0  0  0  0  0
   12.4642   -6.0000   -6.6282 H   0  0  0  0  0  0  0  0  0  0  0  0
   13.4907   -7.4987   -3.3346 H   0  0  0  0  0  0  0  0  0  0  0  0
   13.7460   -6.1279   -4.4539 H   0  0  0  0  0  0  0  0  0  0  0  0
   14.3370   -7.7521   -4.8902 H   0  0  0  0  0  0  0  0  0  0  0  0
    8.0484   -5.3131   -4.0406 H   0  0  0  0  0  0  0  0  0  0  0  0
    9.6064   -5.0718   -4.8514 H   0  0  0  0  0  0  0  0  0  0  0  0
    8.5504   -2.9036   -4.0690 H   0  0  0  0  0  0  0  0  0  0  0  0
   10.1553   -3.1824   -3.3707 H   0  0  0  0  0  0  0  0  0  0  0  0
  1  2  1  0
  1 23  1  0
  1 24  1  0
  1 25  1  0
  2  3  1  0
  2 26  1  0
  2 27  1  0
  3  4  1  0
  3  5  1  0
  3 28  1  6
  4 29  1  0
  4 30  1  0
  4 31  1  0
  5  6  1  0
  5 32  1  0
  6  7  2  0
  6  8  1  0
  8  9  1  0
  8 33  1  0
  9 10  1  0
  9 34  1  0
 10 11  1  0
 10 22  1  0
 10 35  1  1
 11 12  1  0
 11 36  1  0
 11 37  1  0
 12 13  1  0
 12 38  1  0
 12 39  1  0
 13 14  1  0
 13 21  1  0
 14 15  2  0
 14 16  1  0
 17 16  1  1
 17 18  1  0
 17 19  1  0
 17 20  1  0
 18 40  1  0
 18 41  1  0
 18 42  1  0
 19 43  1  0
 19 44  1  0
 19 45  1  0
 20 46  1  0
 20 47  1  0
 20 48  1  0
 21 22  1  0
 21 49  1  0
 21 50  1  0
 22 51  1  0
 22 52  1  0
M  END

