
     RDKit          3D

 54 57  0  0  0  0  0  0  0  0999 V2000
    5.3098   -2.4904   -3.3224 C   0  0  0  0  0  0  0  0  0  0  0  0
    5.2573   -1.9941   -1.9918 O   0  0  0  0  0  0  0  0  0  0  0  0
    4.0155   -1.5402   -1.7061 N   0  0  0  0  0  0  0  0  0  0  0  0
    3.8772   -1.0593   -0.5209 C   0  0  0  0  0  0  0  0  0  0  0  0
    4.9824   -1.0483    0.5362 C   0  0  0  0  0  0  0  0  0  0  0  0
    5.6890   -2.0052    0.7701 O   0  0  0  0  0  0  0  0  0  0  0  0
    5.0707    0.1549    1.2077 N   0  0  0  0  0  0  0  0  0  0  0  0
    5.7300    0.2356    2.4750 C   0  0  2  0  0  0  0  0  0  0  0  0
    6.3332   -0.6721    2.6269 H   0  0  0  0  0  0  0  0  0  0  0  0
    4.7372    0.5807    3.6187 C   0  0  0  0  0  0  0  0  0  0  0  0
    3.8352    0.0784    4.1952 O   0  0  0  0  0  0  0  0  0  0  0  0
    5.3334    1.9046    3.7569 N   0  0  0  0  0  0  0  0  0  0  0  0
    4.8597    3.0907    4.0915 C   0  0  0  0  0  0  0  0  0  0  0  0
    3.3916    3.2514    4.5717 C   0  0  0  0  0  0  0  0  0  0  0  0
    2.6377    2.9578    3.6170 O   0  0  0  0  0  0  0  0  0  0  0  0
    3.1900    3.7137    5.6884 O   0  0  0  0  0  0  0  0  0  0  0  0
    5.6836    4.2580    3.8125 C   0  0  0  0  0  0  0  0  0  0  0  0
    5.5267    5.3455    4.6057 C   0  0  0  0  0  0  0  0  0  0  0  0
    2.6915    6.2046    2.4596 N   0  0  0  0  0  0  0  0  0  0  0  0
    3.6143    5.8201    1.5351 C   0  0  0  0  0  0  0  0  0  0  0  0
    4.6916    6.5845    1.5990 N   0  0  0  0  0  0  0  0  0  0  0  0
    4.4542    7.4975    2.6013 C   0  0  0  0  0  0  0  0  0  0  0  0
    3.2063    7.2691    3.1550 C   0  0  0  0  0  0  0  0  0  0  0  0
    2.2101    7.7376    4.1767 C   0  0  0  0  0  0  0  0  0  0  0  0
    1.2371    6.5262    4.2530 C   0  0  0  0  0  0  0  0  0  0  0  0
    1.3403    5.8282    2.8757 C   0  0  0  0  0  0  0  0  0  0  0  0
    6.7459    4.2315    2.7191 C   0  0  0  0  0  0  0  0  0  0  0  0
    6.5711    2.8513    1.5211 S   0  0  0  0  0  0  0  0  0  0  0  0
    6.4413    1.5874    2.8087 C   0  0  2  0  0  0  0  0  0  0  0  0
    7.3936    1.4588    3.3460 H   0  0  0  0  0  0  0  0  0  0  0  0
    2.5223   -0.5467   -0.1590 C   0  0  0  0  0  0  0  0  0  0  0  0
    1.4303   -1.0633   -0.6682 N   0  0  0  0  0  0  0  0  0  0  0  0
    0.1166   -0.2545    0.0105 S   0  0  0  0  0  0  0  0  0  0  0  0
    1.1702    0.7642    0.9984 C   0  0  0  0  0  0  0  0  0  0  0  0
    0.7590    1.7038    1.8644 N   0  0  0  0  0  0  0  0  0  0  0  0
    2.4306    0.4738    0.7552 N   0  0  0  0  0  0  0  0  0  0  0  0
    6.3438   -2.8288   -3.4713 H   0  0  0  0  0  0  0  0  0  0  0  0
    5.0643   -1.6993   -4.0498 H   0  0  0  0  0  0  0  0  0  0  0  0
    4.6163   -3.3363   -3.4548 H   0  0  0  0  0  0  0  0  0  0  0  0
    4.2375    0.7492    1.0898 H   0  0  0  0  0  0  0  0  0  0  0  0
    6.1776    6.2142    4.4902 H   0  0  0  0  0  0  0  0  0  0  0  0
    4.7880    5.3387    5.4101 H   0  0  0  0  0  0  0  0  0  0  0  0
    3.4659    4.9762    0.8623 H   0  0  0  0  0  0  0  0  0  0  0  0
    5.1810    8.2669    2.8601 H   0  0  0  0  0  0  0  0  0  0  0  0
    1.6925    8.6509    3.8311 H   0  0  0  0  0  0  0  0  0  0  0  0
    2.6628    7.9745    5.1512 H   0  0  0  0  0  0  0  0  0  0  0  0
    0.2054    6.8209    4.4931 H   0  0  0  0  0  0  0  0  0  0  0  0
    1.5793    5.8218    5.0273 H   0  0  0  0  0  0  0  0  0  0  0  0
    0.6050    6.2170    2.1496 H   0  0  0  0  0  0  0  0  0  0  0  0
    1.2495    4.7370    2.9448 H   0  0  0  0  0  0  0  0  0  0  0  0
    7.7615    4.2165    3.1469 H   0  0  0  0  0  0  0  0  0  0  0  0
    6.6219    5.1453    2.1149 H   0  0  0  0  0  0  0  0  0  0  0  0
   -0.2194    1.7605    2.1131 H   0  0  0  0  0  0  0  0  0  0  0  0
    1.4444    2.1107    2.5176 H   0  0  0  0  0  0  0  0  0  0  0  0
  1  2  1  0
  1 37  1  0
  1 38  1  0
  1 39  1  0
  2  3  1  0
  3  4  2  0
  4  5  1  0
  4 31  1  0
  5  6  2  0
  5  7  1  0
  7  8  1  0
  7 40  1  0
  8  9  1  1
  8 10  1  0
  8 29  1  0
 10 11  2  0
 10 12  1  0
 12 13  1  0
 12 29  1  0
 13 14  2  0
 13 17  1  0
 14 15  1  0
 14 16  1  0
 17 18  2  0
 17 27  1  0
 18 41  1  0
 18 42  1  0
 19 20  1  0
 19 23  1  0
 19 26  1  0
 20 21  2  0
 20 43  1  0
 21 22  1  0
 22 23  2  0
 22 44  1  0
 23 24  1  0
 24 25  1  0
 24 45  1  0
 24 46  1  0
 25 26  1  0
 25 47  1  0
 25 48  1  0
 26 49  1  0
 26 50  1  0
 27 28  1  0
 27 51  1  0
 27 52  1  0
 28 29  1  0
 29 30  1  1
 31 32  1  0
 31 36  2  0
 32 33  2  0
 33 34  1  0
 34 35  2  0
 34 36  1  0
 35 53  1  0
 35 54  1  0
M  CHG  4  15  -1  16  -1  33   1  35   1
M  END

