
     RDKit          3D

115121  0  0  0  0  0  0  0  0999 V2000
    7.8345   -4.3469  -13.7259 C   0  0  0  0  0  0  0  0  0  0  0  0
    6.8975   -3.4668  -12.8974 C   0  0  0  0  0  0  0  0  0  0  0  0
    6.8510   -3.8518  -11.4159 C   0  0  0  0  0  0  0  0  0  0  0  0
    5.9085   -2.9662  -10.5802 C   0  0  0  0  0  0  0  0  0  0  0  0
    5.8603   -3.3476   -9.1178 C   0  0  0  0  0  0  0  0  0  0  0  0
    6.7545   -2.7908   -8.1894 C   0  0  0  0  0  0  0  0  0  0  0  0
    6.7504   -3.1775   -6.8490 C   0  0  0  0  0  0  0  0  0  0  0  0
    5.8294   -4.1322   -6.3879 C   0  0  0  0  0  0  0  0  0  0  0  0
    5.8113   -4.5178   -5.0158 N   0  0  0  0  0  0  0  0  0  0  0  0
    5.8794   -3.5081   -4.0140 C   0  0  0  0  0  0  0  0  0  0  0  0
    5.0786   -2.3566   -4.1057 C   0  0  0  0  0  0  0  0  0  0  0  0
    5.1615   -1.3594   -3.1349 C   0  0  0  0  0  0  0  0  0  0  0  0
    6.0259   -1.4739   -2.0327 C   0  0  0  0  0  0  0  0  0  0  0  0
    6.0799   -0.3940   -0.9727 C   0  0  0  0  0  0  0  0  0  0  0  0
    4.8995   -0.4068    0.0202 C   0  0  0  0  0  0  0  0  0  0  0  0
    4.8404   -1.6367    0.9306 C   0  0  0  0  0  0  0  0  0  0  0  0
    3.6611   -1.6115    1.9042 C   0  0  0  0  0  0  0  0  0  0  0  0
    6.8180   -2.6300   -1.9511 C   0  0  0  0  0  0  0  0  0  0  0  0
    6.7583   -3.6282   -2.9251 C   0  0  0  0  0  0  0  0  0  0  0  0
    5.7397   -5.8772   -4.6590 C   0  0  0  0  0  0  0  0  0  0  0  0
    5.0521   -6.2871   -3.4936 C   0  0  0  0  0  0  0  0  0  0  0  0
    4.9760   -7.6288   -3.1203 C   0  0  0  0  0  0  0  0  0  0  0  0
    5.5762   -8.6161   -3.9124 C   0  0  0  0  0  0  0  0  0  0  0  0
    6.2472   -8.1903   -5.0704 C   0  0  0  0  0  0  0  0  0  0  0  0
    6.3529   -6.8676   -5.4599 C   0  0  0  0  0  0  0  0  0  0  0  0
    6.9472   -9.5952   -5.9604 S   0  0  1  0  0  0  0  0  0  0  0  0
    6.2667   -9.7759   -7.2482 O   0  0  0  0  0  0  0  0  0  0  0  0
    8.4138   -9.5595   -5.9185 O   0  0  0  0  0  0  0  0  0  0  0  0
    6.3105  -10.7540   -4.7324 C   0  0  0  0  0  0  0  0  0  0  0  0
    6.4740  -12.1267   -4.7723 C   0  0  0  0  0  0  0  0  0  0  0  0
    5.9216  -12.9024   -3.7276 C   0  0  0  0  0  0  0  0  0  0  0  0
    6.0654  -14.3025   -3.7170 N   0  0  0  0  0  0  0  0  0  0  0  0
    7.2425  -14.9126   -4.2393 C   0  0  0  0  0  0  0  0  0  0  0  0
    8.5175  -14.4233   -3.9065 C   0  0  0  0  0  0  0  0  0  0  0  0
    9.6623  -15.0241   -4.4281 C   0  0  0  0  0  0  0  0  0  0  0  0
    9.5858  -16.1407   -5.2781 C   0  0  0  0  0  0  0  0  0  0  0  0
   10.8416  -16.7968   -5.8119 C   0  0  0  0  0  0  0  0  0  0  0  0
   11.5867  -17.6842   -4.7937 C   0  0  0  0  0  0  0  0  0  0  0  0
   10.8237  -18.9381   -4.3570 C   0  0  0  0  0  0  0  0  0  0  0  0
   11.5952  -19.7957   -3.3527 C   0  0  0  0  0  0  0  0  0  0  0  0
    8.3072  -16.6256   -5.5941 C   0  0  0  0  0  0  0  0  0  0  0  0
    7.1519  -16.0223   -5.0942 C   0  0  0  0  0  0  0  0  0  0  0  0
    5.0324  -15.1323   -3.1951 C   0  0  0  0  0  0  0  0  0  0  0  0
    3.6887  -14.9244   -3.5525 C   0  0  0  0  0  0  0  0  0  0  0  0
    2.6857  -15.7431   -3.0350 C   0  0  0  0  0  0  0  0  0  0  0  0
    2.9788  -16.8060   -2.1633 C   0  0  0  0  0  0  0  0  0  0  0  0
    1.8796  -17.7055   -1.6389 C   0  0  0  0  0  0  0  0  0  0  0  0
    1.3682  -18.7526   -2.6499 C   0  0  0  0  0  0  0  0  0  0  0  0
    2.3937  -19.8202   -3.0414 C   0  0  0  0  0  0  0  0  0  0  0  0
    1.8485  -20.8446   -4.0378 C   0  0  0  0  0  0  0  0  0  0  0  0
    4.3251  -17.0080   -1.8213 C   0  0  0  0  0  0  0  0  0  0  0  0
    5.3375  -16.1853   -2.3182 C   0  0  0  0  0  0  0  0  0  0  0  0
    5.2225  -12.2371   -2.6945 C   0  0  0  0  0  0  0  0  0  0  0  0
    5.0624  -10.8516   -2.6911 C   0  0  0  0  0  0  0  0  0  0  0  0
    5.6122  -10.0760   -3.7199 C   0  0  0  0  0  0  0  0  0  0  0  0
    4.9195   -4.6862   -7.3040 C   0  0  0  0  0  0  0  0  0  0  0  0
    4.9472   -4.3040   -8.6450 C   0  0  0  0  0  0  0  0  0  0  0  0
    7.8436   -4.0436  -14.7851 H   0  0  0  0  0  0  0  0  0  0  0  0
    7.5297   -5.4060  -13.6853 H   0  0  0  0  0  0  0  0  0  0  0  0
    8.8713   -4.2896  -13.3542 H   0  0  0  0  0  0  0  0  0  0  0  0
    5.8762   -3.5163  -13.3175 H   0  0  0  0  0  0  0  0  0  0  0  0
    7.2066   -2.4092  -12.9884 H   0  0  0  0  0  0  0  0  0  0  0  0
    7.8683   -3.8010  -10.9875 H   0  0  0  0  0  0  0  0  0  0  0  0
    6.5377   -4.9067  -11.3165 H   0  0  0  0  0  0  0  0  0  0  0  0
    4.8924   -3.0217  -11.0080 H   0  0  0  0  0  0  0  0  0  0  0  0
    6.2270   -1.9137  -10.6757 H   0  0  0  0  0  0  0  0  0  0  0  0
    7.4794   -2.0424   -8.5234 H   0  0  0  0  0  0  0  0  0  0  0  0
    7.4630   -2.7363   -6.1494 H   0  0  0  0  0  0  0  0  0  0  0  0
    4.3946   -2.2449   -4.9493 H   0  0  0  0  0  0  0  0  0  0  0  0
    4.5324   -0.4697   -3.2352 H   0  0  0  0  0  0  0  0  0  0  0  0
    6.1068    0.5919   -1.4673 H   0  0  0  0  0  0  0  0  0  0  0  0
    7.0247   -0.4825   -0.4095 H   0  0  0  0  0  0  0  0  0  0  0  0
    3.9521   -0.3229   -0.5432 H   0  0  0  0  0  0  0  0  0  0  0  0
    4.9607    0.5026    0.6451 H   0  0  0  0  0  0  0  0  0  0  0  0
    5.7863   -1.7115    1.4983 H   0  0  0  0  0  0  0  0  0  0  0  0
    4.7880   -2.5498    0.3123 H   0  0  0  0  0  0  0  0  0  0  0  0
    3.7012   -0.7277    2.5632 H   0  0  0  0  0  0  0  0  0  0  0  0
    3.6488   -2.5053    2.5482 H   0  0  0  0  0  0  0  0  0  0  0  0
    2.6986   -1.5764    1.3665 H   0  0  0  0  0  0  0  0  0  0  0  0
    7.5148   -2.7456   -1.1159 H   0  0  0  0  0  0  0  0  0  0  0  0
    7.4006   -4.5076   -2.8456 H   0  0  0  0  0  0  0  0  0  0  0  0
    4.5656   -5.5320   -2.8747 H   0  0  0  0  0  0  0  0  0  0  0  0
    4.4297   -7.9007   -2.2139 H   0  0  0  0  0  0  0  0  0  0  0  0
    6.8997   -6.5940   -6.3633 H   0  0  0  0  0  0  0  0  0  0  0  0
    7.0141  -12.6007   -5.5930 H   0  0  0  0  0  0  0  0  0  0  0  0
    8.6087  -13.5618   -3.2418 H   0  0  0  0  0  0  0  0  0  0  0  0
   10.6416  -14.6151   -4.1621 H   0  0  0  0  0  0  0  0  0  0  0  0
   11.5338  -16.0121   -6.1615 H   0  0  0  0  0  0  0  0  0  0  0  0
   10.5878  -17.4020   -6.6989 H   0  0  0  0  0  0  0  0  0  0  0  0
   11.8381  -17.0800   -3.9028 H   0  0  0  0  0  0  0  0  0  0  0  0
   12.5534  -17.9853   -5.2367 H   0  0  0  0  0  0  0  0  0  0  0  0
   10.5823  -19.5432   -5.2504 H   0  0  0  0  0  0  0  0  0  0  0  0
    9.8526  -18.6448   -3.9213 H   0  0  0  0  0  0  0  0  0  0  0  0
   12.5582  -20.1362   -3.7694 H   0  0  0  0  0  0  0  0  0  0  0  0
   11.0237  -20.6918   -3.0625 H   0  0  0  0  0  0  0  0  0  0  0  0
   11.8176  -19.2310   -2.4316 H   0  0  0  0  0  0  0  0  0  0  0  0
    8.2095  -17.4855   -6.2629 H   0  0  0  0  0  0  0  0  0  0  0  0
    6.1692  -16.4106   -5.3689 H   0  0  0  0  0  0  0  0  0  0  0  0
    3.4332  -14.1137   -4.2381 H   0  0  0  0  0  0  0  0  0  0  0  0
    1.6474  -15.5554   -3.3251 H   0  0  0  0  0  0  0  0  0  0  0  0
    1.0260  -17.0816   -1.3233 H   0  0  0  0  0  0  0  0  0  0  0  0
    2.2346  -18.2246   -0.7321 H   0  0  0  0  0  0  0  0  0  0  0  0
    1.0144  -18.2341   -3.5598 H   0  0  0  0  0  0  0  0  0  0  0  0
    0.4786  -19.2466   -2.2186 H   0  0  0  0  0  0  0  0  0  0  0  0
    2.7394  -20.3405   -2.1289 H   0  0  0  0  0  0  0  0  0  0  0  0
    3.2882  -19.3329   -3.4668 H   0  0  0  0  0  0  0  0  0  0  0  0
    0.9726  -21.3770   -3.6301 H   0  0  0  0  0  0  0  0  0  0  0  0
    2.6067  -21.6013   -4.2955 H   0  0  0  0  0  0  0  0  0  0  0  0
    1.5307  -20.3602   -4.9764 H   0  0  0  0  0  0  0  0  0  0  0  0
    4.5889  -17.8192   -1.1366 H   0  0  0  0  0  0  0  0  0  0  0  0
    6.3755  -16.3572   -2.0267 H   0  0  0  0  0  0  0  0  0  0  0  0
    4.8021  -12.8254   -1.8776 H   0  0  0  0  0  0  0  0  0  0  0  0
    4.5186  -10.3789   -1.8696 H   0  0  0  0  0  0  0  0  0  0  0  0
    4.1875   -5.4203   -6.9610 H   0  0  0  0  0  0  0  0  0  0  0  0
    4.2284   -4.7505   -9.3385 H   0  0  0  0  0  0  0  0  0  0  0  0
  1  2  1  0
  1 58  1  0
  1 59  1  0
  1 60  1  0
  2  3  1  0
  2 61  1  0
  2 62  1  0
  3  4  1  0
  3 63  1  0
  3 64  1  0
  4  5  1  0
  4 65  1  0
  4 66  1  0
  5  6  2  0
  5 57  1  0
  6  7  1  0
  6 67  1  0
  7  8  2  0
  7 68  1  0
  8  9  1  0
  8 56  1  0
  9 10  1  0
  9 20  1  0
 10 11  2  0
 10 19  1  0
 11 12  1  0
 11 69  1  0
 12 13  2  0
 12 70  1  0
 13 14  1  0
 13 18  1  0
 14 15  1  0
 14 71  1  0
 14 72  1  0
 15 16  1  0
 15 73  1  0
 15 74  1  0
 16 17  1  0
 16 75  1  0
 16 76  1  0
 17 77  1  0
 17 78  1  0
 17 79  1  0
 18 19  2  0
 18 80  1  0
 19 81  1  0
 20 21  2  0
 20 25  1  0
 21 22  1  0
 21 82  1  0
 22 23  2  0
 22 83  1  0
 23 24  1  0
 23 55  1  0
 24 25  2  0
 26 24  1  1
 25 84  1  0
 26 27  2  0
 26 28  2  0
 26 29  1  0
 29 30  1  0
 29 55  2  0
 30 31  2  0
 30 85  1  0
 31 32  1  0
 31 53  1  0
 32 33  1  0
 32 43  1  0
 33 34  2  0
 33 42  1  0
 34 35  1  0
 34 86  1  0
 35 36  2  0
 35 87  1  0
 36 37  1  0
 36 41  1  0
 37 38  1  0
 37 88  1  0
 37 89  1  0
 38 39  1  0
 38 90  1  0
 38 91  1  0
 39 40  1  0
 39 92  1  0
 39 93  1  0
 40 94  1  0
 40 95  1  0
 40 96  1  0
 41 42  2  0
 41 97  1  0
 42 98  1  0
 43 44  2  0
 43 52  1  0
 44 45  1  0
 44 99  1  0
 45 46  2  0
 45100  1  0
 46 47  1  0
 46 51  1  0
 47 48  1  0
 47101  1  0
 47102  1  0
 48 49  1  0
 48103  1  0
 48104  1  0
 49 50  1  0
 49105  1  0
 49106  1  0
 50107  1  0
 50108  1  0
 50109  1  0
 51 52  2  0
 51110  1  0
 52111  1  0
 53 54  2  0
 53112  1  0
 54 55  1  0
 54113  1  0
 56 57  2  0
 56114  1  0
 57115  1  0
M  END

