
     RDKit          3D

 38 40  0  0  0  0  0  0  0  0999 V2000
    1.2727   -0.7503    0.5585 C   0  0  0  0  0  0  0  0  0  0  0  0
    2.4969   -0.0473   -0.0599 C   0  0  1  0  0  0  0  0  0  0  0  0
    2.0392    0.7727   -1.2850 C   0  0  0  0  0  0  0  0  0  0  0  0
    3.0831    0.8402    0.9616 N   0  0  0  0  0  0  0  0  0  0  0  0
    4.5180    0.8548    1.0938 C   0  0  2  0  0  0  0  0  0  0  0  0
    4.7577    1.3635    2.0420 H   0  0  0  0  0  0  0  0  0  0  0  0
    5.2384    1.6204   -0.0317 C   0  0  0  0  0  0  0  0  0  0  0  0
    6.9932    1.1113    0.0775 S   0  0  2  0  0  0  0  0  0  0  0  0
    7.7409    2.1052    0.8589 O   0  0  0  0  0  0  0  0  0  0  0  0
    7.4695    0.6772   -1.2443 O   0  0  0  0  0  0  0  0  0  0  0  0
    6.6731   -0.3515    1.1556 C   0  0  0  0  0  0  0  0  0  0  0  0
    5.1559   -0.5579    1.1678 C   0  0  2  0  0  0  0  0  0  0  0  0
    4.8703   -1.0341    2.1257 H   0  0  0  0  0  0  0  0  0  0  0  0
    4.6706   -1.3630    0.0375 N   0  0  0  0  0  0  0  0  0  0  0  0
    5.3842   -2.5685   -0.3135 C   0  0  0  0  0  0  0  0  0  0  0  0
    6.3187   -2.5571   -1.3554 C   0  0  0  0  0  0  0  0  0  0  0  0
    7.0063   -3.7295   -1.6815 C   0  0  0  0  0  0  0  0  0  0  0  0
    6.7637   -4.9103   -0.9730 C   0  0  0  0  0  0  0  0  0  0  0  0
    5.8297   -4.9191    0.0675 C   0  0  0  0  0  0  0  0  0  0  0  0
    5.1387   -3.7502    0.3962 C   0  0  0  0  0  0  0  0  0  0  0  0
    3.4314   -1.1811   -0.5601 C   0  0  0  0  0  0  0  0  0  0  0  0
    3.0509   -1.9117   -1.4553 O   0  0  0  0  0  0  0  0  0  0  0  0
    0.5486    0.0030    0.9090 H   0  0  0  0  0  0  0  0  0  0  0  0
    1.5642   -1.3804    1.4154 H   0  0  0  0  0  0  0  0  0  0  0  0
    0.7862   -1.3911   -0.1884 H   0  0  0  0  0  0  0  0  0  0  0  0
    1.2973    1.5189   -0.9639 H   0  0  0  0  0  0  0  0  0  0  0  0
    1.5986    0.1147   -2.0459 H   0  0  0  0  0  0  0  0  0  0  0  0
    2.8790    1.3126   -1.7462 H   0  0  0  0  0  0  0  0  0  0  0  0
    2.6515    0.6843    1.8677 H   0  0  0  0  0  0  0  0  0  0  0  0
    5.1988    2.7098    0.0896 H   0  0  0  0  0  0  0  0  0  0  0  0
    4.8994    1.3351   -1.0342 H   0  0  0  0  0  0  0  0  0  0  0  0
    7.0390   -0.0641    2.1503 H   0  0  0  0  0  0  0  0  0  0  0  0
    7.2567   -1.1956    0.7700 H   0  0  0  0  0  0  0  0  0  0  0  0
    6.5176   -1.6247   -1.8869 H   0  0  0  0  0  0  0  0  0  0  0  0
    7.7365   -3.7173   -2.4943 H   0  0  0  0  0  0  0  0  0  0  0  0
    7.3025   -5.8251   -1.2322 H   0  0  0  0  0  0  0  0  0  0  0  0
    5.6326   -5.8404    0.6214 H   0  0  0  0  0  0  0  0  0  0  0  0
    4.3961   -3.7539    1.1980 H   0  0  0  0  0  0  0  0  0  0  0  0
  2  1  1  1
  1 23  1  0
  1 24  1  0
  1 25  1  0
  2  3  1  0
  2  4  1  0
  2 21  1  0
  3 26  1  0
  3 27  1  0
  3 28  1  0
  4  5  1  0
  4 29  1  0
  5  6  1  1
  5  7  1  0
  5 12  1  0
  8  7  1  6
  7 30  1  0
  7 31  1  0
  8  9  2  0
  8 10  2  0
  8 11  1  0
 11 12  1  0
 11 32  1  0
 11 33  1  0
 12 13  1  1
 12 14  1  0
 14 15  1  0
 14 21  1  0
 15 16  2  0
 15 20  1  0
 16 17  1  0
 16 34  1  0
 17 18  2  0
 17 35  1  0
 18 19  1  0
 18 36  1  0
 19 20  2  0
 19 37  1  0
 20 38  1  0
 21 22  2  0
M  END

