
     RDKit          3D

118129  0  0  0  0  0  0  0  0999 V2000
    1.3213    0.3913    2.1257 C   0  0  0  0  0  0  0  0  0  0  0  0
    1.3529   -1.0174    2.0721 O   0  0  0  0  0  0  0  0  0  0  0  0
    2.5359   -1.6499    1.8834 C   0  0  0  0  0  0  0  0  0  0  0  0
    2.4900   -3.0552    1.8329 C   0  0  0  0  0  0  0  0  0  0  0  0
    3.6486   -3.7950    1.6455 C   0  0  0  0  0  0  0  0  0  0  0  0
    4.9059   -3.1642    1.4993 C   0  0  0  0  0  0  0  0  0  0  0  0
    6.1436   -3.9301    1.2775 C   0  0  0  0  0  0  0  0  0  0  0  0
    7.3523   -3.2030    0.1974 S   0  0  0  0  0  0  0  0  0  0  0  0
    8.4253   -4.5441    0.4605 C   0  0  0  0  0  0  0  0  0  0  0  0
    9.7059   -4.9688    0.0839 C   0  0  0  0  0  0  0  0  0  0  0  0
   10.6660   -4.2879   -0.7941 C   0  0  0  0  0  0  0  0  0  0  0  0
   10.7786   -2.8790   -0.7696 C   0  0  0  0  0  0  0  0  0  0  0  0
   11.6772   -2.2111   -1.5888 C   0  0  0  0  0  0  0  0  0  0  0  0
   12.5028   -2.9282   -2.4748 C   0  0  0  0  0  0  0  0  0  0  0  0
   13.3495   -2.1912   -3.2328 O   0  0  0  0  0  0  0  0  0  0  0  0
   14.2173   -2.8424   -4.1341 C   0  0  0  0  0  0  0  0  0  0  0  0
   12.3979   -4.3263   -2.5255 C   0  0  0  0  0  0  0  0  0  0  0  0
   11.4865   -4.9871   -1.6970 C   0  0  0  0  0  0  0  0  0  0  0  0
    9.8649   -6.2229    0.7602 C   0  0  0  0  0  0  0  0  0  0  0  0
    8.7135   -6.5451    1.4780 N   0  0  0  0  0  0  0  0  0  0  0  0
    7.8362   -5.5175    1.3081 C   0  0  0  0  0  0  0  0  0  0  0  0
    6.5267   -5.1673    1.7859 C   0  0  0  0  0  0  0  0  0  0  0  0
    5.7177   -5.9622    2.7547 C   0  0  0  0  0  0  0  0  0  0  0  0
    5.6476   -5.5837    4.1005 C   0  0  0  0  0  0  0  0  0  0  0  0
    4.8797   -6.3015    5.0238 C   0  0  0  0  0  0  0  0  0  0  0  0
    4.1596   -7.4279    4.6014 C   0  0  0  0  0  0  0  0  0  0  0  0
    3.3826   -8.1933    5.4106 O   0  0  0  0  0  0  0  0  0  0  0  0
    3.2879   -7.8721    6.7789 C   0  0  0  0  0  0  0  0  0  0  0  0
    4.2256   -7.8211    3.2530 C   0  0  0  0  0  0  0  0  0  0  0  0
    4.9965   -7.1009    2.3493 C   0  0  0  0  0  0  0  0  0  0  0  0
    8.6922   -7.7350    2.4626 B   0  0  2  0  0  0  0  0  0  0  0  0
    7.5547   -8.5060    2.3449 F   0  0  0  0  0  0  0  0  0  0  0  0
    8.9132   -7.3223    3.7590 F   0  0  0  0  0  0  0  0  0  0  0  0
    9.9190   -8.6905    2.0163 N   0  0  0  0  0  0  0  0  0  0  0  0
    9.8529   -9.9895    2.2661 C   0  0  0  0  0  0  0  0  0  0  0  0
   10.8859  -10.9040    2.0401 C   0  0  0  0  0  0  0  0  0  0  0  0
   10.8470  -12.3336    2.1358 C   0  0  0  0  0  0  0  0  0  0  0  0
    9.7412  -13.1860    2.5942 C   0  0  0  0  0  0  0  0  0  0  0  0
    9.4700  -14.4059    1.9503 C   0  0  0  0  0  0  0  0  0  0  0  0
    8.4337  -15.2443    2.3672 C   0  0  0  0  0  0  0  0  0  0  0  0
    7.6340  -14.8751    3.4605 C   0  0  0  0  0  0  0  0  0  0  0  0
    6.6061  -15.6114    3.9458 O   0  0  0  0  0  0  0  0  0  0  0  0
    6.2860  -16.8422    3.3362 C   0  0  0  0  0  0  0  0  0  0  0  0
    7.8998  -13.6643    4.1252 C   0  0  0  0  0  0  0  0  0  0  0  0
    8.9346  -12.8409    3.7018 C   0  0  0  0  0  0  0  0  0  0  0  0
   12.1058  -12.7349    1.6718 C   0  0  0  0  0  0  0  0  0  0  0  0
   13.0082  -14.2006    1.4374 S   0  0  0  0  0  0  0  0  0  0  0  0
   14.4242  -13.2674    0.9161 C   0  0  0  0  0  0  0  0  0  0  0  0
   15.6365  -14.0349    0.5841 C   0  0  0  0  0  0  0  0  0  0  0  0
   15.5484  -15.2649   -0.1064 C   0  0  0  0  0  0  0  0  0  0  0  0
   16.6801  -16.0146   -0.3986 C   0  0  0  0  0  0  0  0  0  0  0  0
   17.9524  -15.5627   -0.0059 C   0  0  0  0  0  0  0  0  0  0  0  0
   18.9991  -16.3580   -0.3343 O   0  0  0  0  0  0  0  0  0  0  0  0
   20.3049  -15.9711    0.0321 C   0  0  0  0  0  0  0  0  0  0  0  0
   18.0610  -14.3463    0.6873 C   0  0  0  0  0  0  0  0  0  0  0  0
   16.9164  -13.6006    0.9740 C   0  0  0  0  0  0  0  0  0  0  0  0
   14.2230  -11.8904    0.9275 C   0  0  0  0  0  0  0  0  0  0  0  0
   15.2511  -10.9020    0.5023 C   0  0  0  0  0  0  0  0  0  0  0  0
   15.7617  -10.9195   -0.8022 C   0  0  0  0  0  0  0  0  0  0  0  0
   16.7524  -10.0227   -1.2141 C   0  0  0  0  0  0  0  0  0  0  0  0
   17.2546   -9.0782   -0.3068 C   0  0  0  0  0  0  0  0  0  0  0  0
   18.2179   -8.1652   -0.5999 O   0  0  0  0  0  0  0  0  0  0  0  0
   18.7686   -8.1374   -1.8949 C   0  0  0  0  0  0  0  0  0  0  0  0
   16.7456   -9.0451    1.0027 C   0  0  0  0  0  0  0  0  0  0  0  0
   15.7594   -9.9410    1.3976 C   0  0  0  0  0  0  0  0  0  0  0  0
   12.8829  -11.5893    1.3576 C   0  0  0  0  0  0  0  0  0  0  0  0
   12.1261  -10.4764    1.5658 N   0  0  0  0  0  0  0  0  0  0  0  0
   12.4826   -8.9741    1.5398 B   0  0  2  0  0  0  0  0  0  0  0  0
   13.1884   -8.6157    0.4121 F   0  0  0  0  0  0  0  0  0  0  0  0
   13.1214   -8.5904    2.7043 F   0  0  0  0  0  0  0  0  0  0  0  0
   11.0724   -8.1956    1.4546 N   0  0  0  0  0  0  0  0  0  0  0  0
   11.0070   -7.0243    0.8384 C   0  0  0  0  0  0  0  0  0  0  0  0
    4.9319   -1.7579    1.5486 C   0  0  0  0  0  0  0  0  0  0  0  0
    3.7724   -1.0028    1.7375 C   0  0  0  0  0  0  0  0  0  0  0  0
    0.2716    0.6751    2.2801 H   0  0  0  0  0  0  0  0  0  0  0  0
    1.6802    0.8469    1.1851 H   0  0  0  0  0  0  0  0  0  0  0  0
    1.9247    0.7848    2.9636 H   0  0  0  0  0  0  0  0  0  0  0  0
    1.5203   -3.5457    1.9380 H   0  0  0  0  0  0  0  0  0  0  0  0
    3.5807   -4.8812    1.5975 H   0  0  0  0  0  0  0  0  0  0  0  0
   10.1614   -2.3032   -0.0760 H   0  0  0  0  0  0  0  0  0  0  0  0
   11.7698   -1.1236   -1.5599 H   0  0  0  0  0  0  0  0  0  0  0  0
   14.8092   -2.0561   -4.6214 H   0  0  0  0  0  0  0  0  0  0  0  0
   13.6617   -3.4024   -4.9079 H   0  0  0  0  0  0  0  0  0  0  0  0
   14.9021   -3.5370   -3.6152 H   0  0  0  0  0  0  0  0  0  0  0  0
   13.0077   -4.9124   -3.2130 H   0  0  0  0  0  0  0  0  0  0  0  0
   11.3945   -6.0712   -1.7863 H   0  0  0  0  0  0  0  0  0  0  0  0
    6.2064   -4.7090    4.4410 H   0  0  0  0  0  0  0  0  0  0  0  0
    4.8566   -5.9745    6.0634 H   0  0  0  0  0  0  0  0  0  0  0  0
    2.6247   -8.6215    7.2322 H   0  0  0  0  0  0  0  0  0  0  0  0
    2.8532   -6.8683    6.9387 H   0  0  0  0  0  0  0  0  0  0  0  0
    4.2712   -7.9149    7.2816 H   0  0  0  0  0  0  0  0  0  0  0  0
    3.6665   -8.7062    2.9430 H   0  0  0  0  0  0  0  0  0  0  0  0
    5.0479   -7.4280    1.3085 H   0  0  0  0  0  0  0  0  0  0  0  0
    8.8899  -10.3211    2.6515 H   0  0  0  0  0  0  0  0  0  0  0  0
   10.0706  -14.7016    1.0867 H   0  0  0  0  0  0  0  0  0  0  0  0
    8.2566  -16.1760    1.8300 H   0  0  0  0  0  0  0  0  0  0  0  0
    5.4329  -17.2538    3.8920 H   0  0  0  0  0  0  0  0  0  0  0  0
    7.1261  -17.5580    3.3891 H   0  0  0  0  0  0  0  0  0  0  0  0
    5.9945  -16.7135    2.2782 H   0  0  0  0  0  0  0  0  0  0  0  0
    7.2829  -13.3989    4.9859 H   0  0  0  0  0  0  0  0  0  0  0  0
    9.1449  -11.9282    4.2630 H   0  0  0  0  0  0  0  0  0  0  0  0
   14.5712  -15.6292   -0.4326 H   0  0  0  0  0  0  0  0  0  0  0  0
   16.6087  -16.9604   -0.9393 H   0  0  0  0  0  0  0  0  0  0  0  0
   20.9785  -16.7572   -0.3348 H   0  0  0  0  0  0  0  0  0  0  0  0
   20.4169  -15.8874    1.1281 H   0  0  0  0  0  0  0  0  0  0  0  0
   20.5934  -15.0091   -0.4285 H   0  0  0  0  0  0  0  0  0  0  0  0
   19.0302  -13.9717    1.0168 H   0  0  0  0  0  0  0  0  0  0  0  0
   17.0224  -12.6664    1.5262 H   0  0  0  0  0  0  0  0  0  0  0  0
   15.3778  -11.6505   -1.5175 H   0  0  0  0  0  0  0  0  0  0  0  0
   17.1186  -10.0700   -2.2399 H   0  0  0  0  0  0  0  0  0  0  0  0
   19.5160   -7.3323   -1.9018 H   0  0  0  0  0  0  0  0  0  0  0  0
   18.0050   -7.9215   -2.6648 H   0  0  0  0  0  0  0  0  0  0  0  0
   19.2681   -9.0893   -2.1533 H   0  0  0  0  0  0  0  0  0  0  0  0
   17.1377   -8.2964    1.6938 H   0  0  0  0  0  0  0  0  0  0  0  0
   15.3666   -9.8850    2.4145 H   0  0  0  0  0  0  0  0  0  0  0  0
   11.9403   -6.7064    0.3757 H   0  0  0  0  0  0  0  0  0  0  0  0
    5.8865   -1.2347    1.4554 H   0  0  0  0  0  0  0  0  0  0  0  0
    3.8484    0.0839    1.7763 H   0  0  0  0  0  0  0  0  0  0  0  0
  1  2  1  0
  1 75  1  0
  1 76  1  0
  1 77  1  0
  2  3  1  0
  3  4  2  0
  3 74  1  0
  4  5  1  0
  4 78  1  0
  5  6  2  0
  5 79  1  0
  6  7  1  0
  6 73  1  0
  7  8  2  0
  7 22  1  0
  8  9  1  0
  9 10  2  0
  9 21  1  0
 10 11  1  0
 10 19  1  0
 11 12  2  0
 11 18  1  0
 12 13  1  0
 12 80  1  0
 13 14  2  0
 13 81  1  0
 14 15  1  0
 14 17  1  0
 15 16  1  0
 16 82  1  0
 16 83  1  0
 16 84  1  0
 17 18  2  0
 17 85  1  0
 18 86  1  0
 19 20  1  0
 19 72  2  0
 20 21  1  0
 20 31  1  0
 21 22  2  0
 22 23  1  0
 23 24  2  0
 23 30  1  0
 24 25  1  0
 24 87  1  0
 25 26  2  0
 25 88  1  0
 26 27  1  0
 26 29  1  0
 27 28  1  0
 28 89  1  0
 28 90  1  0
 28 91  1  0
 29 30  2  0
 29 92  1  0
 30 93  1  0
 31 32  1  1
 31 33  1  0
 31 34  1  0
 34 35  1  0
 34 71  1  0
 35 36  2  0
 35 94  1  0
 36 37  1  0
 36 67  1  0
 37 38  1  0
 37 46  2  0
 38 39  2  0
 38 45  1  0
 39 40  1  0
 39 95  1  0
 40 41  2  0
 40 96  1  0
 41 42  1  0
 41 44  1  0
 42 43  1  0
 43 97  1  0
 43 98  1  0
 43 99  1  0
 44 45  2  0
 44100  1  0
 45101  1  0
 46 47  1  0
 46 66  1  0
 47 48  2  0
 48 49  1  0
 48 57  1  0
 49 50  2  0
 49 56  1  0
 50 51  1  0
 50102  1  0
 51 52  2  0
 51103  1  0
 52 53  1  0
 52 55  1  0
 53 54  1  0
 54104  1  0
 54105  1  0
 54106  1  0
 55 56  2  0
 55107  1  0
 56108  1  0
 57 58  1  0
 57 66  2  0
 58 59  2  0
 58 65  1  0
 59 60  1  0
 59109  1  0
 60 61  2  0
 60110  1  0
 61 62  1  0
 61 64  1  0
 62 63  1  0
 63111  1  0
 63112  1  0
 63113  1  0
 64 65  2  0
 64114  1  0
 65115  1  0
 66 67  1  0
 67 68  1  0
 68 69  1  6
 68 70  1  0
 68 71  1  0
 71 72  1  0
 72116  1  0
 73 74  2  0
 73117  1  0
 74118  1  0
M  CHG  4   8   1  31  -1  47   1  68  -1
M  END

