
     RDKit          3D

 39 39  0  0  0  0  0  0  0  0999 V2000
    2.0827    0.2749   -3.6605 C   0  0  0  0  0  0  0  0  0  0  0  0
    2.0277   -0.2023   -2.2094 C   0  0  0  0  0  0  0  0  0  0  0  0
    3.0395    0.4867   -1.2747 C   0  0  1  0  0  0  0  0  0  0  0  0
    2.8887    0.0213    0.1780 C   0  0  0  0  0  0  0  0  0  0  0  0
    4.4290    0.3544   -1.7540 N   0  0  0  0  0  0  0  0  0  0  0  0
    5.0622   -0.9618   -1.6859 C   0  0  0  0  0  0  0  0  0  0  0  0
    6.3462   -1.0429   -2.5274 C   0  0  2  0  0  0  0  0  0  0  0  0
    7.0756   -2.3834   -2.3686 C   0  0  0  0  0  0  0  0  0  0  0  0
    6.3794   -3.5572   -3.0560 C   0  0  0  0  0  0  0  0  0  0  0  0
    7.1052   -4.8822   -2.8458 C   0  0  0  0  0  0  0  0  0  0  0  0
    8.0566   -5.0307   -2.1311 O   0  0  0  0  0  0  0  0  0  0  0  0
    6.5884   -5.9339   -3.5253 O   0  0  0  0  0  0  0  0  0  0  0  0
    7.2186    0.1023   -2.2609 N   0  0  0  0  0  0  0  0  0  0  0  0
    7.7949    0.1760   -0.9259 C   0  0  0  0  0  0  0  0  0  0  0  0
    6.5321    1.3184   -2.6562 C   0  0  0  0  0  0  0  0  0  0  0  0
    5.0897    1.4918   -2.1604 C   0  0  0  0  0  0  0  0  0  0  0  0
    4.5646    2.5946   -2.1947 O   0  0  0  0  0  0  0  0  0  0  0  0
    1.2980   -0.2046   -4.2669 H   0  0  0  0  0  0  0  0  0  0  0  0
    3.0536    0.0403   -4.1255 H   0  0  0  0  0  0  0  0  0  0  0  0
    1.9468    1.3659   -3.7271 H   0  0  0  0  0  0  0  0  0  0  0  0
    2.1573   -1.3000   -2.1660 H   0  0  0  0  0  0  0  0  0  0  0  0
    1.0223   -0.0130   -1.7952 H   0  0  0  0  0  0  0  0  0  0  0  0
    2.8504    1.5685   -1.3141 H   0  0  0  0  0  0  0  0  0  0  0  0
    3.0235   -1.0676    0.2871 H   0  0  0  0  0  0  0  0  0  0  0  0
    1.8798    0.2628    0.5471 H   0  0  0  0  0  0  0  0  0  0  0  0
    3.6165    0.5258    0.8323 H   0  0  0  0  0  0  0  0  0  0  0  0
    4.3376   -1.7171   -2.0336 H   0  0  0  0  0  0  0  0  0  0  0  0
    5.2996   -1.2215   -0.6368 H   0  0  0  0  0  0  0  0  0  0  0  0
    6.0536   -0.9467   -3.5902 H   0  0  0  0  0  0  0  0  0  0  0  0
    7.2179   -2.6353   -1.3062 H   0  0  0  0  0  0  0  0  0  0  0  0
    8.0847   -2.2672   -2.7931 H   0  0  0  0  0  0  0  0  0  0  0  0
    6.2867   -3.3764   -4.1429 H   0  0  0  0  0  0  0  0  0  0  0  0
    5.3464   -3.6902   -2.6848 H   0  0  0  0  0  0  0  0  0  0  0  0
    5.8337   -5.6562   -4.0637 H   0  0  0  0  0  0  0  0  0  0  0  0
    8.3599   -0.7393   -0.6980 H   0  0  0  0  0  0  0  0  0  0  0  0
    7.0584    0.3359   -0.1078 H   0  0  0  0  0  0  0  0  0  0  0  0
    8.5075    1.0146   -0.8896 H   0  0  0  0  0  0  0  0  0  0  0  0
    6.4822    1.3791   -3.7598 H   0  0  0  0  0  0  0  0  0  0  0  0
    7.0889    2.2067   -2.3253 H   0  0  0  0  0  0  0  0  0  0  0  0
  1  2  1  0
  1 18  1  0
  1 19  1  0
  1 20  1  0
  2  3  1  0
  2 21  1  0
  2 22  1  0
  3  4  1  0
  3  5  1  0
  3 23  1  1
  4 24  1  0
  4 25  1  0
  4 26  1  0
  5  6  1  0
  5 16  1  0
  6  7  1  0
  6 27  1  0
  6 28  1  0
  7  8  1  0
  7 13  1  0
  7 29  1  6
  8  9  1  0
  8 30  1  0
  8 31  1  0
  9 10  1  0
  9 32  1  0
  9 33  1  0
 10 11  2  0
 10 12  1  0
 12 34  1  0
 13 14  1  0
 13 15  1  0
 14 35  1  0
 14 36  1  0
 14 37  1  0
 15 16  1  0
 15 38  1  0
 15 39  1  0
 16 17  2  0
M  END

