
     RDKit          3D

 45 47  0  0  0  0  0  0  0  0999 V2000
    1.1452   -0.2389    1.1992 C   0  0  0  0  0  0  0  0  0  0  0  0
    2.4556   -0.0152    0.5176 C   0  0  0  0  0  0  0  0  0  0  0  0
    3.0616    1.1155    0.0346 C   0  0  0  0  0  0  0  0  0  0  0  0
    2.8186    2.4898    0.0522 N   0  0  0  0  0  0  0  0  0  0  0  0
    1.7124    3.2119    0.3712 C   0  0  0  0  0  0  0  0  0  0  0  0
    0.6806    2.7574    0.8378 O   0  0  0  0  0  0  0  0  0  0  0  0
    1.7867    4.7357    0.1265 C   0  0  1  0  0  0  0  0  0  0  0  0
    1.6086    5.5077    1.4365 C   0  0  0  0  0  0  0  0  0  0  0  0
    3.3192    5.3468   -0.7225 S   0  0  0  0  0  0  0  0  0  0  0  0
    2.9447    4.8694   -2.3754 C   0  0  0  0  0  0  0  0  0  0  0  0
    1.7595    4.8648   -2.9587 N   0  0  0  0  0  0  0  0  0  0  0  0
    1.9710    4.4495   -4.2253 N   0  0  0  0  0  0  0  0  0  0  0  0
    3.2185    4.2162   -4.4362 N   0  0  0  0  0  0  0  0  0  0  0  0
    3.8675    4.4652   -3.2801 N   0  0  0  0  0  0  0  0  0  0  0  0
    5.2912    4.2078   -3.1326 C   0  0  0  0  0  0  0  0  0  0  0  0
    4.3193    0.7317   -0.6028 C   0  0  0  0  0  0  0  0  0  0  0  0
    5.1688    1.4674   -1.0965 O   0  0  0  0  0  0  0  0  0  0  0  0
    4.3916   -0.6526   -0.4640 N   0  0  0  0  0  0  0  0  0  0  0  0
    5.5851   -1.4171   -0.5272 C   0  0  0  0  0  0  0  0  0  0  0  0
    6.4679   -1.2226   -1.6007 C   0  0  0  0  0  0  0  0  0  0  0  0
    7.6537   -1.9568   -1.6579 C   0  0  0  0  0  0  0  0  0  0  0  0
    7.9618   -2.8945   -0.6671 C   0  0  0  0  0  0  0  0  0  0  0  0
    7.0777   -3.0851    0.3987 C   0  0  0  0  0  0  0  0  0  0  0  0
    5.8967   -2.3441    0.4802 C   0  0  0  0  0  0  0  0  0  0  0  0
    3.2848   -1.1175    0.2598 N   0  0  0  0  0  0  0  0  0  0  0  0
    2.6863   -2.3453   -0.2695 C   0  0  0  0  0  0  0  0  0  0  0  0
    0.6883    0.7269    1.4390 H   0  0  0  0  0  0  0  0  0  0  0  0
    1.2816   -0.8340    2.1167 H   0  0  0  0  0  0  0  0  0  0  0  0
    0.4439   -0.7866    0.5466 H   0  0  0  0  0  0  0  0  0  0  0  0
    3.6190    3.0167   -0.3025 H   0  0  0  0  0  0  0  0  0  0  0  0
    0.9598    4.9644   -0.5615 H   0  0  0  0  0  0  0  0  0  0  0  0
    2.4652    5.3603    2.1139 H   0  0  0  0  0  0  0  0  0  0  0  0
    0.7053    5.1332    1.9387 H   0  0  0  0  0  0  0  0  0  0  0  0
    1.4916    6.5839    1.2456 H   0  0  0  0  0  0  0  0  0  0  0  0
    5.6772    3.9685   -4.1307 H   0  0  0  0  0  0  0  0  0  0  0  0
    5.4513    3.3556   -2.4541 H   0  0  0  0  0  0  0  0  0  0  0  0
    5.8034    5.1006   -2.7465 H   0  0  0  0  0  0  0  0  0  0  0  0
    6.2249   -0.4911   -2.3701 H   0  0  0  0  0  0  0  0  0  0  0  0
    8.3400   -1.7982   -2.4934 H   0  0  0  0  0  0  0  0  0  0  0  0
    8.8875   -3.4719   -0.7240 H   0  0  0  0  0  0  0  0  0  0  0  0
    7.3126   -3.8074    1.1846 H   0  0  0  0  0  0  0  0  0  0  0  0
    5.2202   -2.4666    1.3274 H   0  0  0  0  0  0  0  0  0  0  0  0
    2.2381   -2.1873   -1.2676 H   0  0  0  0  0  0  0  0  0  0  0  0
    1.9136   -2.6904    0.4282 H   0  0  0  0  0  0  0  0  0  0  0  0
    3.4547   -3.1253   -0.3402 H   0  0  0  0  0  0  0  0  0  0  0  0
  1  2  1  0
  1 27  1  0
  1 28  1  0
  1 29  1  0
  2  3  2  0
  2 25  1  0
  3  4  1  0
  3 16  1  0
  4  5  1  0
  4 30  1  0
  5  6  2  0
  5  7  1  0
  7  8  1  0
  7  9  1  0
  7 31  1  6
  8 32  1  0
  8 33  1  0
  8 34  1  0
  9 10  1  0
 10 11  2  0
 10 14  1  0
 11 12  1  0
 12 13  2  0
 13 14  1  0
 14 15  1  0
 15 35  1  0
 15 36  1  0
 15 37  1  0
 16 17  2  0
 16 18  1  0
 18 19  1  0
 18 25  1  0
 19 20  2  0
 19 24  1  0
 20 21  1  0
 20 38  1  0
 21 22  2  0
 21 39  1  0
 22 23  1  0
 22 40  1  0
 23 24  2  0
 23 41  1  0
 24 42  1  0
 25 26  1  0
 26 43  1  0
 26 44  1  0
 26 45  1  0
M  END

