
     RDKit          3D

 37 38  0  0  0  0  0  0  0  0999 V2000
    1.0465   -2.3799    3.2032 C   0  0  0  0  0  0  0  0  0  0  0  0
    2.1854   -3.2401    2.7510 C   0  0  0  0  0  0  0  0  0  0  0  0
    2.7010   -4.1224    3.5754 N   0  0  0  0  0  0  0  0  0  0  0  0
    3.7160   -4.7499    2.8795 O   0  0  0  0  0  0  0  0  0  0  0  0
    3.8042   -4.2358    1.6369 C   0  0  0  0  0  0  0  0  0  0  0  0
    4.8754   -4.7808    0.7554 C   0  0  0  0  0  0  0  0  0  0  0  0
    2.8498   -3.2629    1.4745 C   0  0  0  0  0  0  0  0  0  0  0  0
    2.6181   -2.4059    0.2642 C   0  0  0  0  0  0  0  0  0  0  0  0
    1.1860   -2.3958   -0.3143 C   0  0  1  0  0  0  0  0  0  0  0  0
    1.1199   -1.6215   -1.6357 C   0  0  0  0  0  0  0  0  0  0  0  0
    0.5668   -3.7404   -0.3913 N   0  0  0  0  0  0  0  0  0  0  0  0
    1.1268   -4.9538   -1.4201 S   0  0  1  0  0  0  0  0  0  0  0  0
    0.0932   -5.2406   -2.4147 O   0  0  0  0  0  0  0  0  0  0  0  0
    2.5003   -4.6188   -1.8309 O   0  0  0  0  0  0  0  0  0  0  0  0
    1.2226   -6.3825   -0.2924 C   0  0  0  0  0  0  0  0  0  0  0  0
    1.5860   -7.6280   -1.0327 C   0  0  0  0  0  0  0  0  0  0  0  0
    2.7150   -7.8834   -1.8728 C   0  0  0  0  0  0  0  0  0  0  0  0
    2.5237   -9.1776   -2.2520 C   0  0  0  0  0  0  0  0  0  0  0  0
    1.4007   -9.6604   -1.6992 O   0  0  0  0  0  0  0  0  0  0  0  0
    0.8076   -8.6835   -0.9358 N   0  0  0  0  0  0  0  0  0  0  0  0
    0.8810   -2.5189    4.2804 H   0  0  0  0  0  0  0  0  0  0  0  0
    0.1157   -2.6440    2.6753 H   0  0  0  0  0  0  0  0  0  0  0  0
    1.2488   -1.3135    3.0127 H   0  0  0  0  0  0  0  0  0  0  0  0
    5.0505   -5.8427    0.9846 H   0  0  0  0  0  0  0  0  0  0  0  0
    5.8297   -4.2487    0.9088 H   0  0  0  0  0  0  0  0  0  0  0  0
    4.5869   -4.6869   -0.3006 H   0  0  0  0  0  0  0  0  0  0  0  0
    3.3191   -2.7058   -0.5261 H   0  0  0  0  0  0  0  0  0  0  0  0
    2.8566   -1.3536    0.5023 H   0  0  0  0  0  0  0  0  0  0  0  0
    0.5420   -1.8800    0.4172 H   0  0  0  0  0  0  0  0  0  0  0  0
    1.7277   -2.1174   -2.4071 H   0  0  0  0  0  0  0  0  0  0  0  0
    1.4988   -0.5955   -1.5033 H   0  0  0  0  0  0  0  0  0  0  0  0
    0.0837   -1.5543   -2.0030 H   0  0  0  0  0  0  0  0  0  0  0  0
   -0.4455   -3.6960   -0.5074 H   0  0  0  0  0  0  0  0  0  0  0  0
    0.2332   -6.4928    0.1703 H   0  0  0  0  0  0  0  0  0  0  0  0
    1.9601   -6.1059    0.4746 H   0  0  0  0  0  0  0  0  0  0  0  0
    3.5073   -7.1964   -2.1543 H   0  0  0  0  0  0  0  0  0  0  0  0
    3.0774   -9.8639   -2.8899 H   0  0  0  0  0  0  0  0  0  0  0  0
  1  2  1  0
  1 21  1  0
  1 22  1  0
  1 23  1  0
  2  3  2  0
  2  7  1  0
  3  4  1  0
  4  5  1  0
  5  6  1  0
  5  7  2  0
  6 24  1  0
  6 25  1  0
  6 26  1  0
  7  8  1  0
  8  9  1  0
  8 27  1  0
  8 28  1  0
  9 10  1  0
  9 11  1  0
  9 29  1  1
 10 30  1  0
 10 31  1  0
 10 32  1  0
 12 11  1  1
 11 33  1  0
 12 13  2  0
 12 14  2  0
 12 15  1  0
 15 16  1  0
 15 34  1  0
 15 35  1  0
 16 17  1  0
 16 20  2  0
 17 18  2  0
 17 36  1  0
 18 19  1  0
 18 37  1  0
 19 20  1  0
M  END

