
     RDKit          3D

 36 38  0  0  0  0  0  0  0  0999 V2000
    0.7500    0.0306    0.2448 C   0  0  0  0  0  0  0  0  0  0  0  0
    2.2742   -0.0335    0.0260 C   0  0  1  0  0  0  0  0  0  0  0  0
    2.9419    1.1555    0.7621 C   0  0  0  0  0  0  0  0  0  0  0  0
    4.4440    0.9871    1.0063 C   0  0  0  0  0  0  0  0  0  0  0  0
    4.7165   -0.2362    1.8938 C   0  0  0  0  0  0  0  0  0  0  0  0
    3.9777   -1.4255    1.3513 C   0  0  0  0  0  0  0  0  0  0  0  0
    2.9111   -1.3239    0.4817 C   0  0  0  0  0  0  0  0  0  0  0  0
    2.5167   -2.6023    0.0742 N   0  0  0  0  0  0  0  0  0  0  0  0
    1.5283   -2.9414   -0.9276 C   0  0  0  0  0  0  0  0  0  0  0  0
    3.3135   -3.5306    0.7136 C   0  0  0  0  0  0  0  0  0  0  0  0
    3.3158   -4.9324    0.6376 C   0  0  0  0  0  0  0  0  0  0  0  0
    4.2616   -5.6242    1.3843 C   0  0  0  0  0  0  0  0  0  0  0  0
    5.1910   -4.9515    2.2143 C   0  0  0  0  0  0  0  0  0  0  0  0
    6.1687   -5.8043    2.9728 C   0  0  0  0  0  0  0  0  0  0  0  0
    6.8244   -5.1965    4.0168 N   0  0  0  0  0  0  0  0  0  0  0  0
    6.3848   -6.9687    2.6762 O   0  0  0  0  0  0  0  0  0  0  0  0
    5.1883   -3.5532    2.2762 C   0  0  0  0  0  0  0  0  0  0  0  0
    4.2475   -2.8272    1.5290 C   0  0  0  0  0  0  0  0  0  0  0  0
    0.3717    1.0278   -0.0326 H   0  0  0  0  0  0  0  0  0  0  0  0
    0.5038   -0.1400    1.3054 H   0  0  0  0  0  0  0  0  0  0  0  0
    0.1948   -0.7064   -0.3516 H   0  0  0  0  0  0  0  0  0  0  0  0
    2.4655    0.0844   -1.0599 H   0  0  0  0  0  0  0  0  0  0  0  0
    2.4422    1.2811    1.7402 H   0  0  0  0  0  0  0  0  0  0  0  0
    2.7406    2.0791    0.1947 H   0  0  0  0  0  0  0  0  0  0  0  0
    4.8513    1.8996    1.4718 H   0  0  0  0  0  0  0  0  0  0  0  0
    4.9670    0.8622    0.0413 H   0  0  0  0  0  0  0  0  0  0  0  0
    4.4103   -0.0160    2.9349 H   0  0  0  0  0  0  0  0  0  0  0  0
    5.7989   -0.4476    1.9370 H   0  0  0  0  0  0  0  0  0  0  0  0
    1.4191   -2.1208   -1.6487 H   0  0  0  0  0  0  0  0  0  0  0  0
    0.5383   -3.1587   -0.4897 H   0  0  0  0  0  0  0  0  0  0  0  0
    1.8597   -3.8294   -1.4856 H   0  0  0  0  0  0  0  0  0  0  0  0
    2.5997   -5.4743    0.0161 H   0  0  0  0  0  0  0  0  0  0  0  0
    4.3122   -6.7137    1.3509 H   0  0  0  0  0  0  0  0  0  0  0  0
    6.4473   -4.3669    4.4549 H   0  0  0  0  0  0  0  0  0  0  0  0
    7.4076   -5.7998    4.5853 H   0  0  0  0  0  0  0  0  0  0  0  0
    5.9300   -3.0180    2.8744 H   0  0  0  0  0  0  0  0  0  0  0  0
  1  2  1  0
  1 19  1  0
  1 20  1  0
  1 21  1  0
  2  3  1  0
  2  7  1  0
  2 22  1  6
  3  4  1  0
  3 23  1  0
  3 24  1  0
  4  5  1  0
  4 25  1  0
  4 26  1  0
  5  6  1  0
  5 27  1  0
  5 28  1  0
  6  7  2  0
  6 18  1  0
  7  8  1  0
  8  9  1  0
  8 10  1  0
  9 29  1  0
  9 30  1  0
  9 31  1  0
 10 11  1  0
 10 18  2  0
 11 12  2  0
 11 32  1  0
 12 13  1  0
 12 33  1  0
 13 14  1  0
 13 17  2  0
 14 15  1  0
 14 16  2  0
 15 34  1  0
 15 35  1  0
 17 18  1  0
 17 36  1  0
M  END

