
     RDKit          3D

 65 67  0  0  0  0  0  0  0  0999 V2000
    3.0618    0.7257   -4.5585 C   0  0  0  0  0  0  0  0  0  0  0  0
    2.4785    0.1576   -3.2638 C   0  0  0  0  0  0  0  0  0  0  0  0
    3.2784    0.4632   -1.9797 C   0  0  2  0  0  0  0  0  0  0  0  0
    2.7668   -0.0518   -1.1528 H   0  0  0  0  0  0  0  0  0  0  0  0
    3.3833    1.9522   -1.6450 C   0  0  0  0  0  0  0  0  0  0  0  0
    4.6210   -0.1254   -2.0218 N   0  0  0  0  0  0  0  0  0  0  0  0
    4.8809   -1.3998   -1.6352 C   0  0  0  0  0  0  0  0  0  0  0  0
    4.0370   -2.1365   -1.1464 O   0  0  0  0  0  0  0  0  0  0  0  0
    6.3493   -1.8554   -1.8519 C   0  0  1  0  0  0  0  0  0  0  0  0
    6.9776   -1.0187   -1.5159 H   0  0  0  0  0  0  0  0  0  0  0  0
    6.7240   -3.0719   -0.9752 C   0  0  0  0  0  0  0  0  0  0  0  0
    6.8157   -2.7573    0.5066 C   0  0  0  0  0  0  0  0  0  0  0  0
    5.7351   -2.9952    1.3715 C   0  0  0  0  0  0  0  0  0  0  0  0
    5.8351   -2.7063    2.7353 C   0  0  0  0  0  0  0  0  0  0  0  0
    7.0151   -2.1697    3.2586 C   0  0  0  0  0  0  0  0  0  0  0  0
    8.0965   -1.9240    2.4075 C   0  0  0  0  0  0  0  0  0  0  0  0
    7.9961   -2.2174    1.0448 C   0  0  0  0  0  0  0  0  0  0  0  0
    6.6869   -2.0232   -3.2835 N   0  0  0  0  0  0  0  0  0  0  0  0
    7.8208   -1.2349   -3.8012 C   0  0  0  0  0  0  0  0  0  0  0  0
    9.1950   -1.7895   -3.4688 C   0  0  0  0  0  0  0  0  0  0  0  0
    9.6558   -2.9459   -4.1264 C   0  0  0  0  0  0  0  0  0  0  0  0
   10.9098   -3.4953   -3.8686 C   0  0  0  0  0  0  0  0  0  0  0  0
   11.7447   -2.8768   -2.9327 C   0  0  0  0  0  0  0  0  0  0  0  0
   13.3218   -3.5437   -2.5968 Cl  0  0  0  0  0  0  0  0  0  0  0  0
   11.3330   -1.7241   -2.2636 C   0  0  0  0  0  0  0  0  0  0  0  0
   10.0662   -1.1985   -2.5380 C   0  0  0  0  0  0  0  0  0  0  0  0
    9.6052    0.2576   -1.6598 Cl  0  0  0  0  0  0  0  0  0  0  0  0
    6.1377   -2.9402   -4.1508 C   0  0  0  0  0  0  0  0  0  0  0  0
    6.6261   -3.1346   -5.2595 O   0  0  0  0  0  0  0  0  0  0  0  0
    4.8514   -3.6912   -3.7694 C   0  0  0  0  0  0  0  0  0  0  0  0
    3.7279   -3.0893   -4.3977 O   0  0  0  0  0  0  0  0  0  0  0  0
    3.2235   -3.5829   -5.5707 C   0  0  0  0  0  0  0  0  0  0  0  0
    1.8548   -3.3625   -5.7922 C   0  0  0  0  0  0  0  0  0  0  0  0
    1.2479   -3.8132   -6.9629 C   0  0  0  0  0  0  0  0  0  0  0  0
    2.0091   -4.4982   -7.9160 C   0  0  0  0  0  0  0  0  0  0  0  0
    1.2482   -5.0748   -9.3853 Cl  0  0  0  0  0  0  0  0  0  0  0  0
    3.3709   -4.7187   -7.7046 C   0  0  0  0  0  0  0  0  0  0  0  0
    3.9847   -4.2559   -6.5364 C   0  0  0  0  0  0  0  0  0  0  0  0
    2.4533    0.4218   -5.4241 H   0  0  0  0  0  0  0  0  0  0  0  0
    4.0809    0.3462   -4.7382 H   0  0  0  0  0  0  0  0  0  0  0  0
    3.1020    1.8273   -4.5569 H   0  0  0  0  0  0  0  0  0  0  0  0
    2.4043   -0.9379   -3.3505 H   0  0  0  0  0  0  0  0  0  0  0  0
    1.4506    0.5340   -3.1172 H   0  0  0  0  0  0  0  0  0  0  0  0
    3.8785    2.1018   -0.6732 H   0  0  0  0  0  0  0  0  0  0  0  0
    2.3814    2.4054   -1.5926 H   0  0  0  0  0  0  0  0  0  0  0  0
    3.9559    2.5069   -2.4073 H   0  0  0  0  0  0  0  0  0  0  0  0
    5.3622    0.4094   -2.4600 H   0  0  0  0  0  0  0  0  0  0  0  0
    7.7003   -3.4346   -1.3312 H   0  0  0  0  0  0  0  0  0  0  0  0
    5.9945   -3.8784   -1.1350 H   0  0  0  0  0  0  0  0  0  0  0  0
    4.8052   -3.3941    0.9621 H   0  0  0  0  0  0  0  0  0  0  0  0
    4.9838   -2.9016    3.3928 H   0  0  0  0  0  0  0  0  0  0  0  0
    7.0927   -1.9455    4.3257 H   0  0  0  0  0  0  0  0  0  0  0  0
    9.0255   -1.5080    2.8061 H   0  0  0  0  0  0  0  0  0  0  0  0
    8.8510   -2.0255    0.3905 H   0  0  0  0  0  0  0  0  0  0  0  0
    7.7333   -0.2116   -3.4147 H   0  0  0  0  0  0  0  0  0  0  0  0
    7.7080   -1.2040   -4.8918 H   0  0  0  0  0  0  0  0  0  0  0  0
    8.9970   -3.4124   -4.8621 H   0  0  0  0  0  0  0  0  0  0  0  0
   11.2461   -4.3918   -4.3913 H   0  0  0  0  0  0  0  0  0  0  0  0
   11.9857   -1.2392   -1.5383 H   0  0  0  0  0  0  0  0  0  0  0  0
    4.6321   -3.6762   -2.6972 H   0  0  0  0  0  0  0  0  0  0  0  0
    4.9787   -4.7338   -4.1011 H   0  0  0  0  0  0  0  0  0  0  0  0
    1.2745   -2.8424   -5.0276 H   0  0  0  0  0  0  0  0  0  0  0  0
    0.1833   -3.6460   -7.1351 H   0  0  0  0  0  0  0  0  0  0  0  0
    3.9596   -5.2394   -8.4619 H   0  0  0  0  0  0  0  0  0  0  0  0
    5.0597   -4.3732   -6.3980 H   0  0  0  0  0  0  0  0  0  0  0  0
  1  2  1  0
  1 39  1  0
  1 40  1  0
  1 41  1  0
  2  3  1  0
  2 42  1  0
  2 43  1  0
  3  4  1  1
  3  5  1  0
  3  6  1  0
  5 44  1  0
  5 45  1  0
  5 46  1  0
  6  7  1  0
  6 47  1  0
  7  8  2  0
  7  9  1  0
  9 10  1  1
  9 11  1  0
  9 18  1  0
 11 12  1  0
 11 48  1  0
 11 49  1  0
 12 13  2  0
 12 17  1  0
 13 14  1  0
 13 50  1  0
 14 15  2  0
 14 51  1  0
 15 16  1  0
 15 52  1  0
 16 17  2  0
 16 53  1  0
 17 54  1  0
 18 19  1  0
 18 28  1  0
 19 20  1  0
 19 55  1  0
 19 56  1  0
 20 21  2  0
 20 26  1  0
 21 22  1  0
 21 57  1  0
 22 23  2  0
 22 58  1  0
 23 24  1  0
 23 25  1  0
 25 26  2  0
 25 59  1  0
 26 27  1  0
 28 29  2  0
 28 30  1  0
 30 31  1  0
 30 60  1  0
 30 61  1  0
 31 32  1  0
 32 33  2  0
 32 38  1  0
 33 34  1  0
 33 62  1  0
 34 35  2  0
 34 63  1  0
 35 36  1  0
 35 37  1  0
 37 38  2  0
 37 64  1  0
 38 65  1  0
M  END

