
     RDKit          3D

 48 50  0  0  0  0  0  0  0  0999 V2000
    4.0633   -1.8693    1.8687 C   0  0  0  0  0  0  0  0  0  0  0  0
    2.9990   -0.9688    1.2261 C   0  0  1  0  0  0  0  0  0  0  0  0
    1.6014   -1.2896    1.7732 C   0  0  0  0  0  0  0  0  0  0  0  0
    3.3023    0.5303    1.4060 C   0  0  0  0  0  0  0  0  0  0  0  0
    4.6369    1.0304    0.8034 C   0  0  1  0  0  0  0  0  0  0  0  0
    5.4634    0.4445    1.2301 H   0  0  0  0  0  0  0  0  0  0  0  0
    4.6928    0.7832   -0.6281 N   0  0  0  0  0  0  0  0  0  0  0  0
    5.6115   -0.0421   -1.2001 C   0  0  0  0  0  0  0  0  0  0  0  0
    6.4967   -0.6194   -0.5885 O   0  0  0  0  0  0  0  0  0  0  0  0
    5.4780   -0.1970   -2.7199 C   0  0  0  0  0  0  0  0  0  0  0  0
    4.0771   -1.2451   -3.2850 S   0  0  0  0  0  0  0  0  0  0  0  0
    2.7753   -0.0670   -3.4170 C   0  0  0  0  0  0  0  0  0  0  0  0
    2.8121    1.1737   -2.9372 N   0  0  0  0  0  0  0  0  0  0  0  0
    1.5959    1.6562   -3.2906 N   0  0  0  0  0  0  0  0  0  0  0  0
    1.3383    2.6091   -3.0594 H   0  0  0  0  0  0  0  0  0  0  0  0
    0.8842    0.7054   -3.9486 C   0  0  0  0  0  0  0  0  0  0  0  0
   -0.4587    0.8687   -4.4749 C   0  0  0  0  0  0  0  0  0  0  0  0
   -1.1836   -0.0859   -5.1591 C   0  0  0  0  0  0  0  0  0  0  0  0
   -2.4729    0.3736   -5.5467 C   0  0  0  0  0  0  0  0  0  0  0  0
   -2.7166    1.6678   -5.1560 C   0  0  0  0  0  0  0  0  0  0  0  0
   -1.3735    2.3464   -4.3064 S   0  0  0  0  0  0  0  0  0  0  0  0
    1.6169   -0.3988   -4.0398 N   0  0  0  0  0  0  0  0  0  0  0  0
    4.8814    2.4962    1.1606 C   0  0  0  0  0  0  0  0  0  0  0  0
    5.2963    2.8253    2.4618 C   0  0  0  0  0  0  0  0  0  0  0  0
    5.4951    4.1541    2.8414 C   0  0  0  0  0  0  0  0  0  0  0  0
    5.2833    5.1863    1.9214 C   0  0  0  0  0  0  0  0  0  0  0  0
    4.8779    4.8728    0.6223 C   0  0  0  0  0  0  0  0  0  0  0  0
    4.6806    3.5396    0.2459 C   0  0  0  0  0  0  0  0  0  0  0  0
    3.7851   -2.9312    1.7691 H   0  0  0  0  0  0  0  0  0  0  0  0
    4.1647   -1.6551    2.9477 H   0  0  0  0  0  0  0  0  0  0  0  0
    5.0501   -1.7445    1.3979 H   0  0  0  0  0  0  0  0  0  0  0  0
    2.9912   -1.1823    0.1421 H   0  0  0  0  0  0  0  0  0  0  0  0
    1.5481   -1.1042    2.8603 H   0  0  0  0  0  0  0  0  0  0  0  0
    1.3402   -2.3467    1.6041 H   0  0  0  0  0  0  0  0  0  0  0  0
    0.8246   -0.6717    1.2930 H   0  0  0  0  0  0  0  0  0  0  0  0
    3.3001    0.7733    2.4831 H   0  0  0  0  0  0  0  0  0  0  0  0
    2.4813    1.1252    0.9649 H   0  0  0  0  0  0  0  0  0  0  0  0
    3.9596    1.1583   -1.2314 H   0  0  0  0  0  0  0  0  0  0  0  0
    6.3770   -0.7211   -3.0677 H   0  0  0  0  0  0  0  0  0  0  0  0
    5.4016    0.7775   -3.2242 H   0  0  0  0  0  0  0  0  0  0  0  0
   -0.7802   -1.0777   -5.3641 H   0  0  0  0  0  0  0  0  0  0  0  0
   -3.1963   -0.2307   -6.0955 H   0  0  0  0  0  0  0  0  0  0  0  0
   -3.6115    2.2671   -5.3173 H   0  0  0  0  0  0  0  0  0  0  0  0
    5.4754    2.0255    3.1868 H   0  0  0  0  0  0  0  0  0  0  0  0
    5.8247    4.3847    3.8579 H   0  0  0  0  0  0  0  0  0  0  0  0
    5.4416    6.2274    2.2144 H   0  0  0  0  0  0  0  0  0  0  0  0
    4.7194    5.6704   -0.1089 H   0  0  0  0  0  0  0  0  0  0  0  0
    4.3837    3.3130   -0.7805 H   0  0  0  0  0  0  0  0  0  0  0  0
  1  2  1  0
  1 29  1  0
  1 30  1  0
  1 31  1  0
  2  3  1  0
  2  4  1  0
  2 32  1  6
  3 33  1  0
  3 34  1  0
  3 35  1  0
  4  5  1  0
  4 36  1  0
  4 37  1  0
  5  6  1  1
  5  7  1  0
  5 23  1  0
  7  8  1  0
  7 38  1  0
  8  9  2  0
  8 10  1  0
 10 11  1  0
 10 39  1  0
 10 40  1  0
 11 12  1  0
 12 13  2  0
 12 22  1  0
 13 14  1  0
 14 15  1  0
 14 16  1  0
 16 17  1  0
 16 22  2  0
 17 18  2  0
 17 21  1  0
 18 19  1  0
 18 41  1  0
 19 20  2  0
 19 42  1  0
 20 21  1  0
 20 43  1  0
 23 24  2  0
 23 28  1  0
 24 25  1  0
 24 44  1  0
 25 26  2  0
 25 45  1  0
 26 27  1  0
 26 46  1  0
 27 28  2  0
 27 47  1  0
 28 48  1  0
M  END

