
     RDKit          3D

 46 48  0  0  0  0  0  0  0  0999 V2000
    1.4903    0.1801   -0.4044 C   0  0  0  0  0  0  0  0  0  0  0  0
    2.6818   -0.1742   -1.0638 O   0  0  0  0  0  0  0  0  0  0  0  0
    3.2391   -1.3934   -0.8362 C   0  0  0  0  0  0  0  0  0  0  0  0
    4.4232   -1.6767   -1.5276 C   0  0  0  0  0  0  0  0  0  0  0  0
    5.0504   -2.9085   -1.3416 C   0  0  0  0  0  0  0  0  0  0  0  0
    4.5369   -3.8816   -0.4795 C   0  0  0  0  0  0  0  0  0  0  0  0
    5.1916   -5.2342   -0.2628 C   0  0  0  0  0  0  0  0  0  0  0  0
    6.5394   -5.3284   -0.7788 N   0  0  0  0  0  0  0  0  0  0  0  0
    6.9131   -6.2209   -1.7360 C   0  0  0  0  0  0  0  0  0  0  0  0
    6.1589   -7.0310   -2.2632 O   0  0  0  0  0  0  0  0  0  0  0  0
    8.3560   -6.1323   -2.0961 C   0  0  0  0  0  0  0  0  0  0  0  0
    9.2093   -5.2475   -1.5040 N   0  0  0  0  0  0  0  0  0  0  0  0
   10.3937   -5.3961   -1.9829 N   0  0  0  0  0  0  0  0  0  0  0  0
   10.3387   -6.3909   -2.9128 N   0  0  0  0  0  0  0  0  0  0  0  0
   11.5379   -6.7812   -3.5730 C   0  0  0  0  0  0  0  0  0  0  0  0
   12.7258   -6.8528   -2.8324 C   0  0  0  0  0  0  0  0  0  0  0  0
   13.9171   -7.2143   -3.4587 C   0  0  0  0  0  0  0  0  0  0  0  0
   13.9176   -7.5138   -4.8254 C   0  0  0  0  0  0  0  0  0  0  0  0
   15.4063   -7.9793   -5.6083 Cl  0  0  0  0  0  0  0  0  0  0  0  0
   12.7377   -7.4394   -5.5708 C   0  0  0  0  0  0  0  0  0  0  0  0
   11.5484   -7.0637   -4.9442 C   0  0  0  0  0  0  0  0  0  0  0  0
    9.0682   -6.8920   -3.0159 C   0  0  0  0  0  0  0  0  0  0  0  0
    8.6317   -8.0173   -3.8918 C   0  0  0  0  0  0  0  0  0  0  0  0
    3.3415   -3.5824    0.2061 C   0  0  0  0  0  0  0  0  0  0  0  0
    2.8754   -4.5656    1.0263 O   0  0  0  0  0  0  0  0  0  0  0  0
    1.6927   -4.3645    1.7633 C   0  0  0  0  0  0  0  0  0  0  0  0
    2.6924   -2.3497    0.0367 C   0  0  0  0  0  0  0  0  0  0  0  0
    1.2344    1.1941   -0.7407 H   0  0  0  0  0  0  0  0  0  0  0  0
    1.6120    0.1914    0.6946 H   0  0  0  0  0  0  0  0  0  0  0  0
    0.6566   -0.4995   -0.6607 H   0  0  0  0  0  0  0  0  0  0  0  0
    4.8322   -0.9227   -2.2019 H   0  0  0  0  0  0  0  0  0  0  0  0
    5.9730   -3.1245   -1.8849 H   0  0  0  0  0  0  0  0  0  0  0  0
    4.6110   -6.0282   -0.7584 H   0  0  0  0  0  0  0  0  0  0  0  0
    5.1776   -5.4719    0.8149 H   0  0  0  0  0  0  0  0  0  0  0  0
    7.2691   -4.7264   -0.4076 H   0  0  0  0  0  0  0  0  0  0  0  0
   12.7063   -6.6151   -1.7685 H   0  0  0  0  0  0  0  0  0  0  0  0
   14.8462   -7.2719   -2.8897 H   0  0  0  0  0  0  0  0  0  0  0  0
   12.7540   -7.6610   -6.6389 H   0  0  0  0  0  0  0  0  0  0  0  0
   10.6360   -6.9730   -5.5336 H   0  0  0  0  0  0  0  0  0  0  0  0
    9.3761   -8.8279   -3.9120 H   0  0  0  0  0  0  0  0  0  0  0  0
    8.4675   -7.6837   -4.9299 H   0  0  0  0  0  0  0  0  0  0  0  0
    7.6715   -8.3918   -3.5159 H   0  0  0  0  0  0  0  0  0  0  0  0
    1.5256   -5.2815    2.3445 H   0  0  0  0  0  0  0  0  0  0  0  0
    0.8210   -4.1965    1.1051 H   0  0  0  0  0  0  0  0  0  0  0  0
    1.7807   -3.5115    2.4607 H   0  0  0  0  0  0  0  0  0  0  0  0
    1.7721   -2.1402    0.5758 H   0  0  0  0  0  0  0  0  0  0  0  0
  1  2  1  0
  1 28  1  0
  1 29  1  0
  1 30  1  0
  2  3  1  0
  3  4  2  0
  3 27  1  0
  4  5  1  0
  4 31  1  0
  5  6  2  0
  5 32  1  0
  6  7  1  0
  6 24  1  0
  7  8  1  0
  7 33  1  0
  7 34  1  0
  8  9  1  0
  8 35  1  0
  9 10  2  0
  9 11  1  0
 11 12  1  0
 11 22  2  0
 12 13  2  0
 13 14  1  0
 14 15  1  0
 14 22  1  0
 15 16  2  0
 15 21  1  0
 16 17  1  0
 16 36  1  0
 17 18  2  0
 17 37  1  0
 18 19  1  0
 18 20  1  0
 20 21  2  0
 20 38  1  0
 21 39  1  0
 22 23  1  0
 23 40  1  0
 23 41  1  0
 23 42  1  0
 24 25  1  0
 24 27  2  0
 25 26  1  0
 26 43  1  0
 26 44  1  0
 26 45  1  0
 27 46  1  0
M  END

