
     RDKit          3D

 56 58  0  0  0  0  0  0  0  0999 V2000
    1.8962    0.6771    2.5551 C   0  0  0  0  0  0  0  0  0  0  0  0
    2.8204    0.3881    1.5225 O   0  0  0  0  0  0  0  0  0  0  0  0
    3.1498    1.3409    0.6007 C   0  0  0  0  0  0  0  0  0  0  0  0
    2.5986    2.6309    0.6394 C   0  0  0  0  0  0  0  0  0  0  0  0
    2.9566    3.5821   -0.3187 C   0  0  0  0  0  0  0  0  0  0  0  0
    3.8660    3.2597   -1.3265 C   0  0  0  0  0  0  0  0  0  0  0  0
    4.4108    1.9775   -1.3632 C   0  0  0  0  0  0  0  0  0  0  0  0
    4.0782    0.9962   -0.4165 C   0  0  0  0  0  0  0  0  0  0  0  0
    4.7582   -0.3436   -0.6137 C   0  0  0  0  0  0  0  0  0  0  0  0
    5.5022   -0.5238   -1.5739 O   0  0  0  0  0  0  0  0  0  0  0  0
    4.5340   -1.3095    0.3208 N   0  0  0  0  0  0  0  0  0  0  0  0
    5.0431   -2.6663    0.1944 C   0  0  1  0  0  0  0  0  0  0  0  0
    5.8835   -3.0730    1.4292 C   0  0  0  0  0  0  0  0  0  0  0  0
    5.6374   -4.0864    2.0732 O   0  0  0  0  0  0  0  0  0  0  0  0
    6.9363   -2.2741    1.7682 N   0  0  0  0  0  0  0  0  0  0  0  0
    7.4723   -1.1051    1.0612 C   0  0  0  0  0  0  0  0  0  0  0  0
    8.9510   -1.1115    1.4553 C   0  0  0  0  0  0  0  0  0  0  0  0
    8.9073   -1.6046    2.9192 C   0  0  2  0  0  0  0  0  0  0  0  0
   10.1997   -2.0164    3.5631 C   0  0  0  0  0  0  0  0  0  0  0  0
   10.6664   -1.4343    4.6530 N   0  0  0  0  0  0  0  0  0  0  0  0
   11.8461   -2.0605    4.9504 C   0  0  0  0  0  0  0  0  0  0  0  0
   12.1048   -3.0452    4.0268 C   0  0  0  0  0  0  0  0  0  0  0  0
   11.0463   -3.0211    3.1394 N   0  0  0  0  0  0  0  0  0  0  0  0
   10.9572   -3.8595    1.9566 C   0  0  0  0  0  0  0  0  0  0  0  0
    7.7734   -2.6580    2.9098 C   0  0  0  0  0  0  0  0  0  0  0  0
    3.9268   -3.6981   -0.1078 C   0  0  1  0  0  0  0  0  0  0  0  0
    2.7825   -3.6582    0.9141 C   0  0  0  0  0  0  0  0  0  0  0  0
    3.3992   -3.5284   -1.5377 C   0  0  0  0  0  0  0  0  0  0  0  0
    1.8002   -0.2416    3.1482 H   0  0  0  0  0  0  0  0  0  0  0  0
    0.9071    0.9486    2.1488 H   0  0  0  0  0  0  0  0  0  0  0  0
    2.2575    1.4914    3.2061 H   0  0  0  0  0  0  0  0  0  0  0  0
    1.8857    2.9019    1.4173 H   0  0  0  0  0  0  0  0  0  0  0  0
    2.5151    4.5808   -0.2691 H   0  0  0  0  0  0  0  0  0  0  0  0
    4.1477    3.9997   -2.0787 H   0  0  0  0  0  0  0  0  0  0  0  0
    5.1211    1.6841   -2.1378 H   0  0  0  0  0  0  0  0  0  0  0  0
    3.8922   -1.0887    1.0751 H   0  0  0  0  0  0  0  0  0  0  0  0
    5.7245   -2.6412   -0.6706 H   0  0  0  0  0  0  0  0  0  0  0  0
    6.9834   -0.1777    1.4122 H   0  0  0  0  0  0  0  0  0  0  0  0
    7.3082   -1.1659   -0.0230 H   0  0  0  0  0  0  0  0  0  0  0  0
    9.4233   -0.1230    1.3592 H   0  0  0  0  0  0  0  0  0  0  0  0
    9.5062   -1.8122    0.8115 H   0  0  0  0  0  0  0  0  0  0  0  0
    8.5754   -0.7593    3.5406 H   0  0  0  0  0  0  0  0  0  0  0  0
   12.4473   -1.7785    5.8142 H   0  0  0  0  0  0  0  0  0  0  0  0
   12.9240   -3.7525    3.9185 H   0  0  0  0  0  0  0  0  0  0  0  0
   11.4608   -4.8168    2.1522 H   0  0  0  0  0  0  0  0  0  0  0  0
   11.4366   -3.3856    1.0839 H   0  0  0  0  0  0  0  0  0  0  0  0
    9.9106   -4.0739    1.7090 H   0  0  0  0  0  0  0  0  0  0  0  0
    7.1976   -2.6553    3.8488 H   0  0  0  0  0  0  0  0  0  0  0  0
    8.1328   -3.6925    2.7792 H   0  0  0  0  0  0  0  0  0  0  0  0
    4.4100   -4.6848   -0.0243 H   0  0  0  0  0  0  0  0  0  0  0  0
    2.2430   -2.6962    0.8740 H   0  0  0  0  0  0  0  0  0  0  0  0
    3.1588   -3.8186    1.9342 H   0  0  0  0  0  0  0  0  0  0  0  0
    2.0467   -4.4490    0.6974 H   0  0  0  0  0  0  0  0  0  0  0  0
    2.9142   -2.5477   -1.6736 H   0  0  0  0  0  0  0  0  0  0  0  0
    2.6499   -4.3025   -1.7691 H   0  0  0  0  0  0  0  0  0  0  0  0
    4.2060   -3.6023   -2.2839 H   0  0  0  0  0  0  0  0  0  0  0  0
  1  2  1  0
  1 29  1  0
  1 30  1  0
  1 31  1  0
  2  3  1  0
  3  4  2  0
  3  8  1  0
  4  5  1  0
  4 32  1  0
  5  6  2  0
  5 33  1  0
  6  7  1  0
  6 34  1  0
  7  8  2  0
  7 35  1  0
  8  9  1  0
  9 10  2  0
  9 11  1  0
 11 12  1  0
 11 36  1  0
 12 13  1  0
 12 26  1  0
 12 37  1  6
 13 14  2  0
 13 15  1  0
 15 16  1  0
 15 25  1  0
 16 17  1  0
 16 38  1  0
 16 39  1  0
 17 18  1  0
 17 40  1  0
 17 41  1  0
 18 19  1  0
 18 25  1  0
 18 42  1  1
 19 20  2  0
 19 23  1  0
 20 21  1  0
 21 22  2  0
 21 43  1  0
 22 23  1  0
 22 44  1  0
 23 24  1  0
 24 45  1  0
 24 46  1  0
 24 47  1  0
 25 48  1  0
 25 49  1  0
 26 27  1  0
 26 28  1  0
 26 50  1  6
 27 51  1  0
 27 52  1  0
 27 53  1  0
 28 54  1  0
 28 55  1  0
 28 56  1  0
M  END

