
     RDKit          3D

 34 37  0  0  0  0  0  0  0  0999 V2000
    2.7122   -0.0369    3.2696 C   0  0  0  0  0  0  0  0  0  0  0  0
    3.2032   -0.1100    1.8438 C   0  0  0  0  0  0  0  0  0  0  0  0
    2.6994    0.7590    0.8614 C   0  0  0  0  0  0  0  0  0  0  0  0
    3.1671    0.7090   -0.4497 C   0  0  0  0  0  0  0  0  0  0  0  0
    4.1536   -0.2122   -0.8253 C   0  0  0  0  0  0  0  0  0  0  0  0
    4.6088   -0.2984   -2.1014 O   0  0  0  0  0  0  0  0  0  0  0  0
    4.6855   -1.0987    0.1367 C   0  0  0  0  0  0  0  0  0  0  0  0
    5.6844   -2.1168   -0.2039 C   0  0  0  0  0  0  0  0  0  0  0  0
    5.6139   -3.3904    0.3814 N   0  0  0  0  0  0  0  0  0  0  0  0
    4.8230   -3.7444    0.9044 H   0  0  0  0  0  0  0  0  0  0  0  0
    6.6454   -4.2386   -0.0325 C   0  0  0  0  0  0  0  0  0  0  0  0
    6.8211   -5.3916    0.2704 O   0  0  0  0  0  0  0  0  0  0  0  0
    7.3934   -3.4030   -0.8806 N   0  0  0  0  0  0  0  0  0  0  0  0
    6.8135   -2.1214   -0.9825 C   0  0  0  0  0  0  0  0  0  0  0  0
    7.7043   -1.3090   -1.7980 C   0  0  0  0  0  0  0  0  0  0  0  0
    7.6859    0.0273   -2.2161 C   0  0  0  0  0  0  0  0  0  0  0  0
    8.7453    0.4941   -3.0013 C   0  0  0  0  0  0  0  0  0  0  0  0
    9.8115   -0.3409   -3.3739 C   0  0  0  0  0  0  0  0  0  0  0  0
    9.8391   -1.6750   -2.9564 C   0  0  0  0  0  0  0  0  0  0  0  0
    8.7881   -2.1413   -2.1714 C   0  0  0  0  0  0  0  0  0  0  0  0
    8.6189   -3.5064   -1.5919 C   0  0  0  0  0  0  0  0  0  0  0  0
    9.3274   -4.4768   -1.6752 O   0  0  0  0  0  0  0  0  0  0  0  0
    4.1854   -1.0247    1.4538 C   0  0  0  0  0  0  0  0  0  0  0  0
    1.6117   -0.0757    3.3193 H   0  0  0  0  0  0  0  0  0  0  0  0
    3.0231    0.9050    3.7531 H   0  0  0  0  0  0  0  0  0  0  0  0
    3.1062   -0.8654    3.8764 H   0  0  0  0  0  0  0  0  0  0  0  0
    1.9268    1.4871    1.1240 H   0  0  0  0  0  0  0  0  0  0  0  0
    2.7563    1.3870   -1.2048 H   0  0  0  0  0  0  0  0  0  0  0  0
    4.1148    0.3086   -2.6684 H   0  0  0  0  0  0  0  0  0  0  0  0
    6.8628    0.6866   -1.9452 H   0  0  0  0  0  0  0  0  0  0  0  0
    8.7425    1.5360   -3.3324 H   0  0  0  0  0  0  0  0  0  0  0  0
   10.6222    0.0575   -3.9884 H   0  0  0  0  0  0  0  0  0  0  0  0
   10.6579   -2.3466   -3.2250 H   0  0  0  0  0  0  0  0  0  0  0  0
    4.6046   -1.7003    2.2042 H   0  0  0  0  0  0  0  0  0  0  0  0
  1  2  1  0
  1 24  1  0
  1 25  1  0
  1 26  1  0
  2  3  2  0
  2 23  1  0
  3  4  1  0
  3 27  1  0
  4  5  2  0
  4 28  1  0
  5  6  1  0
  5  7  1  0
  6 29  1  0
  7  8  1  0
  7 23  2  0
  8  9  1  0
  8 14  2  0
  9 10  1  0
  9 11  1  0
 11 12  2  0
 11 13  1  0
 13 14  1  0
 13 21  1  0
 14 15  1  0
 15 16  2  0
 15 20  1  0
 16 17  1  0
 16 30  1  0
 17 18  2  0
 17 31  1  0
 18 19  1  0
 18 32  1  0
 19 20  2  0
 19 33  1  0
 20 21  1  0
 21 22  2  0
 23 34  1  0
M  END

