
     RDKit          3D

 46 47  0  0  0  0  0  0  0  0999 V2000
    2.4305    2.3934    1.1268 C   0  0  0  0  0  0  0  0  0  0  0  0
    2.6112    1.0124    0.4827 C   0  0  1  0  0  0  0  0  0  0  0  0
    1.2649    0.2911    0.3319 C   0  0  0  0  0  0  0  0  0  0  0  0
    3.3178    1.0746   -0.8859 C   0  0  0  0  0  0  0  0  0  0  0  0
    4.7141    1.7398   -0.9346 C   0  0  1  0  0  0  0  0  0  0  0  0
    5.6542    1.0265    0.0601 C   0  0  0  0  0  0  0  0  0  0  0  0
    5.7533    1.4513    1.2015 O   0  0  0  0  0  0  0  0  0  0  0  0
    6.2924   -0.1156   -0.3314 N   0  0  0  0  0  0  0  0  0  0  0  0
    6.3830   -0.6336   -1.6881 C   0  0  0  0  0  0  0  0  0  0  0  0
    7.1407    0.3052   -2.6320 C   0  0  0  0  0  0  0  0  0  0  0  0
    6.6527    1.7569   -2.4970 C   0  0  0  0  0  0  0  0  0  0  0  0
    5.1974    1.8386   -2.3325 N   0  0  0  0  0  0  0  0  0  0  0  0
    4.6221    2.9913   -3.0160 C   0  0  0  0  0  0  0  0  0  0  0  0
    4.6489    2.8850   -4.5295 C   0  0  0  0  0  0  0  0  0  0  0  0
    4.3325    1.6757   -5.1723 C   0  0  0  0  0  0  0  0  0  0  0  0
    4.2999    1.5926   -6.5614 C   0  0  0  0  0  0  0  0  0  0  0  0
    4.6025    2.7135   -7.3522 C   0  0  0  0  0  0  0  0  0  0  0  0
    4.5430    2.5553   -8.8458 C   0  0  0  0  0  0  0  0  0  0  0  0
    3.9820    1.6409   -9.3897 O   0  0  0  0  0  0  0  0  0  0  0  0
    5.1689    3.5048   -9.5803 O   0  0  0  0  0  0  0  0  0  0  0  0
    4.9090    3.9251   -6.7148 C   0  0  0  0  0  0  0  0  0  0  0  0
    4.9348    4.0063   -5.3206 C   0  0  0  0  0  0  0  0  0  0  0  0
    1.8386    2.3151    2.0532 H   0  0  0  0  0  0  0  0  0  0  0  0
    1.8950    3.0842    0.4511 H   0  0  0  0  0  0  0  0  0  0  0  0
    3.3989    2.8405    1.3935 H   0  0  0  0  0  0  0  0  0  0  0  0
    3.2382    0.4121    1.1653 H   0  0  0  0  0  0  0  0  0  0  0  0
    0.5816    0.8567   -0.3255 H   0  0  0  0  0  0  0  0  0  0  0  0
    0.7652    0.1744    1.3069 H   0  0  0  0  0  0  0  0  0  0  0  0
    1.3878   -0.7141   -0.1041 H   0  0  0  0  0  0  0  0  0  0  0  0
    2.6604    1.6153   -1.5898 H   0  0  0  0  0  0  0  0  0  0  0  0
    3.4101    0.0530   -1.2920 H   0  0  0  0  0  0  0  0  0  0  0  0
    4.6416    2.7543   -0.5008 H   0  0  0  0  0  0  0  0  0  0  0  0
    6.8901   -0.5090    0.3894 H   0  0  0  0  0  0  0  0  0  0  0  0
    5.3706   -0.8021   -2.0853 H   0  0  0  0  0  0  0  0  0  0  0  0
    6.8705   -1.6186   -1.6405 H   0  0  0  0  0  0  0  0  0  0  0  0
    6.9883   -0.0474   -3.6659 H   0  0  0  0  0  0  0  0  0  0  0  0
    8.2250    0.2671   -2.4299 H   0  0  0  0  0  0  0  0  0  0  0  0
    6.9353    2.3083   -3.4056 H   0  0  0  0  0  0  0  0  0  0  0  0
    7.1791    2.2655   -1.6628 H   0  0  0  0  0  0  0  0  0  0  0  0
    5.1060    3.9450   -2.7070 H   0  0  0  0  0  0  0  0  0  0  0  0
    3.5673    3.0830   -2.7083 H   0  0  0  0  0  0  0  0  0  0  0  0
    4.1146    0.7978   -4.5607 H   0  0  0  0  0  0  0  0  0  0  0  0
    4.0401    0.6599   -7.0659 H   0  0  0  0  0  0  0  0  0  0  0  0
    5.6829    4.0910   -9.0082 H   0  0  0  0  0  0  0  0  0  0  0  0
    5.1073    4.8323   -7.2942 H   0  0  0  0  0  0  0  0  0  0  0  0
    5.1750    4.9593   -4.8410 H   0  0  0  0  0  0  0  0  0  0  0  0
  1  2  1  0
  1 23  1  0
  1 24  1  0
  1 25  1  0
  2  3  1  0
  2  4  1  0
  2 26  1  1
  3 27  1  0
  3 28  1  0
  3 29  1  0
  4  5  1  0
  4 30  1  0
  4 31  1  0
  5  6  1  0
  5 12  1  0
  5 32  1  1
  6  7  2  0
  6  8  1  0
  8  9  1  0
  8 33  1  0
  9 10  1  0
  9 34  1  0
  9 35  1  0
 10 11  1  0
 10 36  1  0
 10 37  1  0
 11 12  1  0
 11 38  1  0
 11 39  1  0
 12 13  1  0
 13 14  1  0
 13 40  1  0
 13 41  1  0
 14 15  2  0
 14 22  1  0
 15 16  1  0
 15 42  1  0
 16 17  2  0
 16 43  1  0
 17 18  1  0
 17 21  1  0
 18 19  2  0
 18 20  1  0
 20 44  1  0
 21 22  2  0
 21 45  1  0
 22 46  1  0
M  END

