
     RDKit          3D

 23 23  0  0  0  0  0  0  0  0999 V2000
    2.9636   -2.7301   -1.8025 O   0  0  0  0  0  0  0  0  0  0  0  0
    2.4637   -1.6455   -1.5405 C   0  0  0  0  0  0  0  0  0  0  0  0
    0.9457   -1.5857   -1.3757 C   0  0  0  0  0  0  0  0  0  0  0  0
    0.2432    0.0229   -0.9864 Cl  0  0  0  0  0  0  0  0  0  0  0  0
    3.1588   -0.4835   -1.3846 N   0  0  0  0  0  0  0  0  0  0  0  0
    4.5629   -0.2427   -1.4844 C   0  0  0  0  0  0  0  0  0  0  0  0
    4.9707    0.8866   -1.3105 O   0  0  0  0  0  0  0  0  0  0  0  0
    5.2956   -1.3550   -1.7732 N   0  0  0  0  0  0  0  0  0  0  0  0
    6.6886   -1.4407   -1.9360 C   0  0  0  0  0  0  0  0  0  0  0  0
    7.5613   -0.3449   -1.8150 C   0  0  0  0  0  0  0  0  0  0  0  0
    8.9298   -0.5341   -1.9950 C   0  0  0  0  0  0  0  0  0  0  0  0
    9.4635   -1.7923   -2.2950 C   0  0  0  0  0  0  0  0  0  0  0  0
   11.1834   -1.9562   -2.5072 Cl  0  0  0  0  0  0  0  0  0  0  0  0
    8.5905   -2.8854   -2.4155 C   0  0  0  0  0  0  0  0  0  0  0  0
    9.2311   -4.6278   -2.8210 Br  0  0  0  0  0  0  0  0  0  0  0  0
    7.2181   -2.7071   -2.2371 C   0  0  0  0  0  0  0  0  0  0  0  0
    0.6694   -2.2851   -0.5751 H   0  0  0  0  0  0  0  0  0  0  0  0
    0.4944   -1.9409   -2.3121 H   0  0  0  0  0  0  0  0  0  0  0  0
    2.6310    0.3596   -1.1672 H   0  0  0  0  0  0  0  0  0  0  0  0
    4.7479   -2.2142   -1.8830 H   0  0  0  0  0  0  0  0  0  0  0  0
    7.1637    0.6400   -1.5827 H   0  0  0  0  0  0  0  0  0  0  0  0
    9.6114    0.3132   -1.9022 H   0  0  0  0  0  0  0  0  0  0  0  0
    6.5545   -3.5685   -2.3346 H   0  0  0  0  0  0  0  0  0  0  0  0
  1  2  2  0
  2  3  1  0
  2  5  1  0
  3  4  1  0
  3 17  1  0
  3 18  1  0
  5  6  1  0
  5 19  1  0
  6  7  2  0
  6  8  1  0
  8  9  1  0
  8 20  1  0
  9 10  2  0
  9 16  1  0
 10 11  1  0
 10 21  1  0
 11 12  2  0
 11 22  1  0
 12 13  1  0
 12 14  1  0
 14 15  1  0
 14 16  2  0
 16 23  1  0
M  END

