
     RDKit          3D

 54 57  0  0  0  0  0  0  0  0999 V2000
    2.3852    0.1367   -0.9272 C   0  0  0  0  0  0  0  0  0  0  0  0
    3.2521    0.0853    0.3405 C   0  0  1  0  0  0  0  0  0  0  0  0
    4.7421    0.0808   -0.0363 C   0  0  0  0  0  0  0  0  0  0  0  0
    2.9704    1.2305    1.1516 O   0  0  0  0  0  0  0  0  0  0  0  0
    2.9343   -1.1068    1.2688 C   0  0  1  0  0  0  0  0  0  0  0  0
    1.4916   -1.2014    1.7939 C   0  0  0  0  0  0  0  0  0  0  0  0
    1.4236   -2.6187    2.3738 C   0  0  0  0  0  0  0  0  0  0  0  0
    2.3546   -3.3718    1.5409 N   0  0  0  0  0  0  0  0  0  0  0  0
    2.4904   -4.7296    1.5631 C   0  0  0  0  0  0  0  0  0  0  0  0
    1.7403   -5.5491    2.4496 C   0  0  0  0  0  0  0  0  0  0  0  0
    1.9301   -6.9208    2.3988 C   0  0  0  0  0  0  0  0  0  0  0  0
    2.8402   -7.4901    1.4849 C   0  0  0  0  0  0  0  0  0  0  0  0
    3.0816   -8.9599    1.4681 C   0  0  0  0  0  0  0  0  0  0  0  0
    3.4984   -9.5771    2.6643 C   0  0  0  0  0  0  0  0  0  0  0  0
    3.7242  -10.9483    2.7460 C   0  0  0  0  0  0  0  0  0  0  0  0
    3.5288  -11.7507    1.6214 C   0  0  0  0  0  0  0  0  0  0  0  0
    3.0957  -11.1629    0.4329 C   0  0  0  0  0  0  0  0  0  0  0  0
    2.8794  -12.3123   -0.9704 S   0  0  1  0  0  0  0  0  0  0  0  0
    1.1067  -12.6397   -1.0177 C   0  0  0  0  0  0  0  0  0  0  0  0
    3.2513  -11.6220   -2.2133 O   0  0  0  0  0  0  0  0  0  0  0  0
    3.5452  -13.5687   -0.5945 O   0  0  0  0  0  0  0  0  0  0  0  0
    2.8720   -9.7736    0.3254 C   0  0  0  0  0  0  0  0  0  0  0  0
    2.3748   -9.1884   -0.9448 C   0  0  0  0  0  0  0  0  0  0  0  0
    1.1146   -9.3879   -1.4208 N   0  0  0  0  0  0  0  0  0  0  0  0
    1.0355   -8.7537   -2.5543 N   0  0  0  0  0  0  0  0  0  0  0  0
    2.2182   -8.1949   -2.7295 N   0  0  0  0  0  0  0  0  0  0  0  0
    2.4381   -7.6357   -3.5492 H   0  0  0  0  0  0  0  0  0  0  0  0
    3.0878   -8.4251   -1.7651 N   0  0  0  0  0  0  0  0  0  0  0  0
    3.5427   -6.5833    0.6730 C   0  0  0  0  0  0  0  0  0  0  0  0
    3.3797   -5.2639    0.7046 N   0  0  0  0  0  0  0  0  0  0  0  0
    3.1911   -2.5138    0.7033 C   0  0  0  0  0  0  0  0  0  0  0  0
    2.6571    1.0209   -1.5281 H   0  0  0  0  0  0  0  0  0  0  0  0
    1.3182    0.2217   -0.6758 H   0  0  0  0  0  0  0  0  0  0  0  0
    2.5267   -0.7474   -1.5674 H   0  0  0  0  0  0  0  0  0  0  0  0
    4.9938    0.9868   -0.6133 H   0  0  0  0  0  0  0  0  0  0  0  0
    5.0094   -0.7893   -0.6561 H   0  0  0  0  0  0  0  0  0  0  0  0
    5.3668    0.0708    0.8699 H   0  0  0  0  0  0  0  0  0  0  0  0
    3.1522    2.0216    0.6269 H   0  0  0  0  0  0  0  0  0  0  0  0
    3.5904   -0.9716    2.1468 H   0  0  0  0  0  0  0  0  0  0  0  0
    0.7712   -1.1075    0.9654 H   0  0  0  0  0  0  0  0  0  0  0  0
    1.2586   -0.4204    2.5295 H   0  0  0  0  0  0  0  0  0  0  0  0
    0.4061   -3.0431    2.3241 H   0  0  0  0  0  0  0  0  0  0  0  0
    1.7322   -2.6370    3.4383 H   0  0  0  0  0  0  0  0  0  0  0  0
    1.0332   -5.1173    3.1577 H   0  0  0  0  0  0  0  0  0  0  0  0
    1.3578   -7.5683    3.0691 H   0  0  0  0  0  0  0  0  0  0  0  0
    3.6640   -8.9479    3.5419 H   0  0  0  0  0  0  0  0  0  0  0  0
    4.0647  -11.3939    3.6839 H   0  0  0  0  0  0  0  0  0  0  0  0
    3.7190  -12.8247    1.6412 H   0  0  0  0  0  0  0  0  0  0  0  0
    0.5756  -11.6902   -1.1656 H   0  0  0  0  0  0  0  0  0  0  0  0
    0.8180  -13.1393   -0.0842 H   0  0  0  0  0  0  0  0  0  0  0  0
    0.9716  -13.3128   -1.8763 H   0  0  0  0  0  0  0  0  0  0  0  0
    4.2853   -6.9585   -0.0380 H   0  0  0  0  0  0  0  0  0  0  0  0
    2.9001   -2.6013   -0.3604 H   0  0  0  0  0  0  0  0  0  0  0  0
    4.2441   -2.8256    0.7639 H   0  0  0  0  0  0  0  0  0  0  0  0
  1  2  1  0
  1 32  1  0
  1 33  1  0
  1 34  1  0
  2  3  1  0
  2  4  1  1
  2  5  1  0
  3 35  1  0
  3 36  1  0
  3 37  1  0
  4 38  1  0
  5  6  1  0
  5 31  1  0
  5 39  1  1
  6  7  1  0
  6 40  1  0
  6 41  1  0
  7  8  1  0
  7 42  1  0
  7 43  1  0
  8  9  1  0
  8 31  1  0
  9 10  2  0
  9 30  1  0
 10 11  1  0
 10 44  1  0
 11 12  2  0
 11 45  1  0
 12 13  1  0
 12 29  1  0
 13 14  2  0
 13 22  1  0
 14 15  1  0
 14 46  1  0
 15 16  2  0
 15 47  1  0
 16 17  1  0
 16 48  1  0
 17 18  1  0
 17 22  2  0
 18 19  1  6
 18 20  2  0
 18 21  2  0
 19 49  1  0
 19 50  1  0
 19 51  1  0
 22 23  1  0
 23 24  1  0
 23 28  2  0
 24 25  2  0
 25 26  1  0
 26 27  1  0
 26 28  1  0
 29 30  2  0
 29 52  1  0
 31 53  1  0
 31 54  1  0
M  END

