
     RDKit          3D

 56 61  0  0  0  0  0  0  0  0999 V2000
    1.8100   -0.3587   -0.6715 C   0  0  0  0  0  0  0  0  0  0  0  0
    3.1474   -0.2814   -1.4118 C   0  0  1  0  0  0  0  0  0  0  0  0
    3.0529   -0.7466   -2.8666 C   0  0  0  0  0  0  0  0  0  0  0  0
    3.6758    1.0940   -1.3550 N   0  0  0  0  0  0  0  0  0  0  0  0
    3.0056    2.0976   -1.9490 N   0  0  0  0  0  0  0  0  0  0  0  0
    3.7602    3.1601   -1.7055 C   0  0  0  0  0  0  0  0  0  0  0  0
    4.8762    2.9040   -0.9899 N   0  0  0  0  0  0  0  0  0  0  0  0
    4.8056    1.5924   -0.7756 C   0  0  0  0  0  0  0  0  0  0  0  0
    5.8196    0.8587   -0.0264 C   0  0  0  0  0  0  0  0  0  0  0  0
    5.8232   -0.4057    0.2783 N   0  0  0  0  0  0  0  0  0  0  0  0
    6.9417   -0.7829    0.9946 C   0  0  0  0  0  0  0  0  0  0  0  0
    7.8231    0.2618    1.2434 C   0  0  0  0  0  0  0  0  0  0  0  0
    7.2177    1.7371    0.5526 S   0  0  0  0  0  0  0  0  0  0  0  0
    9.1204    0.2752    1.9950 C   0  0  0  0  0  0  0  0  0  0  0  0
    9.2612   -0.9003    2.9505 C   0  0  0  0  0  0  0  0  0  0  0  0
    9.3536   -2.1360    2.2620 O   0  0  0  0  0  0  0  0  0  0  0  0
    8.2092   -2.8110    1.9432 C   0  0  0  0  0  0  0  0  0  0  0  0
    8.2563   -4.1926    2.1760 C   0  0  0  0  0  0  0  0  0  0  0  0
    7.1798   -5.0322    1.8838 C   0  0  0  0  0  0  0  0  0  0  0  0
    7.2185   -6.5124    2.1960 C   0  0  1  0  0  0  0  0  0  0  0  0
    6.6792   -7.4786    1.1018 C   0  0  0  0  0  0  0  0  0  0  0  0
    8.0623   -7.8250    0.7581 N   0  0  0  0  0  0  0  0  0  0  0  0
    8.3795   -9.1912    0.3995 C   0  0  0  0  0  0  0  0  0  0  0  0
    9.8156   -9.3468    0.0135 C   0  0  0  0  0  0  0  0  0  0  0  0
   10.8135   -9.7020    0.7647 N   0  0  0  0  0  0  0  0  0  0  0  0
   11.9241   -9.6287   -0.0581 C   0  0  0  0  0  0  0  0  0  0  0  0
   11.5283   -9.2229   -1.2960 C   0  0  0  0  0  0  0  0  0  0  0  0
   10.1795   -9.0407   -1.2577 O   0  0  0  0  0  0  0  0  0  0  0  0
    8.5678   -7.2615    2.0181 C   0  0  0  0  0  0  0  0  0  0  0  0
    6.0184   -4.4356    1.3625 C   0  0  0  0  0  0  0  0  0  0  0  0
    5.9683   -3.0685    1.1199 C   0  0  0  0  0  0  0  0  0  0  0  0
    7.0580   -2.2093    1.3822 C   0  0  0  0  0  0  0  0  0  0  0  0
    1.4346   -1.3936   -0.6829 H   0  0  0  0  0  0  0  0  0  0  0  0
    1.0617    0.2910   -1.1499 H   0  0  0  0  0  0  0  0  0  0  0  0
    1.9216   -0.0463    0.3782 H   0  0  0  0  0  0  0  0  0  0  0  0
    3.8940   -0.8856   -0.8812 H   0  0  0  0  0  0  0  0  0  0  0  0
    2.3502   -0.1177   -3.4332 H   0  0  0  0  0  0  0  0  0  0  0  0
    2.7002   -1.7889   -2.9031 H   0  0  0  0  0  0  0  0  0  0  0  0
    4.0358   -0.7008   -3.3602 H   0  0  0  0  0  0  0  0  0  0  0  0
    3.4863    4.1528   -2.0619 H   0  0  0  0  0  0  0  0  0  0  0  0
    9.2123    1.2135    2.5695 H   0  0  0  0  0  0  0  0  0  0  0  0
    9.9741    0.2576    1.2941 H   0  0  0  0  0  0  0  0  0  0  0  0
    8.4239   -0.9238    3.6708 H   0  0  0  0  0  0  0  0  0  0  0  0
   10.1982   -0.8028    3.5197 H   0  0  0  0  0  0  0  0  0  0  0  0
    9.1815   -4.5810    2.6049 H   0  0  0  0  0  0  0  0  0  0  0  0
    6.7563   -6.6770    3.1832 H   0  0  0  0  0  0  0  0  0  0  0  0
    6.0890   -7.0435    0.2772 H   0  0  0  0  0  0  0  0  0  0  0  0
    6.1068   -8.3230    1.5410 H   0  0  0  0  0  0  0  0  0  0  0  0
    7.7474   -9.4787   -0.4562 H   0  0  0  0  0  0  0  0  0  0  0  0
    8.1812   -9.9080    1.2273 H   0  0  0  0  0  0  0  0  0  0  0  0
   12.9250   -9.8739    0.2926 H   0  0  0  0  0  0  0  0  0  0  0  0
   12.0288   -9.0347   -2.2413 H   0  0  0  0  0  0  0  0  0  0  0  0
    9.4866   -6.6609    1.9237 H   0  0  0  0  0  0  0  0  0  0  0  0
    8.7307   -8.0243    2.8068 H   0  0  0  0  0  0  0  0  0  0  0  0
    5.1410   -5.0472    1.1387 H   0  0  0  0  0  0  0  0  0  0  0  0
    5.0664   -2.6273    0.6975 H   0  0  0  0  0  0  0  0  0  0  0  0
  1  2  1  0
  1 33  1  0
  1 34  1  0
  1 35  1  0
  2  3  1  0
  2  4  1  0
  2 36  1  1
  3 37  1  0
  3 38  1  0
  3 39  1  0
  4  5  1  0
  4  8  1  0
  5  6  2  0
  6  7  1  0
  6 40  1  0
  7  8  2  0
  8  9  1  0
  9 10  2  0
  9 13  1  0
 10 11  1  0
 11 12  2  0
 11 32  1  0
 12 13  1  0
 12 14  1  0
 14 15  1  0
 14 41  1  0
 14 42  1  0
 15 16  1  0
 15 43  1  0
 15 44  1  0
 16 17  1  0
 17 18  1  0
 17 32  2  0
 18 19  2  0
 18 45  1  0
 19 20  1  0
 19 30  1  0
 20 21  1  0
 20 29  1  0
 20 46  1  1
 21 22  1  0
 21 47  1  0
 21 48  1  0
 22 23  1  0
 22 29  1  0
 23 24  1  0
 23 49  1  0
 23 50  1  0
 24 25  2  0
 24 28  1  0
 25 26  1  0
 26 27  2  0
 26 51  1  0
 27 28  1  0
 27 52  1  0
 29 53  1  0
 29 54  1  0
 30 31  2  0
 30 55  1  0
 31 32  1  0
 31 56  1  0
M  END

