
     RDKit          3D

 51 57  0  0  0  0  0  0  0  0999 V2000
   -1.2838    0.7665   -0.2340 C   0  0  0  0  0  0  0  0  0  0  0  0
   -0.7142    0.5881   -1.4977 C   0  0  0  0  0  0  0  0  0  0  0  0
    0.6212    0.1919   -1.6174 C   0  0  0  0  0  0  0  0  0  0  0  0
    1.4086   -0.0411   -0.4766 C   0  0  0  0  0  0  0  0  0  0  0  0
    2.8483   -0.4168   -0.6097 C   0  0  0  0  0  0  0  0  0  0  0  0
    3.7302    0.5035   -1.2067 C   0  0  0  0  0  0  0  0  0  0  0  0
    5.0989    0.2464   -1.3250 C   0  0  0  0  0  0  0  0  0  0  0  0
    5.6348   -0.9525   -0.8436 C   0  0  0  0  0  0  0  0  0  0  0  0
    4.7762   -1.8820   -0.2668 C   0  0  0  0  0  0  0  0  0  0  0  0
    3.3880   -1.6394   -0.1529 C   0  0  0  0  0  0  0  0  0  0  0  0
    2.7604   -2.8431    0.4386 C   0  0  0  0  0  0  0  0  0  0  0  0
    1.4234   -3.1690    0.7099 C   0  0  0  0  0  0  0  0  0  0  0  0
    1.1237   -4.4177    1.2645 C   0  0  0  0  0  0  0  0  0  0  0  0
    2.1378   -5.3405    1.5491 C   0  0  0  0  0  0  0  0  0  0  0  0
    3.4734   -5.0278    1.2690 C   0  0  0  0  0  0  0  0  0  0  0  0
    3.7742   -3.7877    0.7128 C   0  0  0  0  0  0  0  0  0  0  0  0
    5.1454   -3.2549    0.2992 C   0  0  2  0  0  0  0  0  0  0  0  0
    6.1566   -3.1876    1.4504 C   0  0  0  0  0  0  0  0  0  0  0  0
    6.0524   -2.5080    2.6610 C   0  0  0  0  0  0  0  0  0  0  0  0
    7.1106   -2.5871    3.5762 C   0  0  0  0  0  0  0  0  0  0  0  0
    8.2560   -3.3380    3.2787 C   0  0  0  0  0  0  0  0  0  0  0  0
    8.3631   -4.0218    2.0633 C   0  0  0  0  0  0  0  0  0  0  0  0
    7.3077   -3.9443    1.1478 C   0  0  0  0  0  0  0  0  0  0  0  0
    7.1381   -4.5451   -0.1842 C   0  0  0  0  0  0  0  0  0  0  0  0
    7.9816   -5.3733   -0.9330 C   0  0  0  0  0  0  0  0  0  0  0  0
    7.5588   -5.8068   -2.1938 C   0  0  0  0  0  0  0  0  0  0  0  0
    6.3108   -5.4188   -2.7002 C   0  0  0  0  0  0  0  0  0  0  0  0
    5.4644   -4.5895   -1.9522 C   0  0  0  0  0  0  0  0  0  0  0  0
    5.8830   -4.1562   -0.6969 C   0  0  0  0  0  0  0  0  0  0  0  0
    0.8245    0.1471    0.7891 C   0  0  0  0  0  0  0  0  0  0  0  0
   -0.5084    0.5469    0.9095 C   0  0  0  0  0  0  0  0  0  0  0  0
   -2.3271    1.0783   -0.1394 H   0  0  0  0  0  0  0  0  0  0  0  0
   -1.3120    0.7573   -2.3972 H   0  0  0  0  0  0  0  0  0  0  0  0
    1.0613    0.0502   -2.6078 H   0  0  0  0  0  0  0  0  0  0  0  0
    3.3270    1.4534   -1.5665 H   0  0  0  0  0  0  0  0  0  0  0  0
    5.7513    0.9913   -1.7876 H   0  0  0  0  0  0  0  0  0  0  0  0
    6.7047   -1.1590   -0.9243 H   0  0  0  0  0  0  0  0  0  0  0  0
    0.6203   -2.4664    0.4905 H   0  0  0  0  0  0  0  0  0  0  0  0
    0.0826   -4.6744    1.4766 H   0  0  0  0  0  0  0  0  0  0  0  0
    1.8858   -6.3107    1.9848 H   0  0  0  0  0  0  0  0  0  0  0  0
    4.2679   -5.7487    1.4774 H   0  0  0  0  0  0  0  0  0  0  0  0
    5.1604   -1.9218    2.8959 H   0  0  0  0  0  0  0  0  0  0  0  0
    7.0419   -2.0586    4.5305 H   0  0  0  0  0  0  0  0  0  0  0  0
    9.0727   -3.3896    4.0034 H   0  0  0  0  0  0  0  0  0  0  0  0
    9.2584   -4.6062    1.8359 H   0  0  0  0  0  0  0  0  0  0  0  0
    8.9556   -5.6789   -0.5423 H   0  0  0  0  0  0  0  0  0  0  0  0
    8.2072   -6.4543   -2.7897 H   0  0  0  0  0  0  0  0  0  0  0  0
    5.9946   -5.7665   -3.6869 H   0  0  0  0  0  0  0  0  0  0  0  0
    4.4915   -4.2892   -2.3493 H   0  0  0  0  0  0  0  0  0  0  0  0
    1.4270   -0.0171    1.6859 H   0  0  0  0  0  0  0  0  0  0  0  0
   -0.9427    0.6928    1.9021 H   0  0  0  0  0  0  0  0  0  0  0  0
  1  2  2  0
  1 31  1  0
  1 32  1  0
  2  3  1  0
  2 33  1  0
  3  4  2  0
  3 34  1  0
  4  5  1  0
  4 30  1  0
  5  6  2  0
  5 10  1  0
  6  7  1  0
  6 35  1  0
  7  8  2  0
  7 36  1  0
  8  9  1  0
  8 37  1  0
  9 10  2  0
 17  9  1  6
 10 11  1  0
 11 12  2  0
 11 16  1  0
 12 13  1  0
 12 38  1  0
 13 14  2  0
 13 39  1  0
 14 15  1  0
 14 40  1  0
 15 16  2  0
 15 41  1  0
 16 17  1  0
 17 18  1  0
 17 29  1  0
 18 19  2  0
 18 23  1  0
 19 20  1  0
 19 42  1  0
 20 21  2  0
 20 43  1  0
 21 22  1  0
 21 44  1  0
 22 23  2  0
 22 45  1  0
 23 24  1  0
 24 25  2  0
 24 29  1  0
 25 26  1  0
 25 46  1  0
 26 27  2  0
 26 47  1  0
 27 28  1  0
 27 48  1  0
 28 29  2  0
 28 49  1  0
 30 31  2  0
 30 50  1  0
 31 51  1  0
M  END

