
     RDKit          3D

 59 58  0  0  0  0  0  0  0  0999 V2000
    0.6239   -2.3112    2.1579 C   0  0  0  0  0  0  0  0  0  0  0  0
    2.3751   -1.8781    1.9190 S   0  0  0  0  0  0  0  0  0  0  0  0
    3.1491   -3.4620    2.4355 C   0  0  0  0  0  0  0  0  0  0  0  0
    4.6752   -3.4042    2.3636 C   0  0  0  0  0  0  0  0  0  0  0  0
    5.3088   -2.2634    3.1859 C   0  0  1  0  0  0  0  0  0  0  0  0
    4.8602   -2.1569    4.5751 N   0  0  0  0  0  0  0  0  0  0  0  0
    6.8458   -2.3461    3.0907 C   0  0  0  0  0  0  0  0  0  0  0  0
    7.4195   -2.6783    2.0664 O   0  0  0  0  0  0  0  0  0  0  0  0
    7.4812   -1.9901    4.2446 N   0  0  0  0  0  0  0  0  0  0  0  0
    8.9276   -1.9585    4.3650 C   0  0  1  0  0  0  0  0  0  0  0  0
    9.4873   -0.5217    4.3433 C   0  0  0  0  0  0  0  0  0  0  0  0
   11.0191   -0.4172    4.3957 C   0  0  0  0  0  0  0  0  0  0  0  0
   11.7773   -1.1892    3.3054 C   0  0  0  0  0  0  0  0  0  0  0  0
   11.3783   -0.8374    1.8696 C   0  0  0  0  0  0  0  0  0  0  0  0
   12.2363   -1.5320    0.9169 N   0  0  0  0  0  0  0  0  0  0  0  0
    9.3816   -2.7668    5.5898 C   0  0  0  0  0  0  0  0  0  0  0  0
   10.1251   -3.7237    5.5126 O   0  0  0  0  0  0  0  0  0  0  0  0
    8.8538   -2.3447    6.7981 N   0  0  0  0  0  0  0  0  0  0  0  0
    9.1727   -3.0055    8.0414 C   0  0  0  0  0  0  0  0  0  0  0  0
    8.0065   -3.7153    8.7201 C   0  0  0  0  0  0  0  0  0  0  0  0
    8.1204   -4.1484    9.8705 O   0  0  0  0  0  0  0  0  0  0  0  0
    6.8671   -3.8510    8.0097 N   0  0  0  0  0  0  0  0  0  0  0  0
    5.6650   -4.4500    8.5809 C   0  0  1  0  0  0  0  0  0  0  0  0
    4.4430   -4.0917    7.7348 C   0  0  0  0  0  0  0  0  0  0  0  0
    4.5676   -4.5760    6.4158 O   0  0  0  0  0  0  0  0  0  0  0  0
    5.8134   -5.9859    8.7059 C   0  0  0  0  0  0  0  0  0  0  0  0
    5.1260   -6.7477    8.0609 O   0  0  0  0  0  0  0  0  0  0  0  0
    6.7357   -6.4001    9.5569 O   0  0  0  0  0  0  0  0  0  0  0  0
    0.0331   -1.4228    1.8928 H   0  0  0  0  0  0  0  0  0  0  0  0
    0.4130   -2.5779    3.2054 H   0  0  0  0  0  0  0  0  0  0  0  0
    0.3248   -3.1430    1.5011 H   0  0  0  0  0  0  0  0  0  0  0  0
    2.7767   -4.2681    1.7829 H   0  0  0  0  0  0  0  0  0  0  0  0
    2.8215   -3.6885    3.4641 H   0  0  0  0  0  0  0  0  0  0  0  0
    5.0159   -3.3092    1.3221 H   0  0  0  0  0  0  0  0  0  0  0  0
    5.0663   -4.3711    2.7268 H   0  0  0  0  0  0  0  0  0  0  0  0
    5.0529   -1.3084    2.6925 H   0  0  0  0  0  0  0  0  0  0  0  0
    4.7411   -3.0826    4.9989 H   0  0  0  0  0  0  0  0  0  0  0  0
    3.9520   -1.6943    4.6066 H   0  0  0  0  0  0  0  0  0  0  0  0
    6.8472   -1.6787    4.9806 H   0  0  0  0  0  0  0  0  0  0  0  0
    9.3104   -2.5103    3.4971 H   0  0  0  0  0  0  0  0  0  0  0  0
    9.0527    0.0576    5.1798 H   0  0  0  0  0  0  0  0  0  0  0  0
    9.1023   -0.0472    3.4260 H   0  0  0  0  0  0  0  0  0  0  0  0
   11.3786   -0.7588    5.3824 H   0  0  0  0  0  0  0  0  0  0  0  0
   11.2832    0.6539    4.3381 H   0  0  0  0  0  0  0  0  0  0  0  0
   11.6652   -2.2765    3.4471 H   0  0  0  0  0  0  0  0  0  0  0  0
   12.8562   -0.9842    3.4308 H   0  0  0  0  0  0  0  0  0  0  0  0
   11.3764    0.2722    1.7589 H   0  0  0  0  0  0  0  0  0  0  0  0
   10.3414   -1.1643    1.6810 H   0  0  0  0  0  0  0  0  0  0  0  0
   13.1826   -1.1498    0.9436 H   0  0  0  0  0  0  0  0  0  0  0  0
   11.8994   -1.3989   -0.0360 H   0  0  0  0  0  0  0  0  0  0  0  0
    8.3804   -1.4491    6.8365 H   0  0  0  0  0  0  0  0  0  0  0  0
    9.6046   -2.3180    8.7870 H   0  0  0  0  0  0  0  0  0  0  0  0
    9.9380   -3.7668    7.8198 H   0  0  0  0  0  0  0  0  0  0  0  0
    6.8565   -3.6133    7.0209 H   0  0  0  0  0  0  0  0  0  0  0  0
    5.5417   -4.0463    9.6016 H   0  0  0  0  0  0  0  0  0  0  0  0
    4.3509   -2.9957    7.6748 H   0  0  0  0  0  0  0  0  0  0  0  0
    3.5394   -4.4845    8.2338 H   0  0  0  0  0  0  0  0  0  0  0  0
    4.6008   -5.5474    6.4977 H   0  0  0  0  0  0  0  0  0  0  0  0
    7.2529   -5.6260    9.9114 H   0  0  0  0  0  0  0  0  0  0  0  0
  1  2  1  0
  1 29  1  0
  1 30  1  0
  1 31  1  0
  2  3  1  0
  3  4  1  0
  3 32  1  0
  3 33  1  0
  4  5  1  0
  4 34  1  0
  4 35  1  0
  5  6  1  0
  5  7  1  0
  5 36  1  6
  6 37  1  0
  6 38  1  0
  7  8  2  0
  7  9  1  0
  9 10  1  0
  9 39  1  0
 10 11  1  0
 10 16  1  0
 10 40  1  6
 11 12  1  0
 11 41  1  0
 11 42  1  0
 12 13  1  0
 12 43  1  0
 12 44  1  0
 13 14  1  0
 13 45  1  0
 13 46  1  0
 14 15  1  0
 14 47  1  0
 14 48  1  0
 15 49  1  0
 15 50  1  0
 16 17  2  0
 16 18  1  0
 18 19  1  0
 18 51  1  0
 19 20  1  0
 19 52  1  0
 19 53  1  0
 20 21  2  0
 20 22  1  0
 22 23  1  0
 22 54  1  0
 23 24  1  0
 23 26  1  0
 23 55  1  1
 24 25  1  0
 24 56  1  0
 24 57  1  0
 25 58  1  0
 26 27  2  0
 26 28  1  0
 28 59  1  0
M  END

