
     RDKit          3D

 34 34  0  0  0  0  0  0  0  0999 V2000
    2.7752   -1.6036   -0.2288 C   0  0  0  0  0  0  0  0  0  0  0  0
    2.5153   -0.1652    0.2213 C   0  0  0  0  0  0  0  0  0  0  0  0
    3.0971    0.9190   -0.7072 C   0  0  1  0  0  0  0  0  0  0  0  0
    2.5454    0.8704   -2.1435 C   0  0  0  0  0  0  0  0  0  0  0  0
    1.0910    0.8535   -2.2755 N   0  0  0  0  0  0  0  0  0  0  0  0
    0.3639    1.9664   -2.5290 C   0  0  0  0  0  0  0  0  0  0  0  0
    0.8754    3.0875   -2.5492 O   0  0  0  0  0  0  0  0  0  0  0  0
   -1.1157    1.7693   -2.8341 C   0  0  0  0  0  0  0  0  0  0  0  0
   -1.3977    1.7897   -4.3275 C   0  0  0  0  0  0  0  0  0  0  0  0
   -2.0075    0.6975   -4.9595 C   0  0  0  0  0  0  0  0  0  0  0  0
   -2.2740    0.7109   -6.3320 C   0  0  0  0  0  0  0  0  0  0  0  0
   -1.9210    1.8331   -7.0837 C   0  0  0  0  0  0  0  0  0  0  0  0
   -2.2786    1.8652   -8.9564 Br  0  0  0  0  0  0  0  0  0  0  0  0
   -1.3090    2.9343   -6.4765 C   0  0  0  0  0  0  0  0  0  0  0  0
   -1.0518    2.9073   -5.1051 C   0  0  0  0  0  0  0  0  0  0  0  0
    3.0896    2.2867    0.0236 C   0  0  0  0  0  0  0  0  0  0  0  0
    3.5235    2.3539    1.1477 O   0  0  0  0  0  0  0  0  0  0  0  0
    2.6764    3.3795   -0.6140 O   0  0  0  0  0  0  0  0  0  0  0  0
    2.3966   -2.3200    0.5171 H   0  0  0  0  0  0  0  0  0  0  0  0
    3.8540   -1.7965   -0.3530 H   0  0  0  0  0  0  0  0  0  0  0  0
    2.2876   -1.8521   -1.1874 H   0  0  0  0  0  0  0  0  0  0  0  0
    2.9556   -0.0006    1.2151 H   0  0  0  0  0  0  0  0  0  0  0  0
    1.4298    0.0049    0.3368 H   0  0  0  0  0  0  0  0  0  0  0  0
    4.1795    0.7129   -0.8079 H   0  0  0  0  0  0  0  0  0  0  0  0
    2.9268   -0.0371   -2.6356 H   0  0  0  0  0  0  0  0  0  0  0  0
    2.9204    1.7241   -2.7268 H   0  0  0  0  0  0  0  0  0  0  0  0
    0.6172   -0.0414   -2.2654 H   0  0  0  0  0  0  0  0  0  0  0  0
   -1.6436    2.5986   -2.3377 H   0  0  0  0  0  0  0  0  0  0  0  0
   -1.4830    0.8295   -2.3946 H   0  0  0  0  0  0  0  0  0  0  0  0
   -2.2904   -0.1824   -4.3745 H   0  0  0  0  0  0  0  0  0  0  0  0
   -2.7529   -0.1446   -6.8110 H   0  0  0  0  0  0  0  0  0  0  0  0
   -1.0366    3.8077   -7.0714 H   0  0  0  0  0  0  0  0  0  0  0  0
   -0.5655    3.7617   -4.6288 H   0  0  0  0  0  0  0  0  0  0  0  0
    2.1409    3.2375   -1.4351 H   0  0  0  0  0  0  0  0  0  0  0  0
  1  2  1  0
  1 19  1  0
  1 20  1  0
  1 21  1  0
  2  3  1  0
  2 22  1  0
  2 23  1  0
  3  4  1  0
  3 16  1  0
  3 24  1  6
  4  5  1  0
  4 25  1  0
  4 26  1  0
  5  6  1  0
  5 27  1  0
  6  7  2  0
  6  8  1  0
  8  9  1  0
  8 28  1  0
  8 29  1  0
  9 10  2  0
  9 15  1  0
 10 11  1  0
 10 30  1  0
 11 12  2  0
 11 31  1  0
 12 13  1  0
 12 14  1  0
 14 15  2  0
 14 32  1  0
 15 33  1  0
 16 17  2  0
 16 18  1  0
 18 34  1  0
M  END

