
     RDKit          3D

 43 46  0  0  0  0  0  0  0  0999 V2000
    0.9546    0.3309    0.9712 C   0  0  0  0  0  0  0  0  0  0  0  0
    2.3846    0.3154    0.5284 C   0  0  0  0  0  0  0  0  0  0  0  0
    3.0673   -0.8383    0.4444 N   0  0  0  0  0  0  0  0  0  0  0  0
    4.3105   -0.5430    0.0269 N   0  0  0  0  0  0  0  0  0  0  0  0
    5.3092   -1.5762   -0.1664 C   0  0  0  0  0  0  0  0  0  0  0  0
    4.4361    0.7906   -0.1576 C   0  0  0  0  0  0  0  0  0  0  0  0
    3.2379    1.3822    0.1517 C   0  0  0  0  0  0  0  0  0  0  0  0
    3.3529    2.8695   -0.0610 C   0  0  2  0  0  0  0  0  0  0  0  0
    2.3256    3.4122   -1.0502 C   0  0  0  0  0  0  0  0  0  0  0  0
    2.4905    3.2597   -2.4344 C   0  0  0  0  0  0  0  0  0  0  0  0
    1.5096    3.7119   -3.3175 C   0  0  0  0  0  0  0  0  0  0  0  0
    0.3441    4.3131   -2.8335 C   0  0  0  0  0  0  0  0  0  0  0  0
    0.1721    4.4634   -1.4549 C   0  0  0  0  0  0  0  0  0  0  0  0
   -1.0983    5.0595   -0.9008 C   0  0  1  0  0  0  0  0  0  0  0  0
   -1.7319    5.8276   -1.8019 F   0  0  0  0  0  0  0  0  0  0  0  0
   -1.9657    4.1006   -0.5192 F   0  0  0  0  0  0  0  0  0  0  0  0
   -0.8595    5.8191    0.1844 F   0  0  0  0  0  0  0  0  0  0  0  0
    1.1631    4.0215   -0.5692 C   0  0  0  0  0  0  0  0  0  0  0  0
    4.7627    3.0037   -0.5179 N   0  0  0  0  0  0  0  0  0  0  0  0
    5.3565    4.2731   -0.7337 C   0  0  0  0  0  0  0  0  0  0  0  0
    6.5671    4.4060   -1.4444 C   0  0  0  0  0  0  0  0  0  0  0  0
    7.1270    5.6687   -1.6432 C   0  0  0  0  0  0  0  0  0  0  0  0
    6.5050    6.8210   -1.1551 C   0  0  0  0  0  0  0  0  0  0  0  0
    5.3035    6.6935   -0.4559 C   0  0  0  0  0  0  0  0  0  0  0  0
    4.7329    5.4371   -0.2430 C   0  0  0  0  0  0  0  0  0  0  0  0
    5.4444    1.7694   -0.5829 C   0  0  0  0  0  0  0  0  0  0  0  0
    6.5994    1.5768   -0.9116 O   0  0  0  0  0  0  0  0  0  0  0  0
    0.6000   -0.6983    1.1183 H   0  0  0  0  0  0  0  0  0  0  0  0
    0.3074    0.8233    0.2275 H   0  0  0  0  0  0  0  0  0  0  0  0
    0.8325    0.8761    1.9222 H   0  0  0  0  0  0  0  0  0  0  0  0
    4.9652   -2.3005   -0.9198 H   0  0  0  0  0  0  0  0  0  0  0  0
    5.4940   -2.1076    0.7791 H   0  0  0  0  0  0  0  0  0  0  0  0
    6.2347   -1.0947   -0.5083 H   0  0  0  0  0  0  0  0  0  0  0  0
    3.2301    3.4034    0.8974 H   0  0  0  0  0  0  0  0  0  0  0  0
    3.3992    2.7933   -2.8212 H   0  0  0  0  0  0  0  0  0  0  0  0
    1.6538    3.5979   -4.3944 H   0  0  0  0  0  0  0  0  0  0  0  0
   -0.4233    4.6714   -3.5214 H   0  0  0  0  0  0  0  0  0  0  0  0
    1.0247    4.1640    0.5056 H   0  0  0  0  0  0  0  0  0  0  0  0
    7.0681    3.5181   -1.8205 H   0  0  0  0  0  0  0  0  0  0  0  0
    8.0677    5.7469   -2.1945 H   0  0  0  0  0  0  0  0  0  0  0  0
    6.9500    7.8052   -1.3188 H   0  0  0  0  0  0  0  0  0  0  0  0
    4.7969    7.5797   -0.0651 H   0  0  0  0  0  0  0  0  0  0  0  0
    3.7955    5.3777    0.3083 H   0  0  0  0  0  0  0  0  0  0  0  0
  1  2  1  0
  1 28  1  0
  1 29  1  0
  1 30  1  0
  2  3  2  0
  2  7  1  0
  3  4  1  0
  4  5  1  0
  4  6  1  0
  5 31  1  0
  5 32  1  0
  5 33  1  0
  6  7  2  0
  6 26  1  0
  7  8  1  0
  8  9  1  0
  8 19  1  0
  8 34  1  1
  9 10  2  0
  9 18  1  0
 10 11  1  0
 10 35  1  0
 11 12  2  0
 11 36  1  0
 12 13  1  0
 12 37  1  0
 13 14  1  0
 13 18  2  0
 14 15  1  6
 14 16  1  0
 14 17  1  0
 18 38  1  0
 19 20  1  0
 19 26  1  0
 20 21  2  0
 20 25  1  0
 21 22  1  0
 21 39  1  0
 22 23  2  0
 22 40  1  0
 23 24  1  0
 23 41  1  0
 24 25  2  0
 24 42  1  0
 25 43  1  0
 26 27  2  0
M  END

