
     RDKit          3D

 37 39  0  0  0  0  0  0  0  0999 V2000
    7.0192    0.5904   -3.1118 O   0  0  0  0  0  0  0  0  0  0  0  0
    5.9668    1.1401   -3.2929 C   0  0  0  0  0  0  0  0  0  0  0  0
    5.8098    2.0041   -4.3246 O   0  0  0  0  0  0  0  0  0  0  0  0
    4.7295    0.9631   -2.3890 C   0  0  2  0  0  0  0  0  0  0  0  0
    3.8346    0.9210   -3.0413 H   0  0  0  0  0  0  0  0  0  0  0  0
    4.6376    2.1276   -1.3781 C   0  0  0  0  0  0  0  0  0  0  0  0
    5.5900    1.6701   -0.2581 C   0  0  0  0  0  0  0  0  0  0  0  0
    5.5172    0.1269   -0.2922 C   0  0  0  0  0  0  0  0  0  0  0  0
    4.7781   -0.1893   -1.5214 N   0  0  0  0  0  0  0  0  0  0  0  0
    4.9662   -1.5024   -2.1029 C   0  0  0  0  0  0  0  0  0  0  0  0
    4.3262   -2.5884   -1.2716 C   0  0  0  0  0  0  0  0  0  0  0  0
    3.1745   -2.5294   -0.5230 C   0  0  0  0  0  0  0  0  0  0  0  0
    2.8400   -3.7677    0.0952 C   0  0  0  0  0  0  0  0  0  0  0  0
    3.7352   -4.7840   -0.1755 C   0  0  0  0  0  0  0  0  0  0  0  0
    3.7126   -6.1802    0.2845 C   0  0  0  0  0  0  0  0  0  0  0  0
    2.5051   -6.7750    0.7061 C   0  0  0  0  0  0  0  0  0  0  0  0
    2.4744   -8.0935    1.1601 C   0  0  0  0  0  0  0  0  0  0  0  0
    3.6449   -8.8586    1.1943 C   0  0  0  0  0  0  0  0  0  0  0  0
    4.8484   -8.2866    0.7713 C   0  0  0  0  0  0  0  0  0  0  0  0
    4.8832   -6.9644    0.3265 C   0  0  0  0  0  0  0  0  0  0  0  0
    5.0119   -4.1853   -1.2145 S   0  0  0  0  0  0  0  0  0  0  0  0
    4.9025    2.3421   -4.3471 H   0  0  0  0  0  0  0  0  0  0  0  0
    3.6004    2.1936   -1.0151 H   0  0  0  0  0  0  0  0  0  0  0  0
    4.9110    3.1028   -1.8100 H   0  0  0  0  0  0  0  0  0  0  0  0
    5.3099    2.0874    0.7203 H   0  0  0  0  0  0  0  0  0  0  0  0
    6.6150    2.0049   -0.4761 H   0  0  0  0  0  0  0  0  0  0  0  0
    4.9930   -0.2901    0.5847 H   0  0  0  0  0  0  0  0  0  0  0  0
    6.5322   -0.3131   -0.3040 H   0  0  0  0  0  0  0  0  0  0  0  0
    6.0370   -1.7382   -2.2705 H   0  0  0  0  0  0  0  0  0  0  0  0
    4.4995   -1.4988   -3.1053 H   0  0  0  0  0  0  0  0  0  0  0  0
    2.5968   -1.6103   -0.4171 H   0  0  0  0  0  0  0  0  0  0  0  0
    1.9747   -3.8997    0.7465 H   0  0  0  0  0  0  0  0  0  0  0  0
    1.5771   -6.2015    0.6592 H   0  0  0  0  0  0  0  0  0  0  0  0
    1.5249   -8.5312    1.4795 H   0  0  0  0  0  0  0  0  0  0  0  0
    3.6184   -9.8931    1.5453 H   0  0  0  0  0  0  0  0  0  0  0  0
    5.7715   -8.8715    0.7948 H   0  0  0  0  0  0  0  0  0  0  0  0
    5.8366   -6.5264    0.0204 H   0  0  0  0  0  0  0  0  0  0  0  0
  1  2  2  0
  2  3  1  0
  2  4  1  0
  3 22  1  0
  4  5  1  6
  4  6  1  0
  4  9  1  0
  6  7  1  0
  6 23  1  0
  6 24  1  0
  7  8  1  0
  7 25  1  0
  7 26  1  0
  8  9  1  0
  8 27  1  0
  8 28  1  0
  9 10  1  0
 10 11  1  0
 10 29  1  0
 10 30  1  0
 11 12  2  0
 11 21  1  0
 12 13  1  0
 12 31  1  0
 13 14  2  0
 13 32  1  0
 14 15  1  0
 14 21  1  0
 15 16  2  0
 15 20  1  0
 16 17  1  0
 16 33  1  0
 17 18  2  0
 17 34  1  0
 18 19  1  0
 18 35  1  0
 19 20  2  0
 19 36  1  0
 20 37  1  0
M  END

