
     RDKit          3D

 38 38  0  0  0  0  0  0  0  0999 V2000
    0.8576    0.3674    0.0963 C   0  0  0  0  0  0  0  0  0  0  0  0
    2.3678    0.1169    0.0968 C   0  0  0  0  0  0  0  0  0  0  0  0
    2.9077   -0.5421    1.3904 C   0  0  1  0  0  0  0  0  0  0  0  0
    2.3214   -1.9487    1.6400 C   0  0  0  0  0  0  0  0  0  0  0  0
    2.7906   -2.6039    2.9366 C   0  0  0  0  0  0  0  0  0  0  0  0
    2.0506   -3.8920    3.2785 C   0  0  0  0  0  0  0  0  0  0  0  0
    2.6409   -4.7298    4.3995 C   0  0  0  0  0  0  0  0  0  0  0  0
    1.0461   -4.2324    2.6931 O   0  0  0  0  0  0  0  0  0  0  0  0
    4.4330   -0.4623    1.4774 C   0  0  0  0  0  0  0  0  0  0  0  0
    4.9913    0.3776    2.4613 C   0  0  0  0  0  0  0  0  0  0  0  0
    6.3629    0.5711    2.6526 C   0  0  0  0  0  0  0  0  0  0  0  0
    6.8635    1.4951    3.7344 C   0  0  0  0  0  0  0  0  0  0  0  0
    7.2651   -0.1159    1.8108 C   0  0  0  0  0  0  0  0  0  0  0  0
    8.7566    0.0481    1.9631 C   0  0  0  0  0  0  0  0  0  0  0  0
    6.7415   -0.9564    0.8240 C   0  0  0  0  0  0  0  0  0  0  0  0
    5.3623   -1.1262    0.6581 C   0  0  0  0  0  0  0  0  0  0  0  0
    4.8497   -2.3218   -0.7605 Br  0  0  0  0  0  0  0  0  0  0  0  0
    0.5554    0.9164   -0.8099 H   0  0  0  0  0  0  0  0  0  0  0  0
    0.5476    0.9706    0.9668 H   0  0  0  0  0  0  0  0  0  0  0  0
    0.2779   -0.5685    0.1178 H   0  0  0  0  0  0  0  0  0  0  0  0
    2.8902    1.0800   -0.0348 H   0  0  0  0  0  0  0  0  0  0  0  0
    2.6417   -0.4990   -0.7744 H   0  0  0  0  0  0  0  0  0  0  0  0
    2.5470    0.0888    2.2229 H   0  0  0  0  0  0  0  0  0  0  0  0
    2.5469   -2.6164    0.7953 H   0  0  0  0  0  0  0  0  0  0  0  0
    1.2244   -1.8749    1.6735 H   0  0  0  0  0  0  0  0  0  0  0  0
    2.6476   -1.9214    3.7980 H   0  0  0  0  0  0  0  0  0  0  0  0
    3.8748   -2.8126    2.9231 H   0  0  0  0  0  0  0  0  0  0  0  0
    2.9032   -4.1082    5.2709 H   0  0  0  0  0  0  0  0  0  0  0  0
    3.5755   -5.2012    4.0495 H   0  0  0  0  0  0  0  0  0  0  0  0
    1.9321   -5.5156    4.6925 H   0  0  0  0  0  0  0  0  0  0  0  0
    4.2988    0.9144    3.1171 H   0  0  0  0  0  0  0  0  0  0  0  0
    6.0317    1.9462    4.2945 H   0  0  0  0  0  0  0  0  0  0  0  0
    7.4722    2.3158    3.3178 H   0  0  0  0  0  0  0  0  0  0  0  0
    7.5074    0.9649    4.4569 H   0  0  0  0  0  0  0  0  0  0  0  0
    9.0648    1.0986    1.8259 H   0  0  0  0  0  0  0  0  0  0  0  0
    9.3049   -0.5608    1.2301 H   0  0  0  0  0  0  0  0  0  0  0  0
    9.0968   -0.2489    2.9698 H   0  0  0  0  0  0  0  0  0  0  0  0
    7.4216   -1.4951    0.1613 H   0  0  0  0  0  0  0  0  0  0  0  0
  1  2  1  0
  1 18  1  0
  1 19  1  0
  1 20  1  0
  2  3  1  0
  2 21  1  0
  2 22  1  0
  3  4  1  0
  3  9  1  0
  3 23  1  1
  4  5  1  0
  4 24  1  0
  4 25  1  0
  5  6  1  0
  5 26  1  0
  5 27  1  0
  6  7  1  0
  6  8  2  0
  7 28  1  0
  7 29  1  0
  7 30  1  0
  9 10  2  0
  9 16  1  0
 10 11  1  0
 10 31  1  0
 11 12  1  0
 11 13  2  0
 12 32  1  0
 12 33  1  0
 12 34  1  0
 13 14  1  0
 13 15  1  0
 14 35  1  0
 14 36  1  0
 14 37  1  0
 15 16  2  0
 15 38  1  0
 16 17  1  0
M  END

