
     RDKit          3D

 49 52  0  0  0  0  0  0  0  0999 V2000
    3.1896    1.2062    0.2845 O   0  0  0  0  0  0  0  0  0  0  0  0
    2.5300    0.3284   -0.2425 C   0  0  0  0  0  0  0  0  0  0  0  0
    0.9883    0.4179   -0.2838 C   0  0  0  0  0  0  0  0  0  0  0  0
    0.4210    0.5919   -1.6243 N   0  0  0  0  0  0  0  0  0  0  0  0
    0.0854    1.8798   -1.9255 N   0  0  0  0  0  0  0  0  0  0  0  0
   -0.4350    2.1637   -3.0366 N   0  0  0  0  0  0  0  0  0  0  0  0
   -0.6909    1.1705   -3.9738 C   0  0  0  0  0  0  0  0  0  0  0  0
   -1.2862    1.5423   -5.1967 C   0  0  0  0  0  0  0  0  0  0  0  0
   -1.5651    0.5683   -6.1446 C   0  0  0  0  0  0  0  0  0  0  0  0
   -1.2596   -0.7863   -5.8947 C   0  0  0  0  0  0  0  0  0  0  0  0
   -0.6706   -1.1640   -4.6949 C   0  0  0  0  0  0  0  0  0  0  0  0
   -0.3823   -0.1835   -3.7292 C   0  0  0  0  0  0  0  0  0  0  0  0
    0.2487   -0.5184   -2.4557 C   0  0  0  0  0  0  0  0  0  0  0  0
    0.6073   -1.6385   -2.1075 O   0  0  0  0  0  0  0  0  0  0  0  0
    3.0465   -0.8017   -0.7972 N   0  0  0  0  0  0  0  0  0  0  0  0
    4.4718   -1.0423   -0.8903 C   0  0  0  0  0  0  0  0  0  0  0  0
    4.9390   -1.2968   -2.3415 C   0  0  1  0  0  0  0  0  0  0  0  0
    4.6127   -0.1250   -3.2674 C   0  0  0  0  0  0  0  0  0  0  0  0
    5.2342    1.1247   -3.1128 C   0  0  0  0  0  0  0  0  0  0  0  0
    4.9175    2.1913   -3.9563 C   0  0  0  0  0  0  0  0  0  0  0  0
    3.9736    2.0289   -4.9761 C   0  0  0  0  0  0  0  0  0  0  0  0
    3.3487    0.7910   -5.1424 C   0  0  0  0  0  0  0  0  0  0  0  0
    3.6666   -0.2742   -4.2923 C   0  0  0  0  0  0  0  0  0  0  0  0
    6.4098   -1.7024   -2.4211 C   0  0  0  0  0  0  0  0  0  0  0  0
    7.3770   -1.2363   -1.5162 C   0  0  0  0  0  0  0  0  0  0  0  0
    8.7193   -1.6112   -1.6421 C   0  0  0  0  0  0  0  0  0  0  0  0
    9.1209   -2.4610   -2.6746 C   0  0  0  0  0  0  0  0  0  0  0  0
    8.1678   -2.9357   -3.5817 C   0  0  0  0  0  0  0  0  0  0  0  0
    6.8298   -2.5599   -3.4523 C   0  0  0  0  0  0  0  0  0  0  0  0
    0.7031    1.3002    0.2968 H   0  0  0  0  0  0  0  0  0  0  0  0
    0.5489   -0.4920    0.1513 H   0  0  0  0  0  0  0  0  0  0  0  0
   -1.5139    2.5969   -5.3607 H   0  0  0  0  0  0  0  0  0  0  0  0
   -2.0273    0.8507   -7.0937 H   0  0  0  0  0  0  0  0  0  0  0  0
   -1.4885   -1.5405   -6.6514 H   0  0  0  0  0  0  0  0  0  0  0  0
   -0.4227   -2.2042   -4.4763 H   0  0  0  0  0  0  0  0  0  0  0  0
    2.3897   -1.4621   -1.2127 H   0  0  0  0  0  0  0  0  0  0  0  0
    4.7556   -1.9114   -0.2701 H   0  0  0  0  0  0  0  0  0  0  0  0
    4.9602   -0.1588   -0.4577 H   0  0  0  0  0  0  0  0  0  0  0  0
    4.3592   -2.1589   -2.7128 H   0  0  0  0  0  0  0  0  0  0  0  0
    5.9781    1.2689   -2.3256 H   0  0  0  0  0  0  0  0  0  0  0  0
    5.4105    3.1566   -3.8158 H   0  0  0  0  0  0  0  0  0  0  0  0
    3.7272    2.8645   -5.6360 H   0  0  0  0  0  0  0  0  0  0  0  0
    2.6095    0.6504   -5.9356 H   0  0  0  0  0  0  0  0  0  0  0  0
    3.1680   -1.2388   -4.4257 H   0  0  0  0  0  0  0  0  0  0  0  0
    7.0916   -0.5728   -0.6974 H   0  0  0  0  0  0  0  0  0  0  0  0
    9.4534   -1.2359   -0.9242 H   0  0  0  0  0  0  0  0  0  0  0  0
   10.1692   -2.7547   -2.7714 H   0  0  0  0  0  0  0  0  0  0  0  0
    8.4678   -3.6046   -4.3927 H   0  0  0  0  0  0  0  0  0  0  0  0
    6.0928   -2.9358   -4.1681 H   0  0  0  0  0  0  0  0  0  0  0  0
  1  2  2  0
  2  3  1  0
  2 15  1  0
  3  4  1  0
  3 30  1  0
  3 31  1  0
  4  5  1  0
  4 13  1  0
  5  6  2  0
  6  7  1  0
  7  8  2  0
  7 12  1  0
  8  9  1  0
  8 32  1  0
  9 10  2  0
  9 33  1  0
 10 11  1  0
 10 34  1  0
 11 12  2  0
 11 35  1  0
 12 13  1  0
 13 14  2  0
 15 16  1  0
 15 36  1  0
 16 17  1  0
 16 37  1  0
 16 38  1  0
 17 18  1  0
 17 24  1  0
 17 39  1  6
 18 19  2  0
 18 23  1  0
 19 20  1  0
 19 40  1  0
 20 21  2  0
 20 41  1  0
 21 22  1  0
 21 42  1  0
 22 23  2  0
 22 43  1  0
 23 44  1  0
 24 25  2  0
 24 29  1  0
 25 26  1  0
 25 45  1  0
 26 27  2  0
 26 46  1  0
 27 28  1  0
 27 47  1  0
 28 29  2  0
 28 48  1  0
 29 49  1  0
M  END

