
     RDKit          3D

 28 29  0  0  0  0  0  0  0  0999 V2000
    1.2415    1.0604   -0.0526 O   0  0  0  0  0  0  0  0  0  0  0  0
    2.1718    0.3233   -0.3603 C   0  0  0  0  0  0  0  0  0  0  0  0
    2.3600   -1.0459    0.1409 C   0  0  0  0  0  0  0  0  0  0  0  0
    1.5662   -1.8440    0.9162 C   0  0  0  0  0  0  0  0  0  0  0  0
    0.2552   -1.7447    1.5440 C   0  0  0  0  0  0  0  0  0  0  0  0
   -0.2064   -2.8959    2.2270 C   0  0  0  0  0  0  0  0  0  0  0  0
   -1.4421   -2.9295    2.8612 C   0  0  0  0  0  0  0  0  0  0  0  0
   -2.2687   -1.7941    2.8356 C   0  0  0  0  0  0  0  0  0  0  0  0
   -3.4804   -1.7604    3.4326 O   0  0  0  0  0  0  0  0  0  0  0  0
   -1.8314   -0.6372    2.1686 C   0  0  0  0  0  0  0  0  0  0  0  0
   -0.5960   -0.6108    1.5366 C   0  0  0  0  0  0  0  0  0  0  0  0
    3.2215    0.8683   -1.3115 C   0  0  0  0  0  0  0  0  0  0  0  0
    3.2327    2.2511   -1.5504 C   0  0  0  0  0  0  0  0  0  0  0  0
    4.1751    2.7827   -2.4313 C   0  0  0  0  0  0  0  0  0  0  0  0
    5.0769    2.0412   -3.0836 N   0  0  0  0  0  0  0  0  0  0  0  0
    5.0595    0.7247   -2.8702 C   0  0  0  0  0  0  0  0  0  0  0  0
    4.1654    0.0915   -1.9994 C   0  0  0  0  0  0  0  0  0  0  0  0
    3.3079   -1.5052   -0.1436 H   0  0  0  0  0  0  0  0  0  0  0  0
    2.0238   -2.8221    1.1110 H   0  0  0  0  0  0  0  0  0  0  0  0
    0.4255   -3.7879    2.2558 H   0  0  0  0  0  0  0  0  0  0  0  0
   -1.7721   -3.8352    3.3798 H   0  0  0  0  0  0  0  0  0  0  0  0
   -3.6617   -2.6102    3.8565 H   0  0  0  0  0  0  0  0  0  0  0  0
   -2.4834    0.2387    2.1620 H   0  0  0  0  0  0  0  0  0  0  0  0
   -0.2584    0.2902    1.0274 H   0  0  0  0  0  0  0  0  0  0  0  0
    2.5025    2.8846   -1.0444 H   0  0  0  0  0  0  0  0  0  0  0  0
    4.2018    3.8623   -2.6207 H   0  0  0  0  0  0  0  0  0  0  0  0
    5.7977    0.1289   -3.4203 H   0  0  0  0  0  0  0  0  0  0  0  0
    4.2088   -0.9930   -1.8905 H   0  0  0  0  0  0  0  0  0  0  0  0
  1  2  2  0
  2  3  1  0
  2 12  1  0
  3  4  2  0
  3 18  1  0
  4  5  1  0
  4 19  1  0
  5  6  2  0
  5 11  1  0
  6  7  1  0
  6 20  1  0
  7  8  2  0
  7 21  1  0
  8  9  1  0
  8 10  1  0
  9 22  1  0
 10 11  2  0
 10 23  1  0
 11 24  1  0
 12 13  2  0
 12 17  1  0
 13 14  1  0
 13 25  1  0
 14 15  2  0
 14 26  1  0
 15 16  1  0
 16 17  2  0
 16 27  1  0
 17 28  1  0
M  END

