
     RDKit          3D

 47 51  0  0  0  0  0  0  0  0999 V2000
    1.3530   -0.7418   -0.1005 F   0  0  0  0  0  0  0  0  0  0  0  0
    2.9245   -0.2585   -0.0078 Si  0  0  1  0  0  4  0  0  0  0  0  0
    3.1095    0.5082    1.6984 C   0  0  0  0  0  0  0  0  0  0  0  0
    2.0006    1.1132    2.3225 C   0  0  0  0  0  0  0  0  0  0  0  0
    2.1162    1.6948    3.5881 C   0  0  0  0  0  0  0  0  0  0  0  0
    3.3453    1.6819    4.2551 C   0  0  0  0  0  0  0  0  0  0  0  0
    4.4558    1.0804    3.6550 C   0  0  0  0  0  0  0  0  0  0  0  0
    4.3355    0.4953    2.3909 C   0  0  0  0  0  0  0  0  0  0  0  0
    3.9563   -1.8162   -0.1989 C   0  0  0  0  0  0  0  0  0  0  0  0
    5.2675   -1.7800   -0.7111 C   0  0  0  0  0  0  0  0  0  0  0  0
    6.0360   -2.9443   -0.8074 C   0  0  0  0  0  0  0  0  0  0  0  0
    5.5014   -4.1699   -0.3995 C   0  0  0  0  0  0  0  0  0  0  0  0
    4.1976   -4.2274    0.1035 C   0  0  0  0  0  0  0  0  0  0  0  0
    3.4338   -3.0615    0.2031 C   0  0  0  0  0  0  0  0  0  0  0  0
    3.2615    0.9967   -1.3710 C   0  0  0  0  0  0  0  0  0  0  0  0
    3.8418    2.1913   -1.0223 C   0  0  0  0  0  0  0  0  0  0  0  0
    4.2062    3.1923   -1.9847 C   0  0  0  0  0  0  0  0  0  0  0  0
    4.8072    4.4068   -1.5697 C   0  0  0  0  0  0  0  0  0  0  0  0
    5.1679    5.3738   -2.4903 C   0  0  0  0  0  0  0  0  0  0  0  0
    4.9337    5.1464   -3.8615 C   0  0  0  0  0  0  0  0  0  0  0  0
    4.3459    3.9662   -4.2885 C   0  0  0  0  0  0  0  0  0  0  0  0
    3.9640    2.9572   -3.3701 C   0  0  0  0  0  0  0  0  0  0  0  0
    3.3358    1.7024   -3.7723 C   0  0  0  0  0  0  0  0  0  0  0  0
    3.0539    1.4055   -5.1287 C   0  0  0  0  0  0  0  0  0  0  0  0
    2.4480    0.2179   -5.5021 C   0  0  0  0  0  0  0  0  0  0  0  0
    2.0908   -0.7271   -4.5227 C   0  0  0  0  0  0  0  0  0  0  0  0
    2.3538   -0.4671   -3.1893 C   0  0  0  0  0  0  0  0  0  0  0  0
    2.9825    0.7362   -2.7763 C   0  0  0  0  0  0  0  0  0  0  0  0
    1.0314    1.1224    1.8161 H   0  0  0  0  0  0  0  0  0  0  0  0
    1.2434    2.1570    4.0571 H   0  0  0  0  0  0  0  0  0  0  0  0
    3.4365    2.1362    5.2454 H   0  0  0  0  0  0  0  0  0  0  0  0
    5.4166    1.0599    4.1764 H   0  0  0  0  0  0  0  0  0  0  0  0
    5.2106    0.0140    1.9437 H   0  0  0  0  0  0  0  0  0  0  0  0
    5.6953   -0.8315   -1.0504 H   0  0  0  0  0  0  0  0  0  0  0  0
    7.0518   -2.8957   -1.2086 H   0  0  0  0  0  0  0  0  0  0  0  0
    6.0994   -5.0819   -0.4777 H   0  0  0  0  0  0  0  0  0  0  0  0
    3.7738   -5.1851    0.4177 H   0  0  0  0  0  0  0  0  0  0  0  0
    2.4136   -3.1212    0.5926 H   0  0  0  0  0  0  0  0  0  0  0  0
    4.0499    2.4151    0.0278 H   0  0  0  0  0  0  0  0  0  0  0  0
    4.9819    4.5666   -0.5021 H   0  0  0  0  0  0  0  0  0  0  0  0
    5.6307    6.3070   -2.1599 H   0  0  0  0  0  0  0  0  0  0  0  0
    5.2164    5.9056   -4.5952 H   0  0  0  0  0  0  0  0  0  0  0  0
    4.1785    3.8237   -5.3564 H   0  0  0  0  0  0  0  0  0  0  0  0
    3.3145    2.1252   -5.9054 H   0  0  0  0  0  0  0  0  0  0  0  0
    2.2437    0.0192   -6.5573 H   0  0  0  0  0  0  0  0  0  0  0  0
    1.6040   -1.6618   -4.8114 H   0  0  0  0  0  0  0  0  0  0  0  0
    2.0534   -1.1988   -2.4379 H   0  0  0  0  0  0  0  0  0  0  0  0
  2  1  1  6
  2  3  1  0
  2  9  1  0
  2 15  1  0
  3  4  2  0
  3  8  1  0
  4  5  1  0
  4 29  1  0
  5  6  2  0
  5 30  1  0
  6  7  1  0
  6 31  1  0
  7  8  2  0
  7 32  1  0
  8 33  1  0
  9 10  2  0
  9 14  1  0
 10 11  1  0
 10 34  1  0
 11 12  2  0
 11 35  1  0
 12 13  1  0
 12 36  1  0
 13 14  2  0
 13 37  1  0
 14 38  1  0
 15 16  2  0
 15 28  1  0
 16 17  1  0
 16 39  1  0
 17 18  2  0
 17 22  1  0
 18 19  1  0
 18 40  1  0
 19 20  2  0
 19 41  1  0
 20 21  1  0
 20 42  1  0
 21 22  2  0
 21 43  1  0
 22 23  1  0
 23 24  1  0
 23 28  2  0
 24 25  2  0
 24 44  1  0
 25 26  1  0
 25 45  1  0
 26 27  2  0
 26 46  1  0
 27 28  1  0
 27 47  1  0
M  END

