
     RDKit          3D

 41 43  0  0  0  0  0  0  0  0999 V2000
    8.5696    2.8305    1.1088 C   0  0  0  0  0  0  0  0  0  0  0  0
    8.1347    1.5021    0.8199 O   0  0  0  0  0  0  0  0  0  0  0  0
    6.9392    1.3704    0.2296 C   0  0  0  0  0  0  0  0  0  0  0  0
    6.2600    2.3532   -0.0466 O   0  0  0  0  0  0  0  0  0  0  0  0
    6.5628   -0.0403   -0.0307 C   0  0  0  0  0  0  0  0  0  0  0  0
    7.4412   -1.0748    0.3491 C   0  0  0  0  0  0  0  0  0  0  0  0
    7.1322   -2.4083    0.1140 C   0  0  0  0  0  0  0  0  0  0  0  0
    5.9209   -2.7251   -0.5148 C   0  0  0  0  0  0  0  0  0  0  0  0
    5.0272   -1.7319   -0.9024 C   0  0  0  0  0  0  0  0  0  0  0  0
    5.3266   -0.3729   -0.6689 C   0  0  0  0  0  0  0  0  0  0  0  0
    4.4665    0.6552   -1.0380 N   0  0  0  0  0  0  0  0  0  0  0  0
    3.2551    0.5966   -1.7020 C   0  0  0  0  0  0  0  0  0  0  0  0
    2.6978   -0.4407   -2.0289 O   0  0  0  0  0  0  0  0  0  0  0  0
    2.6634    1.9265   -1.9991 C   0  0  0  0  0  0  0  0  0  0  0  0
    3.2392    3.1633   -1.8462 C   0  0  0  0  0  0  0  0  0  0  0  0
    2.3596    4.1633   -2.2476 N   0  0  0  0  0  0  0  0  0  0  0  0
    2.6160    5.5508   -2.2285 C   0  0  0  0  0  0  0  0  0  0  0  0
    3.9811    5.9748   -1.7268 C   0  0  0  0  0  0  0  0  0  0  0  0
    1.7784    6.3409   -2.5977 O   0  0  0  0  0  0  0  0  0  0  0  0
    1.1664    3.5470   -2.6818 C   0  0  0  0  0  0  0  0  0  0  0  0
   -0.0197    4.1013   -3.1769 C   0  0  0  0  0  0  0  0  0  0  0  0
   -1.0417    3.2233   -3.5337 C   0  0  0  0  0  0  0  0  0  0  0  0
   -0.8764    1.8316   -3.3982 C   0  0  0  0  0  0  0  0  0  0  0  0
   -2.1965    0.7792   -3.8673 Cl  0  0  0  0  0  0  0  0  0  0  0  0
    0.2993    1.2713   -2.9071 C   0  0  0  0  0  0  0  0  0  0  0  0
    1.3338    2.1471   -2.5419 C   0  0  0  0  0  0  0  0  0  0  0  0
    9.5518    2.7299    1.5862 H   0  0  0  0  0  0  0  0  0  0  0  0
    7.8647    3.3340    1.7873 H   0  0  0  0  0  0  0  0  0  0  0  0
    8.6526    3.4244    0.1863 H   0  0  0  0  0  0  0  0  0  0  0  0
    8.3784   -0.8039    0.8347 H   0  0  0  0  0  0  0  0  0  0  0  0
    7.8258   -3.1959    0.4157 H   0  0  0  0  0  0  0  0  0  0  0  0
    5.6635   -3.7701   -0.7073 H   0  0  0  0  0  0  0  0  0  0  0  0
    4.0859   -1.9774   -1.3874 H   0  0  0  0  0  0  0  0  0  0  0  0
    4.8161    1.5728   -0.7580 H   0  0  0  0  0  0  0  0  0  0  0  0
    4.2308    3.4179   -1.4810 H   0  0  0  0  0  0  0  0  0  0  0  0
    4.1560    5.6368   -0.6937 H   0  0  0  0  0  0  0  0  0  0  0  0
    4.0209    7.0698   -1.7619 H   0  0  0  0  0  0  0  0  0  0  0  0
    4.7851    5.5625   -2.3563 H   0  0  0  0  0  0  0  0  0  0  0  0
   -0.1357    5.1777   -3.2783 H   0  0  0  0  0  0  0  0  0  0  0  0
   -1.9837    3.6111   -3.9245 H   0  0  0  0  0  0  0  0  0  0  0  0
    0.4281    0.1948   -2.8093 H   0  0  0  0  0  0  0  0  0  0  0  0
  1  2  1  0
  1 27  1  0
  1 28  1  0
  1 29  1  0
  2  3  1  0
  3  4  2  0
  3  5  1  0
  5  6  2  0
  5 10  1  0
  6  7  1  0
  6 30  1  0
  7  8  2  0
  7 31  1  0
  8  9  1  0
  8 32  1  0
  9 10  2  0
  9 33  1  0
 10 11  1  0
 11 12  1  0
 11 34  1  0
 12 13  2  0
 12 14  1  0
 14 15  2  0
 14 26  1  0
 15 16  1  0
 15 35  1  0
 16 17  1  0
 16 20  1  0
 17 18  1  0
 17 19  2  0
 18 36  1  0
 18 37  1  0
 18 38  1  0
 20 21  1  0
 20 26  2  0
 21 22  2  0
 21 39  1  0
 22 23  1  0
 22 40  1  0
 23 24  1  0
 23 25  2  0
 25 26  1  0
 25 41  1  0
M  END

