
     RDKit          3D

 52 53  0  0  0  0  0  0  0  0999 V2000
   -2.4634   -0.8928    1.0449 C   0  0  0  0  0  0  0  0  0  0  0  0
   -2.5382    0.5987    0.7179 C   0  0  0  0  0  0  0  0  0  0  0  0
   -1.2217    1.2173    0.5832 N   0  0  0  0  0  0  0  0  0  0  0  0
   -0.4996    0.9107   -0.6469 C   0  0  0  0  0  0  0  0  0  0  0  0
   -0.9396    1.7658   -1.8482 C   0  0  0  0  0  0  0  0  0  0  0  0
   -0.8626    3.1911   -1.5112 N   0  0  0  0  0  0  0  0  0  0  0  0
   -0.1151    4.0038   -2.3021 C   0  0  0  0  0  0  0  0  0  0  0  0
    0.4943    3.5937   -3.2898 O   0  0  0  0  0  0  0  0  0  0  0  0
   -0.0082    5.5277   -1.9827 C   0  0  0  0  0  0  0  0  0  0  0  0
   -0.5924    6.1208   -1.0838 O   0  0  0  0  0  0  0  0  0  0  0  0
    0.8378    6.1171   -2.8541 N   0  0  0  0  0  0  0  0  0  0  0  0
    1.1069    7.5397   -2.8473 C   0  0  0  0  0  0  0  0  0  0  0  0
    0.1755    8.3459   -3.7778 C   0  0  0  0  0  0  0  0  0  0  0  0
    0.4346    9.8339   -3.7126 C   0  0  0  0  0  0  0  0  0  0  0  0
    1.2012   10.4876   -4.6753 C   0  0  0  0  0  0  0  0  0  0  0  0
    1.4636   11.8640   -4.5763 C   0  0  0  0  0  0  0  0  0  0  0  0
    0.9649   12.6096   -3.5083 C   0  0  0  0  0  0  0  0  0  0  0  0
    1.1593   13.9389   -3.3244 O   0  0  0  0  0  0  0  0  0  0  0  0
    1.9206   14.6519   -4.2683 C   0  0  0  0  0  0  0  0  0  0  0  0
    0.1807   11.9550   -2.5163 C   0  0  0  0  0  0  0  0  0  0  0  0
   -0.2739   12.7447   -1.5132 O   0  0  0  0  0  0  0  0  0  0  0  0
   -1.0563   12.1713   -0.4929 C   0  0  0  0  0  0  0  0  0  0  0  0
   -0.0704   10.5879   -2.6319 C   0  0  0  0  0  0  0  0  0  0  0  0
   -1.6101    3.5431   -0.2977 C   0  0  0  0  0  0  0  0  0  0  0  0
   -1.1540    2.6452    0.8655 C   0  0  0  0  0  0  0  0  0  0  0  0
   -3.4739   -1.3047    1.1987 H   0  0  0  0  0  0  0  0  0  0  0  0
   -1.8723   -1.0568    1.9591 H   0  0  0  0  0  0  0  0  0  0  0  0
   -1.9958   -1.4729    0.2332 H   0  0  0  0  0  0  0  0  0  0  0  0
   -3.0564    1.1133    1.5438 H   0  0  0  0  0  0  0  0  0  0  0  0
   -3.1852    0.7430   -0.1767 H   0  0  0  0  0  0  0  0  0  0  0  0
   -0.6159   -0.1554   -0.8941 H   0  0  0  0  0  0  0  0  0  0  0  0
    0.5783    1.0824   -0.4742 H   0  0  0  0  0  0  0  0  0  0  0  0
   -1.9823    1.5275   -2.1282 H   0  0  0  0  0  0  0  0  0  0  0  0
   -0.3025    1.5857   -2.7221 H   0  0  0  0  0  0  0  0  0  0  0  0
    1.2066    5.5007   -3.5755 H   0  0  0  0  0  0  0  0  0  0  0  0
    2.1573    7.7051   -3.1358 H   0  0  0  0  0  0  0  0  0  0  0  0
    0.9847    7.8942   -1.8134 H   0  0  0  0  0  0  0  0  0  0  0  0
   -0.8653    8.1277   -3.4870 H   0  0  0  0  0  0  0  0  0  0  0  0
    0.3016    7.9859   -4.8123 H   0  0  0  0  0  0  0  0  0  0  0  0
    1.6015    9.9299   -5.5264 H   0  0  0  0  0  0  0  0  0  0  0  0
    2.0618   12.3478   -5.3487 H   0  0  0  0  0  0  0  0  0  0  0  0
    1.9478   15.6954   -3.9258 H   0  0  0  0  0  0  0  0  0  0  0  0
    1.4668   14.6189   -5.2762 H   0  0  0  0  0  0  0  0  0  0  0  0
    2.9567   14.2717   -4.3369 H   0  0  0  0  0  0  0  0  0  0  0  0
   -1.3062   12.9834    0.2032 H   0  0  0  0  0  0  0  0  0  0  0  0
   -0.5073   11.3850    0.0569 H   0  0  0  0  0  0  0  0  0  0  0  0
   -1.9935   11.7361   -0.8858 H   0  0  0  0  0  0  0  0  0  0  0  0
   -0.6750   10.0827   -1.8771 H   0  0  0  0  0  0  0  0  0  0  0  0
   -2.6868    3.3850   -0.4972 H   0  0  0  0  0  0  0  0  0  0  0  0
   -1.4584    4.6017   -0.0707 H   0  0  0  0  0  0  0  0  0  0  0  0
   -1.7559    2.8710    1.7601 H   0  0  0  0  0  0  0  0  0  0  0  0
   -0.1060    2.9047    1.1050 H   0  0  0  0  0  0  0  0  0  0  0  0
  1  2  1  0
  1 26  1  0
  1 27  1  0
  1 28  1  0
  2  3  1  0
  2 29  1  0
  2 30  1  0
  3  4  1  0
  3 25  1  0
  4  5  1  0
  4 31  1  0
  4 32  1  0
  5  6  1  0
  5 33  1  0
  5 34  1  0
  6  7  1  0
  6 24  1  0
  7  8  2  0
  7  9  1  0
  9 10  2  0
  9 11  1  0
 11 12  1  0
 11 35  1  0
 12 13  1  0
 12 36  1  0
 12 37  1  0
 13 14  1  0
 13 38  1  0
 13 39  1  0
 14 15  2  0
 14 23  1  0
 15 16  1  0
 15 40  1  0
 16 17  2  0
 16 41  1  0
 17 18  1  0
 17 20  1  0
 18 19  1  0
 19 42  1  0
 19 43  1  0
 19 44  1  0
 20 21  1  0
 20 23  2  0
 21 22  1  0
 22 45  1  0
 22 46  1  0
 22 47  1  0
 23 48  1  0
 24 25  1  0
 24 49  1  0
 24 50  1  0
 25 51  1  0
 25 52  1  0
M  END

