
     RDKit          3D

 38 39  0  0  0  0  0  0  0  0999 V2000
    1.3449    0.2062   -0.4399 C   0  0  0  0  0  0  0  0  0  0  0  0
    2.8164    0.3338   -0.0105 C   0  0  1  0  0  0  0  0  0  0  0  0
    3.0714   -0.3902    1.2362 N   0  0  0  0  0  0  0  0  0  0  0  0
    2.3835    0.1413    2.4164 C   0  0  0  0  0  0  0  0  0  0  0  0
    2.9093   -0.4822    3.6956 C   0  0  0  0  0  0  0  0  0  0  0  0
    2.1072   -1.4171    4.3668 C   0  0  0  0  0  0  0  0  0  0  0  0
    2.5156   -2.0571    5.5384 C   0  0  0  0  0  0  0  0  0  0  0  0
    3.7724   -1.7527    6.0467 C   0  0  0  0  0  0  0  0  0  0  0  0
    4.1930   -2.3463    7.1735 F   0  0  0  0  0  0  0  0  0  0  0  0
    4.6071   -0.8393    5.4136 C   0  0  0  0  0  0  0  0  0  0  0  0
    4.1886   -0.1930    4.2367 C   0  0  0  0  0  0  0  0  0  0  0  0
    5.1566    0.7609    3.6166 C   0  0  0  0  0  0  0  0  0  0  0  0
    6.4945    0.4472    3.7009 N   0  0  0  0  0  0  0  0  0  0  0  0
    4.7190    1.8642    3.1044 N   0  0  0  0  0  0  0  0  0  0  0  0
    5.7868    2.6125    2.5790 O   0  0  0  0  0  0  0  0  0  0  0  0
    3.7373   -0.1947   -1.0978 C   0  0  0  0  0  0  0  0  0  0  0  0
    4.0056   -1.5637   -1.2380 C   0  0  0  0  0  0  0  0  0  0  0  0
    4.8276   -1.9922   -2.2810 C   0  0  0  0  0  0  0  0  0  0  0  0
    5.3557   -1.0354   -3.1541 C   0  0  0  0  0  0  0  0  0  0  0  0
    5.1165    0.2722   -3.0323 N   0  0  0  0  0  0  0  0  0  0  0  0
    4.3313    0.6706   -2.0298 C   0  0  0  0  0  0  0  0  0  0  0  0
    0.6682    0.6753    0.2908 H   0  0  0  0  0  0  0  0  0  0  0  0
    1.0651   -0.8545   -0.5416 H   0  0  0  0  0  0  0  0  0  0  0  0
    1.1843    0.7031   -1.4085 H   0  0  0  0  0  0  0  0  0  0  0  0
    3.0296    1.4208    0.1050 H   0  0  0  0  0  0  0  0  0  0  0  0
    4.0753   -0.3688    1.4107 H   0  0  0  0  0  0  0  0  0  0  0  0
    1.3124   -0.1016    2.3415 H   0  0  0  0  0  0  0  0  0  0  0  0
    2.4672    1.2418    2.4845 H   0  0  0  0  0  0  0  0  0  0  0  0
    1.1253   -1.6566    3.9509 H   0  0  0  0  0  0  0  0  0  0  0  0
    1.8805   -2.7811    6.0521 H   0  0  0  0  0  0  0  0  0  0  0  0
    5.5778   -0.6142    5.8575 H   0  0  0  0  0  0  0  0  0  0  0  0
    6.7471   -0.5329    3.7232 H   0  0  0  0  0  0  0  0  0  0  0  0
    7.1115    1.0577    3.1759 H   0  0  0  0  0  0  0  0  0  0  0  0
    5.3494    3.4006    2.2354 H   0  0  0  0  0  0  0  0  0  0  0  0
    3.5777   -2.2696   -0.5223 H   0  0  0  0  0  0  0  0  0  0  0  0
    5.0581   -3.0516   -2.4185 H   0  0  0  0  0  0  0  0  0  0  0  0
    6.0033   -1.3413   -3.9849 H   0  0  0  0  0  0  0  0  0  0  0  0
    4.1578    1.7521   -1.9481 H   0  0  0  0  0  0  0  0  0  0  0  0
  1  2  1  0
  1 22  1  0
  1 23  1  0
  1 24  1  0
  2  3  1  0
  2 16  1  0
  2 25  1  1
  3  4  1  0
  3 26  1  0
  4  5  1  0
  4 27  1  0
  4 28  1  0
  5  6  2  0
  5 11  1  0
  6  7  1  0
  6 29  1  0
  7  8  2  0
  7 30  1  0
  8  9  1  0
  8 10  1  0
 10 11  2  0
 10 31  1  0
 11 12  1  0
 12 13  1  0
 12 14  2  0
 13 32  1  0
 13 33  1  0
 14 15  1  0
 15 34  1  0
 16 17  2  0
 16 21  1  0
 17 18  1  0
 17 35  1  0
 18 19  2  0
 18 36  1  0
 19 20  1  0
 19 37  1  0
 20 21  2  0
 21 38  1  0
M  END

