
     RDKit          3D

 33 33  0  0  0  0  0  0  0  0999 V2000
    0.9336    0.2996    0.0271 C   0  0  0  0  0  0  0  0  0  0  0  0
    2.4530    0.2887   -0.1388 C   0  0  0  0  0  0  0  0  0  0  0  0
    2.9182   -0.4566   -1.3888 C   0  0  0  0  0  0  0  0  0  0  0  0
    4.3667   -0.4108   -1.5241 N   0  0  0  0  0  0  0  0  0  0  0  0
    4.9122   -1.1184   -2.6659 C   0  0  1  0  0  0  0  0  0  0  0  0
    4.4989   -0.4909   -4.0099 C   0  0  0  0  0  0  0  0  0  0  0  0
    4.2974   -1.1385   -5.0066 O   0  0  0  0  0  0  0  0  0  0  0  0
    4.4351    0.8481   -3.9641 O   0  0  0  0  0  0  0  0  0  0  0  0
    4.1289    1.5032   -5.1960 C   0  0  0  0  0  0  0  0  0  0  0  0
    6.4371   -1.1458   -2.6142 C   0  0  0  0  0  0  0  0  0  0  0  0
    7.1381   -0.0196   -2.1612 C   0  0  0  0  0  0  0  0  0  0  0  0
    8.5396   -0.0236   -2.1411 C   0  0  0  0  0  0  0  0  0  0  0  0
    9.2615    1.0394   -1.7073 O   0  0  0  0  0  0  0  0  0  0  0  0
    9.2498   -1.1503   -2.5802 C   0  0  0  0  0  0  0  0  0  0  0  0
    8.5280   -2.2487   -3.0315 C   0  0  0  0  0  0  0  0  0  0  0  0
    9.2015   -3.3299   -3.4500 F   0  0  0  0  0  0  0  0  0  0  0  0
    7.1342   -2.2748   -3.0602 C   0  0  0  0  0  0  0  0  0  0  0  0
    0.6340    0.8429    0.9369 H   0  0  0  0  0  0  0  0  0  0  0  0
    0.5272   -0.7229    0.1020 H   0  0  0  0  0  0  0  0  0  0  0  0
    0.4401    0.7889   -0.8293 H   0  0  0  0  0  0  0  0  0  0  0  0
    2.9176   -0.1761    0.7511 H   0  0  0  0  0  0  0  0  0  0  0  0
    2.8433    1.3195   -0.1845 H   0  0  0  0  0  0  0  0  0  0  0  0
    2.4719    0.0210   -2.2788 H   0  0  0  0  0  0  0  0  0  0  0  0
    2.5238   -1.4988   -1.3680 H   0  0  0  0  0  0  0  0  0  0  0  0
    4.8123   -0.7588   -0.6757 H   0  0  0  0  0  0  0  0  0  0  0  0
    4.5535   -2.1649   -2.7499 H   0  0  0  0  0  0  0  0  0  0  0  0
    4.1131    2.5777   -4.9753 H   0  0  0  0  0  0  0  0  0  0  0  0
    3.1505    1.1773   -5.5803 H   0  0  0  0  0  0  0  0  0  0  0  0
    4.8921    1.2797   -5.9568 H   0  0  0  0  0  0  0  0  0  0  0  0
    6.5756    0.8549   -1.8256 H   0  0  0  0  0  0  0  0  0  0  0  0
    8.6595    1.7471   -1.4412 H   0  0  0  0  0  0  0  0  0  0  0  0
   10.3399   -1.1634   -2.5662 H   0  0  0  0  0  0  0  0  0  0  0  0
    6.6176   -3.1626   -3.4277 H   0  0  0  0  0  0  0  0  0  0  0  0
  1  2  1  0
  1 18  1  0
  1 19  1  0
  1 20  1  0
  2  3  1  0
  2 21  1  0
  2 22  1  0
  3  4  1  0
  3 23  1  0
  3 24  1  0
  4  5  1  0
  4 25  1  0
  5  6  1  0
  5 10  1  0
  5 26  1  6
  6  7  2  0
  6  8  1  0
  8  9  1  0
  9 27  1  0
  9 28  1  0
  9 29  1  0
 10 11  2  0
 10 17  1  0
 11 12  1  0
 11 30  1  0
 12 13  1  0
 12 14  2  0
 13 31  1  0
 14 15  1  0
 14 32  1  0
 15 16  1  0
 15 17  2  0
 17 33  1  0
M  END

