
     RDKit          3D

 29 29  0  0  0  0  0  0  0  0999 V2000
    7.2382    0.4357    8.6684 C   0  0  0  0  0  0  0  0  0  0  0  0
    6.4721    0.8443    7.5304 O   0  0  0  0  0  0  0  0  0  0  0  0
    6.0590   -0.1211    6.7239 C   0  0  0  0  0  0  0  0  0  0  0  0
    6.2766   -1.3862    6.8567 N   0  0  0  0  0  0  0  0  0  0  0  0
    5.7152   -2.1291    5.8556 N   0  0  0  0  0  0  0  0  0  0  0  0
    5.0761   -1.4186    4.9692 C   0  0  0  0  0  0  0  0  0  0  0  0
    4.4258   -1.9155    3.8697 N   0  0  0  0  0  0  0  0  0  0  0  0
    4.3184   -3.2600    3.4092 C   0  0  0  0  0  0  0  0  0  0  0  0
    3.7580   -3.4655    2.3490 O   0  0  0  0  0  0  0  0  0  0  0  0
    4.8562   -4.1937    4.2305 N   0  0  0  0  0  0  0  0  0  0  0  0
    4.8964   -5.5995    3.8640 C   0  0  0  0  0  0  0  0  0  0  0  0
    6.2494   -6.0527    3.3013 C   0  0  0  0  0  0  0  0  0  0  0  0
    7.4081   -5.8591    4.2766 C   0  0  0  0  0  0  0  0  0  0  0  0
    8.7514   -6.3183    3.7240 C   0  0  0  0  0  0  0  0  0  0  0  0
    8.9047   -6.8697    2.6701 O   0  0  0  0  0  0  0  0  0  0  0  0
    9.8150   -6.0709    4.5278 O   0  0  0  0  0  0  0  0  0  0  0  0
    5.1041    0.3207    5.3002 S   0  0  0  0  0  0  0  0  0  0  0  0
    7.4823    1.3564    9.2116 H   0  0  0  0  0  0  0  0  0  0  0  0
    8.1563   -0.0810    8.3498 H   0  0  0  0  0  0  0  0  0  0  0  0
    6.6520   -0.2457    9.3035 H   0  0  0  0  0  0  0  0  0  0  0  0
    3.9892   -1.2633    3.2283 H   0  0  0  0  0  0  0  0  0  0  0  0
    5.3053   -3.8596    5.0867 H   0  0  0  0  0  0  0  0  0  0  0  0
    4.1120   -5.7668    3.1132 H   0  0  0  0  0  0  0  0  0  0  0  0
    4.6373   -6.1977    4.7552 H   0  0  0  0  0  0  0  0  0  0  0  0
    6.4606   -5.5054    2.3688 H   0  0  0  0  0  0  0  0  0  0  0  0
    6.1847   -7.1167    3.0218 H   0  0  0  0  0  0  0  0  0  0  0  0
    7.2259   -6.4147    5.2168 H   0  0  0  0  0  0  0  0  0  0  0  0
    7.4982   -4.7964    4.5681 H   0  0  0  0  0  0  0  0  0  0  0  0
    9.5321   -5.6103    5.3307 H   0  0  0  0  0  0  0  0  0  0  0  0
  1  2  1  0
  1 18  1  0
  1 19  1  0
  1 20  1  0
  2  3  1  0
  3  4  2  0
  3 17  1  0
  4  5  1  0
  5  6  2  0
  6  7  1  0
  6 17  1  0
  7  8  1  0
  7 21  1  0
  8  9  2  0
  8 10  1  0
 10 11  1  0
 10 22  1  0
 11 12  1  0
 11 23  1  0
 11 24  1  0
 12 13  1  0
 12 25  1  0
 12 26  1  0
 13 14  1  0
 13 27  1  0
 13 28  1  0
 14 15  2  0
 14 16  1  0
 16 29  1  0
M  END

