
     RDKit          3D

 52 54  0  0  0  0  0  0  0  0999 V2000
    7.6531   -2.9035    4.4665 C   0  0  0  0  0  0  0  0  0  0  0  0
    7.8338   -1.6248    3.7309 C   0  0  0  0  0  0  0  0  0  0  0  0
    7.5533   -1.3436    2.4923 N   0  0  0  0  0  0  0  0  0  0  0  0
    7.9269   -0.0137    2.3637 C   0  0  0  0  0  0  0  0  0  0  0  0
    7.8122    0.7785    1.1292 C   0  0  0  0  0  0  0  0  0  0  0  0
    8.2212    2.1268    1.1898 C   0  0  0  0  0  0  0  0  0  0  0  0
    8.1559    2.9588    0.0810 C   0  0  0  0  0  0  0  0  0  0  0  0
    7.6723    2.4379   -1.1258 C   0  0  0  0  0  0  0  0  0  0  0  0
    7.2625    1.1129   -1.2229 C   0  0  0  0  0  0  0  0  0  0  0  0
    7.3177    0.2523   -0.1034 C   0  0  0  0  0  0  0  0  0  0  0  0
    6.8935   -1.0761   -0.1640 N   0  0  0  0  0  0  0  0  0  0  0  0
    6.4646   -1.7899   -1.2781 C   0  0  0  0  0  0  0  0  0  0  0  0
    6.5239   -1.3644   -2.4230 O   0  0  0  0  0  0  0  0  0  0  0  0
    5.9831   -3.0609   -0.9961 N   0  0  0  0  0  0  0  0  0  0  0  0
    5.6033   -3.9113   -2.1203 C   0  0  0  0  0  0  0  0  0  0  0  0
    6.0767   -5.3512   -1.8926 C   0  0  0  0  0  0  0  0  0  0  0  0
    5.5954   -5.9445   -0.5525 C   0  0  2  0  0  0  0  0  0  0  0  0
    4.1040   -6.3226   -0.5896 C   0  0  0  0  0  0  0  0  0  0  0  0
    3.6816   -7.2243    0.5768 C   0  0  0  0  0  0  0  0  0  0  0  0
    4.4963   -7.6019    1.4084 O   0  0  0  0  0  0  0  0  0  0  0  0
    2.3571   -7.5943    0.6475 N   0  0  0  0  0  0  0  0  0  0  0  0
    1.3269   -7.2387   -0.3075 C   0  0  0  0  0  0  0  0  0  0  0  0
    1.9252   -8.4624    1.7297 C   0  0  0  0  0  0  0  0  0  0  0  0
    5.9452   -4.9598    0.5829 C   0  0  0  0  0  0  0  0  0  0  0  0
    5.4798   -3.5289    0.2932 C   0  0  0  0  0  0  0  0  0  0  0  0
    8.4125    0.4819    3.4837 N   0  0  0  0  0  0  0  0  0  0  0  0
    8.3487   -0.5788    4.3786 O   0  0  0  0  0  0  0  0  0  0  0  0
    7.2768   -3.6744    3.7832 H   0  0  0  0  0  0  0  0  0  0  0  0
    6.9386   -2.7732    5.2946 H   0  0  0  0  0  0  0  0  0  0  0  0
    8.6084   -3.2353    4.9011 H   0  0  0  0  0  0  0  0  0  0  0  0
    8.5952    2.5052    2.1425 H   0  0  0  0  0  0  0  0  0  0  0  0
    8.4787    3.9996    0.1528 H   0  0  0  0  0  0  0  0  0  0  0  0
    7.6146    3.0741   -2.0131 H   0  0  0  0  0  0  0  0  0  0  0  0
    6.9032    0.7061   -2.1641 H   0  0  0  0  0  0  0  0  0  0  0  0
    7.0102   -1.5849    0.7112 H   0  0  0  0  0  0  0  0  0  0  0  0
    6.0440   -3.4835   -3.0283 H   0  0  0  0  0  0  0  0  0  0  0  0
    4.5027   -3.8814   -2.2575 H   0  0  0  0  0  0  0  0  0  0  0  0
    7.1799   -5.3554   -1.9050 H   0  0  0  0  0  0  0  0  0  0  0  0
    5.7472   -5.9809   -2.7368 H   0  0  0  0  0  0  0  0  0  0  0  0
    6.1464   -6.8778   -0.3609 H   0  0  0  0  0  0  0  0  0  0  0  0
    3.8899   -6.8543   -1.5336 H   0  0  0  0  0  0  0  0  0  0  0  0
    3.4639   -5.4249   -0.6067 H   0  0  0  0  0  0  0  0  0  0  0  0
    1.7060   -6.5679   -1.0848 H   0  0  0  0  0  0  0  0  0  0  0  0
    0.4848   -6.7313    0.1976 H   0  0  0  0  0  0  0  0  0  0  0  0
    0.9193   -8.1389   -0.8040 H   0  0  0  0  0  0  0  0  0  0  0  0
    2.7786   -8.6517    2.3901 H   0  0  0  0  0  0  0  0  0  0  0  0
    1.5497   -9.4248    1.3372 H   0  0  0  0  0  0  0  0  0  0  0  0
    1.1107   -7.9895    2.3067 H   0  0  0  0  0  0  0  0  0  0  0  0
    7.0415   -4.9448    0.7088 H   0  0  0  0  0  0  0  0  0  0  0  0
    5.5172   -5.3158    1.5318 H   0  0  0  0  0  0  0  0  0  0  0  0
    5.7994   -2.8656    1.1049 H   0  0  0  0  0  0  0  0  0  0  0  0
    4.3707   -3.4820    0.2851 H   0  0  0  0  0  0  0  0  0  0  0  0
  1  2  1  0
  1 28  1  0
  1 29  1  0
  1 30  1  0
  2  3  2  0
  2 27  1  0
  3  4  1  0
  4  5  1  0
  4 26  2  0
  5  6  2  0
  5 10  1  0
  6  7  1  0
  6 31  1  0
  7  8  2  0
  7 32  1  0
  8  9  1  0
  8 33  1  0
  9 10  2  0
  9 34  1  0
 10 11  1  0
 11 12  1  0
 11 35  1  0
 12 13  2  0
 12 14  1  0
 14 15  1  0
 14 25  1  0
 15 16  1  0
 15 36  1  0
 15 37  1  0
 16 17  1  0
 16 38  1  0
 16 39  1  0
 17 18  1  0
 17 24  1  0
 17 40  1  1
 18 19  1  0
 18 41  1  0
 18 42  1  0
 19 20  2  0
 19 21  1  0
 21 22  1  0
 21 23  1  0
 22 43  1  0
 22 44  1  0
 22 45  1  0
 23 46  1  0
 23 47  1  0
 23 48  1  0
 24 25  1  0
 24 49  1  0
 24 50  1  0
 25 51  1  0
 25 52  1  0
 26 27  1  0
M  END

