
     RDKit          3D

 25 26  0  0  0  0  0  0  0  0999 V2000
    1.1270    0.5966   -2.5915 C   0  0  0  0  0  0  0  0  0  0  0  0
    2.5274    0.5668   -2.4893 O   0  0  0  0  0  0  0  0  0  0  0  0
    2.9956   -0.2033   -1.4054 C   0  0  0  0  0  0  0  0  0  0  0  0
    4.4920   -0.2073   -1.3839 C   0  0  0  0  0  0  0  0  0  0  0  0
    5.2213   -1.2955   -1.3815 N   0  0  0  0  0  0  0  0  0  0  0  0
    6.5284   -0.8578   -1.3358 C   0  0  0  0  0  0  0  0  0  0  0  0
    7.7284   -1.5847   -1.3158 C   0  0  0  0  0  0  0  0  0  0  0  0
    8.9317   -0.8861   -1.2760 C   0  0  0  0  0  0  0  0  0  0  0  0
    8.9353    0.5250   -1.2571 C   0  0  0  0  0  0  0  0  0  0  0  0
   10.6164    1.4349   -1.2029 Br  0  0  0  0  0  0  0  0  0  0  0  0
    7.7651    1.2814   -1.2763 C   0  0  0  0  0  0  0  0  0  0  0  0
    6.5641    0.5619   -1.3133 C   0  0  0  0  0  0  0  0  0  0  0  0
    5.2387    0.9577   -1.3369 N   0  0  0  0  0  0  0  0  0  0  0  0
    4.7317    2.3176   -1.3329 C   0  0  0  0  0  0  0  0  0  0  0  0
    0.8671    1.2167   -3.4613 H   0  0  0  0  0  0  0  0  0  0  0  0
    0.6541    1.0346   -1.6885 H   0  0  0  0  0  0  0  0  0  0  0  0
    0.7025   -0.4164   -2.7387 H   0  0  0  0  0  0  0  0  0  0  0  0
    2.6721   -1.2579   -1.4776 H   0  0  0  0  0  0  0  0  0  0  0  0
    2.5968    0.1993   -0.4472 H   0  0  0  0  0  0  0  0  0  0  0  0
    7.7097   -2.6762   -1.3323 H   0  0  0  0  0  0  0  0  0  0  0  0
    9.8820   -1.4213   -1.2598 H   0  0  0  0  0  0  0  0  0  0  0  0
    7.8030    2.3711   -1.2629 H   0  0  0  0  0  0  0  0  0  0  0  0
    5.5717    3.0157   -1.2271 H   0  0  0  0  0  0  0  0  0  0  0  0
    4.0467    2.4765   -0.4849 H   0  0  0  0  0  0  0  0  0  0  0  0
    4.1877    2.5343   -2.2623 H   0  0  0  0  0  0  0  0  0  0  0  0
  1  2  1  0
  1 15  1  0
  1 16  1  0
  1 17  1  0
  2  3  1  0
  3  4  1  0
  3 18  1  0
  3 19  1  0
  4  5  2  0
  4 13  1  0
  5  6  1  0
  6  7  2  0
  6 12  1  0
  7  8  1  0
  7 20  1  0
  8  9  2  0
  8 21  1  0
  9 10  1  0
  9 11  1  0
 11 12  2  0
 11 22  1  0
 12 13  1  0
 13 14  1  0
 14 23  1  0
 14 24  1  0
 14 25  1  0
M  END

