
     RDKit          3D

 37 39  0  0  0  0  0  0  0  0999 V2000
    1.4172   -0.6203   -0.8172 C   0  0  0  0  0  0  0  0  0  0  0  0
    2.3652    0.0722   -0.0296 O   0  0  0  0  0  0  0  0  0  0  0  0
    2.9366   -0.5581    1.0194 C   0  0  0  0  0  0  0  0  0  0  0  0
    3.8737    0.2019    1.7603 C   0  0  0  0  0  0  0  0  0  0  0  0
    4.5202   -0.3417    2.8553 C   0  0  0  0  0  0  0  0  0  0  0  0
    4.2614   -1.6717    3.2626 C   0  0  0  0  0  0  0  0  0  0  0  0
    4.9020   -2.2909    4.3934 C   0  0  0  0  0  0  0  0  0  0  0  0
    4.6080   -3.5739    4.7326 C   0  0  0  0  0  0  0  0  0  0  0  0
    5.1721   -4.3446    5.8561 C   0  0  0  0  0  0  0  0  0  0  0  0
    4.7108   -5.6515    6.1136 C   0  0  0  0  0  0  0  0  0  0  0  0
    5.2290   -6.3953    7.1732 C   0  0  0  0  0  0  0  0  0  0  0  0
    6.2250   -5.8384    7.9776 C   0  0  0  0  0  0  0  0  0  0  0  0
    6.8930   -6.7908    9.3551 S   0  0  1  0  0  0  0  0  0  0  0  0
    8.2832   -7.6978    8.6382 C   0  0  0  0  0  0  0  0  0  0  0  0
    7.4520   -5.8408   10.3274 O   0  0  0  0  0  0  0  0  0  0  0  0
    5.8845   -7.7846    9.7473 O   0  0  0  0  0  0  0  0  0  0  0  0
    6.6900   -4.5384    7.7540 C   0  0  0  0  0  0  0  0  0  0  0  0
    6.1666   -3.8011    6.6962 C   0  0  0  0  0  0  0  0  0  0  0  0
    3.7005   -4.2893    4.0045 O   0  0  0  0  0  0  0  0  0  0  0  0
    3.0188   -3.8097    2.9005 C   0  0  0  0  0  0  0  0  0  0  0  0
    2.2448   -4.5462    2.3477 O   0  0  0  0  0  0  0  0  0  0  0  0
    3.3247   -2.4203    2.5160 C   0  0  0  0  0  0  0  0  0  0  0  0
    2.6652   -1.8729    1.4031 C   0  0  0  0  0  0  0  0  0  0  0  0
    1.0918    0.0786   -1.5986 H   0  0  0  0  0  0  0  0  0  0  0  0
    0.5405   -0.9294   -0.2213 H   0  0  0  0  0  0  0  0  0  0  0  0
    1.8579   -1.5142   -1.2928 H   0  0  0  0  0  0  0  0  0  0  0  0
    4.0676    1.2276    1.4397 H   0  0  0  0  0  0  0  0  0  0  0  0
    5.2400    0.2606    3.4154 H   0  0  0  0  0  0  0  0  0  0  0  0
    5.6214   -1.7195    4.9778 H   0  0  0  0  0  0  0  0  0  0  0  0
    3.9333   -6.0753    5.4783 H   0  0  0  0  0  0  0  0  0  0  0  0
    4.8541   -7.3974    7.3908 H   0  0  0  0  0  0  0  0  0  0  0  0
    9.0254   -6.9844    8.2576 H   0  0  0  0  0  0  0  0  0  0  0  0
    7.9144   -8.3626    7.8466 H   0  0  0  0  0  0  0  0  0  0  0  0
    8.6994   -8.2818    9.4714 H   0  0  0  0  0  0  0  0  0  0  0  0
    7.4431   -4.1120    8.4193 H   0  0  0  0  0  0  0  0  0  0  0  0
    6.5377   -2.7887    6.5302 H   0  0  0  0  0  0  0  0  0  0  0  0
    1.9548   -2.5062    0.8735 H   0  0  0  0  0  0  0  0  0  0  0  0
  1  2  1  0
  1 24  1  0
  1 25  1  0
  1 26  1  0
  2  3  1  0
  3  4  2  0
  3 23  1  0
  4  5  1  0
  4 27  1  0
  5  6  2  0
  5 28  1  0
  6  7  1  0
  6 22  1  0
  7  8  2  0
  7 29  1  0
  8  9  1  0
  8 19  1  0
  9 10  2  0
  9 18  1  0
 10 11  1  0
 10 30  1  0
 11 12  2  0
 11 31  1  0
 12 13  1  0
 12 17  1  0
 13 14  1  6
 13 15  2  0
 13 16  2  0
 14 32  1  0
 14 33  1  0
 14 34  1  0
 17 18  2  0
 17 35  1  0
 18 36  1  0
 19 20  1  0
 20 21  2  0
 20 22  1  0
 22 23  2  0
 23 37  1  0
M  END

