
     RDKit          3D

 47 49  0  0  0  0  0  0  0  0999 V2000
    1.0054    0.0236   -0.3599 C   0  0  0  0  0  0  0  0  0  0  0  0
    2.4902   -0.2165   -0.3618 C   0  0  0  0  0  0  0  0  0  0  0  0
    3.3798    0.6714   -0.9015 C   0  0  0  0  0  0  0  0  0  0  0  0
    4.8100    0.4374   -0.8704 C   0  0  0  0  0  0  0  0  0  0  0  0
    5.6577    1.1531   -1.3986 O   0  0  0  0  0  0  0  0  0  0  0  0
    5.1631   -0.7862   -0.1063 C   0  0  0  0  0  0  0  0  0  0  0  0
    6.6146   -1.0379    0.2741 C   0  0  0  0  0  0  0  0  0  0  0  0
    6.9535   -0.8191    1.4271 O   0  0  0  0  0  0  0  0  0  0  0  0
    7.4593   -1.4734   -0.7020 N   0  0  0  0  0  0  0  0  0  0  0  0
    7.0797   -1.7236   -2.0883 C   0  0  0  0  0  0  0  0  0  0  0  0
    7.9379   -0.8794   -3.0403 C   0  0  2  0  0  0  0  0  0  0  0  0
    7.6993   -1.2157   -4.5012 C   0  0  0  0  0  0  0  0  0  0  0  0
    9.3170   -1.1023   -2.7596 O   0  0  0  0  0  0  0  0  0  0  0  0
    9.6581   -0.7483   -1.4343 C   0  0  0  0  0  0  0  0  0  0  0  0
    8.8963   -1.5943   -0.4029 C   0  0  2  0  0  0  0  0  0  0  0  0
    9.3583   -3.0548   -0.3683 C   0  0  0  0  0  0  0  0  0  0  0  0
    4.2948   -1.6061    0.3978 N   0  0  0  0  0  0  0  0  0  0  0  0
    2.9812   -1.3584    0.2437 N   0  0  0  0  0  0  0  0  0  0  0  0
    2.1486   -2.3820    0.7997 C   0  0  0  0  0  0  0  0  0  0  0  0
    2.1925   -2.5993    2.1816 C   0  0  0  0  0  0  0  0  0  0  0  0
    1.3971   -3.5806    2.7743 C   0  0  0  0  0  0  0  0  0  0  0  0
    0.5292   -4.3509    1.9930 C   0  0  0  0  0  0  0  0  0  0  0  0
    0.4758   -4.1508    0.6150 C   0  0  0  0  0  0  0  0  0  0  0  0
    1.2997   -3.1899    0.0234 C   0  0  0  0  0  0  0  0  0  0  0  0
    1.2674   -3.0962   -1.4512 N   0  0  0  0  0  0  0  0  0  0  0  0
    2.2940   -2.7722   -2.0229 O   0  0  0  0  0  0  0  0  0  0  0  0
    0.2122   -3.3716   -2.0001 O   0  0  0  0  0  0  0  0  0  0  0  0
    0.8056    1.0525   -0.6857 H   0  0  0  0  0  0  0  0  0  0  0  0
    0.5762   -0.1126    0.6449 H   0  0  0  0  0  0  0  0  0  0  0  0
    0.4667   -0.6494   -1.0450 H   0  0  0  0  0  0  0  0  0  0  0  0
    3.0208    1.5883   -1.3715 H   0  0  0  0  0  0  0  0  0  0  0  0
    6.0160   -1.4978   -2.2317 H   0  0  0  0  0  0  0  0  0  0  0  0
    7.2218   -2.7938   -2.3261 H   0  0  0  0  0  0  0  0  0  0  0  0
    7.6924    0.1830   -2.8457 H   0  0  0  0  0  0  0  0  0  0  0  0
    7.9233   -2.2765   -4.6981 H   0  0  0  0  0  0  0  0  0  0  0  0
    8.3554   -0.6049   -5.1386 H   0  0  0  0  0  0  0  0  0  0  0  0
    6.6538   -1.0167   -4.7831 H   0  0  0  0  0  0  0  0  0  0  0  0
    9.4388    0.3230   -1.2557 H   0  0  0  0  0  0  0  0  0  0  0  0
   10.7434   -0.9027   -1.3303 H   0  0  0  0  0  0  0  0  0  0  0  0
    9.0311   -1.1498    0.5927 H   0  0  0  0  0  0  0  0  0  0  0  0
    9.3072   -3.5214   -1.3637 H   0  0  0  0  0  0  0  0  0  0  0  0
    8.7431   -3.6412    0.3308 H   0  0  0  0  0  0  0  0  0  0  0  0
   10.4054   -3.1100   -0.0303 H   0  0  0  0  0  0  0  0  0  0  0  0
    2.8675   -1.9843    2.7790 H   0  0  0  0  0  0  0  0  0  0  0  0
    1.4497   -3.7369    3.8540 H   0  0  0  0  0  0  0  0  0  0  0  0
   -0.1022   -5.1127    2.4550 H   0  0  0  0  0  0  0  0  0  0  0  0
   -0.1832   -4.7369   -0.0255 H   0  0  0  0  0  0  0  0  0  0  0  0
  1  2  1  0
  1 28  1  0
  1 29  1  0
  1 30  1  0
  2  3  2  0
  2 18  1  0
  3  4  1  0
  3 31  1  0
  4  5  2  0
  4  6  1  0
  6  7  1  0
  6 17  2  0
  7  8  2  0
  7  9  1  0
  9 10  1  0
  9 15  1  0
 10 11  1  0
 10 32  1  0
 10 33  1  0
 11 12  1  0
 11 13  1  0
 11 34  1  6
 12 35  1  0
 12 36  1  0
 12 37  1  0
 13 14  1  0
 14 15  1  0
 14 38  1  0
 14 39  1  0
 15 16  1  0
 15 40  1  1
 16 41  1  0
 16 42  1  0
 16 43  1  0
 17 18  1  0
 18 19  1  0
 19 20  2  0
 19 24  1  0
 20 21  1  0
 20 44  1  0
 21 22  2  0
 21 45  1  0
 22 23  1  0
 22 46  1  0
 23 24  2  0
 23 47  1  0
 24 25  1  0
 25 26  2  0
 25 27  1  0
M  CHG  2  25   1  27  -1
M  END

