
     RDKit          3D

 49 51  0  0  0  0  0  0  0  0999 V2000
    1.6100    0.9898    2.6638 C   0  0  0  0  0  0  0  0  0  0  0  0
    2.6911    1.7118    1.8648 C   0  0  1  0  0  0  0  0  0  0  0  0
    4.1462    1.2565    2.1821 C   0  0  0  0  0  0  0  0  0  0  0  0
    4.1074    0.3602    0.9136 C   0  0  2  0  0  0  0  0  0  0  0  0
    5.2702    0.2582    0.0706 N   0  0  0  0  0  0  0  0  0  0  0  0
    5.9620   -0.9324   -0.0732 C   0  0  0  0  0  0  0  0  0  0  0  0
    5.6038   -1.9577    0.4935 O   0  0  0  0  0  0  0  0  0  0  0  0
    7.0678   -0.9025   -0.9106 N   0  0  0  0  0  0  0  0  0  0  0  0
    7.9871   -2.0371   -0.8690 C   0  0  0  0  0  0  0  0  0  0  0  0
    8.4322   -2.4521   -2.2724 C   0  0  0  0  0  0  0  0  0  0  0  0
    9.0282   -1.2828   -3.0793 C   0  0  2  0  0  0  0  0  0  0  0  0
   10.2878   -0.7646   -2.5137 N   0  0  0  0  0  0  0  0  0  0  0  0
   11.2721   -1.7332   -2.0252 C   0  0  0  0  0  0  0  0  0  0  0  0
   12.0530   -2.4514   -3.1392 C   0  0  0  0  0  0  0  0  0  0  0  0
   12.7426   -1.4280   -4.0521 C   0  0  0  0  0  0  0  0  0  0  0  0
   11.7450   -0.3650   -4.5322 C   0  0  0  0  0  0  0  0  0  0  0  0
   10.9686    0.2341   -3.3441 C   0  0  0  0  0  0  0  0  0  0  0  0
    7.9471   -0.1813   -3.1025 C   0  0  0  0  0  0  0  0  0  0  0  0
    7.5074    0.2436   -1.6955 C   0  0  0  0  0  0  0  0  0  0  0  0
    2.8902    1.1809    0.4141 C   0  0  0  0  0  0  0  0  0  0  0  0
    1.6356    1.2854    3.7257 H   0  0  0  0  0  0  0  0  0  0  0  0
    1.7368   -0.1051    2.6214 H   0  0  0  0  0  0  0  0  0  0  0  0
    0.6049    1.2228    2.2747 H   0  0  0  0  0  0  0  0  0  0  0  0
    2.5308    2.8000    1.9318 H   0  0  0  0  0  0  0  0  0  0  0  0
    4.3318    0.7601    3.1483 H   0  0  0  0  0  0  0  0  0  0  0  0
    4.8677    2.0826    2.0694 H   0  0  0  0  0  0  0  0  0  0  0  0
    3.8273   -0.6696    1.1691 H   0  0  0  0  0  0  0  0  0  0  0  0
    5.7186    1.1240   -0.1976 H   0  0  0  0  0  0  0  0  0  0  0  0
    7.4624   -2.8579   -0.3660 H   0  0  0  0  0  0  0  0  0  0  0  0
    8.8706   -1.7756   -0.2552 H   0  0  0  0  0  0  0  0  0  0  0  0
    7.5539   -2.8188   -2.8286 H   0  0  0  0  0  0  0  0  0  0  0  0
    9.1274   -3.3023   -2.2069 H   0  0  0  0  0  0  0  0  0  0  0  0
    9.1660   -1.6383   -4.1236 H   0  0  0  0  0  0  0  0  0  0  0  0
   10.7947   -2.4578   -1.3526 H   0  0  0  0  0  0  0  0  0  0  0  0
   11.9921   -1.1732   -1.3989 H   0  0  0  0  0  0  0  0  0  0  0  0
   11.3636   -3.0794   -3.7323 H   0  0  0  0  0  0  0  0  0  0  0  0
   12.7944   -3.1371   -2.6938 H   0  0  0  0  0  0  0  0  0  0  0  0
   13.2270   -1.9263   -4.9087 H   0  0  0  0  0  0  0  0  0  0  0  0
   13.5514   -0.9313   -3.4838 H   0  0  0  0  0  0  0  0  0  0  0  0
   11.0370   -0.8170   -5.2498 H   0  0  0  0  0  0  0  0  0  0  0  0
   12.2655    0.4405   -5.0783 H   0  0  0  0  0  0  0  0  0  0  0  0
   10.2468    0.9829   -3.7001 H   0  0  0  0  0  0  0  0  0  0  0  0
   11.6794    0.7798   -2.6954 H   0  0  0  0  0  0  0  0  0  0  0  0
    7.0724   -0.5727   -3.6482 H   0  0  0  0  0  0  0  0  0  0  0  0
    8.2850    0.7086   -3.6546 H   0  0  0  0  0  0  0  0  0  0  0  0
    6.6774    0.9546   -1.8041 H   0  0  0  0  0  0  0  0  0  0  0  0
    8.3451    0.7660   -1.1945 H   0  0  0  0  0  0  0  0  0  0  0  0
    2.0585    0.6261   -0.0501 H   0  0  0  0  0  0  0  0  0  0  0  0
    3.2028    1.9817   -0.2761 H   0  0  0  0  0  0  0  0  0  0  0  0
  1  2  1  0
  1 21  1  0
  1 22  1  0
  1 23  1  0
  2  3  1  0
  2 20  1  0
  2 24  1  6
  3  4  1  0
  3 25  1  0
  3 26  1  0
  4  5  1  0
  4 20  1  0
  4 27  1  1
  5  6  1  0
  5 28  1  0
  6  7  2  0
  6  8  1  0
  8  9  1  0
  8 19  1  0
  9 10  1  0
  9 29  1  0
  9 30  1  0
 10 11  1  0
 10 31  1  0
 10 32  1  0
 11 12  1  0
 11 18  1  0
 11 33  1  6
 12 13  1  0
 12 17  1  0
 13 14  1  0
 13 34  1  0
 13 35  1  0
 14 15  1  0
 14 36  1  0
 14 37  1  0
 15 16  1  0
 15 38  1  0
 15 39  1  0
 16 17  1  0
 16 40  1  0
 16 41  1  0
 17 42  1  0
 17 43  1  0
 18 19  1  0
 18 44  1  0
 18 45  1  0
 19 46  1  0
 19 47  1  0
 20 48  1  0
 20 49  1  0
M  END

