
     RDKit          3D

 56 59  0  0  0  0  0  0  0  0999 V2000
    4.3553    1.5919    0.2925 C   0  0  0  0  0  0  0  0  0  0  0  0
    3.3708    0.5419   -0.7915 S   0  0  1  0  0  0  0  0  0  0  0  0
    3.2072   -0.7658   -0.1646 O   0  0  0  0  0  0  0  0  0  0  0  0
    2.2221    1.3310   -1.2314 O   0  0  0  0  0  0  0  0  0  0  0  0
    4.3677    0.2293   -2.1274 N   0  0  0  0  0  0  0  0  0  0  0  0
    4.9937    1.1958   -2.9248 C   0  0  0  0  0  0  0  0  0  0  0  0
    4.4233    2.4653   -3.1147 C   0  0  0  0  0  0  0  0  0  0  0  0
    5.0776    3.4678   -3.8377 C   0  0  0  0  0  0  0  0  0  0  0  0
    4.4680    4.8475   -3.9562 C   0  0  0  0  0  0  0  0  0  0  0  0
    3.8940    5.4145   -2.6419 C   0  0  1  0  0  0  0  0  0  0  0  0
    4.7691    5.2232   -1.5428 O   0  0  0  0  0  0  0  0  0  0  0  0
    3.5978    6.8181   -2.8155 N   0  0  0  0  0  0  0  0  0  0  0  0
    2.6249    7.4127   -1.9061 C   0  0  0  0  0  0  0  0  0  0  0  0
    3.2386    7.7817   -0.5574 C   0  0  0  0  0  0  0  0  0  0  0  0
    2.2301    8.4378    0.1876 O   0  0  0  0  0  0  0  0  0  0  0  0
    2.4836    8.8646    1.4537 C   0  0  0  0  0  0  0  0  0  0  0  0
    3.7353    8.7163    2.0937 C   0  0  0  0  0  0  0  0  0  0  0  0
    3.9207    9.1826    3.3966 C   0  0  0  0  0  0  0  0  0  0  0  0
    2.8666    9.8010    4.0772 C   0  0  0  0  0  0  0  0  0  0  0  0
    1.6132    9.9400    3.4123 C   0  0  0  0  0  0  0  0  0  0  0  0
    1.4088    9.4804    2.1114 C   0  0  0  0  0  0  0  0  0  0  0  0
    0.7312   10.5730    4.2696 N   0  0  0  0  0  0  0  0  0  0  0  0
   -0.2307   10.7942    4.0533 H   0  0  0  0  0  0  0  0  0  0  0  0
    1.3628   10.8525    5.4724 C   0  0  0  0  0  0  0  0  0  0  0  0
    0.8633   11.4771    6.6197 C   0  0  0  0  0  0  0  0  0  0  0  0
    1.7280   11.6338    7.7053 C   0  0  0  0  0  0  0  0  0  0  0  0
    3.0585   11.1794    7.6496 C   0  0  0  0  0  0  0  0  0  0  0  0
    3.5523   10.5565    6.5021 C   0  0  0  0  0  0  0  0  0  0  0  0
    2.7063   10.3858    5.3973 C   0  0  0  0  0  0  0  0  0  0  0  0
    6.3056    3.1706   -4.4444 C   0  0  0  0  0  0  0  0  0  0  0  0
    6.8674    1.8983   -4.3185 C   0  0  0  0  0  0  0  0  0  0  0  0
    6.2282    0.9247   -3.5534 C   0  0  0  0  0  0  0  0  0  0  0  0
    7.0513   -0.7902   -3.3440 Br  0  0  0  0  0  0  0  0  0  0  0  0
    3.7124    1.8017    1.1585 H   0  0  0  0  0  0  0  0  0  0  0  0
    4.6095    2.5262   -0.2273 H   0  0  0  0  0  0  0  0  0  0  0  0
    5.2503    1.0360    0.5996 H   0  0  0  0  0  0  0  0  0  0  0  0
    4.8384   -0.6695   -2.0365 H   0  0  0  0  0  0  0  0  0  0  0  0
    3.4516    2.6568   -2.6615 H   0  0  0  0  0  0  0  0  0  0  0  0
    3.6572    4.8370   -4.7083 H   0  0  0  0  0  0  0  0  0  0  0  0
    5.2301    5.5529   -4.3293 H   0  0  0  0  0  0  0  0  0  0  0  0
    2.9919    4.8383   -2.3535 H   0  0  0  0  0  0  0  0  0  0  0  0
    5.5360    5.7980   -1.6909 H   0  0  0  0  0  0  0  0  0  0  0  0
    3.3679    7.0298   -3.7820 H   0  0  0  0  0  0  0  0  0  0  0  0
    1.7505    6.7536   -1.7254 H   0  0  0  0  0  0  0  0  0  0  0  0
    2.2384    8.3373   -2.3627 H   0  0  0  0  0  0  0  0  0  0  0  0
    4.1086    8.4455   -0.7204 H   0  0  0  0  0  0  0  0  0  0  0  0
    3.5954    6.8782   -0.0351 H   0  0  0  0  0  0  0  0  0  0  0  0
    4.5651    8.2367    1.5761 H   0  0  0  0  0  0  0  0  0  0  0  0
    4.8944    9.0602    3.8779 H   0  0  0  0  0  0  0  0  0  0  0  0
    0.4539    9.5799    1.5925 H   0  0  0  0  0  0  0  0  0  0  0  0
   -0.1694   11.8316    6.6680 H   0  0  0  0  0  0  0  0  0  0  0  0
    1.3622   12.1186    8.6140 H   0  0  0  0  0  0  0  0  0  0  0  0
    3.7105   11.3166    8.5156 H   0  0  0  0  0  0  0  0  0  0  0  0
    4.5870   10.2058    6.4662 H   0  0  0  0  0  0  0  0  0  0  0  0
    6.8335    3.9348   -5.0205 H   0  0  0  0  0  0  0  0  0  0  0  0
    7.8199    1.6643   -4.7969 H   0  0  0  0  0  0  0  0  0  0  0  0
  1  2  1  0
  1 34  1  0
  1 35  1  0
  1 36  1  0
  2  3  2  0
  2  4  2  0
  2  5  1  6
  5  6  1  0
  5 37  1  0
  6  7  2  0
  6 32  1  0
  7  8  1  0
  7 38  1  0
  8  9  1  0
  8 30  2  0
  9 10  1  0
  9 39  1  0
  9 40  1  0
 10 11  1  0
 10 12  1  0
 10 41  1  1
 11 42  1  0
 12 13  1  0
 12 43  1  0
 13 14  1  0
 13 44  1  0
 13 45  1  0
 14 15  1  0
 14 46  1  0
 14 47  1  0
 15 16  1  0
 16 17  2  0
 16 21  1  0
 17 18  1  0
 17 48  1  0
 18 19  2  0
 18 49  1  0
 19 20  1  0
 19 29  1  0
 20 21  2  0
 20 22  1  0
 21 50  1  0
 22 23  1  0
 22 24  1  0
 24 25  1  0
 24 29  2  0
 25 26  2  0
 25 51  1  0
 26 27  1  0
 26 52  1  0
 27 28  2  0
 27 53  1  0
 28 29  1  0
 28 54  1  0
 30 31  1  0
 30 55  1  0
 31 32  2  0
 31 56  1  0
 32 33  1  0
M  END

