
     RDKit          3D

 32 33  0  0  0  0  0  0  0  0999 V2000
    1.6091   -0.4090   -1.8599 C   0  0  0  0  0  0  0  0  0  0  0  0
    2.8132   -0.2323   -0.9725 C   0  0  0  0  0  0  0  0  0  0  0  0
    3.5642    0.9471   -1.0314 C   0  0  0  0  0  0  0  0  0  0  0  0
    4.6973    1.1464   -0.2324 C   0  0  0  0  0  0  0  0  0  0  0  0
    5.4277    2.4480   -0.3735 C   0  0  0  0  0  0  0  0  0  0  0  0
    4.8710    3.4362   -0.8672 O   0  0  0  0  0  0  0  0  0  0  0  0
    6.7147    2.4939    0.0501 N   0  0  0  0  0  0  0  0  0  0  0  0
    7.5092    3.7186    0.1499 C   0  0  1  0  0  0  0  0  0  0  0  0
    7.9396    4.2508   -1.2452 C   0  0  0  0  0  0  0  0  0  0  0  0
    9.0932    4.4356   -1.5390 O   0  0  0  0  0  0  0  0  0  0  0  0
    6.9382    4.5298   -2.0741 O   0  0  0  0  0  0  0  0  0  0  0  0
    6.9266    4.8714    1.0320 C   0  0  0  0  0  0  0  0  0  0  0  0
    8.3226    5.0174    1.6875 C   0  0  0  0  0  0  0  0  0  0  0  0
    8.7078    3.6269    1.1217 C   0  0  0  0  0  0  0  0  0  0  0  0
    5.0797    0.1511    0.6737 C   0  0  0  0  0  0  0  0  0  0  0  0
    4.3472   -1.0353    0.7584 C   0  0  0  0  0  0  0  0  0  0  0  0
    4.8628   -2.2358    1.9087 Cl  0  0  0  0  0  0  0  0  0  0  0  0
    3.2225   -1.2317   -0.0627 C   0  0  0  0  0  0  0  0  0  0  0  0
    2.2355   -2.8504    0.0536 Br  0  0  0  0  0  0  0  0  0  0  0  0
    1.4545    0.4803   -2.4862 H   0  0  0  0  0  0  0  0  0  0  0  0
    0.6977   -0.5806   -1.2652 H   0  0  0  0  0  0  0  0  0  0  0  0
    1.7248   -1.2846   -2.5187 H   0  0  0  0  0  0  0  0  0  0  0  0
    3.2709    1.7452   -1.7154 H   0  0  0  0  0  0  0  0  0  0  0  0
    7.1822    1.6283    0.2929 H   0  0  0  0  0  0  0  0  0  0  0  0
    6.0632    4.2889   -1.6665 H   0  0  0  0  0  0  0  0  0  0  0  0
    6.1718    4.4807    1.7301 H   0  0  0  0  0  0  0  0  0  0  0  0
    6.5033    5.7365    0.5027 H   0  0  0  0  0  0  0  0  0  0  0  0
    8.3463    5.1348    2.7804 H   0  0  0  0  0  0  0  0  0  0  0  0
    8.9171    5.8223    1.2324 H   0  0  0  0  0  0  0  0  0  0  0  0
    8.5591    2.8242    1.8609 H   0  0  0  0  0  0  0  0  0  0  0  0
    9.6892    3.5248    0.6408 H   0  0  0  0  0  0  0  0  0  0  0  0
    5.9254    0.2804    1.3503 H   0  0  0  0  0  0  0  0  0  0  0  0
  1  2  1  0
  1 20  1  0
  1 21  1  0
  1 22  1  0
  2  3  2  0
  2 18  1  0
  3  4  1  0
  3 23  1  0
  4  5  1  0
  4 15  2  0
  5  6  2  0
  5  7  1  0
  7  8  1  0
  7 24  1  0
  8  9  1  6
  8 12  1  0
  8 14  1  0
  9 10  2  0
  9 11  1  0
 11 25  1  0
 12 13  1  0
 12 26  1  0
 12 27  1  0
 13 14  1  0
 13 28  1  0
 13 29  1  0
 14 30  1  0
 14 31  1  0
 15 16  1  0
 15 32  1  0
 16 17  1  0
 16 18  2  0
 18 19  1  0
M  END

