
     RDKit          3D

 33 35  0  0  0  0  0  0  0  0999 V2000
    4.4557   -2.1707    2.0918 N   0  0  0  0  0  0  0  0  0  0  0  0
    4.1099   -1.2405    1.4869 C   0  0  0  0  0  0  0  0  0  0  0  0
    3.7122   -0.0678    0.7645 C   0  0  0  0  0  0  0  0  0  0  0  0
    2.7747   -0.0498   -0.2315 C   0  0  0  0  0  0  0  0  0  0  0  0
    1.9629   -1.1038   -0.8167 C   0  0  0  0  0  0  0  0  0  0  0  0
    2.0077   -2.4604   -0.4125 C   0  0  0  0  0  0  0  0  0  0  0  0
    1.2145   -3.4397   -0.9965 C   0  0  0  0  0  0  0  0  0  0  0  0
    0.3334   -3.0851   -2.0242 C   0  0  0  0  0  0  0  0  0  0  0  0
   -0.6687   -4.2976   -2.7677 Cl  0  0  0  0  0  0  0  0  0  0  0  0
    0.2487   -1.7620   -2.4622 C   0  0  0  0  0  0  0  0  0  0  0  0
    1.0524   -0.7913   -1.8651 C   0  0  0  0  0  0  0  0  0  0  0  0
    0.8872    0.8416   -2.4709 Cl  0  0  0  0  0  0  0  0  0  0  0  0
    4.3827    1.1873    1.1500 C   0  0  0  0  0  0  0  0  0  0  0  0
    4.1478    2.3472    0.6034 N   0  0  0  0  0  0  0  0  0  0  0  0
    4.9070    3.3523    1.1466 C   0  0  0  0  0  0  0  0  0  0  0  0
    4.7644    4.7336    0.6410 C   0  0  0  0  0  0  0  0  0  0  0  0
    5.5236    5.7985    1.1601 C   0  0  0  0  0  0  0  0  0  0  0  0
    5.3771    7.0958    0.6728 C   0  0  0  0  0  0  0  0  0  0  0  0
    4.4585    7.3460   -0.3519 C   0  0  0  0  0  0  0  0  0  0  0  0
    4.2699    8.9705   -0.9675 Cl  0  0  0  0  0  0  0  0  0  0  0  0
    3.6920    6.3064   -0.8855 C   0  0  0  0  0  0  0  0  0  0  0  0
    3.8481    5.0128   -0.3891 C   0  0  0  0  0  0  0  0  0  0  0  0
    5.7571    2.9294    2.1532 C   0  0  0  0  0  0  0  0  0  0  0  0
    5.5976    1.2372    2.4200 S   0  0  0  0  0  0  0  0  0  0  0  0
    2.6186    0.9440   -0.6536 H   0  0  0  0  0  0  0  0  0  0  0  0
    2.6856   -2.7597    0.3852 H   0  0  0  0  0  0  0  0  0  0  0  0
    1.2744   -4.4755   -0.6607 H   0  0  0  0  0  0  0  0  0  0  0  0
   -0.4374   -1.4865   -3.2624 H   0  0  0  0  0  0  0  0  0  0  0  0
    6.2462    5.6231    1.9598 H   0  0  0  0  0  0  0  0  0  0  0  0
    5.9707    7.9149    1.0819 H   0  0  0  0  0  0  0  0  0  0  0  0
    2.9784    6.5135   -1.6848 H   0  0  0  0  0  0  0  0  0  0  0  0
    3.2541    4.1956   -0.7995 H   0  0  0  0  0  0  0  0  0  0  0  0
    6.4574    3.5160    2.7429 H   0  0  0  0  0  0  0  0  0  0  0  0
  1  2  3  0
  2  3  1  0
  3  4  2  0
  3 13  1  0
  4  5  1  0
  4 25  1  0
  5  6  2  0
  5 11  1  0
  6  7  1  0
  6 26  1  0
  7  8  2  0
  7 27  1  0
  8  9  1  0
  8 10  1  0
 10 11  2  0
 10 28  1  0
 11 12  1  0
 13 14  2  0
 13 24  1  0
 14 15  1  0
 15 16  1  0
 15 23  2  0
 16 17  2  0
 16 22  1  0
 17 18  1  0
 17 29  1  0
 18 19  2  0
 18 30  1  0
 19 20  1  0
 19 21  1  0
 21 22  2  0
 21 31  1  0
 22 32  1  0
 23 24  1  0
 23 33  1  0
M  END

