
     RDKit          3D

 42 45  0  0  0  0  0  0  0  0999 V2000
    1.2696    0.5303    0.6567 O   0  0  0  0  0  0  0  0  0  0  0  0
    2.4522    0.2796    0.5296 C   0  0  0  0  0  0  0  0  0  0  0  0
    3.1259   -0.6187    1.5404 C   0  0  0  0  0  0  0  0  0  0  0  0
    3.0282   -0.2431    2.8890 C   0  0  0  0  0  0  0  0  0  0  0  0
    3.5407   -1.0663    3.8901 C   0  0  0  0  0  0  0  0  0  0  0  0
    3.4405   -0.5642    5.5587 Cl  0  0  0  0  0  0  0  0  0  0  0  0
    4.1243   -2.2961    3.5690 C   0  0  0  0  0  0  0  0  0  0  0  0
    4.1853   -2.6975    2.2354 C   0  0  0  0  0  0  0  0  0  0  0  0
    3.6886   -1.8677    1.2260 C   0  0  0  0  0  0  0  0  0  0  0  0
    3.7615   -2.4317   -0.4253 Cl  0  0  0  0  0  0  0  0  0  0  0  0
    3.1797    0.7954   -0.5417 N   0  0  0  0  0  0  0  0  0  0  0  0
    2.3917    1.3851   -1.6457 C   0  0  0  0  0  0  0  0  0  0  0  0
    2.0594    2.8642   -1.4334 C   0  0  1  0  0  0  0  0  0  0  0  0
    3.2324    3.8534   -1.4775 C   0  0  0  0  0  0  0  0  0  0  0  0
    2.5395    5.1268   -1.9770 C   0  0  0  0  0  0  0  0  0  0  0  0
    1.5268    4.5549   -2.9762 C   0  0  0  0  0  0  0  0  0  0  0  0
    1.1990    3.2507   -2.5056 O   0  0  0  0  0  0  0  0  0  0  0  0
    4.5708    0.8219   -0.6586 C   0  0  0  0  0  0  0  0  0  0  0  0
    5.1698    0.9133   -1.8004 N   0  0  0  0  0  0  0  0  0  0  0  0
    6.5370    1.0252   -1.6614 C   0  0  0  0  0  0  0  0  0  0  0  0
    7.4604    1.1182   -2.7163 C   0  0  0  0  0  0  0  0  0  0  0  0
    8.8183    1.2102   -2.4215 C   0  0  0  0  0  0  0  0  0  0  0  0
    9.2717    1.2089   -1.0894 C   0  0  0  0  0  0  0  0  0  0  0  0
    8.3726    1.1149   -0.0260 C   0  0  0  0  0  0  0  0  0  0  0  0
    7.0089    1.0316   -0.3238 C   0  0  0  0  0  0  0  0  0  0  0  0
    5.6458    0.9045    0.7698 S   0  0  0  0  0  0  0  0  0  0  0  0
    2.5491    0.7017    3.1488 H   0  0  0  0  0  0  0  0  0  0  0  0
    4.5162   -2.9379    4.3596 H   0  0  0  0  0  0  0  0  0  0  0  0
    4.6162   -3.6637    1.9685 H   0  0  0  0  0  0  0  0  0  0  0  0
    1.4502    0.8275   -1.7136 H   0  0  0  0  0  0  0  0  0  0  0  0
    2.9609    1.2503   -2.5724 H   0  0  0  0  0  0  0  0  0  0  0  0
    1.5138    2.9622   -0.4751 H   0  0  0  0  0  0  0  0  0  0  0  0
    3.9888    3.5149   -2.2040 H   0  0  0  0  0  0  0  0  0  0  0  0
    3.7292    3.9745   -0.5033 H   0  0  0  0  0  0  0  0  0  0  0  0
    3.2295    5.8531   -2.4322 H   0  0  0  0  0  0  0  0  0  0  0  0
    2.0185    5.6311   -1.1463 H   0  0  0  0  0  0  0  0  0  0  0  0
    1.9624    4.4845   -3.9918 H   0  0  0  0  0  0  0  0  0  0  0  0
    0.6056    5.1579   -3.0491 H   0  0  0  0  0  0  0  0  0  0  0  0
    7.0955    1.1122   -3.7451 H   0  0  0  0  0  0  0  0  0  0  0  0
    9.5435    1.2822   -3.2356 H   0  0  0  0  0  0  0  0  0  0  0  0
   10.3418    1.2829   -0.8818 H   0  0  0  0  0  0  0  0  0  0  0  0
    8.7270    1.1124    1.0069 H   0  0  0  0  0  0  0  0  0  0  0  0
  1  2  2  0
  2  3  1  0
  2 11  1  0
  3  4  2  0
  3  9  1  0
  4  5  1  0
  4 27  1  0
  5  6  1  0
  5  7  2  0
  7  8  1  0
  7 28  1  0
  8  9  2  0
  8 29  1  0
  9 10  1  0
 11 12  1  0
 11 18  1  0
 12 13  1  0
 12 30  1  0
 12 31  1  0
 13 14  1  0
 13 17  1  0
 13 32  1  1
 14 15  1  0
 14 33  1  0
 14 34  1  0
 15 16  1  0
 15 35  1  0
 15 36  1  0
 16 17  1  0
 16 37  1  0
 16 38  1  0
 18 19  2  0
 18 26  1  0
 19 20  1  0
 20 21  2  0
 20 25  1  0
 21 22  1  0
 21 39  1  0
 22 23  2  0
 22 40  1  0
 23 24  1  0
 23 41  1  0
 24 25  2  0
 24 42  1  0
 25 26  1  0
M  END

