
     RDKit          3D

 42 45  0  0  0  0  0  0  0  0999 V2000
    0.8733   -0.9833    0.5653 C   0  0  0  0  0  0  0  0  0  0  0  0
    2.3581   -0.7464    0.4222 C   0  0  0  0  0  0  0  0  0  0  0  0
    3.2224   -1.7551   -0.0339 C   0  0  0  0  0  0  0  0  0  0  0  0
    4.5938   -1.5310   -0.1440 C   0  0  0  0  0  0  0  0  0  0  0  0
    5.1476   -0.2843    0.1833 C   0  0  0  0  0  0  0  0  0  0  0  0
    4.2913    0.7518    0.6174 C   0  0  0  0  0  0  0  0  0  0  0  0
    2.9207    0.4967    0.7422 C   0  0  0  0  0  0  0  0  0  0  0  0
    4.8678    2.1266    0.9357 C   0  0  0  0  0  0  0  0  0  0  0  0
    6.2645    2.2683    0.5041 N   0  0  0  0  0  0  0  0  0  0  0  0
    6.9844    1.0621    0.8911 C   0  0  0  0  0  0  0  0  0  0  0  0
    6.5602   -0.0809    0.0865 N   0  0  0  0  0  0  0  0  0  0  0  0
    7.0573    0.1058   -1.2831 C   0  0  0  0  0  0  0  0  0  0  0  0
    6.8349    1.5253   -1.7940 C   0  0  0  0  0  0  0  0  0  0  0  0
    7.0352    1.8271   -3.1457 C   0  0  0  0  0  0  0  0  0  0  0  0
    6.8248    3.1248   -3.6632 C   0  0  0  0  0  0  0  0  0  0  0  0
    7.0301    3.4152   -5.0055 N   0  0  0  0  0  0  0  0  0  0  0  0
    7.3800    2.3555   -5.9247 C   0  0  0  0  0  0  0  0  0  0  0  0
    6.6959    4.7255   -5.5190 C   0  0  0  0  0  0  0  0  0  0  0  0
    6.3926    4.1203   -2.7497 C   0  0  0  0  0  0  0  0  0  0  0  0
    6.2180    3.8242   -1.4024 C   0  0  0  0  0  0  0  0  0  0  0  0
    6.4346    2.5346   -0.8960 C   0  0  0  0  0  0  0  0  0  0  0  0
    0.5911   -1.9917    0.2278 H   0  0  0  0  0  0  0  0  0  0  0  0
    0.2896   -0.2569   -0.0251 H   0  0  0  0  0  0  0  0  0  0  0  0
    0.5468   -0.8792    1.6141 H   0  0  0  0  0  0  0  0  0  0  0  0
    2.8161   -2.7377   -0.2909 H   0  0  0  0  0  0  0  0  0  0  0  0
    5.2621   -2.3325   -0.4688 H   0  0  0  0  0  0  0  0  0  0  0  0
    2.2649    1.3063    1.0831 H   0  0  0  0  0  0  0  0  0  0  0  0
    4.8151    2.3121    2.0248 H   0  0  0  0  0  0  0  0  0  0  0  0
    4.2616    2.9097    0.4564 H   0  0  0  0  0  0  0  0  0  0  0  0
    6.7961    0.8561    1.9556 H   0  0  0  0  0  0  0  0  0  0  0  0
    8.0659    1.2113    0.7533 H   0  0  0  0  0  0  0  0  0  0  0  0
    6.5634   -0.6183   -1.9480 H   0  0  0  0  0  0  0  0  0  0  0  0
    8.1364   -0.1348   -1.3022 H   0  0  0  0  0  0  0  0  0  0  0  0
    7.3476    1.0178   -3.8073 H   0  0  0  0  0  0  0  0  0  0  0  0
    8.3199    1.8525   -5.6331 H   0  0  0  0  0  0  0  0  0  0  0  0
    7.5302    2.7759   -6.9278 H   0  0  0  0  0  0  0  0  0  0  0  0
    6.5980    1.5733   -5.9989 H   0  0  0  0  0  0  0  0  0  0  0  0
    7.2743    5.5246   -5.0207 H   0  0  0  0  0  0  0  0  0  0  0  0
    5.6223    4.9730   -5.4002 H   0  0  0  0  0  0  0  0  0  0  0  0
    6.9328    4.7687   -6.5902 H   0  0  0  0  0  0  0  0  0  0  0  0
    6.2090    5.1396   -3.0872 H   0  0  0  0  0  0  0  0  0  0  0  0
    5.9166    4.6142   -0.7094 H   0  0  0  0  0  0  0  0  0  0  0  0
  1  2  1  0
  1 22  1  0
  1 23  1  0
  1 24  1  0
  2  3  2  0
  2  7  1  0
  3  4  1  0
  3 25  1  0
  4  5  2  0
  4 26  1  0
  5  6  1  0
  5 11  1  0
  6  7  2  0
  6  8  1  0
  7 27  1  0
  8  9  1  0
  8 28  1  0
  8 29  1  0
  9 10  1  0
  9 21  1  0
 10 11  1  0
 10 30  1  0
 10 31  1  0
 11 12  1  0
 12 13  1  0
 12 32  1  0
 12 33  1  0
 13 14  2  0
 13 21  1  0
 14 15  1  0
 14 34  1  0
 15 16  1  0
 15 19  2  0
 16 17  1  0
 16 18  1  0
 17 35  1  0
 17 36  1  0
 17 37  1  0
 18 38  1  0
 18 39  1  0
 18 40  1  0
 19 20  1  0
 19 41  1  0
 20 21  2  0
 20 42  1  0
M  END

