
     RDKit          3D

 45 47  0  0  0  0  0  0  0  0999 V2000
    2.5067    1.2787   -3.2511 C   0  0  0  0  0  0  0  0  0  0  0  0
    3.7917    1.2885   -4.0402 C   0  0  0  0  0  0  0  0  0  0  0  0
    4.9007    1.3048   -3.5682 O   0  0  0  0  0  0  0  0  0  0  0  0
    3.5358    1.2742   -5.3676 O   0  0  0  0  0  0  0  0  0  0  0  0
    4.6321    1.1867   -6.2756 C   0  0  0  0  0  0  0  0  0  0  0  0
    5.0428   -0.5591   -6.6781 S   0  0  0  0  0  0  0  0  0  0  0  0
    6.8573   -0.5821   -6.4021 C   0  0  0  0  0  0  0  0  0  0  0  0
    7.2884   -0.5715   -4.9267 C   0  0  0  0  0  0  0  0  0  0  0  0
    8.7758   -0.5419   -4.7262 C   0  0  0  0  0  0  0  0  0  0  0  0
    9.6462   -1.5702   -4.3998 C   0  0  0  0  0  0  0  0  0  0  0  0
   10.9556   -0.9967   -4.1789 C   0  0  0  0  0  0  0  0  0  0  0  0
   10.8589    0.3459   -4.3848 C   0  0  0  0  0  0  0  0  0  0  0  0
    9.5348    0.6504   -4.7341 N   0  0  0  0  0  0  0  0  0  0  0  0
    9.0744    1.9417   -5.0491 C   0  0  0  0  0  0  0  0  0  0  0  0
   10.0446    3.0817   -4.8036 C   0  0  0  0  0  0  0  0  0  0  0  0
    7.9654    2.1385   -5.4979 O   0  0  0  0  0  0  0  0  0  0  0  0
   12.1125   -1.8569   -3.7722 C   0  0  0  0  0  0  0  0  0  0  0  0
   11.5936   -2.9760   -2.8532 C   0  0  0  0  0  0  0  0  0  0  0  0
   10.4246   -3.7239   -3.4666 C   0  0  0  0  0  0  0  0  0  0  0  0
   10.2858   -5.1044   -3.2841 C   0  0  0  0  0  0  0  0  0  0  0  0
    9.2065   -5.8054   -3.8286 C   0  0  0  0  0  0  0  0  0  0  0  0
    8.2544   -5.1195   -4.5859 C   0  0  0  0  0  0  0  0  0  0  0  0
    8.3811   -3.7440   -4.7857 C   0  0  0  0  0  0  0  0  0  0  0  0
    9.4483   -3.0186   -4.2227 C   0  0  0  0  0  0  0  0  0  0  0  0
    2.7269    1.4133   -2.1854 H   0  0  0  0  0  0  0  0  0  0  0  0
    1.9923    0.3171   -3.4065 H   0  0  0  0  0  0  0  0  0  0  0  0
    1.8318    2.0705   -3.6088 H   0  0  0  0  0  0  0  0  0  0  0  0
    5.5253    1.6859   -5.8751 H   0  0  0  0  0  0  0  0  0  0  0  0
    4.2834    1.6895   -7.1868 H   0  0  0  0  0  0  0  0  0  0  0  0
    7.3043    0.2617   -6.9444 H   0  0  0  0  0  0  0  0  0  0  0  0
    7.1885   -1.5036   -6.9073 H   0  0  0  0  0  0  0  0  0  0  0  0
    6.8950   -1.4710   -4.4318 H   0  0  0  0  0  0  0  0  0  0  0  0
    6.8228    0.2854   -4.4232 H   0  0  0  0  0  0  0  0  0  0  0  0
   11.6222    1.1150   -4.3324 H   0  0  0  0  0  0  0  0  0  0  0  0
   10.9195    3.0086   -5.4684 H   0  0  0  0  0  0  0  0  0  0  0  0
   10.4081    3.0892   -3.7652 H   0  0  0  0  0  0  0  0  0  0  0  0
    9.5138    4.0172   -5.0159 H   0  0  0  0  0  0  0  0  0  0  0  0
   12.8954   -1.2668   -3.2706 H   0  0  0  0  0  0  0  0  0  0  0  0
   12.5778   -2.3118   -4.6667 H   0  0  0  0  0  0  0  0  0  0  0  0
   11.2704   -2.5226   -1.8970 H   0  0  0  0  0  0  0  0  0  0  0  0
   12.4012   -3.6829   -2.6075 H   0  0  0  0  0  0  0  0  0  0  0  0
   11.0410   -5.6411   -2.7022 H   0  0  0  0  0  0  0  0  0  0  0  0
    9.1180   -6.8836   -3.6726 H   0  0  0  0  0  0  0  0  0  0  0  0
    7.4148   -5.6566   -5.0346 H   0  0  0  0  0  0  0  0  0  0  0  0
    7.6478   -3.2328   -5.4091 H   0  0  0  0  0  0  0  0  0  0  0  0
  1  2  1  0
  1 25  1  0
  1 26  1  0
  1 27  1  0
  2  3  2  0
  2  4  1  0
  4  5  1  0
  5  6  1  0
  5 28  1  0
  5 29  1  0
  6  7  1  0
  7  8  1  0
  7 30  1  0
  7 31  1  0
  8  9  1  0
  8 32  1  0
  8 33  1  0
  9 10  2  0
  9 13  1  0
 10 11  1  0
 10 24  1  0
 11 12  2  0
 11 17  1  0
 12 13  1  0
 12 34  1  0
 13 14  1  0
 14 15  1  0
 14 16  2  0
 15 35  1  0
 15 36  1  0
 15 37  1  0
 17 18  1  0
 17 38  1  0
 17 39  1  0
 18 19  1  0
 18 40  1  0
 18 41  1  0
 19 20  1  0
 19 24  2  0
 20 21  2  0
 20 42  1  0
 21 22  1  0
 21 43  1  0
 22 23  2  0
 22 44  1  0
 23 24  1  0
 23 45  1  0
M  END

