
     RDKit          3D

 48 50  0  0  0  0  0  0  0  0999 V2000
    1.3388    3.8232   -1.0583 C   0  0  0  0  0  0  0  0  0  0  0  0
    1.6316    2.7655   -0.0973 N   0  0  0  0  0  0  0  0  0  0  0  0
    1.0995    2.8859    1.2662 C   0  0  0  0  0  0  0  0  0  0  0  0
    1.6026    4.1079    2.0120 C   0  0  0  0  0  0  0  0  0  0  0  0
    0.6939    5.0246    2.5584 C   0  0  0  0  0  0  0  0  0  0  0  0
    1.1443    6.1360    3.2790 C   0  0  0  0  0  0  0  0  0  0  0  0
    2.5142    6.3458    3.4529 C   0  0  0  0  0  0  0  0  0  0  0  0
    3.4288    5.4387    2.9050 C   0  0  0  0  0  0  0  0  0  0  0  0
    2.9789    4.3259    2.1910 C   0  0  0  0  0  0  0  0  0  0  0  0
    2.2473    1.3324   -0.6417 S   0  0  1  0  0  0  0  0  0  0  0  0
    2.0462    0.3232    0.3935 O   0  0  0  0  0  0  0  0  0  0  0  0
    1.8377    1.1082   -2.0290 O   0  0  0  0  0  0  0  0  0  0  0  0
    4.0328    1.5969   -0.7846 C   0  0  0  0  0  0  0  0  0  0  0  0
    4.7869    2.0938    0.1393 N   0  0  0  0  0  0  0  0  0  0  0  0
    6.1048    2.0911   -0.1620 N   0  0  0  0  0  0  0  0  0  0  0  0
    6.3441    1.5809   -1.3405 C   0  0  0  0  0  0  0  0  0  0  0  0
    7.5883    1.4461   -1.9217 N   0  0  0  0  0  0  0  0  0  0  0  0
    8.7654    2.1437   -1.5842 C   0  0  0  0  0  0  0  0  0  0  0  0
    8.8051    3.0078   -0.7478 O   0  0  0  0  0  0  0  0  0  0  0  0
    9.9725    1.6724   -2.3896 C   0  0  0  0  0  0  0  0  0  0  0  0
   11.2154    2.5409   -2.1568 C   0  0  0  0  0  0  0  0  0  0  0  0
   12.4223    2.0452   -2.9237 C   0  0  0  0  0  0  0  0  0  0  0  0
   12.6925    2.5081   -4.2216 C   0  0  0  0  0  0  0  0  0  0  0  0
   13.7876    2.0259   -4.9441 C   0  0  0  0  0  0  0  0  0  0  0  0
   14.6347    1.0685   -4.3786 C   0  0  0  0  0  0  0  0  0  0  0  0
   14.3799    0.6005   -3.0859 C   0  0  0  0  0  0  0  0  0  0  0  0
   13.2839    1.0859   -2.3672 C   0  0  0  0  0  0  0  0  0  0  0  0
    4.8968    1.0573   -2.2079 S   0  0  0  0  0  0  0  0  0  0  0  0
    1.7235    4.7846   -0.6853 H   0  0  0  0  0  0  0  0  0  0  0  0
    0.2510    3.9133   -1.2265 H   0  0  0  0  0  0  0  0  0  0  0  0
    1.8120    3.5968   -2.0214 H   0  0  0  0  0  0  0  0  0  0  0  0
    1.3718    1.9669    1.8026 H   0  0  0  0  0  0  0  0  0  0  0  0
   -0.0045    2.9130    1.2178 H   0  0  0  0  0  0  0  0  0  0  0  0
   -0.3804    4.8667    2.4215 H   0  0  0  0  0  0  0  0  0  0  0  0
    0.4221    6.8400    3.7006 H   0  0  0  0  0  0  0  0  0  0  0  0
    2.8702    7.2144    4.0130 H   0  0  0  0  0  0  0  0  0  0  0  0
    4.5024    5.5961    3.0376 H   0  0  0  0  0  0  0  0  0  0  0  0
    3.6979    3.6216    1.7637 H   0  0  0  0  0  0  0  0  0  0  0  0
    7.6508    0.8025   -2.7022 H   0  0  0  0  0  0  0  0  0  0  0  0
    9.7116    1.6493   -3.4631 H   0  0  0  0  0  0  0  0  0  0  0  0
   10.1806    0.6233   -2.1103 H   0  0  0  0  0  0  0  0  0  0  0  0
   11.4281    2.5638   -1.0772 H   0  0  0  0  0  0  0  0  0  0  0  0
   10.9824    3.5787   -2.4420 H   0  0  0  0  0  0  0  0  0  0  0  0
   12.0403    3.2645   -4.6692 H   0  0  0  0  0  0  0  0  0  0  0  0
   13.9833    2.4041   -5.9510 H   0  0  0  0  0  0  0  0  0  0  0  0
   15.4937    0.6930   -4.9404 H   0  0  0  0  0  0  0  0  0  0  0  0
   15.0414   -0.1420   -2.6318 H   0  0  0  0  0  0  0  0  0  0  0  0
   13.0982    0.7207   -1.3525 H   0  0  0  0  0  0  0  0  0  0  0  0
  1  2  1  0
  1 29  1  0
  1 30  1  0
  1 31  1  0
  2  3  1  0
 10  2  1  1
  3  4  1  0
  3 32  1  0
  3 33  1  0
  4  5  2  0
  4  9  1  0
  5  6  1  0
  5 34  1  0
  6  7  2  0
  6 35  1  0
  7  8  1  0
  7 36  1  0
  8  9  2  0
  8 37  1  0
  9 38  1  0
 10 11  2  0
 10 12  2  0
 10 13  1  0
 13 14  2  0
 13 28  1  0
 14 15  1  0
 15 16  2  0
 16 17  1  0
 16 28  1  0
 17 18  1  0
 17 39  1  0
 18 19  2  0
 18 20  1  0
 20 21  1  0
 20 40  1  0
 20 41  1  0
 21 22  1  0
 21 42  1  0
 21 43  1  0
 22 23  2  0
 22 27  1  0
 23 24  1  0
 23 44  1  0
 24 25  2  0
 24 45  1  0
 25 26  1  0
 25 46  1  0
 26 27  2  0
 26 47  1  0
 27 48  1  0
M  END

