
     RDKit          3D

 30 30  0  0  0  0  0  0  0  0999 V2000
    2.7283   -0.3808   -2.9807 N   0  0  0  0  0  0  0  0  0  0  0  0
    2.2531    0.7792   -2.2111 C   0  0  0  0  0  0  0  0  0  0  0  0
    3.0059    0.9075   -0.8821 C   0  0  0  0  0  0  0  0  0  0  0  0
    4.5368    1.0497   -1.0038 C   0  0  1  0  0  0  0  0  0  0  0  0
    5.1166   -0.1034   -1.5828 O   0  0  0  0  0  0  0  0  0  0  0  0
    4.9741    2.3287   -1.7406 C   0  0  0  0  0  0  0  0  0  0  0  0
    6.5025    2.5030   -1.7446 C   0  0  0  0  0  0  0  0  0  0  0  0
    6.9714    3.6887   -2.5563 C   0  0  0  0  0  0  0  0  0  0  0  0
    7.1528    4.9506   -1.9653 C   0  0  0  0  0  0  0  0  0  0  0  0
    7.5507    6.0513   -2.7295 C   0  0  0  0  0  0  0  0  0  0  0  0
    7.7764    5.9203   -4.1023 C   0  0  0  0  0  0  0  0  0  0  0  0
    7.5954    4.6659   -4.6802 C   0  0  0  0  0  0  0  0  0  0  0  0
    7.8127    4.5177   -5.9981 F   0  0  0  0  0  0  0  0  0  0  0  0
    7.2007    3.5580   -3.9354 C   0  0  0  0  0  0  0  0  0  0  0  0
    2.3488   -0.3754   -3.9273 H   0  0  0  0  0  0  0  0  0  0  0  0
    2.4148   -1.2505   -2.5459 H   0  0  0  0  0  0  0  0  0  0  0  0
    1.1626    0.7510   -2.0097 H   0  0  0  0  0  0  0  0  0  0  0  0
    2.4254    1.6784   -2.8253 H   0  0  0  0  0  0  0  0  0  0  0  0
    2.8010    0.0144   -0.2645 H   0  0  0  0  0  0  0  0  0  0  0  0
    2.5969    1.7696   -0.3277 H   0  0  0  0  0  0  0  0  0  0  0  0
    4.9393    1.1120    0.0251 H   0  0  0  0  0  0  0  0  0  0  0  0
    4.5401   -0.3368   -2.3404 H   0  0  0  0  0  0  0  0  0  0  0  0
    4.4963    3.2103   -1.2766 H   0  0  0  0  0  0  0  0  0  0  0  0
    4.6183    2.2925   -2.7852 H   0  0  0  0  0  0  0  0  0  0  0  0
    6.9423    1.5732   -2.1366 H   0  0  0  0  0  0  0  0  0  0  0  0
    6.8560    2.6061   -0.7044 H   0  0  0  0  0  0  0  0  0  0  0  0
    6.9859    5.0688   -0.8911 H   0  0  0  0  0  0  0  0  0  0  0  0
    7.6914    7.0243   -2.2516 H   0  0  0  0  0  0  0  0  0  0  0  0
    8.0913    6.7610   -4.7234 H   0  0  0  0  0  0  0  0  0  0  0  0
    7.0823    2.5962   -4.4402 H   0  0  0  0  0  0  0  0  0  0  0  0
  1  2  1  0
  1 15  1  0
  1 16  1  0
  2  3  1  0
  2 17  1  0
  2 18  1  0
  3  4  1  0
  3 19  1  0
  3 20  1  0
  4  5  1  0
  4  6  1  0
  4 21  1  1
  5 22  1  0
  6  7  1  0
  6 23  1  0
  6 24  1  0
  7  8  1  0
  7 25  1  0
  7 26  1  0
  8  9  2  0
  8 14  1  0
  9 10  1  0
  9 27  1  0
 10 11  2  0
 10 28  1  0
 11 12  1  0
 11 29  1  0
 12 13  1  0
 12 14  2  0
 14 30  1  0
M  END

