
     RDKit          3D

 36 37  0  0  0  0  0  0  0  0999 V2000
    3.4063    0.3276    1.2562 C   0  0  0  0  0  0  0  0  0  0  0  0
    2.4300    0.2943    0.0680 C   0  0  0  0  0  0  0  0  0  0  0  0
    2.8300   -0.6917   -1.0159 C   0  0  0  0  0  0  0  0  0  0  0  0
    3.6097   -0.2793   -2.1219 C   0  0  0  0  0  0  0  0  0  0  0  0
    4.0816    1.1459   -2.2799 C   0  0  0  0  0  0  0  0  0  0  0  0
    4.0628    1.6191   -3.5662 N   0  0  0  0  0  0  0  0  0  0  0  0
    4.4878    1.8337   -1.3562 O   0  0  0  0  0  0  0  0  0  0  0  0
    4.0019   -1.2176   -3.0910 C   0  0  0  0  0  0  0  0  0  0  0  0
    3.6417   -2.5521   -2.9704 C   0  0  0  0  0  0  0  0  0  0  0  0
    2.8533   -2.9864   -1.8963 C   0  0  0  0  0  0  0  0  0  0  0  0
    2.4340   -2.0539   -0.9229 C   0  0  0  0  0  0  0  0  0  0  0  0
    1.5816   -2.5255    0.2477 C   0  0  0  0  0  0  0  0  0  0  0  0
    0.9637   -3.9156    0.0680 C   0  0  0  0  0  0  0  0  0  0  0  0
    1.9991   -4.9096   -0.4555 C   0  0  1  0  0  0  0  0  0  0  0  0
    1.4906   -6.2222   -0.6067 O   0  0  0  0  0  0  0  0  0  0  0  0
    1.3982   -6.9773    0.5726 C   0  0  0  0  0  0  0  0  0  0  0  0
    2.4712   -4.4524   -1.8293 C   0  0  0  0  0  0  0  0  0  0  0  0
    3.0472    1.0246    2.0308 H   0  0  0  0  0  0  0  0  0  0  0  0
    4.3918    0.6734    0.9156 H   0  0  0  0  0  0  0  0  0  0  0  0
    3.5230   -0.6629    1.7246 H   0  0  0  0  0  0  0  0  0  0  0  0
    2.3742    1.3072   -0.3510 H   0  0  0  0  0  0  0  0  0  0  0  0
    1.4198    0.0515    0.4318 H   0  0  0  0  0  0  0  0  0  0  0  0
    3.5467    1.1509   -4.2986 H   0  0  0  0  0  0  0  0  0  0  0  0
    4.3456    2.5820   -3.7091 H   0  0  0  0  0  0  0  0  0  0  0  0
    4.6302   -0.8997   -3.9263 H   0  0  0  0  0  0  0  0  0  0  0  0
    3.9793   -3.2776   -3.7161 H   0  0  0  0  0  0  0  0  0  0  0  0
    0.7761   -1.8011    0.4426 H   0  0  0  0  0  0  0  0  0  0  0  0
    2.1998   -2.5179    1.1639 H   0  0  0  0  0  0  0  0  0  0  0  0
    0.1305   -3.8804   -0.6558 H   0  0  0  0  0  0  0  0  0  0  0  0
    0.5386   -4.2541    1.0263 H   0  0  0  0  0  0  0  0  0  0  0  0
    2.8635   -4.9279    0.2436 H   0  0  0  0  0  0  0  0  0  0  0  0
    1.0430   -7.9811    0.2958 H   0  0  0  0  0  0  0  0  0  0  0  0
    0.6848   -6.5517    1.3053 H   0  0  0  0  0  0  0  0  0  0  0  0
    2.3812   -7.0802    1.0761 H   0  0  0  0  0  0  0  0  0  0  0  0
    1.6467   -4.6563   -2.5372 H   0  0  0  0  0  0  0  0  0  0  0  0
    3.3146   -5.0783   -2.1619 H   0  0  0  0  0  0  0  0  0  0  0  0
  1  2  1  0
  1 18  1  0
  1 19  1  0
  1 20  1  0
  2  3  1  0
  2 21  1  0
  2 22  1  0
  3  4  2  0
  3 11  1  0
  4  5  1  0
  4  8  1  0
  5  6  1  0
  5  7  2  0
  6 23  1  0
  6 24  1  0
  8  9  2  0
  8 25  1  0
  9 10  1  0
  9 26  1  0
 10 11  2  0
 10 17  1  0
 11 12  1  0
 12 13  1  0
 12 27  1  0
 12 28  1  0
 13 14  1  0
 13 29  1  0
 13 30  1  0
 14 15  1  0
 14 17  1  0
 14 31  1  1
 15 16  1  0
 16 32  1  0
 16 33  1  0
 16 34  1  0
 17 35  1  0
 17 36  1  0
M  END

