
     RDKit          3D

 43 44  0  0  0  0  0  0  0  0999 V2000
    0.5319   -0.3026    0.7817 C   0  0  0  0  0  0  0  0  0  0  0  0
    2.0182   -0.1958    0.3938 C   0  0  1  0  0  0  0  0  0  0  0  0
    2.7685   -1.5014    0.7155 C   0  0  0  0  0  0  0  0  0  0  0  0
    2.1139    0.0598   -1.0068 O   0  0  0  0  0  0  0  0  0  0  0  0
    2.6745    0.9908    1.1062 C   0  0  0  0  0  0  0  0  0  0  0  0
    2.7444    1.0400    2.5097 C   0  0  0  0  0  0  0  0  0  0  0  0
    3.3388    2.1176    3.1643 C   0  0  0  0  0  0  0  0  0  0  0  0
    3.8862    3.1883    2.4387 C   0  0  0  0  0  0  0  0  0  0  0  0
    4.5202    4.3620    3.1539 C   0  0  0  0  0  0  0  0  0  0  0  0
    5.5390    3.9368    4.1071 N   0  0  0  0  0  0  0  0  0  0  0  0
    6.1905    5.0254    4.8141 C   0  0  0  0  0  0  0  0  0  0  0  0
    7.1642    4.5384    5.8699 C   0  0  0  0  0  0  0  0  0  0  0  0
    8.2948    5.2948    6.2096 C   0  0  0  0  0  0  0  0  0  0  0  0
    9.1588    4.8759    7.2267 C   0  0  0  0  0  0  0  0  0  0  0  0
    8.9118    3.6879    7.9128 C   0  0  0  0  0  0  0  0  0  0  0  0
    7.8005    2.9027    7.5696 C   0  0  0  0  0  0  0  0  0  0  0  0
    7.5805    1.6283    8.3394 C   0  0  0  0  0  0  0  0  0  0  0  0
    8.1340    1.3827    9.3790 O   0  0  0  0  0  0  0  0  0  0  0  0
    6.7171    0.7382    7.7997 O   0  0  0  0  0  0  0  0  0  0  0  0
    6.9314    3.3406    6.5594 C   0  0  0  0  0  0  0  0  0  0  0  0
    3.8207    3.1357    1.0418 C   0  0  0  0  0  0  0  0  0  0  0  0
    3.2222    2.0566    0.3821 C   0  0  0  0  0  0  0  0  0  0  0  0
    0.0594   -1.1469    0.2503 H   0  0  0  0  0  0  0  0  0  0  0  0
    0.0047    0.6220    0.5037 H   0  0  0  0  0  0  0  0  0  0  0  0
    0.3963   -0.4710    1.8607 H   0  0  0  0  0  0  0  0  0  0  0  0
    2.3029   -2.3491    0.1835 H   0  0  0  0  0  0  0  0  0  0  0  0
    2.7525   -1.7345    1.7908 H   0  0  0  0  0  0  0  0  0  0  0  0
    3.8165   -1.4211    0.3910 H   0  0  0  0  0  0  0  0  0  0  0  0
    1.7008   -0.6805   -1.4690 H   0  0  0  0  0  0  0  0  0  0  0  0
    2.3266    0.2265    3.1090 H   0  0  0  0  0  0  0  0  0  0  0  0
    3.3855    2.1338    4.2559 H   0  0  0  0  0  0  0  0  0  0  0  0
    3.7468    4.9136    3.7212 H   0  0  0  0  0  0  0  0  0  0  0  0
    4.9090    5.0795    2.3983 H   0  0  0  0  0  0  0  0  0  0  0  0
    6.2345    3.3599    3.6325 H   0  0  0  0  0  0  0  0  0  0  0  0
    5.3988    5.6218    5.3070 H   0  0  0  0  0  0  0  0  0  0  0  0
    6.7170    5.7380    4.1404 H   0  0  0  0  0  0  0  0  0  0  0  0
    8.5001    6.2256    5.6727 H   0  0  0  0  0  0  0  0  0  0  0  0
   10.0324    5.4813    7.4810 H   0  0  0  0  0  0  0  0  0  0  0  0
    9.5675    3.3421    8.7138 H   0  0  0  0  0  0  0  0  0  0  0  0
    6.4399    1.0286    6.9195 H   0  0  0  0  0  0  0  0  0  0  0  0
    6.0353    2.7778    6.2831 H   0  0  0  0  0  0  0  0  0  0  0  0
    4.2448    3.9542    0.4520 H   0  0  0  0  0  0  0  0  0  0  0  0
    3.1794    2.0318   -0.7062 H   0  0  0  0  0  0  0  0  0  0  0  0
  1  2  1  0
  1 23  1  0
  1 24  1  0
  1 25  1  0
  2  3  1  0
  2  4  1  6
  2  5  1  0
  3 26  1  0
  3 27  1  0
  3 28  1  0
  4 29  1  0
  5  6  2  0
  5 22  1  0
  6  7  1  0
  6 30  1  0
  7  8  2  0
  7 31  1  0
  8  9  1  0
  8 21  1  0
  9 10  1  0
  9 32  1  0
  9 33  1  0
 10 11  1  0
 10 34  1  0
 11 12  1  0
 11 35  1  0
 11 36  1  0
 12 13  2  0
 12 20  1  0
 13 14  1  0
 13 37  1  0
 14 15  2  0
 14 38  1  0
 15 16  1  0
 15 39  1  0
 16 17  1  0
 16 20  2  0
 17 18  2  0
 17 19  1  0
 19 40  1  0
 20 41  1  0
 21 22  2  0
 21 42  1  0
 22 43  1  0
M  END

