
     RDKit          3D

 54 57  0  0  0  0  0  0  0  0999 V2000
    3.8222   -1.1848   -2.6785 C   0  0  0  0  0  0  0  0  0  0  0  0
    4.4843   -0.8651   -1.4808 O   0  0  0  0  0  0  0  0  0  0  0  0
    4.3607   -1.6908   -0.4005 C   0  0  0  0  0  0  0  0  0  0  0  0
    3.5774   -2.8708   -0.4066 C   0  0  0  0  0  0  0  0  0  0  0  0
    3.4912   -3.6762    0.7289 C   0  0  0  0  0  0  0  0  0  0  0  0
    4.1950   -3.2903    1.8724 C   0  0  0  0  0  0  0  0  0  0  0  0
    4.2938   -3.8810    3.1160 N   0  0  0  0  0  0  0  0  0  0  0  0
    3.8396   -4.7384    3.3974 H   0  0  0  0  0  0  0  0  0  0  0  0
    5.1109   -3.1124    3.9180 C   0  0  0  0  0  0  0  0  0  0  0  0
    5.5602   -2.0063    3.2266 C   0  0  0  0  0  0  0  0  0  0  0  0
    6.5349   -0.9482    3.7159 C   0  0  1  0  0  0  0  0  0  0  0  0
    6.7125   -0.9768    5.2514 C   0  0  0  0  0  0  0  0  0  0  0  0
    7.9170   -1.2271    3.0782 C   0  0  0  0  0  0  0  0  0  0  0  0
    6.1096    0.4933    3.2835 C   0  0  0  0  0  0  0  0  0  0  0  0
    6.9048    1.1955    2.6734 O   0  0  0  0  0  0  0  0  0  0  0  0
    4.8660    0.9851    3.6206 N   0  0  0  0  0  0  0  0  0  0  0  0
    3.7519    0.2962    4.2623 C   0  0  0  0  0  0  0  0  0  0  0  0
    3.2128    1.1170    5.4374 C   0  0  0  0  0  0  0  0  0  0  0  0
    2.8736    2.4764    5.0255 N   0  0  0  0  0  0  0  0  0  0  0  0
    1.5877    2.9152    5.2436 C   0  0  0  0  0  0  0  0  0  0  0  0
    0.7239    2.1772    5.7079 O   0  0  0  0  0  0  0  0  0  0  0  0
    1.1733    4.3127    4.9378 C   0  0  0  0  0  0  0  0  0  0  0  0
   -0.1070    4.8060    5.0045 C   0  0  0  0  0  0  0  0  0  0  0  0
   -0.0293    6.1936    4.6789 C   0  0  0  0  0  0  0  0  0  0  0  0
    1.2930    6.4504    4.4425 C   0  0  0  0  0  0  0  0  0  0  0  0
    2.0284    5.3243    4.5961 O   0  0  0  0  0  0  0  0  0  0  0  0
    3.9761    3.1679    4.3610 C   0  0  0  0  0  0  0  0  0  0  0  0
    4.5136    2.3364    3.1922 C   0  0  0  0  0  0  0  0  0  0  0  0
    4.9871   -2.1047    1.8992 C   0  0  0  0  0  0  0  0  0  0  0  0
    5.0643   -1.3061    0.7440 C   0  0  0  0  0  0  0  0  0  0  0  0
    4.0719   -0.3916   -3.3970 H   0  0  0  0  0  0  0  0  0  0  0  0
    2.7234   -1.2149   -2.5537 H   0  0  0  0  0  0  0  0  0  0  0  0
    4.1546   -2.1547   -3.0935 H   0  0  0  0  0  0  0  0  0  0  0  0
    3.0309   -3.1663   -1.3019 H   0  0  0  0  0  0  0  0  0  0  0  0
    2.8848   -4.5854    0.7133 H   0  0  0  0  0  0  0  0  0  0  0  0
    5.3134   -3.4173    4.9426 H   0  0  0  0  0  0  0  0  0  0  0  0
    7.1562   -1.9347    5.5657 H   0  0  0  0  0  0  0  0  0  0  0  0
    5.7697   -0.8472    5.8022 H   0  0  0  0  0  0  0  0  0  0  0  0
    7.4014   -0.1779    5.5657 H   0  0  0  0  0  0  0  0  0  0  0  0
    8.2622   -2.2251    3.3886 H   0  0  0  0  0  0  0  0  0  0  0  0
    8.6534   -0.4732    3.3885 H   0  0  0  0  0  0  0  0  0  0  0  0
    7.8628   -1.2050    1.9818 H   0  0  0  0  0  0  0  0  0  0  0  0
    4.0545   -0.6953    4.6060 H   0  0  0  0  0  0  0  0  0  0  0  0
    2.9428    0.1479    3.5226 H   0  0  0  0  0  0  0  0  0  0  0  0
    3.9818    1.1645    6.2319 H   0  0  0  0  0  0  0  0  0  0  0  0
    2.3078    0.6547    5.8486 H   0  0  0  0  0  0  0  0  0  0  0  0
   -0.9832    4.2195    5.2666 H   0  0  0  0  0  0  0  0  0  0  0  0
   -0.8461    6.9105    4.6292 H   0  0  0  0  0  0  0  0  0  0  0  0
    1.8435    7.3469    4.1683 H   0  0  0  0  0  0  0  0  0  0  0  0
    4.7906    3.3334    5.0914 H   0  0  0  0  0  0  0  0  0  0  0  0
    3.6532    4.1455    3.9975 H   0  0  0  0  0  0  0  0  0  0  0  0
    5.4105    2.8011    2.7666 H   0  0  0  0  0  0  0  0  0  0  0  0
    3.7410    2.2794    2.4017 H   0  0  0  0  0  0  0  0  0  0  0  0
    5.6635   -0.3951    0.7068 H   0  0  0  0  0  0  0  0  0  0  0  0
  1  2  1  0
  1 31  1  0
  1 32  1  0
  1 33  1  0
  2  3  1  0
  3  4  2  0
  3 30  1  0
  4  5  1  0
  4 34  1  0
  5  6  2  0
  5 35  1  0
  6  7  1  0
  6 29  1  0
  7  8  1  0
  7  9  1  0
  9 10  2  0
  9 36  1  0
 10 11  1  0
 10 29  1  0
 11 12  1  0
 11 13  1  0
 11 14  1  6
 12 37  1  0
 12 38  1  0
 12 39  1  0
 13 40  1  0
 13 41  1  0
 13 42  1  0
 14 15  2  0
 14 16  1  0
 16 17  1  0
 16 28  1  0
 17 18  1  0
 17 43  1  0
 17 44  1  0
 18 19  1  0
 18 45  1  0
 18 46  1  0
 19 20  1  0
 19 27  1  0
 20 21  2  0
 20 22  1  0
 22 23  2  0
 22 26  1  0
 23 24  1  0
 23 47  1  0
 24 25  2  0
 24 48  1  0
 25 26  1  0
 25 49  1  0
 27 28  1  0
 27 50  1  0
 27 51  1  0
 28 52  1  0
 28 53  1  0
 29 30  2  0
 30 54  1  0
M  END

