
     RDKit          3D

 37 40  0  0  0  0  0  0  0  0999 V2000
    4.0591   -0.0400    2.7760 O   0  0  0  0  0  0  0  0  0  0  0  0
    3.8907   -0.0017    1.5664 C   0  0  0  0  0  0  0  0  0  0  0  0
    3.1472    0.9841    0.9700 N   0  0  0  0  0  0  0  0  0  0  0  0
    2.5061    2.0264    1.7494 C   0  0  0  0  0  0  0  0  0  0  0  0
    3.4519    3.1643    2.1386 C   0  0  1  0  0  0  0  0  0  0  0  0
    4.0497    3.9826    0.9643 C   0  0  0  0  0  0  0  0  0  0  0  0
    3.8549    5.4029    1.4424 C   0  0  0  0  0  0  0  0  0  0  0  0
    4.2850    6.6280    0.9416 C   0  0  0  0  0  0  0  0  0  0  0  0
    3.8916    7.8073    1.5942 C   0  0  0  0  0  0  0  0  0  0  0  0
    3.0725    7.7463    2.7278 C   0  0  0  0  0  0  0  0  0  0  0  0
    2.6316    6.5187    3.2414 C   0  0  0  0  0  0  0  0  0  0  0  0
    3.0379    5.3616    2.5798 C   0  0  0  0  0  0  0  0  0  0  0  0
    2.6966    4.0986    2.9470 O   0  0  0  0  0  0  0  0  0  0  0  0
    4.4916   -1.0318    0.6465 C   0  0  0  0  0  0  0  0  0  0  0  0
    5.5634   -1.7752    1.1557 C   0  0  0  0  0  0  0  0  0  0  0  0
    6.1960   -2.7637    0.3845 C   0  0  0  0  0  0  0  0  0  0  0  0
    7.5357   -3.6830    1.0027 Cl  0  0  0  0  0  0  0  0  0  0  0  0
    5.7149   -2.9920   -0.8971 C   0  0  0  0  0  0  0  0  0  0  0  0
    4.6345   -2.2581   -1.3959 C   0  0  0  0  0  0  0  0  0  0  0  0
    3.9987   -1.2784   -0.6584 C   0  0  0  0  0  0  0  0  0  0  0  0
    4.3585   -2.6815   -2.6648 O   0  0  0  0  0  0  0  0  0  0  0  0
    5.2485   -3.7608   -2.9402 C   0  0  0  0  0  0  0  0  0  0  0  0
    6.1419   -3.8793   -1.8314 O   0  0  0  0  0  0  0  0  0  0  0  0
    3.1760    1.0810   -0.0363 H   0  0  0  0  0  0  0  0  0  0  0  0
    2.1061    1.5775    2.6695 H   0  0  0  0  0  0  0  0  0  0  0  0
    1.6623    2.4380    1.1727 H   0  0  0  0  0  0  0  0  0  0  0  0
    4.2537    2.7524    2.7742 H   0  0  0  0  0  0  0  0  0  0  0  0
    3.4977    3.8051    0.0217 H   0  0  0  0  0  0  0  0  0  0  0  0
    5.1027    3.7232    0.7773 H   0  0  0  0  0  0  0  0  0  0  0  0
    4.9208    6.6753    0.0531 H   0  0  0  0  0  0  0  0  0  0  0  0
    4.2267    8.7759    1.2162 H   0  0  0  0  0  0  0  0  0  0  0  0
    2.7732    8.6711    3.2280 H   0  0  0  0  0  0  0  0  0  0  0  0
    1.9975    6.4586    4.1277 H   0  0  0  0  0  0  0  0  0  0  0  0
    5.8999   -1.5769    2.1735 H   0  0  0  0  0  0  0  0  0  0  0  0
    3.1342   -0.7572   -1.0707 H   0  0  0  0  0  0  0  0  0  0  0  0
    5.8238   -3.5469   -3.8570 H   0  0  0  0  0  0  0  0  0  0  0  0
    4.6759   -4.6998   -3.0554 H   0  0  0  0  0  0  0  0  0  0  0  0
  1  2  2  0
  2  3  1  0
  2 14  1  0
  3  4  1  0
  3 24  1  0
  4  5  1  0
  4 25  1  0
  4 26  1  0
  5  6  1  0
  5 13  1  0
  5 27  1  1
  6  7  1  0
  6 28  1  0
  6 29  1  0
  7  8  1  0
  7 12  2  0
  8  9  2  0
  8 30  1  0
  9 10  1  0
  9 31  1  0
 10 11  2  0
 10 32  1  0
 11 12  1  0
 11 33  1  0
 12 13  1  0
 14 15  2  0
 14 20  1  0
 15 16  1  0
 15 34  1  0
 16 17  1  0
 16 18  2  0
 18 19  1  0
 18 23  1  0
 19 20  2  0
 19 21  1  0
 20 35  1  0
 21 22  1  0
 22 23  1  0
 22 36  1  0
 22 37  1  0
M  END

