
     RDKit          3D

 45 45  0  0  0  0  0  0  0  0999 V2000
    4.5909   -1.3407    2.2143 C   0  0  0  0  0  0  0  0  0  0  0  0
    4.0418   -1.3075    0.7859 C   0  0  0  0  0  0  0  0  0  0  0  0
    4.6098   -2.3868   -0.1619 C   0  0  1  0  0  0  0  0  0  0  0  0
    4.2151   -3.8072    0.2516 C   0  0  0  0  0  0  0  0  0  0  0  0
    4.2255   -2.1891   -1.5628 N   0  0  0  0  0  0  0  0  0  0  0  0
    4.8308   -1.0832   -2.2948 C   0  0  0  0  0  0  0  0  0  0  0  0
    6.3415   -1.1957   -2.4394 C   0  0  0  0  0  0  0  0  0  0  0  0
    7.1232   -0.1000   -2.0236 C   0  0  0  0  0  0  0  0  0  0  0  0
    8.5230   -0.0776   -2.0507 C   0  0  0  0  0  0  0  0  0  0  0  0
    9.3574    1.1347   -1.5933 C   0  0  1  0  0  0  0  0  0  0  0  0
    8.4768    2.3049   -1.1193 C   0  0  0  0  0  0  0  0  0  0  0  0
   10.2755    0.7171   -0.4212 C   0  0  0  0  0  0  0  0  0  0  0  0
   10.2268    1.6332   -2.7711 C   0  0  0  0  0  0  0  0  0  0  0  0
    9.1585   -1.2432   -2.5154 C   0  0  0  0  0  0  0  0  0  0  0  0
    8.4219   -2.3408   -2.9438 C   0  0  0  0  0  0  0  0  0  0  0  0
    7.0170   -2.3377   -2.9252 C   0  0  0  0  0  0  0  0  0  0  0  0
    6.4365   -3.4970   -3.3483 O   0  0  0  0  0  0  0  0  0  0  0  0
    5.3312   -3.4744   -4.2309 C   0  0  0  0  0  0  0  0  0  0  0  0
    4.1971   -0.5030    2.8119 H   0  0  0  0  0  0  0  0  0  0  0  0
    5.6912   -1.2616    2.2191 H   0  0  0  0  0  0  0  0  0  0  0  0
    4.3242   -2.2709    2.7405 H   0  0  0  0  0  0  0  0  0  0  0  0
    4.2520   -0.3150    0.3513 H   0  0  0  0  0  0  0  0  0  0  0  0
    2.9391   -1.4033    0.8068 H   0  0  0  0  0  0  0  0  0  0  0  0
    5.7116   -2.3186   -0.1296 H   0  0  0  0  0  0  0  0  0  0  0  0
    3.1185   -3.9352    0.2156 H   0  0  0  0  0  0  0  0  0  0  0  0
    4.5447   -4.0466    1.2741 H   0  0  0  0  0  0  0  0  0  0  0  0
    4.6647   -4.5344   -0.4400 H   0  0  0  0  0  0  0  0  0  0  0  0
    3.2101   -2.1478   -1.6453 H   0  0  0  0  0  0  0  0  0  0  0  0
    4.6234   -0.0875   -1.8489 H   0  0  0  0  0  0  0  0  0  0  0  0
    4.3546   -1.0614   -3.2900 H   0  0  0  0  0  0  0  0  0  0  0  0
    6.5803    0.7685   -1.6478 H   0  0  0  0  0  0  0  0  0  0  0  0
    7.8521    2.0263   -0.2561 H   0  0  0  0  0  0  0  0  0  0  0  0
    7.8127    2.6696   -1.9186 H   0  0  0  0  0  0  0  0  0  0  0  0
    9.1127    3.1486   -0.8074 H   0  0  0  0  0  0  0  0  0  0  0  0
    9.6826    0.3633    0.4373 H   0  0  0  0  0  0  0  0  0  0  0  0
   10.8871    1.5708   -0.0847 H   0  0  0  0  0  0  0  0  0  0  0  0
   10.9637   -0.0928   -0.7075 H   0  0  0  0  0  0  0  0  0  0  0  0
    9.5982    1.9469   -3.6198 H   0  0  0  0  0  0  0  0  0  0  0  0
   10.9119    0.8520   -3.1343 H   0  0  0  0  0  0  0  0  0  0  0  0
   10.8392    2.4968   -2.4626 H   0  0  0  0  0  0  0  0  0  0  0  0
   10.2491   -1.2996   -2.5555 H   0  0  0  0  0  0  0  0  0  0  0  0
    8.9163   -3.2409   -3.3156 H   0  0  0  0  0  0  0  0  0  0  0  0
    5.3175   -4.4489   -4.7417 H   0  0  0  0  0  0  0  0  0  0  0  0
    5.4381   -2.6822   -4.9933 H   0  0  0  0  0  0  0  0  0  0  0  0
    4.3860   -3.3446   -3.6817 H   0  0  0  0  0  0  0  0  0  0  0  0
  1  2  1  0
  1 19  1  0
  1 20  1  0
  1 21  1  0
  2  3  1  0
  2 22  1  0
  2 23  1  0
  3  4  1  0
  3  5  1  0
  3 24  1  6
  4 25  1  0
  4 26  1  0
  4 27  1  0
  5  6  1  0
  5 28  1  0
  6  7  1  0
  6 29  1  0
  6 30  1  0
  7  8  2  0
  7 16  1  0
  8  9  1  0
  8 31  1  0
  9 10  1  0
  9 14  2  0
 10 11  1  1
 10 12  1  0
 10 13  1  0
 11 32  1  0
 11 33  1  0
 11 34  1  0
 12 35  1  0
 12 36  1  0
 12 37  1  0
 13 38  1  0
 13 39  1  0
 13 40  1  0
 14 15  1  0
 14 41  1  0
 15 16  2  0
 15 42  1  0
 16 17  1  0
 17 18  1  0
 18 43  1  0
 18 44  1  0
 18 45  1  0
M  END

