
     RDKit          3D

 26 26  0  0  0  0  0  0  0  0999 V2000
    1.4632    0.2244   -1.1920 C   0  0  0  0  0  0  0  0  0  0  0  0
    2.3647   -0.1219    0.0043 C   0  0  0  0  0  0  0  0  0  0  0  0
    2.9961   -1.4847   -0.0847 C   0  0  0  0  0  0  0  0  0  0  0  0
    4.3199   -1.7285   -0.2876 C   0  0  0  0  0  0  0  0  0  0  0  0
    4.8298   -3.0868   -0.3835 C   0  0  0  0  0  0  0  0  0  0  0  0
    6.4403   -3.4086   -0.6343 S   0  0  0  0  0  0  0  0  0  0  0  0
    3.8989   -4.1202   -0.2550 N   0  0  0  0  0  0  0  0  0  0  0  0
    2.6464   -3.8625   -0.0610 C   0  0  0  0  0  0  0  0  0  0  0  0
    1.6461   -4.9952    0.0837 C   0  0  1  0  0  0  0  0  0  0  0  0
    1.0015   -5.0143    1.4802 C   0  0  0  0  0  0  0  0  0  0  0  0
    0.5930   -4.9781   -1.0373 C   0  0  0  0  0  0  0  0  0  0  0  0
    2.1552   -2.5792    0.0270 N   0  0  0  0  0  0  0  0  0  0  0  0
    1.1654   -2.4341    0.1907 H   0  0  0  0  0  0  0  0  0  0  0  0
    1.0280    1.2282   -1.0704 H   0  0  0  0  0  0  0  0  0  0  0  0
    0.6273   -0.4860   -1.3006 H   0  0  0  0  0  0  0  0  0  0  0  0
    2.0353    0.2103   -2.1323 H   0  0  0  0  0  0  0  0  0  0  0  0
    1.7791   -0.0583    0.9404 H   0  0  0  0  0  0  0  0  0  0  0  0
    3.1707    0.6212    0.0921 H   0  0  0  0  0  0  0  0  0  0  0  0
    5.0245   -0.9021   -0.3817 H   0  0  0  0  0  0  0  0  0  0  0  0
    2.2614   -5.8993   -0.0287 H   0  0  0  0  0  0  0  0  0  0  0  0
    0.3634   -4.1308    1.6570 H   0  0  0  0  0  0  0  0  0  0  0  0
    1.7645   -5.0452    2.2730 H   0  0  0  0  0  0  0  0  0  0  0  0
    0.3602   -5.9027    1.5916 H   0  0  0  0  0  0  0  0  0  0  0  0
   -0.0650   -4.0935   -0.9779 H   0  0  0  0  0  0  0  0  0  0  0  0
   -0.0541   -5.8663   -0.9655 H   0  0  0  0  0  0  0  0  0  0  0  0
    1.0658   -4.9823   -2.0313 H   0  0  0  0  0  0  0  0  0  0  0  0
  1  2  1  0
  1 14  1  0
  1 15  1  0
  1 16  1  0
  2  3  1  0
  2 17  1  0
  2 18  1  0
  3  4  2  0
  3 12  1  0
  4  5  1  0
  4 19  1  0
  5  6  2  0
  5  7  1  0
  7  8  2  0
  8  9  1  0
  8 12  1  0
  9 10  1  0
  9 11  1  0
  9 20  1  6
 10 21  1  0
 10 22  1  0
 10 23  1  0
 11 24  1  0
 11 25  1  0
 11 26  1  0
 12 13  1  0
M  END

