
     RDKit          3D

 42 41  0  0  0  0  0  0  0  0999 V2000
    0.6528    0.0799    0.1482 C   0  0  0  0  0  0  0  0  0  0  0  0
    2.1754    0.0847    0.0147 C   0  0  0  0  0  0  0  0  0  0  0  0
    2.7016    1.1848   -0.9067 C   0  0  0  0  0  0  0  0  0  0  0  0
    4.1535    1.1882   -0.9639 N   0  0  0  0  0  0  0  0  0  0  0  0
    4.7274    2.2093   -1.8239 C   0  0  0  0  0  0  0  0  0  0  0  0
    6.2616    2.2796   -1.7281 C   0  0  1  0  0  0  0  0  0  0  0  0
    6.9545    0.9374   -2.0526 C   0  0  0  0  0  0  0  0  0  0  0  0
    6.7160    0.3697   -3.4559 C   0  0  0  0  0  0  0  0  0  0  0  0
    6.8297    3.4303   -2.5828 C   0  0  0  0  0  0  0  0  0  0  0  0
    6.5064    4.8337   -2.0842 C   0  0  0  0  0  0  0  0  0  0  0  0
    7.0336    5.0029   -0.7878 O   0  0  0  0  0  0  0  0  0  0  0  0
    6.7873    6.2630   -0.2197 C   0  0  0  0  0  0  0  0  0  0  0  0
    7.4057    6.2885    1.1677 C   0  0  0  0  0  0  0  0  0  0  0  0
    7.1689    7.5542    1.7282 O   0  0  0  0  0  0  0  0  0  0  0  0
    7.6887    7.7100    3.0200 C   0  0  0  0  0  0  0  0  0  0  0  0
    0.3099   -0.7281    0.8135 H   0  0  0  0  0  0  0  0  0  0  0  0
    0.1612   -0.0638   -0.8287 H   0  0  0  0  0  0  0  0  0  0  0  0
    0.2838    1.0318    0.5657 H   0  0  0  0  0  0  0  0  0  0  0  0
    2.5143   -0.8968   -0.3674 H   0  0  0  0  0  0  0  0  0  0  0  0
    2.6495    0.2060    1.0035 H   0  0  0  0  0  0  0  0  0  0  0  0
    2.3699    2.1684   -0.5245 H   0  0  0  0  0  0  0  0  0  0  0  0
    2.2267    1.0795   -1.9118 H   0  0  0  0  0  0  0  0  0  0  0  0
    4.4812    0.2656   -1.2472 H   0  0  0  0  0  0  0  0  0  0  0  0
    4.3083    3.1783   -1.5031 H   0  0  0  0  0  0  0  0  0  0  0  0
    4.4245    2.0960   -2.8925 H   0  0  0  0  0  0  0  0  0  0  0  0
    6.5016    2.5090   -0.6770 H   0  0  0  0  0  0  0  0  0  0  0  0
    6.6467    0.1916   -1.2990 H   0  0  0  0  0  0  0  0  0  0  0  0
    8.0397    1.0697   -1.8976 H   0  0  0  0  0  0  0  0  0  0  0  0
    5.6506    0.1548   -3.6425 H   0  0  0  0  0  0  0  0  0  0  0  0
    7.2664   -0.5748   -3.5941 H   0  0  0  0  0  0  0  0  0  0  0  0
    7.0533    1.0611   -4.2450 H   0  0  0  0  0  0  0  0  0  0  0  0
    6.4738    3.3534   -3.6254 H   0  0  0  0  0  0  0  0  0  0  0  0
    7.9287    3.3362   -2.6203 H   0  0  0  0  0  0  0  0  0  0  0  0
    5.4114    5.0161   -2.0777 H   0  0  0  0  0  0  0  0  0  0  0  0
    6.9436    5.5839   -2.7764 H   0  0  0  0  0  0  0  0  0  0  0  0
    5.6996    6.4681   -0.1423 H   0  0  0  0  0  0  0  0  0  0  0  0
    7.2271    7.0771   -0.8323 H   0  0  0  0  0  0  0  0  0  0  0  0
    8.4923    6.0752    1.0901 H   0  0  0  0  0  0  0  0  0  0  0  0
    6.9607    5.4810    1.7858 H   0  0  0  0  0  0  0  0  0  0  0  0
    7.4487    8.7281    3.3604 H   0  0  0  0  0  0  0  0  0  0  0  0
    8.7905    7.5812    3.0441 H   0  0  0  0  0  0  0  0  0  0  0  0
    7.2487    6.9860    3.7364 H   0  0  0  0  0  0  0  0  0  0  0  0
  1  2  1  0
  1 16  1  0
  1 17  1  0
  1 18  1  0
  2  3  1  0
  2 19  1  0
  2 20  1  0
  3  4  1  0
  3 21  1  0
  3 22  1  0
  4  5  1  0
  4 23  1  0
  5  6  1  0
  5 24  1  0
  5 25  1  0
  6  7  1  0
  6  9  1  0
  6 26  1  1
  7  8  1  0
  7 27  1  0
  7 28  1  0
  8 29  1  0
  8 30  1  0
  8 31  1  0
  9 10  1  0
  9 32  1  0
  9 33  1  0
 10 11  1  0
 10 34  1  0
 10 35  1  0
 11 12  1  0
 12 13  1  0
 12 36  1  0
 12 37  1  0
 13 14  1  0
 13 38  1  0
 13 39  1  0
 14 15  1  0
 15 40  1  0
 15 41  1  0
 15 42  1  0
M  END

