
     RDKit          3D

 56 59  0  0  0  0  0  0  0  0999 V2000
    1.3778   -1.1415   -0.3483 C   0  0  0  0  0  0  0  0  0  0  0  0
    2.4977   -0.4586   -0.0705 C   0  0  0  0  0  0  0  0  0  0  0  0
    3.4524   -0.9164    1.0067 C   0  0  0  0  0  0  0  0  0  0  0  0
    4.8760   -1.1139    0.4643 C   0  0  0  0  0  0  0  0  0  0  0  0
    5.3585    0.1453   -0.2785 C   0  0  1  0  0  0  0  0  0  0  0  0
    5.2426    0.9777    0.4376 H   0  0  0  0  0  0  0  0  0  0  0  0
    6.8986    0.1386   -0.5860 C   0  0  2  0  0  0  0  0  0  0  0  0
    7.3950   -1.1537   -1.2775 C   0  0  0  0  0  0  0  0  0  0  0  0
    7.6807    0.2661    0.7613 C   0  0  0  0  0  0  0  0  0  0  0  0
    7.1835    0.1689    1.8548 O   0  0  0  0  0  0  0  0  0  0  0  0
    8.9960    0.4962    0.6330 O   0  0  0  0  0  0  0  0  0  0  0  0
    7.2776    1.4058   -1.4262 C   0  0  1  0  0  0  0  0  0  0  0  0
    7.1994    2.2805   -0.7587 H   0  0  0  0  0  0  0  0  0  0  0  0
    8.6587    1.3862   -1.8223 O   0  0  0  0  0  0  0  0  0  0  0  0
    6.3662    1.6531   -2.6162 C   0  0  0  0  0  0  0  0  0  0  0  0
    4.9089    1.7763   -2.1718 C   0  0  0  0  0  0  0  0  0  0  0  0
    4.3838    0.5067   -1.4668 C   0  0  1  0  0  0  0  0  0  0  0  0
    4.2277   -0.6185   -2.5123 C   0  0  0  0  0  0  0  0  0  0  0  0
    2.9702    0.7940   -0.8015 C   0  0  1  0  0  0  0  0  0  0  0  0
    3.1751    1.5394   -0.0109 H   0  0  0  0  0  0  0  0  0  0  0  0
    1.8934    1.4178   -1.7252 C   0  0  0  0  0  0  0  0  0  0  0  0
    1.9746    2.9061   -1.9602 C   0  0  0  0  0  0  0  0  0  0  0  0
    2.0518    3.8986   -1.0069 C   0  0  0  0  0  0  0  0  0  0  0  0
    2.0566    5.1429   -1.6101 N   0  0  0  0  0  0  0  0  0  0  0  0
    2.1017    6.0268   -1.1222 H   0  0  0  0  0  0  0  0  0  0  0  0
    1.9719    4.9876   -2.9742 C   0  0  0  0  0  0  0  0  0  0  0  0
    1.9405    5.9409   -4.0021 C   0  0  0  0  0  0  0  0  0  0  0  0
    1.8493    5.4773   -5.3115 C   0  0  0  0  0  0  0  0  0  0  0  0
    1.7901    4.0944   -5.5941 C   0  0  0  0  0  0  0  0  0  0  0  0
    1.8205    3.1507   -4.5721 C   0  0  0  0  0  0  0  0  0  0  0  0
    1.9147    3.5859   -3.2345 C   0  0  0  0  0  0  0  0  0  0  0  0
    1.1205   -2.0410    0.2192 H   0  0  0  0  0  0  0  0  0  0  0  0
    0.6790   -0.8497   -1.1349 H   0  0  0  0  0  0  0  0  0  0  0  0
    3.0881   -1.8433    1.4765 H   0  0  0  0  0  0  0  0  0  0  0  0
    3.4924   -0.1483    1.8017 H   0  0  0  0  0  0  0  0  0  0  0  0
    4.8877   -1.9879   -0.2066 H   0  0  0  0  0  0  0  0  0  0  0  0
    5.5526   -1.3306    1.2994 H   0  0  0  0  0  0  0  0  0  0  0  0
    7.1344   -2.0396   -0.6823 H   0  0  0  0  0  0  0  0  0  0  0  0
    8.4891   -1.1557   -1.3851 H   0  0  0  0  0  0  0  0  0  0  0  0
    6.9546   -1.2871   -2.2752 H   0  0  0  0  0  0  0  0  0  0  0  0
    9.2022    0.7409   -0.2975 H   0  0  0  0  0  0  0  0  0  0  0  0
    8.7457    0.8373   -2.6145 H   0  0  0  0  0  0  0  0  0  0  0  0
    6.4845    0.8414   -3.3561 H   0  0  0  0  0  0  0  0  0  0  0  0
    6.6936    2.5794   -3.1156 H   0  0  0  0  0  0  0  0  0  0  0  0
    4.2826    2.0201   -3.0412 H   0  0  0  0  0  0  0  0  0  0  0  0
    4.8215    2.6363   -1.4870 H   0  0  0  0  0  0  0  0  0  0  0  0
    5.1584   -0.8175   -3.0594 H   0  0  0  0  0  0  0  0  0  0  0  0
    3.4776   -0.3356   -3.2669 H   0  0  0  0  0  0  0  0  0  0  0  0
    3.8939   -1.5653   -2.0688 H   0  0  0  0  0  0  0  0  0  0  0  0
    1.8708    0.9003   -2.6967 H   0  0  0  0  0  0  0  0  0  0  0  0
    0.9145    1.2064   -1.2668 H   0  0  0  0  0  0  0  0  0  0  0  0
    2.1005    3.8166    0.0779 H   0  0  0  0  0  0  0  0  0  0  0  0
    1.9843    7.0113   -3.7846 H   0  0  0  0  0  0  0  0  0  0  0  0
    1.8211    6.1955   -6.1348 H   0  0  0  0  0  0  0  0  0  0  0  0
    1.7155    3.7645   -6.6334 H   0  0  0  0  0  0  0  0  0  0  0  0
    1.7665    2.0843   -4.8071 H   0  0  0  0  0  0  0  0  0  0  0  0
  1  2  2  0
  1 32  1  0
  1 33  1  0
  2  3  1  0
  2 19  1  0
  3  4  1  0
  3 34  1  0
  3 35  1  0
  4  5  1  0
  4 36  1  0
  4 37  1  0
  5  6  1  1
  5  7  1  0
  5 17  1  0
  7  8  1  0
  7  9  1  1
  7 12  1  0
  8 38  1  0
  8 39  1  0
  8 40  1  0
  9 10  2  0
  9 11  1  0
 11 41  1  0
 12 13  1  1
 12 14  1  0
 12 15  1  0
 14 42  1  0
 15 16  1  0
 15 43  1  0
 15 44  1  0
 16 17  1  0
 16 45  1  0
 16 46  1  0
 17 18  1  6
 17 19  1  0
 18 47  1  0
 18 48  1  0
 18 49  1  0
 19 20  1  1
 19 21  1  0
 21 22  1  0
 21 50  1  0
 21 51  1  0
 22 23  2  0
 22 31  1  0
 23 24  1  0
 23 52  1  0
 24 25  1  0
 24 26  1  0
 26 27  1  0
 26 31  2  0
 27 28  2  0
 27 53  1  0
 28 29  1  0
 28 54  1  0
 29 30  2  0
 29 55  1  0
 30 31  1  0
 30 56  1  0
M  END

