
     RDKit          3D

 44 45  0  0  0  0  0  0  0  0999 V2000
   10.8260   -0.9409    5.2442 C   0  0  0  0  0  0  0  0  0  0  0  0
    9.5721   -1.5928    5.8258 C   0  0  0  0  0  0  0  0  0  0  0  0
    8.2592   -0.9588    5.3560 C   0  0  0  0  0  0  0  0  0  0  0  0
    8.0358   -1.0907    3.9230 N   0  0  0  0  0  0  0  0  0  0  0  0
    8.0125   -0.0914    2.9853 C   0  0  0  0  0  0  0  0  0  0  0  0
    7.7912   -0.7216    1.7646 C   0  0  0  0  0  0  0  0  0  0  0  0
    7.6543   -0.2213    0.5124 O   0  0  0  0  0  0  0  0  0  0  0  0
    7.7646    1.1778    0.3354 C   0  0  0  0  0  0  0  0  0  0  0  0
    9.2219    1.6229    0.2257 C   0  0  0  0  0  0  0  0  0  0  0  0
    9.1918    3.0136   -0.0522 O   0  0  0  0  0  0  0  0  0  0  0  0
   10.2550    3.8249    0.2149 C   0  0  0  0  0  0  0  0  0  0  0  0
    9.9139    5.0717    0.7671 C   0  0  0  0  0  0  0  0  0  0  0  0
   10.8869    6.0225    1.0641 C   0  0  0  0  0  0  0  0  0  0  0  0
   12.2317    5.7345    0.8173 C   0  0  0  0  0  0  0  0  0  0  0  0
   12.5694    4.5029    0.2565 C   0  0  0  0  0  0  0  0  0  0  0  0
   11.6111    3.5241   -0.0646 C   0  0  0  0  0  0  0  0  0  0  0  0
   12.0855    2.2493   -0.7364 C   0  0  0  0  0  0  0  0  0  0  0  0
   11.4326    2.0090   -2.0149 N   0  0  0  0  0  0  0  0  0  0  0  0
   11.9983    0.9054   -2.7667 C   0  0  0  0  0  0  0  0  0  0  0  0
    7.6997   -2.0995    2.0804 C   0  0  0  0  0  0  0  0  0  0  0  0
    7.8506   -2.2987    3.3885 N   0  0  0  0  0  0  0  0  0  0  0  0
   11.7374   -1.4327    5.6190 H   0  0  0  0  0  0  0  0  0  0  0  0
   10.8899    0.1272    5.5138 H   0  0  0  0  0  0  0  0  0  0  0  0
   10.8405   -1.0105    4.1449 H   0  0  0  0  0  0  0  0  0  0  0  0
    9.5916   -1.5377    6.9284 H   0  0  0  0  0  0  0  0  0  0  0  0
    9.5441   -2.6631    5.5645 H   0  0  0  0  0  0  0  0  0  0  0  0
    8.2394    0.1178    5.5877 H   0  0  0  0  0  0  0  0  0  0  0  0
    7.4084   -1.4267    5.8770 H   0  0  0  0  0  0  0  0  0  0  0  0
    8.1499    0.9512    3.2582 H   0  0  0  0  0  0  0  0  0  0  0  0
    7.2503    1.7262    1.1451 H   0  0  0  0  0  0  0  0  0  0  0  0
    7.2509    1.4163   -0.6078 H   0  0  0  0  0  0  0  0  0  0  0  0
    9.7096    1.0740   -0.5945 H   0  0  0  0  0  0  0  0  0  0  0  0
    9.7642    1.4268    1.1672 H   0  0  0  0  0  0  0  0  0  0  0  0
    8.8557    5.2631    0.9568 H   0  0  0  0  0  0  0  0  0  0  0  0
   10.5941    6.9835    1.4950 H   0  0  0  0  0  0  0  0  0  0  0  0
   13.0106    6.4648    1.0480 H   0  0  0  0  0  0  0  0  0  0  0  0
   13.6192    4.2832    0.0414 H   0  0  0  0  0  0  0  0  0  0  0  0
   11.9020    1.3698   -0.0923 H   0  0  0  0  0  0  0  0  0  0  0  0
   13.1922    2.3129   -0.8314 H   0  0  0  0  0  0  0  0  0  0  0  0
   11.4358    2.8636   -2.5699 H   0  0  0  0  0  0  0  0  0  0  0  0
   11.8420   -0.0409   -2.2207 H   0  0  0  0  0  0  0  0  0  0  0  0
   13.0915    0.9932   -2.9591 H   0  0  0  0  0  0  0  0  0  0  0  0
   11.4880    0.8109   -3.7377 H   0  0  0  0  0  0  0  0  0  0  0  0
    7.5238   -2.9294    1.3975 H   0  0  0  0  0  0  0  0  0  0  0  0
  1  2  1  0
  1 22  1  0
  1 23  1  0
  1 24  1  0
  2  3  1  0
  2 25  1  0
  2 26  1  0
  3  4  1  0
  3 27  1  0
  3 28  1  0
  4  5  1  0
  4 21  1  0
  5  6  2  0
  5 29  1  0
  6  7  1  0
  6 20  1  0
  7  8  1  0
  8  9  1  0
  8 30  1  0
  8 31  1  0
  9 10  1  0
  9 32  1  0
  9 33  1  0
 10 11  1  0
 11 12  2  0
 11 16  1  0
 12 13  1  0
 12 34  1  0
 13 14  2  0
 13 35  1  0
 14 15  1  0
 14 36  1  0
 15 16  2  0
 15 37  1  0
 16 17  1  0
 17 18  1  0
 17 38  1  0
 17 39  1  0
 18 19  1  0
 18 40  1  0
 19 41  1  0
 19 42  1  0
 19 43  1  0
 20 21  2  0
 20 44  1  0
M  END

