
     RDKit          3D

 29 31  0  0  0  0  0  0  0  0999 V2000
    1.0812    0.2228    0.1501 O   0  0  0  0  0  0  0  0  0  0  0  0
    2.2678    0.0622    0.0381 C   0  0  0  0  0  0  0  0  0  0  0  0
    3.0713    1.1878    0.1052 O   0  0  0  0  0  0  0  0  0  0  0  0
    4.4209    1.1788   -0.0275 C   0  0  0  0  0  0  0  0  0  0  0  0
    5.1008    2.3984    0.0520 C   0  0  0  0  0  0  0  0  0  0  0  0
    6.4865    2.4081   -0.0889 C   0  0  0  0  0  0  0  0  0  0  0  0
    7.1963    1.2141   -0.3096 C   0  0  0  0  0  0  0  0  0  0  0  0
    6.5133    0.0069   -0.3875 C   0  0  0  0  0  0  0  0  0  0  0  0
    5.1095   -0.0317   -0.2446 C   0  0  0  0  0  0  0  0  0  0  0  0
    4.3249   -1.2340   -0.3068 C   0  0  0  0  0  0  0  0  0  0  0  0
    2.9656   -1.2302   -0.1653 C   0  0  0  0  0  0  0  0  0  0  0  0
    2.1708   -2.4823   -0.1986 C   0  0  0  0  0  0  0  0  0  0  0  0
    2.7190   -3.6757    0.3176 C   0  0  0  0  0  0  0  0  0  0  0  0
    2.0193   -4.8776    0.2624 C   0  0  0  0  0  0  0  0  0  0  0  0
    0.7486   -4.8866   -0.3131 C   0  0  0  0  0  0  0  0  0  0  0  0
   -0.0015   -6.1575   -0.3768 N   0  0  0  0  0  0  0  0  0  0  0  0
    0.5389   -7.1542    0.0765 O   0  0  0  0  0  0  0  0  0  0  0  0
   -1.1131   -6.1320   -0.8796 O   0  0  0  0  0  0  0  0  0  0  0  0
    0.1676   -3.7253   -0.8220 C   0  0  0  0  0  0  0  0  0  0  0  0
    0.8766   -2.5279   -0.7584 C   0  0  0  0  0  0  0  0  0  0  0  0
    4.5295    3.3125    0.2216 H   0  0  0  0  0  0  0  0  0  0  0  0
    7.0253    3.3566   -0.0276 H   0  0  0  0  0  0  0  0  0  0  0  0
    8.2825    1.2374   -0.4196 H   0  0  0  0  0  0  0  0  0  0  0  0
    7.0537   -0.9278   -0.5587 H   0  0  0  0  0  0  0  0  0  0  0  0
    4.8476   -2.1760   -0.4927 H   0  0  0  0  0  0  0  0  0  0  0  0
    3.7005   -3.6593    0.7956 H   0  0  0  0  0  0  0  0  0  0  0  0
    2.4317   -5.8024    0.6646 H   0  0  0  0  0  0  0  0  0  0  0  0
   -0.8289   -3.7747   -1.2600 H   0  0  0  0  0  0  0  0  0  0  0  0
    0.4233   -1.6160   -1.1427 H   0  0  0  0  0  0  0  0  0  0  0  0
  1  2  2  0
  2  3  1  0
  2 11  1  0
  3  4  1  0
  4  5  2  0
  4  9  1  0
  5  6  1  0
  5 21  1  0
  6  7  2  0
  6 22  1  0
  7  8  1  0
  7 23  1  0
  8  9  2  0
  8 24  1  0
  9 10  1  0
 10 11  2  0
 10 25  1  0
 11 12  1  0
 12 13  2  0
 12 20  1  0
 13 14  1  0
 13 26  1  0
 14 15  2  0
 14 27  1  0
 15 16  1  0
 15 19  1  0
 16 17  2  0
 16 18  1  0
 19 20  2  0
 19 28  1  0
 20 29  1  0
M  CHG  2  16   1  18  -1
M  END

