
     RDKit          3D

 42 43  0  0  0  0  0  0  0  0999 V2000
    0.9965    0.0393   -0.3949 C   0  0  0  0  0  0  0  0  0  0  0  0
    2.4979    0.0475   -0.0733 C   0  0  1  0  0  0  0  0  0  0  0  0
    3.3065    0.0285   -1.3797 C   0  0  0  0  0  0  0  0  0  0  0  0
    2.9421    1.1988    0.9145 C   0  0  1  0  0  0  0  0  0  0  0  0
    2.5481    2.5854    0.3807 C   0  0  0  0  0  0  0  0  0  0  0  0
    2.3311    0.9867    2.2522 N   0  0  0  0  0  0  0  0  0  0  0  0
    1.1171    1.3633    2.7265 C   0  0  0  0  0  0  0  0  0  0  0  0
    0.2007    1.8811    2.1038 O   0  0  0  0  0  0  0  0  0  0  0  0
    0.9212    1.0652    4.2219 C   0  0  1  0  0  0  0  0  0  0  0  0
    0.7210    2.0418    4.7016 H   0  0  0  0  0  0  0  0  0  0  0  0
   -0.2408    0.0918    4.4860 C   0  0  0  0  0  0  0  0  0  0  0  0
    0.2028   -0.5877    5.7860 C   0  0  0  0  0  0  0  0  0  0  0  0
    1.7161   -0.6832    5.5824 C   0  0  0  0  0  0  0  0  0  0  0  0
    2.0753    0.4773    4.8286 O   0  0  0  0  0  0  0  0  0  0  0  0
    4.4651    1.0818    1.1494 C   0  0  0  0  0  0  0  0  0  0  0  0
    5.3748    2.0768    0.7643 C   0  0  0  0  0  0  0  0  0  0  0  0
    6.7502    1.9370    0.9783 C   0  0  0  0  0  0  0  0  0  0  0  0
    7.2379    0.7842    1.5930 C   0  0  0  0  0  0  0  0  0  0  0  0
    9.1110    0.5851    1.8932 Br  0  0  0  0  0  0  0  0  0  0  0  0
    6.3595   -0.2268    1.9905 C   0  0  0  0  0  0  0  0  0  0  0  0
    4.9913   -0.0702    1.7639 C   0  0  0  0  0  0  0  0  0  0  0  0
    0.7464   -0.8758   -0.9561 H   0  0  0  0  0  0  0  0  0  0  0  0
    0.7147    0.8962   -1.0271 H   0  0  0  0  0  0  0  0  0  0  0  0
    0.3661    0.0794    0.5018 H   0  0  0  0  0  0  0  0  0  0  0  0
    2.7208   -0.8904    0.4653 H   0  0  0  0  0  0  0  0  0  0  0  0
    3.1239    0.9323   -1.9840 H   0  0  0  0  0  0  0  0  0  0  0  0
    3.0017   -0.8341   -1.9935 H   0  0  0  0  0  0  0  0  0  0  0  0
    4.3898   -0.0516   -1.2089 H   0  0  0  0  0  0  0  0  0  0  0  0
    1.4578    2.6739    0.3313 H   0  0  0  0  0  0  0  0  0  0  0  0
    2.9690    2.7595   -0.6196 H   0  0  0  0  0  0  0  0  0  0  0  0
    2.9117    3.3766    1.0529 H   0  0  0  0  0  0  0  0  0  0  0  0
    2.9383    0.6247    2.9832 H   0  0  0  0  0  0  0  0  0  0  0  0
   -0.3094   -0.6452    3.6687 H   0  0  0  0  0  0  0  0  0  0  0  0
   -1.2077    0.6078    4.5497 H   0  0  0  0  0  0  0  0  0  0  0  0
   -0.2695   -1.5673    5.9530 H   0  0  0  0  0  0  0  0  0  0  0  0
   -0.0259    0.0526    6.6538 H   0  0  0  0  0  0  0  0  0  0  0  0
    1.9851   -1.5979    5.0187 H   0  0  0  0  0  0  0  0  0  0  0  0
    2.2904   -0.6832    6.5225 H   0  0  0  0  0  0  0  0  0  0  0  0
    5.0234    2.9888    0.2826 H   0  0  0  0  0  0  0  0  0  0  0  0
    7.4365    2.7270    0.6684 H   0  0  0  0  0  0  0  0  0  0  0  0
    6.7402   -1.1299    2.4705 H   0  0  0  0  0  0  0  0  0  0  0  0
    4.3251   -0.8789    2.0753 H   0  0  0  0  0  0  0  0  0  0  0  0
  1  2  1  0
  1 22  1  0
  1 23  1  0
  1 24  1  0
  2  3  1  0
  2  4  1  0
  2 25  1  1
  3 26  1  0
  3 27  1  0
  3 28  1  0
  4  5  1  0
  4  6  1  1
  4 15  1  0
  5 29  1  0
  5 30  1  0
  5 31  1  0
  6  7  1  0
  6 32  1  0
  7  8  2  0
  7  9  1  0
  9 10  1  1
  9 11  1  0
  9 14  1  0
 11 12  1  0
 11 33  1  0
 11 34  1  0
 12 13  1  0
 12 35  1  0
 12 36  1  0
 13 14  1  0
 13 37  1  0
 13 38  1  0
 15 16  2  0
 15 21  1  0
 16 17  1  0
 16 39  1  0
 17 18  2  0
 17 40  1  0
 18 19  1  0
 18 20  1  0
 20 21  2  0
 20 41  1  0
 21 42  1  0
M  END

