
     RDKit          3D

 38 40  0  0  0  0  0  0  0  0999 V2000
    1.2124   -2.3390   -1.1365 C   0  0  0  0  0  0  0  0  0  0  0  0
    2.6316   -2.1756   -1.1369 O   0  0  0  0  0  0  0  0  0  0  0  0
    3.0854   -0.9171   -1.0943 C   0  0  0  0  0  0  0  0  0  0  0  0
    2.3645    0.0548   -1.0569 O   0  0  0  0  0  0  0  0  0  0  0  0
    4.5787   -0.8283   -1.0973 C   0  0  0  0  0  0  0  0  0  0  0  0
    5.3793   -1.9406   -1.1414 C   0  0  0  0  0  0  0  0  0  0  0  0
    6.8371   -1.8783   -1.1430 C   0  0  0  0  0  0  0  0  0  0  0  0
    7.5614   -2.8639   -1.1814 O   0  0  0  0  0  0  0  0  0  0  0  0
    7.3827   -0.5705   -1.0957 N   0  0  0  0  0  0  0  0  0  0  0  0
    8.8336   -0.4393   -1.0927 C   0  0  0  0  0  0  0  0  0  0  0  0
    6.5919    0.5576   -1.0549 C   0  0  0  0  0  0  0  0  0  0  0  0
    7.0474    1.9076   -1.0041 C   0  0  0  0  0  0  0  0  0  0  0  0
    6.0093    2.8185   -0.9604 C   0  0  0  0  0  0  0  0  0  0  0  0
    6.1042    4.2852   -0.9022 C   0  0  0  0  0  0  0  0  0  0  0  0
    5.0730    5.0587   -0.3425 C   0  0  0  0  0  0  0  0  0  0  0  0
    5.1907    6.4512   -0.2927 C   0  0  0  0  0  0  0  0  0  0  0  0
    6.3227    7.0904   -0.7871 C   0  0  0  0  0  0  0  0  0  0  0  0
    7.3633    6.3284   -1.3500 C   0  0  0  0  0  0  0  0  0  0  0  0
    8.4264    7.0296   -1.8171 O   0  0  0  0  0  0  0  0  0  0  0  0
    9.5090    6.3434   -2.4035 C   0  0  0  0  0  0  0  0  0  0  0  0
    7.2511    4.9343   -1.4099 C   0  0  0  0  0  0  0  0  0  0  0  0
    4.4469    2.0302   -0.9953 S   0  0  0  0  0  0  0  0  0  0  0  0
    5.1948    0.4564   -1.0521 C   0  0  0  0  0  0  0  0  0  0  0  0
    1.0310   -3.4199   -1.1708 H   0  0  0  0  0  0  0  0  0  0  0  0
    0.7638   -1.8467   -2.0125 H   0  0  0  0  0  0  0  0  0  0  0  0
    0.7708   -1.9041   -0.2273 H   0  0  0  0  0  0  0  0  0  0  0  0
    4.9507   -2.9408   -1.1774 H   0  0  0  0  0  0  0  0  0  0  0  0
    9.2519   -1.4512   -1.1348 H   0  0  0  0  0  0  0  0  0  0  0  0
    9.1778    0.0651   -0.1757 H   0  0  0  0  0  0  0  0  0  0  0  0
    9.1744    0.1383   -1.9668 H   0  0  0  0  0  0  0  0  0  0  0  0
    8.0953    2.1982   -0.9648 H   0  0  0  0  0  0  0  0  0  0  0  0
    4.1885    4.5720    0.0734 H   0  0  0  0  0  0  0  0  0  0  0  0
    4.3858    7.0454    0.1472 H   0  0  0  0  0  0  0  0  0  0  0  0
    6.4308    8.1762   -0.7559 H   0  0  0  0  0  0  0  0  0  0  0  0
   10.2416    7.1072   -2.6967 H   0  0  0  0  0  0  0  0  0  0  0  0
    9.2014    5.7803   -3.3032 H   0  0  0  0  0  0  0  0  0  0  0  0
    9.9871    5.6445   -1.6932 H   0  0  0  0  0  0  0  0  0  0  0  0
    8.0345    4.3373   -1.8743 H   0  0  0  0  0  0  0  0  0  0  0  0
  1  2  1  0
  1 24  1  0
  1 25  1  0
  1 26  1  0
  2  3  1  0
  3  4  2  0
  3  5  1  0
  5  6  2  0
  5 23  1  0
  6  7  1  0
  6 27  1  0
  7  8  2  0
  7  9  1  0
  9 10  1  0
  9 11  1  0
 10 28  1  0
 10 29  1  0
 10 30  1  0
 11 12  1  0
 11 23  2  0
 12 13  2  0
 12 31  1  0
 13 14  1  0
 13 22  1  0
 14 15  2  0
 14 21  1  0
 15 16  1  0
 15 32  1  0
 16 17  2  0
 16 33  1  0
 17 18  1  0
 17 34  1  0
 18 19  1  0
 18 21  2  0
 19 20  1  0
 20 35  1  0
 20 36  1  0
 20 37  1  0
 21 38  1  0
 22 23  1  0
M  END

