
     RDKit          3D

 95 96  0  0  0  0  0  0  0  0999 V2000
    1.2998   -2.8844   -3.6917 C   0  0  0  0  0  0  0  0  0  0  0  0
    2.7011   -2.9362   -3.4243 O   0  0  0  0  0  0  0  0  0  0  0  0
    3.1245   -2.2768   -2.3282 C   0  0  0  0  0  0  0  0  0  0  0  0
    2.3780   -1.6831   -1.5877 O   0  0  0  0  0  0  0  0  0  0  0  0
    4.6323   -2.3533   -2.1899 C   0  0  0  0  0  0  0  0  0  0  0  0
    5.1453   -2.0484   -0.7681 C   0  0  1  0  0  0  0  0  0  0  0  0
    4.7844   -3.1883    0.1995 C   0  0  0  0  0  0  0  0  0  0  0  0
    5.0288   -2.8607    1.6681 C   0  0  0  0  0  0  0  0  0  0  0  0
    4.6376   -3.9618    2.4636 O   0  0  0  0  0  0  0  0  0  0  0  0
    4.6553   -4.0684    4.1448 Si  0  0  1  0  0  4  0  0  0  0  0  0
    6.4231   -3.8503    4.7783 C   0  0  0  0  0  0  0  0  0  0  0  0
    3.5664   -2.7115    4.8818 C   0  0  0  0  0  0  0  0  0  0  0  0
    3.9715   -5.8212    4.5055 C   0  0  1  0  0  0  0  0  0  0  0  0
    4.8795   -6.8711    3.8324 C   0  0  0  0  0  0  0  0  0  0  0  0
    3.9309   -6.0762    6.0260 C   0  0  0  0  0  0  0  0  0  0  0  0
    2.5471   -5.9412    3.9254 C   0  0  0  0  0  0  0  0  0  0  0  0
    6.6303   -1.6736   -0.8277 C   0  0  0  0  0  0  0  0  0  0  0  0
    6.8874   -0.1999   -1.0256 C   0  0  0  0  0  0  0  0  0  0  0  0
    7.5965   -2.6061   -0.7610 C   0  0  0  0  0  0  0  0  0  0  0  0
    9.0954   -2.3842   -0.8427 C   0  0  0  0  0  0  0  0  0  0  0  0
    9.6534   -2.5486   -2.2480 C   0  0  0  0  0  0  0  0  0  0  0  0
    9.5751   -3.8045   -2.8883 C   0  0  0  0  0  0  0  0  0  0  0  0
    9.0751   -4.8594   -2.1603 O   0  0  0  0  0  0  0  0  0  0  0  0
   10.0374   -5.7202   -1.5700 C   0  0  0  0  0  0  0  0  0  0  0  0
    9.9277   -4.0172   -4.2388 C   0  0  0  0  0  0  0  0  0  0  0  0
    9.7660   -5.3578   -4.9083 C   0  0  0  0  0  0  0  0  0  0  0  0
   10.3878   -2.8913   -4.9163 C   0  0  0  0  0  0  0  0  0  0  0  0
   10.5334   -1.6420   -4.3069 C   0  0  0  0  0  0  0  0  0  0  0  0
   10.1940   -1.4431   -2.9508 C   0  0  0  0  0  0  0  0  0  0  0  0
   10.3225   -0.2615   -2.3246 O   0  0  0  0  0  0  0  0  0  0  0  0
   11.5489    0.9166   -2.0360 Si  0  0  1  0  0  4  0  0  0  0  0  0
   13.1783    0.3414   -2.7837 C   0  0  0  0  0  0  0  0  0  0  0  0
   10.9236    2.5274   -2.7622 C   0  0  0  0  0  0  0  0  0  0  0  0
   11.7280    1.0502   -0.1211 C   0  0  1  0  0  0  0  0  0  0  0  0
   12.2613   -0.2731    0.4650 C   0  0  0  0  0  0  0  0  0  0  0  0
   12.7357    2.1780    0.1964 C   0  0  0  0  0  0  0  0  0  0  0  0
   10.3794    1.3982    0.5398 C   0  0  0  0  0  0  0  0  0  0  0  0
   10.9609   -0.6772   -5.3449 C   0  0  0  0  0  0  0  0  0  0  0  0
   11.1736    0.5066   -5.2825 O   0  0  0  0  0  0  0  0  0  0  0  0
   11.0972   -1.3629   -6.5219 O   0  0  0  0  0  0  0  0  0  0  0  0
   10.7824   -2.7437   -6.3610 C   0  0  0  0  0  0  0  0  0  0  0  0
    1.1403   -3.4683   -4.6067 H   0  0  0  0  0  0  0  0  0  0  0  0
    0.9655   -1.8460   -3.8392 H   0  0  0  0  0  0  0  0  0  0  0  0
    0.7252   -3.3168   -2.8584 H   0  0  0  0  0  0  0  0  0  0  0  0
    5.0424   -1.6242   -2.9115 H   0  0  0  0  0  0  0  0  0  0  0  0
    4.9785   -3.3388   -2.5388 H   0  0  0  0  0  0  0  0  0  0  0  0
    4.5934   -1.1532   -0.4331 H   0  0  0  0  0  0  0  0  0  0  0  0
    5.3361   -4.1090   -0.0536 H   0  0  0  0  0  0  0  0  0  0  0  0
    3.7144   -3.4267    0.0885 H   0  0  0  0  0  0  0  0  0  0  0  0
    4.4500   -1.9556    1.9408 H   0  0  0  0  0  0  0  0  0  0  0  0
    6.0970   -2.6228    1.8301 H   0  0  0  0  0  0  0  0  0  0  0  0
    6.8054   -2.8456    4.5318 H   0  0  0  0  0  0  0  0  0  0  0  0
    7.1090   -4.5873    4.3308 H   0  0  0  0  0  0  0  0  0  0  0  0
    6.4755   -3.9595    5.8742 H   0  0  0  0  0  0  0  0  0  0  0  0
    3.9690   -1.7126    4.6442 H   0  0  0  0  0  0  0  0  0  0  0  0
    3.5147   -2.7887    5.9805 H   0  0  0  0  0  0  0  0  0  0  0  0
    2.5381   -2.7584    4.4893 H   0  0  0  0  0  0  0  0  0  0  0  0
    5.9037   -6.8549    4.2408 H   0  0  0  0  0  0  0  0  0  0  0  0
    4.9481   -6.7061    2.7458 H   0  0  0  0  0  0  0  0  0  0  0  0
    4.4794   -7.8887    3.9955 H   0  0  0  0  0  0  0  0  0  0  0  0
    4.9320   -6.0176    6.4848 H   0  0  0  0  0  0  0  0  0  0  0  0
    3.5358   -7.0867    6.2372 H   0  0  0  0  0  0  0  0  0  0  0  0
    3.2796   -5.3579    6.5513 H   0  0  0  0  0  0  0  0  0  0  0  0
    2.5355   -5.7441    2.8421 H   0  0  0  0  0  0  0  0  0  0  0  0
    1.8457   -5.2369    4.4024 H   0  0  0  0  0  0  0  0  0  0  0  0
    2.1486   -6.9594    4.0886 H   0  0  0  0  0  0  0  0  0  0  0  0
    6.6023    0.3707   -0.1234 H   0  0  0  0  0  0  0  0  0  0  0  0
    6.2605    0.1951   -1.8444 H   0  0  0  0  0  0  0  0  0  0  0  0
    7.9309    0.0328   -1.2714 H   0  0  0  0  0  0  0  0  0  0  0  0
    7.3001   -3.6533   -0.6595 H   0  0  0  0  0  0  0  0  0  0  0  0
    9.5873   -3.1033   -0.1668 H   0  0  0  0  0  0  0  0  0  0  0  0
    9.3603   -1.3845   -0.4849 H   0  0  0  0  0  0  0  0  0  0  0  0
    9.4831   -6.4771   -0.9976 H   0  0  0  0  0  0  0  0  0  0  0  0
   10.7079   -5.1709   -0.8853 H   0  0  0  0  0  0  0  0  0  0  0  0
   10.6560   -6.2295   -2.3299 H   0  0  0  0  0  0  0  0  0  0  0  0
    9.0138   -5.9656   -4.3867 H   0  0  0  0  0  0  0  0  0  0  0  0
   10.7091   -5.9327   -4.9235 H   0  0  0  0  0  0  0  0  0  0  0  0
    9.4449   -5.2439   -5.9558 H   0  0  0  0  0  0  0  0  0  0  0  0
   13.1729    0.4816   -3.8733 H   0  0  0  0  0  0  0  0  0  0  0  0
   13.3755   -0.7209   -2.5669 H   0  0  0  0  0  0  0  0  0  0  0  0
   14.0149    0.9254   -2.3669 H   0  0  0  0  0  0  0  0  0  0  0  0
   10.7877    2.3988   -3.8451 H   0  0  0  0  0  0  0  0  0  0  0  0
   11.6421    3.3459   -2.5932 H   0  0  0  0  0  0  0  0  0  0  0  0
    9.9598    2.8230   -2.3182 H   0  0  0  0  0  0  0  0  0  0  0  0
   13.2515   -0.5356    0.0582 H   0  0  0  0  0  0  0  0  0  0  0  0
   11.5837   -1.1180    0.2658 H   0  0  0  0  0  0  0  0  0  0  0  0
   12.3709   -0.1930    1.5620 H   0  0  0  0  0  0  0  0  0  0  0  0
   13.7321    1.9858   -0.2341 H   0  0  0  0  0  0  0  0  0  0  0  0
   12.8691    2.2722    1.2894 H   0  0  0  0  0  0  0  0  0  0  0  0
   12.3938    3.1581   -0.1737 H   0  0  0  0  0  0  0  0  0  0  0  0
    9.6180    0.6230    0.3664 H   0  0  0  0  0  0  0  0  0  0  0  0
    9.9710    2.3523    0.1690 H   0  0  0  0  0  0  0  0  0  0  0  0
   10.5023    1.4994    1.6337 H   0  0  0  0  0  0  0  0  0  0  0  0
   11.6668   -3.3473   -6.6316 H   0  0  0  0  0  0  0  0  0  0  0  0
    9.9679   -3.0096   -7.0575 H   0  0  0  0  0  0  0  0  0  0  0  0
  1  2  1  0
  1 42  1  0
  1 43  1  0
  1 44  1  0
  2  3  1  0
  3  4  2  0
  3  5  1  0
  5  6  1  0
  5 45  1  0
  5 46  1  0
  6  7  1  0
  6 17  1  0
  6 47  1  1
  7  8  1  0
  7 48  1  0
  7 49  1  0
  8  9  1  0
  8 50  1  0
  8 51  1  0
 10  9  1  6
 10 11  1  0
 10 12  1  0
 10 13  1  0
 11 52  1  0
 11 53  1  0
 11 54  1  0
 12 55  1  0
 12 56  1  0
 12 57  1  0
 13 14  1  6
 13 15  1  0
 13 16  1  0
 14 58  1  0
 14 59  1  0
 14 60  1  0
 15 61  1  0
 15 62  1  0
 15 63  1  0
 16 64  1  0
 16 65  1  0
 16 66  1  0
 17 18  1  0
 17 19  2  0
 18 67  1  0
 18 68  1  0
 18 69  1  0
 19 20  1  0
 19 70  1  0
 20 21  1  0
 20 71  1  0
 20 72  1  0
 21 22  2  0
 21 29  1  0
 22 23  1  0
 22 25  1  0
 23 24  1  0
 24 73  1  0
 24 74  1  0
 24 75  1  0
 25 26  1  0
 25 27  2  0
 26 76  1  0
 26 77  1  0
 26 78  1  0
 27 28  1  0
 27 41  1  0
 28 29  2  0
 28 38  1  0
 29 30  1  0
 31 30  1  1
 31 32  1  0
 31 33  1  0
 31 34  1  0
 32 79  1  0
 32 80  1  0
 32 81  1  0
 33 82  1  0
 33 83  1  0
 33 84  1  0
 34 35  1  1
 34 36  1  0
 34 37  1  0
 35 85  1  0
 35 86  1  0
 35 87  1  0
 36 88  1  0
 36 89  1  0
 36 90  1  0
 37 91  1  0
 37 92  1  0
 37 93  1  0
 38 39  2  0
 38 40  1  0
 40 41  1  0
 41 94  1  0
 41 95  1  0
M  END

