
     RDKit          3D

 44 46  0  0  0  0  0  0  0  0999 V2000
    0.8158    0.9918    0.1277 C   0  0  0  0  0  0  0  0  0  0  0  0
    1.9599    0.1608   -0.2242 N   0  0  0  0  0  0  0  0  0  0  0  0
    1.5824   -1.2474   -0.2512 C   0  0  0  0  0  0  0  0  0  0  0  0
    1.4910   -1.8363    1.1243 C   0  0  0  0  0  0  0  0  0  0  0  0
    2.0568   -1.5120    2.3272 C   0  0  0  0  0  0  0  0  0  0  0  0
    1.6162   -2.5100    3.2621 C   0  0  0  0  0  0  0  0  0  0  0  0
    0.8205   -3.3637    2.5554 C   0  0  0  0  0  0  0  0  0  0  0  0
    0.7370   -2.9620    1.2584 O   0  0  0  0  0  0  0  0  0  0  0  0
    2.6618    0.6060   -1.4346 C   0  0  1  0  0  0  0  0  0  0  0  0
    3.0003    2.1088   -1.4232 C   0  0  0  0  0  0  0  0  0  0  0  0
    4.1545    2.2413   -2.4199 C   0  0  0  0  0  0  0  0  0  0  0  0
    5.0348    1.0259   -2.1012 C   0  0  0  0  0  0  0  0  0  0  0  0
    4.0551   -0.0879   -1.6172 C   0  0  2  0  0  0  0  0  0  0  0  0
    4.0376   -1.2873   -2.4593 N   0  0  0  0  0  0  0  0  0  0  0  0
    3.7458   -1.2805   -3.7942 C   0  0  0  0  0  0  0  0  0  0  0  0
    3.4326   -0.2616   -4.3963 O   0  0  0  0  0  0  0  0  0  0  0  0
    3.8316   -2.6082   -4.5070 C   0  0  0  0  0  0  0  0  0  0  0  0
    3.8066   -3.8542   -3.8607 C   0  0  0  0  0  0  0  0  0  0  0  0
    3.8770   -5.0430   -4.5904 C   0  0  0  0  0  0  0  0  0  0  0  0
    3.9720   -4.9841   -5.9835 C   0  0  0  0  0  0  0  0  0  0  0  0
    4.0738   -6.6006   -6.9864 Br  0  0  0  0  0  0  0  0  0  0  0  0
    3.9852   -3.7544   -6.6502 C   0  0  0  0  0  0  0  0  0  0  0  0
    3.9074   -2.5769   -5.9080 C   0  0  0  0  0  0  0  0  0  0  0  0
    0.3360    0.5861    1.0304 H   0  0  0  0  0  0  0  0  0  0  0  0
    0.0471    1.0308   -0.6771 H   0  0  0  0  0  0  0  0  0  0  0  0
    1.1255    2.0207    0.3551 H   0  0  0  0  0  0  0  0  0  0  0  0
    2.3292   -1.8091   -0.8321 H   0  0  0  0  0  0  0  0  0  0  0  0
    0.6161   -1.4226   -0.7767 H   0  0  0  0  0  0  0  0  0  0  0  0
    2.7033   -0.6579    2.5113 H   0  0  0  0  0  0  0  0  0  0  0  0
    1.8587   -2.5776    4.3208 H   0  0  0  0  0  0  0  0  0  0  0  0
    0.2604   -4.2576    2.8170 H   0  0  0  0  0  0  0  0  0  0  0  0
    2.0583    0.4015   -2.3436 H   0  0  0  0  0  0  0  0  0  0  0  0
    3.3372    2.3899   -0.4091 H   0  0  0  0  0  0  0  0  0  0  0  0
    2.1383    2.7431   -1.6782 H   0  0  0  0  0  0  0  0  0  0  0  0
    4.6895    3.1994   -2.3284 H   0  0  0  0  0  0  0  0  0  0  0  0
    3.7729    2.1564   -3.4483 H   0  0  0  0  0  0  0  0  0  0  0  0
    5.7344    1.2664   -1.2839 H   0  0  0  0  0  0  0  0  0  0  0  0
    5.6368    0.6937   -2.9581 H   0  0  0  0  0  0  0  0  0  0  0  0
    4.3654   -0.4390   -0.6227 H   0  0  0  0  0  0  0  0  0  0  0  0
    4.4587   -2.1223   -2.0746 H   0  0  0  0  0  0  0  0  0  0  0  0
    3.7037   -3.9215   -2.7748 H   0  0  0  0  0  0  0  0  0  0  0  0
    3.8493   -6.0076   -4.0813 H   0  0  0  0  0  0  0  0  0  0  0  0
    4.0522   -3.7212   -7.7389 H   0  0  0  0  0  0  0  0  0  0  0  0
    3.9010   -1.6039   -6.4028 H   0  0  0  0  0  0  0  0  0  0  0  0
  1  2  1  0
  1 24  1  0
  1 25  1  0
  1 26  1  0
  2  3  1  0
  2  9  1  0
  3  4  1  0
  3 27  1  0
  3 28  1  0
  4  5  2  0
  4  8  1  0
  5  6  1  0
  5 29  1  0
  6  7  2  0
  6 30  1  0
  7  8  1  0
  7 31  1  0
  9 10  1  0
  9 13  1  0
  9 32  1  6
 10 11  1  0
 10 33  1  0
 10 34  1  0
 11 12  1  0
 11 35  1  0
 11 36  1  0
 12 13  1  0
 12 37  1  0
 12 38  1  0
 13 14  1  0
 13 39  1  1
 14 15  1  0
 14 40  1  0
 15 16  2  0
 15 17  1  0
 17 18  2  0
 17 23  1  0
 18 19  1  0
 18 41  1  0
 19 20  2  0
 19 42  1  0
 20 21  1  0
 20 22  1  0
 22 23  2  0
 22 43  1  0
 23 44  1  0
M  END

