
     RDKit          3D

 37 38  0  0  0  0  0  0  0  0999 V2000
    1.0632    0.7992   -0.3988 C   0  0  0  0  0  0  0  0  0  0  0  0
    2.1464   -0.0620    0.2479 C   0  0  0  0  0  0  0  0  0  0  0  0
    2.9147   -0.9651   -0.7296 C   0  0  1  0  0  0  0  0  0  0  0  0
    4.1089   -1.6801   -0.0817 C   0  0  0  0  0  0  0  0  0  0  0  0
    3.7246   -2.6604    0.9282 N   0  0  0  0  0  0  0  0  0  0  0  0
    4.8523   -3.0771    1.7612 C   0  0  0  0  0  0  0  0  0  0  0  0
    4.4352   -3.7625    3.0457 C   0  0  0  0  0  0  0  0  0  0  0  0
    3.5234   -2.9847    3.9588 C   0  0  0  0  0  0  0  0  0  0  0  0
    4.8899   -4.9812    3.3590 C   0  0  0  0  0  0  0  0  0  0  0  0
    5.7638   -6.0269    2.6822 C   0  0  0  0  0  0  0  0  0  0  0  0
    5.3200   -7.0044    3.7032 N   0  0  0  0  0  0  0  0  0  0  0  0
    4.6981   -5.9390    4.5236 C   0  0  0  0  0  0  0  0  0  0  0  0
    3.0026   -3.7969    0.3660 C   0  0  0  0  0  0  0  0  0  0  0  0
    1.6646   -3.3953   -0.2450 C   0  0  0  0  0  0  0  0  0  0  0  0
    1.8466   -2.1901   -1.6117 S   0  0  0  0  0  0  0  0  0  0  0  0
    0.5556    1.4265    0.3511 H   0  0  0  0  0  0  0  0  0  0  0  0
    0.3044    0.1731   -0.8928 H   0  0  0  0  0  0  0  0  0  0  0  0
    1.4876    1.4722   -1.1634 H   0  0  0  0  0  0  0  0  0  0  0  0
    1.7169   -0.6808    1.0521 H   0  0  0  0  0  0  0  0  0  0  0  0
    2.8884    0.5913    0.7440 H   0  0  0  0  0  0  0  0  0  0  0  0
    3.3103   -0.3445   -1.5516 H   0  0  0  0  0  0  0  0  0  0  0  0
    4.7382   -0.9189    0.4104 H   0  0  0  0  0  0  0  0  0  0  0  0
    4.7263   -2.1417   -0.8857 H   0  0  0  0  0  0  0  0  0  0  0  0
    5.4138   -2.1623    2.0245 H   0  0  0  0  0  0  0  0  0  0  0  0
    5.5611   -3.7249    1.1983 H   0  0  0  0  0  0  0  0  0  0  0  0
    4.0073   -2.0485    4.2912 H   0  0  0  0  0  0  0  0  0  0  0  0
    3.2431   -3.5578    4.8545 H   0  0  0  0  0  0  0  0  0  0  0  0
    2.6051   -2.6848    3.4290 H   0  0  0  0  0  0  0  0  0  0  0  0
    6.8447   -5.7771    2.7099 H   0  0  0  0  0  0  0  0  0  0  0  0
    5.5098   -6.3012    1.6416 H   0  0  0  0  0  0  0  0  0  0  0  0
    6.0653   -7.5263    4.1593 H   0  0  0  0  0  0  0  0  0  0  0  0
    5.2719   -5.6448    5.4270 H   0  0  0  0  0  0  0  0  0  0  0  0
    3.6592   -6.1487    4.8394 H   0  0  0  0  0  0  0  0  0  0  0  0
    2.8186   -4.5218    1.1758 H   0  0  0  0  0  0  0  0  0  0  0  0
    3.6133   -4.3199   -0.4064 H   0  0  0  0  0  0  0  0  0  0  0  0
    0.9948   -2.9890    0.5293 H   0  0  0  0  0  0  0  0  0  0  0  0
    1.1706   -4.2726   -0.6897 H   0  0  0  0  0  0  0  0  0  0  0  0
  1  2  1  0
  1 16  1  0
  1 17  1  0
  1 18  1  0
  2  3  1  0
  2 19  1  0
  2 20  1  0
  3  4  1  0
  3 15  1  0
  3 21  1  6
  4  5  1  0
  4 22  1  0
  4 23  1  0
  5  6  1  0
  5 13  1  0
  6  7  1  0
  6 24  1  0
  6 25  1  0
  7  8  1  0
  7  9  2  0
  8 26  1  0
  8 27  1  0
  8 28  1  0
  9 10  1  0
  9 12  1  0
 10 11  1  0
 10 29  1  0
 10 30  1  0
 11 12  1  0
 11 31  1  0
 12 32  1  0
 12 33  1  0
 13 14  1  0
 13 34  1  0
 13 35  1  0
 14 15  1  0
 14 36  1  0
 14 37  1  0
M  END

