
     RDKit          3D

 37 38  0  0  0  0  0  0  0  0999 V2000
    2.9750    0.0750   -3.7010 C   0  0  0  0  0  0  0  0  0  0  0  0
    2.5087    0.5059   -2.3951 N   0  0  0  0  0  0  0  0  0  0  0  0
    3.2098   -0.0968   -1.2619 C   0  0  0  0  0  0  0  0  0  0  0  0
    4.6000    0.4690   -1.0519 C   0  0  0  0  0  0  0  0  0  0  0  0
    5.7441   -0.2843   -1.4006 C   0  0  0  0  0  0  0  0  0  0  0  0
    6.9896    0.2801   -1.1971 C   0  0  0  0  0  0  0  0  0  0  0  0
    7.1340    1.5555   -0.6496 C   0  0  0  0  0  0  0  0  0  0  0  0
    6.0391    2.3152   -0.2806 C   0  0  0  0  0  0  0  0  0  0  0  0
    4.7631    1.7523   -0.4967 C   0  0  0  0  0  0  0  0  0  0  0  0
    3.6560    2.4588   -0.0928 O   0  0  0  0  0  0  0  0  0  0  0  0
    3.1867    3.4695   -0.9784 C   0  0  0  0  0  0  0  0  0  0  0  0
    1.9892    4.1183   -0.3084 C   0  0  0  0  0  0  0  0  0  0  0  0
    1.5317    5.1553   -1.1469 O   0  0  0  0  0  0  0  0  0  0  0  0
    0.4265    5.8414   -0.6531 C   0  0  0  0  0  0  0  0  0  0  0  0
    0.0316    6.9198   -1.6463 C   0  0  1  0  0  0  0  0  0  0  0  0
   -0.3012    6.4055   -2.8370 F   0  0  0  0  0  0  0  0  0  0  0  0
   -1.0370    7.5888   -1.1736 F   0  0  0  0  0  0  0  0  0  0  0  0
    1.0164    7.8057   -1.8411 F   0  0  0  0  0  0  0  0  0  0  0  0
    8.4639    1.8462   -0.5203 O   0  0  0  0  0  0  0  0  0  0  0  0
    9.1589    0.7952   -1.1880 C   0  0  0  0  0  0  0  0  0  0  0  0
    8.2307   -0.2575   -1.4230 O   0  0  0  0  0  0  0  0  0  0  0  0
    2.3577    0.5346   -4.4885 H   0  0  0  0  0  0  0  0  0  0  0  0
    2.9575   -1.0285   -3.8498 H   0  0  0  0  0  0  0  0  0  0  0  0
    4.0130    0.4081   -3.8614 H   0  0  0  0  0  0  0  0  0  0  0  0
    1.5102    0.3277   -2.3055 H   0  0  0  0  0  0  0  0  0  0  0  0
    3.2956   -1.2018   -1.3606 H   0  0  0  0  0  0  0  0  0  0  0  0
    2.6093    0.1046   -0.3616 H   0  0  0  0  0  0  0  0  0  0  0  0
    5.6460   -1.2894   -1.8154 H   0  0  0  0  0  0  0  0  0  0  0  0
    6.1436    3.3003    0.1753 H   0  0  0  0  0  0  0  0  0  0  0  0
    2.8909    3.0198   -1.9404 H   0  0  0  0  0  0  0  0  0  0  0  0
    3.9664    4.2323   -1.1595 H   0  0  0  0  0  0  0  0  0  0  0  0
    2.2830    4.5091    0.6868 H   0  0  0  0  0  0  0  0  0  0  0  0
    1.1970    3.3602   -0.1445 H   0  0  0  0  0  0  0  0  0  0  0  0
    0.6344    6.3395    0.3154 H   0  0  0  0  0  0  0  0  0  0  0  0
   -0.4532    5.1819   -0.5103 H   0  0  0  0  0  0  0  0  0  0  0  0
    9.9819    0.4322   -0.5515 H   0  0  0  0  0  0  0  0  0  0  0  0
    9.5556    1.1683   -2.1540 H   0  0  0  0  0  0  0  0  0  0  0  0
  1  2  1  0
  1 22  1  0
  1 23  1  0
  1 24  1  0
  2  3  1  0
  2 25  1  0
  3  4  1  0
  3 26  1  0
  3 27  1  0
  4  5  2  0
  4  9  1  0
  5  6  1  0
  5 28  1  0
  6  7  2  0
  6 21  1  0
  7  8  1  0
  7 19  1  0
  8  9  2  0
  8 29  1  0
  9 10  1  0
 10 11  1  0
 11 12  1  0
 11 30  1  0
 11 31  1  0
 12 13  1  0
 12 32  1  0
 12 33  1  0
 13 14  1  0
 14 15  1  0
 14 34  1  0
 14 35  1  0
 15 16  1  6
 15 17  1  0
 15 18  1  0
 19 20  1  0
 20 21  1  0
 20 36  1  0
 20 37  1  0
M  END

