
     RDKit          3D

 68 72  0  0  0  0  0  0  0  0999 V2000
    6.8891    2.6937    2.9478 C   0  0  0  0  0  0  0  0  0  0  0  0
    6.1855    1.2038    2.1555 S   0  0  0  0  0  0  0  0  0  0  0  0
    5.4883    1.9220    0.7036 C   0  0  0  0  0  0  0  0  0  0  0  0
    4.6388    3.0062    0.7060 N   0  0  0  0  0  0  0  0  0  0  0  0
    4.2648    3.2232   -0.5324 C   0  0  0  0  0  0  0  0  0  0  0  0
    4.8301    2.2963   -1.3831 N   0  0  0  0  0  0  0  0  0  0  0  0
    4.8351    2.0070   -2.7327 C   0  0  0  0  0  0  0  0  0  0  0  0
    5.6243    0.9389   -3.0553 C   0  0  0  0  0  0  0  0  0  0  0  0
    5.8688    0.3823   -4.3821 C   0  0  0  0  0  0  0  0  0  0  0  0
    5.9651    1.0855   -5.5527 C   0  0  0  0  0  0  0  0  0  0  0  0
    5.9232    2.5530   -5.8337 C   0  0  0  0  0  0  0  0  0  0  0  0
    5.3628    3.3766   -5.1535 O   0  0  0  0  0  0  0  0  0  0  0  0
    6.5900    2.9103   -6.9436 O   0  0  0  0  0  0  0  0  0  0  0  0
    6.3128    0.2221   -6.6227 N   0  0  0  0  0  0  0  0  0  0  0  0
    5.5757   -0.2699   -7.7305 C   0  0  0  0  0  0  0  0  0  0  0  0
    4.8600    0.2765   -8.5190 O   0  0  0  0  0  0  0  0  0  0  0  0
    6.0545   -1.7086   -7.4575 C   0  0  2  0  0  0  0  0  0  0  0  0
    6.9184   -1.9453   -8.1022 H   0  0  0  0  0  0  0  0  0  0  0  0
    5.0494   -2.8464   -7.6018 C   0  0  1  0  0  0  0  0  0  0  0  0
    4.0832   -2.5423   -7.1616 H   0  0  0  0  0  0  0  0  0  0  0  0
    4.8137   -3.1747   -9.0745 C   0  0  0  0  0  0  0  0  0  0  0  0
    5.5938   -3.9463   -6.8827 O   0  0  0  0  0  0  0  0  0  0  0  0
    6.6129   -1.1273   -6.1088 C   0  0  2  0  0  0  0  0  0  0  0  0
    7.6969   -1.2938   -6.0069 H   0  0  0  0  0  0  0  0  0  0  0  0
    5.9708   -1.1565   -4.6781 C   0  0  1  0  0  0  0  0  0  0  0  0
    6.9086   -1.9726   -3.7699 C   0  0  0  0  0  0  0  0  0  0  0  0
    4.5393   -1.7626   -4.6636 C   0  0  0  0  0  0  0  0  0  0  0  0
    3.7910   -1.7557   -3.3303 C   0  0  0  0  0  0  0  0  0  0  0  0
    2.5687   -2.5054   -3.4601 O   0  0  0  0  0  0  0  0  0  0  0  0
    1.4986   -1.8326   -3.8952 C   0  0  0  0  0  0  0  0  0  0  0  0
    1.4707   -0.6679   -4.1966 O   0  0  0  0  0  0  0  0  0  0  0  0
    0.4741   -2.7025   -3.9319 O   0  0  0  0  0  0  0  0  0  0  0  0
   -0.8115   -2.3266   -4.3226 C   0  0  0  0  0  0  0  0  0  0  0  0
   -1.3955   -1.1183   -3.9468 C   0  0  0  0  0  0  0  0  0  0  0  0
   -2.7147   -0.8525   -4.3235 C   0  0  0  0  0  0  0  0  0  0  0  0
   -3.4592   -1.7780   -5.0657 C   0  0  0  0  0  0  0  0  0  0  0  0
   -4.8768   -1.4861   -5.4953 C   0  0  0  0  0  0  0  0  0  0  0  0
   -2.8399   -2.9886   -5.4160 C   0  0  0  0  0  0  0  0  0  0  0  0
   -1.5201   -3.2905   -5.0607 C   0  0  0  0  0  0  0  0  0  0  0  0
   -0.8738   -4.5992   -5.4362 C   0  0  0  0  0  0  0  0  0  0  0  0
    6.4125    0.2604   -1.5801 S   0  0  0  0  0  0  0  0  0  0  0  0
    5.6243    1.4696   -0.5982 C   0  0  0  0  0  0  0  0  0  0  0  0
    7.2031    2.3927    3.9573 H   0  0  0  0  0  0  0  0  0  0  0  0
    6.1156    3.4702    3.0184 H   0  0  0  0  0  0  0  0  0  0  0  0
    7.7572    3.0729    2.3888 H   0  0  0  0  0  0  0  0  0  0  0  0
    3.6052    4.0144   -0.8864 H   0  0  0  0  0  0  0  0  0  0  0  0
    4.2687    2.6119   -3.4348 H   0  0  0  0  0  0  0  0  0  0  0  0
    6.9817    2.1208   -7.3537 H   0  0  0  0  0  0  0  0  0  0  0  0
    4.0606   -3.9735   -9.1786 H   0  0  0  0  0  0  0  0  0  0  0  0
    5.7475   -3.5154   -9.5495 H   0  0  0  0  0  0  0  0  0  0  0  0
    4.4432   -2.2883   -9.6123 H   0  0  0  0  0  0  0  0  0  0  0  0
    5.0053   -4.7057   -6.9912 H   0  0  0  0  0  0  0  0  0  0  0  0
    7.9025   -1.5053   -3.6935 H   0  0  0  0  0  0  0  0  0  0  0  0
    7.0369   -2.9724   -4.2149 H   0  0  0  0  0  0  0  0  0  0  0  0
    6.5204   -2.1103   -2.7534 H   0  0  0  0  0  0  0  0  0  0  0  0
    4.6249   -2.8084   -4.9929 H   0  0  0  0  0  0  0  0  0  0  0  0
    3.9105   -1.2256   -5.3912 H   0  0  0  0  0  0  0  0  0  0  0  0
    3.5516   -0.7385   -2.9972 H   0  0  0  0  0  0  0  0  0  0  0  0
    4.3477   -2.2731   -2.5390 H   0  0  0  0  0  0  0  0  0  0  0  0
   -0.8260   -0.3878   -3.3749 H   0  0  0  0  0  0  0  0  0  0  0  0
   -3.1688    0.0973   -4.0285 H   0  0  0  0  0  0  0  0  0  0  0  0
   -5.2931   -0.6230   -4.9549 H   0  0  0  0  0  0  0  0  0  0  0  0
   -5.5387   -2.3491   -5.3183 H   0  0  0  0  0  0  0  0  0  0  0  0
   -4.9279   -1.2567   -6.5739 H   0  0  0  0  0  0  0  0  0  0  0  0
   -3.4053   -3.7304   -5.9888 H   0  0  0  0  0  0  0  0  0  0  0  0
   -1.5633   -5.2252   -6.0203 H   0  0  0  0  0  0  0  0  0  0  0  0
   -0.5644   -5.1646   -4.5420 H   0  0  0  0  0  0  0  0  0  0  0  0
    0.0381   -4.4399   -6.0347 H   0  0  0  0  0  0  0  0  0  0  0  0
  1  2  1  0
  1 43  1  0
  1 44  1  0
  1 45  1  0
  2  3  1  0
  3  4  1  0
  3 42  2  0
  4  5  2  0
  5  6  1  0
  5 46  1  0
  6  7  1  0
  6 42  1  0
  7  8  2  0
  7 47  1  0
  8  9  1  0
  8 41  1  0
  9 10  2  0
  9 25  1  0
 10 11  1  0
 10 14  1  0
 11 12  2  0
 11 13  1  0
 13 48  1  0
 14 15  1  0
 14 23  1  0
 15 16  2  0
 15 17  1  0
 17 18  1  6
 17 19  1  0
 17 23  1  0
 19 20  1  1
 19 21  1  0
 19 22  1  0
 21 49  1  0
 21 50  1  0
 21 51  1  0
 22 52  1  0
 23 24  1  1
 23 25  1  0
 25 26  1  1
 25 27  1  0
 26 53  1  0
 26 54  1  0
 26 55  1  0
 27 28  1  0
 27 56  1  0
 27 57  1  0
 28 29  1  0
 28 58  1  0
 28 59  1  0
 29 30  1  0
 30 31  2  0
 30 32  1  0
 32 33  1  0
 33 34  2  0
 33 39  1  0
 34 35  1  0
 34 60  1  0
 35 36  2  0
 35 61  1  0
 36 37  1  0
 36 38  1  0
 37 62  1  0
 37 63  1  0
 37 64  1  0
 38 39  2  0
 38 65  1  0
 39 40  1  0
 40 66  1  0
 40 67  1  0
 40 68  1  0
 41 42  1  0
M  END

