
     RDKit          3D

 40 41  0  0  0  0  0  0  0  0999 V2000
    1.0013   -0.1004    0.1601 C   0  0  0  0  0  0  0  0  0  0  0  0
    2.3257    0.2850   -0.1053 O   0  0  0  0  0  0  0  0  0  0  0  0
    2.8346   -0.0925   -1.3773 C   0  0  2  0  0  0  0  0  0  0  0  0
    2.0559    0.0830   -2.1468 H   0  0  0  0  0  0  0  0  0  0  0  0
    3.2702   -1.5675   -1.4076 C   0  0  0  0  0  0  0  0  0  0  0  0
    4.4817   -1.7793   -0.5023 C   0  0  0  0  0  0  0  0  0  0  0  0
    5.5539   -0.9181   -0.8559 O   0  0  0  0  0  0  0  0  0  0  0  0
    5.2421    0.4587   -0.7790 C   0  0  2  0  0  0  0  0  0  0  0  0
    4.0454    0.7988   -1.6702 C   0  0  0  0  0  0  0  0  0  0  0  0
    6.5243    1.2966   -1.0300 C   0  0  0  0  0  0  0  0  0  0  0  0
    6.4034    1.8264    0.3245 N   0  0  0  0  0  0  0  0  0  0  0  0
    7.0850    2.7369    1.0685 C   0  0  0  0  0  0  0  0  0  0  0  0
    6.7477    3.0030    2.2138 O   0  0  0  0  0  0  0  0  0  0  0  0
    8.2598    3.4112    0.3587 C   0  0  0  0  0  0  0  0  0  0  0  0
    9.2175    4.1468    1.3071 C   0  0  1  0  0  0  0  0  0  0  0  0
    9.9911    3.1693    2.2008 C   0  0  0  0  0  0  0  0  0  0  0  0
   10.1682    5.0584    0.5222 C   0  0  0  0  0  0  0  0  0  0  0  0
    5.2230    1.0455    0.6766 C   0  0  0  0  0  0  0  0  0  0  0  0
    0.7271    0.3117    1.1420 H   0  0  0  0  0  0  0  0  0  0  0  0
    0.8705   -1.1993    0.1993 H   0  0  0  0  0  0  0  0  0  0  0  0
    0.2986    0.2996   -0.5983 H   0  0  0  0  0  0  0  0  0  0  0  0
    3.5298   -1.8418   -2.4441 H   0  0  0  0  0  0  0  0  0  0  0  0
    2.4444   -2.2287   -1.0977 H   0  0  0  0  0  0  0  0  0  0  0  0
    4.8714   -2.8045   -0.5899 H   0  0  0  0  0  0  0  0  0  0  0  0
    4.1899   -1.6171    0.5531 H   0  0  0  0  0  0  0  0  0  0  0  0
    4.3460    0.6464   -2.7208 H   0  0  0  0  0  0  0  0  0  0  0  0
    3.7660    1.8567   -1.5491 H   0  0  0  0  0  0  0  0  0  0  0  0
    6.4496    2.0501   -1.8339 H   0  0  0  0  0  0  0  0  0  0  0  0
    7.4092    0.6606   -1.2025 H   0  0  0  0  0  0  0  0  0  0  0  0
    7.8299    4.1258   -0.3684 H   0  0  0  0  0  0  0  0  0  0  0  0
    8.8104    2.6680   -0.2462 H   0  0  0  0  0  0  0  0  0  0  0  0
    8.5902    4.7722    1.9645 H   0  0  0  0  0  0  0  0  0  0  0  0
   10.6280    2.4978    1.5977 H   0  0  0  0  0  0  0  0  0  0  0  0
    9.3030    2.5533    2.7980 H   0  0  0  0  0  0  0  0  0  0  0  0
   10.6498    3.7106    2.8994 H   0  0  0  0  0  0  0  0  0  0  0  0
   10.8055    4.4756   -0.1659 H   0  0  0  0  0  0  0  0  0  0  0  0
   10.8371    5.6123    1.2007 H   0  0  0  0  0  0  0  0  0  0  0  0
    9.6174    5.7985   -0.0818 H   0  0  0  0  0  0  0  0  0  0  0  0
    4.3419    1.6442    0.9491 H   0  0  0  0  0  0  0  0  0  0  0  0
    5.4073    0.2945    1.4624 H   0  0  0  0  0  0  0  0  0  0  0  0
  1  2  1  0
  1 19  1  0
  1 20  1  0
  1 21  1  0
  2  3  1  0
  3  4  1  6
  3  5  1  0
  3  9  1  0
  5  6  1  0
  5 22  1  0
  5 23  1  0
  6  7  1  0
  6 24  1  0
  6 25  1  0
  8  7  1  1
  8  9  1  0
  8 10  1  0
  8 18  1  0
  9 26  1  0
  9 27  1  0
 10 11  1  0
 10 28  1  0
 10 29  1  0
 11 12  1  0
 11 18  1  0
 12 13  2  0
 12 14  1  0
 14 15  1  0
 14 30  1  0
 14 31  1  0
 15 16  1  0
 15 17  1  0
 15 32  1  1
 16 33  1  0
 16 34  1  0
 16 35  1  0
 17 36  1  0
 17 37  1  0
 17 38  1  0
 18 39  1  0
 18 40  1  0
M  END

