
     RDKit          3D

 43 44  0  0  0  0  0  0  0  0999 V2000
    1.0417    0.0316    0.3237 C   0  0  0  0  0  0  0  0  0  0  0  0
    2.5301    0.1283    0.1218 C   0  0  0  0  0  0  0  0  0  0  0  0
    3.4071    0.6651    1.0719 C   0  0  0  0  0  0  0  0  0  0  0  0
    4.7851    0.7421    0.8508 C   0  0  0  0  0  0  0  0  0  0  0  0
    5.3677    0.2809   -0.3414 C   0  0  0  0  0  0  0  0  0  0  0  0
    6.8840    0.3897   -0.6287 C   0  0  1  0  0  0  0  0  0  0  0  0
    7.0802    0.8894   -2.0836 C   0  0  0  0  0  0  0  0  0  0  0  0
    7.5396    1.4503    0.2800 C   0  0  0  0  0  0  0  0  0  0  0  0
    7.6714   -0.9806   -0.4962 C   0  0  2  0  0  0  0  0  0  0  0  0
    7.0198   -2.1971   -1.1770 C   0  0  0  0  0  0  0  0  0  0  0  0
    7.9962   -3.3782   -1.2805 C   0  0  0  0  0  0  0  0  0  0  0  0
    8.5499   -3.8333    0.0839 C   0  0  2  0  0  0  0  0  0  0  0  0
    7.5467   -4.6882    0.8733 C   0  0  0  0  0  0  0  0  0  0  0  0
    9.0957   -2.6110    0.8528 C   0  0  0  0  0  0  0  0  0  0  0  0
    8.1905   -1.3728    0.9004 C   0  0  2  0  0  0  0  0  0  0  0  0
    6.8388   -1.6163    2.1248 Cl  0  0  0  0  0  0  0  0  0  0  0  0
    4.4898   -0.2474   -1.3061 C   0  0  0  0  0  0  0  0  0  0  0  0
    3.1241   -0.3189   -1.0618 C   0  0  0  0  0  0  0  0  0  0  0  0
    2.3288   -0.8375   -2.0209 F   0  0  0  0  0  0  0  0  0  0  0  0
    0.7539    0.4007    1.3185 H   0  0  0  0  0  0  0  0  0  0  0  0
    0.6904   -1.0088    0.2270 H   0  0  0  0  0  0  0  0  0  0  0  0
    0.4946    0.6195   -0.4321 H   0  0  0  0  0  0  0  0  0  0  0  0
    2.9978    1.0336    2.0169 H   0  0  0  0  0  0  0  0  0  0  0  0
    5.4059    1.1608    1.6405 H   0  0  0  0  0  0  0  0  0  0  0  0
    6.5092    1.8145   -2.2561 H   0  0  0  0  0  0  0  0  0  0  0  0
    6.7582    0.1567   -2.8368 H   0  0  0  0  0  0  0  0  0  0  0  0
    8.1440    1.1060   -2.2722 H   0  0  0  0  0  0  0  0  0  0  0  0
    7.0718    2.4343    0.1224 H   0  0  0  0  0  0  0  0  0  0  0  0
    8.6104    1.5495    0.0385 H   0  0  0  0  0  0  0  0  0  0  0  0
    7.4593    1.2110    1.3486 H   0  0  0  0  0  0  0  0  0  0  0  0
    8.6150   -0.7885   -1.0450 H   0  0  0  0  0  0  0  0  0  0  0  0
    6.6830   -1.9298   -2.1894 H   0  0  0  0  0  0  0  0  0  0  0  0
    6.1172   -2.4898   -0.6183 H   0  0  0  0  0  0  0  0  0  0  0  0
    8.8405   -3.0802   -1.9291 H   0  0  0  0  0  0  0  0  0  0  0  0
    7.5059   -4.2270   -1.7865 H   0  0  0  0  0  0  0  0  0  0  0  0
    9.4220   -4.4817   -0.1146 H   0  0  0  0  0  0  0  0  0  0  0  0
    6.6046   -4.1595    1.0733 H   0  0  0  0  0  0  0  0  0  0  0  0
    7.9644   -4.9873    1.8483 H   0  0  0  0  0  0  0  0  0  0  0  0
    7.3111   -5.6088    0.3143 H   0  0  0  0  0  0  0  0  0  0  0  0
   10.0251   -2.2799    0.3531 H   0  0  0  0  0  0  0  0  0  0  0  0
    9.3804   -2.8886    1.8802 H   0  0  0  0  0  0  0  0  0  0  0  0
    8.7649   -0.5468    1.3348 H   0  0  0  0  0  0  0  0  0  0  0  0
    4.8372   -0.6095   -2.2725 H   0  0  0  0  0  0  0  0  0  0  0  0
  1  2  1  0
  1 20  1  0
  1 21  1  0
  1 22  1  0
  2  3  2  0
  2 18  1  0
  3  4  1  0
  3 23  1  0
  4  5  2  0
  4 24  1  0
  5  6  1  0
  5 17  1  0
  6  7  1  6
  6  8  1  0
  6  9  1  0
  7 25  1  0
  7 26  1  0
  7 27  1  0
  8 28  1  0
  8 29  1  0
  8 30  1  0
  9 10  1  0
  9 15  1  0
  9 31  1  6
 10 11  1  0
 10 32  1  0
 10 33  1  0
 11 12  1  0
 11 34  1  0
 11 35  1  0
 12 13  1  0
 12 14  1  0
 12 36  1  6
 13 37  1  0
 13 38  1  0
 13 39  1  0
 14 15  1  0
 14 40  1  0
 14 41  1  0
 15 16  1  0
 15 42  1  1
 17 18  2  0
 17 43  1  0
 18 19  1  0
M  END

