
     RDKit          3D

 45 45  0  0  0  0  0  0  0  0999 V2000
    3.1631    1.1725   -0.0272 C   0  0  0  0  0  0  0  0  0  0  0  0
    4.3664    1.1327    0.8991 C   0  0  0  0  0  0  0  0  0  0  0  0
    4.8326   -0.2158    1.1092 O   0  0  0  0  0  0  0  0  0  0  0  0
    4.2611   -0.9292    2.0870 C   0  0  0  0  0  0  0  0  0  0  0  0
    3.3629   -0.5294    2.7865 O   0  0  0  0  0  0  0  0  0  0  0  0
    4.8649   -2.3494    2.1836 C   0  0  1  0  0  0  0  0  0  0  0  0
    4.2994   -3.0665    3.4171 C   0  0  0  0  0  0  0  0  0  0  0  0
    4.5092   -3.1051    0.8929 C   0  0  0  0  0  0  0  0  0  0  0  0
    6.3300   -2.2285    2.3043 N   0  0  0  0  0  0  0  0  0  0  0  0
    6.9989   -1.3747    3.1379 C   0  0  0  0  0  0  0  0  0  0  0  0
    8.3458   -1.6808    3.0000 C   0  0  0  0  0  0  0  0  0  0  0  0
    9.4635   -1.1047    3.6159 N   0  0  0  0  0  0  0  0  0  0  0  0
    9.4037   -0.0591    4.5171 C   0  0  0  0  0  0  0  0  0  0  0  0
    8.3449    0.4625    4.8487 O   0  0  0  0  0  0  0  0  0  0  0  0
   10.6181    0.3598    5.0294 N   0  0  0  0  0  0  0  0  0  0  0  0
   11.8731   -0.3041    4.7293 C   0  0  0  0  0  0  0  0  0  0  0  0
   10.5912    1.5215    5.9130 C   0  0  0  0  0  0  0  0  0  0  0  0
   10.0881    1.2059    7.3258 C   0  0  0  0  0  0  0  0  0  0  0  0
   10.2596    2.3850    8.2721 C   0  0  0  0  0  0  0  0  0  0  0  0
   10.9975    3.3111    8.0694 O   0  0  0  0  0  0  0  0  0  0  0  0
    9.5383    2.3229    9.4148 O   0  0  0  0  0  0  0  0  0  0  0  0
    8.3749   -2.7439    2.0614 C   0  0  0  0  0  0  0  0  0  0  0  0
    7.1484   -3.0617    1.6572 N   0  0  0  0  0  0  0  0  0  0  0  0
    2.8811    2.2188   -0.2265 H   0  0  0  0  0  0  0  0  0  0  0  0
    2.2991    0.6683    0.4305 H   0  0  0  0  0  0  0  0  0  0  0  0
    3.3894    0.6888   -0.9902 H   0  0  0  0  0  0  0  0  0  0  0  0
    4.1288    1.5809    1.8750 H   0  0  0  0  0  0  0  0  0  0  0  0
    5.2278    1.6573    0.4622 H   0  0  0  0  0  0  0  0  0  0  0  0
    3.2074   -3.1608    3.3408 H   0  0  0  0  0  0  0  0  0  0  0  0
    4.5246   -2.5090    4.3371 H   0  0  0  0  0  0  0  0  0  0  0  0
    4.7454   -4.0692    3.4898 H   0  0  0  0  0  0  0  0  0  0  0  0
    3.4145   -3.1384    0.7850 H   0  0  0  0  0  0  0  0  0  0  0  0
    4.8977   -4.1304    0.9357 H   0  0  0  0  0  0  0  0  0  0  0  0
    4.9444   -2.6075    0.0170 H   0  0  0  0  0  0  0  0  0  0  0  0
    6.5101   -0.6236    3.7483 H   0  0  0  0  0  0  0  0  0  0  0  0
   10.3623   -1.4546    3.3150 H   0  0  0  0  0  0  0  0  0  0  0  0
   12.1777   -0.1834    3.6713 H   0  0  0  0  0  0  0  0  0  0  0  0
   11.8367   -1.3846    4.9575 H   0  0  0  0  0  0  0  0  0  0  0  0
   12.6705    0.1308    5.3456 H   0  0  0  0  0  0  0  0  0  0  0  0
    9.9422    2.2928    5.4733 H   0  0  0  0  0  0  0  0  0  0  0  0
   11.6028    1.9446    5.9728 H   0  0  0  0  0  0  0  0  0  0  0  0
   10.6504    0.3547    7.7529 H   0  0  0  0  0  0  0  0  0  0  0  0
    9.0311    0.8985    7.2722 H   0  0  0  0  0  0  0  0  0  0  0  0
    8.9682    1.5406    9.4098 H   0  0  0  0  0  0  0  0  0  0  0  0
    9.2399   -3.2792    1.6679 H   0  0  0  0  0  0  0  0  0  0  0  0
  1  2  1  0
  1 24  1  0
  1 25  1  0
  1 26  1  0
  2  3  1  0
  2 27  1  0
  2 28  1  0
  3  4  1  0
  4  5  2  0
  6  4  1  6
  6  7  1  0
  6  8  1  0
  6  9  1  0
  7 29  1  0
  7 30  1  0
  7 31  1  0
  8 32  1  0
  8 33  1  0
  8 34  1  0
  9 10  1  0
  9 23  1  0
 10 11  2  0
 10 35  1  0
 11 12  1  0
 11 22  1  0
 12 13  1  0
 12 36  1  0
 13 14  2  0
 13 15  1  0
 15 16  1  0
 15 17  1  0
 16 37  1  0
 16 38  1  0
 16 39  1  0
 17 18  1  0
 17 40  1  0
 17 41  1  0
 18 19  1  0
 18 42  1  0
 18 43  1  0
 19 20  2  0
 19 21  1  0
 21 44  1  0
 22 23  2  0
 22 45  1  0
M  END

