
     RDKit          3D

 55 59  0  0  0  0  0  0  0  0999 V2000
    2.6608   -0.7089    1.2908 C   0  0  0  0  0  0  0  0  0  0  0  0
    3.9413   -1.0540    0.5332 C   0  0  0  0  0  0  0  0  0  0  0  0
    3.6966   -1.8257   -0.6908 N   0  0  0  0  0  0  0  0  0  0  0  0
    3.4892   -1.2623   -1.9238 C   0  0  0  0  0  0  0  0  0  0  0  0
    3.5052    0.0561   -2.3820 C   0  0  0  0  0  0  0  0  0  0  0  0
    3.7821    1.3186   -1.8497 C   0  0  0  0  0  0  0  0  0  0  0  0
    3.6829    2.5737   -2.6267 C   0  0  0  0  0  0  0  0  0  0  0  0
    3.3432    2.7901   -3.7829 O   0  0  0  0  0  0  0  0  0  0  0  0
    4.1372    3.3437   -1.4412 C   0  0  0  0  0  0  0  0  0  0  0  0
    4.3579    4.6216   -0.8959 C   0  0  0  0  0  0  0  0  0  0  0  0
    4.3630    5.9265   -1.3657 C   0  0  0  0  0  0  0  0  0  0  0  0
    4.3244    6.3896   -2.6496 N   0  0  0  0  0  0  0  0  0  0  0  0
    4.3921    5.5505   -3.8312 C   0  0  0  0  0  0  0  0  0  0  0  0
    4.3377    7.7959   -2.6847 C   0  0  0  0  0  0  0  0  0  0  0  0
    4.2917    8.6481   -3.7904 C   0  0  0  0  0  0  0  0  0  0  0  0
    4.3198   10.0292   -3.5529 C   0  0  0  0  0  0  0  0  0  0  0  0
    4.3904   10.5402   -2.2531 C   0  0  0  0  0  0  0  0  0  0  0  0
    4.4345    9.6676   -1.1534 C   0  0  0  0  0  0  0  0  0  0  0  0
    4.4062    8.2966   -1.3753 C   0  0  0  0  0  0  0  0  0  0  0  0
    4.4435    7.1298   -0.4046 C   0  0  2  0  0  0  0  0  0  0  0  0
    5.7641    7.1119    0.3975 C   0  0  0  0  0  0  0  0  0  0  0  0
    3.2329    7.1525    0.5537 C   0  0  0  0  0  0  0  0  0  0  0  0
    4.2279    2.0944   -0.6661 C   0  0  0  0  0  0  0  0  0  0  0  0
    4.5500    1.8635    0.4955 O   0  0  0  0  0  0  0  0  0  0  0  0
    3.1239   -2.5182   -3.1175 S   0  0  0  0  0  0  0  0  0  0  0  0
    3.2470   -3.7788   -1.9064 C   0  0  0  0  0  0  0  0  0  0  0  0
    3.0804   -5.1544   -2.0673 C   0  0  0  0  0  0  0  0  0  0  0  0
    3.2224   -5.9799   -0.9479 C   0  0  0  0  0  0  0  0  0  0  0  0
    3.5227   -5.4278    0.3044 C   0  0  0  0  0  0  0  0  0  0  0  0
    3.6901   -4.0501    0.4678 C   0  0  0  0  0  0  0  0  0  0  0  0
    3.5557   -3.2159   -0.6514 C   0  0  0  0  0  0  0  0  0  0  0  0
    2.9183   -0.1036    2.1722 H   0  0  0  0  0  0  0  0  0  0  0  0
    2.1168   -1.6074    1.6236 H   0  0  0  0  0  0  0  0  0  0  0  0
    1.9872   -0.1061    0.6631 H   0  0  0  0  0  0  0  0  0  0  0  0
    4.6235   -1.6492    1.1577 H   0  0  0  0  0  0  0  0  0  0  0  0
    4.4729   -0.1262    0.2902 H   0  0  0  0  0  0  0  0  0  0  0  0
    3.2407    0.1345   -3.4448 H   0  0  0  0  0  0  0  0  0  0  0  0
    4.5318    4.5515    0.1845 H   0  0  0  0  0  0  0  0  0  0  0  0
    5.2931    4.9170   -3.7890 H   0  0  0  0  0  0  0  0  0  0  0  0
    4.4489    6.1814   -4.7250 H   0  0  0  0  0  0  0  0  0  0  0  0
    3.5338    4.8686   -3.9104 H   0  0  0  0  0  0  0  0  0  0  0  0
    4.2306    8.2668   -4.8105 H   0  0  0  0  0  0  0  0  0  0  0  0
    4.2832   10.7147   -4.4032 H   0  0  0  0  0  0  0  0  0  0  0  0
    4.4098   11.6205   -2.0926 H   0  0  0  0  0  0  0  0  0  0  0  0
    4.4903   10.0676   -0.1373 H   0  0  0  0  0  0  0  0  0  0  0  0
    6.6368    7.0877   -0.2721 H   0  0  0  0  0  0  0  0  0  0  0  0
    5.8118    6.2335    1.0590 H   0  0  0  0  0  0  0  0  0  0  0  0
    5.8379    8.0152    1.0236 H   0  0  0  0  0  0  0  0  0  0  0  0
    2.2846    7.1619   -0.0040 H   0  0  0  0  0  0  0  0  0  0  0  0
    3.2674    8.0529    1.1875 H   0  0  0  0  0  0  0  0  0  0  0  0
    3.2368    6.2697    1.2111 H   0  0  0  0  0  0  0  0  0  0  0  0
    2.8436   -5.5748   -3.0469 H   0  0  0  0  0  0  0  0  0  0  0  0
    3.0956   -7.0595   -1.0529 H   0  0  0  0  0  0  0  0  0  0  0  0
    3.6270   -6.0815    1.1734 H   0  0  0  0  0  0  0  0  0  0  0  0
    3.9168   -3.6388    1.4513 H   0  0  0  0  0  0  0  0  0  0  0  0
  1  2  1  0
  1 32  1  0
  1 33  1  0
  1 34  1  0
  2  3  1  0
  2 35  1  0
  2 36  1  0
  3  4  1  0
  3 31  1  0
  4  5  1  0
  4 25  2  0
  5  6  2  0
  5 37  1  0
  6  7  1  0
  6 23  1  0
  7  8  2  0
  7  9  1  0
  9 10  1  0
  9 23  2  0
 10 11  2  0
 10 38  1  0
 11 12  1  0
 11 20  1  0
 12 13  1  0
 12 14  1  0
 13 39  1  0
 13 40  1  0
 13 41  1  0
 14 15  1  0
 14 19  2  0
 15 16  2  0
 15 42  1  0
 16 17  1  0
 16 43  1  0
 17 18  2  0
 17 44  1  0
 18 19  1  0
 18 45  1  0
 19 20  1  0
 20 21  1  1
 20 22  1  0
 21 46  1  0
 21 47  1  0
 21 48  1  0
 22 49  1  0
 22 50  1  0
 22 51  1  0
 23 24  1  0
 25 26  1  0
 26 27  1  0
 26 31  2  0
 27 28  2  0
 27 52  1  0
 28 29  1  0
 28 53  1  0
 29 30  2  0
 29 54  1  0
 30 31  1  0
 30 55  1  0
M  CHG  2  24  -1  25   1
M  END

