
     RDKit          3D

 74 74  0  0  0  0  0  0  0  0999 V2000
    5.1640   -3.0128    3.4222 C   0  0  0  0  0  0  0  0  0  0  0  0
    4.4728   -1.9227    2.6018 C   0  0  0  0  0  0  0  0  0  0  0  0
    5.0814   -0.5306    2.8013 C   0  0  0  0  0  0  0  0  0  0  0  0
    4.3940    0.5484    1.9620 C   0  0  0  0  0  0  0  0  0  0  0  0
    4.9043    1.9853    2.1505 C   0  0  0  0  0  0  0  0  0  0  0  0
    6.3398    2.2165    1.8893 N   0  0  0  0  0  0  0  0  0  0  0  0
    6.8719    2.3460    0.6408 C   0  0  0  0  0  0  0  0  0  0  0  0
    8.0371    2.6984    0.4434 O   0  0  0  0  0  0  0  0  0  0  0  0
    6.0405    2.0040   -0.6095 C   0  0  1  0  0  0  0  0  0  0  0  0
    6.0563    3.1936   -1.5906 C   0  0  0  0  0  0  0  0  0  0  0  0
    5.2643    4.3914   -1.0913 C   0  0  0  0  0  0  0  0  0  0  0  0
    4.8543    5.2659   -2.0511 N   0  0  0  0  0  0  0  0  0  0  0  0
    5.0244    4.5730    0.0946 O   0  0  0  0  0  0  0  0  0  0  0  0
    6.6592    0.8316   -1.2032 N   0  0  0  0  0  0  0  0  0  0  0  0
    5.9372   -0.1975   -1.7346 C   0  0  0  0  0  0  0  0  0  0  0  0
    4.7207   -0.2539   -1.7317 O   0  0  0  0  0  0  0  0  0  0  0  0
    6.7744   -1.1226   -2.2472 O   0  0  0  0  0  0  0  0  0  0  0  0
    6.2830   -2.3524   -2.8745 C   0  0  1  0  0  0  0  0  0  0  0  0
    5.4401   -2.0106   -4.1078 C   0  0  0  0  0  0  0  0  0  0  0  0
    7.5744   -3.0650   -3.2811 C   0  0  0  0  0  0  0  0  0  0  0  0
    5.5003   -3.1872   -1.8554 C   0  0  0  0  0  0  0  0  0  0  0  0
    7.1903    2.7519    2.9921 C   0  0  1  0  0  0  0  0  0  0  0  0
    6.7987    4.2375    3.1583 C   0  0  0  0  0  0  0  0  0  0  0  0
    5.9448    4.6414    3.9350 O   0  0  0  0  0  0  0  0  0  0  0  0
    7.4415    5.0612    2.2848 N   0  0  0  0  0  0  0  0  0  0  0  0
    6.9622    6.4043    2.0730 C   0  0  0  0  0  0  0  0  0  0  0  0
    7.3053    6.8768    0.6777 C   0  0  0  0  0  0  0  0  0  0  0  0
    7.9278    6.2447   -0.1413 O   0  0  0  0  0  0  0  0  0  0  0  0
    6.8292    8.1125    0.4597 O   0  0  0  0  0  0  0  0  0  0  0  0
    7.0816    8.6665   -0.8314 C   0  0  0  0  0  0  0  0  0  0  0  0
    7.2057    1.8932    4.2461 C   0  0  0  0  0  0  0  0  0  0  0  0
    8.1109    0.8173    4.2806 C   0  0  0  0  0  0  0  0  0  0  0  0
    8.1861   -0.0282    5.3883 C   0  0  0  0  0  0  0  0  0  0  0  0
    7.3556    0.1921    6.4922 C   0  0  0  0  0  0  0  0  0  0  0  0
    6.4609    1.2646    6.4757 C   0  0  0  0  0  0  0  0  0  0  0  0
    6.3833    2.1110    5.3638 C   0  0  0  0  0  0  0  0  0  0  0  0
    4.6994   -3.9990    3.2608 H   0  0  0  0  0  0  0  0  0  0  0  0
    5.1156   -2.7930    4.5018 H   0  0  0  0  0  0  0  0  0  0  0  0
    6.2308   -3.0990    3.1551 H   0  0  0  0  0  0  0  0  0  0  0  0
    3.3987   -1.8914    2.8621 H   0  0  0  0  0  0  0  0  0  0  0  0
    4.5108   -2.1860    1.5290 H   0  0  0  0  0  0  0  0  0  0  0  0
    6.1549   -0.5637    2.5470 H   0  0  0  0  0  0  0  0  0  0  0  0
    5.0376   -0.2595    3.8708 H   0  0  0  0  0  0  0  0  0  0  0  0
    3.3179    0.5747    2.2142 H   0  0  0  0  0  0  0  0  0  0  0  0
    4.4327    0.2580    0.8988 H   0  0  0  0  0  0  0  0  0  0  0  0
    4.7310    2.2969    3.1885 H   0  0  0  0  0  0  0  0  0  0  0  0
    4.3221    2.6827    1.5302 H   0  0  0  0  0  0  0  0  0  0  0  0
    5.0047    1.7389   -0.3839 H   0  0  0  0  0  0  0  0  0  0  0  0
    5.6729    2.8532   -2.5655 H   0  0  0  0  0  0  0  0  0  0  0  0
    7.1013    3.5194   -1.7300 H   0  0  0  0  0  0  0  0  0  0  0  0
    5.0377    5.1182   -3.0341 H   0  0  0  0  0  0  0  0  0  0  0  0
    4.3329    6.0861   -1.7643 H   0  0  0  0  0  0  0  0  0  0  0  0
    7.6716    0.8102   -1.2667 H   0  0  0  0  0  0  0  0  0  0  0  0
    6.0170   -1.3803   -4.8031 H   0  0  0  0  0  0  0  0  0  0  0  0
    4.5235   -1.4785   -3.8232 H   0  0  0  0  0  0  0  0  0  0  0  0
    5.1629   -2.9357   -4.6372 H   0  0  0  0  0  0  0  0  0  0  0  0
    8.1574   -2.4432   -3.9773 H   0  0  0  0  0  0  0  0  0  0  0  0
    7.3436   -4.0208   -3.7754 H   0  0  0  0  0  0  0  0  0  0  0  0
    8.1979   -3.2700   -2.3977 H   0  0  0  0  0  0  0  0  0  0  0  0
    4.5793   -2.6750   -1.5495 H   0  0  0  0  0  0  0  0  0  0  0  0
    6.1157   -3.3757   -0.9617 H   0  0  0  0  0  0  0  0  0  0  0  0
    5.2347   -4.1601   -2.2977 H   0  0  0  0  0  0  0  0  0  0  0  0
    8.2038    2.7287    2.5773 H   0  0  0  0  0  0  0  0  0  0  0  0
    8.0016    4.6497    1.5367 H   0  0  0  0  0  0  0  0  0  0  0  0
    7.3840    7.1259    2.7967 H   0  0  0  0  0  0  0  0  0  0  0  0
    5.8685    6.4450    2.2037 H   0  0  0  0  0  0  0  0  0  0  0  0
    6.6218    9.6625   -0.8332 H   0  0  0  0  0  0  0  0  0  0  0  0
    6.6362    8.0363   -1.6166 H   0  0  0  0  0  0  0  0  0  0  0  0
    8.1627    8.7449   -1.0216 H   0  0  0  0  0  0  0  0  0  0  0  0
    8.7672    0.6425    3.4230 H   0  0  0  0  0  0  0  0  0  0  0  0
    8.8985   -0.8574    5.3929 H   0  0  0  0  0  0  0  0  0  0  0  0
    7.4132   -0.4651    7.3640 H   0  0  0  0  0  0  0  0  0  0  0  0
    5.8163    1.4519    7.3388 H   0  0  0  0  0  0  0  0  0  0  0  0
    5.7046    2.9632    5.3633 H   0  0  0  0  0  0  0  0  0  0  0  0
  1  2  1  0
  1 37  1  0
  1 38  1  0
  1 39  1  0
  2  3  1  0
  2 40  1  0
  2 41  1  0
  3  4  1  0
  3 42  1  0
  3 43  1  0
  4  5  1  0
  4 44  1  0
  4 45  1  0
  5  6  1  0
  5 46  1  0
  5 47  1  0
  6  7  1  0
  6 22  1  0
  7  8  2  0
  7  9  1  0
  9 10  1  0
  9 14  1  0
  9 48  1  1
 10 11  1  0
 10 49  1  0
 10 50  1  0
 11 12  1  0
 11 13  2  0
 12 51  1  0
 12 52  1  0
 14 15  1  0
 14 53  1  0
 15 16  2  0
 15 17  1  0
 18 17  1  1
 18 19  1  0
 18 20  1  0
 18 21  1  0
 19 54  1  0
 19 55  1  0
 19 56  1  0
 20 57  1  0
 20 58  1  0
 20 59  1  0
 21 60  1  0
 21 61  1  0
 21 62  1  0
 22 23  1  0
 22 31  1  0
 22 63  1  6
 23 24  2  0
 23 25  1  0
 25 26  1  0
 25 64  1  0
 26 27  1  0
 26 65  1  0
 26 66  1  0
 27 28  2  0
 27 29  1  0
 29 30  1  0
 30 67  1  0
 30 68  1  0
 30 69  1  0
 31 32  2  0
 31 36  1  0
 32 33  1  0
 32 70  1  0
 33 34  2  0
 33 71  1  0
 34 35  1  0
 34 72  1  0
 35 36  2  0
 35 73  1  0
 36 74  1  0
M  END

