
     RDKit          3D

 50 53  0  0  0  0  0  0  0  0999 V2000
    3.1745    2.0556    0.4198 C   0  0  0  0  0  0  0  0  0  0  0  0
    3.1136    0.7232   -0.0830 O   0  0  0  0  0  0  0  0  0  0  0  0
    3.5246   -0.2687    0.7222 C   0  0  0  0  0  0  0  0  0  0  0  0
    3.9579   -0.0173    1.9189 N   0  0  0  0  0  0  0  0  0  0  0  0
    4.3308   -1.0498    2.7314 C   0  0  0  0  0  0  0  0  0  0  0  0
    4.8166   -0.7906    4.0467 C   0  0  0  0  0  0  0  0  0  0  0  0
    4.9389    0.6181    4.5571 C   0  0  0  0  0  0  0  0  0  0  0  0
    5.1689   -1.8845    4.8349 C   0  0  0  0  0  0  0  0  0  0  0  0
    5.7625   -1.6049    6.4503 Cl  0  0  0  0  0  0  0  0  0  0  0  0
    5.0574   -3.2224    4.3653 C   0  0  0  0  0  0  0  0  0  0  0  0
    5.4861   -4.5471    5.3947 Cl  0  0  0  0  0  0  0  0  0  0  0  0
    4.5911   -3.4722    3.0774 C   0  0  0  0  0  0  0  0  0  0  0  0
    4.5090   -4.7910    2.5745 N   0  0  0  0  0  0  0  0  0  0  0  0
    5.6410   -5.4584    2.1754 N   0  0  0  0  0  0  0  0  0  0  0  0
    5.3140   -6.6141    1.7325 N   0  0  0  0  0  0  0  0  0  0  0  0
    3.9459   -6.7601    1.8184 C   0  0  0  0  0  0  0  0  0  0  0  0
    3.1112   -7.8347    1.4625 C   0  0  0  0  0  0  0  0  0  0  0  0
    1.7425   -7.7004    1.6670 C   0  0  0  0  0  0  0  0  0  0  0  0
    0.7912   -8.8422    1.3576 C   0  0  0  0  0  0  0  0  0  0  0  0
   -0.4047   -8.4272    0.6381 N   0  0  0  0  0  0  0  0  0  0  0  0
   -0.1277   -7.9729   -0.7120 C   0  0  0  0  0  0  0  0  0  0  0  0
   -1.4559   -9.4237    0.6772 C   0  0  0  0  0  0  0  0  0  0  0  0
    1.2206   -6.4925    2.2130 C   0  0  0  0  0  0  0  0  0  0  0  0
    2.0265   -5.4193    2.5651 C   0  0  0  0  0  0  0  0  0  0  0  0
    3.4068   -5.5757    2.3591 C   0  0  0  0  0  0  0  0  0  0  0  0
    4.2219   -2.3828    2.2400 C   0  0  0  0  0  0  0  0  0  0  0  0
    3.7776   -2.6270    0.9800 N   0  0  0  0  0  0  0  0  0  0  0  0
    3.4415   -1.6348    0.2102 C   0  0  0  0  0  0  0  0  0  0  0  0
    2.9778   -1.9616   -1.0025 O   0  0  0  0  0  0  0  0  0  0  0  0
    3.0703   -1.1137   -2.1439 C   0  0  0  0  0  0  0  0  0  0  0  0
    2.7939    2.6971   -0.3848 H   0  0  0  0  0  0  0  0  0  0  0  0
    4.2088    2.3340    0.6737 H   0  0  0  0  0  0  0  0  0  0  0  0
    2.5531    2.1640    1.3217 H   0  0  0  0  0  0  0  0  0  0  0  0
    4.6008    1.3311    3.7971 H   0  0  0  0  0  0  0  0  0  0  0  0
    5.9828    0.8458    4.8269 H   0  0  0  0  0  0  0  0  0  0  0  0
    4.3431    0.7549    5.4737 H   0  0  0  0  0  0  0  0  0  0  0  0
    3.5407   -8.7449    1.0377 H   0  0  0  0  0  0  0  0  0  0  0  0
    0.4594   -9.2912    2.3110 H   0  0  0  0  0  0  0  0  0  0  0  0
    1.3488   -9.6442    0.8197 H   0  0  0  0  0  0  0  0  0  0  0  0
    0.6276   -7.1733   -0.6994 H   0  0  0  0  0  0  0  0  0  0  0  0
   -1.0444   -7.5664   -1.1683 H   0  0  0  0  0  0  0  0  0  0  0  0
    0.2497   -8.7861   -1.3756 H   0  0  0  0  0  0  0  0  0  0  0  0
   -1.7010   -9.6798    1.7203 H   0  0  0  0  0  0  0  0  0  0  0  0
   -1.1897  -10.3704    0.1505 H   0  0  0  0  0  0  0  0  0  0  0  0
   -2.3684   -9.0278    0.2031 H   0  0  0  0  0  0  0  0  0  0  0  0
    0.1374   -6.4205    2.3358 H   0  0  0  0  0  0  0  0  0  0  0  0
    1.6054   -4.5003    2.9764 H   0  0  0  0  0  0  0  0  0  0  0  0
    2.9399   -1.7755   -3.0107 H   0  0  0  0  0  0  0  0  0  0  0  0
    4.0548   -0.6252   -2.2075 H   0  0  0  0  0  0  0  0  0  0  0  0
    2.2856   -0.3446   -2.1439 H   0  0  0  0  0  0  0  0  0  0  0  0
  1  2  1  0
  1 31  1  0
  1 32  1  0
  1 33  1  0
  2  3  1  0
  3  4  2  0
  3 28  1  0
  4  5  1  0
  5  6  2  0
  5 26  1  0
  6  7  1  0
  6  8  1  0
  7 34  1  0
  7 35  1  0
  7 36  1  0
  8  9  1  0
  8 10  2  0
 10 11  1  0
 10 12  1  0
 12 13  1  0
 12 26  2  0
 13 14  1  0
 13 25  1  0
 14 15  2  0
 15 16  1  0
 16 17  1  0
 16 25  2  0
 17 18  2  0
 17 37  1  0
 18 19  1  0
 18 23  1  0
 19 20  1  0
 19 38  1  0
 19 39  1  0
 20 21  1  0
 20 22  1  0
 21 40  1  0
 21 41  1  0
 21 42  1  0
 22 43  1  0
 22 44  1  0
 22 45  1  0
 23 24  2  0
 23 46  1  0
 24 25  1  0
 24 47  1  0
 26 27  1  0
 27 28  2  0
 28 29  1  0
 29 30  1  0
 30 48  1  0
 30 49  1  0
 30 50  1  0
M  END

