
     RDKit          3D

 75 76  0  0  0  0  0  0  0  0999 V2000
    7.9239   -3.7194   -9.1812 C   0  0  0  0  0  0  0  0  0  0  0  0
    7.2217   -2.4862   -8.6137 C   0  0  0  0  0  0  0  0  0  0  0  0
    8.0782   -1.7050   -7.6179 C   0  0  0  0  0  0  0  0  0  0  0  0
    7.3939   -0.5142   -7.1401 N   0  0  0  0  0  0  0  0  0  0  0  0
    8.1466    0.2849   -6.1907 C   0  0  0  0  0  0  0  0  0  0  0  0
    7.4121    1.5833   -5.8856 C   0  0  0  0  0  0  0  0  0  0  0  0
    8.1719    2.3465   -4.9782 O   0  0  0  0  0  0  0  0  0  0  0  0
    7.6156    3.6038   -4.6933 C   0  0  0  0  0  0  0  0  0  0  0  0
    8.4363    4.3415   -3.6210 C   0  0  0  0  0  0  0  0  0  0  0  0
    9.8879    4.2105   -3.6871 N   0  0  0  0  0  0  0  0  0  0  0  0
   10.5942    3.5649   -2.6935 C   0  0  0  0  0  0  0  0  0  0  0  0
   11.8076    3.4105   -2.7681 O   0  0  0  0  0  0  0  0  0  0  0  0
    9.8907    3.1068   -1.3998 C   0  0  0  0  0  0  0  0  0  0  0  0
    8.8836    2.0653   -1.5524 N   0  0  0  0  0  0  0  0  0  0  0  0
    9.3432    0.8513   -2.2302 C   0  0  0  0  0  0  0  0  0  0  0  0
   10.2548   -0.0373   -1.3655 C   0  0  0  0  0  0  0  0  0  0  0  0
    9.6836   -0.4041    0.0322 C   0  0  2  0  0  0  0  0  0  0  0  0
    8.8277   -1.7253    0.1163 C   0  0  1  0  0  0  0  0  0  0  0  0
    9.6839   -2.9126   -0.3766 C   0  0  0  0  0  0  0  0  0  0  0  0
    8.4686   -2.0068    1.5919 C   0  0  0  0  0  0  0  0  0  0  0  0
    7.5220   -1.6988   -0.7025 C   0  0  0  0  0  0  0  0  0  0  0  0
    9.0545    0.8708    0.6602 C   0  0  0  0  0  0  0  0  0  0  0  0
    8.2042    1.7196   -0.3046 C   0  0  0  0  0  0  0  0  0  0  0  0
   10.7438    4.7750   -4.7667 C   0  0  1  0  0  0  0  0  0  0  0  0
   10.0784    5.0157   -6.1342 C   0  0  0  0  0  0  0  0  0  0  0  0
    9.2891    6.3269   -6.2499 C   0  0  0  0  0  0  0  0  0  0  0  0
   10.1168    7.4463   -5.8208 N   0  0  0  0  0  0  0  0  0  0  0  0
   10.5772    7.3120   -4.4435 C   0  0  0  0  0  0  0  0  0  0  0  0
   11.4592    6.0700   -4.3168 C   0  0  0  0  0  0  0  0  0  0  0  0
    7.2764   -4.2599   -9.8893 H   0  0  0  0  0  0  0  0  0  0  0  0
    8.2068   -4.4269   -8.3838 H   0  0  0  0  0  0  0  0  0  0  0  0
    8.8462   -3.4437   -9.7195 H   0  0  0  0  0  0  0  0  0  0  0  0
    6.2825   -2.7937   -8.1161 H   0  0  0  0  0  0  0  0  0  0  0  0
    6.9253   -1.8020   -9.4269 H   0  0  0  0  0  0  0  0  0  0  0  0
    9.0140   -1.3865   -8.1131 H   0  0  0  0  0  0  0  0  0  0  0  0
    8.3928   -2.3850   -6.7909 H   0  0  0  0  0  0  0  0  0  0  0  0
    6.4962   -0.7800   -6.7337 H   0  0  0  0  0  0  0  0  0  0  0  0
    9.1252    0.5353   -6.6348 H   0  0  0  0  0  0  0  0  0  0  0  0
    8.3674   -0.2388   -5.2337 H   0  0  0  0  0  0  0  0  0  0  0  0
    6.4082    1.3640   -5.4600 H   0  0  0  0  0  0  0  0  0  0  0  0
    7.2429    2.1371   -6.8311 H   0  0  0  0  0  0  0  0  0  0  0  0
    6.5831    3.4976   -4.2980 H   0  0  0  0  0  0  0  0  0  0  0  0
    7.5287    4.1980   -5.6226 H   0  0  0  0  0  0  0  0  0  0  0  0
    8.1261    3.9249   -2.6592 H   0  0  0  0  0  0  0  0  0  0  0  0
    8.1341    5.4031   -3.6419 H   0  0  0  0  0  0  0  0  0  0  0  0
    9.4046    3.9825   -0.9323 H   0  0  0  0  0  0  0  0  0  0  0  0
   10.7378    2.8286   -0.7452 H   0  0  0  0  0  0  0  0  0  0  0  0
    9.8599    1.1345   -3.1583 H   0  0  0  0  0  0  0  0  0  0  0  0
    8.4445    0.2971   -2.5460 H   0  0  0  0  0  0  0  0  0  0  0  0
   11.2054    0.5018   -1.2142 H   0  0  0  0  0  0  0  0  0  0  0  0
   10.5229   -0.9400   -1.9353 H   0  0  0  0  0  0  0  0  0  0  0  0
   10.5595   -0.6420    0.6613 H   0  0  0  0  0  0  0  0  0  0  0  0
   10.6415   -2.9701    0.1671 H   0  0  0  0  0  0  0  0  0  0  0  0
    9.9115   -2.8494   -1.4513 H   0  0  0  0  0  0  0  0  0  0  0  0
    9.1511   -3.8636   -0.2139 H   0  0  0  0  0  0  0  0  0  0  0  0
    9.3669   -2.0058    2.2315 H   0  0  0  0  0  0  0  0  0  0  0  0
    7.9927   -2.9961    1.6888 H   0  0  0  0  0  0  0  0  0  0  0  0
    7.7628   -1.2687    2.0020 H   0  0  0  0  0  0  0  0  0  0  0  0
    7.7101   -1.5584   -1.7776 H   0  0  0  0  0  0  0  0  0  0  0  0
    6.8389   -0.9026   -0.3694 H   0  0  0  0  0  0  0  0  0  0  0  0
    6.9852   -2.6556   -0.5882 H   0  0  0  0  0  0  0  0  0  0  0  0
    9.8821    1.5005    1.0298 H   0  0  0  0  0  0  0  0  0  0  0  0
    8.4566    0.6261    1.5513 H   0  0  0  0  0  0  0  0  0  0  0  0
    7.8920    2.6499    0.1998 H   0  0  0  0  0  0  0  0  0  0  0  0
    7.2769    1.1835   -0.5680 H   0  0  0  0  0  0  0  0  0  0  0  0
   11.5229    4.0152   -4.9082 H   0  0  0  0  0  0  0  0  0  0  0  0
    9.4762    4.1485   -6.4372 H   0  0  0  0  0  0  0  0  0  0  0  0
   10.9095    5.0819   -6.8555 H   0  0  0  0  0  0  0  0  0  0  0  0
    8.3377    6.2594   -5.6754 H   0  0  0  0  0  0  0  0  0  0  0  0
    9.0012    6.4811   -7.3034 H   0  0  0  0  0  0  0  0  0  0  0  0
    9.6234    8.3264   -5.9537 H   0  0  0  0  0  0  0  0  0  0  0  0
    9.7383    7.2488   -3.7103 H   0  0  0  0  0  0  0  0  0  0  0  0
   11.1579    8.2101   -4.1757 H   0  0  0  0  0  0  0  0  0  0  0  0
   11.8374    5.9478   -3.2919 H   0  0  0  0  0  0  0  0  0  0  0  0
   12.3386    6.2106   -4.9681 H   0  0  0  0  0  0  0  0  0  0  0  0
  1  2  1  0
  1 30  1  0
  1 31  1  0
  1 32  1  0
  2  3  1  0
  2 33  1  0
  2 34  1  0
  3  4  1  0
  3 35  1  0
  3 36  1  0
  4  5  1  0
  4 37  1  0
  5  6  1  0
  5 38  1  0
  5 39  1  0
  6  7  1  0
  6 40  1  0
  6 41  1  0
  7  8  1  0
  8  9  1  0
  8 42  1  0
  8 43  1  0
  9 10  1  0
  9 44  1  0
  9 45  1  0
 10 11  1  0
 10 24  1  0
 11 12  2  0
 11 13  1  0
 13 14  1  0
 13 46  1  0
 13 47  1  0
 14 15  1  0
 14 23  1  0
 15 16  1  0
 15 48  1  0
 15 49  1  0
 16 17  1  0
 16 50  1  0
 16 51  1  0
 17 18  1  0
 17 22  1  0
 17 52  1  1
 18 19  1  6
 18 20  1  0
 18 21  1  0
 19 53  1  0
 19 54  1  0
 19 55  1  0
 20 56  1  0
 20 57  1  0
 20 58  1  0
 21 59  1  0
 21 60  1  0
 21 61  1  0
 22 23  1  0
 22 62  1  0
 22 63  1  0
 23 64  1  0
 23 65  1  0
 24 25  1  0
 24 29  1  0
 24 66  1  6
 25 26  1  0
 25 67  1  0
 25 68  1  0
 26 27  1  0
 26 69  1  0
 26 70  1  0
 27 28  1  0
 27 71  1  0
 28 29  1  0
 28 72  1  0
 28 73  1  0
 29 74  1  0
 29 75  1  0
M  END

