
     RDKit          3D

 65 68  0  0  0  0  0  0  0  0999 V2000
   10.1422    2.1822   -3.1896 C   0  0  0  0  0  0  0  0  0  0  0  0
    9.6791    0.9439   -2.6483 O   0  0  0  0  0  0  0  0  0  0  0  0
    8.3721    0.8833   -2.3358 C   0  0  0  0  0  0  0  0  0  0  0  0
    7.6109    1.8067   -2.4931 O   0  0  0  0  0  0  0  0  0  0  0  0
    8.0011   -0.4669   -1.7409 C   0  0  0  0  0  0  0  0  0  0  0  0
    6.8054   -1.1210   -2.4060 C   0  0  0  0  0  0  0  0  0  0  0  0
    5.5475   -0.4986   -2.4238 C   0  0  0  0  0  0  0  0  0  0  0  0
    4.4632   -1.1202   -3.0381 C   0  0  0  0  0  0  0  0  0  0  0  0
    4.6064   -2.3779   -3.6428 C   0  0  0  0  0  0  0  0  0  0  0  0
    3.5513   -3.0103   -4.2297 O   0  0  0  0  0  0  0  0  0  0  0  0
    5.8581   -3.0225   -3.6441 C   0  0  0  0  0  0  0  0  0  0  0  0
    6.0227   -4.3940   -4.3012 C   0  0  1  0  0  0  0  0  0  0  0  0
    7.1601   -4.3608   -5.3230 C   0  0  0  0  0  0  0  0  0  0  0  0
    8.4765   -4.7069   -4.9911 C   0  0  0  0  0  0  0  0  0  0  0  0
    9.5032   -4.6123   -5.9360 C   0  0  0  0  0  0  0  0  0  0  0  0
    9.2535   -4.1701   -7.2427 C   0  0  0  0  0  0  0  0  0  0  0  0
   10.3549   -4.0776   -8.2710 C   0  0  0  0  0  0  0  0  0  0  0  0
    7.9308   -3.8283   -7.5719 C   0  0  0  0  0  0  0  0  0  0  0  0
    6.9046   -3.9248   -6.6322 C   0  0  0  0  0  0  0  0  0  0  0  0
    6.2198   -5.4706   -3.3082 N   0  0  0  0  0  0  0  0  0  0  0  0
    6.1133   -6.7940   -3.9259 C   0  0  0  0  0  0  0  0  0  0  0  0
    6.5177   -7.8918   -2.9428 C   0  0  0  0  0  0  0  0  0  0  0  0
    5.7473   -7.8070   -1.7000 N   0  0  0  0  0  0  0  0  0  0  0  0
    4.4323   -8.8313   -1.4902 S   0  0  1  0  0  0  0  0  0  0  0  0
    3.5415   -8.1847   -0.5216 O   0  0  0  0  0  0  0  0  0  0  0  0
    3.9475   -9.2750   -2.8029 O   0  0  0  0  0  0  0  0  0  0  0  0
    5.1334  -10.2813   -0.6909 C   0  0  0  0  0  0  0  0  0  0  0  0
    5.4381  -10.2314    0.6748 C   0  0  0  0  0  0  0  0  0  0  0  0
    5.9793  -11.3539    1.2986 C   0  0  0  0  0  0  0  0  0  0  0  0
    6.1973  -12.5078    0.5428 C   0  0  0  0  0  0  0  0  0  0  0  0
    6.7164  -13.5846    1.1425 F   0  0  0  0  0  0  0  0  0  0  0  0
    5.8824  -12.5729   -0.8129 C   0  0  0  0  0  0  0  0  0  0  0  0
    5.3395  -11.4461   -1.4349 C   0  0  0  0  0  0  0  0  0  0  0  0
    5.7339   -6.4649   -1.1121 C   0  0  0  0  0  0  0  0  0  0  0  0
    5.3461   -5.3993   -2.1371 C   0  0  0  0  0  0  0  0  0  0  0  0
    6.9330   -2.3702   -3.0253 C   0  0  0  0  0  0  0  0  0  0  0  0
   11.2156    2.0526   -3.3750 H   0  0  0  0  0  0  0  0  0  0  0  0
    9.9731    3.0073   -2.4809 H   0  0  0  0  0  0  0  0  0  0  0  0
    9.6181    2.4182   -4.1280 H   0  0  0  0  0  0  0  0  0  0  0  0
    7.7810   -0.2737   -0.6752 H   0  0  0  0  0  0  0  0  0  0  0  0
    8.8769   -1.1273   -1.7773 H   0  0  0  0  0  0  0  0  0  0  0  0
    5.4239    0.4874   -1.9726 H   0  0  0  0  0  0  0  0  0  0  0  0
    3.4853   -0.6276   -3.0500 H   0  0  0  0  0  0  0  0  0  0  0  0
    2.7600   -2.4629   -4.1438 H   0  0  0  0  0  0  0  0  0  0  0  0
    5.0889   -4.5804   -4.8655 H   0  0  0  0  0  0  0  0  0  0  0  0
    8.6885   -5.0678   -3.9821 H   0  0  0  0  0  0  0  0  0  0  0  0
   10.5219   -4.8909   -5.6497 H   0  0  0  0  0  0  0  0  0  0  0  0
   11.3426   -4.2662   -7.8244 H   0  0  0  0  0  0  0  0  0  0  0  0
   10.3822   -3.0818   -8.7435 H   0  0  0  0  0  0  0  0  0  0  0  0
   10.2101   -4.8124   -9.0817 H   0  0  0  0  0  0  0  0  0  0  0  0
    7.7000   -3.4841   -8.5848 H   0  0  0  0  0  0  0  0  0  0  0  0
    5.8840   -3.6528   -6.9174 H   0  0  0  0  0  0  0  0  0  0  0  0
    6.7703   -6.8409   -4.8064 H   0  0  0  0  0  0  0  0  0  0  0  0
    5.0756   -6.9962   -4.2723 H   0  0  0  0  0  0  0  0  0  0  0  0
    7.5868   -7.7894   -2.6865 H   0  0  0  0  0  0  0  0  0  0  0  0
    6.3698   -8.8780   -3.4017 H   0  0  0  0  0  0  0  0  0  0  0  0
    5.2386   -9.3231    1.2461 H   0  0  0  0  0  0  0  0  0  0  0  0
    6.2276  -11.3552    2.3616 H   0  0  0  0  0  0  0  0  0  0  0  0
    6.0562  -13.5010   -1.3606 H   0  0  0  0  0  0  0  0  0  0  0  0
    5.0597  -11.4670   -2.4893 H   0  0  0  0  0  0  0  0  0  0  0  0
    6.7502   -6.2556   -0.7336 H   0  0  0  0  0  0  0  0  0  0  0  0
    5.0344   -6.4508   -0.2676 H   0  0  0  0  0  0  0  0  0  0  0  0
    5.4414   -4.4116   -1.6656 H   0  0  0  0  0  0  0  0  0  0  0  0
    4.2754   -5.5361   -2.4093 H   0  0  0  0  0  0  0  0  0  0  0  0
    7.9086   -2.8614   -3.0326 H   0  0  0  0  0  0  0  0  0  0  0  0
  1  2  1  0
  1 37  1  0
  1 38  1  0
  1 39  1  0
  2  3  1  0
  3  4  2  0
  3  5  1  0
  5  6  1  0
  5 40  1  0
  5 41  1  0
  6  7  2  0
  6 36  1  0
  7  8  1  0
  7 42  1  0
  8  9  2  0
  8 43  1  0
  9 10  1  0
  9 11  1  0
 10 44  1  0
 11 12  1  0
 11 36  2  0
 12 13  1  0
 12 20  1  0
 12 45  1  6
 13 14  2  0
 13 19  1  0
 14 15  1  0
 14 46  1  0
 15 16  2  0
 15 47  1  0
 16 17  1  0
 16 18  1  0
 17 48  1  0
 17 49  1  0
 17 50  1  0
 18 19  2  0
 18 51  1  0
 19 52  1  0
 20 21  1  0
 20 35  1  0
 21 22  1  0
 21 53  1  0
 21 54  1  0
 22 23  1  0
 22 55  1  0
 22 56  1  0
 23 24  1  0
 23 34  1  0
 24 25  2  0
 24 26  2  0
 24 27  1  1
 27 28  2  0
 27 33  1  0
 28 29  1  0
 28 57  1  0
 29 30  2  0
 29 58  1  0
 30 31  1  0
 30 32  1  0
 32 33  2  0
 32 59  1  0
 33 60  1  0
 34 35  1  0
 34 61  1  0
 34 62  1  0
 35 63  1  0
 35 64  1  0
 36 65  1  0
M  END

