
     RDKit          3D

 68 73  0  0  0  0  0  0  0  0999 V2000
    4.7009   -2.9650   -4.2928 C   0  0  0  0  0  0  0  0  0  0  0  0
    5.5970   -2.2726   -3.3112 C   0  0  0  0  0  0  0  0  0  0  0  0
    6.1056   -0.9868   -3.4732 C   0  0  0  0  0  0  0  0  0  0  0  0
    6.8990   -0.6736   -2.3454 C   0  0  0  0  0  0  0  0  0  0  0  0
    7.6483    0.5864   -2.0683 C   0  0  0  0  0  0  0  0  0  0  0  0
    6.8895   -1.7213   -1.4998 N   0  0  0  0  0  0  0  0  0  0  0  0
    6.1038   -2.7386   -2.0469 C   0  0  0  0  0  0  0  0  0  0  0  0
    5.9302   -3.9538   -1.3549 C   0  0  0  0  0  0  0  0  0  0  0  0
    5.0954   -5.0245   -1.9571 C   0  0  0  0  0  0  0  0  0  0  0  0
    3.7443   -5.2376   -1.8212 C   0  0  0  0  0  0  0  0  0  0  0  0
    3.2745   -6.3695   -2.5458 C   0  0  0  0  0  0  0  0  0  0  0  0
    4.2657   -7.0319   -3.2422 C   0  0  0  0  0  0  0  0  0  0  0  0
    4.1522   -8.2256   -4.0929 C   0  0  0  0  0  0  0  0  0  0  0  0
    2.9103   -8.5841   -4.6581 C   0  0  0  0  0  0  0  0  0  0  0  0
    2.7744   -9.7218   -5.4506 C   0  0  0  0  0  0  0  0  0  0  0  0
    3.8994  -10.5107   -5.7041 C   0  0  0  0  0  0  0  0  0  0  0  0
    3.8023  -11.6902   -6.4402 O   0  0  0  0  0  0  0  0  0  0  0  0
    3.5271  -11.6678   -8.0611 S   0  0  1  0  0  0  0  0  0  0  0  0
    3.4615  -13.0595   -8.4517 O   0  0  0  0  0  0  0  0  0  0  0  0
    2.4484  -10.7271   -8.3380 O   0  0  0  0  0  0  0  0  0  0  0  0
    5.0305  -10.9371   -8.7816 C   0  0  0  0  0  0  0  0  0  0  0  0
    4.8948   -9.6517   -9.3157 C   0  0  0  0  0  0  0  0  0  0  0  0
    5.9500   -9.0551  -10.0090 C   0  0  0  0  0  0  0  0  0  0  0  0
    7.1243   -9.7799  -10.1875 C   0  0  0  0  0  0  0  0  0  0  0  0
    8.2488   -9.1640  -10.9385 N   0  0  0  0  0  0  0  0  0  0  0  0
    8.0744   -8.0398  -11.3716 O   0  0  0  0  0  0  0  0  0  0  0  0
    9.2611   -9.8281  -11.0639 O   0  0  0  0  0  0  0  0  0  0  0  0
    7.2828  -11.0718   -9.6926 C   0  0  0  0  0  0  0  0  0  0  0  0
    6.2352  -11.6347   -8.9709 C   0  0  0  0  0  0  0  0  0  0  0  0
    6.4887  -12.9763   -8.3937 N   0  0  0  0  0  0  0  0  0  0  0  0
    6.1646  -13.1418   -7.2338 O   0  0  0  0  0  0  0  0  0  0  0  0
    7.0472  -13.7807   -9.1128 O   0  0  0  0  0  0  0  0  0  0  0  0
    5.1453  -10.1811   -5.1673 C   0  0  0  0  0  0  0  0  0  0  0  0
    5.2640   -9.0497   -4.3622 C   0  0  0  0  0  0  0  0  0  0  0  0
    5.8044   -6.2322   -2.9981 S   0  0  0  0  0  0  0  0  0  0  0  0
    6.5350   -4.1689   -0.1007 C   0  0  0  0  0  0  0  0  0  0  0  0
    6.5033   -5.2912    0.8010 C   0  0  0  0  0  0  0  0  0  0  0  0
    5.7914   -6.6028    0.6663 C   0  0  0  0  0  0  0  0  0  0  0  0
    7.2882   -4.9243    1.8906 C   0  0  0  0  0  0  0  0  0  0  0  0
    7.7839   -3.6189    1.6665 C   0  0  0  0  0  0  0  0  0  0  0  0
    8.6676   -2.8055    2.5514 C   0  0  0  0  0  0  0  0  0  0  0  0
    7.3293   -3.1765    0.4790 N   0  0  0  0  0  0  0  0  0  0  0  0
    7.6477   -1.7822   -0.1397 B   0  0  1  0  0  0  0  0  0  0  0  0
    9.0186   -1.6542   -0.3504 F   0  0  0  0  0  0  0  0  0  0  0  0
    7.1934   -0.7713    0.7046 F   0  0  0  0  0  0  0  0  0  0  0  0
    3.7143   -3.1931   -3.8608 H   0  0  0  0  0  0  0  0  0  0  0  0
    5.1232   -3.9216   -4.6364 H   0  0  0  0  0  0  0  0  0  0  0  0
    4.5454   -2.3254   -5.1740 H   0  0  0  0  0  0  0  0  0  0  0  0
    5.9296   -0.3248   -4.3197 H   0  0  0  0  0  0  0  0  0  0  0  0
    8.7218    0.3764   -1.9397 H   0  0  0  0  0  0  0  0  0  0  0  0
    7.3052    1.0396   -1.1251 H   0  0  0  0  0  0  0  0  0  0  0  0
    7.5145    1.3054   -2.8874 H   0  0  0  0  0  0  0  0  0  0  0  0
    3.1075   -4.5979   -1.2081 H   0  0  0  0  0  0  0  0  0  0  0  0
    2.2352   -6.6999   -2.5312 H   0  0  0  0  0  0  0  0  0  0  0  0
    2.0350   -7.9556   -4.4844 H   0  0  0  0  0  0  0  0  0  0  0  0
    1.8124   -9.9966   -5.8835 H   0  0  0  0  0  0  0  0  0  0  0  0
    3.9427   -9.1334   -9.1969 H   0  0  0  0  0  0  0  0  0  0  0  0
    5.8688   -8.0503  -10.4229 H   0  0  0  0  0  0  0  0  0  0  0  0
    8.2056  -11.6244   -9.8643 H   0  0  0  0  0  0  0  0  0  0  0  0
    5.9976  -10.8328   -5.3670 H   0  0  0  0  0  0  0  0  0  0  0  0
    6.2351   -8.8138   -3.9206 H   0  0  0  0  0  0  0  0  0  0  0  0
    4.6993   -6.4756    0.6091 H   0  0  0  0  0  0  0  0  0  0  0  0
    6.0133   -7.2409    1.5341 H   0  0  0  0  0  0  0  0  0  0  0  0
    6.0927   -7.1469   -0.2418 H   0  0  0  0  0  0  0  0  0  0  0  0
    7.4920   -5.5300    2.7723 H   0  0  0  0  0  0  0  0  0  0  0  0
    8.9228   -3.3627    3.4626 H   0  0  0  0  0  0  0  0  0  0  0  0
    8.1729   -1.8612    2.8279 H   0  0  0  0  0  0  0  0  0  0  0  0
    9.5929   -2.5284    2.0224 H   0  0  0  0  0  0  0  0  0  0  0  0
  1  2  1  0
  1 46  1  0
  1 47  1  0
  1 48  1  0
  2  3  1  0
  2  7  2  0
  3  4  2  0
  3 49  1  0
  4  5  1  0
  4  6  1  0
  5 50  1  0
  5 51  1  0
  5 52  1  0
  6  7  1  0
  6 43  1  0
  7  8  1  0
  8  9  2  0
  8 36  1  0
  9 10  1  0
  9 35  1  0
 10 11  2  0
 10 53  1  0
 11 12  1  0
 11 54  1  0
 12 13  1  0
 12 35  2  0
 13 14  2  0
 13 34  1  0
 14 15  1  0
 14 55  1  0
 15 16  2  0
 15 56  1  0
 16 17  1  0
 16 33  1  0
 18 17  1  1
 18 19  2  0
 18 20  2  0
 18 21  1  0
 21 22  2  0
 21 29  1  0
 22 23  1  0
 22 57  1  0
 23 24  2  0
 23 58  1  0
 24 25  1  0
 24 28  1  0
 25 26  2  0
 25 27  1  0
 28 29  2  0
 28 59  1  0
 29 30  1  0
 30 31  2  0
 30 32  1  0
 33 34  2  0
 33 60  1  0
 34 61  1  0
 36 37  2  0
 36 42  1  0
 37 38  1  0
 37 39  1  0
 38 62  1  0
 38 63  1  0
 38 64  1  0
 39 40  2  0
 39 65  1  0
 40 41  1  0
 40 42  1  0
 41 66  1  0
 41 67  1  0
 41 68  1  0
 42 43  1  0
 43 44  1  6
 43 45  1  0
M  CHG  6  25   1  27  -1  30   1  32  -1  35   1  43  -1
M  END

