
     RDKit          3D

 33 33  0  0  0  0  0  0  0  0999 V2000
    1.2449   -0.0976    0.4134 C   0  0  0  0  0  0  0  0  0  0  0  0
    2.7235   -0.0176    0.1386 C   0  0  0  0  0  0  0  0  0  0  0  0
    3.3252    1.1493   -0.3644 C   0  0  0  0  0  0  0  0  0  0  0  0
    4.6939    1.1569   -0.6143 C   0  0  0  0  0  0  0  0  0  0  0  0
    5.4420   -0.0025   -0.3707 C   0  0  0  0  0  0  0  0  0  0  0  0
    6.9214    0.0359   -0.6429 C   0  0  0  0  0  0  0  0  0  0  0  0
    7.5165    1.0982   -0.7698 O   0  0  0  0  0  0  0  0  0  0  0  0
    7.5549   -1.1684   -0.7553 N   0  0  0  0  0  0  0  0  0  0  0  0
    8.9851   -1.2549   -1.0016 C   0  0  0  0  0  0  0  0  0  0  0  0
    9.8347   -1.1213    0.2678 C   0  0  0  0  0  0  0  0  0  0  0  0
   11.3397   -1.2132   -0.0265 C   0  0  0  0  0  0  0  0  0  0  0  0
   12.2059   -1.0696    1.1966 C   0  0  0  0  0  0  0  0  0  0  0  0
   12.2528    0.1505    1.8230 N   0  0  0  0  0  0  0  0  0  0  0  0
   12.8832   -2.1015    1.5715 N   0  0  0  0  0  0  0  0  0  0  0  0
   13.6183   -1.7997    2.7418 O   0  0  0  0  0  0  0  0  0  0  0  0
    4.7516   -1.1063    0.1541 C   0  0  0  0  0  0  0  0  0  0  0  0
    3.4436   -1.1195    0.3987 N   0  0  0  0  0  0  0  0  0  0  0  0
    0.7407    0.8660    0.2536 H   0  0  0  0  0  0  0  0  0  0  0  0
    1.0696   -0.4276    1.4494 H   0  0  0  0  0  0  0  0  0  0  0  0
    0.7781   -0.8514   -0.2419 H   0  0  0  0  0  0  0  0  0  0  0  0
    2.7208    2.0395   -0.5538 H   0  0  0  0  0  0  0  0  0  0  0  0
    5.2086    2.0421   -0.9942 H   0  0  0  0  0  0  0  0  0  0  0  0
    7.0156   -2.0224   -0.7064 H   0  0  0  0  0  0  0  0  0  0  0  0
    9.2556   -0.4520   -1.7058 H   0  0  0  0  0  0  0  0  0  0  0  0
    9.1902   -2.2169   -1.4989 H   0  0  0  0  0  0  0  0  0  0  0  0
    9.5535   -1.9084    0.9883 H   0  0  0  0  0  0  0  0  0  0  0  0
    9.5872   -0.1545    0.7368 H   0  0  0  0  0  0  0  0  0  0  0  0
   11.6213   -0.4329   -0.7573 H   0  0  0  0  0  0  0  0  0  0  0  0
   11.5813   -2.1875   -0.4767 H   0  0  0  0  0  0  0  0  0  0  0  0
   11.5018    0.8081    1.6623 H   0  0  0  0  0  0  0  0  0  0  0  0
   12.6778    0.1591    2.7434 H   0  0  0  0  0  0  0  0  0  0  0  0
   14.0622   -2.6343    2.9302 H   0  0  0  0  0  0  0  0  0  0  0  0
    5.2876   -2.0270    0.4195 H   0  0  0  0  0  0  0  0  0  0  0  0
  1  2  1  0
  1 18  1  0
  1 19  1  0
  1 20  1  0
  2  3  2  0
  2 17  1  0
  3  4  1  0
  3 21  1  0
  4  5  2  0
  4 22  1  0
  5  6  1  0
  5 16  1  0
  6  7  2  0
  6  8  1  0
  8  9  1  0
  8 23  1  0
  9 10  1  0
  9 24  1  0
  9 25  1  0
 10 11  1  0
 10 26  1  0
 10 27  1  0
 11 12  1  0
 11 28  1  0
 11 29  1  0
 12 13  1  0
 12 14  2  0
 13 30  1  0
 13 31  1  0
 14 15  1  0
 15 32  1  0
 16 17  2  0
 16 33  1  0
M  END

