
     RDKit          3D

 53 55  0  0  0  0  0  0  0  0999 V2000
    4.6174   -0.8080   -6.3250 C   0  0  0  0  0  0  0  0  0  0  0  0
    5.9620   -0.6896   -5.9229 O   0  0  0  0  0  0  0  0  0  0  0  0
    6.5686    0.5242   -5.9827 C   0  0  0  0  0  0  0  0  0  0  0  0
    5.9508    1.7031   -6.4211 C   0  0  0  0  0  0  0  0  0  0  0  0
    6.6787    2.9008   -6.4407 C   0  0  0  0  0  0  0  0  0  0  0  0
    8.0152    2.9561   -6.0355 C   0  0  0  0  0  0  0  0  0  0  0  0
    8.7992    4.2563   -6.0631 C   0  0  0  0  0  0  0  0  0  0  0  0
    9.3781    4.6091   -4.6906 C   0  0  0  0  0  0  0  0  0  0  0  0
   10.4302    4.1331   -4.2912 O   0  0  0  0  0  0  0  0  0  0  0  0
    8.6214    5.4536   -3.9304 N   0  0  0  0  0  0  0  0  0  0  0  0
    8.9928    5.8041   -2.5685 C   0  0  0  0  0  0  0  0  0  0  0  0
   10.0148    6.9559   -2.4745 C   0  0  1  0  0  0  0  0  0  0  0  0
   10.9204    6.6107   -3.0002 H   0  0  0  0  0  0  0  0  0  0  0  0
    9.5344    8.2678   -3.1233 C   0  0  0  0  0  0  0  0  0  0  0  0
    8.4635    8.9761   -2.2818 C   0  0  0  0  0  0  0  0  0  0  0  0
    8.9136    9.1442   -0.8275 C   0  0  0  0  0  0  0  0  0  0  0  0
    9.3256    7.8580   -0.2652 N   0  0  0  0  0  0  0  0  0  0  0  0
    8.8796    7.5341    0.9987 C   0  0  0  0  0  0  0  0  0  0  0  0
    8.2199    8.3229    1.6721 O   0  0  0  0  0  0  0  0  0  0  0  0
    9.1586    6.1990    1.5827 C   0  0  0  0  0  0  0  0  0  0  0  0
    9.4962    5.1185    0.8078 O   0  0  0  0  0  0  0  0  0  0  0  0
    9.6079    4.0478    1.6234 C   0  0  0  0  0  0  0  0  0  0  0  0
    9.3518    4.4066    2.9157 C   0  0  0  0  0  0  0  0  0  0  0  0
    9.0482    5.8089    2.9035 C   0  0  0  0  0  0  0  0  0  0  0  0
    8.6682    6.6429    4.0880 C   0  0  0  0  0  0  0  0  0  0  0  0
   10.4118    7.2200   -1.0111 C   0  0  0  0  0  0  0  0  0  0  0  0
    8.6207    1.7626   -5.5958 C   0  0  0  0  0  0  0  0  0  0  0  0
    7.9129    0.5673   -5.5688 C   0  0  0  0  0  0  0  0  0  0  0  0
    4.3421   -1.8634   -6.1947 H   0  0  0  0  0  0  0  0  0  0  0  0
    4.4778   -0.5315   -7.3862 H   0  0  0  0  0  0  0  0  0  0  0  0
    3.9449   -0.1853   -5.7068 H   0  0  0  0  0  0  0  0  0  0  0  0
    4.9112    1.7067   -6.7496 H   0  0  0  0  0  0  0  0  0  0  0  0
    6.1812    3.8107   -6.7904 H   0  0  0  0  0  0  0  0  0  0  0  0
    8.1616    5.0702   -6.4430 H   0  0  0  0  0  0  0  0  0  0  0  0
    9.6628    4.1667   -6.7409 H   0  0  0  0  0  0  0  0  0  0  0  0
    7.7415    5.7866   -4.3025 H   0  0  0  0  0  0  0  0  0  0  0  0
    9.4300    4.9112   -2.0981 H   0  0  0  0  0  0  0  0  0  0  0  0
    8.0755    6.0488   -2.0123 H   0  0  0  0  0  0  0  0  0  0  0  0
    9.1670    8.0745   -4.1446 H   0  0  0  0  0  0  0  0  0  0  0  0
   10.4040    8.9402   -3.2337 H   0  0  0  0  0  0  0  0  0  0  0  0
    7.5185    8.4055   -2.2974 H   0  0  0  0  0  0  0  0  0  0  0  0
    8.2356    9.9673   -2.7083 H   0  0  0  0  0  0  0  0  0  0  0  0
    8.1186    9.5511   -0.1919 H   0  0  0  0  0  0  0  0  0  0  0  0
    9.7661    9.8515   -0.7801 H   0  0  0  0  0  0  0  0  0  0  0  0
    9.8716    3.1069    1.1464 H   0  0  0  0  0  0  0  0  0  0  0  0
    9.3714    3.7536    3.7862 H   0  0  0  0  0  0  0  0  0  0  0  0
    7.5717    6.7263    4.1687 H   0  0  0  0  0  0  0  0  0  0  0  0
    9.0467    7.6692    3.9957 H   0  0  0  0  0  0  0  0  0  0  0  0
    9.0450    6.1929    5.0192 H   0  0  0  0  0  0  0  0  0  0  0  0
   10.7182    6.2935   -0.5195 H   0  0  0  0  0  0  0  0  0  0  0  0
   11.2848    7.9022   -1.0017 H   0  0  0  0  0  0  0  0  0  0  0  0
    9.6609    1.7874   -5.2622 H   0  0  0  0  0  0  0  0  0  0  0  0
    8.3793   -0.3599   -5.2292 H   0  0  0  0  0  0  0  0  0  0  0  0
  1  2  1  0
  1 29  1  0
  1 30  1  0
  1 31  1  0
  2  3  1  0
  3  4  2  0
  3 28  1  0
  4  5  1  0
  4 32  1  0
  5  6  2  0
  5 33  1  0
  6  7  1  0
  6 27  1  0
  7  8  1  0
  7 34  1  0
  7 35  1  0
  8  9  2  0
  8 10  1  0
 10 11  1  0
 10 36  1  0
 11 12  1  0
 11 37  1  0
 11 38  1  0
 12 13  1  6
 12 14  1  0
 12 26  1  0
 14 15  1  0
 14 39  1  0
 14 40  1  0
 15 16  1  0
 15 41  1  0
 15 42  1  0
 16 17  1  0
 16 43  1  0
 16 44  1  0
 17 18  1  0
 17 26  1  0
 18 19  2  0
 18 20  1  0
 20 21  1  0
 20 24  2  0
 21 22  1  0
 22 23  2  0
 22 45  1  0
 23 24  1  0
 23 46  1  0
 24 25  1  0
 25 47  1  0
 25 48  1  0
 25 49  1  0
 26 50  1  0
 26 51  1  0
 27 28  2  0
 27 52  1  0
 28 53  1  0
M  END

