
     RDKit          3D

 41 41  0  0  0  0  0  0  0  0999 V2000
    3.9517   -1.9221   -2.6432 C   0  0  0  0  0  0  0  0  0  0  0  0
    3.2283   -0.5821   -2.7793 C   0  0  0  0  0  0  0  0  0  0  0  0
    3.4164    0.3608   -1.5834 C   0  0  0  0  0  0  0  0  0  0  0  0
    4.7980    0.7646   -1.3523 N   0  0  0  0  0  0  0  0  0  0  0  0
    5.3284    1.8974   -1.8816 C   0  0  0  0  0  0  0  0  0  0  0  0
    4.6936    2.6700   -2.5872 O   0  0  0  0  0  0  0  0  0  0  0  0
    6.7923    2.1840   -1.5010 C   0  0  2  0  0  0  0  0  0  0  0  0
    7.4003    1.2791   -1.6783 H   0  0  0  0  0  0  0  0  0  0  0  0
    6.9291    2.5736   -0.0180 C   0  0  0  0  0  0  0  0  0  0  0  0
    7.2573    3.2284   -2.3892 N   0  0  0  0  0  0  0  0  0  0  0  0
    8.5740    3.4440   -2.6336 C   0  0  0  0  0  0  0  0  0  0  0  0
    9.4745    2.8188   -2.1032 O   0  0  0  0  0  0  0  0  0  0  0  0
    8.8400    4.5531   -3.6659 C   0  0  0  0  0  0  0  0  0  0  0  0
   10.2242    4.8189   -3.7824 O   0  0  0  0  0  0  0  0  0  0  0  0
   10.7814    5.5030   -2.7683 C   0  0  0  0  0  0  0  0  0  0  0  0
   10.1429    5.9776   -1.8587 O   0  0  0  0  0  0  0  0  0  0  0  0
   12.2659    5.6515   -2.8932 C   0  0  0  0  0  0  0  0  0  0  0  0
   12.9031    6.3773   -1.8710 C   0  0  0  0  0  0  0  0  0  0  0  0
   14.2806    6.5714   -1.8848 C   0  0  0  0  0  0  0  0  0  0  0  0
   15.0459    7.4778   -0.6010 Cl  0  0  0  0  0  0  0  0  0  0  0  0
   15.0614    6.0442   -2.9207 C   0  0  0  0  0  0  0  0  0  0  0  0
   14.4449    5.3229   -3.9403 C   0  0  0  0  0  0  0  0  0  0  0  0
   13.0626    5.1291   -3.9269 C   0  0  0  0  0  0  0  0  0  0  0  0
   12.5331    4.4336   -4.9322 F   0  0  0  0  0  0  0  0  0  0  0  0
    3.7748   -2.5631   -3.5209 H   0  0  0  0  0  0  0  0  0  0  0  0
    3.6096   -2.4780   -1.7532 H   0  0  0  0  0  0  0  0  0  0  0  0
    5.0425   -1.7863   -2.5557 H   0  0  0  0  0  0  0  0  0  0  0  0
    2.1446   -0.7539   -2.9019 H   0  0  0  0  0  0  0  0  0  0  0  0
    3.5627   -0.0589   -3.6911 H   0  0  0  0  0  0  0  0  0  0  0  0
    3.0408   -0.1148   -0.6611 H   0  0  0  0  0  0  0  0  0  0  0  0
    2.8380    1.2814   -1.7449 H   0  0  0  0  0  0  0  0  0  0  0  0
    5.4036    0.1516   -0.8202 H   0  0  0  0  0  0  0  0  0  0  0  0
    7.9827    2.7999    0.1980 H   0  0  0  0  0  0  0  0  0  0  0  0
    6.6068    1.7555    0.6453 H   0  0  0  0  0  0  0  0  0  0  0  0
    6.3200    3.4633    0.2039 H   0  0  0  0  0  0  0  0  0  0  0  0
    6.5173    3.7294   -2.8784 H   0  0  0  0  0  0  0  0  0  0  0  0
    8.2859    5.4629   -3.3857 H   0  0  0  0  0  0  0  0  0  0  0  0
    8.5125    4.2190   -4.6617 H   0  0  0  0  0  0  0  0  0  0  0  0
   12.2843    6.7799   -1.0687 H   0  0  0  0  0  0  0  0  0  0  0  0
   16.1415    6.1996   -2.9240 H   0  0  0  0  0  0  0  0  0  0  0  0
   15.0224    4.8975   -4.7632 H   0  0  0  0  0  0  0  0  0  0  0  0
  1  2  1  0
  1 25  1  0
  1 26  1  0
  1 27  1  0
  2  3  1  0
  2 28  1  0
  2 29  1  0
  3  4  1  0
  3 30  1  0
  3 31  1  0
  4  5  1  0
  4 32  1  0
  5  6  2  0
  5  7  1  0
  7  8  1  1
  7  9  1  0
  7 10  1  0
  9 33  1  0
  9 34  1  0
  9 35  1  0
 10 11  1  0
 10 36  1  0
 11 12  2  0
 11 13  1  0
 13 14  1  0
 13 37  1  0
 13 38  1  0
 14 15  1  0
 15 16  2  0
 15 17  1  0
 17 18  2  0
 17 23  1  0
 18 19  1  0
 18 39  1  0
 19 20  1  0
 19 21  2  0
 21 22  1  0
 21 40  1  0
 22 23  2  0
 22 41  1  0
 23 24  1  0
M  END

