
     RDKit          3D

 32 33  0  0  0  0  0  0  0  0999 V2000
    2.0203   -0.8733   -0.0214 C   0  0  0  0  0  0  0  0  0  0  0  0
    3.1932    0.0725   -0.2638 C   0  0  0  0  0  0  0  0  0  0  0  0
    3.1084    1.2907    0.5328 N   0  0  0  0  0  0  0  0  0  0  0  0
    2.8541    2.5500    0.1092 C   0  0  0  0  0  0  0  0  0  0  0  0
    2.8396    3.3649    1.2422 C   0  0  0  0  0  0  0  0  0  0  0  0
    2.6255    4.8197    1.3733 C   0  0  0  0  0  0  0  0  0  0  0  0
    2.6869    5.3587    2.4651 O   0  0  0  0  0  0  0  0  0  0  0  0
    2.2849    5.6072    0.1063 C   0  0  1  0  0  0  0  0  0  0  0  0
    0.7768    5.3731   -0.2875 C   0  0  0  0  0  0  0  0  0  0  0  0
    0.1812    6.7750   -0.4827 C   0  0  0  0  0  0  0  0  0  0  0  0
    0.9835    7.6654    0.4761 C   0  0  2  0  0  0  0  0  0  0  0  0
    0.7507    9.0845    0.2632 N   0  0  0  0  0  0  0  0  0  0  0  0
    2.4230    7.1332    0.2938 C   0  0  0  0  0  0  0  0  0  0  0  0
    3.1012    2.4591    2.3089 C   0  0  0  0  0  0  0  0  0  0  0  0
    3.2592    1.2197    1.8724 N   0  0  0  0  0  0  0  0  0  0  0  0
    2.1465   -1.7926   -0.6142 H   0  0  0  0  0  0  0  0  0  0  0  0
    1.0656   -0.4048   -0.3074 H   0  0  0  0  0  0  0  0  0  0  0  0
    1.9672   -1.1477    1.0421 H   0  0  0  0  0  0  0  0  0  0  0  0
    3.2468    0.3794   -1.3193 H   0  0  0  0  0  0  0  0  0  0  0  0
    4.1451   -0.4210   -0.0125 H   0  0  0  0  0  0  0  0  0  0  0  0
    2.7065    2.7760   -0.9449 H   0  0  0  0  0  0  0  0  0  0  0  0
    2.9425    5.2505   -0.7024 H   0  0  0  0  0  0  0  0  0  0  0  0
    0.2502    4.8533    0.5297 H   0  0  0  0  0  0  0  0  0  0  0  0
    0.6747    4.7369   -1.1798 H   0  0  0  0  0  0  0  0  0  0  0  0
   -0.9026    6.8196   -0.2967 H   0  0  0  0  0  0  0  0  0  0  0  0
    0.3491    7.1267   -1.5177 H   0  0  0  0  0  0  0  0  0  0  0  0
    0.6676    7.4307    1.5086 H   0  0  0  0  0  0  0  0  0  0  0  0
    1.1225    9.3701   -0.6452 H   0  0  0  0  0  0  0  0  0  0  0  0
    1.2508    9.6362    0.9607 H   0  0  0  0  0  0  0  0  0  0  0  0
    3.0749    7.3850    1.1422 H   0  0  0  0  0  0  0  0  0  0  0  0
    2.8503    7.5871   -0.6177 H   0  0  0  0  0  0  0  0  0  0  0  0
    3.1791    2.6973    3.3688 H   0  0  0  0  0  0  0  0  0  0  0  0
  1  2  1  0
  1 16  1  0
  1 17  1  0
  1 18  1  0
  2  3  1  0
  2 19  1  0
  2 20  1  0
  3  4  1  0
  3 15  1  0
  4  5  2  0
  4 21  1  0
  5  6  1  0
  5 14  1  0
  6  7  2  0
  6  8  1  0
  8  9  1  0
  8 13  1  0
  8 22  1  6
  9 10  1  0
  9 23  1  0
  9 24  1  0
 10 11  1  0
 10 25  1  0
 10 26  1  0
 11 12  1  0
 11 13  1  0
 11 27  1  1
 12 28  1  0
 12 29  1  0
 13 30  1  0
 13 31  1  0
 14 15  2  0
 14 32  1  0
M  END

