
     RDKit          3D

 78 80  0  0  0  0  0  0  0  0999 V2000
    5.7279    1.0803    3.8061 C   0  0  0  0  0  0  0  0  0  0  0  0
    5.1628    0.9295    2.4984 O   0  0  0  0  0  0  0  0  0  0  0  0
    5.7311    1.6341    1.5160 C   0  0  0  0  0  0  0  0  0  0  0  0
    6.6650    2.3855    1.6825 O   0  0  0  0  0  0  0  0  0  0  0  0
    5.0795    1.3742    0.1619 C   0  0  2  0  0  0  0  0  0  0  0  0
    3.9845    1.4441    0.2763 H   0  0  0  0  0  0  0  0  0  0  0  0
    5.4072   -0.0315   -0.4059 C   0  0  0  0  0  0  0  0  0  0  0  0
    4.7042   -1.2082    0.2749 C   0  0  0  0  0  0  0  0  0  0  0  0
    5.0058   -2.5463   -0.4057 C   0  0  0  0  0  0  0  0  0  0  0  0
    4.3042   -3.7291    0.2737 C   0  0  0  0  0  0  0  0  0  0  0  0
    4.5732   -5.0118   -0.3456 N   0  0  0  0  0  0  0  0  0  0  0  0
    5.6076   -5.8087    0.0548 C   0  0  0  0  0  0  0  0  0  0  0  0
    6.3261   -5.5752    1.0077 O   0  0  0  0  0  0  0  0  0  0  0  0
    5.6916   -6.8857   -0.7597 O   0  0  0  0  0  0  0  0  0  0  0  0
    6.6943   -7.9319   -0.5569 C   0  0  1  0  0  0  0  0  0  0  0  0
    6.4868   -8.6024    0.8057 C   0  0  0  0  0  0  0  0  0  0  0  0
    6.3982   -8.9131   -1.6932 C   0  0  0  0  0  0  0  0  0  0  0  0
    8.1033   -7.3461   -0.7007 C   0  0  0  0  0  0  0  0  0  0  0  0
    5.5290    2.4284   -0.7273 N   0  0  0  0  0  0  0  0  0  0  0  0
    4.8010    2.8007   -1.8172 C   0  0  0  0  0  0  0  0  0  0  0  0
    3.7517    2.2452   -2.1191 O   0  0  0  0  0  0  0  0  0  0  0  0
    5.3525    3.9411   -2.6366 C   0  0  0  0  0  0  0  0  0  0  0  0
    6.6807    4.3841   -2.5652 C   0  0  0  0  0  0  0  0  0  0  0  0
    7.1111    5.4400   -3.3743 C   0  0  0  0  0  0  0  0  0  0  0  0
    6.2222    6.0594   -4.2537 C   0  0  0  0  0  0  0  0  0  0  0  0
    4.8895    5.6215   -4.3455 C   0  0  0  0  0  0  0  0  0  0  0  0
    3.9237    6.2984   -5.2960 C   0  0  0  0  0  0  0  0  0  0  0  0
    4.4408    6.3094   -6.6520 N   0  0  0  0  0  0  0  0  0  0  0  0
    3.8629    6.9805   -7.7013 C   0  0  0  0  0  0  0  0  0  0  0  0
    2.7840    7.8802   -7.5279 C   0  0  0  0  0  0  0  0  0  0  0  0
    2.2484    8.5668   -8.6105 C   0  0  0  0  0  0  0  0  0  0  0  0
    2.7416    8.3942   -9.9233 C   0  0  0  0  0  0  0  0  0  0  0  0
    2.2345    9.0706  -11.0990 C   0  0  0  0  0  0  0  0  0  0  0  0
    1.2435    9.9833  -11.2718 C   0  0  0  0  0  0  0  0  0  0  0  0
    0.1588   10.7153  -10.0716 S   0  0  0  0  0  0  0  0  0  0  0  0
   -0.6782   11.7050  -11.3391 C   0  0  0  0  0  0  0  0  0  0  0  0
   -1.5814   12.4679  -11.1294 O   0  0  0  0  0  0  0  0  0  0  0  0
   -0.0994   11.4266  -12.5621 N   0  0  0  0  0  0  0  0  0  0  0  0
    0.9503   10.5079  -12.6345 C   0  0  0  0  0  0  0  0  0  0  0  0
    1.5108   10.2099  -13.6670 O   0  0  0  0  0  0  0  0  0  0  0  0
    3.8134    7.4807  -10.0847 C   0  0  0  0  0  0  0  0  0  0  0  0
    4.3598    6.7939   -9.0155 C   0  0  0  0  0  0  0  0  0  0  0  0
    4.4732    4.5582   -3.5399 C   0  0  0  0  0  0  0  0  0  0  0  0
    5.1383    0.4342    4.4670 H   0  0  0  0  0  0  0  0  0  0  0  0
    5.6639    2.1279    4.1352 H   0  0  0  0  0  0  0  0  0  0  0  0
    6.7840    0.7731    3.8109 H   0  0  0  0  0  0  0  0  0  0  0  0
    6.5024   -0.1727   -0.3952 H   0  0  0  0  0  0  0  0  0  0  0  0
    5.1011    0.0016   -1.4632 H   0  0  0  0  0  0  0  0  0  0  0  0
    3.6135   -1.0274    0.2667 H   0  0  0  0  0  0  0  0  0  0  0  0
    4.9925   -1.2645    1.3368 H   0  0  0  0  0  0  0  0  0  0  0  0
    6.0933   -2.7358   -0.3957 H   0  0  0  0  0  0  0  0  0  0  0  0
    4.7050   -2.5030   -1.4685 H   0  0  0  0  0  0  0  0  0  0  0  0
    3.2126   -3.5661    0.2842 H   0  0  0  0  0  0  0  0  0  0  0  0
    4.6332   -3.8012    1.3212 H   0  0  0  0  0  0  0  0  0  0  0  0
    4.0959   -5.2709   -1.2006 H   0  0  0  0  0  0  0  0  0  0  0  0
    5.4555   -8.9793    0.8933 H   0  0  0  0  0  0  0  0  0  0  0  0
    6.6762   -7.8962    1.6239 H   0  0  0  0  0  0  0  0  0  0  0  0
    7.1726   -9.4580    0.9084 H   0  0  0  0  0  0  0  0  0  0  0  0
    5.3706   -9.2991   -1.6133 H   0  0  0  0  0  0  0  0  0  0  0  0
    7.0950   -9.7641   -1.6551 H   0  0  0  0  0  0  0  0  0  0  0  0
    6.5051   -8.4178   -2.6703 H   0  0  0  0  0  0  0  0  0  0  0  0
    8.3133   -6.6261    0.1003 H   0  0  0  0  0  0  0  0  0  0  0  0
    8.2089   -6.8379   -1.6722 H   0  0  0  0  0  0  0  0  0  0  0  0
    8.8496   -8.1548   -0.6563 H   0  0  0  0  0  0  0  0  0  0  0  0
    6.3087    2.9845   -0.3909 H   0  0  0  0  0  0  0  0  0  0  0  0
    7.3989    3.8963   -1.9019 H   0  0  0  0  0  0  0  0  0  0  0  0
    8.1483    5.7796   -3.3179 H   0  0  0  0  0  0  0  0  0  0  0  0
    6.5624    6.8869   -4.8820 H   0  0  0  0  0  0  0  0  0  0  0  0
    3.7686    7.3425   -4.9692 H   0  0  0  0  0  0  0  0  0  0  0  0
    2.9355    5.8022   -5.2344 H   0  0  0  0  0  0  0  0  0  0  0  0
    5.0604    5.5445   -6.8931 H   0  0  0  0  0  0  0  0  0  0  0  0
    2.3560    8.0416   -6.5382 H   0  0  0  0  0  0  0  0  0  0  0  0
    1.4180    9.2483   -8.4206 H   0  0  0  0  0  0  0  0  0  0  0  0
    2.7314    8.8127  -12.0415 H   0  0  0  0  0  0  0  0  0  0  0  0
   -0.4389   11.8911  -13.3999 H   0  0  0  0  0  0  0  0  0  0  0  0
    4.2200    7.3157  -11.0862 H   0  0  0  0  0  0  0  0  0  0  0  0
    5.1899    6.1009   -9.1796 H   0  0  0  0  0  0  0  0  0  0  0  0
    3.4515    4.1756   -3.5952 H   0  0  0  0  0  0  0  0  0  0  0  0
  1  2  1  0
  1 44  1  0
  1 45  1  0
  1 46  1  0
  2  3  1  0
  3  4  2  0
  3  5  1  0
  5  6  1  1
  5  7  1  0
  5 19  1  0
  7  8  1  0
  7 47  1  0
  7 48  1  0
  8  9  1  0
  8 49  1  0
  8 50  1  0
  9 10  1  0
  9 51  1  0
  9 52  1  0
 10 11  1  0
 10 53  1  0
 10 54  1  0
 11 12  1  0
 11 55  1  0
 12 13  2  0
 12 14  1  0
 15 14  1  6
 15 16  1  0
 15 17  1  0
 15 18  1  0
 16 56  1  0
 16 57  1  0
 16 58  1  0
 17 59  1  0
 17 60  1  0
 17 61  1  0
 18 62  1  0
 18 63  1  0
 18 64  1  0
 19 20  1  0
 19 65  1  0
 20 21  2  0
 20 22  1  0
 22 23  2  0
 22 43  1  0
 23 24  1  0
 23 66  1  0
 24 25  2  0
 24 67  1  0
 25 26  1  0
 25 68  1  0
 26 27  1  0
 26 43  2  0
 27 28  1  0
 27 69  1  0
 27 70  1  0
 28 29  1  0
 28 71  1  0
 29 30  2  0
 29 42  1  0
 30 31  1  0
 30 72  1  0
 31 32  2  0
 31 73  1  0
 32 33  1  0
 32 41  1  0
 33 34  2  0
 33 74  1  0
 34 35  1  0
 34 39  1  0
 35 36  2  0
 36 37  1  0
 36 38  1  0
 38 39  1  0
 38 75  1  0
 39 40  2  0
 41 42  2  0
 41 76  1  0
 42 77  1  0
 43 78  1  0
M  CHG  2  35   1  37  -1
M  END

