
     RDKit          3D

 41 43  0  0  0  0  0  0  0  0999 V2000
    2.5337   -0.0170    0.9987 N   0  0  0  0  0  0  0  0  0  0  0  0
    2.0216   -0.2264   -0.3017 N   0  0  0  0  0  0  0  0  0  0  0  0
    2.4874   -1.2864   -1.0436 C   0  0  0  0  0  0  0  0  0  0  0  0
    2.7983   -1.2165   -2.4110 C   0  0  0  0  0  0  0  0  0  0  0  0
    2.9034    0.0799   -3.0957 C   0  0  0  0  0  0  0  0  0  0  0  0
    3.5299    0.1151   -4.3103 N   0  0  0  0  0  0  0  0  0  0  0  0
    2.4591    1.1262   -2.5998 O   0  0  0  0  0  0  0  0  0  0  0  0
    3.1164   -2.5721   -2.8107 C   0  0  0  0  0  0  0  0  0  0  0  0
    3.4314   -3.2796   -3.9943 C   0  0  0  0  0  0  0  0  0  0  0  0
    3.4793   -2.6758   -5.2460 N   0  0  0  0  0  0  0  0  0  0  0  0
    3.7311   -4.5808   -3.9469 N   0  0  0  0  0  0  0  0  0  0  0  0
    3.6734   -5.2054   -2.7667 C   0  0  0  0  0  0  0  0  0  0  0  0
    3.3091   -4.6819   -1.6009 N   0  0  0  0  0  0  0  0  0  0  0  0
    3.0296   -3.3833   -1.6525 C   0  0  0  0  0  0  0  0  0  0  0  0
    2.6305   -2.5845   -0.5803 N   0  0  0  0  0  0  0  0  0  0  0  0
    2.2553   -3.0258    0.7581 C   0  0  2  0  0  0  0  0  0  0  0  0
    2.2951   -2.1154    1.3722 H   0  0  0  0  0  0  0  0  0  0  0  0
    3.1760   -3.9719    1.2702 O   0  0  0  0  0  0  0  0  0  0  0  0
    2.4954   -5.0620    1.8995 C   0  0  2  0  0  0  0  0  0  0  0  0
    2.9584   -5.2193    2.8933 H   0  0  0  0  0  0  0  0  0  0  0  0
    2.6202   -6.3614    1.0953 C   0  0  0  0  0  0  0  0  0  0  0  0
    2.0117   -7.4390    1.7830 O   0  0  0  0  0  0  0  0  0  0  0  0
    1.0512   -4.5771    2.0987 C   0  0  1  0  0  0  0  0  0  0  0  0
    0.3413   -5.4172    2.1048 H   0  0  0  0  0  0  0  0  0  0  0  0
    0.8707   -3.8735    3.3138 O   0  0  0  0  0  0  0  0  0  0  0  0
    0.8468   -3.6510    0.8785 C   0  0  2  0  0  0  0  0  0  0  0  0
    0.1037   -2.8697    1.1210 H   0  0  0  0  0  0  0  0  0  0  0  0
    0.5165   -4.3366   -0.3041 O   0  0  0  0  0  0  0  0  0  0  0  0
    1.8344    0.4921    1.5377 H   0  0  0  0  0  0  0  0  0  0  0  0
    3.3824    0.5567    0.9663 H   0  0  0  0  0  0  0  0  0  0  0  0
    1.9795    0.5978   -0.9214 H   0  0  0  0  0  0  0  0  0  0  0  0
    4.0797   -0.6652   -4.6560 H   0  0  0  0  0  0  0  0  0  0  0  0
    3.6817    1.0357   -4.7057 H   0  0  0  0  0  0  0  0  0  0  0  0
    2.7434   -1.9999   -5.4317 H   0  0  0  0  0  0  0  0  0  0  0  0
    3.5866   -3.3631   -5.9880 H   0  0  0  0  0  0  0  0  0  0  0  0
    3.9381   -6.2695   -2.7674 H   0  0  0  0  0  0  0  0  0  0  0  0
    3.6889   -6.5401    0.8762 H   0  0  0  0  0  0  0  0  0  0  0  0
    2.1095   -6.2506    0.1318 H   0  0  0  0  0  0  0  0  0  0  0  0
    2.5247   -7.6237    2.5809 H   0  0  0  0  0  0  0  0  0  0  0  0
    1.6448   -3.3148    3.4673 H   0  0  0  0  0  0  0  0  0  0  0  0
   -0.3795   -4.6860   -0.2155 H   0  0  0  0  0  0  0  0  0  0  0  0
  1  2  1  0
  1 29  1  0
  1 30  1  0
  2  3  1  0
  2 31  1  0
  3  4  2  0
  3 15  1  0
  4  5  1  0
  4  8  1  0
  5  6  1  0
  5  7  2  0
  6 32  1  0
  6 33  1  0
  8  9  2  0
  8 14  1  0
  9 10  1  0
  9 11  1  0
 10 34  1  0
 10 35  1  0
 11 12  2  0
 12 13  1  0
 12 36  1  0
 13 14  2  0
 14 15  1  0
 15 16  1  0
 16 17  1  1
 16 18  1  0
 16 26  1  0
 18 19  1  0
 19 20  1  1
 19 21  1  0
 19 23  1  0
 21 22  1  0
 21 37  1  0
 21 38  1  0
 22 39  1  0
 23 24  1  6
 23 25  1  0
 23 26  1  0
 25 40  1  0
 26 27  1  1
 26 28  1  0
 28 41  1  0
M  END

