
     RDKit          3D

 62 64  0  0  0  0  0  0  0  0999 V2000
    5.2022   -2.8194    1.3010 C   0  0  0  0  0  0  0  0  0  0  0  0
    6.0305   -1.6579    1.3371 O   0  0  0  0  0  0  0  0  0  0  0  0
    5.4050   -0.4728    1.1652 C   0  0  0  0  0  0  0  0  0  0  0  0
    4.2110   -0.3856    1.0007 O   0  0  0  0  0  0  0  0  0  0  0  0
    6.3836    0.6813    1.1967 C   0  0  0  0  0  0  0  0  0  0  0  0
    6.7138    1.2782   -0.2106 C   0  0  1  0  0  0  0  0  0  0  0  0
    7.1151    0.1298   -1.1679 C   0  0  0  0  0  0  0  0  0  0  0  0
    5.4455    1.9659   -0.7636 C   0  0  0  0  0  0  0  0  0  0  0  0
    5.7090    2.7000   -2.0738 C   0  0  0  0  0  0  0  0  0  0  0  0
    6.7479    3.7883   -1.8339 C   0  0  0  0  0  0  0  0  0  0  0  0
    8.1008    3.3346   -1.2250 C   0  0  2  0  0  0  0  0  0  0  0  0
    8.7596    4.6617   -0.7490 C   0  0  0  0  0  0  0  0  0  0  0  0
    9.0584    2.6841   -2.2351 C   0  0  0  0  0  0  0  0  0  0  0  0
    8.8716    2.7030   -3.6229 C   0  0  0  0  0  0  0  0  0  0  0  0
    9.8086    2.1363   -4.4934 C   0  0  0  0  0  0  0  0  0  0  0  0
   10.9712    1.5242   -4.0107 C   0  0  0  0  0  0  0  0  0  0  0  0
   11.9862    0.9025   -4.9617 C   0  0  2  0  0  0  0  0  0  0  0  0
   12.1203   -0.6159   -4.7517 C   0  0  0  0  0  0  0  0  0  0  0  0
   13.3556    1.5992   -4.8809 C   0  0  0  0  0  0  0  0  0  0  0  0
   11.1572    1.5041   -2.6192 C   0  0  0  0  0  0  0  0  0  0  0  0
   10.2340    2.0750   -1.7373 C   0  0  0  0  0  0  0  0  0  0  0  0
   10.4641    2.0469   -0.2443 C   0  0  0  0  0  0  0  0  0  0  0  0
    9.1709    1.6467    0.4761 C   0  0  1  0  0  0  0  0  0  0  0  0
    9.3281    1.6435    1.9215 O   0  0  0  0  0  0  0  0  0  0  0  0
    9.5624    2.7677    2.6238 C   0  0  0  0  0  0  0  0  0  0  0  0
    9.6660    2.4584    4.0995 C   0  0  0  0  0  0  0  0  0  0  0  0
    9.6671    3.8688    2.1407 O   0  0  0  0  0  0  0  0  0  0  0  0
    7.8625    2.3518   -0.0041 C   0  0  2  0  0  0  0  0  0  0  0  0
    5.8684   -3.6766    1.4593 H   0  0  0  0  0  0  0  0  0  0  0  0
    4.6911   -2.9078    0.3300 H   0  0  0  0  0  0  0  0  0  0  0  0
    4.4365   -2.7796    2.0906 H   0  0  0  0  0  0  0  0  0  0  0  0
    7.2999    0.3398    1.6940 H   0  0  0  0  0  0  0  0  0  0  0  0
    5.9323    1.4715    1.8172 H   0  0  0  0  0  0  0  0  0  0  0  0
    7.5634    0.4994   -2.0992 H   0  0  0  0  0  0  0  0  0  0  0  0
    6.2247   -0.4592   -1.4403 H   0  0  0  0  0  0  0  0  0  0  0  0
    7.8270   -0.5731   -0.7112 H   0  0  0  0  0  0  0  0  0  0  0  0
    5.0795    2.6946   -0.0174 H   0  0  0  0  0  0  0  0  0  0  0  0
    4.6448    1.2199   -0.8724 H   0  0  0  0  0  0  0  0  0  0  0  0
    4.7757    3.1571   -2.4435 H   0  0  0  0  0  0  0  0  0  0  0  0
    6.0366    1.9967   -2.8569 H   0  0  0  0  0  0  0  0  0  0  0  0
    6.3072    4.5099   -1.1243 H   0  0  0  0  0  0  0  0  0  0  0  0
    6.9423    4.3695   -2.7489 H   0  0  0  0  0  0  0  0  0  0  0  0
    8.8029    5.3602   -1.5999 H   0  0  0  0  0  0  0  0  0  0  0  0
    9.7737    4.5470   -0.3576 H   0  0  0  0  0  0  0  0  0  0  0  0
    8.1618    5.1271    0.0493 H   0  0  0  0  0  0  0  0  0  0  0  0
    7.9808    3.1651   -4.0507 H   0  0  0  0  0  0  0  0  0  0  0  0
    9.6254    2.1701   -5.5716 H   0  0  0  0  0  0  0  0  0  0  0  0
   11.5984    1.0589   -5.9835 H   0  0  0  0  0  0  0  0  0  0  0  0
   12.5199   -0.8500   -3.7511 H   0  0  0  0  0  0  0  0  0  0  0  0
   12.8077   -1.0545   -5.4937 H   0  0  0  0  0  0  0  0  0  0  0  0
   11.1465   -1.1210   -4.8487 H   0  0  0  0  0  0  0  0  0  0  0  0
   13.8143    1.4708   -3.8865 H   0  0  0  0  0  0  0  0  0  0  0  0
   13.2663    2.6805   -5.0696 H   0  0  0  0  0  0  0  0  0  0  0  0
   14.0529    1.1792   -5.6243 H   0  0  0  0  0  0  0  0  0  0  0  0
   12.0507    1.0314   -2.1997 H   0  0  0  0  0  0  0  0  0  0  0  0
   10.8114    3.0247    0.1160 H   0  0  0  0  0  0  0  0  0  0  0  0
   11.2494    1.3179    0.0090 H   0  0  0  0  0  0  0  0  0  0  0  0
    9.0556    0.5751    0.2864 H   0  0  0  0  0  0  0  0  0  0  0  0
   10.4110    1.6673    4.2715 H   0  0  0  0  0  0  0  0  0  0  0  0
    8.6997    2.0798    4.4683 H   0  0  0  0  0  0  0  0  0  0  0  0
    9.9409    3.3680    4.6467 H   0  0  0  0  0  0  0  0  0  0  0  0
    7.5179    2.9969    0.8185 H   0  0  0  0  0  0  0  0  0  0  0  0
  1  2  1  0
  1 29  1  0
  1 30  1  0
  1 31  1  0
  2  3  1  0
  3  4  2  0
  3  5  1  0
  6  5  1  1
  5 32  1  0
  5 33  1  0
  6  7  1  0
  6  8  1  0
  6 28  1  0
  7 34  1  0
  7 35  1  0
  7 36  1  0
  8  9  1  0
  8 37  1  0
  8 38  1  0
  9 10  1  0
  9 39  1  0
  9 40  1  0
 10 11  1  0
 10 41  1  0
 10 42  1  0
 11 12  1  1
 11 13  1  0
 11 28  1  0
 12 43  1  0
 12 44  1  0
 12 45  1  0
 13 14  2  0
 13 21  1  0
 14 15  1  0
 14 46  1  0
 15 16  2  0
 15 47  1  0
 16 17  1  0
 16 20  1  0
 17 18  1  0
 17 19  1  0
 17 48  1  6
 18 49  1  0
 18 50  1  0
 18 51  1  0
 19 52  1  0
 19 53  1  0
 19 54  1  0
 20 21  2  0
 20 55  1  0
 21 22  1  0
 22 23  1  0
 22 56  1  0
 22 57  1  0
 23 24  1  0
 23 28  1  0
 23 58  1  6
 24 25  1  0
 25 26  1  0
 25 27  2  0
 26 59  1  0
 26 60  1  0
 26 61  1  0
 28 62  1  1
M  END

