
     RDKit          3D

 68 71  0  0  0  0  0  0  0  0999 V2000
    5.4475   -5.8238    1.9214 C   0  0  0  0  0  0  0  0  0  0  0  0
    5.4365   -5.1025    0.6885 O   0  0  0  0  0  0  0  0  0  0  0  0
    5.6287   -3.7774    0.7639 C   0  0  0  0  0  0  0  0  0  0  0  0
    5.7741   -3.1912    1.8120 O   0  0  0  0  0  0  0  0  0  0  0  0
    5.6621   -3.0939   -0.5711 C   0  0  0  0  0  0  0  0  0  0  0  0
    5.9074   -1.7093   -0.5471 C   0  0  0  0  0  0  0  0  0  0  0  0
    5.9958   -0.9634   -1.7198 C   0  0  0  0  0  0  0  0  0  0  0  0
    5.8430   -1.5987   -2.9561 C   0  0  0  0  0  0  0  0  0  0  0  0
    5.5953   -2.9706   -3.0071 C   0  0  0  0  0  0  0  0  0  0  0  0
    5.5005   -3.7105   -1.8277 C   0  0  0  0  0  0  0  0  0  0  0  0
    5.3267   -5.0810   -1.9632 O   0  0  0  0  0  0  0  0  0  0  0  0
    4.1174   -5.6377   -1.7947 C   0  0  0  0  0  0  0  0  0  0  0  0
    3.0591   -4.8739   -1.6507 N   0  0  0  0  0  0  0  0  0  0  0  0
    1.8619   -5.4829   -1.5134 C   0  0  0  0  0  0  0  0  0  0  0  0
    0.8121   -4.6225   -1.3599 N   0  0  0  0  0  0  0  0  0  0  0  0
   -0.5531   -4.8422   -1.1947 C   0  0  0  0  0  0  0  0  0  0  0  0
   -1.1779   -6.0924   -1.1577 C   0  0  0  0  0  0  0  0  0  0  0  0
   -2.5577   -6.1631   -0.9866 C   0  0  0  0  0  0  0  0  0  0  0  0
   -3.0946   -7.4101   -0.9598 F   0  0  0  0  0  0  0  0  0  0  0  0
   -3.3719   -5.0377   -0.8462 C   0  0  0  0  0  0  0  0  0  0  0  0
   -4.8699   -5.0003   -0.6523 C   0  0  0  0  0  0  0  0  0  0  0  0
   -5.4466   -3.9272   -0.5109 O   0  0  0  0  0  0  0  0  0  0  0  0
   -5.5337   -6.1879   -0.6496 N   0  0  0  0  0  0  0  0  0  0  0  0
   -6.9838   -6.2591   -0.4721 C   0  0  1  0  0  0  0  0  0  0  0  0
   -7.5324   -7.5438   -1.1179 C   0  0  0  0  0  0  0  0  0  0  0  0
   -7.1742   -8.7977   -0.2933 C   0  0  0  0  0  0  0  0  0  0  0  0
   -7.5557   -8.7127    1.1113 N   0  0  0  0  0  0  0  0  0  0  0  0
   -8.9567   -8.9685    1.3837 C   0  0  0  0  0  0  0  0  0  0  0  0
   -7.0116   -7.5111    1.7410 C   0  0  0  0  0  0  0  0  0  0  0  0
   -7.3872   -6.2070    1.0181 C   0  0  0  0  0  0  0  0  0  0  0  0
   -2.7264   -3.7845   -0.8839 C   0  0  0  0  0  0  0  0  0  0  0  0
   -1.3550   -3.6721   -1.0542 C   0  0  0  0  0  0  0  0  0  0  0  0
   -0.6667   -2.4965   -1.1018 O   0  0  0  0  0  0  0  0  0  0  0  0
   -1.3721   -1.2793   -0.9628 C   0  0  0  0  0  0  0  0  0  0  0  0
    1.6611   -6.8067   -1.5217 N   0  0  0  0  0  0  0  0  0  0  0  0
    2.7483   -7.5652   -1.6664 C   0  0  0  0  0  0  0  0  0  0  0  0
    4.0346   -7.0525   -1.8082 C   0  0  0  0  0  0  0  0  0  0  0  0
    5.2416   -7.9361   -1.9291 C   0  0  1  0  0  0  0  0  0  0  0  0
    6.0776   -7.7968   -0.8806 F   0  0  0  0  0  0  0  0  0  0  0  0
    4.8845   -9.2346   -1.9757 F   0  0  0  0  0  0  0  0  0  0  0  0
    5.9559   -7.6797   -3.0364 F   0  0  0  0  0  0  0  0  0  0  0  0
    4.5891   -5.5371    2.5481 H   0  0  0  0  0  0  0  0  0  0  0  0
    6.3718   -5.6209    2.4816 H   0  0  0  0  0  0  0  0  0  0  0  0
    5.3896   -6.8833    1.6464 H   0  0  0  0  0  0  0  0  0  0  0  0
    6.0333   -1.2421    0.4311 H   0  0  0  0  0  0  0  0  0  0  0  0
    6.1902    0.1103   -1.6710 H   0  0  0  0  0  0  0  0  0  0  0  0
    5.9171   -1.0276   -3.8847 H   0  0  0  0  0  0  0  0  0  0  0  0
    5.4754   -3.4918   -3.9585 H   0  0  0  0  0  0  0  0  0  0  0  0
    1.0782   -3.6416   -1.3640 H   0  0  0  0  0  0  0  0  0  0  0  0
   -0.5912   -7.0013   -1.2608 H   0  0  0  0  0  0  0  0  0  0  0  0
   -5.0001   -7.0409   -0.7562 H   0  0  0  0  0  0  0  0  0  0  0  0
   -7.3983   -5.3734   -0.9764 H   0  0  0  0  0  0  0  0  0  0  0  0
   -7.1571   -7.6402   -2.1510 H   0  0  0  0  0  0  0  0  0  0  0  0
   -8.6289   -7.4514   -1.1875 H   0  0  0  0  0  0  0  0  0  0  0  0
   -6.0818   -8.9738   -0.3412 H   0  0  0  0  0  0  0  0  0  0  0  0
   -7.6415   -9.6909   -0.7391 H   0  0  0  0  0  0  0  0  0  0  0  0
   -9.2408   -9.9521    0.9748 H   0  0  0  0  0  0  0  0  0  0  0  0
   -9.6719   -8.2220    0.9704 H   0  0  0  0  0  0  0  0  0  0  0  0
   -9.1205   -9.0053    2.4732 H   0  0  0  0  0  0  0  0  0  0  0  0
   -5.9097   -7.6034    1.7598 H   0  0  0  0  0  0  0  0  0  0  0  0
   -7.3392   -7.4807    2.7929 H   0  0  0  0  0  0  0  0  0  0  0  0
   -6.9078   -5.3375    1.4946 H   0  0  0  0  0  0  0  0  0  0  0  0
   -8.4768   -6.0401    1.0789 H   0  0  0  0  0  0  0  0  0  0  0  0
   -3.3707   -2.9133   -0.7699 H   0  0  0  0  0  0  0  0  0  0  0  0
   -0.6259   -0.4767   -1.0284 H   0  0  0  0  0  0  0  0  0  0  0  0
   -1.8859   -1.2190    0.0123 H   0  0  0  0  0  0  0  0  0  0  0  0
   -2.1171   -1.1494   -1.7669 H   0  0  0  0  0  0  0  0  0  0  0  0
    2.5950   -8.6485   -1.6687 H   0  0  0  0  0  0  0  0  0  0  0  0
  1  2  1  0
  1 42  1  0
  1 43  1  0
  1 44  1  0
  2  3  1  0
  3  4  2  0
  3  5  1  0
  5  6  2  0
  5 10  1  0
  6  7  1  0
  6 45  1  0
  7  8  2  0
  7 46  1  0
  8  9  1  0
  8 47  1  0
  9 10  2  0
  9 48  1  0
 10 11  1  0
 11 12  1  0
 12 13  2  0
 12 37  1  0
 13 14  1  0
 14 15  1  0
 14 35  2  0
 15 16  1  0
 15 49  1  0
 16 17  2  0
 16 32  1  0
 17 18  1  0
 17 50  1  0
 18 19  1  0
 18 20  2  0
 20 21  1  0
 20 31  1  0
 21 22  2  0
 21 23  1  0
 23 24  1  0
 23 51  1  0
 24 25  1  0
 24 30  1  0
 24 52  1  6
 25 26  1  0
 25 53  1  0
 25 54  1  0
 26 27  1  0
 26 55  1  0
 26 56  1  0
 27 28  1  0
 27 29  1  0
 28 57  1  0
 28 58  1  0
 28 59  1  0
 29 30  1  0
 29 60  1  0
 29 61  1  0
 30 62  1  0
 30 63  1  0
 31 32  2  0
 31 64  1  0
 32 33  1  0
 33 34  1  0
 34 65  1  0
 34 66  1  0
 34 67  1  0
 35 36  1  0
 36 37  2  0
 36 68  1  0
 37 38  1  0
 38 39  1  1
 38 40  1  0
 38 41  1  0
M  END

