
     RDKit          3D

 35 39  0  0  0  0  0  0  0  0999 V2000
    5.0989    0.5584    3.4606 O   0  0  0  0  0  0  0  0  0  0  0  0
    4.0682    1.4587    3.4260 C   0  0  0  0  0  0  0  0  0  0  0  0
    3.5218    1.7402    4.4520 O   0  0  0  0  0  0  0  0  0  0  0  0
    3.7050    2.0213    2.0694 C   0  0  0  0  0  0  0  0  0  0  0  0
    3.0983    3.2825    1.9192 C   0  0  0  0  0  0  0  0  0  0  0  0
    2.7614    4.3017    3.2710 Cl  0  0  0  0  0  0  0  0  0  0  0  0
    2.7769    3.7533    0.6259 C   0  0  0  0  0  0  0  0  0  0  0  0
    2.0229    5.2937    0.4264 Cl  0  0  0  0  0  0  0  0  0  0  0  0
    3.0817    2.9781   -0.5090 C   0  0  0  0  0  0  0  0  0  0  0  0
    2.7220    3.5749   -2.0870 Cl  0  0  0  0  0  0  0  0  0  0  0  0
    3.6964    1.7198   -0.3557 C   0  0  0  0  0  0  0  0  0  0  0  0
    4.1686    0.8147   -1.7613 Cl  0  0  0  0  0  0  0  0  0  0  0  0
    3.9769    1.2298    0.9259 C   0  0  0  0  0  0  0  0  0  0  0  0
    4.6316   -0.0595    1.2355 C   0  0  0  0  0  0  0  0  0  0  0  0
    5.7672    0.1345    2.2127 C   0  0  1  0  0  0  0  0  0  0  0  0
    6.7431    1.2288    1.8275 C   0  0  0  0  0  0  0  0  0  0  0  0
    8.0399    1.1822    2.1585 C   0  0  0  0  0  0  0  0  0  0  0  0
    9.3433    2.7955    1.7572 I   0  0  0  0  0  0  0  0  0  0  0  0
    8.6540   -0.0064    2.8419 C   0  0  0  0  0  0  0  0  0  0  0  0
    9.7898    0.0026    3.2577 O   0  0  0  0  0  0  0  0  0  0  0  0
    7.7778   -1.2093    2.8975 C   0  0  0  0  0  0  0  0  0  0  0  0
    8.7020   -2.9998    3.5017 I   0  0  0  0  0  0  0  0  0  0  0  0
    6.4764   -1.1629    2.5284 C   0  0  0  0  0  0  0  0  0  0  0  0
    5.7479   -2.3023    2.5077 O   0  0  0  0  0  0  0  0  0  0  0  0
    4.6467   -2.4578    1.7281 C   0  0  0  0  0  0  0  0  0  0  0  0
    4.0723   -3.6922    1.6469 C   0  0  0  0  0  0  0  0  0  0  0  0
    4.8405   -5.3469    2.6848 I   0  0  0  0  0  0  0  0  0  0  0  0
    2.8593   -3.9398    0.8232 C   0  0  0  0  0  0  0  0  0  0  0  0
    2.3592   -5.0386    0.7026 O   0  0  0  0  0  0  0  0  0  0  0  0
    2.2882   -2.7236    0.1623 C   0  0  0  0  0  0  0  0  0  0  0  0
    0.5243   -3.0131   -0.9526 I   0  0  0  0  0  0  0  0  0  0  0  0
    2.8590   -1.5056    0.2757 C   0  0  0  0  0  0  0  0  0  0  0  0
    4.0807   -1.2973    1.0422 C   0  0  0  0  0  0  0  0  0  0  0  0
    6.3263    2.1132    1.3457 H   0  0  0  0  0  0  0  0  0  0  0  0
    2.4072   -0.6431   -0.2095 H   0  0  0  0  0  0  0  0  0  0  0  0
  1  2  1  0
 15  1  1  1
  2  3  2  0
  2  4  1  0
  4  5  1  0
  4 13  2  0
  5  6  1  0
  5  7  2  0
  7  8  1  0
  7  9  1  0
  9 10  1  0
  9 11  2  0
 11 12  1  0
 11 13  1  0
 13 14  1  0
 14 15  1  0
 14 33  2  0
 15 16  1  0
 15 23  1  0
 16 17  2  0
 16 34  1  0
 17 18  1  0
 17 19  1  0
 19 20  2  0
 19 21  1  0
 21 22  1  0
 21 23  2  0
 23 24  1  0
 24 25  1  0
 25 26  2  0
 25 33  1  0
 26 27  1  0
 26 28  1  0
 28 29  2  0
 28 30  1  0
 30 31  1  0
 30 32  2  0
 32 33  1  0
 32 35  1  0
M  END

