
     RDKit          3D

 73 78  0  0  0  0  0  0  0  0999 V2000
   12.4162   -1.8533    1.4612 C   0  0  0  0  0  0  0  0  0  0  0  0
   11.7571   -2.6456    0.6110 C   0  0  0  0  0  0  0  0  0  0  0  0
   10.7217   -2.0825   -0.3162 C   0  0  0  0  0  0  0  0  0  0  0  0
   10.4297   -0.8955   -0.3447 O   0  0  0  0  0  0  0  0  0  0  0  0
   10.1275   -3.0045   -1.1345 N   0  0  0  0  0  0  0  0  0  0  0  0
    9.1117   -2.6292   -2.1172 C   0  0  1  0  0  0  0  0  0  0  0  0
    9.0616   -3.6595   -3.2584 C   0  0  0  0  0  0  0  0  0  0  0  0
    8.4000   -4.9814   -2.8192 C   0  0  0  0  0  0  0  0  0  0  0  0
    7.0846   -4.8073   -2.2066 N   0  0  0  0  0  0  0  0  0  0  0  0
    5.9883   -4.6203   -3.1475 C   0  0  0  0  0  0  0  0  0  0  0  0
    5.6427   -5.8794   -3.9246 C   0  0  0  0  0  0  0  0  0  0  0  0
    5.6314   -7.1328   -3.2951 C   0  0  0  0  0  0  0  0  0  0  0  0
    5.2556   -8.2823   -3.9887 C   0  0  0  0  0  0  0  0  0  0  0  0
    4.8963   -8.2076   -5.3443 C   0  0  0  0  0  0  0  0  0  0  0  0
    4.5482   -9.3914   -6.0476 N   0  0  0  0  0  0  0  0  0  0  0  0
    5.1544  -10.6382   -5.8615 C   0  0  0  0  0  0  0  0  0  0  0  0
    4.5672  -11.5812   -6.6593 C   0  0  0  0  0  0  0  0  0  0  0  0
    3.5204  -10.9144   -7.3904 C   0  0  0  0  0  0  0  0  0  0  0  0
    2.5495  -11.2257   -8.3712 C   0  0  0  0  0  0  0  0  0  0  0  0
    2.3532  -12.5794   -8.9276 C   0  0  0  0  0  0  0  0  0  0  0  0
    2.6342  -13.7689   -8.2332 C   0  0  0  0  0  0  0  0  0  0  0  0
    2.4372  -14.9774   -8.7451 N   0  0  0  0  0  0  0  0  0  0  0  0
    1.9436  -15.0271   -9.9968 C   0  0  0  0  0  0  0  0  0  0  0  0
    1.7605  -16.2533  -10.5435 N   0  0  0  0  0  0  0  0  0  0  0  0
    1.6122  -13.9614  -10.7549 N   0  0  0  0  0  0  0  0  0  0  0  0
    1.8128  -12.7689  -10.2156 C   0  0  0  0  0  0  0  0  0  0  0  0
    1.7625  -10.2590   -8.8543 N   0  0  0  0  0  0  0  0  0  0  0  0
    1.8741   -8.9990   -8.3827 C   0  0  0  0  0  0  0  0  0  0  0  0
    0.9955   -8.0630   -8.8810 N   0  0  0  0  0  0  0  0  0  0  0  0
    0.1016   -8.3512   -9.9936 C   0  0  0  0  0  0  0  0  0  0  0  0
   -1.2457   -7.6689   -9.7658 C   0  0  0  0  0  0  0  0  0  0  0  0
   -1.0960   -6.2851   -9.5189 O   0  0  0  0  0  0  0  0  0  0  0  0
   -0.2894   -6.0473   -8.3834 C   0  0  0  0  0  0  0  0  0  0  0  0
    1.1047   -6.6515   -8.5425 C   0  0  0  0  0  0  0  0  0  0  0  0
    2.7562   -8.5900   -7.4561 N   0  0  0  0  0  0  0  0  0  0  0  0
    3.5488   -9.5474   -6.9933 C   0  0  0  0  0  0  0  0  0  0  0  0
    4.9105   -6.9619   -5.9875 C   0  0  0  0  0  0  0  0  0  0  0  0
    5.2783   -5.8179   -5.2765 C   0  0  0  0  0  0  0  0  0  0  0  0
    7.1337   -3.8556   -1.0967 C   0  0  0  0  0  0  0  0  0  0  0  0
    7.7132   -2.4853   -1.4782 C   0  0  0  0  0  0  0  0  0  0  0  0
   13.1748   -2.2429    2.1444 H   0  0  0  0  0  0  0  0  0  0  0  0
   12.1956   -0.7819    1.4785 H   0  0  0  0  0  0  0  0  0  0  0  0
   11.9600   -3.7221    0.5742 H   0  0  0  0  0  0  0  0  0  0  0  0
   10.4088   -3.9742   -1.0602 H   0  0  0  0  0  0  0  0  0  0  0  0
    9.4171   -1.6459   -2.5068 H   0  0  0  0  0  0  0  0  0  0  0  0
   10.0769   -3.8488   -3.6468 H   0  0  0  0  0  0  0  0  0  0  0  0
    8.4867   -3.2205   -4.0903 H   0  0  0  0  0  0  0  0  0  0  0  0
    9.0496   -5.5019   -2.0888 H   0  0  0  0  0  0  0  0  0  0  0  0
    8.3090   -5.6651   -3.6772 H   0  0  0  0  0  0  0  0  0  0  0  0
    6.1502   -3.7939   -3.8739 H   0  0  0  0  0  0  0  0  0  0  0  0
    5.1038   -4.3225   -2.5566 H   0  0  0  0  0  0  0  0  0  0  0  0
    5.9212   -7.1957   -2.2439 H   0  0  0  0  0  0  0  0  0  0  0  0
    5.2236   -9.2433   -3.4711 H   0  0  0  0  0  0  0  0  0  0  0  0
    5.9996  -10.7320   -5.1847 H   0  0  0  0  0  0  0  0  0  0  0  0
    4.8801  -12.6191   -6.7317 H   0  0  0  0  0  0  0  0  0  0  0  0
    3.0039  -13.7371   -7.2029 H   0  0  0  0  0  0  0  0  0  0  0  0
    1.9649  -17.0762   -9.9950 H   0  0  0  0  0  0  0  0  0  0  0  0
    1.3618  -16.3275  -11.4685 H   0  0  0  0  0  0  0  0  0  0  0  0
    1.5472  -11.8933  -10.8168 H   0  0  0  0  0  0  0  0  0  0  0  0
   -0.0198   -9.4372  -10.0787 H   0  0  0  0  0  0  0  0  0  0  0  0
    0.5412   -7.9784  -10.9415 H   0  0  0  0  0  0  0  0  0  0  0  0
   -1.7642   -8.1559   -8.9136 H   0  0  0  0  0  0  0  0  0  0  0  0
   -1.8800   -7.7701  -10.6598 H   0  0  0  0  0  0  0  0  0  0  0  0
   -0.7701   -6.4699   -7.4764 H   0  0  0  0  0  0  0  0  0  0  0  0
   -0.2196   -4.9555   -8.2602 H   0  0  0  0  0  0  0  0  0  0  0  0
    1.6802   -6.5506   -7.6145 H   0  0  0  0  0  0  0  0  0  0  0  0
    1.6469   -6.1084   -9.3438 H   0  0  0  0  0  0  0  0  0  0  0  0
    4.6361   -6.8959   -7.0392 H   0  0  0  0  0  0  0  0  0  0  0  0
    5.2900   -4.8537   -5.7938 H   0  0  0  0  0  0  0  0  0  0  0  0
    7.7579   -4.2972   -0.2979 H   0  0  0  0  0  0  0  0  0  0  0  0
    6.1214   -3.7473   -0.6755 H   0  0  0  0  0  0  0  0  0  0  0  0
    7.7822   -1.8249   -0.5999 H   0  0  0  0  0  0  0  0  0  0  0  0
    7.0482   -1.9821   -2.2018 H   0  0  0  0  0  0  0  0  0  0  0  0
  1  2  2  0
  1 41  1  0
  1 42  1  0
  2  3  1  0
  2 43  1  0
  3  4  2  0
  3  5  1  0
  5  6  1  0
  5 44  1  0
  6  7  1  0
  6 40  1  0
  6 45  1  6
  7  8  1  0
  7 46  1  0
  7 47  1  0
  8  9  1  0
  8 48  1  0
  8 49  1  0
  9 10  1  0
  9 39  1  0
 10 11  1  0
 10 50  1  0
 10 51  1  0
 11 12  2  0
 11 38  1  0
 12 13  1  0
 12 52  1  0
 13 14  2  0
 13 53  1  0
 14 15  1  0
 14 37  1  0
 15 16  1  0
 15 36  1  0
 16 17  2  0
 16 54  1  0
 17 18  1  0
 17 55  1  0
 18 19  1  0
 18 36  2  0
 19 20  1  0
 19 27  2  0
 20 21  2  0
 20 26  1  0
 21 22  1  0
 21 56  1  0
 22 23  2  0
 23 24  1  0
 23 25  1  0
 24 57  1  0
 24 58  1  0
 25 26  2  0
 26 59  1  0
 27 28  1  0
 28 29  1  0
 28 35  2  0
 29 30  1  0
 29 34  1  0
 30 31  1  0
 30 60  1  0
 30 61  1  0
 31 32  1  0
 31 62  1  0
 31 63  1  0
 32 33  1  0
 33 34  1  0
 33 64  1  0
 33 65  1  0
 34 66  1  0
 34 67  1  0
 35 36  1  0
 37 38  2  0
 37 68  1  0
 38 69  1  0
 39 40  1  0
 39 70  1  0
 39 71  1  0
 40 72  1  0
 40 73  1  0
M  END

