
     RDKit          3D

 24 24  0  0  0  0  0  0  0  0999 V2000
    1.1606    0.2516   -0.4157 N   0  0  0  0  0  0  0  0  0  0  0  0
    2.2762    0.1474   -0.2104 N   0  0  0  0  0  0  0  0  0  0  0  0
    3.4820   -0.0454   -0.1011 N   0  0  0  0  0  0  0  0  0  0  0  0
    4.1944    0.6783    0.9813 C   0  0  1  0  0  0  0  0  0  0  0  0
    3.7802    0.1148    2.3605 C   0  0  0  0  0  0  0  0  0  0  0  0
    4.3622    0.8688    3.5565 C   0  0  0  0  0  0  0  0  0  0  0  0
    3.9138    0.2932    4.9011 C   0  0  0  0  0  0  0  0  0  0  0  0
    4.3956    1.0321    6.0018 O   0  0  0  0  0  0  0  0  0  0  0  0
    5.6726    0.5650    0.7010 C   0  0  0  0  0  0  0  0  0  0  0  0
    6.3747   -0.5382    0.2775 C   0  0  0  0  0  0  0  0  0  0  0  0
    7.7741   -0.2908    0.1353 C   0  0  0  0  0  0  0  0  0  0  0  0
    8.1193    0.9988    0.4510 C   0  0  0  0  0  0  0  0  0  0  0  0
    6.7358    1.9271    0.9162 S   0  0  0  0  0  0  0  0  0  0  0  0
    3.9102    1.7470    0.9463 H   0  0  0  0  0  0  0  0  0  0  0  0
    4.0725   -0.9484    2.3950 H   0  0  0  0  0  0  0  0  0  0  0  0
    2.6770    0.1418    2.4190 H   0  0  0  0  0  0  0  0  0  0  0  0
    4.0683    1.9327    3.5223 H   0  0  0  0  0  0  0  0  0  0  0  0
    5.4657    0.8501    3.5099 H   0  0  0  0  0  0  0  0  0  0  0  0
    4.2057   -0.7764    4.9637 H   0  0  0  0  0  0  0  0  0  0  0  0
    2.8134    0.3211    4.9723 H   0  0  0  0  0  0  0  0  0  0  0  0
    5.3607    0.9851    5.9966 H   0  0  0  0  0  0  0  0  0  0  0  0
    5.8935   -1.4911    0.0532 H   0  0  0  0  0  0  0  0  0  0  0  0
    8.4951   -1.0408   -0.1942 H   0  0  0  0  0  0  0  0  0  0  0  0
    9.1057    1.4599    0.4322 H   0  0  0  0  0  0  0  0  0  0  0  0
  1  2  1  0
  2  3  3  0
  3  4  1  0
  4  5  1  0
  4  9  1  0
  4 14  1  1
  5  6  1  0
  5 15  1  0
  5 16  1  0
  6  7  1  0
  6 17  1  0
  6 18  1  0
  7  8  1  0
  7 19  1  0
  7 20  1  0
  8 21  1  0
  9 10  2  0
  9 13  1  0
 10 11  1  0
 10 22  1  0
 11 12  2  0
 11 23  1  0
 12 13  1  0
 12 24  1  0
M  CHG  3   1  -2   2   1   3   1
M  END

