
     RDKit          3D

 29 30  0  0  0  0  0  0  0  0999 V2000
    2.5008    0.5115   -0.9063 O   0  0  0  0  0  0  0  0  0  0  0  0
    2.1361   -0.6050   -0.6449 C   0  0  0  0  0  0  0  0  0  0  0  0
    1.1974   -1.2123   -1.4064 O   0  0  0  0  0  0  0  0  0  0  0  0
    2.6786   -1.3845    0.5114 C   0  0  0  0  0  0  0  0  0  0  0  0
    2.5193   -2.7611    0.6980 C   0  0  0  0  0  0  0  0  0  0  0  0
    3.0252   -3.4378    1.7248 N   0  0  0  0  0  0  0  0  0  0  0  0
    3.7507   -2.7958    2.6515 C   0  0  0  0  0  0  0  0  0  0  0  0
    4.2602   -3.5251    3.6824 N   0  0  0  0  0  0  0  0  0  0  0  0
    4.0229   -4.9404    3.8583 C   0  0  1  0  0  0  0  0  0  0  0  0
    5.1930   -5.6236    4.5977 C   0  0  0  0  0  0  0  0  0  0  0  0
    4.7421   -7.0489    4.8940 C   0  0  0  0  0  0  0  0  0  0  0  0
    3.0352   -6.8412    5.5358 S   0  0  2  0  0  0  0  0  0  0  0  0
    3.1377   -6.5153    6.9656 O   0  0  0  0  0  0  0  0  0  0  0  0
    2.1653   -7.9190    5.0560 O   0  0  0  0  0  0  0  0  0  0  0  0
    2.7166   -5.2703    4.6226 C   0  0  0  0  0  0  0  0  0  0  0  0
    3.9858   -1.3913    2.5370 C   0  0  0  0  0  0  0  0  0  0  0  0
    5.0330   -0.4855    3.8514 Br  0  0  0  0  0  0  0  0  0  0  0  0
    3.4558   -0.6995    1.4687 C   0  0  0  0  0  0  0  0  0  0  0  0
    0.9040   -2.0416   -1.0050 H   0  0  0  0  0  0  0  0  0  0  0  0
    1.9666   -3.3718   -0.0286 H   0  0  0  0  0  0  0  0  0  0  0  0
    4.7346   -3.0148    4.4198 H   0  0  0  0  0  0  0  0  0  0  0  0
    3.9382   -5.3760    2.8523 H   0  0  0  0  0  0  0  0  0  0  0  0
    5.3992   -5.0994    5.5471 H   0  0  0  0  0  0  0  0  0  0  0  0
    6.1096   -5.5943    3.9893 H   0  0  0  0  0  0  0  0  0  0  0  0
    5.3146   -7.5676    5.6739 H   0  0  0  0  0  0  0  0  0  0  0  0
    4.6724   -7.6731    3.9911 H   0  0  0  0  0  0  0  0  0  0  0  0
    2.4859   -4.5244    5.3951 H   0  0  0  0  0  0  0  0  0  0  0  0
    1.8522   -5.4211    3.9643 H   0  0  0  0  0  0  0  0  0  0  0  0
    3.6238    0.3712    1.3411 H   0  0  0  0  0  0  0  0  0  0  0  0
  1  2  2  0
  2  3  1  0
  2  4  1  0
  3 19  1  0
  4  5  2  0
  4 18  1  0
  5  6  1  0
  5 20  1  0
  6  7  2  0
  7  8  1  0
  7 16  1  0
  8  9  1  0
  8 21  1  0
  9 10  1  0
  9 15  1  0
  9 22  1  6
 10 11  1  0
 10 23  1  0
 10 24  1  0
 12 11  1  6
 11 25  1  0
 11 26  1  0
 12 13  2  0
 12 14  2  0
 12 15  1  0
 15 27  1  0
 15 28  1  0
 16 17  1  0
 16 18  2  0
 18 29  1  0
M  END

