
     RDKit          3D

 48 50  0  0  0  0  0  0  0  0999 V2000
    0.3342    6.4696   -7.7605 C   0  0  0  0  0  0  0  0  0  0  0  0
    0.2355    5.0135   -8.2479 C   0  0  1  0  0  0  0  0  0  0  0  0
    0.9526    4.8247   -9.5958 C   0  0  0  0  0  0  0  0  0  0  0  0
    0.7327    4.0305   -7.1956 C   0  0  0  0  0  0  0  0  0  0  0  0
   -0.1355    3.0979   -6.6104 C   0  0  0  0  0  0  0  0  0  0  0  0
    0.3068    2.2004   -5.6302 C   0  0  0  0  0  0  0  0  0  0  0  0
    1.6368    2.2116   -5.2148 C   0  0  0  0  0  0  0  0  0  0  0  0
    2.5081    3.1321   -5.8073 C   0  0  0  0  0  0  0  0  0  0  0  0
    4.2244    3.1713   -5.2718 S   0  0  1  0  0  0  0  0  0  0  0  0
    4.8349    4.3592   -5.8888 O   0  0  0  0  0  0  0  0  0  0  0  0
    4.2527    2.9618   -3.8217 O   0  0  0  0  0  0  0  0  0  0  0  0
    4.8961    1.7768   -5.9230 N   0  0  0  0  0  0  0  0  0  0  0  0
    5.6253    1.8020   -7.2150 C   0  0  2  0  0  0  0  0  0  0  0  0
    5.0317    0.7777   -8.1938 C   0  0  0  0  0  0  0  0  0  0  0  0
    5.4969   -0.6393   -7.8588 C   0  0  0  0  0  0  0  0  0  0  0  0
    7.0168   -0.7432   -8.0051 C   0  0  0  0  0  0  0  0  0  0  0  0
    7.7644    0.3897   -7.3245 C   0  0  0  0  0  0  0  0  0  0  0  0
    9.1334    0.2451   -7.0575 C   0  0  0  0  0  0  0  0  0  0  0  0
    9.8886    1.2700   -6.4637 C   0  0  0  0  0  0  0  0  0  0  0  0
   11.2518    1.1272   -6.2527 N   0  0  0  0  0  0  0  0  0  0  0  0
    9.2273    2.4714   -6.1275 C   0  0  0  0  0  0  0  0  0  0  0  0
    7.8709    2.6184   -6.3847 C   0  0  0  0  0  0  0  0  0  0  0  0
    7.1174    1.5949   -6.9884 C   0  0  0  0  0  0  0  0  0  0  0  0
    2.0744    4.0375   -6.7743 C   0  0  0  0  0  0  0  0  0  0  0  0
   -0.0886    7.1593   -8.5090 H   0  0  0  0  0  0  0  0  0  0  0  0
    1.3820    6.7663   -7.5893 H   0  0  0  0  0  0  0  0  0  0  0  0
   -0.2125    6.6145   -6.8157 H   0  0  0  0  0  0  0  0  0  0  0  0
   -0.8336    4.7905   -8.4086 H   0  0  0  0  0  0  0  0  0  0  0  0
    2.0287    5.0494   -9.5141 H   0  0  0  0  0  0  0  0  0  0  0  0
    0.5307    5.4996  -10.3580 H   0  0  0  0  0  0  0  0  0  0  0  0
    0.8526    3.7912   -9.9630 H   0  0  0  0  0  0  0  0  0  0  0  0
   -1.1835    3.0762   -6.9231 H   0  0  0  0  0  0  0  0  0  0  0  0
   -0.3961    1.4920   -5.1845 H   0  0  0  0  0  0  0  0  0  0  0  0
    1.9980    1.5312   -4.4418 H   0  0  0  0  0  0  0  0  0  0  0  0
    5.3506    1.2691   -5.1653 H   0  0  0  0  0  0  0  0  0  0  0  0
    5.4751    2.8130   -7.6230 H   0  0  0  0  0  0  0  0  0  0  0  0
    5.3563    1.0376   -9.2175 H   0  0  0  0  0  0  0  0  0  0  0  0
    3.9339    0.8561   -8.1704 H   0  0  0  0  0  0  0  0  0  0  0  0
    5.0020   -1.3784   -8.5095 H   0  0  0  0  0  0  0  0  0  0  0  0
    5.1969   -0.8838   -6.8239 H   0  0  0  0  0  0  0  0  0  0  0  0
    7.2737   -0.7313   -9.0816 H   0  0  0  0  0  0  0  0  0  0  0  0
    7.3823   -1.7110   -7.6231 H   0  0  0  0  0  0  0  0  0  0  0  0
    9.6286   -0.6951   -7.3224 H   0  0  0  0  0  0  0  0  0  0  0  0
   11.6119    0.1807   -6.2227 H   0  0  0  0  0  0  0  0  0  0  0  0
   11.6700    1.7365   -5.5596 H   0  0  0  0  0  0  0  0  0  0  0  0
    9.7887    3.2876   -5.6639 H   0  0  0  0  0  0  0  0  0  0  0  0
    7.3662    3.5482   -6.1065 H   0  0  0  0  0  0  0  0  0  0  0  0
    2.7934    4.7504   -7.1819 H   0  0  0  0  0  0  0  0  0  0  0  0
  1  2  1  0
  1 25  1  0
  1 26  1  0
  1 27  1  0
  2  3  1  0
  2  4  1  0
  2 28  1  6
  3 29  1  0
  3 30  1  0
  3 31  1  0
  4  5  2  0
  4 24  1  0
  5  6  1  0
  5 32  1  0
  6  7  2  0
  6 33  1  0
  7  8  1  0
  7 34  1  0
  8  9  1  0
  8 24  2  0
  9 10  2  0
  9 11  2  0
  9 12  1  6
 12 13  1  0
 12 35  1  0
 13 14  1  0
 13 23  1  0
 13 36  1  6
 14 15  1  0
 14 37  1  0
 14 38  1  0
 15 16  1  0
 15 39  1  0
 15 40  1  0
 16 17  1  0
 16 41  1  0
 16 42  1  0
 17 18  2  0
 17 23  1  0
 18 19  1  0
 18 43  1  0
 19 20  1  0
 19 21  2  0
 20 44  1  0
 20 45  1  0
 21 22  1  0
 21 46  1  0
 22 23  2  0
 22 47  1  0
 24 48  1  0
M  END

