
     RDKit          3D

 49 51  0  0  0  0  0  0  0  0999 V2000
    1.2803    1.2570   -0.3630 C   0  0  0  0  0  0  0  0  0  0  0  0
    2.6786    1.2400   -0.9798 C   0  0  0  0  0  0  0  0  0  0  0  0
    3.0916   -0.0867   -1.4483 N   0  0  0  0  0  0  0  0  0  0  0  0
    2.3620   -0.5947   -2.5808 C   0  0  0  0  0  0  0  0  0  0  0  0
    2.5696    0.1244   -3.9263 C   0  0  0  0  0  0  0  0  0  0  0  0
    3.3189    1.0440   -4.1108 O   0  0  0  0  0  0  0  0  0  0  0  0
    1.8300   -0.3708   -4.9488 O   0  0  0  0  0  0  0  0  0  0  0  0
    4.5331   -0.2746   -1.5270 C   0  0  1  0  0  0  0  0  0  0  0  0
    5.3360   -0.1849   -0.2035 C   0  0  0  0  0  0  0  0  0  0  0  0
    6.1608   -1.4299   -0.6470 C   0  0  2  0  0  0  0  0  0  0  0  0
    7.4669   -1.1503   -1.1968 N   0  0  0  0  0  0  0  0  0  0  0  0
    8.6148   -1.7167   -0.6736 C   0  0  0  0  0  0  0  0  0  0  0  0
    8.5951   -2.5318    0.2396 O   0  0  0  0  0  0  0  0  0  0  0  0
    9.7950   -1.2973   -1.2539 N   0  0  0  0  0  0  0  0  0  0  0  0
    9.9221   -0.5030   -2.4688 C   0  0  0  0  0  0  0  0  0  0  0  0
   11.4479   -0.2836   -2.6638 C   0  0  1  0  0  0  0  0  0  0  0  0
   11.8807    1.1887   -2.5474 C   0  0  0  0  0  0  0  0  0  0  0  0
   11.9222    1.4341   -1.0327 C   0  0  0  0  0  0  0  0  0  0  0  0
   12.5476    0.1411   -0.4769 C   0  0  0  0  0  0  0  0  0  0  0  0
   12.1220   -1.0028   -1.4462 C   0  0  1  0  0  0  0  0  0  0  0  0
   11.0491   -1.9562   -0.9095 C   0  0  0  0  0  0  0  0  0  0  0  0
    5.0527   -1.7260   -1.6994 C   0  0  0  0  0  0  0  0  0  0  0  0
    1.0643    2.2519    0.0576 H   0  0  0  0  0  0  0  0  0  0  0  0
    1.2000    0.5122    0.4445 H   0  0  0  0  0  0  0  0  0  0  0  0
    0.4888    1.0452   -1.1004 H   0  0  0  0  0  0  0  0  0  0  0  0
    3.4008    1.5427   -0.2060 H   0  0  0  0  0  0  0  0  0  0  0  0
    2.7504    2.0009   -1.7826 H   0  0  0  0  0  0  0  0  0  0  0  0
    1.2780   -0.5858   -2.3656 H   0  0  0  0  0  0  0  0  0  0  0  0
    2.6206   -1.6575   -2.7422 H   0  0  0  0  0  0  0  0  0  0  0  0
    1.2774   -1.1062   -4.6457 H   0  0  0  0  0  0  0  0  0  0  0  0
    4.9889    0.3843   -2.2934 H   0  0  0  0  0  0  0  0  0  0  0  0
    4.6986   -0.4172    0.6633 H   0  0  0  0  0  0  0  0  0  0  0  0
    5.9035    0.7370   -0.0045 H   0  0  0  0  0  0  0  0  0  0  0  0
    6.3160   -2.1990    0.1190 H   0  0  0  0  0  0  0  0  0  0  0  0
    7.5430   -0.4439   -1.9171 H   0  0  0  0  0  0  0  0  0  0  0  0
    9.3950    0.4629   -2.3623 H   0  0  0  0  0  0  0  0  0  0  0  0
    9.4814   -1.0181   -3.3452 H   0  0  0  0  0  0  0  0  0  0  0  0
   11.7603   -0.7214   -3.6233 H   0  0  0  0  0  0  0  0  0  0  0  0
   11.2158    1.8790   -3.0920 H   0  0  0  0  0  0  0  0  0  0  0  0
   12.8912    1.3098   -2.9751 H   0  0  0  0  0  0  0  0  0  0  0  0
   10.8975    1.5597   -0.6430 H   0  0  0  0  0  0  0  0  0  0  0  0
   12.4834    2.3405   -0.7557 H   0  0  0  0  0  0  0  0  0  0  0  0
   12.2451   -0.0615    0.5621 H   0  0  0  0  0  0  0  0  0  0  0  0
   13.6463    0.2311   -0.4759 H   0  0  0  0  0  0  0  0  0  0  0  0
   13.0062   -1.5758   -1.7621 H   0  0  0  0  0  0  0  0  0  0  0  0
   11.1015   -2.1243    0.1747 H   0  0  0  0  0  0  0  0  0  0  0  0
   11.1233   -2.9511   -1.3933 H   0  0  0  0  0  0  0  0  0  0  0  0
    4.3285   -2.4581   -1.3093 H   0  0  0  0  0  0  0  0  0  0  0  0
    5.3916   -2.0406   -2.6986 H   0  0  0  0  0  0  0  0  0  0  0  0
  1  2  1  0
  1 23  1  0
  1 24  1  0
  1 25  1  0
  2  3  1  0
  2 26  1  0
  2 27  1  0
  3  4  1  0
  3  8  1  0
  4  5  1  0
  4 28  1  0
  4 29  1  0
  5  6  2  0
  5  7  1  0
  7 30  1  0
  8  9  1  0
  8 22  1  0
  8 31  1  6
  9 10  1  0
  9 32  1  0
  9 33  1  0
 10 11  1  0
 10 22  1  0
 10 34  1  1
 11 12  1  0
 11 35  1  0
 12 13  2  0
 12 14  1  0
 14 15  1  0
 14 21  1  0
 15 16  1  0
 15 36  1  0
 15 37  1  0
 16 17  1  0
 16 20  1  0
 16 38  1  6
 17 18  1  0
 17 39  1  0
 17 40  1  0
 18 19  1  0
 18 41  1  0
 18 42  1  0
 19 20  1  0
 19 43  1  0
 19 44  1  0
 20 21  1  0
 20 45  1  6
 21 46  1  0
 21 47  1  0
 22 48  1  0
 22 49  1  0
M  END

