
     RDKit          3D

 81 82  0  0  0  0  0  0  0  0999 V2000
    2.3939    2.4710   -0.1081 C   0  0  0  0  0  0  0  0  0  0  0  0
    2.0300    3.4937   -1.1921 C   0  0  1  0  0  0  0  0  0  0  0  0
    2.5187    4.8972   -0.8054 C   0  0  0  0  0  0  0  0  0  0  0  0
    2.5611    3.0294   -2.5619 C   0  0  0  0  0  0  0  0  0  0  0  0
    2.0228    3.8410   -3.7420 C   0  0  0  0  0  0  0  0  0  0  0  0
    2.5342    3.4053   -5.0603 N   0  0  0  0  0  0  0  0  0  0  0  0
    1.6709    2.6283   -5.9692 C   0  0  0  0  0  0  0  0  0  0  0  0
    2.2162    1.2474   -6.4074 C   0  0  1  0  0  0  0  0  0  0  0  0
    1.5953    0.9568   -7.2843 H   0  0  0  0  0  0  0  0  0  0  0  0
    3.5758    1.2889   -6.7680 O   0  0  0  0  0  0  0  0  0  0  0  0
    2.0245    0.1240   -5.3598 C   0  0  2  0  0  0  0  0  0  0  0  0
    2.4193    0.4775   -4.3972 H   0  0  0  0  0  0  0  0  0  0  0  0
    2.7615   -1.1545   -5.7980 C   0  0  0  0  0  0  0  0  0  0  0  0
    2.6698   -2.3565   -4.8769 C   0  0  0  0  0  0  0  0  0  0  0  0
    2.5550   -2.2443   -3.4809 C   0  0  0  0  0  0  0  0  0  0  0  0
    2.5278   -3.3827   -2.6675 C   0  0  0  0  0  0  0  0  0  0  0  0
    2.6169   -4.6589   -3.2295 C   0  0  0  0  0  0  0  0  0  0  0  0
    2.7296   -4.7871   -4.6180 C   0  0  0  0  0  0  0  0  0  0  0  0
    2.7501   -3.6479   -5.4279 C   0  0  0  0  0  0  0  0  0  0  0  0
    0.5995   -0.1340   -5.1736 N   0  0  0  0  0  0  0  0  0  0  0  0
   -0.0613   -0.0018   -3.9919 C   0  0  0  0  0  0  0  0  0  0  0  0
    0.4332    0.4898   -2.9845 O   0  0  0  0  0  0  0  0  0  0  0  0
   -1.5057   -0.5746   -4.0527 C   0  0  1  0  0  0  0  0  0  0  0  0
   -1.8912   -0.3355   -5.0565 H   0  0  0  0  0  0  0  0  0  0  0  0
   -1.4321   -2.0340   -4.0009 N   0  0  0  0  0  0  0  0  0  0  0  0
   -1.2215   -2.7865   -5.1009 C   0  0  0  0  0  0  0  0  0  0  0  0
   -1.0450   -2.3201   -6.2237 O   0  0  0  0  0  0  0  0  0  0  0  0
   -1.1344   -4.2989   -4.9397 C   0  0  0  0  0  0  0  0  0  0  0  0
   -1.9251   -5.0637   -3.3096 Br  0  0  0  0  0  0  0  0  0  0  0  0
   -2.5184   -0.0038   -3.0174 C   0  0  1  0  0  0  0  0  0  0  0  0
   -2.5329    1.5328   -3.1354 C   0  0  0  0  0  0  0  0  0  0  0  0
   -3.9203   -0.5411   -3.3718 C   0  0  0  0  0  0  0  0  0  0  0  0
   -2.1663   -0.4098   -1.5717 C   0  0  0  0  0  0  0  0  0  0  0  0
    3.5992    4.4864   -5.8055 S   0  0  1  0  0  0  0  0  0  0  0  0
    3.7897    3.9779   -7.1808 O   0  0  0  0  0  0  0  0  0  0  0  0
    3.1713    5.8785   -5.6290 O   0  0  0  0  0  0  0  0  0  0  0  0
    5.1375    4.2801   -4.9017 C   0  0  0  0  0  0  0  0  0  0  0  0
    5.7469    3.0203   -4.8551 C   0  0  0  0  0  0  0  0  0  0  0  0
    6.9676    2.8936   -4.1905 C   0  0  0  0  0  0  0  0  0  0  0  0
    7.5640    4.0091   -3.5888 C   0  0  0  0  0  0  0  0  0  0  0  0
    6.9432    5.2598   -3.6497 C   0  0  0  0  0  0  0  0  0  0  0  0
    5.7200    5.4041   -4.3122 C   0  0  0  0  0  0  0  0  0  0  0  0
    1.9974    2.7705    0.8759 H   0  0  0  0  0  0  0  0  0  0  0  0
    3.4893    2.3748   -0.0091 H   0  0  0  0  0  0  0  0  0  0  0  0
    1.9887    1.4759   -0.3501 H   0  0  0  0  0  0  0  0  0  0  0  0
    0.9253    3.5246   -1.2584 H   0  0  0  0  0  0  0  0  0  0  0  0
    3.6204    4.9245   -0.7395 H   0  0  0  0  0  0  0  0  0  0  0  0
    2.1204    5.1979    0.1773 H   0  0  0  0  0  0  0  0  0  0  0  0
    2.2100    5.6668   -1.5305 H   0  0  0  0  0  0  0  0  0  0  0  0
    2.2708    1.9786   -2.7063 H   0  0  0  0  0  0  0  0  0  0  0  0
    3.6645    3.0730   -2.5625 H   0  0  0  0  0  0  0  0  0  0  0  0
    2.2551    4.9097   -3.6245 H   0  0  0  0  0  0  0  0  0  0  0  0
    0.9217    3.7786   -3.7674 H   0  0  0  0  0  0  0  0  0  0  0  0
    1.4629    3.2148   -6.8777 H   0  0  0  0  0  0  0  0  0  0  0  0
    0.7061    2.4818   -5.4639 H   0  0  0  0  0  0  0  0  0  0  0  0
    3.7539    2.1455   -7.2023 H   0  0  0  0  0  0  0  0  0  0  0  0
    3.8187   -0.8846   -5.9454 H   0  0  0  0  0  0  0  0  0  0  0  0
    2.3954   -1.4461   -6.7982 H   0  0  0  0  0  0  0  0  0  0  0  0
    2.4704   -1.2612   -3.0137 H   0  0  0  0  0  0  0  0  0  0  0  0
    2.4352   -3.2674   -1.5843 H   0  0  0  0  0  0  0  0  0  0  0  0
    2.5968   -5.5464   -2.5921 H   0  0  0  0  0  0  0  0  0  0  0  0
    2.8028   -5.7785   -5.0737 H   0  0  0  0  0  0  0  0  0  0  0  0
    2.8346   -3.7604   -6.5128 H   0  0  0  0  0  0  0  0  0  0  0  0
    0.1240   -0.6801   -5.8966 H   0  0  0  0  0  0  0  0  0  0  0  0
   -1.4968   -2.4988   -3.1006 H   0  0  0  0  0  0  0  0  0  0  0  0
   -0.0742   -4.5887   -4.9352 H   0  0  0  0  0  0  0  0  0  0  0  0
   -1.6351   -4.7635   -5.7963 H   0  0  0  0  0  0  0  0  0  0  0  0
   -2.7483    1.8515   -4.1694 H   0  0  0  0  0  0  0  0  0  0  0  0
   -1.5725    1.9686   -2.8281 H   0  0  0  0  0  0  0  0  0  0  0  0
   -3.3210    1.9533   -2.4910 H   0  0  0  0  0  0  0  0  0  0  0  0
   -4.2242   -0.2335   -4.3859 H   0  0  0  0  0  0  0  0  0  0  0  0
   -4.6678   -0.1489   -2.6641 H   0  0  0  0  0  0  0  0  0  0  0  0
   -3.9617   -1.6401   -3.3276 H   0  0  0  0  0  0  0  0  0  0  0  0
   -1.1541   -0.0806   -1.3042 H   0  0  0  0  0  0  0  0  0  0  0  0
   -2.2353   -1.5007   -1.4187 H   0  0  0  0  0  0  0  0  0  0  0  0
   -2.8838    0.0464   -0.8708 H   0  0  0  0  0  0  0  0  0  0  0  0
    5.2642    2.1616   -5.3269 H   0  0  0  0  0  0  0  0  0  0  0  0
    7.4569    1.9178   -4.1421 H   0  0  0  0  0  0  0  0  0  0  0  0
    8.5198    3.9006   -3.0700 H   0  0  0  0  0  0  0  0  0  0  0  0
    7.4110    6.1294   -3.1818 H   0  0  0  0  0  0  0  0  0  0  0  0
    5.2150    6.3690   -4.3782 H   0  0  0  0  0  0  0  0  0  0  0  0
  1  2  1  0
  1 43  1  0
  1 44  1  0
  1 45  1  0
  2  3  1  0
  2  4  1  0
  2 46  1  6
  3 47  1  0
  3 48  1  0
  3 49  1  0
  4  5  1  0
  4 50  1  0
  4 51  1  0
  5  6  1  0
  5 52  1  0
  5 53  1  0
  6  7  1  0
 34  6  1  1
  7  8  1  0
  7 54  1  0
  7 55  1  0
  8  9  1  6
  8 10  1  0
  8 11  1  0
 10 56  1  0
 11 12  1  1
 11 13  1  0
 11 20  1  0
 13 14  1  0
 13 57  1  0
 13 58  1  0
 14 15  2  0
 14 19  1  0
 15 16  1  0
 15 59  1  0
 16 17  2  0
 16 60  1  0
 17 18  1  0
 17 61  1  0
 18 19  2  0
 18 62  1  0
 19 63  1  0
 20 21  1  0
 20 64  1  0
 21 22  2  0
 21 23  1  0
 23 24  1  6
 23 25  1  0
 23 30  1  0
 25 26  1  0
 25 65  1  0
 26 27  2  0
 26 28  1  0
 28 29  1  0
 28 66  1  0
 28 67  1  0
 30 31  1  1
 30 32  1  0
 30 33  1  0
 31 68  1  0
 31 69  1  0
 31 70  1  0
 32 71  1  0
 32 72  1  0
 32 73  1  0
 33 74  1  0
 33 75  1  0
 33 76  1  0
 34 35  2  0
 34 36  2  0
 34 37  1  0
 37 38  2  0
 37 42  1  0
 38 39  1  0
 38 77  1  0
 39 40  2  0
 39 78  1  0
 40 41  1  0
 40 79  1  0
 41 42  2  0
 41 80  1  0
 42 81  1  0
M  END

