
     RDKit          3D

 50 54  0  0  0  0  0  0  0  0999 V2000
   -1.0667    0.9891   -0.0029 C   0  0  0  0  0  0  0  0  0  0  0  0
   -0.6371   -0.3404    0.0541 C   0  0  0  0  0  0  0  0  0  0  0  0
    0.7160   -0.6477   -0.0939 C   0  0  0  0  0  0  0  0  0  0  0  0
    1.6636    0.3716   -0.2984 C   0  0  0  0  0  0  0  0  0  0  0  0
    3.0988    0.0839   -0.4581 C   0  0  0  0  0  0  0  0  0  0  0  0
    4.0047    0.9923   -0.6893 N   0  0  0  0  0  0  0  0  0  0  0  0
    5.2844    0.4986   -0.7431 C   0  0  0  0  0  0  0  0  0  0  0  0
    6.3953    1.4507   -0.9752 C   0  0  0  0  0  0  0  0  0  0  0  0
    7.7275    1.1696   -0.6168 C   0  0  0  0  0  0  0  0  0  0  0  0
    8.7371    2.1094   -0.8329 C   0  0  0  0  0  0  0  0  0  0  0  0
    8.4414    3.3456   -1.4143 C   0  0  0  0  0  0  0  0  0  0  0  0
    7.1210    3.6387   -1.7701 C   0  0  0  0  0  0  0  0  0  0  0  0
    6.1086    2.7049   -1.5491 C   0  0  0  0  0  0  0  0  0  0  0  0
    5.3684   -0.8783   -0.5710 C   0  0  0  0  0  0  0  0  0  0  0  0
    6.4734   -1.7318   -0.6672 N   0  0  0  0  0  0  0  0  0  0  0  0
    6.8045   -2.5467    0.4537 C   0  0  0  0  0  0  0  0  0  0  0  0
    7.1837   -3.8916    0.2918 C   0  0  0  0  0  0  0  0  0  0  0  0
    7.4885   -4.6745    1.4064 C   0  0  0  0  0  0  0  0  0  0  0  0
    7.4062   -4.1424    2.6972 C   0  0  0  0  0  0  0  0  0  0  0  0
    7.0161   -2.8100    2.8614 C   0  0  0  0  0  0  0  0  0  0  0  0
    6.7221   -2.0144    1.7529 C   0  0  0  0  0  0  0  0  0  0  0  0
    7.1088   -1.9071   -1.9308 C   0  0  0  0  0  0  0  0  0  0  0  0
    6.3708   -1.8152   -3.1229 C   0  0  0  0  0  0  0  0  0  0  0  0
    7.0062   -1.9601   -4.3579 C   0  0  0  0  0  0  0  0  0  0  0  0
    8.3795   -2.2092   -4.4281 C   0  0  0  0  0  0  0  0  0  0  0  0
    9.1160   -2.3033   -3.2428 C   0  0  0  0  0  0  0  0  0  0  0  0
    8.4934   -2.1458   -2.0043 C   0  0  0  0  0  0  0  0  0  0  0  0
    3.7524   -1.5395   -0.3155 S   0  0  0  0  0  0  0  0  0  0  0  0
    1.2216    1.7077   -0.3532 C   0  0  0  0  0  0  0  0  0  0  0  0
   -0.1313    2.0101   -0.2076 C   0  0  0  0  0  0  0  0  0  0  0  0
   -2.1267    1.2290    0.1118 H   0  0  0  0  0  0  0  0  0  0  0  0
   -1.3600   -1.1446    0.2128 H   0  0  0  0  0  0  0  0  0  0  0  0
    1.0363   -1.6922   -0.0514 H   0  0  0  0  0  0  0  0  0  0  0  0
    7.9764    0.2174   -0.1498 H   0  0  0  0  0  0  0  0  0  0  0  0
    9.7636    1.8726   -0.5412 H   0  0  0  0  0  0  0  0  0  0  0  0
    9.2346    4.0779   -1.5855 H   0  0  0  0  0  0  0  0  0  0  0  0
    6.8767    4.6037   -2.2221 H   0  0  0  0  0  0  0  0  0  0  0  0
    5.0762    2.9335   -1.8157 H   0  0  0  0  0  0  0  0  0  0  0  0
    7.2356   -4.3229   -0.7090 H   0  0  0  0  0  0  0  0  0  0  0  0
    7.7806   -5.7180    1.2621 H   0  0  0  0  0  0  0  0  0  0  0  0
    7.6411   -4.7613    3.5662 H   0  0  0  0  0  0  0  0  0  0  0  0
    6.9473   -2.3779    3.8631 H   0  0  0  0  0  0  0  0  0  0  0  0
    6.4252   -0.9726    1.8883 H   0  0  0  0  0  0  0  0  0  0  0  0
    5.2964   -1.6312   -3.0799 H   0  0  0  0  0  0  0  0  0  0  0  0
    6.4151   -1.8850   -5.2743 H   0  0  0  0  0  0  0  0  0  0  0  0
    8.8723   -2.3250   -5.3961 H   0  0  0  0  0  0  0  0  0  0  0  0
   10.1930   -2.4870   -3.2798 H   0  0  0  0  0  0  0  0  0  0  0  0
    9.0812   -2.2071   -1.0867 H   0  0  0  0  0  0  0  0  0  0  0  0
    1.9610    2.4946   -0.5085 H   0  0  0  0  0  0  0  0  0  0  0  0
   -0.4600    3.0517   -0.2517 H   0  0  0  0  0  0  0  0  0  0  0  0
  1  2  2  0
  1 30  1  0
  1 31  1  0
  2  3  1  0
  2 32  1  0
  3  4  2  0
  3 33  1  0
  4  5  1  0
  4 29  1  0
  5  6  2  0
  5 28  1  0
  6  7  1  0
  7  8  1  0
  7 14  2  0
  8  9  2  0
  8 13  1  0
  9 10  1  0
  9 34  1  0
 10 11  2  0
 10 35  1  0
 11 12  1  0
 11 36  1  0
 12 13  2  0
 12 37  1  0
 13 38  1  0
 14 15  1  0
 14 28  1  0
 15 16  1  0
 15 22  1  0
 16 17  2  0
 16 21  1  0
 17 18  1  0
 17 39  1  0
 18 19  2  0
 18 40  1  0
 19 20  1  0
 19 41  1  0
 20 21  2  0
 20 42  1  0
 21 43  1  0
 22 23  2  0
 22 27  1  0
 23 24  1  0
 23 44  1  0
 24 25  2  0
 24 45  1  0
 25 26  1  0
 25 46  1  0
 26 27  2  0
 26 47  1  0
 27 48  1  0
 29 30  2  0
 29 49  1  0
 30 50  1  0
M  END

