
     RDKit          3D

 15 15  0  0  0  0  0  0  0  0999 V2000
    1.1348   -0.1204    1.3671 O   0  0  0  0  0  0  0  0  0  0  0  0
    2.0666    0.0552    0.2422 S   0  0  1  0  0  0  0  0  0  0  0  0
    1.5864    0.2471   -1.1236 O   0  0  0  0  0  0  0  0  0  0  0  0
    3.3058    1.3333    0.7260 C   0  0  0  0  0  0  0  0  0  0  0  0
    4.5126    0.5759    1.3175 C   0  0  0  0  0  0  0  0  0  0  0  0
    4.0876   -0.8772    1.5985 C   0  0  2  0  0  0  0  0  0  0  0  0
    5.6041   -2.0165    2.0856 Br  0  0  0  0  0  0  0  0  0  0  0  0
    3.2706   -1.3705    0.4123 C   0  0  2  0  0  0  0  0  0  0  0  0
    4.2664   -1.6463   -1.2336 Br  0  0  0  0  0  0  0  0  0  0  0  0
    2.7759    1.9671    1.4496 H   0  0  0  0  0  0  0  0  0  0  0  0
    3.5447    1.9086   -0.1772 H   0  0  0  0  0  0  0  0  0  0  0  0
    4.8766    1.0491    2.2398 H   0  0  0  0  0  0  0  0  0  0  0  0
    5.3404    0.5676    0.5946 H   0  0  0  0  0  0  0  0  0  0  0  0
    3.4217   -0.9185    2.4717 H   0  0  0  0  0  0  0  0  0  0  0  0
    2.6745   -2.2680    0.6131 H   0  0  0  0  0  0  0  0  0  0  0  0
  1  2  2  0
  2  3  2  0
  2  4  1  1
  2  8  1  0
  4  5  1  0
  4 10  1  0
  4 11  1  0
  5  6  1  0
  5 12  1  0
  5 13  1  0
  6  7  1  0
  6  8  1  0
  6 14  1  1
  8  9  1  0
  8 15  1  1
M  END

