
     RDKit          3D

 38 38  0  0  0  0  0  0  0  0999 V2000
    0.5012    0.0149    1.4682 C   0  0  0  0  0  0  0  0  0  0  0  0
    1.9424   -0.0738    1.9761 C   0  0  0  0  0  0  0  0  0  0  0  0
    2.9271    0.5879    1.0007 C   0  0  0  0  0  0  0  0  0  0  0  0
    4.4389    0.3652    1.2161 C   0  0  1  0  0  0  0  0  0  0  0  0
    4.8784   -1.1434    1.0437 C   0  0  0  0  0  0  0  0  0  0  0  0
    4.7526   -1.7386   -0.3438 C   0  0  0  0  0  0  0  0  0  0  0  0
    5.7127   -1.4479   -1.3325 C   0  0  0  0  0  0  0  0  0  0  0  0
    5.7093   -1.9366   -2.5718 N   0  0  0  0  0  0  0  0  0  0  0  0
    4.7381   -2.7612   -2.9074 C   0  0  0  0  0  0  0  0  0  0  0  0
    4.7340   -3.3898   -4.5402 Cl  0  0  0  0  0  0  0  0  0  0  0  0
    3.7283   -3.1716   -2.0322 C   0  0  0  0  0  0  0  0  0  0  0  0
    3.7544   -2.6506   -0.7383 C   0  0  0  0  0  0  0  0  0  0  0  0
    2.5292   -3.2188    0.3730 Cl  0  0  0  0  0  0  0  0  0  0  0  0
    5.2178    1.2015    0.1388 C   0  0  0  0  0  0  0  0  0  0  0  0
    4.6784    1.6675   -0.8258 O   0  0  0  0  0  0  0  0  0  0  0  0
    6.5406    1.3020    0.3264 O   0  0  0  0  0  0  0  0  0  0  0  0
    4.9821    0.8278    2.5775 C   0  0  0  0  0  0  0  0  0  0  0  0
    6.1534    0.6728    2.8868 O   0  0  0  0  0  0  0  0  0  0  0  0
    4.1094    1.4579    3.3489 O   0  0  0  0  0  0  0  0  0  0  0  0
    4.5721    1.9906    4.6164 C   0  0  0  0  0  0  0  0  0  0  0  0
    4.5395    0.9405    5.7117 C   0  0  0  0  0  0  0  0  0  0  0  0
   -0.2065   -0.4166    2.1940 H   0  0  0  0  0  0  0  0  0  0  0  0
    0.3779   -0.5298    0.5177 H   0  0  0  0  0  0  0  0  0  0  0  0
    0.2005    1.0613    1.2919 H   0  0  0  0  0  0  0  0  0  0  0  0
    2.1983   -1.1338    2.1277 H   0  0  0  0  0  0  0  0  0  0  0  0
    2.0130    0.4086    2.9615 H   0  0  0  0  0  0  0  0  0  0  0  0
    2.7424    1.6733    0.9831 H   0  0  0  0  0  0  0  0  0  0  0  0
    2.7103    0.2498   -0.0246 H   0  0  0  0  0  0  0  0  0  0  0  0
    4.2971   -1.7469    1.7539 H   0  0  0  0  0  0  0  0  0  0  0  0
    5.9286   -1.2199    1.3585 H   0  0  0  0  0  0  0  0  0  0  0  0
    6.5430   -0.7776   -1.0883 H   0  0  0  0  0  0  0  0  0  0  0  0
    2.9586   -3.8771   -2.3417 H   0  0  0  0  0  0  0  0  0  0  0  0
    6.7764    0.9680    1.2207 H   0  0  0  0  0  0  0  0  0  0  0  0
    3.8790    2.8168    4.8260 H   0  0  0  0  0  0  0  0  0  0  0  0
    5.5856    2.3920    4.4761 H   0  0  0  0  0  0  0  0  0  0  0  0
    3.5303    0.5157    5.8258 H   0  0  0  0  0  0  0  0  0  0  0  0
    4.8268    1.4018    6.6699 H   0  0  0  0  0  0  0  0  0  0  0  0
    5.2489    0.1271    5.5002 H   0  0  0  0  0  0  0  0  0  0  0  0
  1  2  1  0
  1 22  1  0
  1 23  1  0
  1 24  1  0
  2  3  1  0
  2 25  1  0
  2 26  1  0
  3  4  1  0
  3 27  1  0
  3 28  1  0
  4  5  1  0
  4 14  1  6
  4 17  1  0
  5  6  1  0
  5 29  1  0
  5 30  1  0
  6  7  2  0
  6 12  1  0
  7  8  1  0
  7 31  1  0
  8  9  2  0
  9 10  1  0
  9 11  1  0
 11 12  2  0
 11 32  1  0
 12 13  1  0
 14 15  2  0
 14 16  1  0
 16 33  1  0
 17 18  2  0
 17 19  1  0
 19 20  1  0
 20 21  1  0
 20 34  1  0
 20 35  1  0
 21 36  1  0
 21 37  1  0
 21 38  1  0
M  END

