
     RDKit          3D

 33 34  0  0  0  0  0  0  0  0999 V2000
    1.4037    0.3179    0.5524 N   0  0  0  0  0  0  0  0  0  0  0  0
    2.5468    0.0558   -0.1986 C   0  0  0  0  0  0  0  0  0  0  0  0
    3.3085    1.1053   -0.8224 C   0  0  0  0  0  0  0  0  0  0  0  0
    4.3539    0.6402   -1.5731 C   0  0  0  0  0  0  0  0  0  0  0  0
    4.4293   -1.0838   -1.5668 S   0  0  0  0  0  0  0  0  0  0  0  0
    3.0450   -1.2016   -0.5042 C   0  0  0  0  0  0  0  0  0  0  0  0
    2.6203   -2.5470    0.0199 C   0  0  0  0  0  0  0  0  0  0  0  0
    1.1620   -2.6574    0.1480 N   0  0  0  0  0  0  0  0  0  0  0  0
    0.6523   -4.0235    0.3772 C   0  0  1  0  0  0  0  0  0  0  0  0
    0.9203   -4.4129    1.8478 C   0  0  0  0  0  0  0  0  0  0  0  0
    0.5551   -3.3845    2.7374 O   0  0  0  0  0  0  0  0  0  0  0  0
   -0.8103   -4.0966   -0.0381 C   0  0  0  0  0  0  0  0  0  0  0  0
   -1.1384   -4.5674   -1.3197 C   0  0  0  0  0  0  0  0  0  0  0  0
   -2.4671   -4.6149   -1.7513 C   0  0  0  0  0  0  0  0  0  0  0  0
   -3.4924   -4.1897   -0.9023 C   0  0  0  0  0  0  0  0  0  0  0  0
   -3.1785   -3.7205    0.3770 C   0  0  0  0  0  0  0  0  0  0  0  0
   -1.8496   -3.6701    0.8068 C   0  0  0  0  0  0  0  0  0  0  0  0
    1.4429    1.1397    1.1452 H   0  0  0  0  0  0  0  0  0  0  0  0
    0.9898   -0.4942    0.9977 H   0  0  0  0  0  0  0  0  0  0  0  0
    3.0622    2.1636   -0.7161 H   0  0  0  0  0  0  0  0  0  0  0  0
    5.0724    1.2207   -2.1498 H   0  0  0  0  0  0  0  0  0  0  0  0
    3.0686   -2.7278    1.0161 H   0  0  0  0  0  0  0  0  0  0  0  0
    3.0330   -3.3405   -0.6396 H   0  0  0  0  0  0  0  0  0  0  0  0
    0.7185   -2.2645   -0.6816 H   0  0  0  0  0  0  0  0  0  0  0  0
    1.2080   -4.7495   -0.2534 H   0  0  0  0  0  0  0  0  0  0  0  0
    1.9939   -4.6697    1.9601 H   0  0  0  0  0  0  0  0  0  0  0  0
    0.3466   -5.3189    2.1011 H   0  0  0  0  0  0  0  0  0  0  0  0
    0.7284   -2.5643    2.2438 H   0  0  0  0  0  0  0  0  0  0  0  0
   -0.3416   -4.9088   -1.9878 H   0  0  0  0  0  0  0  0  0  0  0  0
   -2.7012   -4.9889   -2.7515 H   0  0  0  0  0  0  0  0  0  0  0  0
   -4.5329   -4.2270   -1.2351 H   0  0  0  0  0  0  0  0  0  0  0  0
   -3.9755   -3.3907    1.0489 H   0  0  0  0  0  0  0  0  0  0  0  0
   -1.6067   -3.3129    1.8087 H   0  0  0  0  0  0  0  0  0  0  0  0
  1  2  1  0
  1 18  1  0
  1 19  1  0
  2  3  1  0
  2  6  2  0
  3  4  2  0
  3 20  1  0
  4  5  1  0
  4 21  1  0
  5  6  1  0
  6  7  1  0
  7  8  1  0
  7 22  1  0
  7 23  1  0
  8  9  1  0
  8 24  1  0
  9 10  1  0
  9 12  1  0
  9 25  1  6
 10 11  1  0
 10 26  1  0
 10 27  1  0
 11 28  1  0
 12 13  2  0
 12 17  1  0
 13 14  1  0
 13 29  1  0
 14 15  2  0
 14 30  1  0
 15 16  1  0
 15 31  1  0
 16 17  2  0
 16 32  1  0
 17 33  1  0
M  END

