
     RDKit          3D

 42 43  0  0  0  0  0  0  0  0999 V2000
    5.1729   -8.4091  -12.3927 C   0  0  0  0  0  0  0  0  0  0  0  0
    5.1317   -6.9977  -11.8039 C   0  0  1  0  0  0  0  0  0  0  0  0
    3.6857   -6.5223  -11.6255 C   0  0  0  0  0  0  0  0  0  0  0  0
    5.8470   -6.9966  -10.5262 N   0  0  0  0  0  0  0  0  0  0  0  0
    6.2150   -5.6946   -9.9947 C   0  0  0  0  0  0  0  0  0  0  0  0
    6.9751   -5.8340   -8.6760 C   0  0  0  0  0  0  0  0  0  0  0  0
    7.3394   -4.4829   -8.0530 C   0  0  0  0  0  0  0  0  0  0  0  0
    8.0565   -4.6067   -6.7968 N   0  0  0  0  0  0  0  0  0  0  0  0
    9.3729   -4.3159   -6.6638 C   0  0  0  0  0  0  0  0  0  0  0  0
   10.0980   -3.9130   -7.5584 O   0  0  0  0  0  0  0  0  0  0  0  0
    9.9613   -4.5740   -5.2591 C   0  0  1  0  0  0  0  0  0  0  0  0
   10.5870   -5.4774   -5.3506 H   0  0  0  0  0  0  0  0  0  0  0  0
   10.8386   -3.4115   -4.8099 C   0  0  0  0  0  0  0  0  0  0  0  0
   10.0489   -2.2673   -4.5273 O   0  0  0  0  0  0  0  0  0  0  0  0
    8.9798   -2.5140   -3.7161 C   0  0  0  0  0  0  0  0  0  0  0  0
    8.3935   -1.4553   -3.0149 C   0  0  0  0  0  0  0  0  0  0  0  0
    7.2969   -1.6836   -2.1821 C   0  0  0  0  0  0  0  0  0  0  0  0
    6.7860   -2.9787   -2.0357 C   0  0  0  0  0  0  0  0  0  0  0  0
    7.3628   -4.0395   -2.7370 C   0  0  0  0  0  0  0  0  0  0  0  0
    8.4511   -3.8121   -3.5843 C   0  0  0  0  0  0  0  0  0  0  0  0
    8.9697   -4.8779   -4.2817 O   0  0  0  0  0  0  0  0  0  0  0  0
    4.6439   -8.4516  -13.3571 H   0  0  0  0  0  0  0  0  0  0  0  0
    4.6985   -9.1265  -11.7033 H   0  0  0  0  0  0  0  0  0  0  0  0
    6.2110   -8.7395  -12.5670 H   0  0  0  0  0  0  0  0  0  0  0  0
    5.6231   -6.3109  -12.5332 H   0  0  0  0  0  0  0  0  0  0  0  0
    3.1552   -7.1774  -10.9155 H   0  0  0  0  0  0  0  0  0  0  0  0
    3.1500   -6.5385  -12.5880 H   0  0  0  0  0  0  0  0  0  0  0  0
    3.6336   -5.4923  -11.2402 H   0  0  0  0  0  0  0  0  0  0  0  0
    6.6893   -7.5640  -10.6186 H   0  0  0  0  0  0  0  0  0  0  0  0
    5.2964   -5.1091   -9.8163 H   0  0  0  0  0  0  0  0  0  0  0  0
    6.8232   -5.0909  -10.7091 H   0  0  0  0  0  0  0  0  0  0  0  0
    7.9043   -6.4093   -8.8398 H   0  0  0  0  0  0  0  0  0  0  0  0
    6.3587   -6.4250   -7.9766 H   0  0  0  0  0  0  0  0  0  0  0  0
    6.4256   -3.8845   -7.8892 H   0  0  0  0  0  0  0  0  0  0  0  0
    7.9919   -3.9114   -8.7292 H   0  0  0  0  0  0  0  0  0  0  0  0
    7.5807   -4.9768   -5.9811 H   0  0  0  0  0  0  0  0  0  0  0  0
   11.5250   -3.1417   -5.6216 H   0  0  0  0  0  0  0  0  0  0  0  0
   11.4135   -3.7048   -3.9125 H   0  0  0  0  0  0  0  0  0  0  0  0
    8.8219   -0.4587   -3.1413 H   0  0  0  0  0  0  0  0  0  0  0  0
    6.8462   -0.8492   -1.6399 H   0  0  0  0  0  0  0  0  0  0  0  0
    5.9351   -3.1653   -1.3766 H   0  0  0  0  0  0  0  0  0  0  0  0
    6.9824   -5.0596   -2.6459 H   0  0  0  0  0  0  0  0  0  0  0  0
  1  2  1  0
  1 22  1  0
  1 23  1  0
  1 24  1  0
  2  3  1  0
  2  4  1  0
  2 25  1  6
  3 26  1  0
  3 27  1  0
  3 28  1  0
  4  5  1  0
  4 29  1  0
  5  6  1  0
  5 30  1  0
  5 31  1  0
  6  7  1  0
  6 32  1  0
  6 33  1  0
  7  8  1  0
  7 34  1  0
  7 35  1  0
  8  9  1  0
  8 36  1  0
  9 10  2  0
  9 11  1  0
 11 12  1  6
 11 13  1  0
 11 21  1  0
 13 14  1  0
 13 37  1  0
 13 38  1  0
 14 15  1  0
 15 16  1  0
 15 20  2  0
 16 17  2  0
 16 39  1  0
 17 18  1  0
 17 40  1  0
 18 19  2  0
 18 41  1  0
 19 20  1  0
 19 42  1  0
 20 21  1  0
M  END

