
     RDKit          3D

 35 37  0  0  0  0  0  0  0  0999 V2000
    1.0683    0.0808    0.0614 C   0  0  0  0  0  0  0  0  0  0  0  0
    2.5778    0.0638    0.0440 C   0  0  0  0  0  0  0  0  0  0  0  0
    3.3241    1.2362    0.2367 C   0  0  0  0  0  0  0  0  0  0  0  0
    4.7210    1.1972    0.2315 C   0  0  0  0  0  0  0  0  0  0  0  0
    5.3995   -0.0051    0.0341 C   0  0  0  0  0  0  0  0  0  0  0  0
    4.6606   -1.1788   -0.1741 C   0  0  0  0  0  0  0  0  0  0  0  0
    5.3214   -2.4186   -0.3967 N   0  0  0  0  0  0  0  0  0  0  0  0
    6.6157   -2.6237   -0.7782 C   0  0  0  0  0  0  0  0  0  0  0  0
    6.8056   -3.9965   -0.8835 C   0  0  0  0  0  0  0  0  0  0  0  0
    8.0267   -4.7190   -1.2670 C   0  0  0  0  0  0  0  0  0  0  0  0
    7.9740   -6.0613   -1.6892 C   0  0  0  0  0  0  0  0  0  0  0  0
    9.1340   -6.7500   -2.0470 C   0  0  0  0  0  0  0  0  0  0  0  0
   10.3769   -6.1166   -2.0016 C   0  0  0  0  0  0  0  0  0  0  0  0
   10.4443   -4.7801   -1.5891 C   0  0  0  0  0  0  0  0  0  0  0  0
   11.7741   -4.0668   -1.5842 C   0  0  1  0  0  0  0  0  0  0  0  0
   12.7829   -4.8917   -1.2519 F   0  0  0  0  0  0  0  0  0  0  0  0
   12.0685   -3.5615   -2.7988 F   0  0  0  0  0  0  0  0  0  0  0  0
   11.7928   -3.0367   -0.7189 F   0  0  0  0  0  0  0  0  0  0  0  0
    9.2862   -4.0931   -1.2201 C   0  0  0  0  0  0  0  0  0  0  0  0
    5.5287   -4.5306   -0.5381 C   0  0  0  0  0  0  0  0  0  0  0  0
    4.6545   -3.5818   -0.2490 N   0  0  0  0  0  0  0  0  0  0  0  0
    3.2617   -1.1423   -0.1653 C   0  0  0  0  0  0  0  0  0  0  0  0
    0.6757    1.1053    0.1367 H   0  0  0  0  0  0  0  0  0  0  0  0
    0.6753   -0.4941    0.9168 H   0  0  0  0  0  0  0  0  0  0  0  0
    0.6523   -0.3771   -0.8507 H   0  0  0  0  0  0  0  0  0  0  0  0
    2.8077    2.1863    0.3963 H   0  0  0  0  0  0  0  0  0  0  0  0
    5.2923    2.1146    0.3937 H   0  0  0  0  0  0  0  0  0  0  0  0
    6.4896   -0.0253    0.0614 H   0  0  0  0  0  0  0  0  0  0  0  0
    7.2885   -1.7975   -0.9877 H   0  0  0  0  0  0  0  0  0  0  0  0
    7.0101   -6.5709   -1.7492 H   0  0  0  0  0  0  0  0  0  0  0  0
    9.0672   -7.7923   -2.3679 H   0  0  0  0  0  0  0  0  0  0  0  0
   11.2869   -6.6531   -2.2757 H   0  0  0  0  0  0  0  0  0  0  0  0
    9.3709   -3.0631   -0.8711 H   0  0  0  0  0  0  0  0  0  0  0  0
    5.2285   -5.5761   -0.4723 H   0  0  0  0  0  0  0  0  0  0  0  0
    2.7184   -2.0747   -0.3214 H   0  0  0  0  0  0  0  0  0  0  0  0
  1  2  1  0
  1 23  1  0
  1 24  1  0
  1 25  1  0
  2  3  2  0
  2 22  1  0
  3  4  1  0
  3 26  1  0
  4  5  2  0
  4 27  1  0
  5  6  1  0
  5 28  1  0
  6  7  1  0
  6 22  2  0
  7  8  1  0
  7 21  1  0
  8  9  2  0
  8 29  1  0
  9 10  1  0
  9 20  1  0
 10 11  2  0
 10 19  1  0
 11 12  1  0
 11 30  1  0
 12 13  2  0
 12 31  1  0
 13 14  1  0
 13 32  1  0
 14 15  1  0
 14 19  2  0
 15 16  1  1
 15 17  1  0
 15 18  1  0
 19 33  1  0
 20 21  2  0
 20 34  1  0
 22 35  1  0
M  END

