
     RDKit          3D

 39 41  0  0  0  0  0  0  0  0999 V2000
    8.8026   -5.2604   -3.7459 C   0  0  0  0  0  0  0  0  0  0  0  0
    7.5415   -4.4408   -3.6106 C   0  0  0  0  0  0  0  0  0  0  0  0
    6.8320   -3.9973   -4.7357 C   0  0  0  0  0  0  0  0  0  0  0  0
    5.6644   -3.2395   -4.5949 C   0  0  0  0  0  0  0  0  0  0  0  0
    5.1858   -2.9081   -3.3280 C   0  0  0  0  0  0  0  0  0  0  0  0
    5.8798   -3.3387   -2.1844 C   0  0  0  0  0  0  0  0  0  0  0  0
    5.3760   -2.9969   -0.8118 C   0  0  0  0  0  0  0  0  0  0  0  0
    3.8948   -3.9317   -0.2852 S   0  0  1  0  0  0  0  0  0  0  0  0
    3.6569   -3.5661    1.1169 O   0  0  0  0  0  0  0  0  0  0  0  0
    2.8519   -3.7331   -1.3006 O   0  0  0  0  0  0  0  0  0  0  0  0
    4.4104   -5.5479   -0.3403 N   0  0  0  0  0  0  0  0  0  0  0  0
    4.4094   -6.3267    0.9208 C   0  0  1  0  0  0  0  0  0  0  0  0
    2.9988   -6.9677    0.9654 C   0  0  0  0  0  0  0  0  0  0  0  0
    2.5655   -7.0556   -0.5258 C   0  0  0  0  0  0  0  0  0  0  0  0
    3.7613   -6.4604   -1.3124 C   0  0  2  0  0  0  0  0  0  0  0  0
    4.8092   -7.5213   -1.6886 C   0  0  0  0  0  0  0  0  0  0  0  0
    5.3894   -8.2302   -0.4668 C   0  0  0  0  0  0  0  0  0  0  0  0
    5.7400   -9.3876   -0.4984 O   0  0  0  0  0  0  0  0  0  0  0  0
    5.5283   -7.3748    0.7926 C   0  0  0  0  0  0  0  0  0  0  0  0
    7.0445   -4.1024   -2.3411 C   0  0  0  0  0  0  0  0  0  0  0  0
    9.1052   -5.3654   -4.7979 H   0  0  0  0  0  0  0  0  0  0  0  0
    8.6685   -6.2754   -3.3347 H   0  0  0  0  0  0  0  0  0  0  0  0
    9.6411   -4.8006   -3.1974 H   0  0  0  0  0  0  0  0  0  0  0  0
    7.1998   -4.2448   -5.7354 H   0  0  0  0  0  0  0  0  0  0  0  0
    5.1256   -2.9022   -5.4840 H   0  0  0  0  0  0  0  0  0  0  0  0
    4.2676   -2.3278   -3.2179 H   0  0  0  0  0  0  0  0  0  0  0  0
    5.0309   -1.9543   -0.7316 H   0  0  0  0  0  0  0  0  0  0  0  0
    6.1181   -3.1819   -0.0237 H   0  0  0  0  0  0  0  0  0  0  0  0
    4.5955   -5.6617    1.7722 H   0  0  0  0  0  0  0  0  0  0  0  0
    2.3197   -6.3124    1.5293 H   0  0  0  0  0  0  0  0  0  0  0  0
    3.0099   -7.9462    1.4691 H   0  0  0  0  0  0  0  0  0  0  0  0
    1.6716   -6.4421   -0.7065 H   0  0  0  0  0  0  0  0  0  0  0  0
    2.3350   -8.0827   -0.8469 H   0  0  0  0  0  0  0  0  0  0  0  0
    3.4444   -5.8998   -2.1991 H   0  0  0  0  0  0  0  0  0  0  0  0
    5.6463   -7.0226   -2.2088 H   0  0  0  0  0  0  0  0  0  0  0  0
    4.3996   -8.2828   -2.3691 H   0  0  0  0  0  0  0  0  0  0  0  0
    6.5010   -6.8553    0.7275 H   0  0  0  0  0  0  0  0  0  0  0  0
    5.5677   -8.0453    1.6641 H   0  0  0  0  0  0  0  0  0  0  0  0
    7.5865   -4.4353   -1.4504 H   0  0  0  0  0  0  0  0  0  0  0  0
  1  2  1  0
  1 21  1  0
  1 22  1  0
  1 23  1  0
  2  3  2  0
  2 20  1  0
  3  4  1  0
  3 24  1  0
  4  5  2  0
  4 25  1  0
  5  6  1  0
  5 26  1  0
  6  7  1  0
  6 20  2  0
  8  7  1  6
  7 27  1  0
  7 28  1  0
  8  9  2  0
  8 10  2  0
  8 11  1  0
 11 12  1  0
 11 15  1  0
 12 13  1  0
 12 19  1  0
 12 29  1  1
 13 14  1  0
 13 30  1  0
 13 31  1  0
 14 15  1  0
 14 32  1  0
 14 33  1  0
 15 16  1  0
 15 34  1  6
 16 17  1  0
 16 35  1  0
 16 36  1  0
 17 18  2  0
 17 19  1  0
 19 37  1  0
 19 38  1  0
 20 39  1  0
M  END

