
     RDKit          3D

 50 53  0  0  0  0  0  0  0  0999 V2000
    6.5874   -1.9110    7.6381 C   0  0  0  0  0  0  0  0  0  0  0  0
    7.8313   -1.0404    7.7037 C   0  0  0  0  0  0  0  0  0  0  0  0
    7.6944    0.1440    6.8992 O   0  0  0  0  0  0  0  0  0  0  0  0
    8.0084    0.0614    5.5952 C   0  0  0  0  0  0  0  0  0  0  0  0
    8.4048   -0.9614    5.0775 O   0  0  0  0  0  0  0  0  0  0  0  0
    7.8011    1.3769    4.9252 C   0  0  0  0  0  0  0  0  0  0  0  0
    7.3058    2.4365    5.7655 C   0  0  0  0  0  0  0  0  0  0  0  0
    6.9063    3.3235    6.4011 N   0  0  0  0  0  0  0  0  0  0  0  0
    8.0173    1.7182    3.6078 C   0  0  0  0  0  0  0  0  0  0  0  0
    8.4862    1.0746    2.3944 C   0  0  0  0  0  0  0  0  0  0  0  0
    8.9025   -0.2838    2.2609 C   0  0  0  0  0  0  0  0  0  0  0  0
    9.3355   -0.7989    1.0478 C   0  0  0  0  0  0  0  0  0  0  0  0
    9.3609    0.0474   -0.0715 C   0  0  0  0  0  0  0  0  0  0  0  0
    8.9532    1.4100    0.0215 C   0  0  0  0  0  0  0  0  0  0  0  0
    8.5224    1.9072    1.2472 C   0  0  0  0  0  0  0  0  0  0  0  0
    9.1057    1.9805   -1.3060 C   0  0  0  0  0  0  0  0  0  0  0  0
    8.8772    3.2492   -1.8566 C   0  0  0  0  0  0  0  0  0  0  0  0
    9.1395    3.4565   -3.2110 C   0  0  0  0  0  0  0  0  0  0  0  0
    9.6269    2.4111   -4.0178 C   0  0  0  0  0  0  0  0  0  0  0  0
    9.8630    1.1385   -3.4946 C   0  0  0  0  0  0  0  0  0  0  0  0
    9.5973    0.9381   -2.1363 C   0  0  0  0  0  0  0  0  0  0  0  0
    9.7449   -0.2252   -1.3713 N   0  0  0  0  0  0  0  0  0  0  0  0
   10.2187   -1.4828   -1.8563 C   0  0  0  0  0  0  0  0  0  0  0  0
   11.5885   -1.7904   -1.8103 C   0  0  0  0  0  0  0  0  0  0  0  0
   12.0501   -3.0130   -2.2826 C   0  0  0  0  0  0  0  0  0  0  0  0
   11.1499   -3.9564   -2.8134 C   0  0  0  0  0  0  0  0  0  0  0  0
   11.6928   -5.1164   -3.2478 O   0  0  0  0  0  0  0  0  0  0  0  0
   10.8575   -6.1166   -3.7908 C   0  0  0  0  0  0  0  0  0  0  0  0
    9.7795   -3.6520   -2.8618 C   0  0  0  0  0  0  0  0  0  0  0  0
    9.3251   -2.4191   -2.3834 C   0  0  0  0  0  0  0  0  0  0  0  0
    6.6922   -2.7634    8.3284 H   0  0  0  0  0  0  0  0  0  0  0  0
    6.4400   -2.3089    6.6232 H   0  0  0  0  0  0  0  0  0  0  0  0
    5.6926   -1.3394    7.9295 H   0  0  0  0  0  0  0  0  0  0  0  0
    8.7209   -1.5959    7.3720 H   0  0  0  0  0  0  0  0  0  0  0  0
    8.0006   -0.6622    8.7220 H   0  0  0  0  0  0  0  0  0  0  0  0
    7.7671    2.7683    3.4231 H   0  0  0  0  0  0  0  0  0  0  0  0
    8.8743   -0.9214    3.1412 H   0  0  0  0  0  0  0  0  0  0  0  0
    9.6496   -1.8412    0.9685 H   0  0  0  0  0  0  0  0  0  0  0  0
    8.2075    2.9507    1.3308 H   0  0  0  0  0  0  0  0  0  0  0  0
    8.4992    4.0647   -1.2349 H   0  0  0  0  0  0  0  0  0  0  0  0
    8.9658    4.4406   -3.6525 H   0  0  0  0  0  0  0  0  0  0  0  0
    9.8256    2.5979   -5.0762 H   0  0  0  0  0  0  0  0  0  0  0  0
   10.2413    0.3285   -4.1208 H   0  0  0  0  0  0  0  0  0  0  0  0
   12.2883   -1.0595   -1.3991 H   0  0  0  0  0  0  0  0  0  0  0  0
   13.1109   -3.2685   -2.2532 H   0  0  0  0  0  0  0  0  0  0  0  0
   11.5126   -6.9528   -4.0683 H   0  0  0  0  0  0  0  0  0  0  0  0
   10.3272   -5.7625   -4.6929 H   0  0  0  0  0  0  0  0  0  0  0  0
   10.1138   -6.4730   -3.0559 H   0  0  0  0  0  0  0  0  0  0  0  0
    9.0592   -4.3627   -3.2663 H   0  0  0  0  0  0  0  0  0  0  0  0
    8.2598   -2.1806   -2.4195 H   0  0  0  0  0  0  0  0  0  0  0  0
  1  2  1  0
  1 31  1  0
  1 32  1  0
  1 33  1  0
  2  3  1  0
  2 34  1  0
  2 35  1  0
  3  4  1  0
  4  5  2  0
  4  6  1  0
  6  7  1  0
  6  9  2  0
  7  8  3  0
  9 10  1  0
  9 36  1  0
 10 11  2  0
 10 15  1  0
 11 12  1  0
 11 37  1  0
 12 13  2  0
 12 38  1  0
 13 14  1  0
 13 22  1  0
 14 15  2  0
 14 16  1  0
 15 39  1  0
 16 17  2  0
 16 21  1  0
 17 18  1  0
 17 40  1  0
 18 19  2  0
 18 41  1  0
 19 20  1  0
 19 42  1  0
 20 21  2  0
 20 43  1  0
 21 22  1  0
 22 23  1  0
 23 24  2  0
 23 30  1  0
 24 25  1  0
 24 44  1  0
 25 26  2  0
 25 45  1  0
 26 27  1  0
 26 29  1  0
 27 28  1  0
 28 46  1  0
 28 47  1  0
 28 48  1  0
 29 30  2  0
 29 49  1  0
 30 50  1  0
M  END

