
     RDKit          3D

 40 42  0  0  0  0  0  0  0  0999 V2000
    0.9176   -0.2084   -0.7379 C   0  0  0  0  0  0  0  0  0  0  0  0
    2.3026   -0.3161   -0.1456 C   0  0  0  0  0  0  0  0  0  0  0  0
    2.9305    0.8526    0.3076 C   0  0  0  0  0  0  0  0  0  0  0  0
    4.2167    0.8157    0.8368 C   0  0  0  0  0  0  0  0  0  0  0  0
    4.7812    1.9565    1.2567 F   0  0  0  0  0  0  0  0  0  0  0  0
    4.9265   -0.3765    0.9383 C   0  0  0  0  0  0  0  0  0  0  0  0
    4.3086   -1.5453    0.5014 C   0  0  0  0  0  0  0  0  0  0  0  0
    3.0080   -1.5462   -0.0428 C   0  0  0  0  0  0  0  0  0  0  0  0
    2.4695   -2.8308   -0.5044 C   0  0  0  0  0  0  0  0  0  0  0  0
    3.0818   -3.9562   -1.0065 C   0  0  0  0  0  0  0  0  0  0  0  0
    2.0490   -4.9148   -1.2473 C   0  0  0  0  0  0  0  0  0  0  0  0
    0.8687   -4.3207   -0.8863 C   0  0  0  0  0  0  0  0  0  0  0  0
   -0.5565   -4.7830   -0.8801 C   0  0  0  0  0  0  0  0  0  0  0  0
   -1.1244   -5.1558    0.4219 N   0  0  0  0  0  0  0  0  0  0  0  0
   -0.5198   -6.3154    1.0990 C   0  0  0  0  0  0  0  0  0  0  0  0
   -0.9601   -6.1540    2.5547 C   0  0  0  0  0  0  0  0  0  0  0  0
   -0.8634   -4.6351    2.7560 C   0  0  0  0  0  0  0  0  0  0  0  0
   -1.3515   -4.0696    1.4048 C   0  0  2  0  0  0  0  0  0  0  0  0
   -0.8042   -3.1500    1.1483 H   0  0  0  0  0  0  0  0  0  0  0  0
   -2.8501   -3.6925    1.4492 C   0  0  0  0  0  0  0  0  0  0  0  0
   -3.2771   -2.7988    2.1327 O   0  0  0  0  0  0  0  0  0  0  0  0
   -3.6086   -4.4645    0.6681 O   0  0  0  0  0  0  0  0  0  0  0  0
    1.1224   -3.0558   -0.4358 O   0  0  0  0  0  0  0  0  0  0  0  0
    0.6611    0.8431   -0.9303 H   0  0  0  0  0  0  0  0  0  0  0  0
    0.1539   -0.6237   -0.0621 H   0  0  0  0  0  0  0  0  0  0  0  0
    0.8354   -0.7631   -1.6846 H   0  0  0  0  0  0  0  0  0  0  0  0
    2.4214    1.8165    0.2409 H   0  0  0  0  0  0  0  0  0  0  0  0
    5.9316   -0.3793    1.3632 H   0  0  0  0  0  0  0  0  0  0  0  0
    4.8410   -2.4934    0.6004 H   0  0  0  0  0  0  0  0  0  0  0  0
    4.1447   -4.0736   -1.2035 H   0  0  0  0  0  0  0  0  0  0  0  0
    2.1629   -5.9173   -1.6554 H   0  0  0  0  0  0  0  0  0  0  0  0
   -0.6285   -5.6580   -1.5453 H   0  0  0  0  0  0  0  0  0  0  0  0
   -1.1988   -4.0000   -1.3164 H   0  0  0  0  0  0  0  0  0  0  0  0
    0.5860   -6.2923    1.0275 H   0  0  0  0  0  0  0  0  0  0  0  0
   -0.8634   -7.2562    0.6371 H   0  0  0  0  0  0  0  0  0  0  0  0
   -0.3329   -6.7279    3.2528 H   0  0  0  0  0  0  0  0  0  0  0  0
   -2.0011   -6.4956    2.6801 H   0  0  0  0  0  0  0  0  0  0  0  0
    0.1860   -4.3423    2.9191 H   0  0  0  0  0  0  0  0  0  0  0  0
   -1.4541   -4.2484    3.5978 H   0  0  0  0  0  0  0  0  0  0  0  0
   -2.9547   -5.0999    0.2754 H   0  0  0  0  0  0  0  0  0  0  0  0
  1  2  1  0
  1 24  1  0
  1 25  1  0
  1 26  1  0
  2  3  2  0
  2  8  1  0
  3  4  1  0
  3 27  1  0
  4  5  1  0
  4  6  2  0
  6  7  1  0
  6 28  1  0
  7  8  2  0
  7 29  1  0
  8  9  1  0
  9 10  2  0
  9 23  1  0
 10 11  1  0
 10 30  1  0
 11 12  2  0
 11 31  1  0
 12 13  1  0
 12 23  1  0
 13 14  1  0
 13 32  1  0
 13 33  1  0
 14 15  1  0
 14 18  1  0
 15 16  1  0
 15 34  1  0
 15 35  1  0
 16 17  1  0
 16 36  1  0
 16 37  1  0
 17 18  1  0
 17 38  1  0
 17 39  1  0
 18 19  1  6
 18 20  1  0
 20 21  2  0
 20 22  1  0
 22 40  1  0
M  END

