
     RDKit          3D

 40 43  0  0  0  0  0  0  0  0999 V2000
    2.8738    1.0177   -1.2545 F   0  0  0  0  0  0  0  0  0  0  0  0
    3.5755    0.4906   -0.2386 C   0  0  0  0  0  0  0  0  0  0  0  0
    3.9832    1.3200    0.8022 C   0  0  0  0  0  0  0  0  0  0  0  0
    4.7099    0.7530    1.8540 C   0  0  0  0  0  0  0  0  0  0  0  0
    5.0142   -0.6096    1.8532 C   0  0  0  0  0  0  0  0  0  0  0  0
    4.5994   -1.4295    0.7913 C   0  0  0  0  0  0  0  0  0  0  0  0
    4.9707   -2.8938    0.7954 C   0  0  0  0  0  0  0  0  0  0  0  0
    4.2557   -3.5848   -0.2213 O   0  0  0  0  0  0  0  0  0  0  0  0
    4.5674   -4.9024   -0.4055 C   0  0  0  0  0  0  0  0  0  0  0  0
    5.3937   -5.2778   -1.4716 C   0  0  0  0  0  0  0  0  0  0  0  0
    5.6869   -6.6149   -1.7182 C   0  0  0  0  0  0  0  0  0  0  0  0
    5.1633   -7.6314   -0.8939 C   0  0  0  0  0  0  0  0  0  0  0  0
    5.5109   -8.9525   -1.2133 N   0  0  0  0  0  0  0  0  0  0  0  0
    5.1892  -10.1550   -0.6256 C   0  0  0  0  0  0  0  0  0  0  0  0
    4.4106  -10.1824    0.4517 N   0  0  0  0  0  0  0  0  0  0  0  0
    4.0996  -11.3395    1.0204 C   0  0  0  0  0  0  0  0  0  0  0  0
    2.9695  -11.2430    2.5679 Br  0  0  0  0  0  0  0  0  0  0  0  0
    4.5225  -12.5889    0.5876 C   0  0  0  0  0  0  0  0  0  0  0  0
    5.3463  -12.5730   -0.5515 C   0  0  0  0  0  0  0  0  0  0  0  0
    6.0535  -13.9477   -1.3622 S   0  0  0  0  0  0  0  0  0  0  0  0
    6.8152  -12.9103   -2.5411 C   0  0  0  0  0  0  0  0  0  0  0  0
    6.5510  -11.5888   -2.3351 C   0  0  0  0  0  0  0  0  0  0  0  0
    5.7045  -11.3651   -1.1919 C   0  0  0  0  0  0  0  0  0  0  0  0
    4.3303   -7.2695    0.1796 C   0  0  0  0  0  0  0  0  0  0  0  0
    4.0444   -5.9221    0.4083 C   0  0  0  0  0  0  0  0  0  0  0  0
    2.9788   -5.5030    1.7291 Cl  0  0  0  0  0  0  0  0  0  0  0  0
    3.8710   -0.8710   -0.2644 C   0  0  0  0  0  0  0  0  0  0  0  0
    3.7271    2.3808    0.7795 H   0  0  0  0  0  0  0  0  0  0  0  0
    5.0361    1.3834    2.6849 H   0  0  0  0  0  0  0  0  0  0  0  0
    5.5761   -1.0411    2.6864 H   0  0  0  0  0  0  0  0  0  0  0  0
    4.7522   -3.3328    1.7850 H   0  0  0  0  0  0  0  0  0  0  0  0
    6.0595   -3.0029    0.6203 H   0  0  0  0  0  0  0  0  0  0  0  0
    5.7943   -4.4915   -2.1150 H   0  0  0  0  0  0  0  0  0  0  0  0
    6.3313   -6.8770   -2.5625 H   0  0  0  0  0  0  0  0  0  0  0  0
    6.1101   -9.0288   -2.0242 H   0  0  0  0  0  0  0  0  0  0  0  0
    4.2330  -13.5064    1.0974 H   0  0  0  0  0  0  0  0  0  0  0  0
    7.4236  -13.3511   -3.3298 H   0  0  0  0  0  0  0  0  0  0  0  0
    6.9516  -10.8081   -2.9842 H   0  0  0  0  0  0  0  0  0  0  0  0
    3.9082   -8.0349    0.8242 H   0  0  0  0  0  0  0  0  0  0  0  0
    3.5281   -1.4882   -1.0945 H   0  0  0  0  0  0  0  0  0  0  0  0
  1  2  1  0
  2  3  2  0
  2 27  1  0
  3  4  1  0
  3 28  1  0
  4  5  2  0
  4 29  1  0
  5  6  1  0
  5 30  1  0
  6  7  1  0
  6 27  2  0
  7  8  1  0
  7 31  1  0
  7 32  1  0
  8  9  1  0
  9 10  2  0
  9 25  1  0
 10 11  1  0
 10 33  1  0
 11 12  2  0
 11 34  1  0
 12 13  1  0
 12 24  1  0
 13 14  1  0
 13 35  1  0
 14 15  2  0
 14 23  1  0
 15 16  1  0
 16 17  1  0
 16 18  2  0
 18 19  1  0
 18 36  1  0
 19 20  1  0
 19 23  2  0
 20 21  1  0
 21 22  2  0
 21 37  1  0
 22 23  1  0
 22 38  1  0
 24 25  2  0
 24 39  1  0
 25 26  1  0
 27 40  1  0
M  END

