
     RDKit          3D

 32 33  0  0  0  0  0  0  0  0999 V2000
    3.4545   -3.0505   -4.2956 N   0  0  0  0  0  0  0  0  0  0  0  0
    4.3279   -3.9436   -3.7763 C   0  0  0  0  0  0  0  0  0  0  0  0
    4.7004   -4.9690   -4.3061 O   0  0  0  0  0  0  0  0  0  0  0  0
    4.8282   -3.6095   -2.4797 N   0  0  0  0  0  0  0  0  0  0  0  0
    4.5782   -2.5001   -1.7239 C   0  0  0  0  0  0  0  0  0  0  0  0
    3.8225   -1.5893   -2.0364 O   0  0  0  0  0  0  0  0  0  0  0  0
    5.3405   -2.4668   -0.3917 C   0  0  0  0  0  0  0  0  0  0  0  0
    6.7789   -2.2307   -0.5380 N   0  0  0  0  0  0  0  0  0  0  0  0
    7.5699   -3.3799   -0.6322 C   0  0  0  0  0  0  0  0  0  0  0  0
    7.0543   -4.4900   -0.7521 O   0  0  0  0  0  0  0  0  0  0  0  0
    9.0057   -3.1625   -0.5533 C   0  0  0  0  0  0  0  0  0  0  0  0
    9.5613   -1.9183   -0.4911 C   0  0  0  0  0  0  0  0  0  0  0  0
   11.0715   -1.8012   -0.4549 C   0  0  0  0  0  0  0  0  0  0  0  0
   11.6961   -0.9651   -1.0490 O   0  0  0  0  0  0  0  0  0  0  0  0
   11.7013   -2.7332    0.2874 O   0  0  0  0  0  0  0  0  0  0  0  0
    8.7144   -0.7403   -0.5289 C   0  0  0  0  0  0  0  0  0  0  0  0
    9.2212    0.5806   -0.5308 C   0  0  0  0  0  0  0  0  0  0  0  0
    8.3696    1.6733   -0.5821 C   0  0  0  0  0  0  0  0  0  0  0  0
    6.9829    1.4706   -0.6544 C   0  0  0  0  0  0  0  0  0  0  0  0
    6.4493    0.1879   -0.6542 C   0  0  0  0  0  0  0  0  0  0  0  0
    7.3009   -0.9337   -0.5714 C   0  0  0  0  0  0  0  0  0  0  0  0
    3.0885   -3.2446   -5.2181 H   0  0  0  0  0  0  0  0  0  0  0  0
    3.2156   -2.2073   -3.7781 H   0  0  0  0  0  0  0  0  0  0  0  0
    5.4930   -4.2930   -2.1052 H   0  0  0  0  0  0  0  0  0  0  0  0
    5.2301   -3.4374    0.1111 H   0  0  0  0  0  0  0  0  0  0  0  0
    4.8976   -1.6817    0.2292 H   0  0  0  0  0  0  0  0  0  0  0  0
    9.6041   -4.0750   -0.5914 H   0  0  0  0  0  0  0  0  0  0  0  0
   11.0598   -3.2713    0.7740 H   0  0  0  0  0  0  0  0  0  0  0  0
   10.2998    0.7259   -0.5168 H   0  0  0  0  0  0  0  0  0  0  0  0
    8.7801    2.6851   -0.5868 H   0  0  0  0  0  0  0  0  0  0  0  0
    6.3069    2.3262   -0.7261 H   0  0  0  0  0  0  0  0  0  0  0  0
    5.3738    0.0561   -0.7655 H   0  0  0  0  0  0  0  0  0  0  0  0
  1  2  1  0
  1 22  1  0
  1 23  1  0
  2  3  2  0
  2  4  1  0
  4  5  1  0
  4 24  1  0
  5  6  2  0
  5  7  1  0
  7  8  1  0
  7 25  1  0
  7 26  1  0
  8  9  1  0
  8 21  1  0
  9 10  2  0
  9 11  1  0
 11 12  2  0
 11 27  1  0
 12 13  1  0
 12 16  1  0
 13 14  2  0
 13 15  1  0
 15 28  1  0
 16 17  1  0
 16 21  2  0
 17 18  2  0
 17 29  1  0
 18 19  1  0
 18 30  1  0
 19 20  2  0
 19 31  1  0
 20 21  1  0
 20 32  1  0
M  END

