
     RDKit          3D

 36 37  0  0  0  0  0  0  0  0999 V2000
    0.8957   -0.1574   -0.0431 O   0  0  0  0  0  0  0  0  0  0  0  0
    1.8131    0.4939    0.4205 C   0  0  0  0  0  0  0  0  0  0  0  0
    2.6641   -0.0095    1.5845 C   0  0  0  0  0  0  0  0  0  0  0  0
    1.8501   -0.8227    2.5919 C   0  0  0  0  0  0  0  0  0  0  0  0
    2.7330   -1.5143    3.6369 C   0  0  0  0  0  0  0  0  0  0  0  0
    1.9793   -2.2733    4.6162 N   0  0  0  0  0  0  0  0  0  0  0  0
    1.7066   -1.7786    5.8651 C   0  0  0  0  0  0  0  0  0  0  0  0
    2.1171   -0.6936    6.2506 O   0  0  0  0  0  0  0  0  0  0  0  0
    0.8788   -2.6395    6.7575 C   0  0  0  0  0  0  0  0  0  0  0  0
    0.4170   -2.2488    7.9954 C   0  0  0  0  0  0  0  0  0  0  0  0
   -0.3527   -3.2516    8.6487 C   0  0  0  0  0  0  0  0  0  0  0  0
   -0.4672   -4.4001    7.9026 C   0  0  0  0  0  0  0  0  0  0  0  0
    0.3676   -4.2705    6.3970 S   0  0  0  0  0  0  0  0  0  0  0  0
    2.1990    1.7242   -0.0682 N   0  0  0  0  0  0  0  0  0  0  0  0
    1.6713    2.4317   -1.1550 C   0  0  0  0  0  0  0  0  0  0  0  0
    0.6036    1.9947   -1.9546 C   0  0  0  0  0  0  0  0  0  0  0  0
    0.1787    2.8017   -3.0084 C   0  0  0  0  0  0  0  0  0  0  0  0
   -0.8420    2.3720   -3.7643 F   0  0  0  0  0  0  0  0  0  0  0  0
    0.7660    4.0283   -3.3067 C   0  0  0  0  0  0  0  0  0  0  0  0
    1.8299    4.4651   -2.5103 C   0  0  0  0  0  0  0  0  0  0  0  0
    2.2630    3.6728   -1.4597 C   0  0  0  0  0  0  0  0  0  0  0  0
    3.2915    4.0825   -0.6818 F   0  0  0  0  0  0  0  0  0  0  0  0
    3.1846    0.8262    2.0821 H   0  0  0  0  0  0  0  0  0  0  0  0
    3.4539   -0.6461    1.1420 H   0  0  0  0  0  0  0  0  0  0  0  0
    1.2548   -1.5664    2.0375 H   0  0  0  0  0  0  0  0  0  0  0  0
    1.1315   -0.1653    3.1088 H   0  0  0  0  0  0  0  0  0  0  0  0
    3.3116   -0.7681    4.2006 H   0  0  0  0  0  0  0  0  0  0  0  0
    3.4535   -2.1860    3.1365 H   0  0  0  0  0  0  0  0  0  0  0  0
    1.5185   -3.1218    4.3083 H   0  0  0  0  0  0  0  0  0  0  0  0
    0.6409   -1.2603    8.3970 H   0  0  0  0  0  0  0  0  0  0  0  0
   -0.8050   -3.1318    9.6343 H   0  0  0  0  0  0  0  0  0  0  0  0
   -0.9907   -5.3211    8.1565 H   0  0  0  0  0  0  0  0  0  0  0  0
    2.9681    2.1891    0.4008 H   0  0  0  0  0  0  0  0  0  0  0  0
    0.1195    1.0430   -1.7503 H   0  0  0  0  0  0  0  0  0  0  0  0
    0.3940    4.6214   -4.1431 H   0  0  0  0  0  0  0  0  0  0  0  0
    2.3296    5.4176   -2.6955 H   0  0  0  0  0  0  0  0  0  0  0  0
  1  2  2  0
  2  3  1  0
  2 14  1  0
  3  4  1  0
  3 23  1  0
  3 24  1  0
  4  5  1  0
  4 25  1  0
  4 26  1  0
  5  6  1  0
  5 27  1  0
  5 28  1  0
  6  7  1  0
  6 29  1  0
  7  8  2  0
  7  9  1  0
  9 10  2  0
  9 13  1  0
 10 11  1  0
 10 30  1  0
 11 12  2  0
 11 31  1  0
 12 13  1  0
 12 32  1  0
 14 15  1  0
 14 33  1  0
 15 16  2  0
 15 21  1  0
 16 17  1  0
 16 34  1  0
 17 18  1  0
 17 19  2  0
 19 20  1  0
 19 35  1  0
 20 21  2  0
 20 36  1  0
 21 22  1  0
M  END

