
     RDKit          3D

 31 33  0  0  0  0  0  0  0  0999 V2000
    2.8392    0.2775   -1.4641 C   0  0  0  0  0  0  0  0  0  0  0  0
    2.2262   -0.2658   -0.1735 C   0  0  0  0  0  0  0  0  0  0  0  0
    3.0089   -1.4222    0.4340 C   0  0  1  0  0  0  0  0  0  0  0  0
    2.4279   -2.0223    1.7203 C   0  0  0  0  0  0  0  0  0  0  0  0
    2.9479   -3.4596    1.6665 C   0  0  0  0  0  0  0  0  0  0  0  0
    2.8979   -3.7614    0.1571 C   0  0  2  0  0  0  0  0  0  0  0  0
    3.9283   -4.6833   -0.3072 N   0  0  0  0  0  0  0  0  0  0  0  0
    5.2622   -4.4178   -0.5531 C   0  0  0  0  0  0  0  0  0  0  0  0
    5.9347   -5.4695   -0.9498 N   0  0  0  0  0  0  0  0  0  0  0  0
    5.0157   -6.4867   -0.9723 C   0  0  0  0  0  0  0  0  0  0  0  0
    5.1694   -7.8847   -1.3306 C   0  0  0  0  0  0  0  0  0  0  0  0
    6.1410   -8.5120   -1.6920 O   0  0  0  0  0  0  0  0  0  0  0  0
    3.8982   -8.5383   -1.1984 N   0  0  0  0  0  0  0  0  0  0  0  0
    3.9157   -9.5279   -1.4332 H   0  0  0  0  0  0  0  0  0  0  0  0
    2.7251   -7.9662   -0.8029 C   0  0  0  0  0  0  0  0  0  0  0  0
    2.5928   -6.7147   -0.4780 N   0  0  0  0  0  0  0  0  0  0  0  0
    3.7559   -6.0185   -0.5797 C   0  0  0  0  0  0  0  0  0  0  0  0
    3.0452   -2.5213   -0.4983 O   0  0  0  0  0  0  0  0  0  0  0  0
    2.2339    1.0992   -1.8774 H   0  0  0  0  0  0  0  0  0  0  0  0
    2.9066   -0.5152   -2.2242 H   0  0  0  0  0  0  0  0  0  0  0  0
    3.8571    0.6657   -1.2924 H   0  0  0  0  0  0  0  0  0  0  0  0
    1.1933   -0.6091   -0.3594 H   0  0  0  0  0  0  0  0  0  0  0  0
    2.1625    0.5338    0.5862 H   0  0  0  0  0  0  0  0  0  0  0  0
    4.0523   -1.0920    0.6172 H   0  0  0  0  0  0  0  0  0  0  0  0
    1.3256   -2.0025    1.6792 H   0  0  0  0  0  0  0  0  0  0  0  0
    2.7429   -1.4768    2.6221 H   0  0  0  0  0  0  0  0  0  0  0  0
    2.3586   -4.1801    2.2513 H   0  0  0  0  0  0  0  0  0  0  0  0
    3.9916   -3.5118    2.0156 H   0  0  0  0  0  0  0  0  0  0  0  0
    1.9415   -4.2357   -0.1218 H   0  0  0  0  0  0  0  0  0  0  0  0
    5.6649   -3.4116   -0.4429 H   0  0  0  0  0  0  0  0  0  0  0  0
    1.8561   -8.6328   -0.7668 H   0  0  0  0  0  0  0  0  0  0  0  0
  1  2  1  0
  1 19  1  0
  1 20  1  0
  1 21  1  0
  2  3  1  0
  2 22  1  0
  2 23  1  0
  3  4  1  0
  3 18  1  0
  3 24  1  1
  4  5  1  0
  4 25  1  0
  4 26  1  0
  5  6  1  0
  5 27  1  0
  5 28  1  0
  6  7  1  0
  6 18  1  0
  6 29  1  1
  7  8  1  0
  7 17  1  0
  8  9  2  0
  8 30  1  0
  9 10  1  0
 10 11  1  0
 10 17  2  0
 11 12  2  0
 11 13  1  0
 13 14  1  0
 13 15  1  0
 15 16  2  0
 15 31  1  0
 16 17  1  0
M  END

