
     RDKit          3D

 41 41  0  0  0  0  0  0  0  0999 V2000
    1.8398    1.6800    1.3412 C   0  0  0  0  0  0  0  0  0  0  0  0
    2.8168    0.9425    0.4249 C   0  0  0  0  0  0  0  0  0  0  0  0
    2.1464   -0.1019   -0.4918 C   0  0  1  0  0  0  0  0  0  0  0  0
    1.5424   -0.7888    0.1201 H   0  0  0  0  0  0  0  0  0  0  0  0
    1.1943    0.5669   -1.4791 C   0  0  0  0  0  0  0  0  0  0  0  0
    1.4039    1.6230   -2.0313 O   0  0  0  0  0  0  0  0  0  0  0  0
    0.0912   -0.1722   -1.6781 O   0  0  0  0  0  0  0  0  0  0  0  0
   -0.8644    0.3051   -2.6372 C   0  0  0  0  0  0  0  0  0  0  0  0
   -0.4802   -0.0114   -4.0771 C   0  0  0  0  0  0  0  0  0  0  0  0
   -0.3274   -1.4340   -4.3053 N   0  0  0  0  0  0  0  0  0  0  0  0
    0.0513   -1.8379   -5.6598 C   0  0  1  0  0  0  0  0  0  0  0  0
    1.5097   -1.4728   -5.9574 C   0  0  0  0  0  0  0  0  0  0  0  0
   -0.1750   -3.3439   -5.8051 C   0  0  0  0  0  0  0  0  0  0  0  0
    3.1706   -0.9390   -1.2547 C   0  0  0  0  0  0  0  0  0  0  0  0
    3.3788   -2.2840   -0.9154 C   0  0  0  0  0  0  0  0  0  0  0  0
    4.3429   -3.0499   -1.5774 C   0  0  0  0  0  0  0  0  0  0  0  0
    5.1138   -2.4803   -2.5943 C   0  0  0  0  0  0  0  0  0  0  0  0
    4.9120   -1.1411   -2.9437 C   0  0  0  0  0  0  0  0  0  0  0  0
    3.9491   -0.3763   -2.2798 C   0  0  0  0  0  0  0  0  0  0  0  0
    2.3727    2.3888    1.9946 H   0  0  0  0  0  0  0  0  0  0  0  0
    1.2875    0.9803    1.9911 H   0  0  0  0  0  0  0  0  0  0  0  0
    1.1023    2.2585    0.7623 H   0  0  0  0  0  0  0  0  0  0  0  0
    3.5774    0.4201    1.0285 H   0  0  0  0  0  0  0  0  0  0  0  0
    3.3569    1.6664   -0.2061 H   0  0  0  0  0  0  0  0  0  0  0  0
   -0.9899    1.3920   -2.5203 H   0  0  0  0  0  0  0  0  0  0  0  0
   -1.8060   -0.1960   -2.3631 H   0  0  0  0  0  0  0  0  0  0  0  0
    0.4655    0.5042   -4.3020 H   0  0  0  0  0  0  0  0  0  0  0  0
   -1.2518    0.4674   -4.7279 H   0  0  0  0  0  0  0  0  0  0  0  0
   -1.1843   -1.9171   -4.0369 H   0  0  0  0  0  0  0  0  0  0  0  0
   -0.5853   -1.3242   -6.4199 H   0  0  0  0  0  0  0  0  0  0  0  0
    2.1800   -1.9552   -5.2281 H   0  0  0  0  0  0  0  0  0  0  0  0
    1.6825   -0.3868   -5.9069 H   0  0  0  0  0  0  0  0  0  0  0  0
    1.7907   -1.8019   -6.9705 H   0  0  0  0  0  0  0  0  0  0  0  0
    0.4394   -3.8954   -5.0752 H   0  0  0  0  0  0  0  0  0  0  0  0
    0.0914   -3.6882   -6.8162 H   0  0  0  0  0  0  0  0  0  0  0  0
   -1.2320   -3.6085   -5.6306 H   0  0  0  0  0  0  0  0  0  0  0  0
    2.7764   -2.7380   -0.1234 H   0  0  0  0  0  0  0  0  0  0  0  0
    4.4896   -4.0966   -1.2981 H   0  0  0  0  0  0  0  0  0  0  0  0
    5.8675   -3.0774   -3.1141 H   0  0  0  0  0  0  0  0  0  0  0  0
    5.5078   -0.6875   -3.7402 H   0  0  0  0  0  0  0  0  0  0  0  0
    3.7894    0.6662   -2.5653 H   0  0  0  0  0  0  0  0  0  0  0  0
  1  2  1  0
  1 20  1  0
  1 21  1  0
  1 22  1  0
  2  3  1  0
  2 23  1  0
  2 24  1  0
  3  4  1  1
  3  5  1  0
  3 14  1  0
  5  6  2  0
  5  7  1  0
  7  8  1  0
  8  9  1  0
  8 25  1  0
  8 26  1  0
  9 10  1  0
  9 27  1  0
  9 28  1  0
 10 11  1  0
 10 29  1  0
 11 12  1  0
 11 13  1  0
 11 30  1  6
 12 31  1  0
 12 32  1  0
 12 33  1  0
 13 34  1  0
 13 35  1  0
 13 36  1  0
 14 15  2  0
 14 19  1  0
 15 16  1  0
 15 37  1  0
 16 17  2  0
 16 38  1  0
 17 18  1  0
 17 39  1  0
 18 19  2  0
 18 40  1  0
 19 41  1  0
M  END

