
     RDKit          3D

 35 36  0  0  0  0  0  0  0  0999 V2000
    1.0849   -0.9395    0.3788 C   0  0  0  0  0  0  0  0  0  0  0  0
    2.3404   -0.1849   -0.0504 C   0  0  1  0  0  0  0  0  0  0  0  0
    3.4206   -0.3829    0.8672 O   0  0  0  0  0  0  0  0  0  0  0  0
    3.5972    0.4010    1.9541 C   0  0  0  0  0  0  0  0  0  0  0  0
    2.6852    1.3744    2.3869 C   0  0  0  0  0  0  0  0  0  0  0  0
    2.9656    2.1359    3.5263 C   0  0  0  0  0  0  0  0  0  0  0  0
    1.8073    3.3387    4.0394 Cl  0  0  0  0  0  0  0  0  0  0  0  0
    4.1395    1.9508    4.2559 C   0  0  0  0  0  0  0  0  0  0  0  0
    5.0490    0.9811    3.8254 C   0  0  0  0  0  0  0  0  0  0  0  0
    4.7886    0.2157    2.6912 C   0  0  0  0  0  0  0  0  0  0  0  0
    5.9439   -0.9824    2.1624 Cl  0  0  0  0  0  0  0  0  0  0  0  0
    2.7824   -0.6309   -1.4597 C   0  0  0  0  0  0  0  0  0  0  0  0
    2.0299   -0.4244   -2.3965 O   0  0  0  0  0  0  0  0  0  0  0  0
    4.0009   -1.2349   -1.5200 N   0  0  0  0  0  0  0  0  0  0  0  0
    4.6665   -1.7625   -2.6484 C   0  0  0  0  0  0  0  0  0  0  0  0
    4.0435   -1.9670   -3.8870 C   0  0  0  0  0  0  0  0  0  0  0  0
    4.7506   -2.5498   -4.9428 C   0  0  0  0  0  0  0  0  0  0  0  0
    6.0819   -2.9311   -4.7682 C   0  0  0  0  0  0  0  0  0  0  0  0
    6.7158   -2.7045   -3.5444 C   0  0  0  0  0  0  0  0  0  0  0  0
    6.0326   -2.1095   -2.4745 C   0  0  0  0  0  0  0  0  0  0  0  0
    6.6387   -1.9132   -1.2255 N   0  0  0  0  0  0  0  0  0  0  0  0
    0.6966   -0.5656    1.3374 H   0  0  0  0  0  0  0  0  0  0  0  0
    1.3072   -2.0122    0.4870 H   0  0  0  0  0  0  0  0  0  0  0  0
    0.3129   -0.8144   -0.3931 H   0  0  0  0  0  0  0  0  0  0  0  0
    2.1281    0.8932   -0.1466 H   0  0  0  0  0  0  0  0  0  0  0  0
    1.7519    1.5463    1.8543 H   0  0  0  0  0  0  0  0  0  0  0  0
    4.3399    2.5519    5.1430 H   0  0  0  0  0  0  0  0  0  0  0  0
    5.9783    0.8147    4.3728 H   0  0  0  0  0  0  0  0  0  0  0  0
    4.4595   -1.3813   -0.6239 H   0  0  0  0  0  0  0  0  0  0  0  0
    3.0044   -1.6667   -4.0040 H   0  0  0  0  0  0  0  0  0  0  0  0
    4.2510   -2.7072   -5.9014 H   0  0  0  0  0  0  0  0  0  0  0  0
    6.6384   -3.3932   -5.5874 H   0  0  0  0  0  0  0  0  0  0  0  0
    7.7663   -2.9796   -3.4109 H   0  0  0  0  0  0  0  0  0  0  0  0
    7.6229   -2.1595   -1.2028 H   0  0  0  0  0  0  0  0  0  0  0  0
    6.4996   -0.9930   -0.8129 H   0  0  0  0  0  0  0  0  0  0  0  0
  1  2  1  0
  1 22  1  0
  1 23  1  0
  1 24  1  0
  2  3  1  0
  2 12  1  0
  2 25  1  6
  3  4  1  0
  4  5  2  0
  4 10  1  0
  5  6  1  0
  5 26  1  0
  6  7  1  0
  6  8  2  0
  8  9  1  0
  8 27  1  0
  9 10  2  0
  9 28  1  0
 10 11  1  0
 12 13  2  0
 12 14  1  0
 14 15  1  0
 14 29  1  0
 15 16  2  0
 15 20  1  0
 16 17  1  0
 16 30  1  0
 17 18  2  0
 17 31  1  0
 18 19  1  0
 18 32  1  0
 19 20  2  0
 19 33  1  0
 20 21  1  0
 21 34  1  0
 21 35  1  0
M  END

