
     RDKit          3D

 44 45  0  0  0  0  0  0  0  0999 V2000
    1.8291   -0.9184    0.7689 N   0  0  0  0  0  0  0  0  0  0  0  0
    3.1360   -0.8008    0.4176 C   0  0  0  0  0  0  0  0  0  0  0  0
    4.0051   -1.5004    0.9248 O   0  0  0  0  0  0  0  0  0  0  0  0
    3.4253    0.2624   -0.6471 C   0  0  0  0  0  0  0  0  0  0  0  0
    4.9266    0.3992   -0.9686 C   0  0  1  0  0  0  0  0  0  0  0  0
    5.4357   -0.9037   -1.4060 N   0  0  0  0  0  0  0  0  0  0  0  0
    5.2044   -1.5011   -2.6027 C   0  0  0  0  0  0  0  0  0  0  0  0
    4.8857   -0.9463   -3.6465 O   0  0  0  0  0  0  0  0  0  0  0  0
    5.3777   -3.0101   -2.5490 C   0  0  0  0  0  0  0  0  0  0  0  0
    5.5318   -3.7492   -3.7283 C   0  0  0  0  0  0  0  0  0  0  0  0
    5.6434   -5.1384   -3.6324 C   0  0  0  0  0  0  0  0  0  0  0  0
    5.5682   -5.7450   -2.3763 C   0  0  0  0  0  0  0  0  0  0  0  0
    5.3849   -4.9225   -1.2588 C   0  0  0  0  0  0  0  0  0  0  0  0
    5.2318   -5.5160    0.1260 C   0  0  0  0  0  0  0  0  0  0  0  0
    5.3705   -6.6945    0.3401 O   0  0  0  0  0  0  0  0  0  0  0  0
    4.9157   -4.6376    1.0768 O   0  0  0  0  0  0  0  0  0  0  0  0
    5.3092   -3.5940   -1.3493 N   0  0  0  0  0  0  0  0  0  0  0  0
    5.2483    1.5610   -1.9439 C   0  0  1  0  0  0  0  0  0  0  0  0
    4.8833    2.9457   -1.3592 C   0  0  0  0  0  0  0  0  0  0  0  0
    5.8180    3.4003   -0.2271 C   0  0  0  0  0  0  0  0  0  0  0  0
    7.2880    3.3770   -0.6671 C   0  0  0  0  0  0  0  0  0  0  0  0
    7.6834    2.0120   -1.2462 C   0  0  0  0  0  0  0  0  0  0  0  0
    6.7326    1.5799   -2.3712 C   0  0  0  0  0  0  0  0  0  0  0  0
    1.5749   -1.6134    1.4619 H   0  0  0  0  0  0  0  0  0  0  0  0
    1.1029   -0.3491    0.3553 H   0  0  0  0  0  0  0  0  0  0  0  0
    3.0098    1.2195   -0.2927 H   0  0  0  0  0  0  0  0  0  0  0  0
    2.8719    0.0047   -1.5675 H   0  0  0  0  0  0  0  0  0  0  0  0
    5.4397    0.5867   -0.0134 H   0  0  0  0  0  0  0  0  0  0  0  0
    5.5274   -1.5643   -0.6365 H   0  0  0  0  0  0  0  0  0  0  0  0
    5.5554   -3.2215   -4.6828 H   0  0  0  0  0  0  0  0  0  0  0  0
    5.7784   -5.7449   -4.5315 H   0  0  0  0  0  0  0  0  0  0  0  0
    5.6346   -6.8248   -2.2363 H   0  0  0  0  0  0  0  0  0  0  0  0
    4.8291   -3.7403    0.6914 H   0  0  0  0  0  0  0  0  0  0  0  0
    4.6479    1.3916   -2.8500 H   0  0  0  0  0  0  0  0  0  0  0  0
    3.8337    2.9772   -1.0230 H   0  0  0  0  0  0  0  0  0  0  0  0
    4.9482    3.6782   -2.1832 H   0  0  0  0  0  0  0  0  0  0  0  0
    5.6902    2.7492    0.6572 H   0  0  0  0  0  0  0  0  0  0  0  0
    5.5345    4.4136    0.1042 H   0  0  0  0  0  0  0  0  0  0  0  0
    7.9457    3.6459    0.1768 H   0  0  0  0  0  0  0  0  0  0  0  0
    7.4423    4.1530   -1.4399 H   0  0  0  0  0  0  0  0  0  0  0  0
    7.6841    1.2544   -0.4415 H   0  0  0  0  0  0  0  0  0  0  0  0
    8.7185    2.0464   -1.6260 H   0  0  0  0  0  0  0  0  0  0  0  0
    7.0251    0.5999   -2.7735 H   0  0  0  0  0  0  0  0  0  0  0  0
    6.8273    2.2937   -3.2090 H   0  0  0  0  0  0  0  0  0  0  0  0
  1  2  1  0
  1 24  1  0
  1 25  1  0
  2  3  2  0
  2  4  1  0
  4  5  1  0
  4 26  1  0
  4 27  1  0
  5  6  1  0
  5 18  1  0
  5 28  1  1
  6  7  1  0
  6 29  1  0
  7  8  2  0
  7  9  1  0
  9 10  2  0
  9 17  1  0
 10 11  1  0
 10 30  1  0
 11 12  2  0
 11 31  1  0
 12 13  1  0
 12 32  1  0
 13 14  1  0
 13 17  2  0
 14 15  2  0
 14 16  1  0
 16 33  1  0
 18 19  1  0
 18 23  1  0
 18 34  1  6
 19 20  1  0
 19 35  1  0
 19 36  1  0
 20 21  1  0
 20 37  1  0
 20 38  1  0
 21 22  1  0
 21 39  1  0
 21 40  1  0
 22 23  1  0
 22 41  1  0
 22 42  1  0
 23 43  1  0
 23 44  1  0
M  END

