
     RDKit          3D

 34 35  0  0  0  0  0  0  0  0999 V2000
    1.1932    0.8872   -0.5237 C   0  0  0  0  0  0  0  0  0  0  0  0
    2.6073    1.1664   -0.1103 C   0  0  0  0  0  0  0  0  0  0  0  0
    3.3803    0.3300    0.5919 C   0  0  0  0  0  0  0  0  0  0  0  0
    4.8155    0.5760    0.9502 C   0  0  1  0  0  0  0  0  0  0  0  0
    5.4317   -0.1093    0.3323 H   0  0  0  0  0  0  0  0  0  0  0  0
    5.2206    1.9172    0.6127 O   0  0  0  0  0  0  0  0  0  0  0  0
    6.2562    2.3287    1.3920 C   0  0  0  0  0  0  0  0  0  0  0  0
    6.7965    3.3864    1.2477 O   0  0  0  0  0  0  0  0  0  0  0  0
    6.5608    1.2327    2.4082 C   0  0  0  0  0  0  0  0  0  0  0  0
    5.2881    0.3725    2.4179 C   0  0  1  0  0  0  0  0  0  0  0  0
    5.5129   -0.6924    2.5799 H   0  0  0  0  0  0  0  0  0  0  0  0
    4.3414    0.7858    3.5483 C   0  0  1  0  0  0  0  0  0  0  0  0
    4.9254    0.7052    4.4895 H   0  0  0  0  0  0  0  0  0  0  0  0
    3.6629    2.1606    3.5205 C   0  0  0  0  0  0  0  0  0  0  0  0
    2.5452    1.9571    4.3664 O   0  0  0  0  0  0  0  0  0  0  0  0
    2.1825    0.5748    4.3342 C   0  0  2  0  0  0  0  0  0  0  0  0
    0.8707    0.3815    3.5826 C   0  0  0  0  0  0  0  0  0  0  0  0
    2.1240    0.0619    5.7711 C   0  0  0  0  0  0  0  0  0  0  0  0
    3.2240   -0.0863    3.6086 O   0  0  0  0  0  0  0  0  0  0  0  0
    0.5017    1.6469   -0.1183 H   0  0  0  0  0  0  0  0  0  0  0  0
    0.8510   -0.1028   -0.1849 H   0  0  0  0  0  0  0  0  0  0  0  0
    1.0872    0.9294   -1.6220 H   0  0  0  0  0  0  0  0  0  0  0  0
    3.0290    2.1318   -0.4118 H   0  0  0  0  0  0  0  0  0  0  0  0
    2.9990   -0.6460    0.9099 H   0  0  0  0  0  0  0  0  0  0  0  0
    6.8450    1.6696    3.3758 H   0  0  0  0  0  0  0  0  0  0  0  0
    7.4318    0.6664    2.0373 H   0  0  0  0  0  0  0  0  0  0  0  0
    3.3530    2.4417    2.4996 H   0  0  0  0  0  0  0  0  0  0  0  0
    4.2849    2.9662    3.9398 H   0  0  0  0  0  0  0  0  0  0  0  0
    0.0506    0.8804    4.1197 H   0  0  0  0  0  0  0  0  0  0  0  0
    0.6345   -0.6895    3.4911 H   0  0  0  0  0  0  0  0  0  0  0  0
    0.9512    0.8129    2.5754 H   0  0  0  0  0  0  0  0  0  0  0  0
    1.3890    0.6410    6.3497 H   0  0  0  0  0  0  0  0  0  0  0  0
    3.1060    0.1733    6.2540 H   0  0  0  0  0  0  0  0  0  0  0  0
    1.8364   -0.9999    5.7902 H   0  0  0  0  0  0  0  0  0  0  0  0
  1  2  1  0
  1 20  1  0
  1 21  1  0
  1 22  1  0
  2  3  2  0
  2 23  1  0
  3  4  1  0
  3 24  1  0
  4  5  1  6
  4  6  1  0
  4 10  1  0
  6  7  1  0
  7  8  2  0
  7  9  1  0
  9 10  1  0
  9 25  1  0
  9 26  1  0
 10 11  1  1
 10 12  1  0
 12 13  1  1
 12 14  1  0
 12 19  1  0
 14 15  1  0
 14 27  1  0
 14 28  1  0
 15 16  1  0
 16 17  1  6
 16 18  1  0
 16 19  1  0
 17 29  1  0
 17 30  1  0
 17 31  1  0
 18 32  1  0
 18 33  1  0
 18 34  1  0
M  END

