
     RDKit          3D

 62 66  0  0  0  0  0  0  0  0999 V2000
    6.7570   -2.1827    1.6293 C   0  0  0  0  0  0  0  0  0  0  0  0
    7.7765   -2.5629    0.5689 C   0  0  0  0  0  0  0  0  0  0  0  0
    8.1659   -1.4266   -0.2267 O   0  0  0  0  0  0  0  0  0  0  0  0
    7.4026   -1.1243   -1.2949 C   0  0  0  0  0  0  0  0  0  0  0  0
    6.4243   -1.7303   -1.6369 O   0  0  0  0  0  0  0  0  0  0  0  0
    7.9903    0.0977   -1.9846 C   0  0  0  0  0  0  0  0  0  0  0  0
    7.2039    0.4197   -3.0924 O   0  0  0  0  0  0  0  0  0  0  0  0
    7.5508    1.4856   -3.8671 C   0  0  0  0  0  0  0  0  0  0  0  0
    6.7191    1.7399   -4.9718 C   0  0  0  0  0  0  0  0  0  0  0  0
    6.9931    2.8060   -5.8193 C   0  0  0  0  0  0  0  0  0  0  0  0
    8.0950    3.6563   -5.6039 C   0  0  0  0  0  0  0  0  0  0  0  0
    8.3373    4.8294   -6.5639 C   0  0  1  0  0  0  0  0  0  0  0  0
    9.3148    5.8691   -6.0427 C   0  0  0  0  0  0  0  0  0  0  0  0
    8.9544    6.9918   -5.3153 C   0  0  0  0  0  0  0  0  0  0  0  0
    7.6167    7.4650   -4.8438 C   0  0  0  0  0  0  0  0  0  0  0  0
   10.0926    7.7107   -4.9897 N   0  0  0  0  0  0  0  0  0  0  0  0
   10.0972    8.5801   -4.4737 H   0  0  0  0  0  0  0  0  0  0  0  0
   11.2074    7.0794   -5.4931 C   0  0  0  0  0  0  0  0  0  0  0  0
   12.5598    7.4368   -5.4161 C   0  0  0  0  0  0  0  0  0  0  0  0
   13.4868    6.5930   -6.0227 C   0  0  0  0  0  0  0  0  0  0  0  0
   13.0710    5.4212   -6.6894 C   0  0  0  0  0  0  0  0  0  0  0  0
   11.7255    5.0708   -6.7672 C   0  0  0  0  0  0  0  0  0  0  0  0
   10.7594    5.9043   -6.1657 C   0  0  0  0  0  0  0  0  0  0  0  0
    8.6206    4.3842   -7.9949 C   0  0  0  0  0  0  0  0  0  0  0  0
    8.3283    5.1512   -9.1103 C   0  0  0  0  0  0  0  0  0  0  0  0
    7.7269    6.5152   -9.2170 C   0  0  0  0  0  0  0  0  0  0  0  0
    8.7281    4.4751  -10.2488 N   0  0  0  0  0  0  0  0  0  0  0  0
    8.6199    4.8210  -11.1926 H   0  0  0  0  0  0  0  0  0  0  0  0
    9.2791    3.2622   -9.9055 C   0  0  0  0  0  0  0  0  0  0  0  0
    9.8102    2.2526  -10.7184 C   0  0  0  0  0  0  0  0  0  0  0  0
   10.3140    1.1153  -10.0931 C   0  0  0  0  0  0  0  0  0  0  0  0
   10.2854    0.9922   -8.6880 C   0  0  0  0  0  0  0  0  0  0  0  0
    9.7525    1.9953   -7.8827 C   0  0  0  0  0  0  0  0  0  0  0  0
    9.2322    3.1632   -8.4824 C   0  0  0  0  0  0  0  0  0  0  0  0
    8.9061    3.3951   -4.4974 C   0  0  0  0  0  0  0  0  0  0  0  0
    8.6499    2.3202   -3.6324 C   0  0  0  0  0  0  0  0  0  0  0  0
    6.5384   -3.0537    2.2678 H   0  0  0  0  0  0  0  0  0  0  0  0
    5.8146   -1.8552    1.1656 H   0  0  0  0  0  0  0  0  0  0  0  0
    7.1380   -1.3729    2.2709 H   0  0  0  0  0  0  0  0  0  0  0  0
    7.3794   -3.3434   -0.0969 H   0  0  0  0  0  0  0  0  0  0  0  0
    8.7123   -2.9199    1.0229 H   0  0  0  0  0  0  0  0  0  0  0  0
    9.0364   -0.1344   -2.2634 H   0  0  0  0  0  0  0  0  0  0  0  0
    8.0347    0.9207   -1.2451 H   0  0  0  0  0  0  0  0  0  0  0  0
    5.8645    1.0815   -5.1399 H   0  0  0  0  0  0  0  0  0  0  0  0
    6.3412    2.9814   -6.6800 H   0  0  0  0  0  0  0  0  0  0  0  0
    7.3635    5.3467   -6.6137 H   0  0  0  0  0  0  0  0  0  0  0  0
    6.8030    6.9292   -5.3508 H   0  0  0  0  0  0  0  0  0  0  0  0
    7.4799    8.5436   -5.0338 H   0  0  0  0  0  0  0  0  0  0  0  0
    7.4850    7.3025   -3.7592 H   0  0  0  0  0  0  0  0  0  0  0  0
   12.8766    8.3447   -4.8957 H   0  0  0  0  0  0  0  0  0  0  0  0
   14.5504    6.8417   -5.9797 H   0  0  0  0  0  0  0  0  0  0  0  0
   13.8205    4.7759   -7.1546 H   0  0  0  0  0  0  0  0  0  0  0  0
   11.4263    4.1609   -7.2877 H   0  0  0  0  0  0  0  0  0  0  0  0
    7.1569    6.7681   -8.3125 H   0  0  0  0  0  0  0  0  0  0  0  0
    7.0410    6.5861  -10.0781 H   0  0  0  0  0  0  0  0  0  0  0  0
    8.4998    7.2944   -9.3410 H   0  0  0  0  0  0  0  0  0  0  0  0
    9.8310    2.3561  -11.8066 H   0  0  0  0  0  0  0  0  0  0  0  0
   10.7369    0.3093  -10.6981 H   0  0  0  0  0  0  0  0  0  0  0  0
   10.6875    0.0886   -8.2227 H   0  0  0  0  0  0  0  0  0  0  0  0
    9.7390    1.8744   -6.7994 H   0  0  0  0  0  0  0  0  0  0  0  0
    9.7662    4.0369   -4.2974 H   0  0  0  0  0  0  0  0  0  0  0  0
    9.3155    2.1546   -2.7846 H   0  0  0  0  0  0  0  0  0  0  0  0
  1  2  1  0
  1 37  1  0
  1 38  1  0
  1 39  1  0
  2  3  1  0
  2 40  1  0
  2 41  1  0
  3  4  1  0
  4  5  2  0
  4  6  1  0
  6  7  1  0
  6 42  1  0
  6 43  1  0
  7  8  1  0
  8  9  2  0
  8 36  1  0
  9 10  1  0
  9 44  1  0
 10 11  2  0
 10 45  1  0
 11 12  1  0
 11 35  1  0
 12 13  1  0
 12 24  1  0
 12 46  1  6
 13 14  2  0
 13 23  1  0
 14 15  1  0
 14 16  1  0
 15 47  1  0
 15 48  1  0
 15 49  1  0
 16 17  1  0
 16 18  1  0
 18 19  1  0
 18 23  2  0
 19 20  2  0
 19 50  1  0
 20 21  1  0
 20 51  1  0
 21 22  2  0
 21 52  1  0
 22 23  1  0
 22 53  1  0
 24 25  2  0
 24 34  1  0
 25 26  1  0
 25 27  1  0
 26 54  1  0
 26 55  1  0
 26 56  1  0
 27 28  1  0
 27 29  1  0
 29 30  1  0
 29 34  2  0
 30 31  2  0
 30 57  1  0
 31 32  1  0
 31 58  1  0
 32 33  2  0
 32 59  1  0
 33 34  1  0
 33 60  1  0
 35 36  2  0
 35 61  1  0
 36 62  1  0
M  END

