
     RDKit          3D

 39 42  0  0  0  0  0  0  0  0999 V2000
    0.8377    0.4572   -0.3099 S   0  0  0  0  0  0  0  0  0  0  0  0
    2.4862    0.2285   -0.3440 C   0  0  0  0  0  0  0  0  0  0  0  0
    3.4367    1.2038   -0.3620 N   0  0  0  0  0  0  0  0  0  0  0  0
    3.2232    2.1944   -0.3391 H   0  0  0  0  0  0  0  0  0  0  0  0
    4.7162    0.7658   -0.4096 N   0  0  0  0  0  0  0  0  0  0  0  0
    4.6231   -0.5351   -0.4296 C   0  0  0  0  0  0  0  0  0  0  0  0
    5.7710   -1.4219   -0.4773 C   0  0  0  0  0  0  0  0  0  0  0  0
    7.1223   -1.1042   -0.5717 C   0  0  0  0  0  0  0  0  0  0  0  0
    7.7920   -2.3552   -0.5619 C   0  0  0  0  0  0  0  0  0  0  0  0
    9.2395   -2.6278   -0.6402 C   0  0  0  0  0  0  0  0  0  0  0  0
   10.1733   -1.5814   -0.7371 C   0  0  0  0  0  0  0  0  0  0  0  0
   11.5418   -1.8501   -0.8107 C   0  0  0  0  0  0  0  0  0  0  0  0
   12.0024   -3.1696   -0.7886 C   0  0  0  0  0  0  0  0  0  0  0  0
   11.0814   -4.2187   -0.6921 C   0  0  0  0  0  0  0  0  0  0  0  0
    9.7143   -3.9525   -0.6186 C   0  0  0  0  0  0  0  0  0  0  0  0
    6.9055   -3.3593   -0.4670 N   0  0  0  0  0  0  0  0  0  0  0  0
    5.7110   -2.7830   -0.4171 N   0  0  0  0  0  0  0  0  0  0  0  0
    4.8490   -3.3152   -0.3506 H   0  0  0  0  0  0  0  0  0  0  0  0
    3.2792   -0.9333   -0.3838 N   0  0  0  0  0  0  0  0  0  0  0  0
    2.9533   -2.2553   -0.4633 N   0  0  0  0  0  0  0  0  0  0  0  0
    1.7405   -2.6554   -0.2943 C   0  0  0  0  0  0  0  0  0  0  0  0
    1.4022   -4.0788   -0.4187 C   0  0  0  0  0  0  0  0  0  0  0  0
    2.2851   -5.0297   -0.9668 C   0  0  0  0  0  0  0  0  0  0  0  0
    1.9095   -6.3686   -1.0456 C   0  0  0  0  0  0  0  0  0  0  0  0
    0.6541   -6.7870   -0.5893 C   0  0  0  0  0  0  0  0  0  0  0  0
   -0.2265   -5.8404   -0.0581 C   0  0  0  0  0  0  0  0  0  0  0  0
   -1.8007   -6.3445    0.5061 Cl  0  0  0  0  0  0  0  0  0  0  0  0
    0.1339   -4.4942    0.0253 C   0  0  0  0  0  0  0  0  0  0  0  0
    7.5382   -0.1035   -0.6367 H   0  0  0  0  0  0  0  0  0  0  0  0
    9.8312   -0.5443   -0.7553 H   0  0  0  0  0  0  0  0  0  0  0  0
   12.2520   -1.0226   -0.8855 H   0  0  0  0  0  0  0  0  0  0  0  0
   13.0735   -3.3798   -0.8461 H   0  0  0  0  0  0  0  0  0  0  0  0
   11.4323   -5.2540   -0.6739 H   0  0  0  0  0  0  0  0  0  0  0  0
    8.9920   -4.7668   -0.5429 H   0  0  0  0  0  0  0  0  0  0  0  0
    0.9325   -1.9541   -0.0566 H   0  0  0  0  0  0  0  0  0  0  0  0
    3.2540   -4.7076   -1.3516 H   0  0  0  0  0  0  0  0  0  0  0  0
    2.5958   -7.1026   -1.4747 H   0  0  0  0  0  0  0  0  0  0  0  0
    0.3532   -7.8341   -0.6503 H   0  0  0  0  0  0  0  0  0  0  0  0
   -0.5692   -3.7706    0.4420 H   0  0  0  0  0  0  0  0  0  0  0  0
  1  2  2  0
  2  3  1  0
  2 19  1  0
  3  4  1  0
  3  5  1  0
  5  6  2  0
  6  7  1  0
  6 19  1  0
  7  8  2  0
  7 17  1  0
  8  9  1  0
  8 29  1  0
  9 10  1  0
  9 16  2  0
 10 11  2  0
 10 15  1  0
 11 12  1  0
 11 30  1  0
 12 13  2  0
 12 31  1  0
 13 14  1  0
 13 32  1  0
 14 15  2  0
 14 33  1  0
 15 34  1  0
 16 17  1  0
 17 18  1  0
 19 20  1  0
 20 21  2  0
 21 22  1  0
 21 35  1  0
 22 23  2  0
 22 28  1  0
 23 24  1  0
 23 36  1  0
 24 25  2  0
 24 37  1  0
 25 26  1  0
 25 38  1  0
 26 27  1  0
 26 28  2  0
 28 39  1  0
M  END

