
     RDKit          3D

 56 60  0  0  0  0  0  0  0  0999 V2000
    1.0394   -0.6533    0.1235 C   0  0  0  0  0  0  0  0  0  0  0  0
   -0.0505   -0.2206   -0.5502 C   0  0  0  0  0  0  0  0  0  0  0  0
   -1.4208   -0.4304   -0.0788 C   0  0  0  0  0  0  0  0  0  0  0  0
   -2.5238    0.0402   -0.8171 C   0  0  0  0  0  0  0  0  0  0  0  0
   -3.7937   -0.2014   -0.2977 C   0  0  0  0  0  0  0  0  0  0  0  0
   -3.9867   -0.8514    0.8534 N   0  0  0  0  0  0  0  0  0  0  0  0
   -2.8773   -1.2585    1.4801 C   0  0  0  0  0  0  0  0  0  0  0  0
   -1.6226   -1.0859    1.0827 N   0  0  0  0  0  0  0  0  0  0  0  0
    2.4421   -0.4997   -0.2545 C   0  0  0  0  0  0  0  0  0  0  0  0
    2.8706    0.1519   -1.4311 C   0  0  0  0  0  0  0  0  0  0  0  0
    4.2205    0.2679   -1.7393 C   0  0  0  0  0  0  0  0  0  0  0  0
    5.2199   -0.2593   -0.8922 C   0  0  0  0  0  0  0  0  0  0  0  0
    6.6588   -0.1331   -1.2269 C   0  0  0  0  0  0  0  0  0  0  0  0
    7.1584    0.9868   -1.9206 C   0  0  0  0  0  0  0  0  0  0  0  0
    8.5076    1.1078   -2.2415 C   0  0  0  0  0  0  0  0  0  0  0  0
    9.4288    0.1096   -1.8700 C   0  0  0  0  0  0  0  0  0  0  0  0
   10.8016    0.2301   -2.1890 N   0  0  0  0  0  0  0  0  0  0  0  0
   11.4434    1.4972   -2.1256 C   0  0  0  0  0  0  0  0  0  0  0  0
   11.2137    2.3647   -1.0422 C   0  0  0  0  0  0  0  0  0  0  0  0
   11.8438    3.6090   -0.9884 C   0  0  0  0  0  0  0  0  0  0  0  0
   12.7252    4.0044   -1.9999 C   0  0  0  0  0  0  0  0  0  0  0  0
   12.9639    3.1410   -3.0739 C   0  0  0  0  0  0  0  0  0  0  0  0
   12.3250    1.9020   -3.1443 C   0  0  0  0  0  0  0  0  0  0  0  0
   11.5516   -0.9157   -2.5716 C   0  0  0  0  0  0  0  0  0  0  0  0
   11.0199   -1.8509   -3.4782 C   0  0  0  0  0  0  0  0  0  0  0  0
   11.7593   -2.9760   -3.8465 C   0  0  0  0  0  0  0  0  0  0  0  0
   13.0447   -3.1813   -3.3347 C   0  0  0  0  0  0  0  0  0  0  0  0
   13.5809   -2.2490   -2.4406 C   0  0  0  0  0  0  0  0  0  0  0  0
   12.8417   -1.1298   -2.0538 C   0  0  0  0  0  0  0  0  0  0  0  0
    8.9418   -1.0119   -1.1716 C   0  0  0  0  0  0  0  0  0  0  0  0
    7.5887   -1.1278   -0.8654 C   0  0  0  0  0  0  0  0  0  0  0  0
    4.7926   -0.9095    0.2818 C   0  0  0  0  0  0  0  0  0  0  0  0
    3.4402   -1.0259    0.5909 C   0  0  0  0  0  0  0  0  0  0  0  0
    0.8469   -1.1815    1.0631 H   0  0  0  0  0  0  0  0  0  0  0  0
    0.0483    0.3167   -1.4977 H   0  0  0  0  0  0  0  0  0  0  0  0
   -2.3883    0.5738   -1.7605 H   0  0  0  0  0  0  0  0  0  0  0  0
   -4.6895    0.1420   -0.8296 H   0  0  0  0  0  0  0  0  0  0  0  0
   -3.0211   -1.7937    2.4276 H   0  0  0  0  0  0  0  0  0  0  0  0
    2.1348    0.5670   -2.1233 H   0  0  0  0  0  0  0  0  0  0  0  0
    4.5102    0.7563   -2.6723 H   0  0  0  0  0  0  0  0  0  0  0  0
    6.4789    1.7928   -2.2065 H   0  0  0  0  0  0  0  0  0  0  0  0
    8.8577    1.9890   -2.7817 H   0  0  0  0  0  0  0  0  0  0  0  0
   10.5383    2.0568   -0.2416 H   0  0  0  0  0  0  0  0  0  0  0  0
   11.6534    4.2698   -0.1385 H   0  0  0  0  0  0  0  0  0  0  0  0
   13.2219    4.9763   -1.9511 H   0  0  0  0  0  0  0  0  0  0  0  0
   13.6458    3.4387   -3.8749 H   0  0  0  0  0  0  0  0  0  0  0  0
   12.5062    1.2380   -3.9916 H   0  0  0  0  0  0  0  0  0  0  0  0
   10.0230   -1.6895   -3.8930 H   0  0  0  0  0  0  0  0  0  0  0  0
   11.3300   -3.6920   -4.5524 H   0  0  0  0  0  0  0  0  0  0  0  0
   13.6234   -4.0595   -3.6303 H   0  0  0  0  0  0  0  0  0  0  0  0
   14.5819   -2.3991   -2.0277 H   0  0  0  0  0  0  0  0  0  0  0  0
   13.2613   -0.4126   -1.3457 H   0  0  0  0  0  0  0  0  0  0  0  0
    9.6327   -1.8020   -0.8730 H   0  0  0  0  0  0  0  0  0  0  0  0
    7.2460   -2.0233   -0.3420 H   0  0  0  0  0  0  0  0  0  0  0  0
    5.5331   -1.3084    0.9784 H   0  0  0  0  0  0  0  0  0  0  0  0
    3.1407   -1.5283    1.5147 H   0  0  0  0  0  0  0  0  0  0  0  0
  1  2  2  0
  1  9  1  0
  1 34  1  0
  2  3  1  0
  2 35  1  0
  3  4  2  0
  3  8  1  0
  4  5  1  0
  4 36  1  0
  5  6  2  0
  5 37  1  0
  6  7  1  0
  7  8  2  0
  7 38  1  0
  9 10  2  0
  9 33  1  0
 10 11  1  0
 10 39  1  0
 11 12  2  0
 11 40  1  0
 12 13  1  0
 12 32  1  0
 13 14  2  0
 13 31  1  0
 14 15  1  0
 14 41  1  0
 15 16  2  0
 15 42  1  0
 16 17  1  0
 16 30  1  0
 17 18  1  0
 17 24  1  0
 18 19  2  0
 18 23  1  0
 19 20  1  0
 19 43  1  0
 20 21  2  0
 20 44  1  0
 21 22  1  0
 21 45  1  0
 22 23  2  0
 22 46  1  0
 23 47  1  0
 24 25  2  0
 24 29  1  0
 25 26  1  0
 25 48  1  0
 26 27  2  0
 26 49  1  0
 27 28  1  0
 27 50  1  0
 28 29  2  0
 28 51  1  0
 29 52  1  0
 30 31  2  0
 30 53  1  0
 31 54  1  0
 32 33  2  0
 32 55  1  0
 33 56  1  0
M  END

