
     RDKit          3D

 43 47  0  0  0  0  0  0  0  0999 V2000
    3.2242    0.5902    5.4289 C   0  0  0  0  0  0  0  0  0  0  0  0
    2.8590    0.0700    4.1555 O   0  0  0  0  0  0  0  0  0  0  0  0
    2.7891    0.9013    3.1197 C   0  0  0  0  0  0  0  0  0  0  0  0
    3.0619    2.1908    3.3033 N   0  0  0  0  0  0  0  0  0  0  0  0
    2.9451    2.9459    2.1978 C   0  0  0  0  0  0  0  0  0  0  0  0
    3.1697    4.2941    2.2420 N   0  0  0  0  0  0  0  0  0  0  0  0
    3.5419    5.1621    3.2785 C   0  0  0  0  0  0  0  0  0  0  0  0
    4.1529    4.7041    4.4583 C   0  0  0  0  0  0  0  0  0  0  0  0
    4.5625    5.5981    5.4410 C   0  0  0  0  0  0  0  0  0  0  0  0
    4.3941    6.9847    5.2938 C   0  0  0  0  0  0  0  0  0  0  0  0
    4.8323    7.9231    6.2900 C   0  0  0  0  0  0  0  0  0  0  0  0
    4.6618    9.2661    6.1244 C   0  0  0  0  0  0  0  0  0  0  0  0
    4.0293    9.7937    4.9449 C   0  0  0  0  0  0  0  0  0  0  0  0
    3.8385   11.1744    4.7517 C   0  0  0  0  0  0  0  0  0  0  0  0
    3.2171   11.6589    3.5994 C   0  0  0  0  0  0  0  0  0  0  0  0
    2.7694   10.7788    2.6140 C   0  0  0  0  0  0  0  0  0  0  0  0
    2.9389    9.3895    2.7626 C   0  0  0  0  0  0  0  0  0  0  0  0
    2.4794    8.4497    1.7793 C   0  0  0  0  0  0  0  0  0  0  0  0
    2.6565    7.1056    1.9395 C   0  0  0  0  0  0  0  0  0  0  0  0
    3.3189    6.5586    3.0951 C   0  0  0  0  0  0  0  0  0  0  0  0
    3.7643    7.4713    4.1056 C   0  0  0  0  0  0  0  0  0  0  0  0
    3.5781    8.8812    3.9367 C   0  0  0  0  0  0  0  0  0  0  0  0
    2.6016    2.4849    0.9864 N   0  0  0  0  0  0  0  0  0  0  0  0
    2.3659    1.1760    0.9406 C   0  0  0  0  0  0  0  0  0  0  0  0
    2.0279    0.7069   -0.2568 O   0  0  0  0  0  0  0  0  0  0  0  0
    1.7577   -0.6862   -0.3871 C   0  0  0  0  0  0  0  0  0  0  0  0
    2.4379    0.3289    1.9674 N   0  0  0  0  0  0  0  0  0  0  0  0
    3.1580   -0.2549    6.1259 H   0  0  0  0  0  0  0  0  0  0  0  0
    2.5438    1.3961    5.7420 H   0  0  0  0  0  0  0  0  0  0  0  0
    4.2527    0.9834    5.4163 H   0  0  0  0  0  0  0  0  0  0  0  0
    3.0174    4.7116    1.3314 H   0  0  0  0  0  0  0  0  0  0  0  0
    4.3001    3.6355    4.5885 H   0  0  0  0  0  0  0  0  0  0  0  0
    5.0406    5.2140    6.3462 H   0  0  0  0  0  0  0  0  0  0  0  0
    5.3125    7.5334    7.1918 H   0  0  0  0  0  0  0  0  0  0  0  0
    5.0033    9.9677    6.8902 H   0  0  0  0  0  0  0  0  0  0  0  0
    4.1843   11.8697    5.5213 H   0  0  0  0  0  0  0  0  0  0  0  0
    3.0786   12.7353    3.4697 H   0  0  0  0  0  0  0  0  0  0  0  0
    2.2796   11.1617    1.7147 H   0  0  0  0  0  0  0  0  0  0  0  0
    1.9674    8.8310    0.8919 H   0  0  0  0  0  0  0  0  0  0  0  0
    2.2551    6.4412    1.1714 H   0  0  0  0  0  0  0  0  0  0  0  0
    1.5008   -0.8408   -1.4428 H   0  0  0  0  0  0  0  0  0  0  0  0
    0.9201   -0.9905    0.2582 H   0  0  0  0  0  0  0  0  0  0  0  0
    2.6379   -1.2886   -0.1166 H   0  0  0  0  0  0  0  0  0  0  0  0
  1  2  1  0
  1 28  1  0
  1 29  1  0
  1 30  1  0
  2  3  1  0
  3  4  2  0
  3 27  1  0
  4  5  1  0
  5  6  1  0
  5 23  2  0
  6  7  1  0
  6 31  1  0
  7  8  2  0
  7 20  1  0
  8  9  1  0
  8 32  1  0
  9 10  2  0
  9 33  1  0
 10 11  1  0
 10 21  1  0
 11 12  2  0
 11 34  1  0
 12 13  1  0
 12 35  1  0
 13 14  2  0
 13 22  1  0
 14 15  1  0
 14 36  1  0
 15 16  2  0
 15 37  1  0
 16 17  1  0
 16 38  1  0
 17 18  2  0
 17 22  1  0
 18 19  1  0
 18 39  1  0
 19 20  2  0
 19 40  1  0
 20 21  1  0
 21 22  2  0
 23 24  1  0
 24 25  1  0
 24 27  2  0
 25 26  1  0
 26 41  1  0
 26 42  1  0
 26 43  1  0
M  END

