
     RDKit          3D

 36 37  0  0  0  0  0  0  0  0999 V2000
    0.9284    0.2506    0.5094 C   0  0  0  0  0  0  0  0  0  0  0  0
    2.2526    0.2275    0.0241 O   0  0  0  0  0  0  0  0  0  0  0  0
    2.8637    1.3906   -0.3142 C   0  0  0  0  0  0  0  0  0  0  0  0
    2.2964    2.6595   -0.1304 C   0  0  0  0  0  0  0  0  0  0  0  0
    3.0050    3.8048   -0.5022 C   0  0  0  0  0  0  0  0  0  0  0  0
    4.2848    3.7178   -1.0621 C   0  0  0  0  0  0  0  0  0  0  0  0
    5.0513    4.9714   -1.4384 C   0  0  0  0  0  0  0  0  0  0  0  0
    4.2248    6.0362   -1.8574 O   0  0  0  0  0  0  0  0  0  0  0  0
    4.8391    2.4450   -1.2457 C   0  0  0  0  0  0  0  0  0  0  0  0
    4.1584    1.2810   -0.8731 C   0  0  0  0  0  0  0  0  0  0  0  0
    4.7486   -0.0715   -1.1327 C   0  0  0  0  0  0  0  0  0  0  0  0
    4.5231   -0.5140   -2.9089 S   0  0  1  0  0  0  0  0  0  0  0  0
    3.0831   -0.5084   -3.2022 O   0  0  0  0  0  0  0  0  0  0  0  0
    5.4608    0.3139   -3.6868 O   0  0  0  0  0  0  0  0  0  0  0  0
    5.0960   -2.2195   -3.0076 C   0  0  0  0  0  0  0  0  0  0  0  0
    4.1839   -3.2587   -2.7962 C   0  0  0  0  0  0  0  0  0  0  0  0
    4.6230   -4.5805   -2.8750 C   0  0  0  0  0  0  0  0  0  0  0  0
    5.9643   -4.8282   -3.1708 C   0  0  0  0  0  0  0  0  0  0  0  0
    6.3860   -6.0942   -3.2472 F   0  0  0  0  0  0  0  0  0  0  0  0
    6.8774   -3.7978   -3.3973 C   0  0  0  0  0  0  0  0  0  0  0  0
    6.4353   -2.4766   -3.3173 C   0  0  0  0  0  0  0  0  0  0  0  0
    0.6384   -0.7955    0.6756 H   0  0  0  0  0  0  0  0  0  0  0  0
    0.2354    0.7026   -0.2217 H   0  0  0  0  0  0  0  0  0  0  0  0
    0.8499    0.7991    1.4653 H   0  0  0  0  0  0  0  0  0  0  0  0
    1.3003    2.7649    0.2993 H   0  0  0  0  0  0  0  0  0  0  0  0
    2.5540    4.7904   -0.3655 H   0  0  0  0  0  0  0  0  0  0  0  0
    5.8189    4.7172   -2.1969 H   0  0  0  0  0  0  0  0  0  0  0  0
    5.5993    5.3540   -0.5592 H   0  0  0  0  0  0  0  0  0  0  0  0
    3.7198    5.7327   -2.6246 H   0  0  0  0  0  0  0  0  0  0  0  0
    5.8223    2.3453   -1.7137 H   0  0  0  0  0  0  0  0  0  0  0  0
    4.2499   -0.8580   -0.5537 H   0  0  0  0  0  0  0  0  0  0  0  0
    5.8347   -0.1043   -0.9689 H   0  0  0  0  0  0  0  0  0  0  0  0
    3.1376   -3.0246   -2.5905 H   0  0  0  0  0  0  0  0  0  0  0  0
    3.9443   -5.4216   -2.7216 H   0  0  0  0  0  0  0  0  0  0  0  0
    7.9128   -4.0432   -3.6409 H   0  0  0  0  0  0  0  0  0  0  0  0
    7.1134   -1.6435   -3.5119 H   0  0  0  0  0  0  0  0  0  0  0  0
  1  2  1  0
  1 22  1  0
  1 23  1  0
  1 24  1  0
  2  3  1  0
  3  4  2  0
  3 10  1  0
  4  5  1  0
  4 25  1  0
  5  6  2  0
  5 26  1  0
  6  7  1  0
  6  9  1  0
  7  8  1  0
  7 27  1  0
  7 28  1  0
  8 29  1  0
  9 10  2  0
  9 30  1  0
 10 11  1  0
 12 11  1  1
 11 31  1  0
 11 32  1  0
 12 13  2  0
 12 14  2  0
 12 15  1  0
 15 16  2  0
 15 21  1  0
 16 17  1  0
 16 33  1  0
 17 18  2  0
 17 34  1  0
 18 19  1  0
 18 20  1  0
 20 21  2  0
 20 35  1  0
 21 36  1  0
M  END

