
     RDKit          3D

 46 48  0  0  0  0  0  0  0  0999 V2000
    0.9476    0.8850    1.8470 C   0  0  0  0  0  0  0  0  0  0  0  0
    2.4205    1.0655    1.4960 C   0  0  0  0  0  0  0  0  0  0  0  0
    3.3641    0.5372    2.5728 C   0  0  0  0  0  0  0  0  0  0  0  0
    2.9247    0.0323    3.5899 O   0  0  0  0  0  0  0  0  0  0  0  0
    4.8428    0.6511    2.3560 C   0  0  0  0  0  0  0  0  0  0  0  0
    5.7034    0.1598    3.3599 C   0  0  0  0  0  0  0  0  0  0  0  0
    7.0800    0.2336    3.2236 C   0  0  0  0  0  0  0  0  0  0  0  0
    7.6445    0.8068    2.0674 C   0  0  0  0  0  0  0  0  0  0  0  0
    8.9988    0.8340    2.0219 O   0  0  0  0  0  0  0  0  0  0  0  0
    9.6444    1.4109    0.9177 C   0  0  0  0  0  0  0  0  0  0  0  0
   11.1577    1.3880    1.0698 C   0  0  0  0  0  0  0  0  0  0  0  0
   11.8852    1.5947    0.1273 O   0  0  0  0  0  0  0  0  0  0  0  0
   11.5619    1.1611    2.3175 O   0  0  0  0  0  0  0  0  0  0  0  0
   12.9912    1.1430    2.5492 C   0  0  0  0  0  0  0  0  0  0  0  0
   13.5528    2.5184    2.7768 C   0  0  0  0  0  0  0  0  0  0  0  0
   13.9491    3.3884    1.7871 C   0  0  0  0  0  0  0  0  0  0  0  0
   14.5166    4.8587    2.4838 S   0  0  0  0  0  0  0  0  0  0  0  0
   14.1842    4.2000    4.0879 C   0  0  0  0  0  0  0  0  0  0  0  0
   14.4452    4.9540    5.3225 C   0  0  0  0  0  0  0  0  0  0  0  0
   14.9951    6.2483    5.3126 C   0  0  0  0  0  0  0  0  0  0  0  0
   15.2308    6.9380    6.5007 C   0  0  0  0  0  0  0  0  0  0  0  0
   14.9148    6.3318    7.7206 C   0  0  0  0  0  0  0  0  0  0  0  0
   15.2072    7.1894    9.2130 Cl  0  0  0  0  0  0  0  0  0  0  0  0
   14.3665    5.0446    7.7557 C   0  0  0  0  0  0  0  0  0  0  0  0
   14.1350    4.3643    6.5631 C   0  0  0  0  0  0  0  0  0  0  0  0
   13.6919    2.9909    4.0546 N   0  0  0  0  0  0  0  0  0  0  0  0
    6.8055    1.3007    1.0563 C   0  0  0  0  0  0  0  0  0  0  0  0
    5.4183    1.2188    1.2102 C   0  0  0  0  0  0  0  0  0  0  0  0
    0.3037    1.2782    1.0455 H   0  0  0  0  0  0  0  0  0  0  0  0
    0.6978    1.4074    2.7824 H   0  0  0  0  0  0  0  0  0  0  0  0
    0.7053   -0.1773    1.9988 H   0  0  0  0  0  0  0  0  0  0  0  0
    2.6565    2.1311    1.3235 H   0  0  0  0  0  0  0  0  0  0  0  0
    2.6638    0.5581    0.5451 H   0  0  0  0  0  0  0  0  0  0  0  0
    5.2509   -0.2810    4.2503 H   0  0  0  0  0  0  0  0  0  0  0  0
    7.7541   -0.1425    3.9957 H   0  0  0  0  0  0  0  0  0  0  0  0
    9.3535    2.4713    0.7842 H   0  0  0  0  0  0  0  0  0  0  0  0
    9.4083    0.8867   -0.0254 H   0  0  0  0  0  0  0  0  0  0  0  0
   13.4794    0.6527    1.6967 H   0  0  0  0  0  0  0  0  0  0  0  0
   13.1180    0.5460    3.4597 H   0  0  0  0  0  0  0  0  0  0  0  0
   13.9094    3.2318    0.7110 H   0  0  0  0  0  0  0  0  0  0  0  0
   15.2473    6.7325    4.3655 H   0  0  0  0  0  0  0  0  0  0  0  0
   15.6579    7.9418    6.4870 H   0  0  0  0  0  0  0  0  0  0  0  0
   14.1244    4.5847    8.7152 H   0  0  0  0  0  0  0  0  0  0  0  0
   13.7075    3.3605    6.5714 H   0  0  0  0  0  0  0  0  0  0  0  0
    7.2148    1.7462    0.1496 H   0  0  0  0  0  0  0  0  0  0  0  0
    4.7878    1.6097    0.4095 H   0  0  0  0  0  0  0  0  0  0  0  0
  1  2  1  0
  1 29  1  0
  1 30  1  0
  1 31  1  0
  2  3  1  0
  2 32  1  0
  2 33  1  0
  3  4  2  0
  3  5  1  0
  5  6  2  0
  5 28  1  0
  6  7  1  0
  6 34  1  0
  7  8  2  0
  7 35  1  0
  8  9  1  0
  8 27  1  0
  9 10  1  0
 10 11  1  0
 10 36  1  0
 10 37  1  0
 11 12  2  0
 11 13  1  0
 13 14  1  0
 14 15  1  0
 14 38  1  0
 14 39  1  0
 15 16  2  0
 15 26  1  0
 16 17  1  0
 16 40  1  0
 17 18  1  0
 18 19  1  0
 18 26  2  0
 19 20  2  0
 19 25  1  0
 20 21  1  0
 20 41  1  0
 21 22  2  0
 21 42  1  0
 22 23  1  0
 22 24  1  0
 24 25  2  0
 24 43  1  0
 25 44  1  0
 27 28  2  0
 27 45  1  0
 28 46  1  0
M  END

