
     RDKit          3D

 54 58  0  0  0  0  0  0  0  0999 V2000
    1.3350    0.1962    0.5073 O   0  0  0  0  0  0  0  0  0  0  0  0
    2.5318    0.0265    0.3366 C   0  0  0  0  0  0  0  0  0  0  0  0
    3.0741   -1.3206   -0.1369 C   0  0  0  0  0  0  0  0  0  0  0  0
    1.6666   -2.4603   -0.3494 S   0  0  0  0  0  0  0  0  0  0  0  0
    2.5515   -3.8905   -0.8910 C   0  0  0  0  0  0  0  0  0  0  0  0
    3.8569   -3.8884   -1.0287 N   0  0  0  0  0  0  0  0  0  0  0  0
    4.4808   -5.0271   -1.4520 C   0  0  0  0  0  0  0  0  0  0  0  0
    3.8189   -6.1875   -1.7458 C   0  0  0  0  0  0  0  0  0  0  0  0
    2.4533   -6.1880   -1.6012 N   0  0  0  0  0  0  0  0  0  0  0  0
    1.6491   -7.2197   -1.8395 N   0  0  0  0  0  0  0  0  0  0  0  0
    0.4041   -6.7758   -1.5683 C   0  0  0  0  0  0  0  0  0  0  0  0
   -0.7519   -7.6742   -1.7277 C   0  0  0  0  0  0  0  0  0  0  0  0
   -0.5665   -8.9994   -2.1636 C   0  0  0  0  0  0  0  0  0  0  0  0
   -1.6486   -9.8630   -2.3202 C   0  0  0  0  0  0  0  0  0  0  0  0
   -2.9405   -9.4060   -2.0398 C   0  0  0  0  0  0  0  0  0  0  0  0
   -4.3032  -10.4842   -2.2341 Cl  0  0  0  0  0  0  0  0  0  0  0  0
   -3.1517   -8.0944   -1.6054 C   0  0  0  0  0  0  0  0  0  0  0  0
   -2.0603   -7.2396   -1.4526 C   0  0  0  0  0  0  0  0  0  0  0  0
    0.4189   -5.4262   -1.1464 C   0  0  0  0  0  0  0  0  0  0  0  0
    1.7630   -5.0577   -1.1733 C   0  0  0  0  0  0  0  0  0  0  0  0
    3.4562    1.0177    0.5520 N   0  0  0  0  0  0  0  0  0  0  0  0
    4.9009    0.9003    0.4194 C   0  0  0  0  0  0  0  0  0  0  0  0
    5.4527    2.0408   -0.4383 C   0  0  0  0  0  0  0  0  0  0  0  0
    5.0314    3.3399    0.0791 N   0  0  0  0  0  0  0  0  0  0  0  0
    5.7702    4.4767   -0.3186 C   0  0  0  0  0  0  0  0  0  0  0  0
    5.1561    5.6276   -0.8512 C   0  0  0  0  0  0  0  0  0  0  0  0
    5.9077    6.7555   -1.1968 C   0  0  0  0  0  0  0  0  0  0  0  0
    7.2870    6.7363   -1.0319 C   0  0  0  0  0  0  0  0  0  0  0  0
    8.0137    7.8147   -1.3697 F   0  0  0  0  0  0  0  0  0  0  0  0
    7.9288    5.6114   -0.5154 C   0  0  0  0  0  0  0  0  0  0  0  0
    7.1730    4.4982   -0.1558 C   0  0  0  0  0  0  0  0  0  0  0  0
    3.5828    3.4484    0.1801 C   0  0  0  0  0  0  0  0  0  0  0  0
    3.0167    2.3192    1.0416 C   0  0  0  0  0  0  0  0  0  0  0  0
    3.7826   -1.7546    0.5841 H   0  0  0  0  0  0  0  0  0  0  0  0
    3.6133   -1.2366   -1.0919 H   0  0  0  0  0  0  0  0  0  0  0  0
    5.5682   -4.9835   -1.5535 H   0  0  0  0  0  0  0  0  0  0  0  0
    4.2753   -7.1160   -2.0853 H   0  0  0  0  0  0  0  0  0  0  0  0
    0.4454   -9.3455   -2.3795 H   0  0  0  0  0  0  0  0  0  0  0  0
   -1.4985  -10.8897   -2.6585 H   0  0  0  0  0  0  0  0  0  0  0  0
   -4.1643   -7.7498   -1.3899 H   0  0  0  0  0  0  0  0  0  0  0  0
   -2.2388   -6.2175   -1.1127 H   0  0  0  0  0  0  0  0  0  0  0  0
   -0.4180   -4.7965   -0.8599 H   0  0  0  0  0  0  0  0  0  0  0  0
    5.1722   -0.0594   -0.0364 H   0  0  0  0  0  0  0  0  0  0  0  0
    5.3694    0.9435    1.4213 H   0  0  0  0  0  0  0  0  0  0  0  0
    5.1042    1.9022   -1.4859 H   0  0  0  0  0  0  0  0  0  0  0  0
    6.5485    1.9788   -0.4494 H   0  0  0  0  0  0  0  0  0  0  0  0
    4.0788    5.6553   -1.0137 H   0  0  0  0  0  0  0  0  0  0  0  0
    5.4287    7.6466   -1.6076 H   0  0  0  0  0  0  0  0  0  0  0  0
    9.0125    5.6260   -0.3824 H   0  0  0  0  0  0  0  0  0  0  0  0
    7.6798    3.6376    0.2849 H   0  0  0  0  0  0  0  0  0  0  0  0
    3.0942    3.4252   -0.8190 H   0  0  0  0  0  0  0  0  0  0  0  0
    3.3261    4.4076    0.6528 H   0  0  0  0  0  0  0  0  0  0  0  0
    1.9200    2.3297    1.0324 H   0  0  0  0  0  0  0  0  0  0  0  0
    3.3609    2.4525    2.0841 H   0  0  0  0  0  0  0  0  0  0  0  0
  1  2  2  0
  2  3  1  0
  2 21  1  0
  3  4  1  0
  3 34  1  0
  3 35  1  0
  4  5  1  0
  5  6  2  0
  5 20  1  0
  6  7  1  0
  7  8  2  0
  7 36  1  0
  8  9  1  0
  8 37  1  0
  9 10  1  0
  9 20  1  0
 10 11  2  0
 11 12  1  0
 11 19  1  0
 12 13  2  0
 12 18  1  0
 13 14  1  0
 13 38  1  0
 14 15  2  0
 14 39  1  0
 15 16  1  0
 15 17  1  0
 17 18  2  0
 17 40  1  0
 18 41  1  0
 19 20  2  0
 19 42  1  0
 21 22  1  0
 21 33  1  0
 22 23  1  0
 22 43  1  0
 22 44  1  0
 23 24  1  0
 23 45  1  0
 23 46  1  0
 24 25  1  0
 24 32  1  0
 25 26  2  0
 25 31  1  0
 26 27  1  0
 26 47  1  0
 27 28  2  0
 27 48  1  0
 28 29  1  0
 28 30  1  0
 30 31  2  0
 30 49  1  0
 31 50  1  0
 32 33  1  0
 32 51  1  0
 32 52  1  0
 33 53  1  0
 33 54  1  0
M  END

