
     RDKit          3D

 42 45  0  0  0  0  0  0  0  0999 V2000
    0.6380   -0.1710   -0.0991 O   0  0  0  0  0  0  0  0  0  0  0  0
    1.8552   -0.0937   -0.0813 C   0  0  0  0  0  0  0  0  0  0  0  0
    2.5613    1.0594   -0.3418 N   0  0  0  0  0  0  0  0  0  0  0  0
    2.0828    2.3523   -0.6355 C   0  0  0  0  0  0  0  0  0  0  0  0
    0.7309    2.6040   -0.9253 C   0  0  0  0  0  0  0  0  0  0  0  0
    0.3188    3.8917   -1.2693 C   0  0  0  0  0  0  0  0  0  0  0  0
    1.2387    4.9428   -1.3295 C   0  0  0  0  0  0  0  0  0  0  0  0
    2.5759    4.6991   -1.0249 C   0  0  0  0  0  0  0  0  0  0  0  0
    3.0305    3.4160   -0.6665 C   0  0  0  0  0  0  0  0  0  0  0  0
    4.4319    3.1780   -0.2985 C   0  0  0  0  0  0  0  0  0  0  0  0
    5.5140    3.8371   -0.7676 C   0  0  0  0  0  0  0  0  0  0  0  0
    6.8839    3.5825   -0.3393 C   0  0  0  0  0  0  0  0  0  0  0  0
    7.1946    2.6452    0.5525 N   0  0  0  0  0  0  0  0  0  0  0  0
    8.5301    2.6802    0.7068 N   0  0  0  0  0  0  0  0  0  0  0  0
    8.9698    2.0407    1.3563 H   0  0  0  0  0  0  0  0  0  0  0  0
    9.1322    3.6325   -0.0703 C   0  0  0  0  0  0  0  0  0  0  0  0
   10.4769    4.0134   -0.2253 C   0  0  0  0  0  0  0  0  0  0  0  0
   10.7399    5.0417   -1.1208 C   0  0  0  0  0  0  0  0  0  0  0  0
    9.7031    5.6796   -1.8459 C   0  0  0  0  0  0  0  0  0  0  0  0
    8.3770    5.2991   -1.6877 C   0  0  0  0  0  0  0  0  0  0  0  0
    8.0788    4.2584   -0.7861 C   0  0  0  0  0  0  0  0  0  0  0  0
    2.7031   -1.3043    0.2205 C   0  0  0  0  0  0  0  0  0  0  0  0
    4.0469   -1.2747    0.6209 C   0  0  0  0  0  0  0  0  0  0  0  0
    4.7004   -2.4787    0.8848 C   0  0  0  0  0  0  0  0  0  0  0  0
    3.9855   -3.6716    0.7419 C   0  0  0  0  0  0  0  0  0  0  0  0
    2.7030   -3.7177    0.3708 N   0  0  0  0  0  0  0  0  0  0  0  0
    2.0833   -2.5643    0.1250 C   0  0  0  0  0  0  0  0  0  0  0  0
    3.5668    0.9616   -0.3899 H   0  0  0  0  0  0  0  0  0  0  0  0
    0.0224    1.7807   -0.8815 H   0  0  0  0  0  0  0  0  0  0  0  0
   -0.7360    4.0707   -1.4924 H   0  0  0  0  0  0  0  0  0  0  0  0
    0.9121    5.9517   -1.5925 H   0  0  0  0  0  0  0  0  0  0  0  0
    3.2899    5.5258   -1.0231 H   0  0  0  0  0  0  0  0  0  0  0  0
    4.6289    2.4034    0.4511 H   0  0  0  0  0  0  0  0  0  0  0  0
    5.3923    4.6107   -1.5317 H   0  0  0  0  0  0  0  0  0  0  0  0
   11.2798    3.5251    0.3314 H   0  0  0  0  0  0  0  0  0  0  0  0
   11.7720    5.3684   -1.2710 H   0  0  0  0  0  0  0  0  0  0  0  0
    9.9575    6.4841   -2.5398 H   0  0  0  0  0  0  0  0  0  0  0  0
    7.5851    5.7978   -2.2516 H   0  0  0  0  0  0  0  0  0  0  0  0
    4.5904   -0.3347    0.7519 H   0  0  0  0  0  0  0  0  0  0  0  0
    5.7447   -2.4929    1.2043 H   0  0  0  0  0  0  0  0  0  0  0  0
    4.4726   -4.6335    0.9421 H   0  0  0  0  0  0  0  0  0  0  0  0
    1.0297   -2.6066   -0.1684 H   0  0  0  0  0  0  0  0  0  0  0  0
  1  2  2  0
  2  3  1  0
  2 22  1  0
  3  4  1  0
  3 28  1  0
  4  5  2  0
  4  9  1  0
  5  6  1  0
  5 29  1  0
  6  7  2  0
  6 30  1  0
  7  8  1  0
  7 31  1  0
  8  9  2  0
  8 32  1  0
  9 10  1  0
 10 11  2  0
 10 33  1  0
 11 12  1  0
 11 34  1  0
 12 13  2  0
 12 21  1  0
 13 14  1  0
 14 15  1  0
 14 16  1  0
 16 17  1  0
 16 21  2  0
 17 18  2  0
 17 35  1  0
 18 19  1  0
 18 36  1  0
 19 20  2  0
 19 37  1  0
 20 21  1  0
 20 38  1  0
 22 23  2  0
 22 27  1  0
 23 24  1  0
 23 39  1  0
 24 25  2  0
 24 40  1  0
 25 26  1  0
 25 41  1  0
 26 27  2  0
 27 42  1  0
M  END

