
     RDKit          3D

 45 47  0  0  0  0  0  0  0  0999 V2000
    4.2599   -4.1824    7.0618 C   0  0  0  0  0  0  0  0  0  0  0  0
    3.8804   -3.6873    5.6953 C   0  0  0  0  0  0  0  0  0  0  0  0
    3.0549   -2.5685    5.4816 C   0  0  0  0  0  0  0  0  0  0  0  0
    2.4187   -1.6283    6.8116 Cl  0  0  0  0  0  0  0  0  0  0  0  0
    2.6989   -2.1941    4.1823 C   0  0  0  0  0  0  0  0  0  0  0  0
    3.1628   -2.8211    3.1089 N   0  0  0  0  0  0  0  0  0  0  0  0
    3.9781   -3.8636    3.2580 C   0  0  0  0  0  0  0  0  0  0  0  0
    4.4229   -4.4604    2.0628 N   0  0  0  0  0  0  0  0  0  0  0  0
    5.7539   -4.6455    1.7332 C   0  0  0  0  0  0  0  0  0  0  0  0
    6.6830   -4.3843    2.4615 O   0  0  0  0  0  0  0  0  0  0  0  0
    5.9834   -5.1856    0.3092 C   0  0  0  0  0  0  0  0  0  0  0  0
    5.1778   -6.3378   -0.0623 N   0  0  0  0  0  0  0  0  0  0  0  0
    5.7034   -7.6611   -0.0991 C   0  0  0  0  0  0  0  0  0  0  0  0
    6.8239   -7.9741    0.2098 O   0  0  0  0  0  0  0  0  0  0  0  0
    4.6830   -8.4549   -0.5551 N   0  0  0  0  0  0  0  0  0  0  0  0
    3.4258   -7.7500   -0.7539 C   0  0  2  0  0  0  0  0  0  0  0  0
    2.3570   -8.1999    0.2641 C   0  0  0  0  0  0  0  0  0  0  0  0
    2.9043   -7.8336   -2.1949 C   0  0  0  0  0  0  0  0  0  0  0  0
    3.5429   -8.6330   -3.1546 C   0  0  0  0  0  0  0  0  0  0  0  0
    3.0470   -8.7228   -4.4562 C   0  0  0  0  0  0  0  0  0  0  0  0
    1.9079   -7.9949   -4.7917 C   0  0  0  0  0  0  0  0  0  0  0  0
    1.3752   -8.0864   -6.1689 N   0  0  0  0  0  0  0  0  0  0  0  0
    1.9689   -8.8063   -6.9548 O   0  0  0  0  0  0  0  0  0  0  0  0
    0.3760   -7.4372   -6.4294 O   0  0  0  0  0  0  0  0  0  0  0  0
    1.2601   -7.1772   -3.8652 C   0  0  0  0  0  0  0  0  0  0  0  0
    1.7618   -7.1021   -2.5677 C   0  0  0  0  0  0  0  0  0  0  0  0
    3.8592   -6.2983   -0.4243 C   0  0  0  0  0  0  0  0  0  0  0  0
    3.1471   -5.3141   -0.4457 O   0  0  0  0  0  0  0  0  0  0  0  0
    4.3172   -4.3555    4.5348 C   0  0  0  0  0  0  0  0  0  0  0  0
    5.2059   -5.8442    4.7062 Cl  0  0  0  0  0  0  0  0  0  0  0  0
    3.9039   -3.5036    7.8447 H   0  0  0  0  0  0  0  0  0  0  0  0
    5.3527   -4.2878    7.1425 H   0  0  0  0  0  0  0  0  0  0  0  0
    3.8341   -5.1834    7.2387 H   0  0  0  0  0  0  0  0  0  0  0  0
    2.0216   -1.3489    4.0247 H   0  0  0  0  0  0  0  0  0  0  0  0
    3.7676   -4.3758    1.2823 H   0  0  0  0  0  0  0  0  0  0  0  0
    7.0367   -5.4840    0.2517 H   0  0  0  0  0  0  0  0  0  0  0  0
    5.7914   -4.3753   -0.4138 H   0  0  0  0  0  0  0  0  0  0  0  0
    4.7601   -9.4620   -0.4778 H   0  0  0  0  0  0  0  0  0  0  0  0
    2.0818   -9.2501    0.0813 H   0  0  0  0  0  0  0  0  0  0  0  0
    1.4514   -7.5846    0.1782 H   0  0  0  0  0  0  0  0  0  0  0  0
    2.7457   -8.1067    1.2896 H   0  0  0  0  0  0  0  0  0  0  0  0
    4.4447   -9.1856   -2.8895 H   0  0  0  0  0  0  0  0  0  0  0  0
    3.5289   -9.3424   -5.2120 H   0  0  0  0  0  0  0  0  0  0  0  0
    0.3797   -6.6133   -4.1723 H   0  0  0  0  0  0  0  0  0  0  0  0
    1.2768   -6.4447   -1.8453 H   0  0  0  0  0  0  0  0  0  0  0  0
  1  2  1  0
  1 31  1  0
  1 32  1  0
  1 33  1  0
  2  3  2  0
  2 29  1  0
  3  4  1  0
  3  5  1  0
  5  6  2  0
  5 34  1  0
  6  7  1  0
  7  8  1  0
  7 29  2  0
  8  9  1  0
  8 35  1  0
  9 10  2  0
  9 11  1  0
 11 12  1  0
 11 36  1  0
 11 37  1  0
 12 13  1  0
 12 27  1  0
 13 14  2  0
 13 15  1  0
 15 16  1  0
 15 38  1  0
 16 17  1  1
 16 18  1  0
 16 27  1  0
 17 39  1  0
 17 40  1  0
 17 41  1  0
 18 19  2  0
 18 26  1  0
 19 20  1  0
 19 42  1  0
 20 21  2  0
 20 43  1  0
 21 22  1  0
 21 25  1  0
 22 23  2  0
 22 24  1  0
 25 26  2  0
 25 44  1  0
 26 45  1  0
 27 28  2  0
 29 30  1  0
M  CHG  2  22   1  24  -1
M  END

