
     RDKit          3D

 28 30  0  0  0  0  0  0  0  0999 V2000
    6.3665    3.4497   -4.2341 C   0  0  0  0  0  0  0  0  0  0  0  0
    5.9229    2.4886   -3.1906 C   0  0  0  0  0  0  0  0  0  0  0  0
    6.5355    2.1160   -2.1057 N   0  0  0  0  0  0  0  0  0  0  0  0
    5.6497    1.2188   -1.5515 C   0  0  0  0  0  0  0  0  0  0  0  0
    5.9006    0.5070   -0.2533 C   0  0  0  0  0  0  0  0  0  0  0  0
    7.0618   -0.3557   -0.2868 N   0  0  0  0  0  0  0  0  0  0  0  0
    8.3918    0.0100   -0.5080 C   0  0  0  0  0  0  0  0  0  0  0  0
    9.1434   -1.1101   -0.3932 C   0  0  0  0  0  0  0  0  0  0  0  0
    8.2901   -2.1754   -0.0852 N   0  0  0  0  0  0  0  0  0  0  0  0
    8.6723   -3.5499    0.0326 C   0  0  1  0  0  0  0  0  0  0  0  0
    9.6652   -3.9444    1.1023 C   0  0  0  0  0  0  0  0  0  0  0  0
    8.2166   -4.3302    1.2326 C   0  0  0  0  0  0  0  0  0  0  0  0
    6.9701   -1.7252   -0.0244 C   0  0  0  0  0  0  0  0  0  0  0  0
    5.9606   -2.3632    0.2183 O   0  0  0  0  0  0  0  0  0  0  0  0
    4.5551    1.0492   -2.2454 N   0  0  0  0  0  0  0  0  0  0  0  0
    4.7299    1.8939   -3.3364 O   0  0  0  0  0  0  0  0  0  0  0  0
    7.3428    3.8635   -3.9547 H   0  0  0  0  0  0  0  0  0  0  0  0
    5.6381    4.2683   -4.3417 H   0  0  0  0  0  0  0  0  0  0  0  0
    6.4490    2.9481   -5.2110 H   0  0  0  0  0  0  0  0  0  0  0  0
    5.0397   -0.1328   -0.0174 H   0  0  0  0  0  0  0  0  0  0  0  0
    6.0084    1.2621    0.5457 H   0  0  0  0  0  0  0  0  0  0  0  0
    8.6675    1.0309   -0.7539 H   0  0  0  0  0  0  0  0  0  0  0  0
   10.2149   -1.2520   -0.5011 H   0  0  0  0  0  0  0  0  0  0  0  0
    8.7245   -4.0891   -0.9219 H   0  0  0  0  0  0  0  0  0  0  0  0
   10.0424   -3.1500    1.7523 H   0  0  0  0  0  0  0  0  0  0  0  0
   10.4000   -4.7144    0.8516 H   0  0  0  0  0  0  0  0  0  0  0  0
    7.5978   -3.8010    1.9597 H   0  0  0  0  0  0  0  0  0  0  0  0
    7.9291   -5.3719    1.0701 H   0  0  0  0  0  0  0  0  0  0  0  0
  1  2  1  0
  1 17  1  0
  1 18  1  0
  1 19  1  0
  2  3  2  0
  2 16  1  0
  3  4  1  0
  4  5  1  0
  4 15  2  0
  5  6  1  0
  5 20  1  0
  5 21  1  0
  6  7  1  0
  6 13  1  0
  7  8  2  0
  7 22  1  0
  8  9  1  0
  8 23  1  0
  9 10  1  0
  9 13  1  0
 10 11  1  0
 10 12  1  0
 10 24  1  6
 11 12  1  0
 11 25  1  0
 11 26  1  0
 12 27  1  0
 12 28  1  0
 13 14  2  0
 15 16  1  0
M  END

