
     RDKit          3D

 40 42  0  0  0  0  0  0  0  0999 V2000
    0.9510   -0.0822   -0.0049 C   0  0  0  0  0  0  0  0  0  0  0  0
    2.4735    0.0797    0.0398 C   0  0  1  0  0  0  0  0  0  0  0  0
    3.1156   -0.4914   -1.2216 C   0  0  0  0  0  0  0  0  0  0  0  0
    2.8123    1.4942    0.0273 O   0  0  0  0  0  0  0  0  0  0  0  0
    2.5794    2.2575    1.1306 C   0  0  0  0  0  0  0  0  0  0  0  0
    2.5261    3.6202    0.9392 C   0  0  0  0  0  0  0  0  0  0  0  0
    2.3856    4.4364    2.0941 C   0  0  0  0  0  0  0  0  0  0  0  0
    2.3125    5.7502    2.2259 N   0  0  0  0  0  0  0  0  0  0  0  0
    2.1883    5.9579    3.5659 O   0  0  0  0  0  0  0  0  0  0  0  0
    2.1799    4.8174    4.2914 N   0  0  0  0  0  0  0  0  0  0  0  0
    2.3016    3.8468    3.4028 C   0  0  0  0  0  0  0  0  0  0  0  0
    2.3534    2.4332    3.5708 C   0  0  0  0  0  0  0  0  0  0  0  0
    2.4793    1.6459    2.4538 C   0  0  0  0  0  0  0  0  0  0  0  0
    2.4915    0.1225    2.5741 C   0  0  2  0  0  0  0  0  0  0  0  0
    3.1628   -0.3406    3.7681 N   0  0  0  0  0  0  0  0  0  0  0  0
    2.5368   -1.2425    4.6156 C   0  0  0  0  0  0  0  0  0  0  0  0
    1.3508   -1.5263    4.5166 O   0  0  0  0  0  0  0  0  0  0  0  0
    3.3548   -1.7605    5.5902 N   0  0  0  0  0  0  0  0  0  0  0  0
    2.8810   -2.7076    6.5722 C   0  0  0  0  0  0  0  0  0  0  0  0
    3.6178   -4.0372    6.5227 C   0  0  0  0  0  0  0  0  0  0  0  0
    5.3904   -3.8214    6.8585 Cl  0  0  0  0  0  0  0  0  0  0  0  0
    3.1050   -0.5151    1.3145 C   0  0  2  0  0  0  0  0  0  0  0  0
    4.5144   -0.3542    1.3205 O   0  0  0  0  0  0  0  0  0  0  0  0
    0.5660    0.2990   -0.9624 H   0  0  0  0  0  0  0  0  0  0  0  0
    0.4457    0.4686    0.8010 H   0  0  0  0  0  0  0  0  0  0  0  0
    0.6725   -1.1439    0.0812 H   0  0  0  0  0  0  0  0  0  0  0  0
    2.7614    0.0616   -2.1036 H   0  0  0  0  0  0  0  0  0  0  0  0
    2.8427   -1.5511   -1.3368 H   0  0  0  0  0  0  0  0  0  0  0  0
    4.2101   -0.4215   -1.1732 H   0  0  0  0  0  0  0  0  0  0  0  0
    2.6093    4.0401   -0.0628 H   0  0  0  0  0  0  0  0  0  0  0  0
    2.3002    1.9851    4.5633 H   0  0  0  0  0  0  0  0  0  0  0  0
    1.4525   -0.2286    2.6766 H   0  0  0  0  0  0  0  0  0  0  0  0
    4.1771   -0.3409    3.7100 H   0  0  0  0  0  0  0  0  0  0  0  0
    4.3321   -1.4950    5.6333 H   0  0  0  0  0  0  0  0  0  0  0  0
    1.8151   -2.8814    6.3588 H   0  0  0  0  0  0  0  0  0  0  0  0
    2.9552   -2.2882    7.5917 H   0  0  0  0  0  0  0  0  0  0  0  0
    3.5414   -4.5044    5.5317 H   0  0  0  0  0  0  0  0  0  0  0  0
    3.2349   -4.7296    7.2847 H   0  0  0  0  0  0  0  0  0  0  0  0
    2.9179   -1.5999    1.3430 H   0  0  0  0  0  0  0  0  0  0  0  0
    4.7134    0.5385    0.9995 H   0  0  0  0  0  0  0  0  0  0  0  0
  2  1  1  6
  1 24  1  0
  1 25  1  0
  1 26  1  0
  2  3  1  0
  2  4  1  0
  2 22  1  0
  3 27  1  0
  3 28  1  0
  3 29  1  0
  4  5  1  0
  5  6  2  0
  5 13  1  0
  6  7  1  0
  6 30  1  0
  7  8  2  0
  7 11  1  0
  8  9  1  0
  9 10  1  0
 10 11  2  0
 11 12  1  0
 12 13  2  0
 12 31  1  0
 13 14  1  0
 14 15  1  0
 14 22  1  0
 14 32  1  1
 15 16  1  0
 15 33  1  0
 16 17  2  0
 16 18  1  0
 18 19  1  0
 18 34  1  0
 19 20  1  0
 19 35  1  0
 19 36  1  0
 20 21  1  0
 20 37  1  0
 20 38  1  0
 22 23  1  0
 22 39  1  1
 23 40  1  0
M  END

