
     RDKit          3D

 39 39  0  0  0  0  0  0  0  0999 V2000
    2.1606    1.1424   -2.2201 C   0  0  0  0  0  0  0  0  0  0  0  0
    2.0525    1.8800   -0.9760 N   0  0  0  0  0  0  0  0  0  0  0  0
    0.6723    2.1920   -0.6582 C   0  0  0  0  0  0  0  0  0  0  0  0
    2.7539    1.2458    0.1364 C   0  0  0  0  0  0  0  0  0  0  0  0
    4.2813    1.3250    0.0461 C   0  0  0  0  0  0  0  0  0  0  0  0
    4.8143    2.7624    0.0539 C   0  0  0  0  0  0  0  0  0  0  0  0
    6.2744    2.8185   -0.0313 N   0  0  0  0  0  0  0  0  0  0  0  0
    6.8256    2.6937   -1.3787 C   0  0  0  0  0  0  0  0  0  0  0  0
    6.8018    4.0207   -2.1573 C   0  0  0  0  0  0  0  0  0  0  0  0
    7.4551    5.1190   -1.4268 N   0  0  0  0  0  0  0  0  0  0  0  0
    8.9158    5.1543   -1.4793 C   0  0  0  0  0  0  0  0  0  0  0  0
    9.4257    6.6035   -1.6074 C   0  0  0  0  0  0  0  0  0  0  0  0
   10.5729    6.9163   -1.4319 O   0  0  0  0  0  0  0  0  0  0  0  0
    8.4620    7.4543   -1.9669 O   0  0  0  0  0  0  0  0  0  0  0  0
    6.9017    5.2420   -0.0636 C   0  0  0  0  0  0  0  0  0  0  0  0
    6.9256    3.9043    0.6947 C   0  0  0  0  0  0  0  0  0  0  0  0
    1.6806    1.7062   -3.0357 H   0  0  0  0  0  0  0  0  0  0  0  0
    1.6790    0.1370   -2.1745 H   0  0  0  0  0  0  0  0  0  0  0  0
    3.2141    0.9927   -2.4996 H   0  0  0  0  0  0  0  0  0  0  0  0
    0.2076    2.7439   -1.4910 H   0  0  0  0  0  0  0  0  0  0  0  0
    0.6213    2.8304    0.2380 H   0  0  0  0  0  0  0  0  0  0  0  0
    0.0471    1.2883   -0.4659 H   0  0  0  0  0  0  0  0  0  0  0  0
    2.4478    0.1792    0.2545 H   0  0  0  0  0  0  0  0  0  0  0  0
    2.4340    1.7561    1.0611 H   0  0  0  0  0  0  0  0  0  0  0  0
    4.6374    0.7968   -0.8548 H   0  0  0  0  0  0  0  0  0  0  0  0
    4.7168    0.7796    0.8996 H   0  0  0  0  0  0  0  0  0  0  0  0
    4.5134    3.2372    1.0030 H   0  0  0  0  0  0  0  0  0  0  0  0
    4.2992    3.3353   -0.7432 H   0  0  0  0  0  0  0  0  0  0  0  0
    6.2724    1.9208   -1.9355 H   0  0  0  0  0  0  0  0  0  0  0  0
    7.8694    2.3350   -1.3016 H   0  0  0  0  0  0  0  0  0  0  0  0
    5.7559    4.3202   -2.3442 H   0  0  0  0  0  0  0  0  0  0  0  0
    7.2830    3.9097   -3.1424 H   0  0  0  0  0  0  0  0  0  0  0  0
    9.2689    4.6204   -2.3767 H   0  0  0  0  0  0  0  0  0  0  0  0
    9.4322    4.6915   -0.6201 H   0  0  0  0  0  0  0  0  0  0  0  0
    7.6518    6.8849   -2.0116 H   0  0  0  0  0  0  0  0  0  0  0  0
    5.8612    5.6009   -0.1509 H   0  0  0  0  0  0  0  0  0  0  0  0
    7.4624    6.0187    0.4816 H   0  0  0  0  0  0  0  0  0  0  0  0
    6.4526    4.0207    1.6829 H   0  0  0  0  0  0  0  0  0  0  0  0
    7.9760    3.6133    0.8838 H   0  0  0  0  0  0  0  0  0  0  0  0
  1  2  1  0
  1 17  1  0
  1 18  1  0
  1 19  1  0
  2  3  1  0
  2  4  1  0
  3 20  1  0
  3 21  1  0
  3 22  1  0
  4  5  1  0
  4 23  1  0
  4 24  1  0
  5  6  1  0
  5 25  1  0
  5 26  1  0
  6  7  1  0
  6 27  1  0
  6 28  1  0
  7  8  1  0
  7 16  1  0
  8  9  1  0
  8 29  1  0
  8 30  1  0
  9 10  1  0
  9 31  1  0
  9 32  1  0
 10 11  1  0
 10 15  1  0
 11 12  1  0
 11 33  1  0
 11 34  1  0
 12 13  2  0
 12 14  1  0
 14 35  1  0
 15 16  1  0
 15 36  1  0
 15 37  1  0
 16 38  1  0
 16 39  1  0
M  END

