
     RDKit          3D

 40 42  0  0  0  0  0  0  0  0999 V2000
    1.3974    0.7210   -0.9003 C   0  0  0  0  0  0  0  0  0  0  0  0
    2.5921    0.1388   -0.1009 C   0  0  1  0  0  0  0  0  0  0  0  0
    3.8455    0.2180   -1.0052 C   0  0  0  0  0  0  0  0  0  0  0  0
    2.7368    0.9758    1.1870 C   0  0  0  0  0  0  0  0  0  0  0  0
    1.8181    0.8046    2.2375 C   0  0  0  0  0  0  0  0  0  0  0  0
    1.8607    1.5957    3.3846 C   0  0  0  0  0  0  0  0  0  0  0  0
    2.8488    2.5716    3.4942 C   0  0  0  0  0  0  0  0  0  0  0  0
    2.9022    3.3337    4.5980 F   0  0  0  0  0  0  0  0  0  0  0  0
    3.7833    2.7663    2.4834 C   0  0  0  0  0  0  0  0  0  0  0  0
    3.7178    1.9682    1.3356 C   0  0  0  0  0  0  0  0  0  0  0  0
    2.3497   -1.3297    0.2324 C   0  0  0  0  0  0  0  0  0  0  0  0
    1.3942   -2.0704   -0.4035 N   0  0  0  0  0  0  0  0  0  0  0  0
    0.7213   -1.7413   -1.0834 H   0  0  0  0  0  0  0  0  0  0  0  0
    1.3864   -3.3652   -0.0595 N   0  0  0  0  0  0  0  0  0  0  0  0
    2.3704   -3.4712    0.8255 C   0  0  0  0  0  0  0  0  0  0  0  0
    3.0211   -2.2315    1.0624 C   0  0  0  0  0  0  0  0  0  0  0  0
    4.1595   -1.9798    2.0168 C   0  0  0  0  0  0  0  0  0  0  0  0
    3.7438   -1.7674    3.4063 N   0  0  0  0  0  0  0  0  0  0  0  0
    3.4477   -2.9497    4.1608 C   0  0  1  0  0  0  0  0  0  0  0  0
    2.6948   -2.7805    5.4531 C   0  0  0  0  0  0  0  0  0  0  0  0
    2.0153   -3.4163    4.2677 C   0  0  0  0  0  0  0  0  0  0  0  0
    1.5749    1.7863   -1.1081 H   0  0  0  0  0  0  0  0  0  0  0  0
    0.4539    0.6452   -0.3388 H   0  0  0  0  0  0  0  0  0  0  0  0
    1.2742    0.2149   -1.8727 H   0  0  0  0  0  0  0  0  0  0  0  0
    4.0126    1.2410   -1.3766 H   0  0  0  0  0  0  0  0  0  0  0  0
    3.7122   -0.4354   -1.8803 H   0  0  0  0  0  0  0  0  0  0  0  0
    4.7524   -0.1117   -0.4778 H   0  0  0  0  0  0  0  0  0  0  0  0
    1.0577    0.0242    2.1658 H   0  0  0  0  0  0  0  0  0  0  0  0
    1.1481    1.4582    4.2002 H   0  0  0  0  0  0  0  0  0  0  0  0
    4.5488    3.5362    2.5992 H   0  0  0  0  0  0  0  0  0  0  0  0
    4.4563    2.1391    0.5517 H   0  0  0  0  0  0  0  0  0  0  0  0
    2.5931   -4.4371    1.2799 H   0  0  0  0  0  0  0  0  0  0  0  0
    4.7068   -1.0793    1.7033 H   0  0  0  0  0  0  0  0  0  0  0  0
    4.8766   -2.8257    1.9311 H   0  0  0  0  0  0  0  0  0  0  0  0
    4.4488   -1.2156    3.8915 H   0  0  0  0  0  0  0  0  0  0  0  0
    4.2085   -3.7514    4.1440 H   0  0  0  0  0  0  0  0  0  0  0  0
    2.4001   -1.7606    5.7155 H   0  0  0  0  0  0  0  0  0  0  0  0
    2.9735   -3.4101    6.3028 H   0  0  0  0  0  0  0  0  0  0  0  0
    1.2685   -2.8251    3.7336 H   0  0  0  0  0  0  0  0  0  0  0  0
    1.8210   -4.4925    4.2902 H   0  0  0  0  0  0  0  0  0  0  0  0
  2  1  1  6
  1 22  1  0
  1 23  1  0
  1 24  1  0
  2  3  1  0
  2  4  1  0
  2 11  1  0
  3 25  1  0
  3 26  1  0
  3 27  1  0
  4  5  2  0
  4 10  1  0
  5  6  1  0
  5 28  1  0
  6  7  2  0
  6 29  1  0
  7  8  1  0
  7  9  1  0
  9 10  2  0
  9 30  1  0
 10 31  1  0
 11 12  1  0
 11 16  2  0
 12 13  1  0
 12 14  1  0
 14 15  2  0
 15 16  1  0
 15 32  1  0
 16 17  1  0
 17 18  1  0
 17 33  1  0
 17 34  1  0
 18 19  1  0
 18 35  1  0
 19 20  1  0
 19 21  1  0
 19 36  1  1
 20 21  1  0
 20 37  1  0
 20 38  1  0
 21 39  1  0
 21 40  1  0
M  END

