
     RDKit          3D

 56 59  0  0  0  0  0  0  0  0999 V2000
   -0.4076    3.1730    5.1905 C   0  0  0  0  0  0  0  0  0  0  0  0
    0.8773    2.5953    5.1945 O   0  0  0  0  0  0  0  0  0  0  0  0
    1.3753    2.0704    4.0464 C   0  0  0  0  0  0  0  0  0  0  0  0
    0.7041    2.0762    2.8148 C   0  0  0  0  0  0  0  0  0  0  0  0
    1.3234    1.5022    1.6975 C   0  0  0  0  0  0  0  0  0  0  0  0
    2.5902    0.9311    1.7936 C   0  0  0  0  0  0  0  0  0  0  0  0
    3.2624    0.9225    3.0283 C   0  0  0  0  0  0  0  0  0  0  0  0
    4.6420    0.2711    3.1220 C   0  0  1  0  0  0  0  0  0  0  0  0
    5.5185    0.8355    4.1502 N   0  0  0  0  0  0  0  0  0  0  0  0
    6.1721    2.0449    4.1560 C   0  0  0  0  0  0  0  0  0  0  0  0
    6.7407    2.4463    5.1534 O   0  0  0  0  0  0  0  0  0  0  0  0
    6.1432    2.8832    2.8700 C   0  0  0  0  0  0  0  0  0  0  0  0
    6.8092    2.2606    1.6709 C   0  0  0  0  0  0  0  0  0  0  0  0
    6.3453    2.3124    0.3768 C   0  0  0  0  0  0  0  0  0  0  0  0
    7.4383    1.5069   -0.6925 S   0  0  0  0  0  0  0  0  0  0  0  0
    8.4571    1.1428    0.6854 C   0  0  0  0  0  0  0  0  0  0  0  0
    9.7213    0.3493    0.5508 C   0  0  0  0  0  0  0  0  0  0  0  0
    9.3949   -0.9553    0.0944 O   0  0  0  0  0  0  0  0  0  0  0  0
   10.4003   -1.8447   -0.1449 C   0  0  0  0  0  0  0  0  0  0  0  0
   10.0147   -3.0765   -0.7009 C   0  0  0  0  0  0  0  0  0  0  0  0
   10.9646   -4.0553   -0.9757 C   0  0  0  0  0  0  0  0  0  0  0  0
   12.3154   -3.8100   -0.6975 C   0  0  0  0  0  0  0  0  0  0  0  0
   13.5113   -5.0392   -1.0441 Cl  0  0  0  0  0  0  0  0  0  0  0  0
   12.7082   -2.5912   -0.1465 C   0  0  0  0  0  0  0  0  0  0  0  0
   11.7537   -1.6057    0.1324 C   0  0  0  0  0  0  0  0  0  0  0  0
    8.0025    1.5920    1.8183 N   0  0  0  0  0  0  0  0  0  0  0  0
    4.5337   -1.2205    3.3491 C   0  0  0  0  0  0  0  0  0  0  0  0
    3.5202   -1.8376    3.9215 N   0  0  0  0  0  0  0  0  0  0  0  0
    3.8632   -3.1614    3.9651 C   0  0  0  0  0  0  0  0  0  0  0  0
    5.1109   -3.3476    3.4121 C   0  0  0  0  0  0  0  0  0  0  0  0
    5.5413   -2.0981    3.0210 N   0  0  0  0  0  0  0  0  0  0  0  0
    6.8034   -1.7903    2.3685 C   0  0  0  0  0  0  0  0  0  0  0  0
    2.6541    1.4936    4.1427 C   0  0  0  0  0  0  0  0  0  0  0  0
   -0.6007    3.5146    6.2164 H   0  0  0  0  0  0  0  0  0  0  0  0
   -1.1867    2.4432    4.9045 H   0  0  0  0  0  0  0  0  0  0  0  0
   -0.4683    4.0410    4.5087 H   0  0  0  0  0  0  0  0  0  0  0  0
   -0.2864    2.5194    2.7134 H   0  0  0  0  0  0  0  0  0  0  0  0
    0.8002    1.5081    0.7376 H   0  0  0  0  0  0  0  0  0  0  0  0
    3.0573    0.4811    0.9133 H   0  0  0  0  0  0  0  0  0  0  0  0
    5.1324    0.4229    2.1482 H   0  0  0  0  0  0  0  0  0  0  0  0
    5.5137    0.3804    5.0590 H   0  0  0  0  0  0  0  0  0  0  0  0
    6.6658    3.8130    3.1403 H   0  0  0  0  0  0  0  0  0  0  0  0
    5.1024    3.1411    2.6203 H   0  0  0  0  0  0  0  0  0  0  0  0
    5.4273    2.7701    0.0117 H   0  0  0  0  0  0  0  0  0  0  0  0
   10.1980    0.3249    1.5452 H   0  0  0  0  0  0  0  0  0  0  0  0
   10.4172    0.8330   -0.1599 H   0  0  0  0  0  0  0  0  0  0  0  0
    8.9578   -3.2457   -0.9160 H   0  0  0  0  0  0  0  0  0  0  0  0
   10.6648   -5.0111   -1.4088 H   0  0  0  0  0  0  0  0  0  0  0  0
   13.7621   -2.4079    0.0694 H   0  0  0  0  0  0  0  0  0  0  0  0
   12.0848   -0.6640    0.5701 H   0  0  0  0  0  0  0  0  0  0  0  0
    3.2010   -3.9142    4.3915 H   0  0  0  0  0  0  0  0  0  0  0  0
    5.7216   -4.2356    3.2645 H   0  0  0  0  0  0  0  0  0  0  0  0
    7.4942   -2.6329    2.5035 H   0  0  0  0  0  0  0  0  0  0  0  0
    7.2555   -0.8927    2.8117 H   0  0  0  0  0  0  0  0  0  0  0  0
    6.6742   -1.6201    1.2877 H   0  0  0  0  0  0  0  0  0  0  0  0
    3.1485    1.5049    5.1149 H   0  0  0  0  0  0  0  0  0  0  0  0
  1  2  1  0
  1 34  1  0
  1 35  1  0
  1 36  1  0
  2  3  1  0
  3  4  2  0
  3 33  1  0
  4  5  1  0
  4 37  1  0
  5  6  2  0
  5 38  1  0
  6  7  1  0
  6 39  1  0
  7  8  1  0
  7 33  2  0
  8  9  1  0
  8 27  1  0
  8 40  1  6
  9 10  1  0
  9 41  1  0
 10 11  2  0
 10 12  1  0
 12 13  1  0
 12 42  1  0
 12 43  1  0
 13 14  2  0
 13 26  1  0
 14 15  1  0
 14 44  1  0
 15 16  1  0
 16 17  1  0
 16 26  2  0
 17 18  1  0
 17 45  1  0
 17 46  1  0
 18 19  1  0
 19 20  2  0
 19 25  1  0
 20 21  1  0
 20 47  1  0
 21 22  2  0
 21 48  1  0
 22 23  1  0
 22 24  1  0
 24 25  2  0
 24 49  1  0
 25 50  1  0
 27 28  2  0
 27 31  1  0
 28 29  1  0
 29 30  2  0
 29 51  1  0
 30 31  1  0
 30 52  1  0
 31 32  1  0
 32 53  1  0
 32 54  1  0
 32 55  1  0
 33 56  1  0
M  END

