
     RDKit          3D

 32 33  0  0  0  0  0  0  0  0999 V2000
    3.0615    0.9012   -1.8649 C   0  0  0  0  0  0  0  0  0  0  0  0
    2.3616    0.5798   -0.5350 C   0  0  0  0  0  0  0  0  0  0  0  0
    3.0247    1.2024    0.6593 C   0  0  0  0  0  0  0  0  0  0  0  0
    2.4677    2.2242    1.3165 N   0  0  0  0  0  0  0  0  0  0  0  0
    3.3093    2.5583    2.2925 N   0  0  0  0  0  0  0  0  0  0  0  0
    3.0234    3.6706    3.1710 C   0  0  0  0  0  0  0  0  0  0  0  0
    4.4367    1.7584    2.2922 C   0  0  0  0  0  0  0  0  0  0  0  0
    5.4780    1.8994    3.2140 N   0  0  0  0  0  0  0  0  0  0  0  0
    5.5253    1.3064    4.4732 C   0  0  0  0  0  0  0  0  0  0  0  0
    6.6387    1.5170    5.3113 C   0  0  0  0  0  0  0  0  0  0  0  0
    6.6983    0.9282    6.5696 C   0  0  0  0  0  0  0  0  0  0  0  0
    5.6586    0.1152    7.0385 C   0  0  0  0  0  0  0  0  0  0  0  0
    5.7865   -0.5960    8.6249 Cl  0  0  0  0  0  0  0  0  0  0  0  0
    4.5472   -0.0955    6.2077 C   0  0  0  0  0  0  0  0  0  0  0  0
    3.0936   -1.1867    6.7683 Br  0  0  0  0  0  0  0  0  0  0  0  0
    4.4788    0.4918    4.9418 C   0  0  0  0  0  0  0  0  0  0  0  0
    4.2789    0.8602    1.2398 C   0  0  0  0  0  0  0  0  0  0  0  0
    5.1853   -0.1095    0.8089 N   0  0  0  0  0  0  0  0  0  0  0  0
    2.5577    0.4046   -2.7100 H   0  0  0  0  0  0  0  0  0  0  0  0
    4.1123    0.5699   -1.8523 H   0  0  0  0  0  0  0  0  0  0  0  0
    3.0578    1.9860   -2.0553 H   0  0  0  0  0  0  0  0  0  0  0  0
    2.3134   -0.5179   -0.4044 H   0  0  0  0  0  0  0  0  0  0  0  0
    1.3188    0.9324   -0.5597 H   0  0  0  0  0  0  0  0  0  0  0  0
    1.9893    3.9789    2.9759 H   0  0  0  0  0  0  0  0  0  0  0  0
    3.6958    4.5236    2.9780 H   0  0  0  0  0  0  0  0  0  0  0  0
    3.1236    3.3757    4.2268 H   0  0  0  0  0  0  0  0  0  0  0  0
    6.2866    2.4509    2.9471 H   0  0  0  0  0  0  0  0  0  0  0  0
    7.4645    2.1477    4.9710 H   0  0  0  0  0  0  0  0  0  0  0  0
    7.5642    1.0947    7.2129 H   0  0  0  0  0  0  0  0  0  0  0  0
    3.6075    0.3110    4.3121 H   0  0  0  0  0  0  0  0  0  0  0  0
    5.8633   -0.3716    1.5197 H   0  0  0  0  0  0  0  0  0  0  0  0
    4.7446   -0.9394    0.4217 H   0  0  0  0  0  0  0  0  0  0  0  0
  1  2  1  0
  1 19  1  0
  1 20  1  0
  1 21  1  0
  2  3  1  0
  2 22  1  0
  2 23  1  0
  3  4  2  0
  3 17  1  0
  4  5  1  0
  5  6  1  0
  5  7  1  0
  6 24  1  0
  6 25  1  0
  6 26  1  0
  7  8  1  0
  7 17  2  0
  8  9  1  0
  8 27  1  0
  9 10  2  0
  9 16  1  0
 10 11  1  0
 10 28  1  0
 11 12  2  0
 11 29  1  0
 12 13  1  0
 12 14  1  0
 14 15  1  0
 14 16  2  0
 16 30  1  0
 17 18  1  0
 18 31  1  0
 18 32  1  0
M  END

