
     RDKit          3D

 53 56  0  0  0  0  0  0  0  0999 V2000
    0.4230   -0.0982    0.4184 C   0  0  0  0  0  0  0  0  0  0  0  0
    1.9479   -0.1120    0.2286 C   0  0  1  0  0  0  0  0  0  0  0  0
    2.6243   -0.6645    1.4118 N   0  0  0  0  0  0  0  0  0  0  0  0
    2.7362    0.1016    2.5601 C   0  0  0  0  0  0  0  0  0  0  0  0
    2.1787    1.1848    2.6921 O   0  0  0  0  0  0  0  0  0  0  0  0
    3.5046   -0.4441    3.5637 N   0  0  0  0  0  0  0  0  0  0  0  0
    3.6741    0.2802    4.8250 C   0  0  0  0  0  0  0  0  0  0  0  0
    4.5978   -0.6389    5.6347 C   0  0  0  0  0  0  0  0  0  0  0  0
    4.2831   -2.0501    5.1106 C   0  0  1  0  0  0  0  0  0  0  0  0
    5.3179   -3.1507    5.4210 C   0  0  0  0  0  0  0  0  0  0  0  0
    4.4762   -4.4484    5.5017 C   0  0  0  0  0  0  0  0  0  0  0  0
    3.1121   -4.0584    5.3827 O   0  0  0  0  0  0  0  0  0  0  0  0
    3.0176   -2.6902    5.7178 C   0  0  0  0  0  0  0  0  0  0  0  0
    4.0661   -1.7879    3.6032 C   0  0  0  0  0  0  0  0  0  0  0  0
    2.3701   -0.8952   -1.0030 C   0  0  0  0  0  0  0  0  0  0  0  0
    2.9357   -0.2523   -2.1120 C   0  0  0  0  0  0  0  0  0  0  0  0
    3.3108   -0.9466   -3.2646 C   0  0  0  0  0  0  0  0  0  0  0  0
    3.1264   -2.3386   -3.3272 C   0  0  0  0  0  0  0  0  0  0  0  0
    3.4743   -3.1197   -4.4451 N   0  0  0  0  0  0  0  0  0  0  0  0
    4.0473   -2.7294   -5.6362 C   0  0  0  0  0  0  0  0  0  0  0  0
    4.3538   -1.5784   -5.9015 O   0  0  0  0  0  0  0  0  0  0  0  0
    4.2708   -3.8553   -6.6049 C   0  0  1  0  0  0  0  0  0  0  0  0
    4.1304   -3.5334   -8.0817 C   0  0  0  0  0  0  0  0  0  0  0  0
    5.4883   -3.7597   -7.5064 C   0  0  0  0  0  0  0  0  0  0  0  0
    2.5636   -2.9976   -2.2181 C   0  0  0  0  0  0  0  0  0  0  0  0
    2.1900   -2.2868   -1.0804 C   0  0  0  0  0  0  0  0  0  0  0  0
    0.1694    0.4994    1.3049 H   0  0  0  0  0  0  0  0  0  0  0  0
    0.0321   -1.1195    0.5514 H   0  0  0  0  0  0  0  0  0  0  0  0
   -0.0662    0.3488   -0.4611 H   0  0  0  0  0  0  0  0  0  0  0  0
    2.2715    0.9356    0.1015 H   0  0  0  0  0  0  0  0  0  0  0  0
    3.3602   -1.3339    1.2207 H   0  0  0  0  0  0  0  0  0  0  0  0
    2.6982    0.4332    5.3197 H   0  0  0  0  0  0  0  0  0  0  0  0
    4.0987    1.2817    4.6538 H   0  0  0  0  0  0  0  0  0  0  0  0
    4.4455   -0.5460    6.7213 H   0  0  0  0  0  0  0  0  0  0  0  0
    5.6539   -0.3976    5.4278 H   0  0  0  0  0  0  0  0  0  0  0  0
    5.8049   -2.9408    6.3863 H   0  0  0  0  0  0  0  0  0  0  0  0
    6.1119   -3.2027    4.6602 H   0  0  0  0  0  0  0  0  0  0  0  0
    4.6446   -4.9742    6.4609 H   0  0  0  0  0  0  0  0  0  0  0  0
    4.6980   -5.1592    4.6893 H   0  0  0  0  0  0  0  0  0  0  0  0
    3.0057   -2.5396    6.8187 H   0  0  0  0  0  0  0  0  0  0  0  0
    2.0760   -2.2965    5.3059 H   0  0  0  0  0  0  0  0  0  0  0  0
    3.3799   -2.5275    3.1588 H   0  0  0  0  0  0  0  0  0  0  0  0
    5.0304   -1.8503    3.0580 H   0  0  0  0  0  0  0  0  0  0  0  0
    3.0908    0.8299   -2.0794 H   0  0  0  0  0  0  0  0  0  0  0  0
    3.7480   -0.4291   -4.1151 H   0  0  0  0  0  0  0  0  0  0  0  0
    3.2712   -4.1080   -4.3551 H   0  0  0  0  0  0  0  0  0  0  0  0
    3.9664   -4.8553   -6.2808 H   0  0  0  0  0  0  0  0  0  0  0  0
    3.8501   -2.5038   -8.3186 H   0  0  0  0  0  0  0  0  0  0  0  0
    3.6893   -4.3023   -8.7217 H   0  0  0  0  0  0  0  0  0  0  0  0
    6.1226   -2.8824   -7.3557 H   0  0  0  0  0  0  0  0  0  0  0  0
    6.0149   -4.6898   -7.7365 H   0  0  0  0  0  0  0  0  0  0  0  0
    2.4122   -4.0813   -2.2518 H   0  0  0  0  0  0  0  0  0  0  0  0
    1.7476   -2.8271   -0.2390 H   0  0  0  0  0  0  0  0  0  0  0  0
  1  2  1  0
  1 27  1  0
  1 28  1  0
  1 29  1  0
  2  3  1  0
  2 15  1  0
  2 30  1  6
  3  4  1  0
  3 31  1  0
  4  5  2  0
  4  6  1  0
  6  7  1  0
  6 14  1  0
  7  8  1  0
  7 32  1  0
  7 33  1  0
  9  8  1  1
  8 34  1  0
  8 35  1  0
  9 10  1  0
  9 13  1  0
  9 14  1  0
 10 11  1  0
 10 36  1  0
 10 37  1  0
 11 12  1  0
 11 38  1  0
 11 39  1  0
 12 13  1  0
 13 40  1  0
 13 41  1  0
 14 42  1  0
 14 43  1  0
 15 16  2  0
 15 26  1  0
 16 17  1  0
 16 44  1  0
 17 18  2  0
 17 45  1  0
 18 19  1  0
 18 25  1  0
 19 20  1  0
 19 46  1  0
 20 21  2  0
 20 22  1  0
 22 23  1  0
 22 24  1  0
 22 47  1  1
 23 24  1  0
 23 48  1  0
 23 49  1  0
 24 50  1  0
 24 51  1  0
 25 26  2  0
 25 52  1  0
 26 53  1  0
M  END

