
     RDKit          3D

139150  0  0  0  0  0  0  0  0999 V2000
    2.6051   -1.0295   -0.1567 C   0  0  0  0  0  0  0  0  0  0  0  0
    3.9025   -0.2778   -0.5080 C   0  0  1  0  0  0  0  0  0  0  0  0
    4.2019    0.7387    0.6199 C   0  0  0  0  0  0  0  0  0  0  0  0
    5.0476   -1.3144   -0.5780 C   0  0  0  0  0  0  0  0  0  0  0  0
    3.7916    0.4869   -1.8418 C   0  0  0  0  0  0  0  0  0  0  0  0
    2.5783    0.6504   -2.5300 C   0  0  0  0  0  0  0  0  0  0  0  0
    2.5045    1.3766   -3.7221 C   0  0  0  0  0  0  0  0  0  0  0  0
    3.6411    1.9808   -4.2768 C   0  0  0  0  0  0  0  0  0  0  0  0
    3.5508    2.7480   -5.5613 C   0  0  0  0  0  0  0  0  0  0  0  0
    3.2761    2.0559   -6.7606 C   0  0  0  0  0  0  0  0  0  0  0  0
    3.0915    0.5696   -6.7866 C   0  0  0  0  0  0  0  0  0  0  0  0
    4.1870   -0.2906   -6.6115 C   0  0  0  0  0  0  0  0  0  0  0  0
    4.0185   -1.6746   -6.6843 C   0  0  0  0  0  0  0  0  0  0  0  0
    2.7558   -2.2226   -6.9177 C   0  0  0  0  0  0  0  0  0  0  0  0
    1.6550   -1.3744   -7.0955 C   0  0  0  0  0  0  0  0  0  0  0  0
    0.3623   -1.9195   -7.3346 N   0  0  0  0  0  0  0  0  0  0  0  0
   -0.0198   -2.6490   -8.4632 C   0  0  0  0  0  0  0  0  0  0  0  0
    0.7204   -2.9609   -9.6102 C   0  0  0  0  0  0  0  0  0  0  0  0
    0.0867   -3.6994  -10.6099 C   0  0  0  0  0  0  0  0  0  0  0  0
   -1.2524   -4.1150  -10.4789 C   0  0  0  0  0  0  0  0  0  0  0  0
   -1.9886   -3.7901   -9.3405 C   0  0  0  0  0  0  0  0  0  0  0  0
   -1.3763   -3.0488   -8.3188 C   0  0  0  0  0  0  0  0  0  0  0  0
   -1.8291   -2.5338   -7.0409 C   0  0  0  0  0  0  0  0  0  0  0  0
   -3.0428   -2.5995   -6.3410 C   0  0  0  0  0  0  0  0  0  0  0  0
   -3.1416   -1.9916   -5.0897 C   0  0  0  0  0  0  0  0  0  0  0  0
   -2.0365   -1.3245   -4.5282 C   0  0  0  0  0  0  0  0  0  0  0  0
   -0.8170   -1.2433   -5.2024 C   0  0  0  0  0  0  0  0  0  0  0  0
   -0.7265   -1.8444   -6.4645 C   0  0  0  0  0  0  0  0  0  0  0  0
    1.8284    0.0147   -7.0392 C   0  0  0  0  0  0  0  0  0  0  0  0
    3.1914    2.7822   -7.9713 C   0  0  0  0  0  0  0  0  0  0  0  0
    2.9057    2.0772   -9.1947 C   0  0  0  0  0  0  0  0  0  0  0  0
    2.6736    1.5072  -10.1793 N   0  0  0  0  0  0  0  0  0  0  0  0
    3.3706    4.1851   -8.0069 C   0  0  0  0  0  0  0  0  0  0  0  0
    3.2428    4.9086   -9.3126 C   0  0  0  0  0  0  0  0  0  0  0  0
    2.1270    5.7188   -9.5777 C   0  0  0  0  0  0  0  0  0  0  0  0
    1.9916    6.3552  -10.8128 C   0  0  0  0  0  0  0  0  0  0  0  0
    2.9723    6.2076  -11.7959 C   0  0  0  0  0  0  0  0  0  0  0  0
    4.0903    5.4024  -11.5430 C   0  0  0  0  0  0  0  0  0  0  0  0
    5.0989    5.2449  -12.5348 N   0  0  0  0  0  0  0  0  0  0  0  0
    6.4056    5.7271  -12.4496 C   0  0  0  0  0  0  0  0  0  0  0  0
    7.0216    6.4490  -11.4194 C   0  0  0  0  0  0  0  0  0  0  0  0
    8.3543    6.8251  -11.5941 C   0  0  0  0  0  0  0  0  0  0  0  0
    9.0605    6.4971  -12.7670 C   0  0  0  0  0  0  0  0  0  0  0  0
    8.4392    5.7880  -13.7948 C   0  0  0  0  0  0  0  0  0  0  0  0
    7.1003    5.3973  -13.6461 C   0  0  0  0  0  0  0  0  0  0  0  0
    6.1613    4.6830  -14.4895 C   0  0  0  0  0  0  0  0  0  0  0  0
    6.2462    4.1003  -15.7630 C   0  0  0  0  0  0  0  0  0  0  0  0
    5.1280    3.4568  -16.2914 C   0  0  0  0  0  0  0  0  0  0  0  0
    3.9287    3.3828  -15.5570 C   0  0  0  0  0  0  0  0  0  0  0  0
    3.8162    3.9528  -14.2886 C   0  0  0  0  0  0  0  0  0  0  0  0
    4.9385    4.6092  -13.7684 C   0  0  0  0  0  0  0  0  0  0  0  0
    4.2162    4.7503  -10.3097 C   0  0  0  0  0  0  0  0  0  0  0  0
    3.6342    4.8705   -6.8037 C   0  0  0  0  0  0  0  0  0  0  0  0
    3.7869    6.3605   -6.8147 C   0  0  0  0  0  0  0  0  0  0  0  0
    4.8826    6.9805   -7.4270 C   0  0  0  0  0  0  0  0  0  0  0  0
    5.0115    8.3728   -7.4394 C   0  0  0  0  0  0  0  0  0  0  0  0
    4.0475    9.2052   -6.8495 C   0  0  0  0  0  0  0  0  0  0  0  0
    4.1533   10.7424   -6.8476 C   0  0  1  0  0  0  0  0  0  0  0  0
    5.4254   11.2392   -7.5578 C   0  0  0  0  0  0  0  0  0  0  0  0
    2.9282   11.3423   -7.5758 C   0  0  0  0  0  0  0  0  0  0  0  0
    4.1839   11.2516   -5.3877 C   0  0  0  0  0  0  0  0  0  0  0  0
    2.9473    8.5720   -6.2413 C   0  0  0  0  0  0  0  0  0  0  0  0
    2.8188    7.1840   -6.2184 C   0  0  0  0  0  0  0  0  0  0  0  0
    3.7360    4.1528   -5.5847 C   0  0  0  0  0  0  0  0  0  0  0  0
    4.0295    4.8932   -4.3160 C   0  0  0  0  0  0  0  0  0  0  0  0
    3.0857    4.9657   -3.2824 C   0  0  0  0  0  0  0  0  0  0  0  0
    3.3566    5.6628   -2.1016 C   0  0  0  0  0  0  0  0  0  0  0  0
    4.5854    6.3106   -1.8943 C   0  0  0  0  0  0  0  0  0  0  0  0
    4.9289    7.0625   -0.5935 C   0  0  1  0  0  0  0  0  0  0  0  0
    3.7414    7.1105    0.3864 C   0  0  0  0  0  0  0  0  0  0  0  0
    6.1077    6.3421    0.1043 C   0  0  0  0  0  0  0  0  0  0  0  0
    5.3405    8.5155   -0.9188 C   0  0  0  0  0  0  0  0  0  0  0  0
    5.5275    6.2285   -2.9361 C   0  0  0  0  0  0  0  0  0  0  0  0
    5.2577    5.5442   -4.1206 C   0  0  0  0  0  0  0  0  0  0  0  0
    4.8552    1.8327   -3.5904 C   0  0  0  0  0  0  0  0  0  0  0  0
    4.9256    1.0988   -2.4063 C   0  0  0  0  0  0  0  0  0  0  0  0
    2.7448   -1.5973    0.7765 H   0  0  0  0  0  0  0  0  0  0  0  0
    2.3207   -1.7450   -0.9441 H   0  0  0  0  0  0  0  0  0  0  0  0
    1.7589   -0.3443    0.0056 H   0  0  0  0  0  0  0  0  0  0  0  0
    4.2941    0.2247    1.5912 H   0  0  0  0  0  0  0  0  0  0  0  0
    3.3956    1.4846    0.7029 H   0  0  0  0  0  0  0  0  0  0  0  0
    5.1417    1.2819    0.4344 H   0  0  0  0  0  0  0  0  0  0  0  0
    5.1019   -1.8854    0.3630 H   0  0  0  0  0  0  0  0  0  0  0  0
    6.0305   -0.8443   -0.7292 H   0  0  0  0  0  0  0  0  0  0  0  0
    4.8859   -2.0295   -1.4003 H   0  0  0  0  0  0  0  0  0  0  0  0
    1.6619    0.2036   -2.1444 H   0  0  0  0  0  0  0  0  0  0  0  0
    1.5412    1.4756   -4.2290 H   0  0  0  0  0  0  0  0  0  0  0  0
    5.1776    0.1283   -6.4229 H   0  0  0  0  0  0  0  0  0  0  0  0
    4.8797   -2.3335   -6.5498 H   0  0  0  0  0  0  0  0  0  0  0  0
    2.6132   -3.3042   -6.9604 H   0  0  0  0  0  0  0  0  0  0  0  0
    1.7535   -2.6282   -9.7244 H   0  0  0  0  0  0  0  0  0  0  0  0
    0.6421   -3.9540  -11.5162 H   0  0  0  0  0  0  0  0  0  0  0  0
   -1.7181   -4.6920  -11.2814 H   0  0  0  0  0  0  0  0  0  0  0  0
   -3.0308   -4.1059   -9.2459 H   0  0  0  0  0  0  0  0  0  0  0  0
   -3.9002   -3.1237   -6.7707 H   0  0  0  0  0  0  0  0  0  0  0  0
   -4.0827   -2.0361   -4.5363 H   0  0  0  0  0  0  0  0  0  0  0  0
   -2.1328   -0.8623   -3.5422 H   0  0  0  0  0  0  0  0  0  0  0  0
    0.0404   -0.7351   -4.7582 H   0  0  0  0  0  0  0  0  0  0  0  0
    0.9646    0.6620   -7.2016 H   0  0  0  0  0  0  0  0  0  0  0  0
    1.3584    5.8451   -8.8126 H   0  0  0  0  0  0  0  0  0  0  0  0
    1.1167    6.9798  -11.0087 H   0  0  0  0  0  0  0  0  0  0  0  0
    2.8825    6.7153  -12.7583 H   0  0  0  0  0  0  0  0  0  0  0  0
    6.4746    6.7140  -10.5129 H   0  0  0  0  0  0  0  0  0  0  0  0
    8.8579    7.3883  -10.8040 H   0  0  0  0  0  0  0  0  0  0  0  0
   10.1034    6.8055  -12.8721 H   0  0  0  0  0  0  0  0  0  0  0  0
    8.9881    5.5414  -14.7072 H   0  0  0  0  0  0  0  0  0  0  0  0
    7.1784    4.1476  -16.3316 H   0  0  0  0  0  0  0  0  0  0  0  0
    5.1819    2.9988  -17.2820 H   0  0  0  0  0  0  0  0  0  0  0  0
    3.0679    2.8627  -15.9847 H   0  0  0  0  0  0  0  0  0  0  0  0
    2.8894    3.8784  -13.7173 H   0  0  0  0  0  0  0  0  0  0  0  0
    5.0840    4.1109  -10.1368 H   0  0  0  0  0  0  0  0  0  0  0  0
    5.6557    6.3670   -7.8975 H   0  0  0  0  0  0  0  0  0  0  0  0
    5.8875    8.8032   -7.9251 H   0  0  0  0  0  0  0  0  0  0  0  0
    5.4535   10.9316   -8.6148 H   0  0  0  0  0  0  0  0  0  0  0  0
    6.3405   10.8699   -7.0689 H   0  0  0  0  0  0  0  0  0  0  0  0
    5.4602   12.3397   -7.5334 H   0  0  0  0  0  0  0  0  0  0  0  0
    2.8836   10.9992   -8.6216 H   0  0  0  0  0  0  0  0  0  0  0  0
    2.9846   12.4433   -7.5807 H   0  0  0  0  0  0  0  0  0  0  0  0
    1.9817   11.0603   -7.0900 H   0  0  0  0  0  0  0  0  0  0  0  0
    5.0491   10.8398   -4.8442 H   0  0  0  0  0  0  0  0  0  0  0  0
    3.2758   10.9678   -4.8343 H   0  0  0  0  0  0  0  0  0  0  0  0
    4.2584   12.3513   -5.3650 H   0  0  0  0  0  0  0  0  0  0  0  0
    2.1657    9.1720   -5.7694 H   0  0  0  0  0  0  0  0  0  0  0  0
    1.9507    6.7305   -5.7327 H   0  0  0  0  0  0  0  0  0  0  0  0
    2.1183    4.4719   -3.3993 H   0  0  0  0  0  0  0  0  0  0  0  0
    2.5823    5.6911   -1.3351 H   0  0  0  0  0  0  0  0  0  0  0  0
    3.4334    6.1054    0.7142 H   0  0  0  0  0  0  0  0  0  0  0  0
    2.8657    7.6096   -0.0568 H   0  0  0  0  0  0  0  0  0  0  0  0
    4.0252    7.6747    1.2887 H   0  0  0  0  0  0  0  0  0  0  0  0
    5.8434    5.3015    0.3507 H   0  0  0  0  0  0  0  0  0  0  0  0
    6.3762    6.8574    1.0412 H   0  0  0  0  0  0  0  0  0  0  0  0
    7.0037    6.3185   -0.5347 H   0  0  0  0  0  0  0  0  0  0  0  0
    4.5232    9.0559   -1.4222 H   0  0  0  0  0  0  0  0  0  0  0  0
    6.2241    8.5604   -1.5735 H   0  0  0  0  0  0  0  0  0  0  0  0
    5.5891    9.0593    0.0074 H   0  0  0  0  0  0  0  0  0  0  0  0
    6.5014    6.7118   -2.8302 H   0  0  0  0  0  0  0  0  0  0  0  0
    6.0171    5.5129   -4.9052 H   0  0  0  0  0  0  0  0  0  0  0  0
    5.7615    2.2955   -3.9874 H   0  0  0  0  0  0  0  0  0  0  0  0
    5.8955    1.0118   -1.9118 H   0  0  0  0  0  0  0  0  0  0  0  0
  2  1  1  1
  1 77  1  0
  1 78  1  0
  1 79  1  0
  2  3  1  0
  2  4  1  0
  2  5  1  0
  3 80  1  0
  3 81  1  0
  3 82  1  0
  4 83  1  0
  4 84  1  0
  4 85  1  0
  5  6  2  0
  5 76  1  0
  6  7  1  0
  6 86  1  0
  7  8  2  0
  7 87  1  0
  8  9  1  0
  8 75  1  0
  9 10  1  0
  9 64  2  0
 10 11  1  0
 10 30  2  0
 11 12  2  0
 11 29  1  0
 12 13  1  0
 12 88  1  0
 13 14  2  0
 13 89  1  0
 14 15  1  0
 14 90  1  0
 15 16  1  0
 15 29  2  0
 16 17  1  0
 16 28  1  0
 17 18  2  0
 17 22  1  0
 18 19  1  0
 18 91  1  0
 19 20  2  0
 19 92  1  0
 20 21  1  0
 20 93  1  0
 21 22  2  0
 21 94  1  0
 22 23  1  0
 23 24  1  0
 23 28  2  0
 24 25  2  0
 24 95  1  0
 25 26  1  0
 25 96  1  0
 26 27  2  0
 26 97  1  0
 27 28  1  0
 27 98  1  0
 29 99  1  0
 30 31  1  0
 30 33  1  0
 31 32  3  0
 33 34  1  0
 33 53  2  0
 34 35  2  0
 34 52  1  0
 35 36  1  0
 35100  1  0
 36 37  2  0
 36101  1  0
 37 38  1  0
 37102  1  0
 38 39  1  0
 38 52  2  0
 39 40  1  0
 39 51  1  0
 40 41  2  0
 40 45  1  0
 41 42  1  0
 41103  1  0
 42 43  2  0
 42104  1  0
 43 44  1  0
 43105  1  0
 44 45  2  0
 44106  1  0
 45 46  1  0
 46 47  1  0
 46 51  2  0
 47 48  2  0
 47107  1  0
 48 49  1  0
 48108  1  0
 49 50  2  0
 49109  1  0
 50 51  1  0
 50110  1  0
 52111  1  0
 53 54  1  0
 53 64  1  0
 54 55  2  0
 54 63  1  0
 55 56  1  0
 55112  1  0
 56 57  2  0
 56113  1  0
 57 58  1  0
 57 62  1  0
 58 59  1  6
 58 60  1  0
 58 61  1  0
 59114  1  0
 59115  1  0
 59116  1  0
 60117  1  0
 60118  1  0
 60119  1  0
 61120  1  0
 61121  1  0
 61122  1  0
 62 63  2  0
 62123  1  0
 63124  1  0
 64 65  1  0
 65 66  2  0
 65 74  1  0
 66 67  1  0
 66125  1  0
 67 68  2  0
 67126  1  0
 68 69  1  0
 68 73  1  0
 69 70  1  1
 69 71  1  0
 69 72  1  0
 70127  1  0
 70128  1  0
 70129  1  0
 71130  1  0
 71131  1  0
 71132  1  0
 72133  1  0
 72134  1  0
 72135  1  0
 73 74  2  0
 73136  1  0
 74137  1  0
 75 76  2  0
 75138  1  0
 76139  1  0
M  END

