
     RDKit          3D

 59 60  0  0  0  0  0  0  0  0999 V2000
    5.7117   -2.3298    1.1035 C   0  0  0  0  0  0  0  0  0  0  0  0
    5.9105   -0.8835    0.6428 C   0  0  1  0  0  0  0  0  0  0  0  0
    5.1948    0.1213    1.5498 C   0  0  0  0  0  0  0  0  0  0  0  0
    7.3976   -0.5487    0.5250 C   0  0  0  0  0  0  0  0  0  0  0  0
    5.4301   -0.7232   -0.7474 O   0  0  0  0  0  0  0  0  0  0  0  0
    4.1660   -0.9418   -1.1123 C   0  0  0  0  0  0  0  0  0  0  0  0
    3.2761   -1.2767   -0.3573 O   0  0  0  0  0  0  0  0  0  0  0  0
    3.9639   -0.6818   -2.6142 C   0  0  1  0  0  0  0  0  0  0  0  0
    5.0479   -1.3358   -3.4975 C   0  0  0  0  0  0  0  0  0  0  0  0
    4.8691   -2.8543   -3.6317 C   0  0  0  0  0  0  0  0  0  0  0  0
    3.4998   -3.1792   -4.0497 N   0  0  0  0  0  0  0  0  0  0  0  0
    3.3023   -4.4543   -4.6728 C   0  0  0  0  0  0  0  0  0  0  0  0
    3.6404   -5.6878   -4.0688 C   0  0  0  0  0  0  0  0  0  0  0  0
    4.0348   -5.8404   -2.6161 C   0  0  0  0  0  0  0  0  0  0  0  0
    5.0515   -6.4340   -2.2957 O   0  0  0  0  0  0  0  0  0  0  0  0
    3.1166   -5.3332   -1.7297 N   0  0  0  0  0  0  0  0  0  0  0  0
    3.2605   -5.3015   -0.3149 C   0  0  0  0  0  0  0  0  0  0  0  0
    4.1258   -5.9297    0.3733 N   0  0  0  0  0  0  0  0  0  0  0  0
    2.2877   -4.4960    0.2765 N   0  0  0  0  0  0  0  0  0  0  0  0
    3.6074   -6.8799   -4.8091 C   0  0  0  0  0  0  0  0  0  0  0  0
    3.1659   -6.8955   -6.1293 C   0  0  0  0  0  0  0  0  0  0  0  0
    2.7630   -5.7025   -6.7290 C   0  0  0  0  0  0  0  0  0  0  0  0
    2.8485   -4.5070   -6.0111 C   0  0  0  0  0  0  0  0  0  0  0  0
    2.2641   -3.0373   -6.9091 S   0  0  1  0  0  0  0  0  0  0  0  0
    3.7207   -2.0234   -7.2036 C   0  0  0  0  0  0  0  0  0  0  0  0
    1.7965   -3.4980   -8.2248 O   0  0  0  0  0  0  0  0  0  0  0  0
    1.3370   -2.2679   -6.0544 O   0  0  0  0  0  0  0  0  0  0  0  0
    2.5124   -2.6694   -3.0738 C   0  0  2  0  0  0  0  0  0  0  0  0
    1.2279   -3.2994   -3.2917 N   0  0  0  0  0  0  0  0  0  0  0  0
    2.5664   -1.1352   -3.0661 C   0  0  0  0  0  0  0  0  0  0  0  0
    6.1858   -2.4679    2.0876 H   0  0  0  0  0  0  0  0  0  0  0  0
    6.1826   -3.0360    0.4029 H   0  0  0  0  0  0  0  0  0  0  0  0
    4.6498   -2.5872    1.1927 H   0  0  0  0  0  0  0  0  0  0  0  0
    5.6345    0.0826    2.5585 H   0  0  0  0  0  0  0  0  0  0  0  0
    4.1234   -0.1030    1.6270 H   0  0  0  0  0  0  0  0  0  0  0  0
    5.3180    1.1457    1.1646 H   0  0  0  0  0  0  0  0  0  0  0  0
    7.8809   -0.6200    1.5109 H   0  0  0  0  0  0  0  0  0  0  0  0
    7.5376    0.4730    0.1406 H   0  0  0  0  0  0  0  0  0  0  0  0
    7.9007   -1.2489   -0.1588 H   0  0  0  0  0  0  0  0  0  0  0  0
    4.0578    0.4140   -2.7191 H   0  0  0  0  0  0  0  0  0  0  0  0
    6.0481   -1.1177   -3.0970 H   0  0  0  0  0  0  0  0  0  0  0  0
    4.9922   -0.8745   -4.4971 H   0  0  0  0  0  0  0  0  0  0  0  0
    5.1331   -3.3390   -2.6672 H   0  0  0  0  0  0  0  0  0  0  0  0
    5.5742   -3.2458   -4.3807 H   0  0  0  0  0  0  0  0  0  0  0  0
    2.2507   -4.9588   -2.1283 H   0  0  0  0  0  0  0  0  0  0  0  0
    4.6995   -6.5242   -0.2276 H   0  0  0  0  0  0  0  0  0  0  0  0
    2.2078   -3.5555   -0.1095 H   0  0  0  0  0  0  0  0  0  0  0  0
    2.4255   -4.4640    1.2834 H   0  0  0  0  0  0  0  0  0  0  0  0
    3.9213   -7.8031   -4.3168 H   0  0  0  0  0  0  0  0  0  0  0  0
    3.1265   -7.8327   -6.6889 H   0  0  0  0  0  0  0  0  0  0  0  0
    2.3916   -5.6733   -7.7544 H   0  0  0  0  0  0  0  0  0  0  0  0
    4.4285   -2.6017   -7.8109 H   0  0  0  0  0  0  0  0  0  0  0  0
    4.1456   -1.7228   -6.2409 H   0  0  0  0  0  0  0  0  0  0  0  0
    3.3487   -1.1543   -7.7643 H   0  0  0  0  0  0  0  0  0  0  0  0
    2.8417   -2.9751   -2.0660 H   0  0  0  0  0  0  0  0  0  0  0  0
    0.8697   -3.0413   -4.2167 H   0  0  0  0  0  0  0  0  0  0  0  0
    0.5592   -2.9659   -2.5977 H   0  0  0  0  0  0  0  0  0  0  0  0
    1.8064   -0.7529   -2.3684 H   0  0  0  0  0  0  0  0  0  0  0  0
    2.3382   -0.7571   -4.0739 H   0  0  0  0  0  0  0  0  0  0  0  0
  1  2  1  0
  1 31  1  0
  1 32  1  0
  1 33  1  0
  2  3  1  0
  2  4  1  0
  2  5  1  6
  3 34  1  0
  3 35  1  0
  3 36  1  0
  4 37  1  0
  4 38  1  0
  4 39  1  0
  5  6  1  0
  6  7  2  0
  6  8  1  0
  8  9  1  0
  8 30  1  0
  8 40  1  1
  9 10  1  0
  9 41  1  0
  9 42  1  0
 10 11  1  0
 10 43  1  0
 10 44  1  0
 11 12  1  0
 11 28  1  0
 12 13  2  0
 12 23  1  0
 13 14  1  0
 13 20  1  0
 14 15  2  0
 14 16  1  0
 16 17  1  0
 16 45  1  0
 17 18  2  0
 17 19  1  0
 18 46  1  0
 19 47  1  0
 19 48  1  0
 20 21  2  0
 20 49  1  0
 21 22  1  0
 21 50  1  0
 22 23  2  0
 22 51  1  0
 23 24  1  0
 24 25  1  6
 24 26  2  0
 24 27  2  0
 25 52  1  0
 25 53  1  0
 25 54  1  0
 28 29  1  0
 28 30  1  0
 28 55  1  1
 29 56  1  0
 29 57  1  0
 30 58  1  0
 30 59  1  0
M  END

