
     RDKit          3D

 51 54  0  0  0  0  0  0  0  0999 V2000
    0.8552    0.2445    1.1940 O   0  0  0  0  0  0  0  0  0  0  0  0
    2.2265    0.3876    0.6950 S   0  0  1  0  0  0  0  0  0  0  0  0
    2.5480    1.3800   -0.3463 O   0  0  0  0  0  0  0  0  0  0  0  0
    3.1897    0.7430    2.1402 C   0  0  0  0  0  0  0  0  0  0  0  0
    2.6239    0.6741    3.4023 C   0  0  0  0  0  0  0  0  0  0  0  0
    3.6194    0.9096    4.2930 N   0  0  0  0  0  0  0  0  0  0  0  0
    3.5340    0.9575    5.7147 C   0  0  0  0  0  0  0  0  0  0  0  0
    2.4142    0.4360    6.3768 C   0  0  0  0  0  0  0  0  0  0  0  0
    2.3438    0.5045    7.7696 C   0  0  0  0  0  0  0  0  0  0  0  0
    3.3847    1.0775    8.5056 C   0  0  0  0  0  0  0  0  0  0  0  0
    4.5026    1.5851    7.8363 C   0  0  0  0  0  0  0  0  0  0  0  0
    4.5839    1.5314    6.4442 C   0  0  0  0  0  0  0  0  0  0  0  0
    4.7958    1.1431    3.6769 N   0  0  0  0  0  0  0  0  0  0  0  0
    4.5748    1.0532    2.3671 C   0  0  0  0  0  0  0  0  0  0  0  0
    5.6802    1.2615    1.4361 C   0  0  0  0  0  0  0  0  0  0  0  0
    5.6668    1.7265    0.1354 C   0  0  0  0  0  0  0  0  0  0  0  0
    6.9719    1.8414   -0.4245 C   0  0  0  0  0  0  0  0  0  0  0  0
    7.9597    1.4654    0.4528 C   0  0  0  0  0  0  0  0  0  0  0  0
    7.3171    0.9726    1.9772 S   0  0  0  0  0  0  0  0  0  0  0  0
    2.7446   -1.0851    0.1174 N   0  0  0  0  0  0  0  0  0  0  0  0
    3.5263   -1.1600   -1.1205 C   0  0  0  0  0  0  0  0  0  0  0  0
    2.6920   -1.2568   -2.4081 C   0  0  0  0  0  0  0  0  0  0  0  0
    1.6592   -0.3111   -2.4847 O   0  0  0  0  0  0  0  0  0  0  0  0
    2.3381   -2.3049    0.8169 C   0  0  0  0  0  0  0  0  0  0  0  0
    1.3248   -3.1741    0.0883 C   0  0  0  0  0  0  0  0  0  0  0  0
    0.1349   -2.6283   -0.4199 C   0  0  0  0  0  0  0  0  0  0  0  0
   -0.8017   -3.4498   -1.0499 C   0  0  0  0  0  0  0  0  0  0  0  0
   -0.5678   -4.8240   -1.1779 C   0  0  0  0  0  0  0  0  0  0  0  0
    0.6135   -5.3739   -0.6749 C   0  0  0  0  0  0  0  0  0  0  0  0
    1.5545   -4.5501   -0.0476 C   0  0  0  0  0  0  0  0  0  0  0  0
    1.5898    0.4953    3.6789 H   0  0  0  0  0  0  0  0  0  0  0  0
    1.6027   -0.0341    5.8196 H   0  0  0  0  0  0  0  0  0  0  0  0
    1.4685    0.0967    8.2809 H   0  0  0  0  0  0  0  0  0  0  0  0
    3.3259    1.1254    9.5953 H   0  0  0  0  0  0  0  0  0  0  0  0
    5.3229    2.0339    8.4019 H   0  0  0  0  0  0  0  0  0  0  0  0
    5.4469    1.9241    5.9078 H   0  0  0  0  0  0  0  0  0  0  0  0
    4.7447    1.9990   -0.3769 H   0  0  0  0  0  0  0  0  0  0  0  0
    7.1692    2.1970   -1.4370 H   0  0  0  0  0  0  0  0  0  0  0  0
    9.0364    1.4549    0.2869 H   0  0  0  0  0  0  0  0  0  0  0  0
    4.1921   -2.0364   -1.0427 H   0  0  0  0  0  0  0  0  0  0  0  0
    4.1795   -0.2784   -1.1689 H   0  0  0  0  0  0  0  0  0  0  0  0
    2.2235   -2.2508   -2.4830 H   0  0  0  0  0  0  0  0  0  0  0  0
    3.4062   -1.1731   -3.2565 H   0  0  0  0  0  0  0  0  0  0  0  0
    1.9607    0.5222   -2.0870 H   0  0  0  0  0  0  0  0  0  0  0  0
    1.9194   -2.0046    1.7898 H   0  0  0  0  0  0  0  0  0  0  0  0
    3.2424   -2.8997    1.0349 H   0  0  0  0  0  0  0  0  0  0  0  0
   -0.0423   -1.5551   -0.3329 H   0  0  0  0  0  0  0  0  0  0  0  0
   -1.7213   -3.0124   -1.4469 H   0  0  0  0  0  0  0  0  0  0  0  0
   -1.3037   -5.4628   -1.6732 H   0  0  0  0  0  0  0  0  0  0  0  0
    0.8083   -6.4450   -0.7746 H   0  0  0  0  0  0  0  0  0  0  0  0
    2.4809   -4.9850    0.3406 H   0  0  0  0  0  0  0  0  0  0  0  0
  1  2  2  0
  2  3  2  0
  2  4  1  0
  2 20  1  6
  4  5  2  0
  4 14  1  0
  5  6  1  0
  5 31  1  0
  6  7  1  0
  6 13  1  0
  7  8  2  0
  7 12  1  0
  8  9  1  0
  8 32  1  0
  9 10  2  0
  9 33  1  0
 10 11  1  0
 10 34  1  0
 11 12  2  0
 11 35  1  0
 12 36  1  0
 13 14  2  0
 14 15  1  0
 15 16  2  0
 15 19  1  0
 16 17  1  0
 16 37  1  0
 17 18  2  0
 17 38  1  0
 18 19  1  0
 18 39  1  0
 20 21  1  0
 20 24  1  0
 21 22  1  0
 21 40  1  0
 21 41  1  0
 22 23  1  0
 22 42  1  0
 22 43  1  0
 23 44  1  0
 24 25  1  0
 24 45  1  0
 24 46  1  0
 25 26  2  0
 25 30  1  0
 26 27  1  0
 26 47  1  0
 27 28  2  0
 27 48  1  0
 28 29  1  0
 28 49  1  0
 29 30  2  0
 29 50  1  0
 30 51  1  0
M  END

