
     RDKit          3D

 53 57  0  0  0  0  0  0  0  0999 V2000
    1.4765   -0.2845    0.7586 O   0  0  0  0  0  0  0  0  0  0  0  0
    2.4602   -0.1421    0.0240 C   0  0  0  0  0  0  0  0  0  0  0  0
    2.8217    1.1461   -0.7038 C   0  0  0  0  0  0  0  0  0  0  0  0
    2.2130    2.1904   -0.6395 O   0  0  0  0  0  0  0  0  0  0  0  0
    3.9767    0.8660   -1.4282 N   0  0  0  0  0  0  0  0  0  0  0  0
    4.7082    1.8140   -2.1873 C   0  0  0  0  0  0  0  0  0  0  0  0
    4.1394    3.0491   -2.5629 C   0  0  0  0  0  0  0  0  0  0  0  0
    4.8819    3.9706   -3.2961 C   0  0  0  0  0  0  0  0  0  0  0  0
    6.1910    3.6802   -3.6798 C   0  0  0  0  0  0  0  0  0  0  0  0
    6.8291    4.6497   -4.4502 O   0  0  0  0  0  0  0  0  0  0  0  0
    8.1572    4.8665   -4.3557 C   0  0  1  0  0  0  0  0  0  0  0  0
    8.5657    4.9973   -3.0873 F   0  0  0  0  0  0  0  0  0  0  0  0
    8.8826    3.8728   -4.9041 F   0  0  0  0  0  0  0  0  0  0  0  0
    8.4335    5.9839   -5.0136 F   0  0  0  0  0  0  0  0  0  0  0  0
    6.7691    2.4593   -3.3320 C   0  0  0  0  0  0  0  0  0  0  0  0
    6.0305    1.5419   -2.5832 C   0  0  0  0  0  0  0  0  0  0  0  0
    4.4262   -0.5433   -1.3077 C   0  0  2  0  0  0  0  0  0  0  0  0
    4.4092   -1.2738   -2.6479 C   0  0  0  0  0  0  0  0  0  0  0  0
    3.2835   -1.2569   -3.4814 C   0  0  0  0  0  0  0  0  0  0  0  0
    3.3200   -1.9612   -4.6831 C   0  0  0  0  0  0  0  0  0  0  0  0
    4.4851   -2.6650   -5.0108 C   0  0  0  0  0  0  0  0  0  0  0  0
    5.5647   -2.6900   -4.2287 N   0  0  0  0  0  0  0  0  0  0  0  0
    5.5200   -2.0094   -3.0822 C   0  0  0  0  0  0  0  0  0  0  0  0
    3.4550   -1.1200   -0.2941 C   0  0  0  0  0  0  0  0  0  0  0  0
    3.3693   -2.3804    0.2753 C   0  0  0  0  0  0  0  0  0  0  0  0
    2.3452   -2.6566    1.0619 O   0  0  0  0  0  0  0  0  0  0  0  0
    4.3558   -3.4720    0.0948 C   0  0  0  0  0  0  0  0  0  0  0  0
    5.6921   -3.1997    0.3532 C   0  0  0  0  0  0  0  0  0  0  0  0
    6.6819   -4.2020    0.2404 C   0  0  0  0  0  0  0  0  0  0  0  0
    6.3276   -5.4748   -0.1495 C   0  0  0  0  0  0  0  0  0  0  0  0
    4.9729   -5.8032   -0.4324 C   0  0  0  0  0  0  0  0  0  0  0  0
    4.6057   -7.1146   -0.8463 C   0  0  0  0  0  0  0  0  0  0  0  0
    3.2935   -7.4275   -1.1256 C   0  0  0  0  0  0  0  0  0  0  0  0
    2.2901   -6.4355   -1.0026 C   0  0  0  0  0  0  0  0  0  0  0  0
    2.6098   -5.1548   -0.6015 C   0  0  0  0  0  0  0  0  0  0  0  0
    3.9553   -4.7962   -0.3017 C   0  0  0  0  0  0  0  0  0  0  0  0
    3.1249    3.2892   -2.2571 H   0  0  0  0  0  0  0  0  0  0  0  0
    4.4475    4.9304   -3.5813 H   0  0  0  0  0  0  0  0  0  0  0  0
    7.7835    2.2097   -3.6405 H   0  0  0  0  0  0  0  0  0  0  0  0
    6.5107    0.6009   -2.3223 H   0  0  0  0  0  0  0  0  0  0  0  0
    5.4570   -0.5553   -0.9198 H   0  0  0  0  0  0  0  0  0  0  0  0
    2.3896   -0.6947   -3.1972 H   0  0  0  0  0  0  0  0  0  0  0  0
    2.4619   -1.9663   -5.3591 H   0  0  0  0  0  0  0  0  0  0  0  0
    4.5446   -3.2289   -5.9492 H   0  0  0  0  0  0  0  0  0  0  0  0
    6.4231   -2.0487   -2.4597 H   0  0  0  0  0  0  0  0  0  0  0  0
    1.7704   -1.8232    1.1203 H   0  0  0  0  0  0  0  0  0  0  0  0
    5.9812   -2.2006    0.6866 H   0  0  0  0  0  0  0  0  0  0  0  0
    7.7228   -3.9612    0.4679 H   0  0  0  0  0  0  0  0  0  0  0  0
    7.0871   -6.2552   -0.2456 H   0  0  0  0  0  0  0  0  0  0  0  0
    5.3891   -7.8709   -0.9419 H   0  0  0  0  0  0  0  0  0  0  0  0
    3.0237   -8.4377   -1.4431 H   0  0  0  0  0  0  0  0  0  0  0  0
    1.2505   -6.6880   -1.2256 H   0  0  0  0  0  0  0  0  0  0  0  0
    1.8213   -4.4103   -0.4985 H   0  0  0  0  0  0  0  0  0  0  0  0
  1  2  2  0
  2  3  1  0
  2 24  1  0
  3  4  2  0
  3  5  1  0
  5  6  1  0
  5 17  1  0
  6  7  2  0
  6 16  1  0
  7  8  1  0
  7 37  1  0
  8  9  2  0
  8 38  1  0
  9 10  1  0
  9 15  1  0
 10 11  1  0
 11 12  1  1
 11 13  1  0
 11 14  1  0
 15 16  2  0
 15 39  1  0
 16 40  1  0
 17 18  1  0
 17 24  1  0
 17 41  1  1
 18 19  2  0
 18 23  1  0
 19 20  1  0
 19 42  1  0
 20 21  2  0
 20 43  1  0
 21 22  1  0
 21 44  1  0
 22 23  2  0
 23 45  1  0
 24 25  2  0
 25 26  1  0
 25 27  1  0
 26 46  1  0
 27 28  2  0
 27 36  1  0
 28 29  1  0
 28 47  1  0
 29 30  2  0
 29 48  1  0
 30 31  1  0
 30 49  1  0
 31 32  1  0
 31 36  2  0
 32 33  2  0
 32 50  1  0
 33 34  1  0
 33 51  1  0
 34 35  2  0
 34 52  1  0
 35 36  1  0
 35 53  1  0
M  END

