
     RDKit          3D

 31 33  0  0  0  0  0  0  0  0999 V2000
    1.6901    0.8510   -0.2510 N   0  0  0  0  0  0  0  0  0  0  0  0
    2.8093    0.5415   -0.2027 C   0  0  0  0  0  0  0  0  0  0  0  0
    4.1718    0.1381   -0.1441 C   0  0  0  0  0  0  0  0  0  0  0  0
    5.1696    1.0312   -0.0863 N   0  0  0  0  0  0  0  0  0  0  0  0
    6.2625    0.3079   -0.0542 N   0  0  0  0  0  0  0  0  0  0  0  0
    7.5569    0.8875    0.0106 C   0  0  0  0  0  0  0  0  0  0  0  0
    7.6954    2.2819    0.0314 C   0  0  0  0  0  0  0  0  0  0  0  0
    8.9679    2.8459    0.0952 C   0  0  0  0  0  0  0  0  0  0  0  0
   10.0952    2.0178    0.1379 C   0  0  0  0  0  0  0  0  0  0  0  0
   11.6885    2.7285    0.2179 Cl  0  0  0  0  0  0  0  0  0  0  0  0
    9.9561    0.6268    0.1172 C   0  0  0  0  0  0  0  0  0  0  0  0
    8.6844    0.0581    0.0535 C   0  0  0  0  0  0  0  0  0  0  0  0
    6.0822   -1.0236   -0.0844 N   0  0  0  0  0  0  0  0  0  0  0  0
    4.7555   -1.1800   -0.1428 C   0  0  0  0  0  0  0  0  0  0  0  0
    4.1745   -2.4004   -0.1902 N   0  0  0  0  0  0  0  0  0  0  0  0
    4.9694   -3.6295   -0.2444 C   0  0  0  0  0  0  0  0  0  0  0  0
    3.9315   -4.7029   -0.5969 C   0  0  0  0  0  0  0  0  0  0  0  0
    2.6318   -4.1567    0.0130 C   0  0  0  0  0  0  0  0  0  0  0  0
    2.7315   -2.6452   -0.2329 C   0  0  0  0  0  0  0  0  0  0  0  0
    6.8060    2.9107   -0.0025 H   0  0  0  0  0  0  0  0  0  0  0  0
    9.0896    3.9300    0.1119 H   0  0  0  0  0  0  0  0  0  0  0  0
   10.8428   -0.0080    0.1512 H   0  0  0  0  0  0  0  0  0  0  0  0
    8.5533   -1.0232    0.0370 H   0  0  0  0  0  0  0  0  0  0  0  0
    5.4536   -3.8238    0.7314 H   0  0  0  0  0  0  0  0  0  0  0  0
    5.7762   -3.5400   -0.9896 H   0  0  0  0  0  0  0  0  0  0  0  0
    4.2075   -5.6962   -0.2140 H   0  0  0  0  0  0  0  0  0  0  0  0
    3.8312   -4.7842   -1.6920 H   0  0  0  0  0  0  0  0  0  0  0  0
    2.6064   -4.3589    1.0966 H   0  0  0  0  0  0  0  0  0  0  0  0
    1.7241   -4.5929   -0.4287 H   0  0  0  0  0  0  0  0  0  0  0  0
    2.1989   -2.0562    0.5298 H   0  0  0  0  0  0  0  0  0  0  0  0
    2.3074   -2.3662   -1.2162 H   0  0  0  0  0  0  0  0  0  0  0  0
  1  2  3  0
  2  3  1  0
  3  4  2  0
  3 14  1  0
  4  5  1  0
  5  6  1  0
  5 13  1  0
  6  7  2  0
  6 12  1  0
  7  8  1  0
  7 20  1  0
  8  9  2  0
  8 21  1  0
  9 10  1  0
  9 11  1  0
 11 12  2  0
 11 22  1  0
 12 23  1  0
 13 14  2  0
 14 15  1  0
 15 16  1  0
 15 19  1  0
 16 17  1  0
 16 24  1  0
 16 25  1  0
 17 18  1  0
 17 26  1  0
 17 27  1  0
 18 19  1  0
 18 28  1  0
 18 29  1  0
 19 30  1  0
 19 31  1  0
M  END

