
     RDKit          3D

 43 46  0  0  0  0  0  0  0  0999 V2000
    1.0758   -0.7634    1.2824 N   0  0  0  0  0  0  0  0  0  0  0  0
    2.1685   -0.6546    0.9027 C   0  0  0  0  0  0  0  0  0  0  0  0
    3.5173   -0.5222    0.4362 C   0  0  0  0  0  0  0  0  0  0  0  0
    4.5211   -1.4043    0.8699 C   0  0  0  0  0  0  0  0  0  0  0  0
    5.8306   -1.2636    0.4184 C   0  0  0  0  0  0  0  0  0  0  0  0
    6.2079   -0.2510   -0.4935 C   0  0  0  0  0  0  0  0  0  0  0  0
    7.5017   -0.1213   -0.9883 N   0  0  0  0  0  0  0  0  0  0  0  0
    8.4397   -1.2261   -0.8135 C   0  0  0  0  0  0  0  0  0  0  0  0
    9.5726   -1.1200   -1.8483 C   0  0  0  0  0  0  0  0  0  0  0  0
   10.2598    0.1623   -1.8524 N   0  0  0  0  0  0  0  0  0  0  0  0
   11.2578    0.3599   -0.8071 C   0  0  0  0  0  0  0  0  0  0  0  0
   12.3217    1.3462   -1.2068 C   0  0  0  0  0  0  0  0  0  0  0  0
   12.7531    1.6362   -2.4955 C   0  0  0  0  0  0  0  0  0  0  0  0
   13.7650    2.5575   -2.3453 N   0  0  0  0  0  0  0  0  0  0  0  0
   14.5493    3.1983   -3.2718 C   0  0  0  0  0  0  0  0  0  0  0  0
   15.4980    4.0860   -2.8318 C   0  0  0  0  0  0  0  0  0  0  0  0
   16.5036    4.9058   -3.9979 Cl  0  0  0  0  0  0  0  0  0  0  0  0
   15.6750    4.3477   -1.4415 C   0  0  0  0  0  0  0  0  0  0  0  0
   14.8815    3.7002   -0.5227 C   0  0  0  0  0  0  0  0  0  0  0  0
   13.8973    2.7801   -0.9583 C   0  0  0  0  0  0  0  0  0  0  0  0
   13.0219    2.0497   -0.2774 N   0  0  0  0  0  0  0  0  0  0  0  0
    9.2928    1.2477   -1.9974 C   0  0  0  0  0  0  0  0  0  0  0  0
    8.1604    1.1946   -0.9658 C   0  0  0  0  0  0  0  0  0  0  0  0
    5.1631    0.6068   -0.9249 C   0  0  0  0  0  0  0  0  0  0  0  0
    5.4321    1.5605   -1.8373 F   0  0  0  0  0  0  0  0  0  0  0  0
    3.8607    0.4957   -0.4757 C   0  0  0  0  0  0  0  0  0  0  0  0
    4.2744   -2.1964    1.5790 H   0  0  0  0  0  0  0  0  0  0  0  0
    6.5880   -1.9495    0.7965 H   0  0  0  0  0  0  0  0  0  0  0  0
    7.9088   -2.1775   -0.9662 H   0  0  0  0  0  0  0  0  0  0  0  0
    8.8611   -1.2439    0.2152 H   0  0  0  0  0  0  0  0  0  0  0  0
    9.1320   -1.2782   -2.8490 H   0  0  0  0  0  0  0  0  0  0  0  0
   10.3010   -1.9287   -1.6779 H   0  0  0  0  0  0  0  0  0  0  0  0
   11.7404   -0.6142   -0.6131 H   0  0  0  0  0  0  0  0  0  0  0  0
   10.8510    0.6903    0.1710 H   0  0  0  0  0  0  0  0  0  0  0  0
   12.4255    1.2727   -3.4645 H   0  0  0  0  0  0  0  0  0  0  0  0
   14.3815    2.9688   -4.3237 H   0  0  0  0  0  0  0  0  0  0  0  0
   16.4395    5.0595   -1.1279 H   0  0  0  0  0  0  0  0  0  0  0  0
   14.9834    3.8711    0.5496 H   0  0  0  0  0  0  0  0  0  0  0  0
    8.8459    1.1864   -3.0055 H   0  0  0  0  0  0  0  0  0  0  0  0
    9.8143    2.2144   -1.9262 H   0  0  0  0  0  0  0  0  0  0  0  0
    7.4304    1.9807   -1.1842 H   0  0  0  0  0  0  0  0  0  0  0  0
    8.5606    1.3898    0.0512 H   0  0  0  0  0  0  0  0  0  0  0  0
    3.1127    1.1903   -0.8606 H   0  0  0  0  0  0  0  0  0  0  0  0
  1  2  3  0
  2  3  1  0
  3  4  2  0
  3 26  1  0
  4  5  1  0
  4 27  1  0
  5  6  2  0
  5 28  1  0
  6  7  1  0
  6 24  1  0
  7  8  1  0
  7 23  1  0
  8  9  1  0
  8 29  1  0
  8 30  1  0
  9 10  1  0
  9 31  1  0
  9 32  1  0
 10 11  1  0
 10 22  1  0
 11 12  1  0
 11 33  1  0
 11 34  1  0
 12 13  2  0
 12 21  1  0
 13 14  1  0
 13 35  1  0
 14 15  1  0
 14 20  1  0
 15 16  2  0
 15 36  1  0
 16 17  1  0
 16 18  1  0
 18 19  2  0
 18 37  1  0
 19 20  1  0
 19 38  1  0
 20 21  2  0
 22 23  1  0
 22 39  1  0
 22 40  1  0
 23 41  1  0
 23 42  1  0
 24 25  1  0
 24 26  2  0
 26 43  1  0
M  END

