
     RDKit          3D

 59 60  0  0  0  0  0  0  0  0999 V2000
    3.2586    0.0764    1.4521 C   0  0  0  0  0  0  0  0  0  0  0  0
    3.5494   -0.5323    0.0795 C   0  0  0  0  0  0  0  0  0  0  0  0
    4.2524    0.4353   -0.8770 C   0  0  0  0  0  0  0  0  0  0  0  0
    4.5488   -0.1925   -2.2434 C   0  0  0  0  0  0  0  0  0  0  0  0
    5.1979    0.7193   -3.1887 N   0  0  0  0  0  0  0  0  0  0  0  0
    4.3432    1.5996   -3.9777 C   0  0  0  0  0  0  0  0  0  0  0  0
    4.0532    1.0760   -5.3593 C   0  0  0  0  0  0  0  0  0  0  0  0
    4.4305   -0.1063   -5.9760 C   0  0  0  0  0  0  0  0  0  0  0  0
    3.8736   -0.1029   -7.2880 C   0  0  0  0  0  0  0  0  0  0  0  0
    3.1758    1.0790   -7.4289 C   0  0  0  0  0  0  0  0  0  0  0  0
    3.2875    1.7951   -6.2560 N   0  0  0  0  0  0  0  0  0  0  0  0
    2.6831    3.0867   -6.0005 C   0  0  0  0  0  0  0  0  0  0  0  0
    6.5596    0.8217   -3.1379 C   0  0  0  0  0  0  0  0  0  0  0  0
    7.2220    0.2307   -2.2934 O   0  0  0  0  0  0  0  0  0  0  0  0
    7.2828    1.6197   -4.2404 C   0  0  0  0  0  0  0  0  0  0  0  0
    8.2685    2.5646   -3.7187 N   0  0  0  0  0  0  0  0  0  0  0  0
    9.6857    2.2109   -3.7621 C   0  0  0  0  0  0  0  0  0  0  0  0
   10.1452    1.2704   -2.6476 C   0  0  0  0  0  0  0  0  0  0  0  0
   11.5265    1.0766   -2.8363 O   0  0  0  0  0  0  0  0  0  0  0  0
   12.1081    0.1998   -1.9098 C   0  0  0  0  0  0  0  0  0  0  0  0
    7.7447    3.6538   -3.0758 C   0  0  0  0  0  0  0  0  0  0  0  0
    6.5334    3.7728   -2.9132 O   0  0  0  0  0  0  0  0  0  0  0  0
    8.6627    4.7442   -2.5778 C   0  0  0  0  0  0  0  0  0  0  0  0
    8.5782    5.1206   -1.2287 C   0  0  0  0  0  0  0  0  0  0  0  0
    9.3402    6.1882   -0.7488 C   0  0  0  0  0  0  0  0  0  0  0  0
   10.1726    6.9109   -1.6082 C   0  0  0  0  0  0  0  0  0  0  0  0
   10.2249    6.5406   -2.9499 C   0  0  0  0  0  0  0  0  0  0  0  0
   11.0043    7.2368   -3.7903 F   0  0  0  0  0  0  0  0  0  0  0  0
    9.4898    5.4681   -3.4491 C   0  0  0  0  0  0  0  0  0  0  0  0
    2.7574   -0.6450    2.1172 H   0  0  0  0  0  0  0  0  0  0  0  0
    2.6056    0.9614    1.3683 H   0  0  0  0  0  0  0  0  0  0  0  0
    4.1878    0.3998    1.9500 H   0  0  0  0  0  0  0  0  0  0  0  0
    2.6042   -0.8796   -0.3775 H   0  0  0  0  0  0  0  0  0  0  0  0
    4.1727   -1.4365    0.2026 H   0  0  0  0  0  0  0  0  0  0  0  0
    5.2064    0.7705   -0.4379 H   0  0  0  0  0  0  0  0  0  0  0  0
    3.6310    1.3399   -1.0099 H   0  0  0  0  0  0  0  0  0  0  0  0
    3.6197   -0.5534   -2.7147 H   0  0  0  0  0  0  0  0  0  0  0  0
    5.2120   -1.0588   -2.1077 H   0  0  0  0  0  0  0  0  0  0  0  0
    4.7948    2.6038   -3.9999 H   0  0  0  0  0  0  0  0  0  0  0  0
    3.4011    1.7271   -3.4147 H   0  0  0  0  0  0  0  0  0  0  0  0
    5.0396   -0.8851   -5.5217 H   0  0  0  0  0  0  0  0  0  0  0  0
    3.9752   -0.8787   -8.0446 H   0  0  0  0  0  0  0  0  0  0  0  0
    2.6097    1.4766   -8.2692 H   0  0  0  0  0  0  0  0  0  0  0  0
    2.1979    3.4455   -6.9180 H   0  0  0  0  0  0  0  0  0  0  0  0
    3.4378    3.8299   -5.6970 H   0  0  0  0  0  0  0  0  0  0  0  0
    1.9190    3.0289   -5.2071 H   0  0  0  0  0  0  0  0  0  0  0  0
    6.5901    2.1454   -4.9073 H   0  0  0  0  0  0  0  0  0  0  0  0
    7.8175    0.8748   -4.8470 H   0  0  0  0  0  0  0  0  0  0  0  0
   10.2969    3.1187   -3.7078 H   0  0  0  0  0  0  0  0  0  0  0  0
    9.9021    1.7422   -4.7356 H   0  0  0  0  0  0  0  0  0  0  0  0
    9.5842    0.3188   -2.6743 H   0  0  0  0  0  0  0  0  0  0  0  0
    9.9335    1.7313   -1.6599 H   0  0  0  0  0  0  0  0  0  0  0  0
   13.1780    0.1140   -2.1514 H   0  0  0  0  0  0  0  0  0  0  0  0
   11.6535   -0.8109   -1.9512 H   0  0  0  0  0  0  0  0  0  0  0  0
   12.0110    0.5703   -0.8687 H   0  0  0  0  0  0  0  0  0  0  0  0
    7.9068    4.5748   -0.5634 H   0  0  0  0  0  0  0  0  0  0  0  0
    9.2809    6.4689    0.3055 H   0  0  0  0  0  0  0  0  0  0  0  0
   10.7716    7.7548   -1.2607 H   0  0  0  0  0  0  0  0  0  0  0  0
    9.5604    5.2275   -4.5116 H   0  0  0  0  0  0  0  0  0  0  0  0
  1  2  1  0
  1 30  1  0
  1 31  1  0
  1 32  1  0
  2  3  1  0
  2 33  1  0
  2 34  1  0
  3  4  1  0
  3 35  1  0
  3 36  1  0
  4  5  1  0
  4 37  1  0
  4 38  1  0
  5  6  1  0
  5 13  1  0
  6  7  1  0
  6 39  1  0
  6 40  1  0
  7  8  2  0
  7 11  1  0
  8  9  1  0
  8 41  1  0
  9 10  2  0
  9 42  1  0
 10 11  1  0
 10 43  1  0
 11 12  1  0
 12 44  1  0
 12 45  1  0
 12 46  1  0
 13 14  2  0
 13 15  1  0
 15 16  1  0
 15 47  1  0
 15 48  1  0
 16 17  1  0
 16 21  1  0
 17 18  1  0
 17 49  1  0
 17 50  1  0
 18 19  1  0
 18 51  1  0
 18 52  1  0
 19 20  1  0
 20 53  1  0
 20 54  1  0
 20 55  1  0
 21 22  2  0
 21 23  1  0
 23 24  2  0
 23 29  1  0
 24 25  1  0
 24 56  1  0
 25 26  2  0
 25 57  1  0
 26 27  1  0
 26 58  1  0
 27 28  1  0
 27 29  2  0
 29 59  1  0
M  END

