
     RDKit          3D

 36 36  0  0  0  0  0  0  0  0999 V2000
    0.9741    0.3600    0.1168 C   0  0  0  0  0  0  0  0  0  0  0  0
    2.4557    0.0573   -0.0131 C   0  0  0  0  0  0  0  0  0  0  0  0
    3.0113   -0.0775    1.2742 O   0  0  0  0  0  0  0  0  0  0  0  0
    4.3856   -0.3653    1.2867 C   0  0  0  0  0  0  0  0  0  0  0  0
    4.8431   -0.4935    2.7333 C   0  0  0  0  0  0  0  0  0  0  0  0
    6.2617   -0.8024    2.7931 N   0  0  0  0  0  0  0  0  0  0  0  0
    6.8226   -1.0072    4.1307 C   0  0  1  0  0  0  0  0  0  0  0  0
    6.3172   -2.3216    4.7506 C   0  0  0  0  0  0  0  0  0  0  0  0
    8.3443   -1.0012    4.0616 C   0  0  0  0  0  0  0  0  0  0  0  0
    9.1008   -0.4113    5.0861 C   0  0  0  0  0  0  0  0  0  0  0  0
   10.4954   -0.4465    5.0421 C   0  0  0  0  0  0  0  0  0  0  0  0
   11.1515   -1.0671    3.9747 C   0  0  0  0  0  0  0  0  0  0  0  0
   10.4201   -1.6618    2.9364 C   0  0  0  0  0  0  0  0  0  0  0  0
   11.1108   -2.3432    1.7788 C   0  0  0  0  0  0  0  0  0  0  0  0
    9.0175   -1.6189    2.9985 C   0  0  0  0  0  0  0  0  0  0  0  0
    0.5121    0.4711   -0.8767 H   0  0  0  0  0  0  0  0  0  0  0  0
    0.8184    1.2926    0.6810 H   0  0  0  0  0  0  0  0  0  0  0  0
    0.4594   -0.4527    0.6526 H   0  0  0  0  0  0  0  0  0  0  0  0
    2.9696    0.8695   -0.5711 H   0  0  0  0  0  0  0  0  0  0  0  0
    2.6115   -0.8737   -0.5991 H   0  0  0  0  0  0  0  0  0  0  0  0
    4.9594    0.4391    0.7739 H   0  0  0  0  0  0  0  0  0  0  0  0
    4.6080   -1.3080    0.7457 H   0  0  0  0  0  0  0  0  0  0  0  0
    4.2645   -1.3071    3.1976 H   0  0  0  0  0  0  0  0  0  0  0  0
    4.5654    0.4364    3.2785 H   0  0  0  0  0  0  0  0  0  0  0  0
    6.7876   -0.0584    2.3346 H   0  0  0  0  0  0  0  0  0  0  0  0
    6.5229   -0.1847    4.8193 H   0  0  0  0  0  0  0  0  0  0  0  0
    6.5881   -3.1746    4.1091 H   0  0  0  0  0  0  0  0  0  0  0  0
    5.2236   -2.3176    4.8791 H   0  0  0  0  0  0  0  0  0  0  0  0
    6.7688   -2.4740    5.7425 H   0  0  0  0  0  0  0  0  0  0  0  0
    8.5923    0.0824    5.9195 H   0  0  0  0  0  0  0  0  0  0  0  0
   11.0778    0.0191    5.8417 H   0  0  0  0  0  0  0  0  0  0  0  0
   12.2448   -1.0863    3.9457 H   0  0  0  0  0  0  0  0  0  0  0  0
   12.2026   -2.2168    1.8258 H   0  0  0  0  0  0  0  0  0  0  0  0
   10.7648   -1.9420    0.8119 H   0  0  0  0  0  0  0  0  0  0  0  0
   10.8995   -3.4261    1.7690 H   0  0  0  0  0  0  0  0  0  0  0  0
    8.4249   -2.0690    2.1975 H   0  0  0  0  0  0  0  0  0  0  0  0
  1  2  1  0
  1 16  1  0
  1 17  1  0
  1 18  1  0
  2  3  1  0
  2 19  1  0
  2 20  1  0
  3  4  1  0
  4  5  1  0
  4 21  1  0
  4 22  1  0
  5  6  1  0
  5 23  1  0
  5 24  1  0
  6  7  1  0
  6 25  1  0
  7  8  1  0
  7  9  1  0
  7 26  1  1
  8 27  1  0
  8 28  1  0
  8 29  1  0
  9 10  2  0
  9 15  1  0
 10 11  1  0
 10 30  1  0
 11 12  2  0
 11 31  1  0
 12 13  1  0
 12 32  1  0
 13 14  1  0
 13 15  2  0
 14 33  1  0
 14 34  1  0
 14 35  1  0
 15 36  1  0
M  END

