
     RDKit          3D

 35 36  0  0  0  0  0  0  0  0999 V2000
    0.9750    0.3653   -0.0518 O   0  0  0  0  0  0  0  0  0  0  0  0
    2.0653   -0.1575    0.0750 C   0  0  0  0  0  0  0  0  0  0  0  0
    2.4421   -1.2918   -0.6366 N   0  0  0  0  0  0  0  0  0  0  0  0
    1.7020   -2.0440   -1.5514 C   0  0  0  0  0  0  0  0  0  0  0  0
    0.3783   -1.7375   -1.9219 C   0  0  0  0  0  0  0  0  0  0  0  0
   -0.2762   -2.5492   -2.8419 C   0  0  0  0  0  0  0  0  0  0  0  0
    0.3552   -3.6605   -3.4164 C   0  0  0  0  0  0  0  0  0  0  0  0
   -0.6063   -4.5729   -4.6230 S   0  0  1  0  0  0  0  0  0  0  0  0
   -1.8922   -3.9080   -4.7813 O   0  0  0  0  0  0  0  0  0  0  0  0
    0.2061   -4.9348   -5.7724 O   0  0  0  0  0  0  0  0  0  0  0  0
   -1.0029   -6.3776   -3.5452 Cl  0  0  0  0  0  0  0  0  0  0  0  0
    1.6746   -3.9769   -3.0455 C   0  0  0  0  0  0  0  0  0  0  0  0
    2.6199   -5.4793   -3.7157 Br  0  0  0  0  0  0  0  0  0  0  0  0
    2.3316   -3.1687   -2.1218 C   0  0  0  0  0  0  0  0  0  0  0  0
    3.1459    0.3370    1.0411 C   0  0  1  0  0  0  0  0  0  0  0  0
    3.0232    1.8449    1.3427 C   0  0  0  0  0  0  0  0  0  0  0  0
    1.8742    2.1989    2.2993 C   0  0  0  0  0  0  0  0  0  0  0  0
    1.9144    1.3564    3.5801 C   0  0  0  0  0  0  0  0  0  0  0  0
    1.9454   -0.1433    3.2602 C   0  0  0  0  0  0  0  0  0  0  0  0
    3.1324   -0.4921    2.3539 C   0  0  0  0  0  0  0  0  0  0  0  0
    3.3840   -1.6258   -0.4670 H   0  0  0  0  0  0  0  0  0  0  0  0
   -0.1162   -0.8726   -1.4883 H   0  0  0  0  0  0  0  0  0  0  0  0
   -1.3021   -2.3229   -3.1352 H   0  0  0  0  0  0  0  0  0  0  0  0
    3.3554   -3.4229   -1.8389 H   0  0  0  0  0  0  0  0  0  0  0  0
    4.1186    0.1645    0.5457 H   0  0  0  0  0  0  0  0  0  0  0  0
    2.9197    2.4058    0.4000 H   0  0  0  0  0  0  0  0  0  0  0  0
    3.9800    2.1637    1.7938 H   0  0  0  0  0  0  0  0  0  0  0  0
    0.9162    2.0358    1.7827 H   0  0  0  0  0  0  0  0  0  0  0  0
    1.9273    3.2722    2.5476 H   0  0  0  0  0  0  0  0  0  0  0  0
    1.0463    1.5920    4.2178 H   0  0  0  0  0  0  0  0  0  0  0  0
    2.8132    1.6179    4.1703 H   0  0  0  0  0  0  0  0  0  0  0  0
    1.0009   -0.4332    2.7668 H   0  0  0  0  0  0  0  0  0  0  0  0
    2.0068   -0.7360    4.1882 H   0  0  0  0  0  0  0  0  0  0  0  0
    3.1438   -1.5718    2.1263 H   0  0  0  0  0  0  0  0  0  0  0  0
    4.0733   -0.2795    2.8917 H   0  0  0  0  0  0  0  0  0  0  0  0
  1  2  2  0
  2  3  1  0
  2 15  1  0
  3  4  1  0
  3 21  1  0
  4  5  2  0
  4 14  1  0
  5  6  1  0
  5 22  1  0
  6  7  2  0
  6 23  1  0
  7  8  1  0
  7 12  1  0
  8  9  2  0
  8 10  2  0
  8 11  1  1
 12 13  1  0
 12 14  2  0
 14 24  1  0
 15 16  1  0
 15 20  1  0
 15 25  1  6
 16 17  1  0
 16 26  1  0
 16 27  1  0
 17 18  1  0
 17 28  1  0
 17 29  1  0
 18 19  1  0
 18 30  1  0
 18 31  1  0
 19 20  1  0
 19 32  1  0
 19 33  1  0
 20 34  1  0
 20 35  1  0
M  END

