
     RDKit          3D

 32 33  0  0  0  0  0  0  0  0999 V2000
    0.9722    0.0734    0.1792 C   0  0  0  0  0  0  0  0  0  0  0  0
    2.4750    0.1171    0.1288 C   0  0  0  0  0  0  0  0  0  0  0  0
    3.1699    1.3543    0.1543 C   0  0  0  0  0  0  0  0  0  0  0  0
    2.4640    2.5402    0.1987 N   0  0  0  0  0  0  0  0  0  0  0  0
    4.5780    1.3669    0.0930 C   0  0  0  0  0  0  0  0  0  0  0  0
    5.2726    0.1634    0.0048 C   0  0  0  0  0  0  0  0  0  0  0  0
    7.0640    0.1970   -0.1175 S   0  0  1  0  0  0  0  0  0  0  0  0
    7.5262    1.4823    0.4037 O   0  0  0  0  0  0  0  0  0  0  0  0
    7.5772   -1.0817    0.3641 O   0  0  0  0  0  0  0  0  0  0  0  0
    7.4222    0.1763   -1.7789 N   0  0  0  0  0  0  0  0  0  0  0  0
    7.1091    1.2131   -2.6805 C   0  0  0  0  0  0  0  0  0  0  0  0
    7.4484    2.5576   -2.4587 C   0  0  0  0  0  0  0  0  0  0  0  0
    7.1339    3.5282   -3.4133 C   0  0  0  0  0  0  0  0  0  0  0  0
    6.5031    3.1762   -4.6105 C   0  0  0  0  0  0  0  0  0  0  0  0
    6.1747    1.8391   -4.8549 C   0  0  0  0  0  0  0  0  0  0  0  0
    6.4698    0.8871   -3.8886 C   0  0  0  0  0  0  0  0  0  0  0  0
    6.1593   -0.4072   -4.1057 F   0  0  0  0  0  0  0  0  0  0  0  0
    4.6260   -1.0740   -0.0081 C   0  0  0  0  0  0  0  0  0  0  0  0
    3.2357   -1.0537    0.0538 C   0  0  0  0  0  0  0  0  0  0  0  0
    2.5893   -2.2320    0.0462 F   0  0  0  0  0  0  0  0  0  0  0  0
    0.5318    0.6713   -0.6373 H   0  0  0  0  0  0  0  0  0  0  0  0
    0.5857    0.4842    1.1300 H   0  0  0  0  0  0  0  0  0  0  0  0
    0.6017   -0.9548    0.0903 H   0  0  0  0  0  0  0  0  0  0  0  0
    1.5244    2.5223    0.5739 H   0  0  0  0  0  0  0  0  0  0  0  0
    2.9836    3.3794    0.4245 H   0  0  0  0  0  0  0  0  0  0  0  0
    5.1274    2.3084    0.1331 H   0  0  0  0  0  0  0  0  0  0  0  0
    7.3028   -0.7635   -2.1519 H   0  0  0  0  0  0  0  0  0  0  0  0
    7.9586    2.8195   -1.5321 H   0  0  0  0  0  0  0  0  0  0  0  0
    7.4023    4.5700   -3.2231 H   0  0  0  0  0  0  0  0  0  0  0  0
    6.2719    3.9367   -5.3595 H   0  0  0  0  0  0  0  0  0  0  0  0
    5.6855    1.5204   -5.7775 H   0  0  0  0  0  0  0  0  0  0  0  0
    5.1711   -2.0168   -0.0392 H   0  0  0  0  0  0  0  0  0  0  0  0
  1  2  1  0
  1 21  1  0
  1 22  1  0
  1 23  1  0
  2  3  2  0
  2 19  1  0
  3  4  1  0
  3  5  1  0
  4 24  1  0
  4 25  1  0
  5  6  2  0
  5 26  1  0
  6  7  1  0
  6 18  1  0
  7  8  2  0
  7  9  2  0
  7 10  1  6
 10 11  1  0
 10 27  1  0
 11 12  2  0
 11 16  1  0
 12 13  1  0
 12 28  1  0
 13 14  2  0
 13 29  1  0
 14 15  1  0
 14 30  1  0
 15 16  2  0
 15 31  1  0
 16 17  1  0
 18 19  2  0
 18 32  1  0
 19 20  1  0
M  END

