
     RDKit          3D

 28 29  0  0  0  0  0  0  0  0999 V2000
    1.0397   -0.8272    2.7590 N   0  0  0  0  0  0  0  0  0  0  0  0
    1.6439    0.3541    2.9791 C   0  0  0  0  0  0  0  0  0  0  0  0
    1.0158    1.5058    4.0101 S   0  0  0  0  0  0  0  0  0  0  0  0
    2.9238    0.5900    2.2777 C   0  0  0  0  0  0  0  0  0  0  0  0
    3.4720    1.8647    1.9602 C   0  0  0  0  0  0  0  0  0  0  0  0
    4.6684    1.7740    1.3965 N   0  0  0  0  0  0  0  0  0  0  0  0
    4.9193    0.4630    1.3304 N   0  0  0  0  0  0  0  0  0  0  0  0
    5.8091    0.1263    0.9767 H   0  0  0  0  0  0  0  0  0  0  0  0
    3.9116   -0.3048    1.8477 C   0  0  0  0  0  0  0  0  0  0  0  0
    4.0291   -1.6989    1.9227 N   0  0  0  0  0  0  0  0  0  0  0  0
    3.4828   -2.7486    0.7170 S   0  0  1  0  0  0  0  0  0  0  0  0
    3.9364   -4.0701    1.1249 O   0  0  0  0  0  0  0  0  0  0  0  0
    2.0608   -2.4442    0.5144 O   0  0  0  0  0  0  0  0  0  0  0  0
    4.2981   -2.2853   -0.8298 C   0  0  0  0  0  0  0  0  0  0  0  0
    3.4724   -1.9859   -1.9202 C   0  0  0  0  0  0  0  0  0  0  0  0
    4.0312   -1.6983   -3.1663 C   0  0  0  0  0  0  0  0  0  0  0  0
    5.4189   -1.7090   -3.3252 C   0  0  0  0  0  0  0  0  0  0  0  0
    6.2516   -1.9983   -2.2414 C   0  0  0  0  0  0  0  0  0  0  0  0
    5.6928   -2.2888   -0.9947 C   0  0  0  0  0  0  0  0  0  0  0  0
    6.7825   -2.6008    0.3412 Cl  0  0  0  0  0  0  0  0  0  0  0  0
    0.1623   -0.9914    3.2402 H   0  0  0  0  0  0  0  0  0  0  0  0
    1.3259   -1.4651    2.0166 H   0  0  0  0  0  0  0  0  0  0  0  0
    3.0061    2.8301    2.1490 H   0  0  0  0  0  0  0  0  0  0  0  0
    4.8299   -2.0956    2.4120 H   0  0  0  0  0  0  0  0  0  0  0  0
    2.3921   -1.9845   -1.7698 H   0  0  0  0  0  0  0  0  0  0  0  0
    3.3796   -1.4659   -4.0110 H   0  0  0  0  0  0  0  0  0  0  0  0
    5.8642   -1.4856   -4.2974 H   0  0  0  0  0  0  0  0  0  0  0  0
    7.3372   -1.9996   -2.3510 H   0  0  0  0  0  0  0  0  0  0  0  0
  1  2  1  0
  1 21  1  0
  1 22  1  0
  2  3  2  0
  2  4  1  0
  4  5  1  0
  4  9  2  0
  5  6  2  0
  5 23  1  0
  6  7  1  0
  7  8  1  0
  7  9  1  0
  9 10  1  0
 11 10  1  1
 10 24  1  0
 11 12  2  0
 11 13  2  0
 11 14  1  0
 14 15  2  0
 14 19  1  0
 15 16  1  0
 15 25  1  0
 16 17  2  0
 16 26  1  0
 17 18  1  0
 17 27  1  0
 18 19  2  0
 18 28  1  0
 19 20  1  0
M  END

