
     RDKit          3D

 44 46  0  0  0  0  0  0  0  0999 V2000
    1.5277    0.7753    0.1727 C   0  0  0  0  0  0  0  0  0  0  0  0
    2.7910    0.5439   -0.4248 O   0  0  0  0  0  0  0  0  0  0  0  0
    2.8754    0.7770   -1.8184 C   0  0  1  0  0  0  0  0  0  0  0  0
    2.0037    0.3157   -2.3228 H   0  0  0  0  0  0  0  0  0  0  0  0
    2.9764    2.2669   -2.1817 C   0  0  0  0  0  0  0  0  0  0  0  0
    3.7441    2.2444   -3.4165 N   0  0  0  0  0  0  0  0  0  0  0  0
    3.7716    3.3245   -4.2453 C   0  0  0  0  0  0  0  0  0  0  0  0
    3.2117    4.3792   -4.0153 O   0  0  0  0  0  0  0  0  0  0  0  0
    4.4962    3.0572   -5.3586 O   0  0  0  0  0  0  0  0  0  0  0  0
    4.6545    4.1302   -6.3103 C   0  0  0  0  0  0  0  0  0  0  0  0
    5.9025    4.9411   -6.0537 C   0  0  0  0  0  0  0  0  0  0  0  0
    7.0909    4.6548   -6.7419 C   0  0  0  0  0  0  0  0  0  0  0  0
    8.2532    5.3918   -6.4971 C   0  0  0  0  0  0  0  0  0  0  0  0
    8.2389    6.4254   -5.5562 C   0  0  0  0  0  0  0  0  0  0  0  0
    7.0590    6.7185   -4.8640 C   0  0  0  0  0  0  0  0  0  0  0  0
    5.8974    5.9828   -5.1107 C   0  0  0  0  0  0  0  0  0  0  0  0
    4.3714    0.9515   -3.6898 C   0  0  0  0  0  0  0  0  0  0  0  0
    4.1770    0.1655   -2.3787 C   0  0  2  0  0  0  0  0  0  0  0  0
    4.9807    0.4777   -1.6880 H   0  0  0  0  0  0  0  0  0  0  0  0
    4.2256   -1.3626   -2.4970 C   0  0  1  0  0  0  0  0  0  0  0  0
    4.5010   -2.1886   -1.2405 C   0  0  0  0  0  0  0  0  0  0  0  0
    4.8708   -3.3358   -1.3070 O   0  0  0  0  0  0  0  0  0  0  0  0
    4.3187   -1.5993   -0.0554 O   0  0  0  0  0  0  0  0  0  0  0  0
    3.3301   -2.0822   -3.5035 C   0  0  0  0  0  0  0  0  0  0  0  0
    4.8001   -2.0096   -3.7480 C   0  0  0  0  0  0  0  0  0  0  0  0
    1.6095    0.4899    1.2302 H   0  0  0  0  0  0  0  0  0  0  0  0
    0.7390    0.1663   -0.3061 H   0  0  0  0  0  0  0  0  0  0  0  0
    1.2425    1.8402    0.1123 H   0  0  0  0  0  0  0  0  0  0  0  0
    3.5044    2.8058   -1.3729 H   0  0  0  0  0  0  0  0  0  0  0  0
    2.0060    2.7616   -2.3357 H   0  0  0  0  0  0  0  0  0  0  0  0
    3.7580    4.7641   -6.2734 H   0  0  0  0  0  0  0  0  0  0  0  0
    4.7110    3.6314   -7.2876 H   0  0  0  0  0  0  0  0  0  0  0  0
    7.1054    3.8479   -7.4806 H   0  0  0  0  0  0  0  0  0  0  0  0
    9.1711    5.1596   -7.0434 H   0  0  0  0  0  0  0  0  0  0  0  0
    9.1460    7.0043   -5.3642 H   0  0  0  0  0  0  0  0  0  0  0  0
    7.0429    7.5279   -4.1294 H   0  0  0  0  0  0  0  0  0  0  0  0
    4.9756    6.2019   -4.5669 H   0  0  0  0  0  0  0  0  0  0  0  0
    5.4329    1.0694   -3.9499 H   0  0  0  0  0  0  0  0  0  0  0  0
    3.8799    0.4601   -4.5476 H   0  0  0  0  0  0  0  0  0  0  0  0
    3.8064   -0.7603   -0.1178 H   0  0  0  0  0  0  0  0  0  0  0  0
    2.6647   -1.4671   -4.1178 H   0  0  0  0  0  0  0  0  0  0  0  0
    2.9082   -3.0399   -3.1891 H   0  0  0  0  0  0  0  0  0  0  0  0
    5.1663   -1.3589   -4.5446 H   0  0  0  0  0  0  0  0  0  0  0  0
    5.3834   -2.9153   -3.5736 H   0  0  0  0  0  0  0  0  0  0  0  0
  1  2  1  0
  1 26  1  0
  1 27  1  0
  1 28  1  0
  2  3  1  0
  3  4  1  6
  3  5  1  0
  3 18  1  0
  5  6  1  0
  5 29  1  0
  5 30  1  0
  6  7  1  0
  6 17  1  0
  7  8  2  0
  7  9  1  0
  9 10  1  0
 10 11  1  0
 10 31  1  0
 10 32  1  0
 11 12  2  0
 11 16  1  0
 12 13  1  0
 12 33  1  0
 13 14  2  0
 13 34  1  0
 14 15  1  0
 14 35  1  0
 15 16  2  0
 15 36  1  0
 16 37  1  0
 17 18  1  0
 17 38  1  0
 17 39  1  0
 18 19  1  1
 18 20  1  0
 20 21  1  1
 20 24  1  0
 20 25  1  0
 21 22  2  0
 21 23  1  0
 23 40  1  0
 24 25  1  0
 24 41  1  0
 24 42  1  0
 25 43  1  0
 25 44  1  0
M  END

