
     RDKit          3D

 33 34  0  0  0  0  0  0  0  0999 V2000
    1.1840   -0.3637    0.2570 N   0  0  0  0  0  0  0  0  0  0  0  0
    2.3355   -0.2738    0.1292 C   0  0  0  0  0  0  0  0  0  0  0  0
    3.7599   -0.1498   -0.0323 C   0  0  0  0  0  0  0  0  0  0  0  0
    4.2715    1.0965   -0.2849 C   0  0  0  0  0  0  0  0  0  0  0  0
    3.5102    2.3110   -0.3879 C   0  0  0  0  0  0  0  0  0  0  0  0
    4.0806    3.5170   -0.6494 C   0  0  0  0  0  0  0  0  0  0  0  0
    3.4028    4.8041   -0.7738 C   0  0  0  0  0  0  0  0  0  0  0  0
    2.0042    4.9596   -0.6297 C   0  0  0  0  0  0  0  0  0  0  0  0
    1.4043    6.2062   -0.7571 C   0  0  0  0  0  0  0  0  0  0  0  0
    2.2040    7.3197   -1.0322 C   0  0  0  0  0  0  0  0  0  0  0  0
    1.5699    8.6447   -1.1679 N   0  0  0  0  0  0  0  0  0  0  0  0
    0.3583    8.7068   -1.0308 O   0  0  0  0  0  0  0  0  0  0  0  0
    2.2967    9.5959   -1.4088 O   0  0  0  0  0  0  0  0  0  0  0  0
    3.5869    7.2095   -1.1818 C   0  0  0  0  0  0  0  0  0  0  0  0
    4.1743    5.9549   -1.0516 C   0  0  0  0  0  0  0  0  0  0  0  0
    4.5613   -1.3913    0.0797 C   0  0  0  0  0  0  0  0  0  0  0  0
    5.9713   -1.3665    0.1154 C   0  0  0  0  0  0  0  0  0  0  0  0
    6.7054   -2.5467    0.2105 C   0  0  0  0  0  0  0  0  0  0  0  0
    6.0535   -3.7838    0.2765 C   0  0  0  0  0  0  0  0  0  0  0  0
    4.6575   -3.8252    0.2503 C   0  0  0  0  0  0  0  0  0  0  0  0
    3.9198   -2.6442    0.1556 C   0  0  0  0  0  0  0  0  0  0  0  0
    5.3509    1.1870   -0.4300 H   0  0  0  0  0  0  0  0  0  0  0  0
    2.4282    2.2337   -0.2460 H   0  0  0  0  0  0  0  0  0  0  0  0
    5.1676    3.5487   -0.7849 H   0  0  0  0  0  0  0  0  0  0  0  0
    1.3752    4.0941   -0.4149 H   0  0  0  0  0  0  0  0  0  0  0  0
    0.3282    6.3381   -0.6482 H   0  0  0  0  0  0  0  0  0  0  0  0
    4.1738    8.1021   -1.3959 H   0  0  0  0  0  0  0  0  0  0  0  0
    5.2566    5.8561   -1.1666 H   0  0  0  0  0  0  0  0  0  0  0  0
    6.5084   -0.4171    0.0827 H   0  0  0  0  0  0  0  0  0  0  0  0
    7.7969   -2.5008    0.2397 H   0  0  0  0  0  0  0  0  0  0  0  0
    6.6321   -4.7076    0.3528 H   0  0  0  0  0  0  0  0  0  0  0  0
    4.1348   -4.7832    0.3045 H   0  0  0  0  0  0  0  0  0  0  0  0
    2.8290   -2.6926    0.1362 H   0  0  0  0  0  0  0  0  0  0  0  0
  1  2  3  0
  2  3  1  0
  3  4  2  0
  3 16  1  0
  4  5  1  0
  4 22  1  0
  5  6  2  0
  5 23  1  0
  6  7  1  0
  6 24  1  0
  7  8  2  0
  7 15  1  0
  8  9  1  0
  8 25  1  0
  9 10  2  0
  9 26  1  0
 10 11  1  0
 10 14  1  0
 11 12  2  0
 11 13  1  0
 14 15  2  0
 14 27  1  0
 15 28  1  0
 16 17  2  0
 16 21  1  0
 17 18  1  0
 17 29  1  0
 18 19  2  0
 18 30  1  0
 19 20  1  0
 19 31  1  0
 20 21  2  0
 20 32  1  0
 21 33  1  0
M  CHG  2  11   1  13  -1
M  END

