
     RDKit          3D

 41 45  0  0  0  0  0  0  0  0999 V2000
    1.2515    0.0395   -0.3687 C   0  0  0  0  0  0  0  0  0  0  0  0
    2.6556   -0.1044   -0.0116 N   0  0  0  0  0  0  0  0  0  0  0  0
    3.5980    0.8966    0.0296 C   0  0  0  0  0  0  0  0  0  0  0  0
    3.3201    2.3323   -0.0896 C   0  0  0  0  0  0  0  0  0  0  0  0
    2.1387    3.0339    0.3397 C   0  0  0  0  0  0  0  0  0  0  0  0
    2.2193    4.3866    0.1365 C   0  0  0  0  0  0  0  0  0  0  0  0
    3.7315    4.8355   -0.5725 S   0  0  0  0  0  0  0  0  0  0  0  0
    4.2663    3.2005   -0.6005 C   0  0  0  0  0  0  0  0  0  0  0  0
    4.8150    0.4021    0.1775 N   0  0  0  0  0  0  0  0  0  0  0  0
    4.6961   -0.9557    0.2495 C   0  0  0  0  0  0  0  0  0  0  0  0
    5.8936   -1.7918    0.4676 C   0  0  0  0  0  0  0  0  0  0  0  0
    5.8500   -3.0352    1.1242 C   0  0  0  0  0  0  0  0  0  0  0  0
    7.0161   -3.7755    1.3266 C   0  0  0  0  0  0  0  0  0  0  0  0
    8.2493   -3.2897    0.8801 C   0  0  0  0  0  0  0  0  0  0  0  0
    8.3072   -2.0479    0.2397 C   0  0  0  0  0  0  0  0  0  0  0  0
    7.1434   -1.3042    0.0408 C   0  0  0  0  0  0  0  0  0  0  0  0
    3.3461   -1.3080    0.1254 C   0  0  0  0  0  0  0  0  0  0  0  0
    2.7018   -2.6141    0.0871 C   0  0  0  0  0  0  0  0  0  0  0  0
    3.1478   -3.6341   -0.5899 N   0  0  0  0  0  0  0  0  0  0  0  0
    2.3786   -4.7454   -0.3834 C   0  0  0  0  0  0  0  0  0  0  0  0
    2.5640   -6.0359   -0.9574 C   0  0  0  0  0  0  0  0  0  0  0  0
    3.5953   -6.2829   -1.7904 N   0  0  0  0  0  0  0  0  0  0  0  0
    1.6983   -7.0154   -0.6644 N   0  0  0  0  0  0  0  0  0  0  0  0
    0.6841   -6.7391    0.1621 C   0  0  0  0  0  0  0  0  0  0  0  0
    0.4058   -5.5799    0.7611 N   0  0  0  0  0  0  0  0  0  0  0  0
    1.2714   -4.6108    0.4715 C   0  0  0  0  0  0  0  0  0  0  0  0
    1.2437   -2.9613    1.0759 S   0  0  0  0  0  0  0  0  0  0  0  0
    1.1215    0.9452   -0.9736 H   0  0  0  0  0  0  0  0  0  0  0  0
    0.6035    0.1062    0.5197 H   0  0  0  0  0  0  0  0  0  0  0  0
    0.9314   -0.8253   -0.9638 H   0  0  0  0  0  0  0  0  0  0  0  0
    1.2789    2.5630    0.8153 H   0  0  0  0  0  0  0  0  0  0  0  0
    1.4777    5.1456    0.3807 H   0  0  0  0  0  0  0  0  0  0  0  0
    5.2517    2.9331   -0.9766 H   0  0  0  0  0  0  0  0  0  0  0  0
    4.9019   -3.4203    1.5003 H   0  0  0  0  0  0  0  0  0  0  0  0
    6.9615   -4.7358    1.8463 H   0  0  0  0  0  0  0  0  0  0  0  0
    9.1608   -3.8717    1.0392 H   0  0  0  0  0  0  0  0  0  0  0  0
    9.2670   -1.6535   -0.1046 H   0  0  0  0  0  0  0  0  0  0  0  0
    7.1836   -0.3282   -0.4452 H   0  0  0  0  0  0  0  0  0  0  0  0
    4.2654   -5.5523   -1.9898 H   0  0  0  0  0  0  0  0  0  0  0  0
    3.7142   -7.2144   -2.1655 H   0  0  0  0  0  0  0  0  0  0  0  0
   -0.0011   -7.5691    0.3728 H   0  0  0  0  0  0  0  0  0  0  0  0
  1  2  1  0
  1 28  1  0
  1 29  1  0
  1 30  1  0
  2  3  1  0
  2 17  1  0
  3  4  1  0
  3  9  2  0
  4  5  1  0
  4  8  2  0
  5  6  2  0
  5 31  1  0
  6  7  1  0
  6 32  1  0
  7  8  1  0
  8 33  1  0
  9 10  1  0
 10 11  1  0
 10 17  2  0
 11 12  2  0
 11 16  1  0
 12 13  1  0
 12 34  1  0
 13 14  2  0
 13 35  1  0
 14 15  1  0
 14 36  1  0
 15 16  2  0
 15 37  1  0
 16 38  1  0
 17 18  1  0
 18 19  2  0
 18 27  1  0
 19 20  1  0
 20 21  2  0
 20 26  1  0
 21 22  1  0
 21 23  1  0
 22 39  1  0
 22 40  1  0
 23 24  2  0
 24 25  1  0
 24 41  1  0
 25 26  2  0
 26 27  1  0
M  END

