
     RDKit          3D

 26 26  0  0  0  0  0  0  0  0999 V2000
    1.1211   -0.9721    3.0249 C   0  0  0  0  0  0  0  0  0  0  0  0
    2.6268   -0.9072    3.1824 C   0  0  0  0  0  0  0  0  0  0  0  0
    3.1799   -0.8080    1.8671 O   0  0  0  0  0  0  0  0  0  0  0  0
    4.5675   -0.7223    1.9070 N   0  0  0  0  0  0  0  0  0  0  0  0
    5.2347   -1.9444    1.7333 C   0  0  0  0  0  0  0  0  0  0  0  0
    4.7197   -3.0263    1.9383 O   0  0  0  0  0  0  0  0  0  0  0  0
    6.5598   -1.8065    1.3901 N   0  0  0  0  0  0  0  0  0  0  0  0
    7.3355   -0.5831    1.3304 C   0  0  0  0  0  0  0  0  0  0  0  0
    8.7814   -1.0788    1.2397 C   0  0  0  0  0  0  0  0  0  0  0  0
    9.7718   -0.3857    1.1525 O   0  0  0  0  0  0  0  0  0  0  0  0
    8.7348   -2.4457    1.2757 N   0  0  0  0  0  0  0  0  0  0  0  0
    9.9100   -3.2803    1.2013 C   0  0  0  0  0  0  0  0  0  0  0  0
    7.4020   -2.9974    1.3738 C   0  0  0  0  0  0  0  0  0  0  0  0
    0.6405   -1.0481    4.0126 H   0  0  0  0  0  0  0  0  0  0  0  0
    0.8330   -1.8513    2.4289 H   0  0  0  0  0  0  0  0  0  0  0  0
    0.7386   -0.0713    2.5200 H   0  0  0  0  0  0  0  0  0  0  0  0
    3.0141   -1.8163    3.6728 H   0  0  0  0  0  0  0  0  0  0  0  0
    2.9362   -0.0292    3.7800 H   0  0  0  0  0  0  0  0  0  0  0  0
    4.8617    0.0501    1.3131 H   0  0  0  0  0  0  0  0  0  0  0  0
    7.2170    0.0493    2.2288 H   0  0  0  0  0  0  0  0  0  0  0  0
    7.1171    0.0422    0.4443 H   0  0  0  0  0  0  0  0  0  0  0  0
   10.7843   -2.6192    1.1293 H   0  0  0  0  0  0  0  0  0  0  0  0
    9.8795   -3.9368    0.3142 H   0  0  0  0  0  0  0  0  0  0  0  0
   10.0086   -3.9139    2.0996 H   0  0  0  0  0  0  0  0  0  0  0  0
    7.2616   -3.5997    2.2919 H   0  0  0  0  0  0  0  0  0  0  0  0
    7.1667   -3.6550    0.5141 H   0  0  0  0  0  0  0  0  0  0  0  0
  1  2  1  0
  1 14  1  0
  1 15  1  0
  1 16  1  0
  2  3  1  0
  2 17  1  0
  2 18  1  0
  3  4  1  0
  4  5  1  0
  4 19  1  0
  5  6  2  0
  5  7  1  0
  7  8  1  0
  7 13  1  0
  8  9  1  0
  8 20  1  0
  8 21  1  0
  9 10  2  0
  9 11  1  0
 11 12  1  0
 11 13  1  0
 12 22  1  0
 12 23  1  0
 12 24  1  0
 13 25  1  0
 13 26  1  0
M  END

