
     RDKit          3D

 45 48  0  0  0  0  0  0  0  0999 V2000
    8.0959    0.1391    4.6902 C   0  0  0  0  0  0  0  0  0  0  0  0
    7.4440    0.4259    3.3717 C   0  0  0  0  0  0  0  0  0  0  0  0
    7.5842    1.5600    2.5407 C   0  0  0  0  0  0  0  0  0  0  0  0
    6.7630    1.3145    1.4387 C   0  0  0  0  0  0  0  0  0  0  0  0
    6.5196    2.0417    0.1622 C   0  0  0  0  0  0  0  0  0  0  0  0
    6.1409    1.4402   -0.8410 O   0  0  0  0  0  0  0  0  0  0  0  0
    6.7328    3.3916    0.1218 N   0  0  0  0  0  0  0  0  0  0  0  0
    6.5126    4.0942   -1.1518 C   0  0  0  0  0  0  0  0  0  0  0  0
    6.8641    5.5487   -0.8294 C   0  0  0  0  0  0  0  0  0  0  0  0
    6.5098    5.6776    0.6605 C   0  0  2  0  0  0  0  0  0  0  0  0
    7.1153    6.8817    1.3884 C   0  0  0  0  0  0  0  0  0  0  0  0
    6.5639    8.1899    0.9089 C   0  0  0  0  0  0  0  0  0  0  0  0
    5.2970    8.4666    0.6560 N   0  0  0  0  0  0  0  0  0  0  0  0
    5.3157    9.7826    0.2789 C   0  0  0  0  0  0  0  0  0  0  0  0
    4.1052   10.5383   -0.1021 C   0  0  1  0  0  0  0  0  0  0  0  0
    2.9777    9.8333   -0.8294 C   0  0  0  0  0  0  0  0  0  0  0  0
    2.7916   10.2510    0.5979 C   0  0  0  0  0  0  0  0  0  0  0  0
    6.5245   10.3286    0.2853 N   0  0  0  0  0  0  0  0  0  0  0  0
    7.3060    9.3006    0.6860 N   0  0  0  0  0  0  0  0  0  0  0  0
    8.3066    9.4283    0.7842 H   0  0  0  0  0  0  0  0  0  0  0  0
    6.9621    4.3213    1.2274 C   0  0  0  0  0  0  0  0  0  0  0  0
    6.1957    0.0864    1.6638 N   0  0  0  0  0  0  0  0  0  0  0  0
    5.2782   -0.6710    0.8253 C   0  0  0  0  0  0  0  0  0  0  0  0
    6.5945   -0.4456    2.8229 N   0  0  0  0  0  0  0  0  0  0  0  0
    9.1948    0.1189    4.6029 H   0  0  0  0  0  0  0  0  0  0  0  0
    7.7619   -0.8393    5.0627 H   0  0  0  0  0  0  0  0  0  0  0  0
    7.8410    0.9016    5.4448 H   0  0  0  0  0  0  0  0  0  0  0  0
    8.2227    2.4212    2.7121 H   0  0  0  0  0  0  0  0  0  0  0  0
    5.4609    3.9799   -1.4675 H   0  0  0  0  0  0  0  0  0  0  0  0
    7.1291    3.6530   -1.9495 H   0  0  0  0  0  0  0  0  0  0  0  0
    6.3212    6.2649   -1.4624 H   0  0  0  0  0  0  0  0  0  0  0  0
    7.9455    5.7227   -0.9736 H   0  0  0  0  0  0  0  0  0  0  0  0
    5.4131    5.7506    0.7501 H   0  0  0  0  0  0  0  0  0  0  0  0
    8.2139    6.8816    1.2799 H   0  0  0  0  0  0  0  0  0  0  0  0
    6.9089    6.7904    2.4703 H   0  0  0  0  0  0  0  0  0  0  0  0
    4.3170   11.5740   -0.3773 H   0  0  0  0  0  0  0  0  0  0  0  0
    3.1156    8.7677   -1.0306 H   0  0  0  0  0  0  0  0  0  0  0  0
    2.4569   10.3891   -1.6142 H   0  0  0  0  0  0  0  0  0  0  0  0
    2.8051    9.4674    1.3601 H   0  0  0  0  0  0  0  0  0  0  0  0
    2.1397   11.1009    0.8185 H   0  0  0  0  0  0  0  0  0  0  0  0
    6.3997    4.0250    2.1252 H   0  0  0  0  0  0  0  0  0  0  0  0
    8.0339    4.3638    1.5046 H   0  0  0  0  0  0  0  0  0  0  0  0
    4.4389   -0.0423    0.5012 H   0  0  0  0  0  0  0  0  0  0  0  0
    4.9172   -1.5065    1.4368 H   0  0  0  0  0  0  0  0  0  0  0  0
    5.7866   -1.0420   -0.0746 H   0  0  0  0  0  0  0  0  0  0  0  0
  1  2  1  0
  1 25  1  0
  1 26  1  0
  1 27  1  0
  2  3  1  0
  2 24  2  0
  3  4  2  0
  3 28  1  0
  4  5  1  0
  4 22  1  0
  5  6  2  0
  5  7  1  0
  7  8  1  0
  7 21  1  0
  8  9  1  0
  8 29  1  0
  8 30  1  0
  9 10  1  0
  9 31  1  0
  9 32  1  0
 10 11  1  0
 10 21  1  0
 10 33  1  6
 11 12  1  0
 11 34  1  0
 11 35  1  0
 12 13  2  0
 12 19  1  0
 13 14  1  0
 14 15  1  0
 14 18  2  0
 15 16  1  0
 15 17  1  0
 15 36  1  6
 16 17  1  0
 16 37  1  0
 16 38  1  0
 17 39  1  0
 17 40  1  0
 18 19  1  0
 19 20  1  0
 21 41  1  0
 21 42  1  0
 22 23  1  0
 22 24  1  0
 23 43  1  0
 23 44  1  0
 23 45  1  0
M  END

