
     RDKit          3D

 25 26  0  0  0  0  0  0  0  0999 V2000
    1.1348    0.1849   -0.0964 N   0  0  0  0  0  0  0  0  0  0  0  0
    2.2989    0.1377   -0.1199 C   0  0  0  0  0  0  0  0  0  0  0  0
    3.7200    0.0958   -0.1469 C   0  0  0  0  0  0  0  0  0  0  0  0
    4.4568    1.2551   -0.2200 C   0  0  0  0  0  0  0  0  0  0  0  0
    3.7979    2.4891   -0.2522 N   0  0  0  0  0  0  0  0  0  0  0  0
    4.3337    3.7562   -0.2691 C   0  0  0  0  0  0  0  0  0  0  0  0
    5.5254    4.0206   -0.2756 O   0  0  0  0  0  0  0  0  0  0  0  0
    3.3590    4.8883   -0.2858 C   0  0  0  0  0  0  0  0  0  0  0  0
    4.0613    6.4771   -0.3149 S   0  0  0  0  0  0  0  0  0  0  0  0
    2.5981    7.2718   -0.3243 N   0  0  0  0  0  0  0  0  0  0  0  0
    1.6172    6.4137   -0.3069 C   0  0  0  0  0  0  0  0  0  0  0  0
   -0.0297    6.9380   -0.3114 Cl  0  0  0  0  0  0  0  0  0  0  0  0
    1.9834    5.0218   -0.2841 C   0  0  0  0  0  0  0  0  0  0  0  0
    0.8190    3.7472   -0.2580 Cl  0  0  0  0  0  0  0  0  0  0  0  0
    5.9222    1.1767   -0.2768 C   0  0  0  0  0  0  0  0  0  0  0  0
    6.5533    0.0276    0.0322 C   0  0  0  0  0  0  0  0  0  0  0  0
    5.7988   -1.2042    0.4510 C   0  0  0  0  0  0  0  0  0  0  0  0
    4.4166   -1.2539   -0.2045 C   0  0  0  0  0  0  0  0  0  0  0  0
    2.7795    2.4350   -0.2469 H   0  0  0  0  0  0  0  0  0  0  0  0
    6.4733    2.0815   -0.5197 H   0  0  0  0  0  0  0  0  0  0  0  0
    7.6471    0.0024    0.0299 H   0  0  0  0  0  0  0  0  0  0  0  0
    5.7012   -1.1961    1.5558 H   0  0  0  0  0  0  0  0  0  0  0  0
    6.3679   -2.1142    0.2049 H   0  0  0  0  0  0  0  0  0  0  0  0
    3.7889   -2.0205    0.2727 H   0  0  0  0  0  0  0  0  0  0  0  0
    4.5186   -1.5521   -1.2665 H   0  0  0  0  0  0  0  0  0  0  0  0
  1  2  3  0
  2  3  1  0
  3  4  2  0
  3 18  1  0
  4  5  1  0
  4 15  1  0
  5  6  1  0
  5 19  1  0
  6  7  2  0
  6  8  1  0
  8  9  1  0
  8 13  2  0
  9 10  1  0
 10 11  2  0
 11 12  1  0
 11 13  1  0
 13 14  1  0
 15 16  2  0
 15 20  1  0
 16 17  1  0
 16 21  1  0
 17 18  1  0
 17 22  1  0
 17 23  1  0
 18 24  1  0
 18 25  1  0
M  END

