
     RDKit          3D

 37 37  0  0  0  0  0  0  0  0999 V2000
    3.4748    0.3667   -2.5071 C   0  0  0  0  0  0  0  0  0  0  0  0
    2.8481    0.5121   -1.1302 C   0  0  0  0  0  0  0  0  0  0  0  0
    3.3252    1.6871   -0.4490 O   0  0  0  0  0  0  0  0  0  0  0  0
    4.4620    1.5750    0.2679 C   0  0  0  0  0  0  0  0  0  0  0  0
    5.1030    0.5534    0.3471 O   0  0  0  0  0  0  0  0  0  0  0  0
    4.7981    2.8698    0.9767 C   0  0  0  0  0  0  0  0  0  0  0  0
    6.3008    3.0409    1.2974 C   0  0  1  0  0  0  0  0  0  0  0  0
    7.1276    3.2287    0.0236 C   0  0  0  0  0  0  0  0  0  0  0  0
    6.5831    4.1342    2.2201 N   0  0  0  0  0  0  0  0  0  0  0  0
    6.1141    3.9968    3.5865 C   0  0  0  0  0  0  0  0  0  0  0  0
    6.6820    5.1136    4.4717 C   0  0  0  0  0  0  0  0  0  0  0  0
    6.3034    4.9639    5.9117 C   0  0  0  0  0  0  0  0  0  0  0  0
    6.5913    3.8489    6.6470 N   0  0  0  0  0  0  0  0  0  0  0  0
    6.0887    4.1320    7.8315 C   0  0  0  0  0  0  0  0  0  0  0  0
    5.5207    5.3611    7.8188 N   0  0  0  0  0  0  0  0  0  0  0  0
    4.8545    6.0804    8.8820 C   0  0  0  0  0  0  0  0  0  0  0  0
    5.6507    5.9015    6.5897 N   0  0  0  0  0  0  0  0  0  0  0  0
    3.0275   -0.4908   -3.0351 H   0  0  0  0  0  0  0  0  0  0  0  0
    4.5576    0.1905   -2.4262 H   0  0  0  0  0  0  0  0  0  0  0  0
    3.3062    1.2702   -3.1138 H   0  0  0  0  0  0  0  0  0  0  0  0
    3.0570   -0.3717   -0.5092 H   0  0  0  0  0  0  0  0  0  0  0  0
    1.7594    0.6526   -1.2013 H   0  0  0  0  0  0  0  0  0  0  0  0
    4.2142    2.8629    1.9143 H   0  0  0  0  0  0  0  0  0  0  0  0
    4.4146    3.7157    0.3827 H   0  0  0  0  0  0  0  0  0  0  0  0
    6.6312    2.1090    1.7867 H   0  0  0  0  0  0  0  0  0  0  0  0
    6.8276    4.1493   -0.5077 H   0  0  0  0  0  0  0  0  0  0  0  0
    6.9999    2.3800   -0.6649 H   0  0  0  0  0  0  0  0  0  0  0  0
    8.1940    3.3183    0.2772 H   0  0  0  0  0  0  0  0  0  0  0  0
    6.2849    5.0249    1.8210 H   0  0  0  0  0  0  0  0  0  0  0  0
    6.4634    3.0275    3.9797 H   0  0  0  0  0  0  0  0  0  0  0  0
    5.0052    3.9901    3.6929 H   0  0  0  0  0  0  0  0  0  0  0  0
    6.3302    6.0988    4.1265 H   0  0  0  0  0  0  0  0  0  0  0  0
    7.7801    5.1025    4.3703 H   0  0  0  0  0  0  0  0  0  0  0  0
    6.1081    3.4973    8.7179 H   0  0  0  0  0  0  0  0  0  0  0  0
    4.8607    5.4633    9.7908 H   0  0  0  0  0  0  0  0  0  0  0  0
    3.8138    6.3004    8.6003 H   0  0  0  0  0  0  0  0  0  0  0  0
    5.3738    7.0291    9.0846 H   0  0  0  0  0  0  0  0  0  0  0  0
  1  2  1  0
  1 18  1  0
  1 19  1  0
  1 20  1  0
  2  3  1  0
  2 21  1  0
  2 22  1  0
  3  4  1  0
  4  5  2  0
  4  6  1  0
  6  7  1  0
  6 23  1  0
  6 24  1  0
  7  8  1  0
  7  9  1  0
  7 25  1  1
  8 26  1  0
  8 27  1  0
  8 28  1  0
  9 10  1  0
  9 29  1  0
 10 11  1  0
 10 30  1  0
 10 31  1  0
 11 12  1  0
 11 32  1  0
 11 33  1  0
 12 13  1  0
 12 17  2  0
 13 14  2  0
 14 15  1  0
 14 34  1  0
 15 16  1  0
 15 17  1  0
 16 35  1  0
 16 36  1  0
 16 37  1  0
M  END

