
     RDKit          3D

 33 33  0  0  0  0  0  0  0  0999 V2000
    1.1560   -0.0920   -0.0221 C   0  0  0  0  0  0  0  0  0  0  0  0
    2.6553   -0.2014    0.2335 C   0  0  0  0  0  0  0  0  0  0  0  0
    3.1688    1.0054    0.8662 N   0  0  0  0  0  0  0  0  0  0  0  0
    4.5988    1.0072    1.1853 C   0  0  1  0  0  0  0  0  0  0  0  0
    5.4117    1.3003   -0.1015 C   0  0  0  0  0  0  0  0  0  0  0  0
    7.2128    1.0106    0.0259 S   0  0  0  0  0  0  0  0  0  0  0  0
    7.2881   -0.7915   -0.3220 C   0  0  0  0  0  0  0  0  0  0  0  0
    8.7293   -1.2827   -0.2301 C   0  0  0  0  0  0  0  0  0  0  0  0
    4.8903    2.0353    2.2680 C   0  0  0  0  0  0  0  0  0  0  0  0
    5.8003    1.7599    3.2989 C   0  0  0  0  0  0  0  0  0  0  0  0
    6.0860    2.7174    4.2767 C   0  0  0  0  0  0  0  0  0  0  0  0
    5.4635    3.9681    4.2387 C   0  0  0  0  0  0  0  0  0  0  0  0
    4.5549    4.2547    3.2151 C   0  0  0  0  0  0  0  0  0  0  0  0
    4.2730    3.2976    2.2368 C   0  0  0  0  0  0  0  0  0  0  0  0
    0.7733   -0.9943   -0.5241 H   0  0  0  0  0  0  0  0  0  0  0  0
    0.9329    0.7825   -0.6528 H   0  0  0  0  0  0  0  0  0  0  0  0
    0.5981    0.0234    0.9230 H   0  0  0  0  0  0  0  0  0  0  0  0
    3.1746   -0.3501   -0.7285 H   0  0  0  0  0  0  0  0  0  0  0  0
    2.8666   -1.1169    0.8337 H   0  0  0  0  0  0  0  0  0  0  0  0
    2.6396    1.1875    1.7183 H   0  0  0  0  0  0  0  0  0  0  0  0
    4.9254    0.0152    1.5674 H   0  0  0  0  0  0  0  0  0  0  0  0
    5.2862    2.3574   -0.3789 H   0  0  0  0  0  0  0  0  0  0  0  0
    5.0304    0.7012   -0.9426 H   0  0  0  0  0  0  0  0  0  0  0  0
    6.8794   -0.9731   -1.3303 H   0  0  0  0  0  0  0  0  0  0  0  0
    6.6513   -1.3299    0.3986 H   0  0  0  0  0  0  0  0  0  0  0  0
    9.3771   -0.7546   -0.9478 H   0  0  0  0  0  0  0  0  0  0  0  0
    8.7836   -2.3604   -0.4533 H   0  0  0  0  0  0  0  0  0  0  0  0
    9.1420   -1.1226    0.7785 H   0  0  0  0  0  0  0  0  0  0  0  0
    6.2947    0.7862    3.3313 H   0  0  0  0  0  0  0  0  0  0  0  0
    6.7981    2.4837    5.0726 H   0  0  0  0  0  0  0  0  0  0  0  0
    5.6850    4.7166    5.0039 H   0  0  0  0  0  0  0  0  0  0  0  0
    4.0632    5.2306    3.1767 H   0  0  0  0  0  0  0  0  0  0  0  0
    3.5613    3.5221    1.4386 H   0  0  0  0  0  0  0  0  0  0  0  0
  1  2  1  0
  1 15  1  0
  1 16  1  0
  1 17  1  0
  2  3  1  0
  2 18  1  0
  2 19  1  0
  3  4  1  0
  3 20  1  0
  4  5  1  0
  4  9  1  0
  4 21  1  1
  5  6  1  0
  5 22  1  0
  5 23  1  0
  6  7  1  0
  7  8  1  0
  7 24  1  0
  7 25  1  0
  8 26  1  0
  8 27  1  0
  8 28  1  0
  9 10  2  0
  9 14  1  0
 10 11  1  0
 10 29  1  0
 11 12  2  0
 11 30  1  0
 12 13  1  0
 12 31  1  0
 13 14  2  0
 13 32  1  0
 14 33  1  0
M  END

