
     RDKit          3D

 46 48  0  0  0  0  0  0  0  0999 V2000
    5.4775    0.3962   -2.1300 C   0  0  0  0  0  0  0  0  0  0  0  0
    4.2743    0.1459   -1.2225 C   0  0  1  0  0  0  0  0  0  0  0  0
    3.1863   -0.6635   -1.9605 C   0  0  0  0  0  0  0  0  0  0  0  0
    4.7348   -0.7156    0.0073 C   0  0  0  0  0  0  0  0  0  0  0  0
    5.6805   -1.4557   -0.0903 O   0  0  0  0  0  0  0  0  0  0  0  0
    3.9791   -0.6563    1.0933 O   0  0  0  0  0  0  0  0  0  0  0  0
    3.6943    1.4374   -0.7809 N   0  0  0  0  0  0  0  0  0  0  0  0
    3.9005    2.6892   -1.2795 C   0  0  0  0  0  0  0  0  0  0  0  0
    3.0452    3.5448   -0.5903 C   0  0  0  0  0  0  0  0  0  0  0  0
    2.9381    4.9248   -0.7798 N   0  0  0  0  0  0  0  0  0  0  0  0
    2.0631    5.7578   -0.1077 C   0  0  0  0  0  0  0  0  0  0  0  0
    1.2772    5.3507    0.7256 O   0  0  0  0  0  0  0  0  0  0  0  0
    2.2134    7.2117   -0.4763 C   0  0  0  0  0  0  0  0  0  0  0  0
    3.4695    7.8285   -0.4241 C   0  0  0  0  0  0  0  0  0  0  0  0
    3.6220    9.1951   -0.6784 C   0  0  0  0  0  0  0  0  0  0  0  0
    2.4958    9.9530   -0.9981 C   0  0  0  0  0  0  0  0  0  0  0  0
    1.2311    9.3600   -1.0695 C   0  0  0  0  0  0  0  0  0  0  0  0
    1.0759    7.9878   -0.8128 C   0  0  0  0  0  0  0  0  0  0  0  0
   -0.0986    7.3330   -0.9011 O   0  0  0  0  0  0  0  0  0  0  0  0
   -1.3109    8.0487   -1.1041 C   0  0  0  0  0  0  0  0  0  0  0  0
   -2.4532    7.0739   -1.0356 C   0  0  1  0  0  0  0  0  0  0  0  0
   -3.7342    7.3767   -1.7727 C   0  0  0  0  0  0  0  0  0  0  0  0
   -2.8338    6.2657   -2.2482 C   0  0  0  0  0  0  0  0  0  0  0  0
    2.3484    2.7082    0.3164 C   0  0  0  0  0  0  0  0  0  0  0  0
    2.7515    1.4460    0.1735 N   0  0  0  0  0  0  0  0  0  0  0  0
    5.9484   -0.5687   -2.3516 H   0  0  0  0  0  0  0  0  0  0  0  0
    6.2326    1.0245   -1.6353 H   0  0  0  0  0  0  0  0  0  0  0  0
    5.1722    0.8682   -3.0759 H   0  0  0  0  0  0  0  0  0  0  0  0
    3.5944   -1.6355   -2.2738 H   0  0  0  0  0  0  0  0  0  0  0  0
    2.8474   -0.1150   -2.8532 H   0  0  0  0  0  0  0  0  0  0  0  0
    2.3200   -0.8401   -1.3078 H   0  0  0  0  0  0  0  0  0  0  0  0
    3.2926    0.0624    0.9907 H   0  0  0  0  0  0  0  0  0  0  0  0
    4.6171    2.8936   -2.0685 H   0  0  0  0  0  0  0  0  0  0  0  0
    3.4997    5.3372   -1.5144 H   0  0  0  0  0  0  0  0  0  0  0  0
    4.3414    7.2300   -0.1461 H   0  0  0  0  0  0  0  0  0  0  0  0
    4.6080    9.6605   -0.6169 H   0  0  0  0  0  0  0  0  0  0  0  0
    2.5935   11.0232   -1.1983 H   0  0  0  0  0  0  0  0  0  0  0  0
    0.3690    9.9719   -1.3343 H   0  0  0  0  0  0  0  0  0  0  0  0
   -1.2961    8.5545   -2.0888 H   0  0  0  0  0  0  0  0  0  0  0  0
   -1.4145    8.8291   -0.3272 H   0  0  0  0  0  0  0  0  0  0  0  0
   -2.5430    6.5745   -0.0652 H   0  0  0  0  0  0  0  0  0  0  0  0
   -3.7820    8.2921   -2.3714 H   0  0  0  0  0  0  0  0  0  0  0  0
   -4.6784    7.1164   -1.2869 H   0  0  0  0  0  0  0  0  0  0  0  0
   -2.2616    6.4247   -3.1674 H   0  0  0  0  0  0  0  0  0  0  0  0
   -3.1529    5.2314   -2.0948 H   0  0  0  0  0  0  0  0  0  0  0  0
    1.5944    2.9916    1.0435 H   0  0  0  0  0  0  0  0  0  0  0  0
  1  2  1  0
  1 26  1  0
  1 27  1  0
  1 28  1  0
  2  3  1  0
  2  4  1  1
  2  7  1  0
  3 29  1  0
  3 30  1  0
  3 31  1  0
  4  5  2  0
  4  6  1  0
  6 32  1  0
  7  8  1  0
  7 25  1  0
  8  9  2  0
  8 33  1  0
  9 10  1  0
  9 24  1  0
 10 11  1  0
 10 34  1  0
 11 12  2  0
 11 13  1  0
 13 14  2  0
 13 18  1  0
 14 15  1  0
 14 35  1  0
 15 16  2  0
 15 36  1  0
 16 17  1  0
 16 37  1  0
 17 18  2  0
 17 38  1  0
 18 19  1  0
 19 20  1  0
 20 21  1  0
 20 39  1  0
 20 40  1  0
 21 22  1  0
 21 23  1  0
 21 41  1  1
 22 23  1  0
 22 42  1  0
 22 43  1  0
 23 44  1  0
 23 45  1  0
 24 25  2  0
 24 46  1  0
M  END

