
     RDKit          3D

 45 46  0  0  0  0  0  0  0  0999 V2000
    2.5282   -1.9124   -2.3963 C   0  0  0  0  0  0  0  0  0  0  0  0
    2.2861   -0.8895   -1.2865 C   0  0  0  0  0  0  0  0  0  0  0  0
    3.0182    0.4566   -1.4810 C   0  0  1  0  0  0  0  0  0  0  0  0
    2.5853    1.4783   -0.4149 C   0  0  0  0  0  0  0  0  0  0  0  0
    4.5341    0.3074   -1.5298 C   0  0  0  0  0  0  0  0  0  0  0  0
    5.2663    0.6989   -2.6638 C   0  0  0  0  0  0  0  0  0  0  0  0
    6.6536    0.5813   -2.7180 C   0  0  0  0  0  0  0  0  0  0  0  0
    7.3564    0.0605   -1.6228 C   0  0  0  0  0  0  0  0  0  0  0  0
    8.7160   -0.0234   -1.7539 O   0  0  0  0  0  0  0  0  0  0  0  0
    9.4933   -0.5392   -0.6942 C   0  0  0  0  0  0  0  0  0  0  0  0
   10.9829   -0.5469   -1.0429 C   0  0  0  0  0  0  0  0  0  0  0  0
   11.7955   -0.9616   -0.2496 O   0  0  0  0  0  0  0  0  0  0  0  0
   11.2661   -0.0515   -2.2967 N   0  0  0  0  0  0  0  0  0  0  0  0
   12.5279    0.0116   -2.7572 N   0  0  0  0  0  0  0  0  0  0  0  0
   12.7128    0.4860   -3.9348 C   0  0  0  0  0  0  0  0  0  0  0  0
   14.0601    0.5867   -4.5072 C   0  0  0  0  0  0  0  0  0  0  0  0
   15.1839    0.1583   -3.7687 C   0  0  0  0  0  0  0  0  0  0  0  0
   16.4699    0.2441   -4.2905 C   0  0  0  0  0  0  0  0  0  0  0  0
   16.6704    0.7648   -5.5754 C   0  0  0  0  0  0  0  0  0  0  0  0
   15.5796    1.1964   -6.3298 C   0  0  0  0  0  0  0  0  0  0  0  0
   14.2898    1.1068   -5.7980 C   0  0  0  0  0  0  0  0  0  0  0  0
   12.9562    1.6668   -6.7965 Cl  0  0  0  0  0  0  0  0  0  0  0  0
    6.6516   -0.3382   -0.4794 C   0  0  0  0  0  0  0  0  0  0  0  0
    5.2586   -0.2101   -0.4470 C   0  0  0  0  0  0  0  0  0  0  0  0
    1.9623   -2.8396   -2.2126 H   0  0  0  0  0  0  0  0  0  0  0  0
    3.5936   -2.1810   -2.4756 H   0  0  0  0  0  0  0  0  0  0  0  0
    2.2122   -1.5202   -3.3777 H   0  0  0  0  0  0  0  0  0  0  0  0
    2.5751   -1.3219   -0.3114 H   0  0  0  0  0  0  0  0  0  0  0  0
    1.2041   -0.6816   -1.2095 H   0  0  0  0  0  0  0  0  0  0  0  0
    2.7065    0.8542   -2.4638 H   0  0  0  0  0  0  0  0  0  0  0  0
    2.8471    1.1348    0.5996 H   0  0  0  0  0  0  0  0  0  0  0  0
    1.4945    1.6352   -0.4409 H   0  0  0  0  0  0  0  0  0  0  0  0
    3.0742    2.4523   -0.5725 H   0  0  0  0  0  0  0  0  0  0  0  0
    4.7359    1.1072   -3.5289 H   0  0  0  0  0  0  0  0  0  0  0  0
    7.2106    0.8889   -3.6057 H   0  0  0  0  0  0  0  0  0  0  0  0
    9.2102   -1.5793   -0.4498 H   0  0  0  0  0  0  0  0  0  0  0  0
    9.3767    0.0612    0.2264 H   0  0  0  0  0  0  0  0  0  0  0  0
   10.4800    0.2674   -2.8681 H   0  0  0  0  0  0  0  0  0  0  0  0
   11.8716    0.8335   -4.5566 H   0  0  0  0  0  0  0  0  0  0  0  0
   15.0058   -0.2442   -2.7696 H   0  0  0  0  0  0  0  0  0  0  0  0
   17.3215   -0.0952   -3.6961 H   0  0  0  0  0  0  0  0  0  0  0  0
   17.6775    0.8360   -5.9936 H   0  0  0  0  0  0  0  0  0  0  0  0
   15.7154    1.6049   -7.3325 H   0  0  0  0  0  0  0  0  0  0  0  0
    7.1692   -0.7472    0.3886 H   0  0  0  0  0  0  0  0  0  0  0  0
    4.7329   -0.5276    0.4577 H   0  0  0  0  0  0  0  0  0  0  0  0
  1  2  1  0
  1 25  1  0
  1 26  1  0
  1 27  1  0
  2  3  1  0
  2 28  1  0
  2 29  1  0
  3  4  1  0
  3  5  1  0
  3 30  1  6
  4 31  1  0
  4 32  1  0
  4 33  1  0
  5  6  2  0
  5 24  1  0
  6  7  1  0
  6 34  1  0
  7  8  2  0
  7 35  1  0
  8  9  1  0
  8 23  1  0
  9 10  1  0
 10 11  1  0
 10 36  1  0
 10 37  1  0
 11 12  2  0
 11 13  1  0
 13 14  1  0
 13 38  1  0
 14 15  2  0
 15 16  1  0
 15 39  1  0
 16 17  2  0
 16 21  1  0
 17 18  1  0
 17 40  1  0
 18 19  2  0
 18 41  1  0
 19 20  1  0
 19 42  1  0
 20 21  2  0
 20 43  1  0
 21 22  1  0
 23 24  2  0
 23 44  1  0
 24 45  1  0
M  END

