
     RDKit          3D

 48 50  0  0  0  0  0  0  0  0999 V2000
    0.9115   -0.1048   -0.0973 C   0  0  0  0  0  0  0  0  0  0  0  0
    1.9629    0.0219    0.9833 C   0  0  2  0  0  0  0  0  0  0  0  0
    2.8469    0.5729    0.6291 H   0  0  0  0  0  0  0  0  0  0  0  0
    2.4012   -1.3205    1.3320 O   0  0  0  0  0  0  0  0  0  0  0  0
    3.6598   -1.4975    1.7566 C   0  0  0  0  0  0  0  0  0  0  0  0
    4.4256   -0.5682    1.9391 O   0  0  0  0  0  0  0  0  0  0  0  0
    4.0529   -2.9286    1.9652 C   0  0  0  0  0  0  0  0  0  0  0  0
    5.4342   -3.1226    2.1645 C   0  0  0  0  0  0  0  0  0  0  0  0
    5.9699   -4.3910    2.3625 C   0  0  0  0  0  0  0  0  0  0  0  0
    5.1142   -5.4952    2.3786 C   0  0  0  0  0  0  0  0  0  0  0  0
    3.7430   -5.3111    2.2013 C   0  0  0  0  0  0  0  0  0  0  0  0
    3.1738   -4.0429    1.9895 C   0  0  0  0  0  0  0  0  0  0  0  0
    1.6678   -3.9787    1.8252 C   0  0  0  0  0  0  0  0  0  0  0  0
    1.1361   -4.0112    0.3962 C   0  0  0  0  0  0  0  0  0  0  0  0
    1.9525   -4.2446   -0.7184 C   0  0  0  0  0  0  0  0  0  0  0  0
    1.4101   -4.2884   -2.0085 C   0  0  0  0  0  0  0  0  0  0  0  0
    0.0404   -4.1033   -2.2054 C   0  0  0  0  0  0  0  0  0  0  0  0
   -0.7857   -3.8722   -1.0996 C   0  0  0  0  0  0  0  0  0  0  0  0
   -0.2411   -3.8261    0.1846 C   0  0  0  0  0  0  0  0  0  0  0  0
    1.4130    0.7159    2.2536 C   0  0  0  0  0  0  0  0  0  0  0  0
    0.2162    0.8593    2.4400 O   0  0  0  0  0  0  0  0  0  0  0  0
    2.3748    1.1538    3.1113 N   0  0  0  0  0  0  0  0  0  0  0  0
    2.0342    1.7263    4.4083 C   0  0  0  0  0  0  0  0  0  0  0  0
    2.0813    0.7511    5.5407 C   0  0  0  0  0  0  0  0  0  0  0  0
    1.1227    0.0263    6.1957 C   0  0  0  0  0  0  0  0  0  0  0  0
    1.8122   -0.7737    7.1673 C   0  0  0  0  0  0  0  0  0  0  0  0
    3.1373   -0.4765    7.0255 C   0  0  0  0  0  0  0  0  0  0  0  0
    3.3115    0.4451    6.0446 O   0  0  0  0  0  0  0  0  0  0  0  0
    0.0258   -0.6283    0.2855 H   0  0  0  0  0  0  0  0  0  0  0  0
    1.3152   -0.6542   -0.9594 H   0  0  0  0  0  0  0  0  0  0  0  0
    0.5967    0.8972   -0.4241 H   0  0  0  0  0  0  0  0  0  0  0  0
    6.0756   -2.2402    2.1580 H   0  0  0  0  0  0  0  0  0  0  0  0
    7.0453   -4.5169    2.5077 H   0  0  0  0  0  0  0  0  0  0  0  0
    5.5115   -6.5012    2.5370 H   0  0  0  0  0  0  0  0  0  0  0  0
    3.0798   -6.1799    2.2298 H   0  0  0  0  0  0  0  0  0  0  0  0
    1.2651   -3.0869    2.3228 H   0  0  0  0  0  0  0  0  0  0  0  0
    1.2424   -4.8462    2.3584 H   0  0  0  0  0  0  0  0  0  0  0  0
    3.0262   -4.3921   -0.5835 H   0  0  0  0  0  0  0  0  0  0  0  0
    2.0668   -4.4701   -2.8638 H   0  0  0  0  0  0  0  0  0  0  0  0
   -0.3829   -4.1382   -3.2125 H   0  0  0  0  0  0  0  0  0  0  0  0
   -1.8599   -3.7240   -1.2390 H   0  0  0  0  0  0  0  0  0  0  0  0
   -0.8951   -3.6399    1.0420 H   0  0  0  0  0  0  0  0  0  0  0  0
    3.3392    0.8878    2.9177 H   0  0  0  0  0  0  0  0  0  0  0  0
    1.0143    2.1235    4.3263 H   0  0  0  0  0  0  0  0  0  0  0  0
    2.7197    2.5639    4.6159 H   0  0  0  0  0  0  0  0  0  0  0  0
    0.0534    0.0597    5.9980 H   0  0  0  0  0  0  0  0  0  0  0  0
    1.3776   -1.4742    7.8775 H   0  0  0  0  0  0  0  0  0  0  0  0
    4.0381   -0.8169    7.5296 H   0  0  0  0  0  0  0  0  0  0  0  0
  1  2  1  0
  1 29  1  0
  1 30  1  0
  1 31  1  0
  2  3  1  6
  2  4  1  0
  2 20  1  0
  4  5  1  0
  5  6  2  0
  5  7  1  0
  7  8  2  0
  7 12  1  0
  8  9  1  0
  8 32  1  0
  9 10  2  0
  9 33  1  0
 10 11  1  0
 10 34  1  0
 11 12  2  0
 11 35  1  0
 12 13  1  0
 13 14  1  0
 13 36  1  0
 13 37  1  0
 14 15  2  0
 14 19  1  0
 15 16  1  0
 15 38  1  0
 16 17  2  0
 16 39  1  0
 17 18  1  0
 17 40  1  0
 18 19  2  0
 18 41  1  0
 19 42  1  0
 20 21  2  0
 20 22  1  0
 22 23  1  0
 22 43  1  0
 23 24  1  0
 23 44  1  0
 23 45  1  0
 24 25  2  0
 24 28  1  0
 25 26  1  0
 25 46  1  0
 26 27  2  0
 26 47  1  0
 27 28  1  0
 27 48  1  0
M  END

