
     RDKit          3D

 47 49  0  0  0  0  0  0  0  0999 V2000
   11.4872   -2.9878   -4.5146 C   0  0  0  0  0  0  0  0  0  0  0  0
   10.3848   -2.9143   -3.5027 C   0  0  0  0  0  0  0  0  0  0  0  0
    9.2788   -2.2536   -3.6616 N   0  0  0  0  0  0  0  0  0  0  0  0
    8.4311   -2.3555   -2.5778 C   0  0  0  0  0  0  0  0  0  0  0  0
    7.1127   -1.6382   -2.6246 C   0  0  0  0  0  0  0  0  0  0  0  0
    8.9100   -3.1202   -1.5360 C   0  0  0  0  0  0  0  0  0  0  0  0
    8.2641   -3.4656   -0.2189 C   0  0  0  0  0  0  0  0  0  0  0  0
    7.4909   -4.7007   -0.2248 N   0  0  0  0  0  0  0  0  0  0  0  0
    6.1207   -4.6986   -0.2923 C   0  0  0  0  0  0  0  0  0  0  0  0
    5.4703   -3.6594   -0.3019 O   0  0  0  0  0  0  0  0  0  0  0  0
    5.4552   -6.0409   -0.3466 C   0  0  0  0  0  0  0  0  0  0  0  0
    6.0682   -7.2482    0.0148 C   0  0  0  0  0  0  0  0  0  0  0  0
    5.3839   -8.4619   -0.0520 C   0  0  0  0  0  0  0  0  0  0  0  0
    4.0356   -8.5186   -0.4735 C   0  0  0  0  0  0  0  0  0  0  0  0
    3.3172   -9.7184   -0.5163 N   0  0  0  0  0  0  0  0  0  0  0  0
    3.9059  -10.9305    0.0396 C   0  0  0  0  0  0  0  0  0  0  0  0
    2.8305  -11.9508    0.4319 C   0  0  0  0  0  0  0  0  0  0  0  0
    1.8708  -12.2667   -0.7217 C   0  0  2  0  0  0  0  0  0  0  0  0
    2.4861  -13.0525   -1.7321 O   0  0  0  0  0  0  0  0  0  0  0  0
    1.3017  -10.9539   -1.2761 C   0  0  0  0  0  0  0  0  0  0  0  0
    2.4151   -9.9713   -1.6418 C   0  0  0  0  0  0  0  0  0  0  0  0
    3.4183   -7.2908   -0.8210 C   0  0  0  0  0  0  0  0  0  0  0  0
    4.1098   -6.0904   -0.7519 C   0  0  0  0  0  0  0  0  0  0  0  0
   10.4918   -3.7396   -1.9545 S   0  0  0  0  0  0  0  0  0  0  0  0
   11.1999   -2.3807   -5.3837 H   0  0  0  0  0  0  0  0  0  0  0  0
   11.6643   -4.0232   -4.8488 H   0  0  0  0  0  0  0  0  0  0  0  0
   12.4372   -2.6022   -4.1103 H   0  0  0  0  0  0  0  0  0  0  0  0
    6.6280   -1.8229   -3.5960 H   0  0  0  0  0  0  0  0  0  0  0  0
    7.2626   -0.5477   -2.5469 H   0  0  0  0  0  0  0  0  0  0  0  0
    6.4317   -1.9658   -1.8279 H   0  0  0  0  0  0  0  0  0  0  0  0
    7.5655   -2.6691    0.0678 H   0  0  0  0  0  0  0  0  0  0  0  0
    9.0334   -3.5287    0.5688 H   0  0  0  0  0  0  0  0  0  0  0  0
    7.9828   -5.5613   -0.4302 H   0  0  0  0  0  0  0  0  0  0  0  0
    7.1006   -7.2628    0.3744 H   0  0  0  0  0  0  0  0  0  0  0  0
    5.9173   -9.3712    0.2218 H   0  0  0  0  0  0  0  0  0  0  0  0
    4.4849  -10.6696    0.9354 H   0  0  0  0  0  0  0  0  0  0  0  0
    4.6260  -11.3926   -0.6748 H   0  0  0  0  0  0  0  0  0  0  0  0
    2.2515  -11.5459    1.2788 H   0  0  0  0  0  0  0  0  0  0  0  0
    3.3147  -12.8803    0.7714 H   0  0  0  0  0  0  0  0  0  0  0  0
    1.0457  -12.8924   -0.3456 H   0  0  0  0  0  0  0  0  0  0  0  0
    3.2188  -12.5539   -2.1165 H   0  0  0  0  0  0  0  0  0  0  0  0
    0.6477  -10.4918   -0.5176 H   0  0  0  0  0  0  0  0  0  0  0  0
    0.6887  -11.1667   -2.1664 H   0  0  0  0  0  0  0  0  0  0  0  0
    1.9785   -9.0287   -1.9895 H   0  0  0  0  0  0  0  0  0  0  0  0
    2.9957  -10.3710   -2.5053 H   0  0  0  0  0  0  0  0  0  0  0  0
    2.3685   -7.2739   -1.1166 H   0  0  0  0  0  0  0  0  0  0  0  0
    3.6140   -5.1500   -1.0001 H   0  0  0  0  0  0  0  0  0  0  0  0
  1  2  1  0
  1 25  1  0
  1 26  1  0
  1 27  1  0
  2  3  2  0
  2 24  1  0
  3  4  1  0
  4  5  1  0
  4  6  2  0
  5 28  1  0
  5 29  1  0
  5 30  1  0
  6  7  1  0
  6 24  1  0
  7  8  1  0
  7 31  1  0
  7 32  1  0
  8  9  1  0
  8 33  1  0
  9 10  2  0
  9 11  1  0
 11 12  2  0
 11 23  1  0
 12 13  1  0
 12 34  1  0
 13 14  2  0
 13 35  1  0
 14 15  1  0
 14 22  1  0
 15 16  1  0
 15 21  1  0
 16 17  1  0
 16 36  1  0
 16 37  1  0
 17 18  1  0
 17 38  1  0
 17 39  1  0
 18 19  1  0
 18 20  1  0
 18 40  1  1
 19 41  1  0
 20 21  1  0
 20 42  1  0
 20 43  1  0
 21 44  1  0
 21 45  1  0
 22 23  2  0
 22 46  1  0
 23 47  1  0
M  END

