
     RDKit          3D

 40 43  0  0  0  0  0  0  0  0999 V2000
    2.4672    2.0688   -0.4479 C   0  0  0  0  0  0  0  0  0  0  0  0
    2.9589    0.7517    0.0727 C   0  0  0  0  0  0  0  0  0  0  0  0
    2.2898   -0.0959    0.9198 C   0  0  0  0  0  0  0  0  0  0  0  0
    3.2463   -1.5045    1.2480 S   0  0  0  0  0  0  0  0  0  0  0  0
    4.5079   -0.8434    0.2124 C   0  0  0  0  0  0  0  0  0  0  0  0
    5.8636   -1.5178    0.0421 C   0  0  1  0  0  0  0  0  0  0  0  0
    5.7993   -3.0566   -0.0450 C   0  0  0  0  0  0  0  0  0  0  0  0
    5.2707   -3.5509   -1.3944 C   0  0  0  0  0  0  0  0  0  0  0  0
    6.0882   -2.9384   -2.5358 C   0  0  0  0  0  0  0  0  0  0  0  0
    6.1126   -1.4133   -2.4349 C   0  0  0  0  0  0  0  0  0  0  0  0
    6.5703   -0.9711   -1.1132 N   0  0  0  0  0  0  0  0  0  0  0  0
    7.4020    0.1185   -1.0583 C   0  0  0  0  0  0  0  0  0  0  0  0
    7.8765    0.6544   -2.0445 O   0  0  0  0  0  0  0  0  0  0  0  0
    7.8357    0.6445    0.3006 C   0  0  0  0  0  0  0  0  0  0  0  0
    8.4836   -0.1626    1.1141 N   0  0  0  0  0  0  0  0  0  0  0  0
    9.0312    0.3423    2.2559 C   0  0  0  0  0  0  0  0  0  0  0  0
    8.9369    1.6577    2.6195 C   0  0  0  0  0  0  0  0  0  0  0  0
    8.2417    2.5036    1.7903 N   0  0  0  0  0  0  0  0  0  0  0  0
    7.9409    3.8375    1.8686 C   0  0  0  0  0  0  0  0  0  0  0  0
    7.1929    4.1082    0.7281 C   0  0  0  0  0  0  0  0  0  0  0  0
    7.0256    3.0072   -0.0408 N   0  0  0  0  0  0  0  0  0  0  0  0
    7.6624    2.0317    0.5932 C   0  0  0  0  0  0  0  0  0  0  0  0
    4.2051    0.3047   -0.3081 N   0  0  0  0  0  0  0  0  0  0  0  0
    1.5016    2.3466   -0.0022 H   0  0  0  0  0  0  0  0  0  0  0  0
    2.3506    2.0330   -1.5436 H   0  0  0  0  0  0  0  0  0  0  0  0
    3.2046    2.8582   -0.2326 H   0  0  0  0  0  0  0  0  0  0  0  0
    1.2995    0.0273    1.3548 H   0  0  0  0  0  0  0  0  0  0  0  0
    6.4567   -1.2769    0.9341 H   0  0  0  0  0  0  0  0  0  0  0  0
    5.1900   -3.4448    0.7878 H   0  0  0  0  0  0  0  0  0  0  0  0
    6.8236   -3.4332    0.1115 H   0  0  0  0  0  0  0  0  0  0  0  0
    4.2086   -3.2675   -1.5043 H   0  0  0  0  0  0  0  0  0  0  0  0
    5.3070   -4.6520   -1.4324 H   0  0  0  0  0  0  0  0  0  0  0  0
    5.6720   -3.2276   -3.5149 H   0  0  0  0  0  0  0  0  0  0  0  0
    7.1227   -3.3229   -2.4994 H   0  0  0  0  0  0  0  0  0  0  0  0
    5.1033   -1.0009   -2.6185 H   0  0  0  0  0  0  0  0  0  0  0  0
    6.7874   -0.9649   -3.1735 H   0  0  0  0  0  0  0  0  0  0  0  0
    9.5710   -0.3595    2.8973 H   0  0  0  0  0  0  0  0  0  0  0  0
    9.3728    2.0777    3.5268 H   0  0  0  0  0  0  0  0  0  0  0  0
    8.2681    4.4604    2.6969 H   0  0  0  0  0  0  0  0  0  0  0  0
    6.7710    5.0728    0.4439 H   0  0  0  0  0  0  0  0  0  0  0  0
  1  2  1  0
  1 24  1  0
  1 25  1  0
  1 26  1  0
  2  3  2  0
  2 23  1  0
  3  4  1  0
  3 27  1  0
  4  5  1  0
  5  6  1  0
  5 23  2  0
  6  7  1  0
  6 11  1  0
  6 28  1  1
  7  8  1  0
  7 29  1  0
  7 30  1  0
  8  9  1  0
  8 31  1  0
  8 32  1  0
  9 10  1  0
  9 33  1  0
  9 34  1  0
 10 11  1  0
 10 35  1  0
 10 36  1  0
 11 12  1  0
 12 13  2  0
 12 14  1  0
 14 15  2  0
 14 22  1  0
 15 16  1  0
 16 17  2  0
 16 37  1  0
 17 18  1  0
 17 38  1  0
 18 19  1  0
 18 22  1  0
 19 20  2  0
 19 39  1  0
 20 21  1  0
 20 40  1  0
 21 22  2  0
M  END

