
     RDKit          3D

 30 31  0  0  0  0  0  0  0  0999 V2000
    1.8698    1.0052    0.9338 C   0  0  0  0  0  0  0  0  0  0  0  0
    2.4649    0.1702   -0.0453 O   0  0  0  0  0  0  0  0  0  0  0  0
    2.9166    0.6886   -1.1945 C   0  0  0  0  0  0  0  0  0  0  0  0
    2.8684    2.0544   -1.5214 C   0  0  0  0  0  0  0  0  0  0  0  0
    3.3553    2.5072   -2.7443 C   0  0  0  0  0  0  0  0  0  0  0  0
    3.9131    1.6168   -3.6768 C   0  0  0  0  0  0  0  0  0  0  0  0
    4.4483    2.0811   -4.9735 C   0  0  0  0  0  0  0  0  0  0  0  0
    5.5960    1.4592   -5.4023 N   0  0  0  0  0  0  0  0  0  0  0  0
    6.0546    0.7860   -4.7960 H   0  0  0  0  0  0  0  0  0  0  0  0
    6.2686    1.7094   -6.5855 C   0  0  0  0  0  0  0  0  0  0  0  0
    7.6516    0.9009   -6.9940 S   0  0  0  0  0  0  0  0  0  0  0  0
    5.6817    2.6814   -7.3481 N   0  0  0  0  0  0  0  0  0  0  0  0
    6.1412    2.9056   -8.2280 H   0  0  0  0  0  0  0  0  0  0  0  0
    4.5238    3.4271   -7.0564 C   0  0  0  0  0  0  0  0  0  0  0  0
    4.1232    4.2709   -7.8250 O   0  0  0  0  0  0  0  0  0  0  0  0
    3.8861    3.0577   -5.7759 C   0  0  0  0  0  0  0  0  0  0  0  0
    2.6628    3.7159   -5.4571 C   0  0  0  0  0  0  0  0  0  0  0  0
    1.6692    4.2601   -5.1992 N   0  0  0  0  0  0  0  0  0  0  0  0
    3.9659    0.2496   -3.3396 C   0  0  0  0  0  0  0  0  0  0  0  0
    3.4768   -0.2198   -2.1263 C   0  0  0  0  0  0  0  0  0  0  0  0
    3.5318   -1.6974   -1.8009 C   0  0  1  0  0  0  0  0  0  0  0  0
    2.3099   -2.2111   -1.5987 F   0  0  0  0  0  0  0  0  0  0  0  0
    4.0947   -2.3944   -2.8070 F   0  0  0  0  0  0  0  0  0  0  0  0
    4.2600   -1.9372   -0.6996 F   0  0  0  0  0  0  0  0  0  0  0  0
    1.5752    0.3447    1.7586 H   0  0  0  0  0  0  0  0  0  0  0  0
    0.9748    1.5143    0.5384 H   0  0  0  0  0  0  0  0  0  0  0  0
    2.5842    1.7575    1.3091 H   0  0  0  0  0  0  0  0  0  0  0  0
    2.4504    2.7753   -0.8200 H   0  0  0  0  0  0  0  0  0  0  0  0
    3.3087    3.5741   -2.9630 H   0  0  0  0  0  0  0  0  0  0  0  0
    4.3651   -0.4797   -4.0460 H   0  0  0  0  0  0  0  0  0  0  0  0
  1  2  1  0
  1 25  1  0
  1 26  1  0
  1 27  1  0
  2  3  1  0
  3  4  2  0
  3 20  1  0
  4  5  1  0
  4 28  1  0
  5  6  2  0
  5 29  1  0
  6  7  1  0
  6 19  1  0
  7  8  1  0
  7 16  2  0
  8  9  1  0
  8 10  1  0
 10 11  2  0
 10 12  1  0
 12 13  1  0
 12 14  1  0
 14 15  2  0
 14 16  1  0
 16 17  1  0
 17 18  3  0
 19 20  2  0
 19 30  1  0
 20 21  1  0
 21 22  1  1
 21 23  1  0
 21 24  1  0
M  END

