
     RDKit          3D

 67 71  0  0  0  0  0  0  0  0999 V2000
    0.8385   -3.1211   -2.6701 C   0  0  0  0  0  0  0  0  0  0  0  0
    0.9817   -2.2477   -1.5665 O   0  0  0  0  0  0  0  0  0  0  0  0
    2.0465   -2.5307   -0.7097 C   0  0  1  0  0  0  0  0  0  0  0  0
    3.2919   -2.4295   -1.3571 O   0  0  0  0  0  0  0  0  0  0  0  0
    3.6104   -1.1594   -1.8900 C   0  0  0  0  0  0  0  0  0  0  0  0
    1.9381   -1.7534    0.6188 C   0  0  0  0  0  0  0  0  0  0  0  0
    2.2445   -3.0632    1.4072 C   0  0  2  0  0  0  0  0  0  0  0  0
    1.2325   -3.3431    2.4917 C   0  0  0  0  0  0  0  0  0  0  0  0
    0.3085   -2.5100    2.9407 N   0  0  0  0  0  0  0  0  0  0  0  0
   -0.3414   -3.2404    3.8884 C   0  0  0  0  0  0  0  0  0  0  0  0
    0.1174   -4.4688    4.0543 N   0  0  0  0  0  0  0  0  0  0  0  0
    1.1204   -4.5214    3.1565 N   0  0  0  0  0  0  0  0  0  0  0  0
    1.6814   -5.3594    3.0423 H   0  0  0  0  0  0  0  0  0  0  0  0
    3.6644   -3.1861    1.9615 C   0  0  0  0  0  0  0  0  0  0  0  0
    4.4510   -2.0766    2.2915 C   0  0  0  0  0  0  0  0  0  0  0  0
    5.7302   -2.2435    2.8166 C   0  0  0  0  0  0  0  0  0  0  0  0
    6.4481   -1.1365    3.1043 F   0  0  0  0  0  0  0  0  0  0  0  0
    6.2977   -3.4973    3.0444 C   0  0  0  0  0  0  0  0  0  0  0  0
    7.6879   -3.6619    3.6264 C   0  0  0  0  0  0  0  0  0  0  0  0
    8.5761   -4.4592    2.7696 N   0  0  0  0  0  0  0  0  0  0  0  0
    9.5790   -3.7867    1.9005 C   0  0  1  0  0  0  0  0  0  0  0  0
    9.8839   -4.5558    1.1743 H   0  0  0  0  0  0  0  0  0  0  0  0
    8.9612   -2.6332    1.1132 C   0  0  0  0  0  0  0  0  0  0  0  0
   10.8192   -3.3822    2.7194 C   0  0  0  0  0  0  0  0  0  0  0  0
   11.5197   -4.5765    3.3917 C   0  0  0  0  0  0  0  0  0  0  0  0
   10.6186   -5.3943    4.3410 C   0  0  2  0  0  0  0  0  0  0  0  0
   10.1863   -4.7313    5.1074 H   0  0  0  0  0  0  0  0  0  0  0  0
   11.2906   -6.5637    5.0233 C   0  0  0  0  0  0  0  0  0  0  0  0
   11.3613   -6.6030    6.4246 C   0  0  0  0  0  0  0  0  0  0  0  0
   12.0007   -7.6589    7.0790 C   0  0  0  0  0  0  0  0  0  0  0  0
   12.5742   -8.6954    6.3381 C   0  0  0  0  0  0  0  0  0  0  0  0
   12.5009   -8.6703    4.9418 C   0  0  0  0  0  0  0  0  0  0  0  0
   11.8653   -7.6138    4.2863 C   0  0  0  0  0  0  0  0  0  0  0  0
    9.1294   -5.9297    3.3914 S   0  0  1  0  0  0  0  0  0  0  0  0
    8.1061   -6.4309    4.3139 O   0  0  0  0  0  0  0  0  0  0  0  0
    9.5832   -6.7345    2.2529 O   0  0  0  0  0  0  0  0  0  0  0  0
    5.5133   -4.6157    2.7304 C   0  0  0  0  0  0  0  0  0  0  0  0
    4.2388   -4.4420    2.2142 C   0  0  0  0  0  0  0  0  0  0  0  0
    3.5013   -5.5550    1.9593 F   0  0  0  0  0  0  0  0  0  0  0  0
    2.0191   -3.8647    0.0673 C   0  0  0  0  0  0  0  0  0  0  0  0
   -0.0208   -2.7635   -3.2544 H   0  0  0  0  0  0  0  0  0  0  0  0
    0.6366   -4.1600   -2.3480 H   0  0  0  0  0  0  0  0  0  0  0  0
    1.7363   -3.1283   -3.3117 H   0  0  0  0  0  0  0  0  0  0  0  0
    4.5601   -1.2686   -2.4325 H   0  0  0  0  0  0  0  0  0  0  0  0
    3.7455   -0.3973   -1.1000 H   0  0  0  0  0  0  0  0  0  0  0  0
    2.8343   -0.7984   -2.5861 H   0  0  0  0  0  0  0  0  0  0  0  0
    0.9135   -1.4155    0.8078 H   0  0  0  0  0  0  0  0  0  0  0  0
    2.6247   -0.9089    0.7500 H   0  0  0  0  0  0  0  0  0  0  0  0
   -1.1774   -2.8557    4.4719 H   0  0  0  0  0  0  0  0  0  0  0  0
    4.0850   -1.0603    2.1476 H   0  0  0  0  0  0  0  0  0  0  0  0
    7.5891   -4.1763    4.5935 H   0  0  0  0  0  0  0  0  0  0  0  0
    8.1270   -2.6744    3.8280 H   0  0  0  0  0  0  0  0  0  0  0  0
    8.0921   -2.9797    0.5348 H   0  0  0  0  0  0  0  0  0  0  0  0
    9.7054   -2.2339    0.4070 H   0  0  0  0  0  0  0  0  0  0  0  0
    8.6360   -1.8034    1.7588 H   0  0  0  0  0  0  0  0  0  0  0  0
   10.5271   -2.6377    3.4827 H   0  0  0  0  0  0  0  0  0  0  0  0
   11.5403   -2.8761    2.0564 H   0  0  0  0  0  0  0  0  0  0  0  0
   12.3793   -4.2217    3.9835 H   0  0  0  0  0  0  0  0  0  0  0  0
   11.9274   -5.2501    2.6212 H   0  0  0  0  0  0  0  0  0  0  0  0
   10.9093   -5.7978    7.0105 H   0  0  0  0  0  0  0  0  0  0  0  0
   12.0472   -7.6720    8.1708 H   0  0  0  0  0  0  0  0  0  0  0  0
   13.0728   -9.5240    6.8474 H   0  0  0  0  0  0  0  0  0  0  0  0
   12.9382   -9.4831    4.3562 H   0  0  0  0  0  0  0  0  0  0  0  0
   11.7888   -7.6168    3.1978 H   0  0  0  0  0  0  0  0  0  0  0  0
    5.9014   -5.6227    2.8973 H   0  0  0  0  0  0  0  0  0  0  0  0
    1.0285   -4.3374    0.0417 H   0  0  0  0  0  0  0  0  0  0  0  0
    2.7943   -4.5877   -0.2114 H   0  0  0  0  0  0  0  0  0  0  0  0
  1  2  1  0
  1 41  1  0
  1 42  1  0
  1 43  1  0
  3  2  1  6
  3  4  1  0
  3  6  1  0
  3 40  1  0
  4  5  1  0
  5 44  1  0
  5 45  1  0
  5 46  1  0
  6  7  1  0
  6 47  1  0
  6 48  1  0
  7  8  1  1
  7 14  1  0
  7 40  1  0
  8  9  2  0
  8 12  1  0
  9 10  1  0
 10 11  2  0
 10 49  1  0
 11 12  1  0
 12 13  1  0
 14 15  2  0
 14 38  1  0
 15 16  1  0
 15 50  1  0
 16 17  1  0
 16 18  2  0
 18 19  1  0
 18 37  1  0
 19 20  1  0
 19 51  1  0
 19 52  1  0
 20 21  1  0
 34 20  1  6
 21 22  1  6
 21 23  1  0
 21 24  1  0
 23 53  1  0
 23 54  1  0
 23 55  1  0
 24 25  1  0
 24 56  1  0
 24 57  1  0
 25 26  1  0
 25 58  1  0
 25 59  1  0
 26 27  1  1
 26 28  1  0
 26 34  1  0
 28 29  2  0
 28 33  1  0
 29 30  1  0
 29 60  1  0
 30 31  2  0
 30 61  1  0
 31 32  1  0
 31 62  1  0
 32 33  2  0
 32 63  1  0
 33 64  1  0
 34 35  2  0
 34 36  2  0
 37 38  2  0
 37 65  1  0
 38 39  1  0
 40 66  1  0
 40 67  1  0
M  END

