
     RDKit          3D

 36 38  0  0  0  0  0  0  0  0999 V2000
    1.1026   -0.0950    0.2931 C   0  0  0  0  0  0  0  0  0  0  0  0
    2.4453   -0.7180   -0.1234 C   0  0  0  0  0  0  0  0  0  0  0  0
    3.1110   -0.0215   -1.2797 C   0  0  0  0  0  0  0  0  0  0  0  0
    4.0420    1.0200   -1.2298 C   0  0  0  0  0  0  0  0  0  0  0  0
    4.5928    1.6374    0.0202 C   0  0  0  0  0  0  0  0  0  0  0  0
    4.3537    1.3638   -2.5927 C   0  0  0  0  0  0  0  0  0  0  0  0
    5.2152    2.3265   -3.1381 C   0  0  0  0  0  0  0  0  0  0  0  0
    6.0282    3.2350   -2.2554 C   0  0  0  0  0  0  0  0  0  0  0  0
    5.3304    2.4583   -4.5430 C   0  0  0  0  0  0  0  0  0  0  0  0
    6.1181    3.3381   -5.3331 C   0  0  0  0  0  0  0  0  0  0  0  0
    5.8527    3.0417   -6.6704 C   0  0  0  0  0  0  0  0  0  0  0  0
    4.9140    1.9929   -6.6699 C   0  0  0  0  0  0  0  0  0  0  0  0
    4.6062    1.6496   -5.4079 N   0  0  0  0  0  0  0  0  0  0  0  0
    3.6049    0.5336   -4.9903 B   0  0  2  0  0  0  0  0  0  0  0  0
    4.0339   -0.6965   -5.4718 F   0  0  0  0  0  0  0  0  0  0  0  0
    2.3336    0.8287   -5.4644 F   0  0  0  0  0  0  0  0  0  0  0  0
    3.6030    0.5266   -3.4226 N   0  0  0  0  0  0  0  0  0  0  0  0
    2.8636   -0.2927   -2.6586 C   0  0  0  0  0  0  0  0  0  0  0  0
    1.9438   -1.3101   -3.2486 C   0  0  0  0  0  0  0  0  0  0  0  0
    0.6538   -0.6457    1.1357 H   0  0  0  0  0  0  0  0  0  0  0  0
    0.3818   -0.1053   -0.5401 H   0  0  0  0  0  0  0  0  0  0  0  0
    1.2300    0.9547    0.6026 H   0  0  0  0  0  0  0  0  0  0  0  0
    2.2880   -1.7796   -0.3777 H   0  0  0  0  0  0  0  0  0  0  0  0
    3.1262   -0.7245    0.7435 H   0  0  0  0  0  0  0  0  0  0  0  0
    4.1792    1.1476    0.9122 H   0  0  0  0  0  0  0  0  0  0  0  0
    4.3499    2.7100    0.0952 H   0  0  0  0  0  0  0  0  0  0  0  0
    5.6901    1.5540    0.0784 H   0  0  0  0  0  0  0  0  0  0  0  0
    5.3796    3.8302   -1.5950 H   0  0  0  0  0  0  0  0  0  0  0  0
    6.6400    3.9300   -2.8407 H   0  0  0  0  0  0  0  0  0  0  0  0
    6.7031    2.6567   -1.6062 H   0  0  0  0  0  0  0  0  0  0  0  0
    6.7999    4.0998   -4.9619 H   0  0  0  0  0  0  0  0  0  0  0  0
    6.2794    3.5181   -7.5506 H   0  0  0  0  0  0  0  0  0  0  0  0
    4.4540    1.4787   -7.5127 H   0  0  0  0  0  0  0  0  0  0  0  0
    1.1480   -0.8156   -3.8280 H   0  0  0  0  0  0  0  0  0  0  0  0
    1.4852   -1.9343   -2.4713 H   0  0  0  0  0  0  0  0  0  0  0  0
    2.4891   -1.9518   -3.9575 H   0  0  0  0  0  0  0  0  0  0  0  0
  1  2  1  0
  1 20  1  0
  1 21  1  0
  1 22  1  0
  2  3  1  0
  2 23  1  0
  2 24  1  0
  3  4  2  0
  3 18  1  0
  4  5  1  0
  4  6  1  0
  5 25  1  0
  5 26  1  0
  5 27  1  0
  6  7  2  0
  6 17  1  0
  7  8  1  0
  7  9  1  0
  8 28  1  0
  8 29  1  0
  8 30  1  0
  9 10  2  0
  9 13  1  0
 10 11  1  0
 10 31  1  0
 11 12  2  0
 11 32  1  0
 12 13  1  0
 12 33  1  0
 13 14  1  0
 14 15  1  6
 14 16  1  0
 14 17  1  0
 17 18  2  0
 18 19  1  0
 19 34  1  0
 19 35  1  0
 19 36  1  0
M  CHG  2  14  -1  17   1
M  END

