
     RDKit          3D

 32 32  0  0  0  0  0  0  0  0999 V2000
    3.6910   -2.1944    4.2088 C   0  0  0  0  0  0  0  0  0  0  0  0
    3.6093   -1.1690    3.0918 C   0  0  0  0  0  0  0  0  0  0  0  0
    2.5835   -0.5559    2.8394 O   0  0  0  0  0  0  0  0  0  0  0  0
    4.7609   -0.9745    2.3810 N   0  0  0  0  0  0  0  0  0  0  0  0
    4.7969   -0.1301    1.2098 C   0  0  1  0  0  0  0  0  0  0  0  0
    4.7548    1.3683    1.6084 C   0  0  0  0  0  0  0  0  0  0  0  0
    4.6526    2.5419    0.1912 S   0  0  0  0  0  0  0  0  0  0  0  0
    6.3630    3.2681    0.2118 C   0  0  0  0  0  0  0  0  0  0  0  0
    6.6239    4.0200   -1.0661 C   0  0  0  0  0  0  0  0  0  0  0  0
    7.1753    3.3664   -2.1807 C   0  0  0  0  0  0  0  0  0  0  0  0
    7.4020    4.0580   -3.3700 C   0  0  0  0  0  0  0  0  0  0  0  0
    7.0724    5.4093   -3.4574 C   0  0  0  0  0  0  0  0  0  0  0  0
    7.2945    6.0631   -4.5972 F   0  0  0  0  0  0  0  0  0  0  0  0
    6.5171    6.0774   -2.3606 C   0  0  0  0  0  0  0  0  0  0  0  0
    6.0822    7.9176   -2.5037 Br  0  0  0  0  0  0  0  0  0  0  0  0
    6.2935    5.3794   -1.1715 C   0  0  0  0  0  0  0  0  0  0  0  0
    6.0313   -0.5340    0.3831 C   0  0  0  0  0  0  0  0  0  0  0  0
    6.8122   -1.3723    0.7563 O   0  0  0  0  0  0  0  0  0  0  0  0
    6.1792    0.0945   -0.7867 O   0  0  0  0  0  0  0  0  0  0  0  0
    3.3097   -1.7380    5.1340 H   0  0  0  0  0  0  0  0  0  0  0  0
    4.7052   -2.5817    4.3818 H   0  0  0  0  0  0  0  0  0  0  0  0
    3.0218   -3.0339    3.9640 H   0  0  0  0  0  0  0  0  0  0  0  0
    5.5798   -1.5622    2.5153 H   0  0  0  0  0  0  0  0  0  0  0  0
    3.8976   -0.3236    0.5955 H   0  0  0  0  0  0  0  0  0  0  0  0
    5.6263    1.6289    2.2274 H   0  0  0  0  0  0  0  0  0  0  0  0
    3.8477    1.5106    2.2105 H   0  0  0  0  0  0  0  0  0  0  0  0
    7.0825    2.4462    0.3319 H   0  0  0  0  0  0  0  0  0  0  0  0
    6.4340    3.9310    1.0864 H   0  0  0  0  0  0  0  0  0  0  0  0
    7.4329    2.3061   -2.1156 H   0  0  0  0  0  0  0  0  0  0  0  0
    7.8364    3.5686   -4.2441 H   0  0  0  0  0  0  0  0  0  0  0  0
    5.8593    5.9085   -0.3208 H   0  0  0  0  0  0  0  0  0  0  0  0
    5.5081    0.8138   -0.8728 H   0  0  0  0  0  0  0  0  0  0  0  0
  1  2  1  0
  1 20  1  0
  1 21  1  0
  1 22  1  0
  2  3  2  0
  2  4  1  0
  4  5  1  0
  4 23  1  0
  5  6  1  0
  5 17  1  0
  5 24  1  6
  6  7  1  0
  6 25  1  0
  6 26  1  0
  7  8  1  0
  8  9  1  0
  8 27  1  0
  8 28  1  0
  9 10  2  0
  9 16  1  0
 10 11  1  0
 10 29  1  0
 11 12  2  0
 11 30  1  0
 12 13  1  0
 12 14  1  0
 14 15  1  0
 14 16  2  0
 16 31  1  0
 17 18  2  0
 17 19  1  0
 19 32  1  0
M  END

