
     RDKit          3D

 37 39  0  0  0  0  0  0  0  0999 V2000
    4.1799    2.0615    0.8844 C   0  0  0  0  0  0  0  0  0  0  0  0
    4.3877    0.9470   -0.1413 C   0  0  0  0  0  0  0  0  0  0  0  0
    3.0908    0.4739   -0.8352 C   0  0  1  0  0  0  0  0  0  0  0  0
    2.5245    1.5677   -1.6019 N   0  0  0  0  0  0  0  0  0  0  0  0
    1.2182    1.6735   -2.0166 C   0  0  0  0  0  0  0  0  0  0  0  0
    0.8224    2.8092   -2.7749 C   0  0  0  0  0  0  0  0  0  0  0  0
   -0.4909    2.9896   -3.2041 C   0  0  0  0  0  0  0  0  0  0  0  0
   -1.4344    2.0195   -2.8710 C   0  0  0  0  0  0  0  0  0  0  0  0
   -1.0519    0.8973   -2.1307 C   0  0  0  0  0  0  0  0  0  0  0  0
    0.2465    0.6888   -1.6979 C   0  0  0  0  0  0  0  0  0  0  0  0
   -2.2625    0.0335   -1.9352 C   0  0  0  0  0  0  0  0  0  0  0  0
   -2.3558   -1.0207   -1.3484 O   0  0  0  0  0  0  0  0  0  0  0  0
   -3.3077    0.7049   -2.5816 N   0  0  0  0  0  0  0  0  0  0  0  0
   -4.6694    0.2213   -2.6407 C   0  0  0  0  0  0  0  0  0  0  0  0
   -2.8850    1.9146   -3.1717 C   0  0  0  0  0  0  0  0  0  0  0  0
   -3.6094    2.6665   -3.7841 O   0  0  0  0  0  0  0  0  0  0  0  0
    3.3225   -0.7670   -1.6822 C   0  0  0  0  0  0  0  0  0  0  0  0
    3.5052   -0.8584   -3.0408 C   0  0  0  0  0  0  0  0  0  0  0  0
    3.7433   -2.1946   -3.4908 C   0  0  0  0  0  0  0  0  0  0  0  0
    3.7384   -3.1057   -2.4675 C   0  0  0  0  0  0  0  0  0  0  0  0
    3.4370   -2.3436   -0.9418 S   0  0  0  0  0  0  0  0  0  0  0  0
    5.1361    2.3512    1.3470 H   0  0  0  0  0  0  0  0  0  0  0  0
    3.5026    1.7379    1.6917 H   0  0  0  0  0  0  0  0  0  0  0  0
    3.7404    2.9627    0.4294 H   0  0  0  0  0  0  0  0  0  0  0  0
    4.8457    0.0701    0.3421 H   0  0  0  0  0  0  0  0  0  0  0  0
    5.1028    1.2615   -0.9236 H   0  0  0  0  0  0  0  0  0  0  0  0
    2.3741    0.2148   -0.0343 H   0  0  0  0  0  0  0  0  0  0  0  0
    3.1736    2.2598   -1.9548 H   0  0  0  0  0  0  0  0  0  0  0  0
    1.5773    3.5623   -3.0194 H   0  0  0  0  0  0  0  0  0  0  0  0
   -0.7740    3.8705   -3.7849 H   0  0  0  0  0  0  0  0  0  0  0  0
    0.4989   -0.2168   -1.1468 H   0  0  0  0  0  0  0  0  0  0  0  0
   -4.7169   -0.7168   -2.0723 H   0  0  0  0  0  0  0  0  0  0  0  0
   -4.9767    0.0371   -3.6822 H   0  0  0  0  0  0  0  0  0  0  0  0
   -5.3634    0.9559   -2.2039 H   0  0  0  0  0  0  0  0  0  0  0  0
    3.4555    0.0067   -3.7033 H   0  0  0  0  0  0  0  0  0  0  0  0
    3.9047   -2.4657   -4.5354 H   0  0  0  0  0  0  0  0  0  0  0  0
    3.8826   -4.1840   -2.5194 H   0  0  0  0  0  0  0  0  0  0  0  0
  1  2  1  0
  1 22  1  0
  1 23  1  0
  1 24  1  0
  2  3  1  0
  2 25  1  0
  2 26  1  0
  3  4  1  0
  3 17  1  0
  3 27  1  1
  4  5  1  0
  4 28  1  0
  5  6  2  0
  5 10  1  0
  6  7  1  0
  6 29  1  0
  7  8  2  0
  7 30  1  0
  8  9  1  0
  8 15  1  0
  9 10  2  0
  9 11  1  0
 10 31  1  0
 11 12  2  0
 11 13  1  0
 13 14  1  0
 13 15  1  0
 14 32  1  0
 14 33  1  0
 14 34  1  0
 15 16  2  0
 17 18  2  0
 17 21  1  0
 18 19  1  0
 18 35  1  0
 19 20  2  0
 19 36  1  0
 20 21  1  0
 20 37  1  0
M  END

