
     RDKit          3D

 49 51  0  0  0  0  0  0  0  0999 V2000
    5.0137   -7.9491   -1.1615 N   0  0  0  0  0  0  0  0  0  0  0  0
    6.3676   -7.9960   -1.2300 C   0  0  0  0  0  0  0  0  0  0  0  0
    7.0133   -8.9832   -1.5215 O   0  0  0  0  0  0  0  0  0  0  0  0
    7.0901   -6.6984   -0.8620 C   0  0  0  0  0  0  0  0  0  0  0  0
    6.1967   -5.5995   -0.8772 O   0  0  0  0  0  0  0  0  0  0  0  0
    6.6266   -4.3487   -0.5538 C   0  0  0  0  0  0  0  0  0  0  0  0
    7.9066   -4.0987   -0.0477 C   0  0  0  0  0  0  0  0  0  0  0  0
    8.2762   -2.7969    0.3018 C   0  0  0  0  0  0  0  0  0  0  0  0
    7.3755   -1.7412    0.1486 C   0  0  0  0  0  0  0  0  0  0  0  0
    6.1041   -1.9823   -0.3676 C   0  0  0  0  0  0  0  0  0  0  0  0
    5.6953   -3.2793   -0.7464 C   0  0  0  0  0  0  0  0  0  0  0  0
    4.4190   -3.6190   -1.3631 C   0  0  0  0  0  0  0  0  0  0  0  0
    3.2465   -2.9636   -1.5941 C   0  0  0  0  0  0  0  0  0  0  0  0
    1.9244   -3.8213   -2.4393 S   0  0  0  0  0  0  0  0  0  0  0  0
    0.8096   -2.4310   -2.2625 C   0  0  0  0  0  0  0  0  0  0  0  0
   -0.3293   -2.4094   -2.6569 O   0  0  0  0  0  0  0  0  0  0  0  0
    1.4702   -1.3838   -1.6304 N   0  0  0  0  0  0  0  0  0  0  0  0
    0.7775   -0.1401   -1.2948 C   0  0  0  0  0  0  0  0  0  0  0  0
    1.3960    1.1571   -1.8604 C   0  0  0  0  0  0  0  0  0  0  0  0
    1.6425    2.0656   -1.0873 O   0  0  0  0  0  0  0  0  0  0  0  0
    1.6432    1.2358   -3.2075 N   0  0  0  0  0  0  0  0  0  0  0  0
    2.3661    2.3991   -3.7232 C   0  0  0  0  0  0  0  0  0  0  0  0
    3.4810    1.9547   -4.6759 C   0  0  0  0  0  0  0  0  0  0  0  0
    2.9392    1.0535   -5.7932 C   0  0  0  0  0  0  0  0  0  0  0  0
    2.1315   -0.1162   -5.2153 C   0  0  0  0  0  0  0  0  0  0  0  0
    1.0580    0.3911   -4.2460 C   0  0  0  0  0  0  0  0  0  0  0  0
    2.7942   -1.5961   -1.2201 C   0  0  0  0  0  0  0  0  0  0  0  0
    3.4221   -0.7350   -0.6386 O   0  0  0  0  0  0  0  0  0  0  0  0
    4.4891   -8.7910   -1.3672 H   0  0  0  0  0  0  0  0  0  0  0  0
    4.5326   -7.1040   -0.8846 H   0  0  0  0  0  0  0  0  0  0  0  0
    7.9164   -6.5596   -1.5789 H   0  0  0  0  0  0  0  0  0  0  0  0
    7.5305   -6.8406    0.1418 H   0  0  0  0  0  0  0  0  0  0  0  0
    8.6191   -4.9121    0.0846 H   0  0  0  0  0  0  0  0  0  0  0  0
    9.2778   -2.6156    0.7002 H   0  0  0  0  0  0  0  0  0  0  0  0
    7.6619   -0.7252    0.4282 H   0  0  0  0  0  0  0  0  0  0  0  0
    5.3972   -1.1634   -0.4842 H   0  0  0  0  0  0  0  0  0  0  0  0
    4.4170   -4.6471   -1.7360 H   0  0  0  0  0  0  0  0  0  0  0  0
    0.7984    0.0023   -0.2065 H   0  0  0  0  0  0  0  0  0  0  0  0
   -0.2650   -0.2638   -1.6202 H   0  0  0  0  0  0  0  0  0  0  0  0
    2.7543    2.9581   -2.8634 H   0  0  0  0  0  0  0  0  0  0  0  0
    1.6570    3.0635   -4.2561 H   0  0  0  0  0  0  0  0  0  0  0  0
    4.2454    1.4095   -4.0948 H   0  0  0  0  0  0  0  0  0  0  0  0
    3.9749    2.8449   -5.0998 H   0  0  0  0  0  0  0  0  0  0  0  0
    3.7622    0.6802   -6.4246 H   0  0  0  0  0  0  0  0  0  0  0  0
    2.2842    1.6497   -6.4554 H   0  0  0  0  0  0  0  0  0  0  0  0
    2.8034   -0.8083   -4.6777 H   0  0  0  0  0  0  0  0  0  0  0  0
    1.6513   -0.6962   -6.0208 H   0  0  0  0  0  0  0  0  0  0  0  0
    0.4914   -0.4365   -3.8071 H   0  0  0  0  0  0  0  0  0  0  0  0
    0.3223    0.9975   -4.8124 H   0  0  0  0  0  0  0  0  0  0  0  0
  1  2  1  0
  1 29  1  0
  1 30  1  0
  2  3  2  0
  2  4  1  0
  4  5  1  0
  4 31  1  0
  4 32  1  0
  5  6  1  0
  6  7  2  0
  6 11  1  0
  7  8  1  0
  7 33  1  0
  8  9  2  0
  8 34  1  0
  9 10  1  0
  9 35  1  0
 10 11  2  0
 10 36  1  0
 11 12  1  0
 12 13  2  0
 12 37  1  0
 13 14  1  0
 13 27  1  0
 14 15  2  0
 15 16  1  0
 15 17  1  0
 17 18  1  0
 17 27  1  0
 18 19  1  0
 18 38  1  0
 18 39  1  0
 19 20  2  0
 19 21  1  0
 21 22  1  0
 21 26  1  0
 22 23  1  0
 22 40  1  0
 22 41  1  0
 23 24  1  0
 23 42  1  0
 23 43  1  0
 24 25  1  0
 24 44  1  0
 24 45  1  0
 25 26  1  0
 25 46  1  0
 25 47  1  0
 26 48  1  0
 26 49  1  0
 27 28  2  0
M  CHG  2  14   1  16  -1
M  END

