
     RDKit          3D

 38 39  0  0  0  0  0  0  0  0999 V2000
    0.8041    0.4484    0.1528 C   0  0  0  0  0  0  0  0  0  0  0  0
    2.3038    0.5620   -0.1277 C   0  0  1  0  0  0  0  0  0  0  0  0
    2.6099    1.8109   -0.9620 C   0  0  0  0  0  0  0  0  0  0  0  0
    3.0239    0.5908    1.1455 N   0  0  0  0  0  0  0  0  0  0  0  0
    4.4568    0.3509    1.0824 C   0  0  0  0  0  0  0  0  0  0  0  0
    5.0784    0.3410    2.4786 C   0  0  0  0  0  0  0  0  0  0  0  0
    6.5912    0.1151    2.4592 C   0  0  0  0  0  0  0  0  0  0  0  0
    7.2006    0.1896    3.7696 N   0  0  0  0  0  0  0  0  0  0  0  0
    6.8024   -0.8266    4.7455 C   0  0  0  0  0  0  0  0  0  0  0  0
    7.9458   -0.8225    5.7292 C   0  0  0  0  0  0  0  0  0  0  0  0
    8.0364   -1.3746    7.0065 C   0  0  0  0  0  0  0  0  0  0  0  0
    9.2386   -1.2446    7.7142 C   0  0  0  0  0  0  0  0  0  0  0  0
   10.3285   -0.5727    7.1471 C   0  0  0  0  0  0  0  0  0  0  0  0
   10.2343   -0.0203    5.8630 C   0  0  0  0  0  0  0  0  0  0  0  0
    9.0360   -0.1509    5.1620 C   0  0  0  0  0  0  0  0  0  0  0  0
    8.6590    0.3123    3.7781 C   0  0  0  0  0  0  0  0  0  0  0  0
    0.2260    0.4229   -0.7837 H   0  0  0  0  0  0  0  0  0  0  0  0
    0.4598    1.3074    0.7515 H   0  0  0  0  0  0  0  0  0  0  0  0
    0.5710   -0.4726    0.7139 H   0  0  0  0  0  0  0  0  0  0  0  0
    2.6042   -0.3264   -0.7333 H   0  0  0  0  0  0  0  0  0  0  0  0
    2.3235    2.7183   -0.4060 H   0  0  0  0  0  0  0  0  0  0  0  0
    2.0538    1.7892   -1.9128 H   0  0  0  0  0  0  0  0  0  0  0  0
    3.6796    1.8894   -1.2101 H   0  0  0  0  0  0  0  0  0  0  0  0
    2.6036   -0.0883    1.7796 H   0  0  0  0  0  0  0  0  0  0  0  0
    4.9277    1.1536    0.4887 H   0  0  0  0  0  0  0  0  0  0  0  0
    4.7096   -0.6006    0.5561 H   0  0  0  0  0  0  0  0  0  0  0  0
    4.5923   -0.4489    3.0804 H   0  0  0  0  0  0  0  0  0  0  0  0
    4.8594    1.2967    2.9821 H   0  0  0  0  0  0  0  0  0  0  0  0
    7.0562    0.8938    1.8296 H   0  0  0  0  0  0  0  0  0  0  0  0
    6.8141   -0.8596    1.9575 H   0  0  0  0  0  0  0  0  0  0  0  0
    6.6918   -1.8404    4.2870 H   0  0  0  0  0  0  0  0  0  0  0  0
    5.8325   -0.5858    5.2153 H   0  0  0  0  0  0  0  0  0  0  0  0
    7.1863   -1.8968    7.4545 H   0  0  0  0  0  0  0  0  0  0  0  0
    9.3252   -1.6668    8.7187 H   0  0  0  0  0  0  0  0  0  0  0  0
   11.2587   -0.4748    7.7128 H   0  0  0  0  0  0  0  0  0  0  0  0
   11.0869    0.5064    5.4252 H   0  0  0  0  0  0  0  0  0  0  0  0
    9.1499   -0.3371    3.0126 H   0  0  0  0  0  0  0  0  0  0  0  0
    8.9749    1.3491    3.5606 H   0  0  0  0  0  0  0  0  0  0  0  0
  1  2  1  0
  1 17  1  0
  1 18  1  0
  1 19  1  0
  2  3  1  0
  2  4  1  0
  2 20  1  6
  3 21  1  0
  3 22  1  0
  3 23  1  0
  4  5  1  0
  4 24  1  0
  5  6  1  0
  5 25  1  0
  5 26  1  0
  6  7  1  0
  6 27  1  0
  6 28  1  0
  7  8  1  0
  7 29  1  0
  7 30  1  0
  8  9  1  0
  8 16  1  0
  9 10  1  0
  9 31  1  0
  9 32  1  0
 10 11  2  0
 10 15  1  0
 11 12  1  0
 11 33  1  0
 12 13  2  0
 12 34  1  0
 13 14  1  0
 13 35  1  0
 14 15  2  0
 14 36  1  0
 15 16  1  0
 16 37  1  0
 16 38  1  0
M  END

