
     RDKit          3D

 45 46  0  0  0  0  0  0  0  0999 V2000
   -0.5658   -0.2554    0.1406 C   0  0  0  0  0  0  0  0  0  0  0  0
    0.8669   -0.0111   -0.3589 C   0  0  0  0  0  0  0  0  0  0  0  0
    1.4434   -1.1861   -1.1189 C   0  0  0  0  0  0  0  0  0  0  0  0
    1.3001   -1.2907   -2.5099 C   0  0  0  0  0  0  0  0  0  0  0  0
    1.8001   -2.3954   -3.2058 C   0  0  0  0  0  0  0  0  0  0  0  0
    2.4565   -3.4263   -2.5258 C   0  0  0  0  0  0  0  0  0  0  0  0
    3.0404   -4.6205   -3.2893 C   0  0  1  0  0  0  0  0  0  0  0  0
    4.5078   -4.4452   -3.3664 C   0  0  0  0  0  0  0  0  0  0  0  0
    5.6500   -4.2663   -3.4465 N   0  0  0  0  0  0  0  0  0  0  0  0
    2.6977   -5.9012   -2.6605 N   0  0  0  0  0  0  0  0  0  0  0  0
    1.2502   -6.1584   -2.6154 C   0  0  0  0  0  0  0  0  0  0  0  0
    0.7027   -6.7190   -3.9382 C   0  0  0  0  0  0  0  0  0  0  0  0
    1.4082   -7.9085   -4.3931 N   0  0  0  0  0  0  0  0  0  0  0  0
    0.9086   -9.2011   -3.9382 C   0  0  0  0  0  0  0  0  0  0  0  0
    1.2154  -10.3385   -4.9137 C   0  0  0  0  0  0  0  0  0  0  0  0
    2.8499   -7.6894   -4.4163 C   0  0  0  0  0  0  0  0  0  0  0  0
    3.4528   -7.0919   -3.1174 C   0  0  2  0  0  0  0  0  0  0  0  0
    3.6051   -8.0930   -1.9652 C   0  0  0  0  0  0  0  0  0  0  0  0
    2.6077   -3.3312   -1.1353 C   0  0  0  0  0  0  0  0  0  0  0  0
    2.1061   -2.2279   -0.4463 C   0  0  0  0  0  0  0  0  0  0  0  0
   -0.9479    0.6202    0.6898 H   0  0  0  0  0  0  0  0  0  0  0  0
   -0.6088   -1.1246    0.8165 H   0  0  0  0  0  0  0  0  0  0  0  0
   -1.2510   -0.4550   -0.6989 H   0  0  0  0  0  0  0  0  0  0  0  0
    1.5170    0.2195    0.5019 H   0  0  0  0  0  0  0  0  0  0  0  0
    0.8794    0.8826   -1.0051 H   0  0  0  0  0  0  0  0  0  0  0  0
    0.7921   -0.4940   -3.0613 H   0  0  0  0  0  0  0  0  0  0  0  0
    1.6794   -2.4509   -4.2918 H   0  0  0  0  0  0  0  0  0  0  0  0
    2.6886   -4.5366   -4.3417 H   0  0  0  0  0  0  0  0  0  0  0  0
    0.7282   -5.2299   -2.3405 H   0  0  0  0  0  0  0  0  0  0  0  0
    1.0554   -6.8779   -1.8024 H   0  0  0  0  0  0  0  0  0  0  0  0
    0.7829   -5.9409   -4.7233 H   0  0  0  0  0  0  0  0  0  0  0  0
   -0.3713   -6.9448   -3.8374 H   0  0  0  0  0  0  0  0  0  0  0  0
   -0.1866   -9.1063   -3.8508 H   0  0  0  0  0  0  0  0  0  0  0  0
    1.2653   -9.4912   -2.9258 H   0  0  0  0  0  0  0  0  0  0  0  0
    0.8248  -10.1031   -5.9160 H   0  0  0  0  0  0  0  0  0  0  0  0
    0.7541  -11.2770   -4.5659 H   0  0  0  0  0  0  0  0  0  0  0  0
    2.2972  -10.5246   -5.0084 H   0  0  0  0  0  0  0  0  0  0  0  0
    3.0746   -6.9898   -5.2450 H   0  0  0  0  0  0  0  0  0  0  0  0
    3.3655   -8.6286   -4.6680 H   0  0  0  0  0  0  0  0  0  0  0  0
    4.4688   -6.7521   -3.3707 H   0  0  0  0  0  0  0  0  0  0  0  0
    2.6389   -8.4571   -1.5863 H   0  0  0  0  0  0  0  0  0  0  0  0
    4.1356   -7.6181   -1.1262 H   0  0  0  0  0  0  0  0  0  0  0  0
    4.1858   -8.9710   -2.2904 H   0  0  0  0  0  0  0  0  0  0  0  0
    3.1174   -4.1356   -0.6002 H   0  0  0  0  0  0  0  0  0  0  0  0
    2.2378   -2.1678    0.6383 H   0  0  0  0  0  0  0  0  0  0  0  0
  1  2  1  0
  1 21  1  0
  1 22  1  0
  1 23  1  0
  2  3  1  0
  2 24  1  0
  2 25  1  0
  3  4  2  0
  3 20  1  0
  4  5  1  0
  4 26  1  0
  5  6  2  0
  5 27  1  0
  6  7  1  0
  6 19  1  0
  7  8  1  0
  7 10  1  0
  7 28  1  6
  8  9  3  0
 10 11  1  0
 10 17  1  0
 11 12  1  0
 11 29  1  0
 11 30  1  0
 12 13  1  0
 12 31  1  0
 12 32  1  0
 13 14  1  0
 13 16  1  0
 14 15  1  0
 14 33  1  0
 14 34  1  0
 15 35  1  0
 15 36  1  0
 15 37  1  0
 16 17  1  0
 16 38  1  0
 16 39  1  0
 17 18  1  0
 17 40  1  6
 18 41  1  0
 18 42  1  0
 18 43  1  0
 19 20  2  0
 19 44  1  0
 20 45  1  0
M  END

