
     RDKit          3D

 59 63  0  0  0  0  0  0  0  0999 V2000
    1.5898   -0.5995    3.7320 C   0  0  0  0  0  0  0  0  0  0  0  0
    2.5896   -0.0439    2.7808 C   0  0  0  0  0  0  0  0  0  0  0  0
    3.8701    0.4145    2.9146 C   0  0  0  0  0  0  0  0  0  0  0  0
    4.2244    0.8033    1.5856 C   0  0  0  0  0  0  0  0  0  0  0  0
    5.4289    1.3794    1.1474 N   0  0  0  0  0  0  0  0  0  0  0  0
    5.5259    2.5381    0.3599 C   0  0  0  0  0  0  0  0  0  0  0  0
    4.3383    3.3243   -0.0918 C   0  0  0  0  0  0  0  0  0  0  0  0
    6.8612    2.7674    0.1536 C   0  0  0  0  0  0  0  0  0  0  0  0
    7.6146    1.7332    0.8142 C   0  0  0  0  0  0  0  0  0  0  0  0
    9.0839    1.5757    0.8431 C   0  0  0  0  0  0  0  0  0  0  0  0
    9.6435    0.6710    1.4417 O   0  0  0  0  0  0  0  0  0  0  0  0
    9.8839    2.6134    0.0400 C   0  0  0  0  0  0  0  0  0  0  0  0
   11.3125    2.5318    0.2180 N   0  0  0  0  0  0  0  0  0  0  0  0
   11.9773    1.3844   -0.3921 C   0  0  0  0  0  0  0  0  0  0  0  0
   12.1399    1.5292   -1.9143 C   0  0  0  0  0  0  0  0  0  0  0  0
   12.8830    2.8239   -2.3210 C   0  0  2  0  0  0  0  0  0  0  0  0
   14.3496    2.6513   -2.2839 N   0  0  0  0  0  0  0  0  0  0  0  0
   15.2784    3.1676   -1.3681 C   0  0  0  0  0  0  0  0  0  0  0  0
   15.0863    3.8666   -0.3929 O   0  0  0  0  0  0  0  0  0  0  0  0
   16.5208    2.7188   -1.8114 N   0  0  0  0  0  0  0  0  0  0  0  0
   17.3700    2.9665   -1.3214 H   0  0  0  0  0  0  0  0  0  0  0  0
   16.4065    1.9697   -2.9689 C   0  0  0  0  0  0  0  0  0  0  0  0
   17.3496    1.3442   -3.7778 C   0  0  0  0  0  0  0  0  0  0  0  0
   16.8868    0.6647   -4.9150 C   0  0  0  0  0  0  0  0  0  0  0  0
   15.5222    0.6227   -5.2220 C   0  0  0  0  0  0  0  0  0  0  0  0
   14.5711    1.2527   -4.4035 C   0  0  0  0  0  0  0  0  0  0  0  0
   15.0258    1.9265   -3.2705 C   0  0  0  0  0  0  0  0  0  0  0  0
   12.3322    4.0340   -1.5329 C   0  0  0  0  0  0  0  0  0  0  0  0
   12.0634    3.7564   -0.0382 C   0  0  0  0  0  0  0  0  0  0  0  0
    6.6943    0.8821    1.4245 C   0  0  0  0  0  0  0  0  0  0  0  0
    6.9192   -0.3672    2.2124 C   0  0  0  0  0  0  0  0  0  0  0  0
    3.2424    0.5895    0.7372 N   0  0  0  0  0  0  0  0  0  0  0  0
    2.2148    0.0687    1.4907 O   0  0  0  0  0  0  0  0  0  0  0  0
    2.0064   -0.6339    4.7471 H   0  0  0  0  0  0  0  0  0  0  0  0
    1.2945   -1.6193    3.4370 H   0  0  0  0  0  0  0  0  0  0  0  0
    0.6773    0.0180    3.7449 H   0  0  0  0  0  0  0  0  0  0  0  0
    4.4683    0.4834    3.8174 H   0  0  0  0  0  0  0  0  0  0  0  0
    3.7141    3.6549    0.7559 H   0  0  0  0  0  0  0  0  0  0  0  0
    3.6861    2.7445   -0.7624 H   0  0  0  0  0  0  0  0  0  0  0  0
    4.6838    4.2212   -0.6251 H   0  0  0  0  0  0  0  0  0  0  0  0
    7.2577    3.6042   -0.4168 H   0  0  0  0  0  0  0  0  0  0  0  0
    9.5475    3.6096    0.3731 H   0  0  0  0  0  0  0  0  0  0  0  0
    9.5286    2.5319   -1.0163 H   0  0  0  0  0  0  0  0  0  0  0  0
   11.4222    0.4704   -0.1435 H   0  0  0  0  0  0  0  0  0  0  0  0
   12.9723    1.2816    0.0768 H   0  0  0  0  0  0  0  0  0  0  0  0
   11.1431    1.5537   -2.3890 H   0  0  0  0  0  0  0  0  0  0  0  0
   12.6554    0.6490   -2.3302 H   0  0  0  0  0  0  0  0  0  0  0  0
   12.6711    3.0158   -3.3863 H   0  0  0  0  0  0  0  0  0  0  0  0
   18.4143    1.3838   -3.5374 H   0  0  0  0  0  0  0  0  0  0  0  0
   17.6048    0.1634   -5.5681 H   0  0  0  0  0  0  0  0  0  0  0  0
   15.1855    0.0883   -6.1135 H   0  0  0  0  0  0  0  0  0  0  0  0
   13.5104    1.2074   -4.6533 H   0  0  0  0  0  0  0  0  0  0  0  0
   11.3812    4.3018   -2.0258 H   0  0  0  0  0  0  0  0  0  0  0  0
   12.9998    4.9016   -1.6415 H   0  0  0  0  0  0  0  0  0  0  0  0
   11.5211    4.6109    0.3989 H   0  0  0  0  0  0  0  0  0  0  0  0
   13.0294    3.6882    0.4813 H   0  0  0  0  0  0  0  0  0  0  0  0
    7.9489   -0.7038    2.0481 H   0  0  0  0  0  0  0  0  0  0  0  0
    6.2134   -1.1633    1.9268 H   0  0  0  0  0  0  0  0  0  0  0  0
    6.8062   -0.1972    3.2977 H   0  0  0  0  0  0  0  0  0  0  0  0
  1  2  1  0
  1 34  1  0
  1 35  1  0
  1 36  1  0
  2  3  2  0
  2 33  1  0
  3  4  1  0
  3 37  1  0
  4  5  1  0
  4 32  2  0
  5  6  1  0
  5 30  1  0
  6  7  1  0
  6  8  2  0
  7 38  1  0
  7 39  1  0
  7 40  1  0
  8  9  1  0
  8 41  1  0
  9 10  1  0
  9 30  2  0
 10 11  2  0
 10 12  1  0
 12 13  1  0
 12 42  1  0
 12 43  1  0
 13 14  1  0
 13 29  1  0
 14 15  1  0
 14 44  1  0
 14 45  1  0
 15 16  1  0
 15 46  1  0
 15 47  1  0
 16 17  1  0
 16 28  1  0
 16 48  1  6
 17 18  1  0
 17 27  1  0
 18 19  2  0
 18 20  1  0
 20 21  1  0
 20 22  1  0
 22 23  1  0
 22 27  2  0
 23 24  2  0
 23 49  1  0
 24 25  1  0
 24 50  1  0
 25 26  2  0
 25 51  1  0
 26 27  1  0
 26 52  1  0
 28 29  1  0
 28 53  1  0
 28 54  1  0
 29 55  1  0
 29 56  1  0
 30 31  1  0
 31 57  1  0
 31 58  1  0
 31 59  1  0
 32 33  1  0
M  END

