
     RDKit          3D

 32 34  0  0  0  0  0  0  0  0999 V2000
    4.7283   -1.7676    1.3263 N   0  0  0  0  0  0  0  0  0  0  0  0
    4.0214   -0.8642    0.6228 C   0  0  0  0  0  0  0  0  0  0  0  0
    4.4344    0.4202    0.6527 N   0  0  0  0  0  0  0  0  0  0  0  0
    3.7415    1.3125   -0.0385 C   0  0  0  0  0  0  0  0  0  0  0  0
    2.6068    0.9714   -0.7915 C   0  0  0  0  0  0  0  0  0  0  0  0
    2.1910   -0.2911   -0.8279 N   0  0  0  0  0  0  0  0  0  0  0  0
    2.8617   -1.2180   -0.1453 C   0  0  0  0  0  0  0  0  0  0  0  0
    2.3641   -2.6314   -0.2084 C   0  0  0  0  0  0  0  0  0  0  0  0
    2.9237   -3.5513    0.3897 O   0  0  0  0  0  0  0  0  0  0  0  0
    1.2499   -2.7687   -0.9856 N   0  0  0  0  0  0  0  0  0  0  0  0
    0.5044   -3.9152   -1.2823 C   0  0  0  0  0  0  0  0  0  0  0  0
    0.8165   -5.1932   -0.7790 C   0  0  0  0  0  0  0  0  0  0  0  0
    0.0087   -6.2760   -1.1271 C   0  0  0  0  0  0  0  0  0  0  0  0
   -1.1012   -6.1268   -1.9606 C   0  0  0  0  0  0  0  0  0  0  0  0
   -1.3953   -4.8544   -2.4667 C   0  0  0  0  0  0  0  0  0  0  0  0
   -2.5097   -4.6602   -3.3306 N   0  0  0  0  0  0  0  0  0  0  0  0
   -3.1936   -5.5746   -4.0764 C   0  0  0  0  0  0  0  0  0  0  0  0
   -4.1616   -4.8310   -4.7156 C   0  0  0  0  0  0  0  0  0  0  0  0
   -4.0245   -3.5288   -4.3386 N   0  0  0  0  0  0  0  0  0  0  0  0
   -3.0370   -3.4265   -3.5106 N   0  0  0  0  0  0  0  0  0  0  0  0
   -0.6028   -3.7544   -2.1327 C   0  0  0  0  0  0  0  0  0  0  0  0
    5.5345   -1.4448    1.8453 H   0  0  0  0  0  0  0  0  0  0  0  0
    4.4226   -2.7379    1.3085 H   0  0  0  0  0  0  0  0  0  0  0  0
    4.0904    2.3517   -0.0032 H   0  0  0  0  0  0  0  0  0  0  0  0
    2.0447    1.7198   -1.3573 H   0  0  0  0  0  0  0  0  0  0  0  0
    0.9435   -1.8844   -1.3921 H   0  0  0  0  0  0  0  0  0  0  0  0
    1.6770   -5.3152   -0.1262 H   0  0  0  0  0  0  0  0  0  0  0  0
    0.2465   -7.2650   -0.7278 H   0  0  0  0  0  0  0  0  0  0  0  0
   -1.7328   -6.9845   -2.1939 H   0  0  0  0  0  0  0  0  0  0  0  0
   -2.9348   -6.6278   -4.1106 H   0  0  0  0  0  0  0  0  0  0  0  0
   -4.9309   -5.1514   -5.4148 H   0  0  0  0  0  0  0  0  0  0  0  0
   -0.8631   -2.7758   -2.5370 H   0  0  0  0  0  0  0  0  0  0  0  0
  1  2  1  0
  1 22  1  0
  1 23  1  0
  2  3  2  0
  2  7  1  0
  3  4  1  0
  4  5  2  0
  4 24  1  0
  5  6  1  0
  5 25  1  0
  6  7  2  0
  7  8  1  0
  8  9  2  0
  8 10  1  0
 10 11  1  0
 10 26  1  0
 11 12  2  0
 11 21  1  0
 12 13  1  0
 12 27  1  0
 13 14  2  0
 13 28  1  0
 14 15  1  0
 14 29  1  0
 15 16  1  0
 15 21  2  0
 16 17  1  0
 16 20  1  0
 17 18  2  0
 17 30  1  0
 18 19  1  0
 18 31  1  0
 19 20  2  0
 21 32  1  0
M  END

