
     RDKit          3D

 24 25  0  0  0  0  0  0  0  0999 V2000
    1.4119    0.3861    0.0284 C   0  0  0  0  0  0  0  0  0  0  0  0
    2.8850    0.1171    0.0304 C   0  0  0  0  0  0  0  0  0  0  0  0
    3.8250    1.1311    0.0262 N   0  0  0  0  0  0  0  0  0  0  0  0
    4.9806    0.5274    0.0294 C   0  0  0  0  0  0  0  0  0  0  0  0
    6.2870    1.1429    0.0270 C   0  0  0  0  0  0  0  0  0  0  0  0
    7.5763    0.5911    0.0303 C   0  0  0  0  0  0  0  0  0  0  0  0
    8.4844    1.6683    0.0252 C   0  0  0  0  0  0  0  0  0  0  0  0
    7.7353    2.8512    0.0195 C   0  0  0  0  0  0  0  0  0  0  0  0
    8.1417    4.2462    0.0132 C   0  0  0  0  0  0  0  0  0  0  0  0
    7.3588    5.1784    0.0072 O   0  0  0  0  0  0  0  0  0  0  0  0
    6.4096    2.4992    0.0208 N   0  0  0  0  0  0  0  0  0  0  0  0
    5.6383    3.1596    0.0176 H   0  0  0  0  0  0  0  0  0  0  0  0
    4.8842   -0.8216    0.0356 O   0  0  0  0  0  0  0  0  0  0  0  0
    3.5398   -1.0896    0.0363 C   0  0  0  0  0  0  0  0  0  0  0  0
    3.1032   -2.5130    0.0433 C   0  0  0  0  0  0  0  0  0  0  0  0
    1.2390    1.4709    0.0265 H   0  0  0  0  0  0  0  0  0  0  0  0
    0.9152   -0.0387    0.9167 H   0  0  0  0  0  0  0  0  0  0  0  0
    0.9171   -0.0414   -0.8598 H   0  0  0  0  0  0  0  0  0  0  0  0
    7.8056   -0.4717    0.0355 H   0  0  0  0  0  0  0  0  0  0  0  0
    9.5716    1.6104    0.0257 H   0  0  0  0  0  0  0  0  0  0  0  0
    9.2491    4.4070    0.0113 H   0  0  0  0  0  0  0  0  0  0  0  0
    3.9797   -3.1758    0.0378 H   0  0  0  0  0  0  0  0  0  0  0  0
    2.4873   -2.7535   -0.8396 H   0  0  0  0  0  0  0  0  0  0  0  0
    2.5016   -2.7498    0.9371 H   0  0  0  0  0  0  0  0  0  0  0  0
  1  2  1  0
  1 16  1  0
  1 17  1  0
  1 18  1  0
  2  3  1  0
  2 14  2  0
  3  4  2  0
  4  5  1  0
  4 13  1  0
  5  6  2  0
  5 11  1  0
  6  7  1  0
  6 19  1  0
  7  8  2  0
  7 20  1  0
  8  9  1  0
  8 11  1  0
  9 10  2  0
  9 21  1  0
 11 12  1  0
 13 14  1  0
 14 15  1  0
 15 22  1  0
 15 23  1  0
 15 24  1  0
M  END

