
     RDKit          3D

 32 33  0  0  0  0  0  0  0  0999 V2000
    1.9243    0.8034    0.9796 C   0  0  0  0  0  0  0  0  0  0  0  0
    2.4262    0.0518   -0.0955 O   0  0  0  0  0  0  0  0  0  0  0  0
    2.8528    0.7110   -1.2087 C   0  0  0  0  0  0  0  0  0  0  0  0
    2.8385    2.0971   -1.3894 C   0  0  0  0  0  0  0  0  0  0  0  0
    3.3022    2.6834   -2.5719 C   0  0  0  0  0  0  0  0  0  0  0  0
    3.7964    1.8924   -3.6212 C   0  0  0  0  0  0  0  0  0  0  0  0
    4.2914    2.5042   -4.7776 N   0  0  0  0  0  0  0  0  0  0  0  0
    4.5470    1.7562   -5.9885 C   0  0  0  0  0  0  0  0  0  0  0  0
    5.1896    2.6162   -7.0564 C   0  0  0  0  0  0  0  0  0  0  0  0
    6.0377    3.6864   -6.7376 C   0  0  0  0  0  0  0  0  0  0  0  0
    6.6268    4.4367   -7.7523 C   0  0  0  0  0  0  0  0  0  0  0  0
    7.4328    5.4570   -7.4216 F   0  0  0  0  0  0  0  0  0  0  0  0
    6.4038    4.1572   -9.0986 C   0  0  0  0  0  0  0  0  0  0  0  0
    5.5649    3.0909   -9.4293 C   0  0  0  0  0  0  0  0  0  0  0  0
    4.9769    2.3416   -8.4139 C   0  0  0  0  0  0  0  0  0  0  0  0
    4.1760    1.3134   -8.7522 F   0  0  0  0  0  0  0  0  0  0  0  0
    3.7981    0.4929   -3.4468 C   0  0  0  0  0  0  0  0  0  0  0  0
    3.3443   -0.0936   -2.2621 C   0  0  0  0  0  0  0  0  0  0  0  0
    3.3412   -1.4376   -2.0712 O   0  0  0  0  0  0  0  0  0  0  0  0
    1.6414    0.0854    1.7619 H   0  0  0  0  0  0  0  0  0  0  0  0
    1.0300    1.3902    0.6959 H   0  0  0  0  0  0  0  0  0  0  0  0
    2.6812    1.4974    1.3918 H   0  0  0  0  0  0  0  0  0  0  0  0
    2.4628    2.7458   -0.5976 H   0  0  0  0  0  0  0  0  0  0  0  0
    3.2891    3.7718   -2.6737 H   0  0  0  0  0  0  0  0  0  0  0  0
    3.8960    3.4238   -4.9453 H   0  0  0  0  0  0  0  0  0  0  0  0
    3.6392    1.2770   -6.4057 H   0  0  0  0  0  0  0  0  0  0  0  0
    5.2416    0.9289   -5.7529 H   0  0  0  0  0  0  0  0  0  0  0  0
    6.2394    3.9337   -5.6943 H   0  0  0  0  0  0  0  0  0  0  0  0
    6.8819    4.7685   -9.8659 H   0  0  0  0  0  0  0  0  0  0  0  0
    5.3574    2.8306  -10.4689 H   0  0  0  0  0  0  0  0  0  0  0  0
    4.1543   -0.1682   -4.2400 H   0  0  0  0  0  0  0  0  0  0  0  0
    3.6991   -1.8674   -2.8585 H   0  0  0  0  0  0  0  0  0  0  0  0
  1  2  1  0
  1 20  1  0
  1 21  1  0
  1 22  1  0
  2  3  1  0
  3  4  2  0
  3 18  1  0
  4  5  1  0
  4 23  1  0
  5  6  2  0
  5 24  1  0
  6  7  1  0
  6 17  1  0
  7  8  1  0
  7 25  1  0
  8  9  1  0
  8 26  1  0
  8 27  1  0
  9 10  2  0
  9 15  1  0
 10 11  1  0
 10 28  1  0
 11 12  1  0
 11 13  2  0
 13 14  1  0
 13 29  1  0
 14 15  2  0
 14 30  1  0
 15 16  1  0
 17 18  2  0
 17 31  1  0
 18 19  1  0
 19 32  1  0
M  END

