
     RDKit          3D

 55 58  0  0  0  0  0  0  0  0999 V2000
    3.8713   -2.7316    0.4536 C   0  0  0  0  0  0  0  0  0  0  0  0
    3.8961   -4.1442   -0.0668 C   0  0  0  0  0  0  0  0  0  0  0  0
    5.0956   -4.7703   -0.5415 C   0  0  0  0  0  0  0  0  0  0  0  0
    4.9202   -6.0814   -0.9000 C   0  0  0  0  0  0  0  0  0  0  0  0
    3.2969   -6.6029   -0.6472 S   0  0  0  0  0  0  0  0  0  0  0  0
    2.8237   -5.0194   -0.0919 C   0  0  0  0  0  0  0  0  0  0  0  0
    1.4199   -4.8598    0.4058 C   0  0  0  0  0  0  0  0  0  0  0  0
    0.9411   -5.6441    1.2122 O   0  0  0  0  0  0  0  0  0  0  0  0
    0.7000   -3.7981   -0.0911 N   0  0  0  0  0  0  0  0  0  0  0  0
   -0.6980   -3.6239    0.3304 C   0  0  0  0  0  0  0  0  0  0  0  0
   -1.3840   -3.0302   -0.9006 C   0  0  0  0  0  0  0  0  0  0  0  0
   -0.2521   -2.2004   -1.5524 C   0  0  2  0  0  0  0  0  0  0  0  0
   -0.4988   -1.8455   -2.9798 C   0  0  0  0  0  0  0  0  0  0  0  0
   -0.3150   -2.5664   -4.0450 N   0  0  0  0  0  0  0  0  0  0  0  0
   -0.7633   -1.7400   -5.0526 C   0  0  0  0  0  0  0  0  0  0  0  0
   -0.7525   -2.1327   -6.4939 C   0  0  0  0  0  0  0  0  0  0  0  0
   -1.2851   -1.0624   -7.4370 C   0  0  0  0  0  0  0  0  0  0  0  0
   -1.2266   -1.5761   -8.7451 O   0  0  0  0  0  0  0  0  0  0  0  0
   -1.6983   -0.6933   -9.7380 C   0  0  0  0  0  0  0  0  0  0  0  0
   -1.5871   -1.3720  -11.1060 C   0  0  1  0  0  0  0  0  0  0  0  0
   -2.1818   -0.5044  -12.2344 C   0  0  0  0  0  0  0  0  0  0  0  0
   -1.2327    0.6183  -12.6657 C   0  0  0  0  0  0  0  0  0  0  0  0
    0.0428    0.1222  -13.0161 O   0  0  0  0  0  0  0  0  0  0  0  0
    0.6754   -0.5525  -11.9442 C   0  0  0  0  0  0  0  0  0  0  0  0
   -0.1378   -1.7575  -11.4695 C   0  0  0  0  0  0  0  0  0  0  0  0
   -1.1962   -0.5780   -4.6307 N   0  0  0  0  0  0  0  0  0  0  0  0
   -1.0221   -0.6419   -3.2515 O   0  0  0  0  0  0  0  0  0  0  0  0
    0.9884   -3.0901   -1.3468 C   0  0  0  0  0  0  0  0  0  0  0  0
    4.6339   -2.5962    1.2379 H   0  0  0  0  0  0  0  0  0  0  0  0
    2.8969   -2.4692    0.8874 H   0  0  0  0  0  0  0  0  0  0  0  0
    4.1027   -2.0032   -0.3429 H   0  0  0  0  0  0  0  0  0  0  0  0
    6.0565   -4.2548   -0.6006 H   0  0  0  0  0  0  0  0  0  0  0  0
    5.6625   -6.7725   -1.2979 H   0  0  0  0  0  0  0  0  0  0  0  0
   -0.7571   -2.9392    1.1959 H   0  0  0  0  0  0  0  0  0  0  0  0
   -1.1118   -4.5904    0.6486 H   0  0  0  0  0  0  0  0  0  0  0  0
   -2.2684   -2.4247   -0.6562 H   0  0  0  0  0  0  0  0  0  0  0  0
   -1.6935   -3.8289   -1.5938 H   0  0  0  0  0  0  0  0  0  0  0  0
   -0.1372   -1.2591   -0.9912 H   0  0  0  0  0  0  0  0  0  0  0  0
   -1.3430   -3.0567   -6.6128 H   0  0  0  0  0  0  0  0  0  0  0  0
    0.2792   -2.4000   -6.7779 H   0  0  0  0  0  0  0  0  0  0  0  0
   -0.6857   -0.1343   -7.3448 H   0  0  0  0  0  0  0  0  0  0  0  0
   -2.3243   -0.7915   -7.1619 H   0  0  0  0  0  0  0  0  0  0  0  0
   -1.1262    0.2569   -9.7039 H   0  0  0  0  0  0  0  0  0  0  0  0
   -2.7591   -0.4290   -9.5437 H   0  0  0  0  0  0  0  0  0  0  0  0
   -2.1794   -2.2996  -11.0254 H   0  0  0  0  0  0  0  0  0  0  0  0
   -3.1553   -0.0774  -11.9355 H   0  0  0  0  0  0  0  0  0  0  0  0
   -2.3711   -1.1473  -13.1104 H   0  0  0  0  0  0  0  0  0  0  0  0
   -1.1372    1.3791  -11.8612 H   0  0  0  0  0  0  0  0  0  0  0  0
   -1.6244    1.1360  -13.5551 H   0  0  0  0  0  0  0  0  0  0  0  0
    0.8532    0.1541  -11.1053 H   0  0  0  0  0  0  0  0  0  0  0  0
    1.6627   -0.8701  -12.3139 H   0  0  0  0  0  0  0  0  0  0  0  0
    0.3525   -2.2336  -10.6061 H   0  0  0  0  0  0  0  0  0  0  0  0
   -0.1621   -2.5001  -12.2851 H   0  0  0  0  0  0  0  0  0  0  0  0
    1.9049   -2.4877   -1.2898 H   0  0  0  0  0  0  0  0  0  0  0  0
    1.0973   -3.7925   -2.1896 H   0  0  0  0  0  0  0  0  0  0  0  0
  1  2  1  0
  1 29  1  0
  1 30  1  0
  1 31  1  0
  2  3  2  0
  2  6  1  0
  3  4  1  0
  3 32  1  0
  4  5  2  0
  4 33  1  0
  5  6  1  0
  6  7  2  0
  7  8  1  0
  7  9  1  0
  9 10  1  0
  9 28  1  0
 10 11  1  0
 10 34  1  0
 10 35  1  0
 11 12  1  0
 11 36  1  0
 11 37  1  0
 12 13  1  0
 12 28  1  0
 12 38  1  1
 13 14  2  0
 13 27  1  0
 14 15  1  0
 15 16  1  0
 15 26  2  0
 16 17  1  0
 16 39  1  0
 16 40  1  0
 17 18  1  0
 17 41  1  0
 17 42  1  0
 18 19  1  0
 19 20  1  0
 19 43  1  0
 19 44  1  0
 20 21  1  0
 20 25  1  0
 20 45  1  1
 21 22  1  0
 21 46  1  0
 21 47  1  0
 22 23  1  0
 22 48  1  0
 22 49  1  0
 23 24  1  0
 24 25  1  0
 24 50  1  0
 24 51  1  0
 25 52  1  0
 25 53  1  0
 26 27  1  0
 28 54  1  0
 28 55  1  0
M  CHG  2   5   1   8  -1
M  END

