
     RDKit          3D

 65 68  0  0  0  0  0  0  0  0999 V2000
    3.8403   -2.9810    1.6928 C   0  0  0  0  0  0  0  0  0  0  0  0
    4.5014   -1.6669    1.2550 C   0  0  2  0  0  0  0  0  0  0  0  0
    5.8440   -1.9532    0.5690 C   0  0  0  0  0  0  0  0  0  0  0  0
    4.8610   -0.6206    2.7821 S   0  0  0  0  0  0  0  0  0  0  0  0
    3.3986    0.4787    2.5606 C   0  0  2  0  0  0  0  0  0  0  0  0
    3.7376    1.5176    2.4704 H   0  0  0  0  0  0  0  0  0  0  0  0
    2.0932    0.2269    3.3747 C   0  0  0  0  0  0  0  0  0  0  0  0
    1.5677   -0.3962    2.0761 C   0  0  0  0  0  0  0  0  0  0  0  0
    0.5949   -1.0202    1.7138 O   0  0  0  0  0  0  0  0  0  0  0  0
    2.7122   -0.0323    1.3815 N   0  0  0  0  0  0  0  0  0  0  0  0
    3.4798   -0.7682    0.3917 C   0  0  2  0  0  0  0  0  0  0  0  0
    2.4812   -1.5460   -0.3586 N   0  0  0  0  0  0  0  0  0  0  0  0
    2.6708   -2.3518   -1.4163 C   0  0  0  0  0  0  0  0  0  0  0  0
    3.7412   -2.4654   -2.0273 O   0  0  0  0  0  0  0  0  0  0  0  0
    1.4479   -3.1797   -1.8464 C   0  0  1  0  0  0  0  0  0  0  0  0
    1.6254   -3.5107   -3.2441 N   0  0  0  0  0  0  0  0  0  0  0  0
    0.5751   -3.7778   -4.0587 C   0  0  0  0  0  0  0  0  0  0  0  0
   -0.5866   -3.7441   -3.6573 O   0  0  0  0  0  0  0  0  0  0  0  0
    0.9228   -4.1570   -5.5019 C   0  0  0  0  0  0  0  0  0  0  0  0
    0.8538   -5.5835   -5.7579 N   0  0  0  0  0  0  0  0  0  0  0  0
   -0.2888   -6.1770   -5.8058 C   0  0  0  0  0  0  0  0  0  0  0  0
   -1.5143   -5.6048   -5.5785 N   0  0  0  0  0  0  0  0  0  0  0  0
   -0.2794   -7.6224   -6.2154 C   0  0  0  0  0  0  0  0  0  0  0  0
    0.9089   -8.3546   -6.0829 C   0  0  0  0  0  0  0  0  0  0  0  0
    0.9615   -9.7059   -6.4554 C   0  0  0  0  0  0  0  0  0  0  0  0
    2.1831  -10.4476   -6.2930 C   0  0  0  0  0  0  0  0  0  0  0  0
    3.1683  -11.0459   -6.1582 N   0  0  0  0  0  0  0  0  0  0  0  0
   -0.1755  -10.3401   -6.9854 C   0  0  0  0  0  0  0  0  0  0  0  0
   -1.3591   -9.6058   -7.1386 C   0  0  0  0  0  0  0  0  0  0  0  0
   -2.5282  -10.2328   -7.6926 C   0  0  0  0  0  0  0  0  0  0  0  0
   -3.4767  -10.7334   -8.1363 N   0  0  0  0  0  0  0  0  0  0  0  0
   -1.4078   -8.2521   -6.7528 C   0  0  0  0  0  0  0  0  0  0  0  0
    1.2933   -4.3980   -0.9313 C   0  0  0  0  0  0  0  0  0  0  0  0
    2.1196   -5.5194   -1.0962 C   0  0  0  0  0  0  0  0  0  0  0  0
    1.9979   -6.6171   -0.2406 C   0  0  0  0  0  0  0  0  0  0  0  0
    1.0530   -6.6022    0.7908 C   0  0  0  0  0  0  0  0  0  0  0  0
    0.2286   -5.4863    0.9601 C   0  0  0  0  0  0  0  0  0  0  0  0
    0.3469   -4.3890    0.1017 C   0  0  0  0  0  0  0  0  0  0  0  0
    4.2520    0.2941   -0.4768 C   0  0  0  0  0  0  0  0  0  0  0  0
    4.4147    1.4059   -0.0493 O   0  0  0  0  0  0  0  0  0  0  0  0
    4.7320   -0.1039   -1.6417 O   0  0  0  0  0  0  0  0  0  0  0  0
    4.4787   -3.4733    2.4404 H   0  0  0  0  0  0  0  0  0  0  0  0
    3.7210   -3.6744    0.8457 H   0  0  0  0  0  0  0  0  0  0  0  0
    2.8532   -2.8288    2.1516 H   0  0  0  0  0  0  0  0  0  0  0  0
    6.4938   -2.5164    1.2564 H   0  0  0  0  0  0  0  0  0  0  0  0
    6.3741   -1.0330    0.2897 H   0  0  0  0  0  0  0  0  0  0  0  0
    5.6952   -2.5704   -0.3293 H   0  0  0  0  0  0  0  0  0  0  0  0
    1.5578    1.1238    3.7195 H   0  0  0  0  0  0  0  0  0  0  0  0
    2.1880   -0.4994    4.1934 H   0  0  0  0  0  0  0  0  0  0  0  0
    1.5534   -1.5490    0.0794 H   0  0  0  0  0  0  0  0  0  0  0  0
    0.5381   -2.5669   -1.7492 H   0  0  0  0  0  0  0  0  0  0  0  0
    2.5776   -3.4935   -3.5975 H   0  0  0  0  0  0  0  0  0  0  0  0
    1.9400   -3.8106   -5.7451 H   0  0  0  0  0  0  0  0  0  0  0  0
    0.2176   -3.5922   -6.1432 H   0  0  0  0  0  0  0  0  0  0  0  0
   -1.5099   -4.7738   -4.9781 H   0  0  0  0  0  0  0  0  0  0  0  0
   -2.2967   -6.2252   -5.4102 H   0  0  0  0  0  0  0  0  0  0  0  0
    1.7870   -7.8432   -5.6881 H   0  0  0  0  0  0  0  0  0  0  0  0
   -0.1363  -11.3902   -7.2774 H   0  0  0  0  0  0  0  0  0  0  0  0
   -2.3358   -7.6997   -6.9080 H   0  0  0  0  0  0  0  0  0  0  0  0
    2.8527   -5.5401   -1.9060 H   0  0  0  0  0  0  0  0  0  0  0  0
    2.6425   -7.4884   -0.3813 H   0  0  0  0  0  0  0  0  0  0  0  0
    0.9565   -7.4621    1.4583 H   0  0  0  0  0  0  0  0  0  0  0  0
   -0.5174   -5.4702    1.7585 H   0  0  0  0  0  0  0  0  0  0  0  0
   -0.3052   -3.5222    0.2400 H   0  0  0  0  0  0  0  0  0  0  0  0
    4.5011   -1.0505   -1.8495 H   0  0  0  0  0  0  0  0  0  0  0  0
  2  1  1  1
  1 42  1  0
  1 43  1  0
  1 44  1  0
  2  3  1  0
  2  4  1  0
  2 11  1  0
  3 45  1  0
  3 46  1  0
  3 47  1  0
  4  5  1  0
  5  6  1  6
  5  7  1  0
  5 10  1  0
  7  8  1  0
  7 48  1  0
  7 49  1  0
  8  9  2  0
  8 10  1  0
 10 11  1  0
 11 12  1  0
 11 39  1  6
 12 13  1  0
 12 50  1  0
 13 14  2  0
 13 15  1  0
 15 16  1  0
 15 33  1  0
 15 51  1  6
 16 17  1  0
 16 52  1  0
 17 18  2  0
 17 19  1  0
 19 20  1  0
 19 53  1  0
 19 54  1  0
 20 21  2  0
 21 22  1  0
 21 23  1  0
 22 55  1  0
 22 56  1  0
 23 24  2  0
 23 32  1  0
 24 25  1  0
 24 57  1  0
 25 26  1  0
 25 28  2  0
 26 27  3  0
 28 29  1  0
 28 58  1  0
 29 30  1  0
 29 32  2  0
 30 31  3  0
 32 59  1  0
 33 34  2  0
 33 38  1  0
 34 35  1  0
 34 60  1  0
 35 36  2  0
 35 61  1  0
 36 37  1  0
 36 62  1  0
 37 38  2  0
 37 63  1  0
 38 64  1  0
 39 40  2  0
 39 41  1  0
 41 65  1  0
M  END

