
     RDKit          3D

 45 44  0  0  0  0  0  0  0  0999 V2000
    0.7336   -5.6920   -1.6514 C   0  0  0  0  0  0  0  0  0  0  0  0
    2.2351   -5.4282   -1.5222 C   0  0  0  0  0  0  0  0  0  0  0  0
    2.6108   -3.9884   -1.1147 C   0  0  1  0  0  0  0  0  0  0  0  0
    2.0229   -3.5435    0.2425 C   0  0  0  0  0  0  0  0  0  0  0  0
    2.4625   -4.3498    1.4686 C   0  0  0  0  0  0  0  0  0  0  0  0
    4.1332   -3.7886   -1.1699 C   0  0  0  0  0  0  0  0  0  0  0  0
    4.7206   -3.7030   -2.5755 C   0  0  0  0  0  0  0  0  0  0  0  0
    4.0261   -3.4842   -3.5480 O   0  0  0  0  0  0  0  0  0  0  0  0
    6.2292   -3.8779   -2.6874 C   0  0  0  0  0  0  0  0  0  0  0  0
    6.8167   -3.6066   -4.0887 C   0  0  1  0  0  0  0  0  0  0  0  0
    6.5619   -2.2559   -4.5821 N   0  0  0  0  0  0  0  0  0  0  0  0
    8.3165   -3.9531   -4.0945 C   0  0  0  0  0  0  0  0  0  0  0  0
    9.0996   -3.9202   -5.4393 C   0  0  1  0  0  0  0  0  0  0  0  0
    9.4291   -2.4760   -5.8668 C   0  0  0  0  0  0  0  0  0  0  0  0
   10.4239   -4.6798   -5.2197 C   0  0  0  0  0  0  0  0  0  0  0  0
    8.3014   -4.6146   -6.5576 C   0  0  0  0  0  0  0  0  0  0  0  0
    0.5435   -6.7082   -2.0324 H   0  0  0  0  0  0  0  0  0  0  0  0
    0.2637   -4.9826   -2.3530 H   0  0  0  0  0  0  0  0  0  0  0  0
    0.2079   -5.6024   -0.6872 H   0  0  0  0  0  0  0  0  0  0  0  0
    2.7133   -5.6415   -2.4925 H   0  0  0  0  0  0  0  0  0  0  0  0
    2.6761   -6.1434   -0.8039 H   0  0  0  0  0  0  0  0  0  0  0  0
    2.1869   -3.3192   -1.8831 H   0  0  0  0  0  0  0  0  0  0  0  0
    0.9221   -3.5638    0.1758 H   0  0  0  0  0  0  0  0  0  0  0  0
    2.2848   -2.4813    0.3975 H   0  0  0  0  0  0  0  0  0  0  0  0
    2.1637   -5.4080    1.3968 H   0  0  0  0  0  0  0  0  0  0  0  0
    2.0060   -3.9451    2.3860 H   0  0  0  0  0  0  0  0  0  0  0  0
    3.5554   -4.3247    1.6119 H   0  0  0  0  0  0  0  0  0  0  0  0
    4.6741   -4.5655   -0.6020 H   0  0  0  0  0  0  0  0  0  0  0  0
    4.4108   -2.8331   -0.6824 H   0  0  0  0  0  0  0  0  0  0  0  0
    6.4500   -4.9131   -2.3634 H   0  0  0  0  0  0  0  0  0  0  0  0
    6.7137   -3.2351   -1.9272 H   0  0  0  0  0  0  0  0  0  0  0  0
    6.2981   -4.2897   -4.7814 H   0  0  0  0  0  0  0  0  0  0  0  0
    6.9608   -1.5579   -3.9515 H   0  0  0  0  0  0  0  0  0  0  0  0
    5.5561   -2.0952   -4.6234 H   0  0  0  0  0  0  0  0  0  0  0  0
    8.4093   -4.9719   -3.6776 H   0  0  0  0  0  0  0  0  0  0  0  0
    8.8364   -3.2937   -3.3726 H   0  0  0  0  0  0  0  0  0  0  0  0
   10.0375   -1.9678   -5.0988 H   0  0  0  0  0  0  0  0  0  0  0  0
    8.5102   -1.8944   -6.0176 H   0  0  0  0  0  0  0  0  0  0  0  0
   10.0118   -2.4733   -6.8035 H   0  0  0  0  0  0  0  0  0  0  0  0
   11.0056   -4.2377   -4.3933 H   0  0  0  0  0  0  0  0  0  0  0  0
   11.0529   -4.6458   -6.1245 H   0  0  0  0  0  0  0  0  0  0  0  0
   10.2461   -5.7404   -4.9742 H   0  0  0  0  0  0  0  0  0  0  0  0
    7.3873   -4.0544   -6.8058 H   0  0  0  0  0  0  0  0  0  0  0  0
    8.0107   -5.6399   -6.2711 H   0  0  0  0  0  0  0  0  0  0  0  0
    8.9070   -4.6874   -7.4760 H   0  0  0  0  0  0  0  0  0  0  0  0
  1  2  1  0
  1 17  1  0
  1 18  1  0
  1 19  1  0
  2  3  1  0
  2 20  1  0
  2 21  1  0
  3  4  1  0
  3  6  1  0
  3 22  1  6
  4  5  1  0
  4 23  1  0
  4 24  1  0
  5 25  1  0
  5 26  1  0
  5 27  1  0
  6  7  1  0
  6 28  1  0
  6 29  1  0
  7  8  2  0
  7  9  1  0
  9 10  1  0
  9 30  1  0
  9 31  1  0
 10 11  1  0
 10 12  1  0
 10 32  1  6
 11 33  1  0
 11 34  1  0
 13 12  1  1
 12 35  1  0
 12 36  1  0
 13 14  1  0
 13 15  1  0
 13 16  1  0
 14 37  1  0
 14 38  1  0
 14 39  1  0
 15 40  1  0
 15 41  1  0
 15 42  1  0
 16 43  1  0
 16 44  1  0
 16 45  1  0
M  END

