
     RDKit          3D

 52 53  0  0  0  0  0  0  0  0999 V2000
    0.8243    0.1438    0.7572 C   0  0  0  0  0  0  0  0  0  0  0  0
    2.3519    0.2633    0.6749 C   0  0  1  0  0  0  0  0  0  0  0  0
    2.8295    1.3961    1.5984 C   0  0  0  0  0  0  0  0  0  0  0  0
    3.0742   -1.0666    1.0335 C   0  0  1  0  0  0  0  0  0  0  0  0
    2.5621   -2.3727    0.3525 C   0  0  0  0  0  0  0  0  0  0  0  0
    2.8128   -2.7325   -1.1466 C   0  0  1  0  0  0  0  0  0  0  0  0
    4.2481   -3.2503   -1.3733 C   0  0  0  0  0  0  0  0  0  0  0  0
    1.8351   -3.8792   -1.4834 C   0  0  0  0  0  0  0  0  0  0  0  0
    2.5532   -1.5598   -2.1109 C   0  0  0  0  0  0  0  0  0  0  0  0
    4.5870   -0.8998    0.9114 C   0  0  0  0  0  0  0  0  0  0  0  0
    5.1508   -0.3298    0.0039 O   0  0  0  0  0  0  0  0  0  0  0  0
    5.2192   -1.4693    1.9533 O   0  0  0  0  0  0  0  0  0  0  0  0
    6.6667   -1.3822    2.1163 C   0  0  2  0  0  0  0  0  0  0  0  0
    7.0438    0.0859    2.3244 C   0  0  0  0  0  0  0  0  0  0  0  0
    7.4604   -2.0858    0.9640 C   0  0  0  0  0  0  0  0  0  0  0  0
    8.2040   -3.2363    1.6772 C   0  0  2  0  0  0  0  0  0  0  0  0
    7.1761   -4.3234    2.0659 C   0  0  0  0  0  0  0  0  0  0  0  0
    6.3802   -3.6508    3.2280 C   0  0  0  0  0  0  0  0  0  0  0  0
    7.0378   -2.2571    3.3484 C   0  0  1  0  0  0  0  0  0  0  0  0
    8.5134   -2.5992    3.0476 C   0  0  0  0  0  0  0  0  0  0  0  0
    0.3551    1.1242    0.5771 H   0  0  0  0  0  0  0  0  0  0  0  0
    0.5031   -0.1953    1.7578 H   0  0  0  0  0  0  0  0  0  0  0  0
    0.4082   -0.5557    0.0179 H   0  0  0  0  0  0  0  0  0  0  0  0
    2.6260    0.5408   -0.3540 H   0  0  0  0  0  0  0  0  0  0  0  0
    2.5915    1.1756    2.6537 H   0  0  0  0  0  0  0  0  0  0  0  0
    2.3334    2.3450    1.3391 H   0  0  0  0  0  0  0  0  0  0  0  0
    3.9141    1.5635    1.5201 H   0  0  0  0  0  0  0  0  0  0  0  0
    2.8863   -1.2381    2.1067 H   0  0  0  0  0  0  0  0  0  0  0  0
    1.4745   -2.3930    0.5246 H   0  0  0  0  0  0  0  0  0  0  0  0
    2.9568   -3.2135    0.9486 H   0  0  0  0  0  0  0  0  0  0  0  0
    4.4845   -4.0854   -0.6927 H   0  0  0  0  0  0  0  0  0  0  0  0
    4.9959   -2.4591   -1.2296 H   0  0  0  0  0  0  0  0  0  0  0  0
    4.3608   -3.6226   -2.4049 H   0  0  0  0  0  0  0  0  0  0  0  0
    1.9757   -4.7383   -0.8062 H   0  0  0  0  0  0  0  0  0  0  0  0
    1.9892   -4.2380   -2.5141 H   0  0  0  0  0  0  0  0  0  0  0  0
    0.7857   -3.5521   -1.3954 H   0  0  0  0  0  0  0  0  0  0  0  0
    3.2874   -0.7543   -1.9674 H   0  0  0  0  0  0  0  0  0  0  0  0
    1.5421   -1.1408   -1.9852 H   0  0  0  0  0  0  0  0  0  0  0  0
    2.6376   -1.9046   -3.1549 H   0  0  0  0  0  0  0  0  0  0  0  0
    6.8907    0.6622    1.4025 H   0  0  0  0  0  0  0  0  0  0  0  0
    8.1004    0.1739    2.6158 H   0  0  0  0  0  0  0  0  0  0  0  0
    6.4301    0.5240    3.1272 H   0  0  0  0  0  0  0  0  0  0  0  0
    8.1618   -1.3780    0.4968 H   0  0  0  0  0  0  0  0  0  0  0  0
    6.7930   -2.4460    0.1715 H   0  0  0  0  0  0  0  0  0  0  0  0
    9.0671   -3.6188    1.1125 H   0  0  0  0  0  0  0  0  0  0  0  0
    7.6842   -5.2403    2.4045 H   0  0  0  0  0  0  0  0  0  0  0  0
    6.5341   -4.6037    1.2163 H   0  0  0  0  0  0  0  0  0  0  0  0
    6.5105   -4.2012    4.1726 H   0  0  0  0  0  0  0  0  0  0  0  0
    5.3027   -3.5834    3.0326 H   0  0  0  0  0  0  0  0  0  0  0  0
    6.8333   -1.7495    4.3026 H   0  0  0  0  0  0  0  0  0  0  0  0
    8.9391   -3.3074    3.7761 H   0  0  0  0  0  0  0  0  0  0  0  0
    9.1793   -1.7249    2.9868 H   0  0  0  0  0  0  0  0  0  0  0  0
  1  2  1  0
  1 21  1  0
  1 22  1  0
  1 23  1  0
  2  3  1  0
  2  4  1  0
  2 24  1  6
  3 25  1  0
  3 26  1  0
  3 27  1  0
  4  5  1  0
  4 10  1  0
  4 28  1  1
  6  5  1  1
  5 29  1  0
  5 30  1  0
  6  7  1  0
  6  8  1  0
  6  9  1  0
  7 31  1  0
  7 32  1  0
  7 33  1  0
  8 34  1  0
  8 35  1  0
  8 36  1  0
  9 37  1  0
  9 38  1  0
  9 39  1  0
 10 11  2  0
 10 12  1  0
 13 12  1  6
 13 14  1  0
 13 15  1  0
 13 19  1  0
 14 40  1  0
 14 41  1  0
 14 42  1  0
 15 16  1  0
 15 43  1  0
 15 44  1  0
 16 17  1  0
 16 20  1  0
 16 45  1  6
 17 18  1  0
 17 46  1  0
 17 47  1  0
 18 19  1  0
 18 48  1  0
 18 49  1  0
 19 20  1  0
 19 50  1  1
 20 51  1  0
 20 52  1  0
M  END

