
     RDKit          3D

 21 22  0  0  0  0  0  0  0  0999 V2000
    1.0675   -0.1541    0.1507 C   0  0  0  0  0  0  0  0  0  0  0  0
    2.5692   -0.1288    0.0534 C   0  0  0  0  0  0  0  0  0  0  0  0
    3.1524    0.9818   -0.4266 N   0  0  0  0  0  0  0  0  0  0  0  0
    4.4766    0.9937   -0.5172 C   0  0  0  0  0  0  0  0  0  0  0  0
    5.2631   -0.1032   -0.1327 C   0  0  0  0  0  0  0  0  0  0  0  0
    6.6087    0.0074   -0.2579 O   0  0  0  0  0  0  0  0  0  0  0  0
    7.4139   -1.0606    0.1649 C   0  0  1  0  0  0  0  0  0  0  0  0
    7.6790   -2.1968   -0.7864 C   0  0  0  0  0  0  0  0  0  0  0  0
    8.7471   -1.1630   -0.4976 C   0  0  0  0  0  0  0  0  0  0  0  0
    4.5649   -1.2170    0.3547 C   0  0  0  0  0  0  0  0  0  0  0  0
    3.2346   -1.2214    0.4445 N   0  0  0  0  0  0  0  0  0  0  0  0
    0.6546    0.8376   -0.0731 H   0  0  0  0  0  0  0  0  0  0  0  0
    0.7518   -0.4733    1.1559 H   0  0  0  0  0  0  0  0  0  0  0  0
    0.6502   -0.8843   -0.5626 H   0  0  0  0  0  0  0  0  0  0  0  0
    4.9659    1.8953   -0.9056 H   0  0  0  0  0  0  0  0  0  0  0  0
    7.3347   -1.2747    1.2385 H   0  0  0  0  0  0  0  0  0  0  0  0
    7.1870   -2.1481   -1.7618 H   0  0  0  0  0  0  0  0  0  0  0  0
    7.7885   -3.2054   -0.3772 H   0  0  0  0  0  0  0  0  0  0  0  0
    8.9548   -0.4260   -1.2779 H   0  0  0  0  0  0  0  0  0  0  0  0
    9.6088   -1.4432    0.1139 H   0  0  0  0  0  0  0  0  0  0  0  0
    5.0896   -2.1233    0.6740 H   0  0  0  0  0  0  0  0  0  0  0  0
  1  2  1  0
  1 12  1  0
  1 13  1  0
  1 14  1  0
  2  3  2  0
  2 11  1  0
  3  4  1  0
  4  5  2  0
  4 15  1  0
  5  6  1  0
  5 10  1  0
  6  7  1  0
  7  8  1  0
  7  9  1  0
  7 16  1  1
  8  9  1  0
  8 17  1  0
  8 18  1  0
  9 19  1  0
  9 20  1  0
 10 11  2  0
 10 21  1  0
M  END

