
     RDKit          3D

 52 55  0  0  0  0  0  0  0  0999 V2000
    6.0115   -2.2862    5.5245 C   0  0  0  0  0  0  0  0  0  0  0  0
    6.6283   -1.8931    4.3000 O   0  0  0  0  0  0  0  0  0  0  0  0
    6.3395   -0.6502    3.8600 C   0  0  0  0  0  0  0  0  0  0  0  0
    5.5955    0.0908    4.4699 O   0  0  0  0  0  0  0  0  0  0  0  0
    7.0210   -0.3266    2.5926 C   0  0  0  0  0  0  0  0  0  0  0  0
    6.8862    0.9128    1.9395 C   0  0  0  0  0  0  0  0  0  0  0  0
    6.1057    2.1373    2.2924 C   0  0  0  0  0  0  0  0  0  0  0  0
    7.6408    0.8556    0.8187 N   0  0  0  0  0  0  0  0  0  0  0  0
    7.7487    1.6344    0.1816 H   0  0  0  0  0  0  0  0  0  0  0  0
    8.2827   -0.3794    0.7054 C   0  0  0  0  0  0  0  0  0  0  0  0
    9.1450   -0.7083   -0.4264 C   0  0  0  0  0  0  0  0  0  0  0  0
    9.7621   -1.7547   -0.5324 O   0  0  0  0  0  0  0  0  0  0  0  0
    9.2335    0.3462   -1.5502 C   0  0  0  0  0  0  0  0  0  0  0  0
   10.1559   -0.0392   -2.5467 O   0  0  0  0  0  0  0  0  0  0  0  0
   11.4651    0.1991   -2.2779 C   0  0  0  0  0  0  0  0  0  0  0  0
   11.8151    0.8373   -1.3134 O   0  0  0  0  0  0  0  0  0  0  0  0
   12.3599   -0.3927   -3.3192 C   0  0  0  0  0  0  0  0  0  0  0  0
   12.0267   -1.5750   -3.9575 C   0  0  0  0  0  0  0  0  0  0  0  0
   12.9369   -2.1172   -4.9224 C   0  0  0  0  0  0  0  0  0  0  0  0
   14.0693   -1.5701   -5.2743 N   0  0  0  0  0  0  0  0  0  0  0  0
   14.4258   -0.4019   -4.6630 C   0  0  0  0  0  0  0  0  0  0  0  0
   15.6579    0.1924   -5.0491 C   0  0  0  0  0  0  0  0  0  0  0  0
   16.0872    1.3678   -4.4713 C   0  0  0  0  0  0  0  0  0  0  0  0
   15.2966    1.9930   -3.4780 C   0  0  0  0  0  0  0  0  0  0  0  0
   14.0948    1.4421   -3.0776 C   0  0  0  0  0  0  0  0  0  0  0  0
   13.6160    0.2331   -3.6575 C   0  0  0  0  0  0  0  0  0  0  0  0
   12.3912   -3.4113   -5.4850 C   0  0  0  0  0  0  0  0  0  0  0  0
   11.3270   -3.8224   -4.4472 C   0  0  0  0  0  0  0  0  0  0  0  0
   10.8330   -2.4934   -3.8260 C   0  0  0  0  0  0  0  0  0  0  0  0
    7.9058   -1.1451    1.8146 C   0  0  0  0  0  0  0  0  0  0  0  0
    8.3516   -2.5457    2.1039 C   0  0  0  0  0  0  0  0  0  0  0  0
    6.3562   -3.3084    5.7247 H   0  0  0  0  0  0  0  0  0  0  0  0
    4.9146   -2.2631    5.4375 H   0  0  0  0  0  0  0  0  0  0  0  0
    6.3066   -1.6159    6.3460 H   0  0  0  0  0  0  0  0  0  0  0  0
    5.6317    2.0049    3.2706 H   0  0  0  0  0  0  0  0  0  0  0  0
    5.3164    2.3312    1.5457 H   0  0  0  0  0  0  0  0  0  0  0  0
    6.7585    3.0261    2.3248 H   0  0  0  0  0  0  0  0  0  0  0  0
    9.5167    1.3244   -1.1278 H   0  0  0  0  0  0  0  0  0  0  0  0
    8.2559    0.4306   -2.0513 H   0  0  0  0  0  0  0  0  0  0  0  0
   16.2383   -0.3235   -5.8163 H   0  0  0  0  0  0  0  0  0  0  0  0
   17.0361    1.8171   -4.7754 H   0  0  0  0  0  0  0  0  0  0  0  0
   15.6420    2.9221   -3.0173 H   0  0  0  0  0  0  0  0  0  0  0  0
   13.5071    1.9234   -2.2983 H   0  0  0  0  0  0  0  0  0  0  0  0
   13.1842   -4.1564   -5.6463 H   0  0  0  0  0  0  0  0  0  0  0  0
   11.9341   -3.2118   -6.4724 H   0  0  0  0  0  0  0  0  0  0  0  0
   11.7979   -4.4372   -3.6618 H   0  0  0  0  0  0  0  0  0  0  0  0
   10.5083   -4.4172   -4.8783 H   0  0  0  0  0  0  0  0  0  0  0  0
   10.4769   -2.5886   -2.7911 H   0  0  0  0  0  0  0  0  0  0  0  0
    9.9905   -2.0748   -4.4063 H   0  0  0  0  0  0  0  0  0  0  0  0
    9.0282   -2.9026    1.3204 H   0  0  0  0  0  0  0  0  0  0  0  0
    7.4859   -3.2214    2.1820 H   0  0  0  0  0  0  0  0  0  0  0  0
    8.8634   -2.5948    3.0774 H   0  0  0  0  0  0  0  0  0  0  0  0
  1  2  1  0
  1 32  1  0
  1 33  1  0
  1 34  1  0
  2  3  1  0
  3  4  2  0
  3  5  1  0
  5  6  2  0
  5 30  1  0
  6  7  1  0
  6  8  1  0
  7 35  1  0
  7 36  1  0
  7 37  1  0
  8  9  1  0
  8 10  1  0
 10 11  1  0
 10 30  2  0
 11 12  2  0
 11 13  1  0
 13 14  1  0
 13 38  1  0
 13 39  1  0
 14 15  1  0
 15 16  2  0
 15 17  1  0
 17 18  2  0
 17 26  1  0
 18 19  1  0
 18 29  1  0
 19 20  2  0
 19 27  1  0
 20 21  1  0
 21 22  2  0
 21 26  1  0
 22 23  1  0
 22 40  1  0
 23 24  2  0
 23 41  1  0
 24 25  1  0
 24 42  1  0
 25 26  2  0
 25 43  1  0
 27 28  1  0
 27 44  1  0
 27 45  1  0
 28 29  1  0
 28 46  1  0
 28 47  1  0
 29 48  1  0
 29 49  1  0
 30 31  1  0
 31 50  1  0
 31 51  1  0
 31 52  1  0
M  END

