
     RDKit          3D

 41 40  0  0  0  0  0  0  0  0999 V2000
    1.2010   -0.7566    0.1889 C   0  0  0  0  0  0  0  0  0  0  0  0
    2.6514   -0.4535   -0.1708 C   0  0  0  0  0  0  0  0  0  0  0  0
    3.1629    0.6639    0.6072 N   0  0  0  0  0  0  0  0  0  0  0  0
    4.5811    0.9529    0.4385 C   0  0  1  0  0  0  0  0  0  0  0  0
    4.8570    1.6416   -0.9167 C   0  0  0  0  0  0  0  0  0  0  0  0
    3.9733    2.8588   -1.1930 C   0  0  0  0  0  0  0  0  0  0  0  0
    4.2141    3.4744   -2.5498 C   0  0  1  0  0  0  0  0  0  0  0  0
    5.4885    3.8931   -2.6964 F   0  0  0  0  0  0  0  0  0  0  0  0
    3.9689    2.6045   -3.5503 F   0  0  0  0  0  0  0  0  0  0  0  0
    3.4218    4.5438   -2.7512 F   0  0  0  0  0  0  0  0  0  0  0  0
    5.1200    1.7979    1.6533 C   0  0  1  0  0  0  0  0  0  0  0  0
    4.1623    1.8929    2.6988 O   0  0  0  0  0  0  0  0  0  0  0  0
    3.3132    3.0187    2.6637 C   0  0  0  0  0  0  0  0  0  0  0  0
    6.4404    1.2534    2.2849 C   0  0  1  0  0  0  0  0  0  0  0  0
    7.5479    1.1330    1.2215 C   0  0  0  0  0  0  0  0  0  0  0  0
    6.9055    2.2568    3.3592 C   0  0  0  0  0  0  0  0  0  0  0  0
    6.1996   -0.1149    2.9508 C   0  0  0  0  0  0  0  0  0  0  0  0
    0.8093   -1.5887   -0.4165 H   0  0  0  0  0  0  0  0  0  0  0  0
    0.5638    0.1258    0.0214 H   0  0  0  0  0  0  0  0  0  0  0  0
    1.1062   -1.0439    1.2501 H   0  0  0  0  0  0  0  0  0  0  0  0
    2.7125   -0.2067   -1.2454 H   0  0  0  0  0  0  0  0  0  0  0  0
    3.2685   -1.3731   -0.0395 H   0  0  0  0  0  0  0  0  0  0  0  0
    2.9834    0.5180    1.5997 H   0  0  0  0  0  0  0  0  0  0  0  0
    5.1571    0.0037    0.4109 H   0  0  0  0  0  0  0  0  0  0  0  0
    4.7098    0.9115   -1.7290 H   0  0  0  0  0  0  0  0  0  0  0  0
    5.9170    1.9342   -0.9642 H   0  0  0  0  0  0  0  0  0  0  0  0
    4.1351    3.6562   -0.4510 H   0  0  0  0  0  0  0  0  0  0  0  0
    2.9114    2.5799   -1.1343 H   0  0  0  0  0  0  0  0  0  0  0  0
    5.3409    2.8208    1.2926 H   0  0  0  0  0  0  0  0  0  0  0  0
    2.6936    2.9896    3.5726 H   0  0  0  0  0  0  0  0  0  0  0  0
    2.6501    3.0078    1.7809 H   0  0  0  0  0  0  0  0  0  0  0  0
    3.8925    3.9623    2.6665 H   0  0  0  0  0  0  0  0  0  0  0  0
    7.7397    2.0977    0.7229 H   0  0  0  0  0  0  0  0  0  0  0  0
    7.3122    0.3886    0.4457 H   0  0  0  0  0  0  0  0  0  0  0  0
    8.4902    0.8175    1.6976 H   0  0  0  0  0  0  0  0  0  0  0  0
    7.1061    3.2483    2.9192 H   0  0  0  0  0  0  0  0  0  0  0  0
    7.8367    1.9105    3.8356 H   0  0  0  0  0  0  0  0  0  0  0  0
    6.1433    2.3780    4.1417 H   0  0  0  0  0  0  0  0  0  0  0  0
    5.9052   -0.8856    2.2207 H   0  0  0  0  0  0  0  0  0  0  0  0
    5.4096   -0.0441    3.7126 H   0  0  0  0  0  0  0  0  0  0  0  0
    7.1205   -0.4666    3.4433 H   0  0  0  0  0  0  0  0  0  0  0  0
  1  2  1  0
  1 18  1  0
  1 19  1  0
  1 20  1  0
  2  3  1  0
  2 21  1  0
  2 22  1  0
  3  4  1  0
  3 23  1  0
  4  5  1  0
  4 11  1  0
  4 24  1  6
  5  6  1  0
  5 25  1  0
  5 26  1  0
  6  7  1  0
  6 27  1  0
  6 28  1  0
  7  8  1  1
  7  9  1  0
  7 10  1  0
 11 12  1  0
 11 14  1  0
 11 29  1  6
 12 13  1  0
 13 30  1  0
 13 31  1  0
 13 32  1  0
 14 15  1  6
 14 16  1  0
 14 17  1  0
 15 33  1  0
 15 34  1  0
 15 35  1  0
 16 36  1  0
 16 37  1  0
 16 38  1  0
 17 39  1  0
 17 40  1  0
 17 41  1  0
M  END

