
     RDKit          3D

 47 48  0  0  0  0  0  0  0  0999 V2000
    2.1651   -2.6199   -1.8820 C   0  0  0  0  0  0  0  0  0  0  0  0
    2.4697   -1.7125   -0.6880 C   0  0  0  0  0  0  0  0  0  0  0  0
    3.4684   -0.5554   -0.9526 C   0  0  1  0  0  0  0  0  0  0  0  0
    2.9969    0.3255   -2.1298 C   0  0  0  0  0  0  0  0  0  0  0  0
    3.7679    1.6337   -2.3099 C   0  0  0  0  0  0  0  0  0  0  0  0
    3.5525    0.3321    0.1622 O   0  0  0  0  0  0  0  0  0  0  0  0
    3.5467   -0.1572    1.4879 C   0  0  0  0  0  0  0  0  0  0  0  0
    4.8476   -1.1448   -1.2319 C   0  0  0  0  0  0  0  0  0  0  0  0
    5.3538   -1.2340   -2.4363 N   0  0  0  0  0  0  0  0  0  0  0  0
    6.5823   -1.8584   -2.2363 O   0  0  0  0  0  0  0  0  0  0  0  0
    6.6994   -2.0906   -0.9212 C   0  0  0  0  0  0  0  0  0  0  0  0
    7.9540   -2.7128   -0.4189 C   0  0  0  0  0  0  0  0  0  0  0  0
    8.8772   -1.7201    0.3805 C   0  0  1  0  0  0  0  0  0  0  0  0
    8.2386   -1.2557    1.6087 N   0  0  0  0  0  0  0  0  0  0  0  0
   10.1780   -2.4590    0.7704 C   0  0  0  0  0  0  0  0  0  0  0  0
   11.1108   -2.7640   -0.4090 C   0  0  0  0  0  0  0  0  0  0  0  0
   11.4277   -1.5017   -1.2209 C   0  0  0  0  0  0  0  0  0  0  0  0
   10.1480   -0.7809   -1.6636 C   0  0  0  0  0  0  0  0  0  0  0  0
    9.2377   -0.4782   -0.4673 C   0  0  0  0  0  0  0  0  0  0  0  0
    5.6599   -1.6774   -0.2530 N   0  0  0  0  0  0  0  0  0  0  0  0
    1.5218   -3.4567   -1.5676 H   0  0  0  0  0  0  0  0  0  0  0  0
    3.0815   -3.0497   -2.3164 H   0  0  0  0  0  0  0  0  0  0  0  0
    1.6380   -2.0846   -2.6859 H   0  0  0  0  0  0  0  0  0  0  0  0
    2.8616   -2.3282    0.1374 H   0  0  0  0  0  0  0  0  0  0  0  0
    1.5371   -1.2494   -0.3230 H   0  0  0  0  0  0  0  0  0  0  0  0
    1.9320    0.5492   -1.9481 H   0  0  0  0  0  0  0  0  0  0  0  0
    3.0504   -0.2657   -3.0556 H   0  0  0  0  0  0  0  0  0  0  0  0
    3.7202    2.2458   -1.3986 H   0  0  0  0  0  0  0  0  0  0  0  0
    3.3386    2.2150   -3.1414 H   0  0  0  0  0  0  0  0  0  0  0  0
    4.8263    1.4483   -2.5473 H   0  0  0  0  0  0  0  0  0  0  0  0
    3.7635    0.7092    2.1309 H   0  0  0  0  0  0  0  0  0  0  0  0
    4.3168   -0.9252    1.6604 H   0  0  0  0  0  0  0  0  0  0  0  0
    2.5616   -0.5603    1.7870 H   0  0  0  0  0  0  0  0  0  0  0  0
    8.4812   -3.1497   -1.2778 H   0  0  0  0  0  0  0  0  0  0  0  0
    7.6839   -3.5367    0.2605 H   0  0  0  0  0  0  0  0  0  0  0  0
    8.0436   -2.0452    2.2269 H   0  0  0  0  0  0  0  0  0  0  0  0
    7.3327   -0.8319    1.4011 H   0  0  0  0  0  0  0  0  0  0  0  0
    9.9245   -3.3888    1.3111 H   0  0  0  0  0  0  0  0  0  0  0  0
   10.6980   -1.8104    1.4952 H   0  0  0  0  0  0  0  0  0  0  0  0
   10.6564   -3.5225   -1.0718 H   0  0  0  0  0  0  0  0  0  0  0  0
   12.0411   -3.2191   -0.0301 H   0  0  0  0  0  0  0  0  0  0  0  0
   12.0503   -1.7552   -2.0952 H   0  0  0  0  0  0  0  0  0  0  0  0
   12.0297   -0.8148   -0.5980 H   0  0  0  0  0  0  0  0  0  0  0  0
    9.6100   -1.3938   -2.4084 H   0  0  0  0  0  0  0  0  0  0  0  0
   10.4002    0.1611   -2.1782 H   0  0  0  0  0  0  0  0  0  0  0  0
    8.3169    0.0317   -0.8003 H   0  0  0  0  0  0  0  0  0  0  0  0
    9.7430    0.2255    0.2148 H   0  0  0  0  0  0  0  0  0  0  0  0
  1  2  1  0
  1 21  1  0
  1 22  1  0
  1 23  1  0
  2  3  1  0
  2 24  1  0
  2 25  1  0
  3  4  1  0
  3  6  1  1
  3  8  1  0
  4  5  1  0
  4 26  1  0
  4 27  1  0
  5 28  1  0
  5 29  1  0
  5 30  1  0
  6  7  1  0
  7 31  1  0
  7 32  1  0
  7 33  1  0
  8  9  2  0
  8 20  1  0
  9 10  1  0
 10 11  1  0
 11 12  1  0
 11 20  2  0
 12 13  1  0
 12 34  1  0
 12 35  1  0
 13 14  1  1
 13 15  1  0
 13 19  1  0
 14 36  1  0
 14 37  1  0
 15 16  1  0
 15 38  1  0
 15 39  1  0
 16 17  1  0
 16 40  1  0
 16 41  1  0
 17 18  1  0
 17 42  1  0
 17 43  1  0
 18 19  1  0
 18 44  1  0
 18 45  1  0
 19 46  1  0
 19 47  1  0
M  END

