
     RDKit          3D

 62 65  0  0  0  0  0  0  0  0999 V2000
    1.2038    1.5533    0.1556 C   0  0  0  0  0  0  0  0  0  0  0  0
    2.6419    1.0666   -0.0629 C   0  0  1  0  0  0  0  0  0  0  0  0
    2.7378   -0.4391   -0.3646 C   0  0  0  0  0  0  0  0  0  0  0  0
    2.2693   -0.7666   -1.7128 N   0  0  0  0  0  0  0  0  0  0  0  0
    2.0249   -2.1061   -1.9839 C   0  0  0  0  0  0  0  0  0  0  0  0
    2.9154   -3.3959   -1.1681 S   0  0  0  0  0  0  0  0  0  0  0  0
    2.0781   -4.5443   -2.1740 C   0  0  0  0  0  0  0  0  0  0  0  0
    2.2572   -6.0324   -1.9839 C   0  0  1  0  0  0  0  0  0  0  0  0
    3.2960   -6.2730   -1.1647 F   0  0  0  0  0  0  0  0  0  0  0  0
    1.1702   -6.5920   -1.4368 F   0  0  0  0  0  0  0  0  0  0  0  0
    2.4894   -6.6441   -3.1475 F   0  0  0  0  0  0  0  0  0  0  0  0
    1.2527   -4.0366   -3.0280 N   0  0  0  0  0  0  0  0  0  0  0  0
    1.1817   -2.6688   -2.9448 C   0  0  0  0  0  0  0  0  0  0  0  0
    0.2265   -1.9763   -3.8274 C   0  0  0  0  0  0  0  0  0  0  0  0
   -0.2176   -0.6558   -3.6453 C   0  0  0  0  0  0  0  0  0  0  0  0
   -1.1066   -0.0784   -4.4547 N   0  0  0  0  0  0  0  0  0  0  0  0
   -1.5598   -0.8157   -5.4610 C   0  0  0  0  0  0  0  0  0  0  0  0
   -2.5736   -0.1829   -6.4122 C   0  0  1  0  0  0  0  0  0  0  0  0
   -2.7913    1.1013   -6.1265 F   0  0  0  0  0  0  0  0  0  0  0  0
   -2.1418   -0.2593   -7.6796 F   0  0  0  0  0  0  0  0  0  0  0  0
   -3.7481   -0.8288   -6.3418 F   0  0  0  0  0  0  0  0  0  0  0  0
   -1.2330   -2.0782   -5.7321 N   0  0  0  0  0  0  0  0  0  0  0  0
   -0.3536   -2.6551   -4.9208 C   0  0  0  0  0  0  0  0  0  0  0  0
    3.0121   -0.0214   -2.7470 C   0  0  0  0  0  0  0  0  0  0  0  0
    2.9225    1.4787   -2.4939 C   0  0  0  0  0  0  0  0  0  0  0  0
    3.3298    1.8095   -1.1295 N   0  0  0  0  0  0  0  0  0  0  0  0
    4.3040    2.7586   -0.9533 C   0  0  0  0  0  0  0  0  0  0  0  0
    4.8752    3.3052   -1.8827 O   0  0  0  0  0  0  0  0  0  0  0  0
    4.7010    3.1528    0.4846 C   0  0  0  0  0  0  0  0  0  0  0  0
    5.7546    2.3138    1.0251 N   0  0  0  0  0  0  0  0  0  0  0  0
    7.0967    2.4707    0.9354 C   0  0  0  0  0  0  0  0  0  0  0  0
    7.7111    1.4621    1.5157 N   0  0  0  0  0  0  0  0  0  0  0  0
    6.6872    0.6724    1.9581 C   0  0  0  0  0  0  0  0  0  0  0  0
    6.9280   -0.6169    2.7173 C   0  0  1  0  0  0  0  0  0  0  0  0
    7.6945   -0.2791    4.0156 C   0  0  0  0  0  0  0  0  0  0  0  0
    5.5960   -1.3019    3.0599 C   0  0  0  0  0  0  0  0  0  0  0  0
    7.7928   -1.5484    1.8404 C   0  0  0  0  0  0  0  0  0  0  0  0
    5.4832    1.1565    1.6735 N   0  0  0  0  0  0  0  0  0  0  0  0
    0.7486    1.0252    1.0079 H   0  0  0  0  0  0  0  0  0  0  0  0
    0.5648    1.3807   -0.7229 H   0  0  0  0  0  0  0  0  0  0  0  0
    1.1905    2.6316    0.3774 H   0  0  0  0  0  0  0  0  0  0  0  0
    3.2128    1.1955    0.8641 H   0  0  0  0  0  0  0  0  0  0  0  0
    2.1313   -0.9923    0.3670 H   0  0  0  0  0  0  0  0  0  0  0  0
    3.7959   -0.7474   -0.2319 H   0  0  0  0  0  0  0  0  0  0  0  0
    0.1492   -0.0588   -2.8068 H   0  0  0  0  0  0  0  0  0  0  0  0
   -0.0839   -3.6967   -5.1191 H   0  0  0  0  0  0  0  0  0  0  0  0
    2.5936   -0.2543   -3.7360 H   0  0  0  0  0  0  0  0  0  0  0  0
    4.0742   -0.3412   -2.7479 H   0  0  0  0  0  0  0  0  0  0  0  0
    1.8909    1.8285   -2.6722 H   0  0  0  0  0  0  0  0  0  0  0  0
    3.5865    2.0219   -3.1774 H   0  0  0  0  0  0  0  0  0  0  0  0
    3.8633    3.1556    1.1937 H   0  0  0  0  0  0  0  0  0  0  0  0
    5.0913    4.1746    0.4008 H   0  0  0  0  0  0  0  0  0  0  0  0
    7.5580    3.3275    0.4442 H   0  0  0  0  0  0  0  0  0  0  0  0
    7.0948    0.3716    4.6721 H   0  0  0  0  0  0  0  0  0  0  0  0
    8.6366    0.2412    3.7882 H   0  0  0  0  0  0  0  0  0  0  0  0
    7.9299   -1.2009    4.5719 H   0  0  0  0  0  0  0  0  0  0  0  0
    4.9538   -0.6502    3.6712 H   0  0  0  0  0  0  0  0  0  0  0  0
    5.7840   -2.2286    3.6246 H   0  0  0  0  0  0  0  0  0  0  0  0
    5.0341   -1.5663    2.1507 H   0  0  0  0  0  0  0  0  0  0  0  0
    8.7364   -1.0571    1.5614 H   0  0  0  0  0  0  0  0  0  0  0  0
    7.2654   -1.8234    0.9126 H   0  0  0  0  0  0  0  0  0  0  0  0
    8.0292   -2.4766    2.3853 H   0  0  0  0  0  0  0  0  0  0  0  0
  1  2  1  0
  1 39  1  0
  1 40  1  0
  1 41  1  0
  2  3  1  0
  2 26  1  0
  2 42  1  1
  3  4  1  0
  3 43  1  0
  3 44  1  0
  4  5  1  0
  4 24  1  0
  5  6  1  0
  5 13  2  0
  6  7  1  0
  7  8  1  0
  7 12  2  0
  8  9  1  1
  8 10  1  0
  8 11  1  0
 12 13  1  0
 13 14  1  0
 14 15  2  0
 14 23  1  0
 15 16  1  0
 15 45  1  0
 16 17  2  0
 17 18  1  0
 17 22  1  0
 18 19  1  1
 18 20  1  0
 18 21  1  0
 22 23  2  0
 23 46  1  0
 24 25  1  0
 24 47  1  0
 24 48  1  0
 25 26  1  0
 25 49  1  0
 25 50  1  0
 26 27  1  0
 27 28  2  0
 27 29  1  0
 29 30  1  0
 29 51  1  0
 29 52  1  0
 30 31  1  0
 30 38  1  0
 31 32  2  0
 31 53  1  0
 32 33  1  0
 33 34  1  0
 33 38  2  0
 34 35  1  1
 34 36  1  0
 34 37  1  0
 35 54  1  0
 35 55  1  0
 35 56  1  0
 36 57  1  0
 36 58  1  0
 36 59  1  0
 37 60  1  0
 37 61  1  0
 37 62  1  0
M  END

