
     RDKit          3D

 40 41  0  0  0  0  0  0  0  0999 V2000
    2.4122    0.6489    1.3081 C   0  0  0  0  0  0  0  0  0  0  0  0
    3.6435    0.2460    0.5314 C   0  0  0  0  0  0  0  0  0  0  0  0
    4.4026    1.2450   -0.0938 C   0  0  0  0  0  0  0  0  0  0  0  0
    5.5490    0.9366   -0.8262 C   0  0  0  0  0  0  0  0  0  0  0  0
    5.9424   -0.3899   -0.9621 C   0  0  0  0  0  0  0  0  0  0  0  0
    5.2081   -1.4127   -0.3412 C   0  0  0  0  0  0  0  0  0  0  0  0
    5.6826   -2.7405   -0.5396 N   0  0  0  0  0  0  0  0  0  0  0  0
    4.9387   -3.7947   -1.0199 C   0  0  0  0  0  0  0  0  0  0  0  0
    3.7297   -3.8077   -1.0988 O   0  0  0  0  0  0  0  0  0  0  0  0
    5.7503   -5.0081   -1.5069 C   0  0  0  0  0  0  0  0  0  0  0  0
    7.5112   -5.1410   -1.0417 S   0  0  0  0  0  0  0  0  0  0  0  0
    7.3393   -5.6791    0.7204 C   0  0  0  0  0  0  0  0  0  0  0  0
    8.6994   -5.8475    1.3439 C   0  0  0  0  0  0  0  0  0  0  0  0
    9.2923   -4.8061    2.0742 C   0  0  0  0  0  0  0  0  0  0  0  0
   10.5617   -4.9487    2.6372 C   0  0  0  0  0  0  0  0  0  0  0  0
   11.2556   -6.1495    2.4637 C   0  0  0  0  0  0  0  0  0  0  0  0
   12.8440   -6.3402    3.1660 Cl  0  0  0  0  0  0  0  0  0  0  0  0
   10.6899   -7.2006    1.7354 C   0  0  0  0  0  0  0  0  0  0  0  0
    9.4198   -7.0415    1.1800 C   0  0  0  0  0  0  0  0  0  0  0  0
    4.0647   -1.1057    0.4305 C   0  0  0  0  0  0  0  0  0  0  0  0
    3.2769   -2.1547    1.1930 C   0  0  0  0  0  0  0  0  0  0  0  0
    4.0283   -3.0099    1.9544 N   0  0  0  0  0  0  0  0  0  0  0  0
    2.0612   -2.1758    1.2132 O   0  0  0  0  0  0  0  0  0  0  0  0
    2.3239    1.7444    1.3450 H   0  0  0  0  0  0  0  0  0  0  0  0
    2.4342    0.2673    2.3408 H   0  0  0  0  0  0  0  0  0  0  0  0
    1.5064    0.2260    0.8517 H   0  0  0  0  0  0  0  0  0  0  0  0
    4.0845    2.2863    0.0003 H   0  0  0  0  0  0  0  0  0  0  0  0
    6.1269    1.7301   -1.3063 H   0  0  0  0  0  0  0  0  0  0  0  0
    6.8159   -0.6507   -1.5655 H   0  0  0  0  0  0  0  0  0  0  0  0
    6.6871   -2.8427   -0.6828 H   0  0  0  0  0  0  0  0  0  0  0  0
    5.7338   -4.9839   -2.6089 H   0  0  0  0  0  0  0  0  0  0  0  0
    5.1976   -5.9118   -1.2087 H   0  0  0  0  0  0  0  0  0  0  0  0
    6.7794   -6.6270    0.7278 H   0  0  0  0  0  0  0  0  0  0  0  0
    6.7487   -4.9247    1.2610 H   0  0  0  0  0  0  0  0  0  0  0  0
    8.7529   -3.8647    2.2114 H   0  0  0  0  0  0  0  0  0  0  0  0
   11.0145   -4.1372    3.2091 H   0  0  0  0  0  0  0  0  0  0  0  0
   11.2427   -8.1328    1.6092 H   0  0  0  0  0  0  0  0  0  0  0  0
    8.9809   -7.8636    0.6082 H   0  0  0  0  0  0  0  0  0  0  0  0
    5.0326   -3.0589    1.8529 H   0  0  0  0  0  0  0  0  0  0  0  0
    3.5417   -3.7817    2.3962 H   0  0  0  0  0  0  0  0  0  0  0  0
  1  2  1  0
  1 24  1  0
  1 25  1  0
  1 26  1  0
  2  3  2  0
  2 20  1  0
  3  4  1  0
  3 27  1  0
  4  5  2  0
  4 28  1  0
  5  6  1  0
  5 29  1  0
  6  7  1  0
  6 20  2  0
  7  8  1  0
  7 30  1  0
  8  9  2  0
  8 10  1  0
 10 11  1  0
 10 31  1  0
 10 32  1  0
 11 12  1  0
 12 13  1  0
 12 33  1  0
 12 34  1  0
 13 14  2  0
 13 19  1  0
 14 15  1  0
 14 35  1  0
 15 16  2  0
 15 36  1  0
 16 17  1  0
 16 18  1  0
 18 19  2  0
 18 37  1  0
 19 38  1  0
 20 21  1  0
 21 22  1  0
 21 23  2  0
 22 39  1  0
 22 40  1  0
M  END

