
     RDKit          3D

 56 57  0  0  0  0  0  0  0  0999 V2000
    3.0939   10.3644    1.8952 C   0  0  0  0  0  0  0  0  0  0  0  0
    3.9478    9.6314    2.9304 C   0  0  0  0  0  0  0  0  0  0  0  0
    4.7379    8.4547    2.3486 C   0  0  0  0  0  0  0  0  0  0  0  0
    5.5926    7.7209    3.3849 C   0  0  0  0  0  0  0  0  0  0  0  0
    6.3722    6.5558    2.7950 C   0  0  0  0  0  0  0  0  0  0  0  0
    7.1248    5.9532    3.8351 O   0  0  0  0  0  0  0  0  0  0  0  0
    7.9043    4.8749    3.5690 C   0  0  0  0  0  0  0  0  0  0  0  0
    8.0450    4.2897    2.3024 C   0  0  0  0  0  0  0  0  0  0  0  0
    8.8804    3.1733    2.1692 C   0  0  0  0  0  0  0  0  0  0  0  0
    9.5732    2.6398    3.2505 C   0  0  0  0  0  0  0  0  0  0  0  0
    9.4230    3.2222    4.5295 C   0  0  0  0  0  0  0  0  0  0  0  0
   10.0974    2.6865    5.6408 N   0  0  0  0  0  0  0  0  0  0  0  0
   10.4697    1.3520    5.6897 C   0  0  0  0  0  0  0  0  0  0  0  0
   11.4036    0.9579    6.6010 C   0  0  0  0  0  0  0  0  0  0  0  0
   11.8179   -0.3425    6.8446 O   0  0  0  0  0  0  0  0  0  0  0  0
   11.5845   -1.3917    6.0242 C   0  0  0  0  0  0  0  0  0  0  0  0
   10.9885   -1.3179    4.9759 O   0  0  0  0  0  0  0  0  0  0  0  0
   12.1300   -2.6745    6.6382 C   0  0  1  0  0  0  0  0  0  0  0  0
   11.1199   -3.1907    7.6823 C   0  0  0  0  0  0  0  0  0  0  0  0
   12.4361   -3.7240    5.5616 C   0  0  0  0  0  0  0  0  0  0  0  0
   13.5915   -3.3595    4.6235 C   0  0  0  0  0  0  0  0  0  0  0  0
   13.8791   -4.4387    3.5787 C   0  0  0  0  0  0  0  0  0  0  0  0
   12.1204    1.8679    7.3468 N   0  0  0  0  0  0  0  0  0  0  0  0
   11.6649    3.0610    7.4314 C   0  0  0  0  0  0  0  0  0  0  0  0
   10.3219    3.4655    6.8533 C   0  0  0  0  0  0  0  0  0  0  0  0
    8.5834    4.3364    4.6749 C   0  0  0  0  0  0  0  0  0  0  0  0
    2.5409   11.2026    2.3480 H   0  0  0  0  0  0  0  0  0  0  0  0
    2.3540    9.6887    1.4340 H   0  0  0  0  0  0  0  0  0  0  0  0
    3.7146   10.7765    1.0819 H   0  0  0  0  0  0  0  0  0  0  0  0
    3.3029    9.2640    3.7492 H   0  0  0  0  0  0  0  0  0  0  0  0
    4.6517   10.3423    3.4000 H   0  0  0  0  0  0  0  0  0  0  0  0
    5.3842    8.8220    1.5294 H   0  0  0  0  0  0  0  0  0  0  0  0
    4.0338    7.7425    1.8788 H   0  0  0  0  0  0  0  0  0  0  0  0
    4.9560    7.3381    4.2013 H   0  0  0  0  0  0  0  0  0  0  0  0
    6.3080    8.4198    3.8518 H   0  0  0  0  0  0  0  0  0  0  0  0
    7.0472    6.9077    1.9912 H   0  0  0  0  0  0  0  0  0  0  0  0
    5.6835    5.8149    2.3451 H   0  0  0  0  0  0  0  0  0  0  0  0
    7.5265    4.6869    1.4308 H   0  0  0  0  0  0  0  0  0  0  0  0
    9.0063    2.7201    1.1824 H   0  0  0  0  0  0  0  0  0  0  0  0
   10.2495    1.7974    3.1037 H   0  0  0  0  0  0  0  0  0  0  0  0
   10.0330    0.6686    4.9681 H   0  0  0  0  0  0  0  0  0  0  0  0
   13.0578   -2.4027    7.1692 H   0  0  0  0  0  0  0  0  0  0  0  0
   10.1637   -3.4568    7.2035 H   0  0  0  0  0  0  0  0  0  0  0  0
   10.9210   -2.4327    8.4546 H   0  0  0  0  0  0  0  0  0  0  0  0
   11.5130   -4.0911    8.1796 H   0  0  0  0  0  0  0  0  0  0  0  0
   11.5215   -3.8958    4.9685 H   0  0  0  0  0  0  0  0  0  0  0  0
   12.6664   -4.6778    6.0685 H   0  0  0  0  0  0  0  0  0  0  0  0
   14.5019   -3.1736    5.2223 H   0  0  0  0  0  0  0  0  0  0  0  0
   13.3591   -2.4101    4.1120 H   0  0  0  0  0  0  0  0  0  0  0  0
   14.1449   -5.3987    4.0529 H   0  0  0  0  0  0  0  0  0  0  0  0
   14.7146   -4.1510    2.9206 H   0  0  0  0  0  0  0  0  0  0  0  0
   12.9991   -4.6197    2.9391 H   0  0  0  0  0  0  0  0  0  0  0  0
   12.2698    3.8223    7.9427 H   0  0  0  0  0  0  0  0  0  0  0  0
   10.3240    4.5364    6.6082 H   0  0  0  0  0  0  0  0  0  0  0  0
    9.5113    3.3011    7.6011 H   0  0  0  0  0  0  0  0  0  0  0  0
    8.4058    4.8035    5.6430 H   0  0  0  0  0  0  0  0  0  0  0  0
  1  2  1  0
  1 27  1  0
  1 28  1  0
  1 29  1  0
  2  3  1  0
  2 30  1  0
  2 31  1  0
  3  4  1  0
  3 32  1  0
  3 33  1  0
  4  5  1  0
  4 34  1  0
  4 35  1  0
  5  6  1  0
  5 36  1  0
  5 37  1  0
  6  7  1  0
  7  8  2  0
  7 26  1  0
  8  9  1  0
  8 38  1  0
  9 10  2  0
  9 39  1  0
 10 11  1  0
 10 40  1  0
 11 12  1  0
 11 26  2  0
 12 13  1  0
 12 25  1  0
 13 14  2  0
 13 41  1  0
 14 15  1  0
 14 23  1  0
 15 16  1  0
 16 17  2  0
 16 18  1  0
 18 19  1  0
 18 20  1  0
 18 42  1  1
 19 43  1  0
 19 44  1  0
 19 45  1  0
 20 21  1  0
 20 46  1  0
 20 47  1  0
 21 22  1  0
 21 48  1  0
 21 49  1  0
 22 50  1  0
 22 51  1  0
 22 52  1  0
 23 24  2  0
 24 25  1  0
 24 53  1  0
 25 54  1  0
 25 55  1  0
 26 56  1  0
M  END

