
     RDKit          3D

 28 29  0  0  0  0  0  0  0  0999 V2000
    1.0963    0.9715    0.7192 C   0  0  0  0  0  0  0  0  0  0  0  0
    2.3564    0.3797    0.1675 C   0  0  0  0  0  0  0  0  0  0  0  0
    2.9825    0.8208   -0.8855 N   0  0  0  0  0  0  0  0  0  0  0  0
    4.1051    0.0870   -1.1530 C   0  0  0  0  0  0  0  0  0  0  0  0
    4.3718   -0.9609   -0.3057 C   0  0  0  0  0  0  0  0  0  0  0  0
    5.5137   -1.9190   -0.3364 C   0  0  0  0  0  0  0  0  0  0  0  0
    6.7888   -1.3904    0.9084 S   0  0  0  0  0  0  0  0  0  0  0  0
    8.3358   -2.1000    0.3877 C   0  0  0  0  0  0  0  0  0  0  0  0
    9.4374   -1.2454    0.5973 C   0  0  0  0  0  0  0  0  0  0  0  0
   10.7338   -1.6595    0.3019 C   0  0  0  0  0  0  0  0  0  0  0  0
   12.1888   -0.4754    0.6183 Br  0  0  0  0  0  0  0  0  0  0  0  0
   10.9776   -2.9229   -0.2451 C   0  0  0  0  0  0  0  0  0  0  0  0
    9.8910   -3.7612   -0.4726 C   0  0  0  0  0  0  0  0  0  0  0  0
    8.5686   -3.3891   -0.1569 C   0  0  0  0  0  0  0  0  0  0  0  0
    7.4956   -4.4328   -0.2939 C   0  0  0  0  0  0  0  0  0  0  0  0
    6.5795   -4.5743    0.4717 O   0  0  0  0  0  0  0  0  0  0  0  0
    7.6324   -5.2758   -1.3465 O   0  0  0  0  0  0  0  0  0  0  0  0
    3.1266   -1.0143    0.9159 S   0  0  0  0  0  0  0  0  0  0  0  0
    0.8140    1.8284    0.0928 H   0  0  0  0  0  0  0  0  0  0  0  0
    1.2302    1.3184    1.7567 H   0  0  0  0  0  0  0  0  0  0  0  0
    0.2696    0.2425    0.7164 H   0  0  0  0  0  0  0  0  0  0  0  0
    4.7301    0.3491   -2.0101 H   0  0  0  0  0  0  0  0  0  0  0  0
    5.9841   -1.9041   -1.3310 H   0  0  0  0  0  0  0  0  0  0  0  0
    5.2021   -2.9442   -0.1033 H   0  0  0  0  0  0  0  0  0  0  0  0
    9.2615   -0.2402    0.9831 H   0  0  0  0  0  0  0  0  0  0  0  0
   11.9929   -3.2456   -0.4780 H   0  0  0  0  0  0  0  0  0  0  0  0
   10.0857   -4.7648   -0.8607 H   0  0  0  0  0  0  0  0  0  0  0  0
    8.3234   -4.9572   -1.9447 H   0  0  0  0  0  0  0  0  0  0  0  0
  1  2  1  0
  1 19  1  0
  1 20  1  0
  1 21  1  0
  2  3  2  0
  2 18  1  0
  3  4  1  0
  4  5  2  0
  4 22  1  0
  5  6  1  0
  5 18  1  0
  6  7  1  0
  6 23  1  0
  6 24  1  0
  7  8  2  0
  8  9  1  0
  8 14  1  0
  9 10  2  0
  9 25  1  0
 10 11  1  0
 10 12  1  0
 12 13  2  0
 12 26  1  0
 13 14  1  0
 13 27  1  0
 14 15  2  0
 15 16  1  0
 15 17  1  0
 17 28  1  0
M  CHG  2   7   1  16  -1
M  END

