
     RDKit          3D

 42 43  0  0  0  0  0  0  0  0999 V2000
    2.2340    3.5111    0.6736 C   0  0  0  0  0  0  0  0  0  0  0  0
    2.6488    2.2228    1.2198 N   0  0  0  0  0  0  0  0  0  0  0  0
    3.2376    1.0519    0.1561 S   0  0  1  0  0  0  0  0  0  0  0  0
    3.0150   -0.2215    0.8442 O   0  0  0  0  0  0  0  0  0  0  0  0
    2.7313    1.2965   -1.1991 O   0  0  0  0  0  0  0  0  0  0  0  0
    5.0007    1.3883    0.1309 C   0  0  0  0  0  0  0  0  0  0  0  0
    5.7777    1.0491    1.2422 C   0  0  0  0  0  0  0  0  0  0  0  0
    7.1472    1.2972    1.2083 C   0  0  0  0  0  0  0  0  0  0  0  0
    7.7623    1.8734    0.0756 C   0  0  0  0  0  0  0  0  0  0  0  0
    9.2102    2.1043    0.1095 C   0  0  0  0  0  0  0  0  0  0  0  0
    9.9862    2.6181   -0.8647 C   0  0  0  0  0  0  0  0  0  0  0  0
   11.4556    2.7627   -0.6214 C   0  0  0  0  0  0  0  0  0  0  0  0
   11.9473    2.4068    0.4446 O   0  0  0  0  0  0  0  0  0  0  0  0
   12.2387    3.3098   -1.6190 N   0  0  0  0  0  0  0  0  0  0  0  0
   11.8082    3.6776   -2.9650 C   0  0  0  0  0  0  0  0  0  0  0  0
   12.4702    4.9884   -3.3962 C   0  0  0  0  0  0  0  0  0  0  0  0
   13.8700    4.9360   -3.2513 O   0  0  0  0  0  0  0  0  0  0  0  0
   14.2307    4.6987   -1.9031 C   0  0  0  0  0  0  0  0  0  0  0  0
   13.6974    3.3550   -1.3940 C   0  0  2  0  0  0  0  0  0  0  0  0
   14.4119    2.1527   -2.0240 C   0  0  0  0  0  0  0  0  0  0  0  0
    6.9505    2.1921   -1.0322 C   0  0  0  0  0  0  0  0  0  0  0  0
    5.5786    1.9509   -1.0113 C   0  0  0  0  0  0  0  0  0  0  0  0
    1.8924    4.1429    1.5067 H   0  0  0  0  0  0  0  0  0  0  0  0
    1.4317    3.4345   -0.0798 H   0  0  0  0  0  0  0  0  0  0  0  0
    3.0969    4.0136    0.2107 H   0  0  0  0  0  0  0  0  0  0  0  0
    1.9672    1.7613    1.8228 H   0  0  0  0  0  0  0  0  0  0  0  0
    5.3109    0.5903    2.1156 H   0  0  0  0  0  0  0  0  0  0  0  0
    7.7645    1.0362    2.0716 H   0  0  0  0  0  0  0  0  0  0  0  0
    9.7263    1.8253    1.0341 H   0  0  0  0  0  0  0  0  0  0  0  0
    9.5516    2.9112   -1.8199 H   0  0  0  0  0  0  0  0  0  0  0  0
   10.7208    3.8076   -3.0036 H   0  0  0  0  0  0  0  0  0  0  0  0
   12.0722    2.8825   -3.6876 H   0  0  0  0  0  0  0  0  0  0  0  0
   12.0521    5.8231   -2.7948 H   0  0  0  0  0  0  0  0  0  0  0  0
   12.2567    5.1864   -4.4579 H   0  0  0  0  0  0  0  0  0  0  0  0
   13.8444    5.5150   -1.2594 H   0  0  0  0  0  0  0  0  0  0  0  0
   15.3299    4.7148   -1.8575 H   0  0  0  0  0  0  0  0  0  0  0  0
   13.8319    3.3129   -0.3051 H   0  0  0  0  0  0  0  0  0  0  0  0
   14.3505    2.1698   -3.1229 H   0  0  0  0  0  0  0  0  0  0  0  0
   13.9773    1.2116   -1.6556 H   0  0  0  0  0  0  0  0  0  0  0  0
   15.4793    2.1622   -1.7515 H   0  0  0  0  0  0  0  0  0  0  0  0
    7.3942    2.6318   -1.9277 H   0  0  0  0  0  0  0  0  0  0  0  0
    4.9483    2.1819   -1.8715 H   0  0  0  0  0  0  0  0  0  0  0  0
  1  2  1  0
  1 23  1  0
  1 24  1  0
  1 25  1  0
  3  2  1  1
  2 26  1  0
  3  4  2  0
  3  5  2  0
  3  6  1  0
  6  7  2  0
  6 22  1  0
  7  8  1  0
  7 27  1  0
  8  9  2  0
  8 28  1  0
  9 10  1  0
  9 21  1  0
 10 11  2  0
 10 29  1  0
 11 12  1  0
 11 30  1  0
 12 13  2  0
 12 14  1  0
 14 15  1  0
 14 19  1  0
 15 16  1  0
 15 31  1  0
 15 32  1  0
 16 17  1  0
 16 33  1  0
 16 34  1  0
 17 18  1  0
 18 19  1  0
 18 35  1  0
 18 36  1  0
 19 20  1  0
 19 37  1  1
 20 38  1  0
 20 39  1  0
 20 40  1  0
 21 22  2  0
 21 41  1  0
 22 42  1  0
M  END

