
     RDKit          3D

 41 42  0  0  0  0  0  0  0  0999 V2000
    0.8682   -0.4183   -1.7481 C   0  0  0  0  0  0  0  0  0  0  0  0
    2.2591   -0.1094   -1.7784 O   0  0  0  0  0  0  0  0  0  0  0  0
    2.8298    0.1834   -0.5913 C   0  0  0  0  0  0  0  0  0  0  0  0
    2.2117    0.1880    0.4500 O   0  0  0  0  0  0  0  0  0  0  0  0
    4.2804    0.4932   -0.7144 C   0  0  0  0  0  0  0  0  0  0  0  0
    4.9639    0.4776   -1.9401 C   0  0  0  0  0  0  0  0  0  0  0  0
    6.3236    0.7738   -2.0149 C   0  0  0  0  0  0  0  0  0  0  0  0
    7.0314    1.0954   -0.8405 C   0  0  0  0  0  0  0  0  0  0  0  0
    8.4000    1.4054   -0.8250 N   0  0  0  0  0  0  0  0  0  0  0  0
    9.3021    1.4547   -1.8727 C   0  0  0  0  0  0  0  0  0  0  0  0
    9.0017    1.2365   -3.0328 O   0  0  0  0  0  0  0  0  0  0  0  0
   10.7333    1.7605   -1.4480 C   0  0  0  0  0  0  0  0  0  0  0  0
   11.5611    0.4905   -1.1523 C   0  0  0  0  0  0  0  0  0  0  0  0
   11.6929   -0.4941   -2.3179 C   0  0  1  0  0  0  0  0  0  0  0  0
   12.3329    0.0850   -3.6015 C   0  0  0  0  0  0  0  0  0  0  0  0
   12.9791   -1.1221   -4.3392 C   0  0  0  0  0  0  0  0  0  0  0  0
   12.8066   -2.3393   -3.3954 C   0  0  0  0  0  0  0  0  0  0  0  0
   12.5653   -1.7233   -2.0104 C   0  0  0  0  0  0  0  0  0  0  0  0
    6.3462    1.1124    0.3920 C   0  0  0  0  0  0  0  0  0  0  0  0
    4.9913    0.8155    0.4530 C   0  0  0  0  0  0  0  0  0  0  0  0
    0.5775   -0.6269   -2.7854 H   0  0  0  0  0  0  0  0  0  0  0  0
    0.2861    0.4278   -1.3518 H   0  0  0  0  0  0  0  0  0  0  0  0
    0.6743   -1.2969   -1.1138 H   0  0  0  0  0  0  0  0  0  0  0  0
    4.4182    0.2290   -2.8513 H   0  0  0  0  0  0  0  0  0  0  0  0
    6.8499    0.7628   -2.9660 H   0  0  0  0  0  0  0  0  0  0  0  0
    8.7762    1.6208    0.0909 H   0  0  0  0  0  0  0  0  0  0  0  0
   10.7422    2.4164   -0.5608 H   0  0  0  0  0  0  0  0  0  0  0  0
   11.1897    2.3231   -2.2750 H   0  0  0  0  0  0  0  0  0  0  0  0
   11.1242   -0.0325   -0.2824 H   0  0  0  0  0  0  0  0  0  0  0  0
   12.5700    0.8137   -0.8383 H   0  0  0  0  0  0  0  0  0  0  0  0
   10.6847   -0.8608   -2.5821 H   0  0  0  0  0  0  0  0  0  0  0  0
   13.1079    0.8228   -3.3274 H   0  0  0  0  0  0  0  0  0  0  0  0
   11.5894    0.6138   -4.2153 H   0  0  0  0  0  0  0  0  0  0  0  0
   14.0458   -0.9284   -4.5349 H   0  0  0  0  0  0  0  0  0  0  0  0
   12.5128   -1.3041   -5.3197 H   0  0  0  0  0  0  0  0  0  0  0  0
   13.6656   -3.0279   -3.4202 H   0  0  0  0  0  0  0  0  0  0  0  0
   11.9195   -2.9245   -3.6911 H   0  0  0  0  0  0  0  0  0  0  0  0
   13.5231   -1.3959   -1.5640 H   0  0  0  0  0  0  0  0  0  0  0  0
   12.0959   -2.4212   -1.2975 H   0  0  0  0  0  0  0  0  0  0  0  0
    6.8890    1.3616    1.3090 H   0  0  0  0  0  0  0  0  0  0  0  0
    4.4573    0.8272    1.4050 H   0  0  0  0  0  0  0  0  0  0  0  0
  1  2  1  0
  1 21  1  0
  1 22  1  0
  1 23  1  0
  2  3  1  0
  3  4  2  0
  3  5  1  0
  5  6  2  0
  5 20  1  0
  6  7  1  0
  6 24  1  0
  7  8  2  0
  7 25  1  0
  8  9  1  0
  8 19  1  0
  9 10  1  0
  9 26  1  0
 10 11  2  0
 10 12  1  0
 12 13  1  0
 12 27  1  0
 12 28  1  0
 13 14  1  0
 13 29  1  0
 13 30  1  0
 14 15  1  0
 14 18  1  0
 14 31  1  6
 15 16  1  0
 15 32  1  0
 15 33  1  0
 16 17  1  0
 16 34  1  0
 16 35  1  0
 17 18  1  0
 17 36  1  0
 17 37  1  0
 18 38  1  0
 18 39  1  0
 19 20  2  0
 19 40  1  0
 20 41  1  0
M  END

