
     RDKit          3D

 69 70  0  0  0  0  0  0  0  0999 V2000
    0.7374    0.4097    1.5787 C   0  0  0  0  0  0  0  0  0  0  0  0
    2.2474    0.3600    1.3410 C   0  0  0  0  0  0  0  0  0  0  0  0
    2.8214    1.6582    0.7649 C   0  0  0  0  0  0  0  0  0  0  0  0
    4.3332    1.6170    0.5238 C   0  0  0  0  0  0  0  0  0  0  0  0
    4.9063    2.9147   -0.0535 C   0  0  0  0  0  0  0  0  0  0  0  0
    6.4182    2.8734   -0.2944 C   0  0  0  0  0  0  0  0  0  0  0  0
    6.9906    4.1703   -0.8743 C   0  0  0  0  0  0  0  0  0  0  0  0
    8.5026    4.1293   -1.1151 C   0  0  0  0  0  0  0  0  0  0  0  0
    9.0739    5.4248   -1.6989 C   0  0  0  0  0  0  0  0  0  0  0  0
   10.5860    5.3840   -1.9393 C   0  0  0  0  0  0  0  0  0  0  0  0
   11.1562    6.6779   -2.5278 C   0  0  0  0  0  0  0  0  0  0  0  0
   12.6696    6.6372   -2.7641 C   0  0  0  0  0  0  0  0  0  0  0  0
   13.2247    7.9317   -3.3684 C   0  0  0  0  0  0  0  0  0  0  0  0
   14.7589    7.9720   -3.4955 C   0  0  1  0  0  0  0  0  0  0  0  0
   15.3487    6.8623   -4.4106 C   0  0  0  0  0  0  0  0  0  0  0  0
   14.8736    6.8611   -5.8669 C   0  0  0  0  0  0  0  0  0  0  0  0
   15.5727    5.7954   -6.7143 C   0  0  0  0  0  0  0  0  0  0  0  0
   15.2882    9.3408   -3.8866 C   0  0  0  0  0  0  0  0  0  0  0  0
   14.5835   10.3003   -4.5472 C   0  0  0  0  0  0  0  0  0  0  0  0
   15.1607   11.5731   -4.8950 C   0  0  0  0  0  0  0  0  0  0  0  0
   14.4811   12.5975   -5.5823 C   0  0  0  0  0  0  0  0  0  0  0  0
   15.1087   13.7988   -5.8838 C   0  0  0  0  0  0  0  0  0  0  0  0
   16.4499   14.0072   -5.4987 C   0  0  0  0  0  0  0  0  0  0  0  0
   17.1073   15.1588   -5.7676 O   0  0  0  0  0  0  0  0  0  0  0  0
   17.1494   13.0082   -4.8142 C   0  0  0  0  0  0  0  0  0  0  0  0
   16.5017   11.8085   -4.5211 C   0  0  0  0  0  0  0  0  0  0  0  0
   17.2029   10.8587   -3.8548 O   0  0  0  0  0  0  0  0  0  0  0  0
   16.6856    9.6193   -3.5013 C   0  0  0  0  0  0  0  0  0  0  0  0
   17.4128    8.8663   -2.9047 O   0  0  0  0  0  0  0  0  0  0  0  0
    0.3599   -0.5391    1.9926 H   0  0  0  0  0  0  0  0  0  0  0  0
    0.1899    0.6045    0.6411 H   0  0  0  0  0  0  0  0  0  0  0  0
    0.4692    1.2115    2.2874 H   0  0  0  0  0  0  0  0  0  0  0  0
    2.4860   -0.4761    0.6583 H   0  0  0  0  0  0  0  0  0  0  0  0
    2.7628    0.1257    2.2904 H   0  0  0  0  0  0  0  0  0  0  0  0
    2.5833    2.4957    1.4475 H   0  0  0  0  0  0  0  0  0  0  0  0
    2.3064    1.8934   -0.1855 H   0  0  0  0  0  0  0  0  0  0  0  0
    4.5708    0.7789   -0.1578 H   0  0  0  0  0  0  0  0  0  0  0  0
    4.8477    1.3825    1.4745 H   0  0  0  0  0  0  0  0  0  0  0  0
    4.6686    3.7531    0.6278 H   0  0  0  0  0  0  0  0  0  0  0  0
    4.3920    3.1491   -1.0043 H   0  0  0  0  0  0  0  0  0  0  0  0
    6.6562    2.0340   -0.9743 H   0  0  0  0  0  0  0  0  0  0  0  0
    6.9328    2.6409    0.6566 H   0  0  0  0  0  0  0  0  0  0  0  0
    6.7523    5.0099   -0.1949 H   0  0  0  0  0  0  0  0  0  0  0  0
    6.4762    4.4022   -1.8257 H   0  0  0  0  0  0  0  0  0  0  0  0
    8.7412    3.2881   -1.7925 H   0  0  0  0  0  0  0  0  0  0  0  0
    9.0174    3.9001   -0.1634 H   0  0  0  0  0  0  0  0  0  0  0  0
    8.8350    6.2664   -1.0221 H   0  0  0  0  0  0  0  0  0  0  0  0
    8.5595    5.6533   -2.6512 H   0  0  0  0  0  0  0  0  0  0  0  0
   10.8254    4.5405   -2.6134 H   0  0  0  0  0  0  0  0  0  0  0  0
   11.1009    5.1591   -0.9867 H   0  0  0  0  0  0  0  0  0  0  0  0
   10.9138    7.5223   -1.8559 H   0  0  0  0  0  0  0  0  0  0  0  0
   10.6437    6.9003   -3.4826 H   0  0  0  0  0  0  0  0  0  0  0  0
   12.9054    5.7812   -3.4203 H   0  0  0  0  0  0  0  0  0  0  0  0
   13.1834    6.4325   -1.8067 H   0  0  0  0  0  0  0  0  0  0  0  0
   12.9070    8.7804   -2.7370 H   0  0  0  0  0  0  0  0  0  0  0  0
   12.7488    8.0955   -4.3517 H   0  0  0  0  0  0  0  0  0  0  0  0
   15.1791    7.7734   -2.4945 H   0  0  0  0  0  0  0  0  0  0  0  0
   15.1250    5.8817   -3.9560 H   0  0  0  0  0  0  0  0  0  0  0  0
   16.4465    6.9533   -4.3819 H   0  0  0  0  0  0  0  0  0  0  0  0
   15.0477    7.8553   -6.3155 H   0  0  0  0  0  0  0  0  0  0  0  0
   13.7822    6.6968   -5.9102 H   0  0  0  0  0  0  0  0  0  0  0  0
   16.6640    5.9523   -6.7327 H   0  0  0  0  0  0  0  0  0  0  0  0
   15.2159    5.8077   -7.7568 H   0  0  0  0  0  0  0  0  0  0  0  0
   15.3943    4.7832   -6.3137 H   0  0  0  0  0  0  0  0  0  0  0  0
   13.5444   10.1200   -4.8337 H   0  0  0  0  0  0  0  0  0  0  0  0
   13.4420   12.4369   -5.8814 H   0  0  0  0  0  0  0  0  0  0  0  0
   14.5688   14.5857   -6.4187 H   0  0  0  0  0  0  0  0  0  0  0  0
   16.5225   15.7669   -6.2389 H   0  0  0  0  0  0  0  0  0  0  0  0
   18.1855   13.1630   -4.5129 H   0  0  0  0  0  0  0  0  0  0  0  0
  1  2  1  0
  1 30  1  0
  1 31  1  0
  1 32  1  0
  2  3  1  0
  2 33  1  0
  2 34  1  0
  3  4  1  0
  3 35  1  0
  3 36  1  0
  4  5  1  0
  4 37  1  0
  4 38  1  0
  5  6  1  0
  5 39  1  0
  5 40  1  0
  6  7  1  0
  6 41  1  0
  6 42  1  0
  7  8  1  0
  7 43  1  0
  7 44  1  0
  8  9  1  0
  8 45  1  0
  8 46  1  0
  9 10  1  0
  9 47  1  0
  9 48  1  0
 10 11  1  0
 10 49  1  0
 10 50  1  0
 11 12  1  0
 11 51  1  0
 11 52  1  0
 12 13  1  0
 12 53  1  0
 12 54  1  0
 13 14  1  0
 13 55  1  0
 13 56  1  0
 14 15  1  0
 14 18  1  0
 14 57  1  1
 15 16  1  0
 15 58  1  0
 15 59  1  0
 16 17  1  0
 16 60  1  0
 16 61  1  0
 17 62  1  0
 17 63  1  0
 17 64  1  0
 18 19  2  0
 18 28  1  0
 19 20  1  0
 19 65  1  0
 20 21  2  0
 20 26  1  0
 21 22  1  0
 21 66  1  0
 22 23  2  0
 22 67  1  0
 23 24  1  0
 23 25  1  0
 24 68  1  0
 25 26  2  0
 25 69  1  0
 26 27  1  0
 27 28  1  0
 28 29  2  0
M  END

