
     RDKit          3D

 38 39  0  0  0  0  0  0  0  0999 V2000
    7.4319    0.1008   -4.5836 C   0  0  0  0  0  0  0  0  0  0  0  0
    6.7899    0.2573   -3.2508 C   0  0  0  0  0  0  0  0  0  0  0  0
    6.6499    1.3043   -2.3875 C   0  0  0  0  0  0  0  0  0  0  0  0
    5.9345    0.8040   -1.2350 C   0  0  0  0  0  0  0  0  0  0  0  0
    5.5934    1.4763    0.0534 C   0  0  0  0  0  0  0  0  0  0  0  0
    5.6847    0.8673    1.1148 O   0  0  0  0  0  0  0  0  0  0  0  0
    5.2036    2.8004    0.0189 N   0  0  0  0  0  0  0  0  0  0  0  0
    5.0101    3.5037    1.2818 C   0  0  0  0  0  0  0  0  0  0  0  0
    5.7113    4.8645    1.2357 C   0  0  0  0  0  0  0  0  0  0  0  0
    5.2487    5.7206    0.0261 C   0  0  2  0  0  0  0  0  0  0  0  0
    3.8475    6.2735    0.3030 C   0  0  0  0  0  0  0  0  0  0  0  0
    2.8164    5.7840   -0.0756 O   0  0  0  0  0  0  0  0  0  0  0  0
    3.8152    7.3768    1.0890 O   0  0  0  0  0  0  0  0  0  0  0  0
    5.3598    4.9015   -1.2845 C   0  0  2  0  0  0  0  0  0  0  0  0
    4.8570    5.6543   -2.5192 C   0  0  0  0  0  0  0  0  0  0  0  0
    4.6892    3.5224   -1.1414 C   0  0  0  0  0  0  0  0  0  0  0  0
    5.7027   -0.5292   -1.4886 C   0  0  0  0  0  0  0  0  0  0  0  0
    5.0402   -1.6157   -0.7209 C   0  0  0  0  0  0  0  0  0  0  0  0
    6.2039   -0.8524   -2.7100 O   0  0  0  0  0  0  0  0  0  0  0  0
    7.8627    1.0574   -4.9101 H   0  0  0  0  0  0  0  0  0  0  0  0
    6.7044   -0.2285   -5.3447 H   0  0  0  0  0  0  0  0  0  0  0  0
    8.2390   -0.6509   -4.5562 H   0  0  0  0  0  0  0  0  0  0  0  0
    7.0464    2.3059   -2.5368 H   0  0  0  0  0  0  0  0  0  0  0  0
    5.4147    2.8734    2.0828 H   0  0  0  0  0  0  0  0  0  0  0  0
    3.9295    3.6354    1.4779 H   0  0  0  0  0  0  0  0  0  0  0  0
    6.7987    4.7040    1.1509 H   0  0  0  0  0  0  0  0  0  0  0  0
    5.5365    5.4039    2.1818 H   0  0  0  0  0  0  0  0  0  0  0  0
    5.9280    6.5887   -0.0616 H   0  0  0  0  0  0  0  0  0  0  0  0
    4.7128    7.6720    1.2974 H   0  0  0  0  0  0  0  0  0  0  0  0
    6.4418    4.7132   -1.4137 H   0  0  0  0  0  0  0  0  0  0  0  0
    3.7717    5.8266   -2.4706 H   0  0  0  0  0  0  0  0  0  0  0  0
    5.0687    5.0820   -3.4367 H   0  0  0  0  0  0  0  0  0  0  0  0
    5.3546    6.6331   -2.6189 H   0  0  0  0  0  0  0  0  0  0  0  0
    4.8497    2.9304   -2.0488 H   0  0  0  0  0  0  0  0  0  0  0  0
    3.6008    3.6655   -1.0274 H   0  0  0  0  0  0  0  0  0  0  0  0
    4.7372   -1.2375    0.2623 H   0  0  0  0  0  0  0  0  0  0  0  0
    5.7340   -2.4591   -0.5677 H   0  0  0  0  0  0  0  0  0  0  0  0
    4.1604   -2.0076   -1.2591 H   0  0  0  0  0  0  0  0  0  0  0  0
  1  2  1  0
  1 20  1  0
  1 21  1  0
  1 22  1  0
  2  3  2  0
  2 19  1  0
  3  4  1  0
  3 23  1  0
  4  5  1  0
  4 17  2  0
  5  6  2  0
  5  7  1  0
  7  8  1  0
  7 16  1  0
  8  9  1  0
  8 24  1  0
  8 25  1  0
  9 10  1  0
  9 26  1  0
  9 27  1  0
 10 11  1  0
 10 14  1  0
 10 28  1  6
 11 12  2  0
 11 13  1  0
 13 29  1  0
 14 15  1  0
 14 16  1  0
 14 30  1  6
 15 31  1  0
 15 32  1  0
 15 33  1  0
 16 34  1  0
 16 35  1  0
 17 18  1  0
 17 19  1  0
 18 36  1  0
 18 37  1  0
 18 38  1  0
M  END

