
     RDKit          3D

 38 38  0  0  0  0  0  0  0  0999 V2000
    1.1321   -0.5295    4.5905 C   0  0  0  0  0  0  0  0  0  0  0  0
    2.6324   -0.5912    4.7467 C   0  0  0  0  0  0  0  0  0  0  0  0
    3.1377   -0.1302    6.0915 C   0  0  0  0  0  0  0  0  0  0  0  0
    3.4089   -1.0414    3.7439 C   0  0  0  0  0  0  0  0  0  0  0  0
    4.9049   -1.1880    3.7054 C   0  0  0  0  0  0  0  0  0  0  0  0
    5.4467   -0.5589    2.5044 N   0  0  0  0  0  0  0  0  0  0  0  0
    6.9036   -0.5925    2.3656 C   0  0  1  0  0  0  0  0  0  0  0  0
    7.3631   -2.0160    1.9816 C   0  0  0  0  0  0  0  0  0  0  0  0
    6.9514   -2.3803    0.5543 C   0  0  0  0  0  0  0  0  0  0  0  0
    7.4736   -1.3823   -0.3731 N   0  0  0  0  0  0  0  0  0  0  0  0
    6.9610   -0.0452   -0.1050 C   0  0  0  0  0  0  0  0  0  0  0  0
    7.3957    0.4439    1.2975 C   0  0  1  0  0  0  0  0  0  0  0  0
    6.8071    1.8431    1.5546 C   0  0  0  0  0  0  0  0  0  0  0  0
    8.9317    0.5585    1.3585 C   0  0  0  0  0  0  0  0  0  0  0  0
    0.7609    0.5011    4.7357 H   0  0  0  0  0  0  0  0  0  0  0  0
    0.6279   -1.1495    5.3538 H   0  0  0  0  0  0  0  0  0  0  0  0
    0.8052   -0.8758    3.5990 H   0  0  0  0  0  0  0  0  0  0  0  0
    2.7575    0.8804    6.3237 H   0  0  0  0  0  0  0  0  0  0  0  0
    4.2333   -0.1077    6.1626 H   0  0  0  0  0  0  0  0  0  0  0  0
    2.7635   -0.7914    6.8938 H   0  0  0  0  0  0  0  0  0  0  0  0
    2.9181   -1.3475    2.8118 H   0  0  0  0  0  0  0  0  0  0  0  0
    5.1469   -2.2664    3.6771 H   0  0  0  0  0  0  0  0  0  0  0  0
    5.3746   -0.8025    4.6362 H   0  0  0  0  0  0  0  0  0  0  0  0
    5.1165    0.4018    2.4775 H   0  0  0  0  0  0  0  0  0  0  0  0
    7.3946   -0.3220    3.3299 H   0  0  0  0  0  0  0  0  0  0  0  0
    6.9456   -2.7499    2.6890 H   0  0  0  0  0  0  0  0  0  0  0  0
    8.4577   -2.0843    2.0773 H   0  0  0  0  0  0  0  0  0  0  0  0
    5.8437   -2.4645    0.5139 H   0  0  0  0  0  0  0  0  0  0  0  0
    7.3667   -3.3659    0.2859 H   0  0  0  0  0  0  0  0  0  0  0  0
    7.2807   -1.6495   -1.3358 H   0  0  0  0  0  0  0  0  0  0  0  0
    5.8515    0.0063   -0.1602 H   0  0  0  0  0  0  0  0  0  0  0  0
    7.3591    0.6458   -0.8680 H   0  0  0  0  0  0  0  0  0  0  0  0
    5.7190    1.8907    1.3867 H   0  0  0  0  0  0  0  0  0  0  0  0
    7.2609    2.5781    0.8702 H   0  0  0  0  0  0  0  0  0  0  0  0
    7.0132    2.1806    2.5842 H   0  0  0  0  0  0  0  0  0  0  0  0
    9.4212   -0.3741    1.0501 H   0  0  0  0  0  0  0  0  0  0  0  0
    9.2716    0.8208    2.3740 H   0  0  0  0  0  0  0  0  0  0  0  0
    9.2799    1.3503    0.6752 H   0  0  0  0  0  0  0  0  0  0  0  0
  1  2  1  0
  1 15  1  0
  1 16  1  0
  1 17  1  0
  2  3  1  0
  2  4  2  0
  3 18  1  0
  3 19  1  0
  3 20  1  0
  4  5  1  0
  4 21  1  0
  5  6  1  0
  5 22  1  0
  5 23  1  0
  6  7  1  0
  6 24  1  0
  7  8  1  0
  7 12  1  0
  7 25  1  1
  8  9  1  0
  8 26  1  0
  8 27  1  0
  9 10  1  0
  9 28  1  0
  9 29  1  0
 10 11  1  0
 10 30  1  0
 11 12  1  0
 11 31  1  0
 11 32  1  0
 12 13  1  1
 12 14  1  0
 13 33  1  0
 13 34  1  0
 13 35  1  0
 14 36  1  0
 14 37  1  0
 14 38  1  0
M  END

