
     RDKit          3D

 29 31  0  0  0  0  0  0  0  0999 V2000
    2.6349   -0.9436   -0.4491 O   0  0  0  0  0  0  0  0  0  0  0  0
    2.1436    0.1113   -0.1422 C   0  0  0  0  0  0  0  0  0  0  0  0
    0.8047    0.2794   -0.2094 O   0  0  0  0  0  0  0  0  0  0  0  0
    2.9304    1.3133    0.3151 C   0  0  0  0  0  0  0  0  0  0  0  0
    2.4730    2.5903    0.0187 C   0  0  0  0  0  0  0  0  0  0  0  0
    3.1975    3.7431    0.4012 C   0  0  0  0  0  0  0  0  0  0  0  0
    4.3814    3.6192    1.0931 C   0  0  0  0  0  0  0  0  0  0  0  0
    4.8938    2.3316    1.4147 C   0  0  0  0  0  0  0  0  0  0  0  0
    6.0663    2.2648    2.0962 N   0  0  0  0  0  0  0  0  0  0  0  0
    6.5663    1.0934    2.3950 C   0  0  0  0  0  0  0  0  0  0  0  0
    7.7954    1.1047    3.1074 N   0  0  0  0  0  0  0  0  0  0  0  0
    8.4798    2.2456    3.5063 C   0  0  0  0  0  0  0  0  0  0  0  0
    9.5793    1.9577    4.1486 N   0  0  0  0  0  0  0  0  0  0  0  0
    9.6218    0.5979    4.1713 C   0  0  0  0  0  0  0  0  0  0  0  0
   10.6977   -0.1496    4.7980 N   0  0  0  0  0  0  0  0  0  0  0  0
   10.6041   -1.3716    4.7415 O   0  0  0  0  0  0  0  0  0  0  0  0
   11.5990    0.4735    5.3229 O   0  0  0  0  0  0  0  0  0  0  0  0
    8.5404    0.0294    3.5405 C   0  0  0  0  0  0  0  0  0  0  0  0
    5.9480   -0.1378    2.0425 C   0  0  0  0  0  0  0  0  0  0  0  0
    4.7583   -0.0963    1.3546 C   0  0  0  0  0  0  0  0  0  0  0  0
    4.1745    1.1574    1.0126 C   0  0  0  0  0  0  0  0  0  0  0  0
    0.5458    1.1175    0.1994 H   0  0  0  0  0  0  0  0  0  0  0  0
    1.5504    2.7211   -0.5533 H   0  0  0  0  0  0  0  0  0  0  0  0
    2.8116    4.7308    0.1393 H   0  0  0  0  0  0  0  0  0  0  0  0
    4.9616    4.4885    1.4073 H   0  0  0  0  0  0  0  0  0  0  0  0
    8.0909    3.2351    3.2802 H   0  0  0  0  0  0  0  0  0  0  0  0
    8.2817   -1.0112    3.3867 H   0  0  0  0  0  0  0  0  0  0  0  0
    6.3975   -1.0951    2.3036 H   0  0  0  0  0  0  0  0  0  0  0  0
    4.2633   -1.0173    1.0500 H   0  0  0  0  0  0  0  0  0  0  0  0
  1  2  2  0
  2  3  1  0
  2  4  1  0
  3 22  1  0
  4  5  2  0
  4 21  1  0
  5  6  1  0
  5 23  1  0
  6  7  2  0
  6 24  1  0
  7  8  1  0
  7 25  1  0
  8  9  1  0
  8 21  2  0
  9 10  2  0
 10 11  1  0
 10 19  1  0
 11 12  1  0
 11 18  1  0
 12 13  2  0
 12 26  1  0
 13 14  1  0
 14 15  1  0
 14 18  2  0
 15 16  2  0
 15 17  1  0
 18 27  1  0
 19 20  2  0
 19 28  1  0
 20 21  1  0
 20 29  1  0
M  CHG  2  15   1  17  -1
M  END

