
     RDKit          3D

 36 36  0  0  0  0  0  0  0  0999 V2000
    1.8981   -0.0329   -0.3497 C   0  0  0  0  0  0  0  0  0  0  0  0
    3.2045    0.5225   -0.5034 O   0  0  0  0  0  0  0  0  0  0  0  0
    3.3263    1.5272   -1.3917 C   0  0  0  0  0  0  0  0  0  0  0  0
    2.4034    1.9541   -2.0416 O   0  0  0  0  0  0  0  0  0  0  0  0
    4.7526    2.0333   -1.4483 C   0  0  0  0  0  0  0  0  0  0  0  0
    4.9614    3.1070   -2.5131 C   0  0  0  0  0  0  0  0  0  0  0  0
    6.3716    3.6734   -2.5465 C   0  0  0  0  0  0  0  0  0  0  0  0
    7.2807    2.6360   -2.8838 O   0  0  0  0  0  0  0  0  0  0  0  0
    8.6162    2.9135   -3.0041 C   0  0  0  0  0  0  0  0  0  0  0  0
    9.1568    4.1828   -2.7570 C   0  0  0  0  0  0  0  0  0  0  0  0
   10.5317    4.4114   -2.8879 C   0  0  0  0  0  0  0  0  0  0  0  0
   11.3504    3.3597   -3.2696 C   0  0  0  0  0  0  0  0  0  0  0  0
   12.6734    3.5585   -3.4023 F   0  0  0  0  0  0  0  0  0  0  0  0
   10.8253    2.0935   -3.5245 C   0  0  0  0  0  0  0  0  0  0  0  0
    9.4563    1.8431   -3.4000 C   0  0  0  0  0  0  0  0  0  0  0  0
    8.9209    0.4393   -3.6664 C   0  0  1  0  0  0  0  0  0  0  0  0
    8.4863   -0.2600   -2.3613 C   0  0  0  0  0  0  0  0  0  0  0  0
    7.9033    0.4634   -4.7197 N   0  0  0  0  0  0  0  0  0  0  0  0
    1.9882   -0.8240    0.4049 H   0  0  0  0  0  0  0  0  0  0  0  0
    1.5357   -0.4525   -1.3005 H   0  0  0  0  0  0  0  0  0  0  0  0
    1.1825    0.7335   -0.0148 H   0  0  0  0  0  0  0  0  0  0  0  0
    5.4149    1.1680   -1.6107 H   0  0  0  0  0  0  0  0  0  0  0  0
    5.0106    2.4105   -0.4424 H   0  0  0  0  0  0  0  0  0  0  0  0
    4.2612    3.9396   -2.3384 H   0  0  0  0  0  0  0  0  0  0  0  0
    4.7053    2.7037   -3.5063 H   0  0  0  0  0  0  0  0  0  0  0  0
    6.6401    4.1028   -1.5619 H   0  0  0  0  0  0  0  0  0  0  0  0
    6.4346    4.4863   -3.2930 H   0  0  0  0  0  0  0  0  0  0  0  0
    8.5164    5.0116   -2.4579 H   0  0  0  0  0  0  0  0  0  0  0  0
   10.9629    5.3959   -2.6975 H   0  0  0  0  0  0  0  0  0  0  0  0
   11.5061    1.2965   -3.8320 H   0  0  0  0  0  0  0  0  0  0  0  0
    9.7708   -0.1360   -4.0715 H   0  0  0  0  0  0  0  0  0  0  0  0
    7.6537    0.2784   -1.8842 H   0  0  0  0  0  0  0  0  0  0  0  0
    9.3156   -0.3187   -1.6375 H   0  0  0  0  0  0  0  0  0  0  0  0
    8.1531   -1.2892   -2.5772 H   0  0  0  0  0  0  0  0  0  0  0  0
    7.0874    0.9789   -4.3903 H   0  0  0  0  0  0  0  0  0  0  0  0
    7.5929   -0.4887   -4.9166 H   0  0  0  0  0  0  0  0  0  0  0  0
  1  2  1  0
  1 19  1  0
  1 20  1  0
  1 21  1  0
  2  3  1  0
  3  4  2  0
  3  5  1  0
  5  6  1  0
  5 22  1  0
  5 23  1  0
  6  7  1  0
  6 24  1  0
  6 25  1  0
  7  8  1  0
  7 26  1  0
  7 27  1  0
  8  9  1  0
  9 10  2  0
  9 15  1  0
 10 11  1  0
 10 28  1  0
 11 12  2  0
 11 29  1  0
 12 13  1  0
 12 14  1  0
 14 15  2  0
 14 30  1  0
 15 16  1  0
 16 17  1  0
 16 18  1  0
 16 31  1  6
 17 32  1  0
 17 33  1  0
 17 34  1  0
 18 35  1  0
 18 36  1  0
M  END

