
     RDKit          3D

 47 50  0  0  0  0  0  0  0  0999 V2000
    1.5166    0.4886   -0.4196 O   0  0  0  0  0  0  0  0  0  0  0  0
    2.0957   -0.4685    0.0700 C   0  0  0  0  0  0  0  0  0  0  0  0
    1.8891   -0.8452    1.5389 C   0  0  0  0  0  0  0  0  0  0  0  0
    0.9241    0.1202    2.2222 C   0  0  0  0  0  0  0  0  0  0  0  0
    0.7250   -0.3965    3.9640 S   0  0  0  0  0  0  0  0  0  0  0  0
   -0.4121    0.7962    4.6337 C   0  0  0  0  0  0  0  0  0  0  0  0
   -0.9770    1.8581    3.9091 C   0  0  0  0  0  0  0  0  0  0  0  0
   -1.8636    2.7403    4.5370 C   0  0  0  0  0  0  0  0  0  0  0  0
   -2.1987    2.5814    5.8827 C   0  0  0  0  0  0  0  0  0  0  0  0
   -1.6359    1.5230    6.6059 C   0  0  0  0  0  0  0  0  0  0  0  0
   -0.7516    0.6379    5.9913 C   0  0  0  0  0  0  0  0  0  0  0  0
    2.9548   -1.2517   -0.6684 N   0  0  0  0  0  0  0  0  0  0  0  0
    3.7210   -2.3942   -0.1890 C   0  0  0  0  0  0  0  0  0  0  0  0
    3.4855   -3.6153   -1.0806 C   0  0  0  0  0  0  0  0  0  0  0  0
    3.7137   -3.2767   -2.4827 N   0  0  0  0  0  0  0  0  0  0  0  0
    4.2428   -4.2232   -3.3125 C   0  0  0  0  0  0  0  0  0  0  0  0
    4.7398   -5.3534   -2.9113 N   0  0  0  0  0  0  0  0  0  0  0  0
    5.2428   -6.0901   -3.9618 C   0  0  0  0  0  0  0  0  0  0  0  0
    5.8543   -7.3504   -3.8643 C   0  0  0  0  0  0  0  0  0  0  0  0
    6.3181   -7.9867   -5.0138 C   0  0  0  0  0  0  0  0  0  0  0  0
    6.1759   -7.3723   -6.2686 C   0  0  0  0  0  0  0  0  0  0  0  0
    6.7672   -8.1939   -7.6981 Cl  0  0  0  0  0  0  0  0  0  0  0  0
    5.5729   -6.1193   -6.4054 C   0  0  0  0  0  0  0  0  0  0  0  0
    5.1142   -5.4955   -5.2448 C   0  0  0  0  0  0  0  0  0  0  0  0
    4.3153   -3.9383   -5.0840 S   0  0  0  0  0  0  0  0  0  0  0  0
    2.9788   -2.1168   -2.9709 C   0  0  0  0  0  0  0  0  0  0  0  0
    3.2184   -0.9110   -2.0608 C   0  0  0  0  0  0  0  0  0  0  0  0
    2.8603   -0.8449    2.0631 H   0  0  0  0  0  0  0  0  0  0  0  0
    1.5031   -1.8768    1.6085 H   0  0  0  0  0  0  0  0  0  0  0  0
   -0.0480    0.1101    1.7089 H   0  0  0  0  0  0  0  0  0  0  0  0
    1.3161    1.1461    2.1726 H   0  0  0  0  0  0  0  0  0  0  0  0
   -0.7360    2.0101    2.8568 H   0  0  0  0  0  0  0  0  0  0  0  0
   -2.2945    3.5619    3.9585 H   0  0  0  0  0  0  0  0  0  0  0  0
   -2.8916    3.2742    6.3658 H   0  0  0  0  0  0  0  0  0  0  0  0
   -1.8875    1.3840    7.6607 H   0  0  0  0  0  0  0  0  0  0  0  0
   -0.3170   -0.1856    6.5644 H   0  0  0  0  0  0  0  0  0  0  0  0
    3.4430   -2.6435    0.8411 H   0  0  0  0  0  0  0  0  0  0  0  0
    4.7992   -2.1442   -0.1929 H   0  0  0  0  0  0  0  0  0  0  0  0
    2.4459   -3.9754   -0.9449 H   0  0  0  0  0  0  0  0  0  0  0  0
    4.1643   -4.4344   -0.8130 H   0  0  0  0  0  0  0  0  0  0  0  0
    5.9594   -7.8176   -2.8834 H   0  0  0  0  0  0  0  0  0  0  0  0
    6.7953   -8.9659   -4.9512 H   0  0  0  0  0  0  0  0  0  0  0  0
    5.4724   -5.6601   -7.3895 H   0  0  0  0  0  0  0  0  0  0  0  0
    1.8939   -2.3383   -3.0189 H   0  0  0  0  0  0  0  0  0  0  0  0
    3.3142   -1.8687   -3.9882 H   0  0  0  0  0  0  0  0  0  0  0  0
    2.5597   -0.0779   -2.3348 H   0  0  0  0  0  0  0  0  0  0  0  0
    4.2686   -0.5800   -2.1664 H   0  0  0  0  0  0  0  0  0  0  0  0
  1  2  2  0
  2  3  1  0
  2 12  1  0
  3  4  1  0
  3 28  1  0
  3 29  1  0
  4  5  1  0
  4 30  1  0
  4 31  1  0
  5  6  1  0
  6  7  2  0
  6 11  1  0
  7  8  1  0
  7 32  1  0
  8  9  2  0
  8 33  1  0
  9 10  1  0
  9 34  1  0
 10 11  2  0
 10 35  1  0
 11 36  1  0
 12 13  1  0
 12 27  1  0
 13 14  1  0
 13 37  1  0
 13 38  1  0
 14 15  1  0
 14 39  1  0
 14 40  1  0
 15 16  1  0
 15 26  1  0
 16 17  2  0
 16 25  1  0
 17 18  1  0
 18 19  2  0
 18 24  1  0
 19 20  1  0
 19 41  1  0
 20 21  2  0
 20 42  1  0
 21 22  1  0
 21 23  1  0
 23 24  2  0
 23 43  1  0
 24 25  1  0
 26 27  1  0
 26 44  1  0
 26 45  1  0
 27 46  1  0
 27 47  1  0
M  END

