
     RDKit          3D

 45 47  0  0  0  0  0  0  0  0999 V2000
    1.0611   -0.3279   -0.9535 C   0  0  0  0  0  0  0  0  0  0  0  0
    2.5499   -0.1039   -1.1274 C   0  0  0  0  0  0  0  0  0  0  0  0
    3.1887   -1.3750   -1.1260 O   0  0  0  0  0  0  0  0  0  0  0  0
    4.5206   -1.4457   -1.2599 C   0  0  0  0  0  0  0  0  0  0  0  0
    5.3879   -0.3768   -1.4154 C   0  0  0  0  0  0  0  0  0  0  0  0
    6.7869   -0.6117   -1.5196 C   0  0  0  0  0  0  0  0  0  0  0  0
    7.3029   -1.8781   -1.4968 C   0  0  0  0  0  0  0  0  0  0  0  0
    6.4373   -2.9495   -1.3848 N   0  0  0  0  0  0  0  0  0  0  0  0
    6.6533   -4.3257   -1.2940 C   0  0  0  0  0  0  0  0  0  0  0  0
    7.9300   -5.0513   -1.4520 C   0  0  0  0  0  0  0  0  0  0  0  0
    8.1285   -6.1151   -0.8833 O   0  0  0  0  0  0  0  0  0  0  0  0
    8.8473   -4.4708   -2.3159 N   0  0  0  0  0  0  0  0  0  0  0  0
   10.1413   -4.9116   -2.6521 C   0  0  0  0  0  0  0  0  0  0  0  0
   10.7720   -6.0112   -2.0464 C   0  0  0  0  0  0  0  0  0  0  0  0
   12.0669   -6.3530   -2.4372 C   0  0  0  0  0  0  0  0  0  0  0  0
   12.7361   -5.6226   -3.4200 C   0  0  0  0  0  0  0  0  0  0  0  0
   14.5091   -6.1565   -3.9044 Br  0  0  0  0  0  0  0  0  0  0  0  0
   12.1306   -4.5196   -4.0498 C   0  0  0  0  0  0  0  0  0  0  0  0
   12.8252   -3.7141   -5.1163 C   0  0  0  0  0  0  0  0  0  0  0  0
   10.8326   -4.1895   -3.6416 C   0  0  0  0  0  0  0  0  0  0  0  0
    5.3849   -4.8878   -1.0757 C   0  0  0  0  0  0  0  0  0  0  0  0
    5.0428   -6.3336   -0.8694 C   0  0  0  0  0  0  0  0  0  0  0  0
    5.1102   -6.7492    0.6079 C   0  0  0  0  0  0  0  0  0  0  0  0
    4.4299   -3.9293   -1.0503 N   0  0  0  0  0  0  0  0  0  0  0  0
    5.0591   -2.7734   -1.2269 C   0  0  0  0  0  0  0  0  0  0  0  0
    0.5311    0.6370   -0.9502 H   0  0  0  0  0  0  0  0  0  0  0  0
    0.8546   -0.8447   -0.0043 H   0  0  0  0  0  0  0  0  0  0  0  0
    0.6628   -0.9438   -1.7739 H   0  0  0  0  0  0  0  0  0  0  0  0
    2.9565    0.5172   -0.3073 H   0  0  0  0  0  0  0  0  0  0  0  0
    2.7640    0.4190   -2.0785 H   0  0  0  0  0  0  0  0  0  0  0  0
    5.0168    0.6466   -1.4415 H   0  0  0  0  0  0  0  0  0  0  0  0
    7.4732    0.2322   -1.6056 H   0  0  0  0  0  0  0  0  0  0  0  0
    8.3683   -2.0961   -1.5221 H   0  0  0  0  0  0  0  0  0  0  0  0
    8.5026   -3.7058   -2.8839 H   0  0  0  0  0  0  0  0  0  0  0  0
   10.2453   -6.5884   -1.2910 H   0  0  0  0  0  0  0  0  0  0  0  0
   12.5608   -7.2065   -1.9693 H   0  0  0  0  0  0  0  0  0  0  0  0
   13.7615   -3.2738   -4.7369 H   0  0  0  0  0  0  0  0  0  0  0  0
   12.1818   -2.9002   -5.4802 H   0  0  0  0  0  0  0  0  0  0  0  0
   13.1031   -4.3467   -5.9748 H   0  0  0  0  0  0  0  0  0  0  0  0
   10.3420   -3.3341   -4.1172 H   0  0  0  0  0  0  0  0  0  0  0  0
    5.7306   -6.9659   -1.4503 H   0  0  0  0  0  0  0  0  0  0  0  0
    4.0228   -6.4866   -1.2557 H   0  0  0  0  0  0  0  0  0  0  0  0
    6.1401   -6.6517    0.9824 H   0  0  0  0  0  0  0  0  0  0  0  0
    4.7987   -7.7990    0.7298 H   0  0  0  0  0  0  0  0  0  0  0  0
    4.4473   -6.1215    1.2241 H   0  0  0  0  0  0  0  0  0  0  0  0
  1  2  1  0
  1 26  1  0
  1 27  1  0
  1 28  1  0
  2  3  1  0
  2 29  1  0
  2 30  1  0
  3  4  1  0
  4  5  2  0
  4 25  1  0
  5  6  1  0
  5 31  1  0
  6  7  2  0
  6 32  1  0
  7  8  1  0
  7 33  1  0
  8  9  1  0
  8 25  1  0
  9 10  1  0
  9 21  2  0
 10 11  2  0
 10 12  1  0
 12 13  1  0
 12 34  1  0
 13 14  2  0
 13 20  1  0
 14 15  1  0
 14 35  1  0
 15 16  2  0
 15 36  1  0
 16 17  1  0
 16 18  1  0
 18 19  1  0
 18 20  2  0
 19 37  1  0
 19 38  1  0
 19 39  1  0
 20 40  1  0
 21 22  1  0
 21 24  1  0
 22 23  1  0
 22 41  1  0
 22 42  1  0
 23 43  1  0
 23 44  1  0
 23 45  1  0
 24 25  2  0
M  END

