
     RDKit          3D

 39 40  0  0  0  0  0  0  0  0999 V2000
    5.0113   -2.1306   -0.0040 C   0  0  0  0  0  0  0  0  0  0  0  0
    4.4653   -1.0567   -0.8177 N   0  0  0  0  0  0  0  0  0  0  0  0
    3.8789   -1.4781   -2.0926 C   0  0  0  0  0  0  0  0  0  0  0  0
    3.1569   -0.3608   -2.8392 C   0  0  0  0  0  0  0  0  0  0  0  0
    3.9721    0.9280   -2.8064 C   0  0  0  0  0  0  0  0  0  0  0  0
    4.1433    1.3482   -1.3442 C   0  0  2  0  0  0  0  0  0  0  0  0
    4.9461    2.5377   -1.1528 N   0  0  0  0  0  0  0  0  0  0  0  0
    4.3847    3.7728   -1.4116 C   0  0  0  0  0  0  0  0  0  0  0  0
    3.2958    3.8838   -1.9697 O   0  0  0  0  0  0  0  0  0  0  0  0
    5.1519    4.8600   -1.0302 N   0  0  0  0  0  0  0  0  0  0  0  0
    6.4612    4.7043   -0.4148 C   0  0  0  0  0  0  0  0  0  0  0  0
    4.6053    6.1962   -1.2409 C   0  0  1  0  0  0  0  0  0  0  0  0
    4.3969    7.0097    0.0740 C   0  0  0  0  0  0  0  0  0  0  0  0
    5.2643    8.2688   -0.1252 C   0  0  0  0  0  0  0  0  0  0  0  0
    6.2328    7.9125   -1.0986 O   0  0  0  0  0  0  0  0  0  0  0  0
    5.5375    7.1284   -2.0524 C   0  0  0  0  0  0  0  0  0  0  0  0
    4.7658    0.2356   -0.4848 C   0  0  0  0  0  0  0  0  0  0  0  0
    5.4659    0.5266    0.4793 O   0  0  0  0  0  0  0  0  0  0  0  0
    4.2188   -2.8525    0.2554 H   0  0  0  0  0  0  0  0  0  0  0  0
    5.4369   -1.7029    0.9105 H   0  0  0  0  0  0  0  0  0  0  0  0
    5.8062   -2.6748   -0.5464 H   0  0  0  0  0  0  0  0  0  0  0  0
    3.1883   -2.3154   -1.8911 H   0  0  0  0  0  0  0  0  0  0  0  0
    4.6878   -1.8917   -2.7284 H   0  0  0  0  0  0  0  0  0  0  0  0
    2.1699   -0.1794   -2.3795 H   0  0  0  0  0  0  0  0  0  0  0  0
    2.9667   -0.6925   -3.8720 H   0  0  0  0  0  0  0  0  0  0  0  0
    3.4688    1.7405   -3.3481 H   0  0  0  0  0  0  0  0  0  0  0  0
    4.9654    0.7792   -3.2658 H   0  0  0  0  0  0  0  0  0  0  0  0
    3.1256    1.5196   -0.9379 H   0  0  0  0  0  0  0  0  0  0  0  0
    5.6014    2.4357   -0.3804 H   0  0  0  0  0  0  0  0  0  0  0  0
    6.4068    4.2937    0.6115 H   0  0  0  0  0  0  0  0  0  0  0  0
    6.9485    5.6861   -0.3563 H   0  0  0  0  0  0  0  0  0  0  0  0
    7.1058    4.0389   -1.0123 H   0  0  0  0  0  0  0  0  0  0  0  0
    3.6588    6.0342   -1.7685 H   0  0  0  0  0  0  0  0  0  0  0  0
    4.7372    6.4233    0.9397 H   0  0  0  0  0  0  0  0  0  0  0  0
    3.3375    7.2538    0.2405 H   0  0  0  0  0  0  0  0  0  0  0  0
    5.7926    8.5986    0.7815 H   0  0  0  0  0  0  0  0  0  0  0  0
    4.6490    9.1159   -0.4927 H   0  0  0  0  0  0  0  0  0  0  0  0
    6.2665    6.5859   -2.6709 H   0  0  0  0  0  0  0  0  0  0  0  0
    4.9311    7.7791   -2.7159 H   0  0  0  0  0  0  0  0  0  0  0  0
  1  2  1  0
  1 19  1  0
  1 20  1  0
  1 21  1  0
  2  3  1  0
  2 17  1  0
  3  4  1  0
  3 22  1  0
  3 23  1  0
  4  5  1  0
  4 24  1  0
  4 25  1  0
  5  6  1  0
  5 26  1  0
  5 27  1  0
  6  7  1  0
  6 17  1  0
  6 28  1  1
  7  8  1  0
  7 29  1  0
  8  9  2  0
  8 10  1  0
 10 11  1  0
 10 12  1  0
 11 30  1  0
 11 31  1  0
 11 32  1  0
 12 13  1  0
 12 16  1  0
 12 33  1  6
 13 14  1  0
 13 34  1  0
 13 35  1  0
 14 15  1  0
 14 36  1  0
 14 37  1  0
 15 16  1  0
 16 38  1  0
 16 39  1  0
 17 18  2  0
M  END

