
     RDKit          3D

 55 59  0  0  0  0  0  0  0  0999 V2000
    0.8794   -0.2261    0.7783 O   0  0  0  0  0  0  0  0  0  0  0  0
    2.0116   -0.4865    0.4354 C   0  0  0  0  0  0  0  0  0  0  0  0
    3.1644   -0.9540    1.2520 C   0  0  0  0  0  0  0  0  0  0  0  0
    3.0452   -1.0216    2.7010 C   0  0  0  0  0  0  0  0  0  0  0  0
    1.9345   -1.3773    3.4445 C   0  0  0  0  0  0  0  0  0  0  0  0
    2.1145   -1.2200    4.8485 C   0  0  0  0  0  0  0  0  0  0  0  0
    3.3546   -0.7317    5.1767 C   0  0  0  0  0  0  0  0  0  0  0  0
    4.3169   -0.4427    3.7704 S   0  0  0  0  0  0  0  0  0  0  0  0
    4.2407   -1.1200    0.4001 C   0  0  0  0  0  0  0  0  0  0  0  0
    5.4700   -1.6597    0.6064 N   0  0  0  0  0  0  0  0  0  0  0  0
    5.7311   -2.6319    1.6670 C   0  0  0  0  0  0  0  0  0  0  0  0
    6.4014   -3.8876    1.0890 C   0  0  0  0  0  0  0  0  0  0  0  0
    7.6733   -3.5874    0.2730 C   0  0  2  0  0  0  0  0  0  0  0  0
    8.8781   -3.2289    1.1811 C   0  0  0  0  0  0  0  0  0  0  0  0
   10.1979   -3.1004    0.4500 C   0  0  0  0  0  0  0  0  0  0  0  0
   10.7831   -1.8470    0.2109 C   0  0  0  0  0  0  0  0  0  0  0  0
   11.9942   -1.7345   -0.4798 C   0  0  0  0  0  0  0  0  0  0  0  0
   12.6453   -2.8796   -0.9450 C   0  0  0  0  0  0  0  0  0  0  0  0
   12.0777   -4.1365   -0.7109 C   0  0  0  0  0  0  0  0  0  0  0  0
   10.8683   -4.2429   -0.0203 C   0  0  0  0  0  0  0  0  0  0  0  0
    7.3458   -2.5105   -0.7794 C   0  0  0  0  0  0  0  0  0  0  0  0
    6.6568   -1.2853   -0.1744 C   0  0  0  0  0  0  0  0  0  0  0  0
    3.7922   -0.7148   -1.0046 C   0  0  0  0  0  0  0  0  0  0  0  0
    4.4374   -0.7213   -2.0313 O   0  0  0  0  0  0  0  0  0  0  0  0
    2.4651   -0.3565   -0.8935 N   0  0  0  0  0  0  0  0  0  0  0  0
    1.6076    0.0360   -2.0061 C   0  0  0  0  0  0  0  0  0  0  0  0
    0.7390   -1.0633   -2.5284 C   0  0  0  0  0  0  0  0  0  0  0  0
   -0.5351   -1.4648   -2.2299 C   0  0  0  0  0  0  0  0  0  0  0  0
   -0.7991   -2.6119   -3.0489 C   0  0  0  0  0  0  0  0  0  0  0  0
    0.3367   -2.8204   -3.7788 C   0  0  0  0  0  0  0  0  0  0  0  0
    1.2732   -1.8898   -3.4713 O   0  0  0  0  0  0  0  0  0  0  0  0
    1.0142   -1.7282    2.9791 H   0  0  0  0  0  0  0  0  0  0  0  0
    1.3511   -1.4628    5.5895 H   0  0  0  0  0  0  0  0  0  0  0  0
    3.7595   -0.5265    6.1669 H   0  0  0  0  0  0  0  0  0  0  0  0
    4.7820   -2.9043    2.1428 H   0  0  0  0  0  0  0  0  0  0  0  0
    6.3616   -2.1763    2.4533 H   0  0  0  0  0  0  0  0  0  0  0  0
    5.6711   -4.3964    0.4370 H   0  0  0  0  0  0  0  0  0  0  0  0
    6.6257   -4.5800    1.9183 H   0  0  0  0  0  0  0  0  0  0  0  0
    7.9491   -4.5106   -0.2652 H   0  0  0  0  0  0  0  0  0  0  0  0
    8.9676   -4.0199    1.9459 H   0  0  0  0  0  0  0  0  0  0  0  0
    8.6798   -2.2957    1.7327 H   0  0  0  0  0  0  0  0  0  0  0  0
   10.2860   -0.9437    0.5769 H   0  0  0  0  0  0  0  0  0  0  0  0
   12.4310   -0.7472   -0.6521 H   0  0  0  0  0  0  0  0  0  0  0  0
   13.5927   -2.7948   -1.4834 H   0  0  0  0  0  0  0  0  0  0  0  0
   12.5828   -5.0395   -1.0639 H   0  0  0  0  0  0  0  0  0  0  0  0
   10.4396   -5.2328    0.1643 H   0  0  0  0  0  0  0  0  0  0  0  0
    6.6712   -2.9362   -1.5405 H   0  0  0  0  0  0  0  0  0  0  0  0
    8.2586   -2.1891   -1.3059 H   0  0  0  0  0  0  0  0  0  0  0  0
    6.3617   -0.5910   -0.9657 H   0  0  0  0  0  0  0  0  0  0  0  0
    7.3484   -0.7498    0.5052 H   0  0  0  0  0  0  0  0  0  0  0  0
    2.2699    0.3990   -2.8046 H   0  0  0  0  0  0  0  0  0  0  0  0
    0.9693    0.8608   -1.6610 H   0  0  0  0  0  0  0  0  0  0  0  0
   -1.1922   -1.0002   -1.4981 H   0  0  0  0  0  0  0  0  0  0  0  0
   -1.7130   -3.2010   -3.0890 H   0  0  0  0  0  0  0  0  0  0  0  0
    0.6181   -3.5530   -4.5309 H   0  0  0  0  0  0  0  0  0  0  0  0
  1  2  2  0
  2  3  1  0
  2 25  1  0
  3  4  2  0
  3  9  1  0
  4  5  1  0
  4  8  1  0
  5  6  2  0
  5 32  1  0
  6  7  1  0
  6 33  1  0
  7  8  2  0
  7 34  1  0
  9 10  1  0
  9 23  2  0
 10 11  1  0
 10 22  1  0
 11 12  1  0
 11 35  1  0
 11 36  1  0
 12 13  1  0
 12 37  1  0
 12 38  1  0
 13 14  1  0
 13 21  1  0
 13 39  1  6
 14 15  1  0
 14 40  1  0
 14 41  1  0
 15 16  2  0
 15 20  1  0
 16 17  1  0
 16 42  1  0
 17 18  2  0
 17 43  1  0
 18 19  1  0
 18 44  1  0
 19 20  2  0
 19 45  1  0
 20 46  1  0
 21 22  1  0
 21 47  1  0
 21 48  1  0
 22 49  1  0
 22 50  1  0
 23 24  1  0
 23 25  1  0
 25 26  1  0
 26 27  1  0
 26 51  1  0
 26 52  1  0
 27 28  2  0
 27 31  1  0
 28 29  1  0
 28 53  1  0
 29 30  2  0
 29 54  1  0
 30 31  1  0
 30 55  1  0
M  CHG  2   8   1  24  -1
M  END

