
     RDKit          3D

 51 53  0  0  0  0  0  0  0  0999 V2000
    8.1291    8.7412    0.1987 C   0  0  0  0  0  0  0  0  0  0  0  0
    8.1955    8.2643   -1.2628 C   0  0  1  0  0  0  0  0  0  0  0  0
    9.4824    7.4657   -1.5345 C   0  0  0  0  0  0  0  0  0  0  0  0
    6.9491    7.4857   -1.6622 C   0  0  0  0  0  0  0  0  0  0  0  0
    6.0957    7.9704   -2.6695 C   0  0  0  0  0  0  0  0  0  0  0  0
    4.9485    7.2743   -3.0484 C   0  0  0  0  0  0  0  0  0  0  0  0
    4.6487    6.0650   -2.4151 C   0  0  0  0  0  0  0  0  0  0  0  0
    3.1492    5.1843   -2.8588 S   0  0  1  0  0  0  0  0  0  0  0  0
    3.0477    4.0276   -1.9548 O   0  0  0  0  0  0  0  0  0  0  0  0
    2.0512    6.1509   -2.9537 O   0  0  0  0  0  0  0  0  0  0  0  0
    3.4719    4.6776   -4.4424 N   0  0  0  0  0  0  0  0  0  0  0  0
    4.3096    3.4802   -4.5846 C   0  0  0  0  0  0  0  0  0  0  0  0
    3.4850    2.1852   -4.5805 C   0  0  0  0  0  0  0  0  0  0  0  0
    2.3372    2.2173   -5.6031 C   0  0  2  0  0  0  0  0  0  0  0  0
    2.9236    2.1495   -6.9618 N   0  0  0  0  0  0  0  0  0  0  0  0
    1.9589    1.7293   -8.2814 S   0  0  1  0  0  0  0  0  0  0  0  0
    2.8482    0.9777   -9.1673 O   0  0  0  0  0  0  0  0  0  0  0  0
    0.6784    1.1844   -7.8218 O   0  0  0  0  0  0  0  0  0  0  0  0
    1.5753    3.2778   -9.0603 C   0  0  0  0  0  0  0  0  0  0  0  0
    0.3040    3.7254   -9.3324 C   0  0  0  0  0  0  0  0  0  0  0  0
    0.3125    4.9548  -10.0537 C   0  0  0  0  0  0  0  0  0  0  0  0
    1.5845    5.4027  -10.3151 C   0  0  0  0  0  0  0  0  0  0  0  0
    2.7968    4.3375   -9.6964 S   0  0  0  0  0  0  0  0  0  0  0  0
    1.5040    3.4970   -5.4182 C   0  0  0  0  0  0  0  0  0  0  0  0
    2.3729    4.7581   -5.4183 C   0  0  0  0  0  0  0  0  0  0  0  0
    5.4691    5.5613   -1.4035 C   0  0  0  0  0  0  0  0  0  0  0  0
    6.6136    6.2730   -1.0374 C   0  0  0  0  0  0  0  0  0  0  0  0
    9.0071    9.3602    0.4444 H   0  0  0  0  0  0  0  0  0  0  0  0
    8.1158    7.8908    0.9001 H   0  0  0  0  0  0  0  0  0  0  0  0
    7.2254    9.3422    0.3844 H   0  0  0  0  0  0  0  0  0  0  0  0
    8.2255    9.1639   -1.9015 H   0  0  0  0  0  0  0  0  0  0  0  0
    9.5316    6.5566   -0.9130 H   0  0  0  0  0  0  0  0  0  0  0  0
   10.3718    8.0738   -1.3029 H   0  0  0  0  0  0  0  0  0  0  0  0
    9.5476    7.1548   -2.5889 H   0  0  0  0  0  0  0  0  0  0  0  0
    6.3338    8.9168   -3.1630 H   0  0  0  0  0  0  0  0  0  0  0  0
    4.2876    7.6659   -3.8238 H   0  0  0  0  0  0  0  0  0  0  0  0
    5.0576    3.4629   -3.7788 H   0  0  0  0  0  0  0  0  0  0  0  0
    4.8637    3.5851   -5.5329 H   0  0  0  0  0  0  0  0  0  0  0  0
    3.0509    2.0505   -3.5785 H   0  0  0  0  0  0  0  0  0  0  0  0
    4.1422    1.3179   -4.7696 H   0  0  0  0  0  0  0  0  0  0  0  0
    1.6847    1.3433   -5.4398 H   0  0  0  0  0  0  0  0  0  0  0  0
    3.7497    1.5539   -7.0268 H   0  0  0  0  0  0  0  0  0  0  0  0
   -0.5866    3.1788   -9.0220 H   0  0  0  0  0  0  0  0  0  0  0  0
   -0.5882    5.4854  -10.3654 H   0  0  0  0  0  0  0  0  0  0  0  0
    1.8820    6.3095  -10.8413 H   0  0  0  0  0  0  0  0  0  0  0  0
    0.9702    3.4227   -4.4562 H   0  0  0  0  0  0  0  0  0  0  0  0
    0.7330    3.5644   -6.2009 H   0  0  0  0  0  0  0  0  0  0  0  0
    1.7737    5.6486   -5.1926 H   0  0  0  0  0  0  0  0  0  0  0  0
    2.8356    4.9026   -6.4085 H   0  0  0  0  0  0  0  0  0  0  0  0
    5.1988    4.6264   -0.9099 H   0  0  0  0  0  0  0  0  0  0  0  0
    7.2509    5.8723   -0.2450 H   0  0  0  0  0  0  0  0  0  0  0  0
  1  2  1  0
  1 28  1  0
  1 29  1  0
  1 30  1  0
  2  3  1  0
  2  4  1  0
  2 31  1  6
  3 32  1  0
  3 33  1  0
  3 34  1  0
  4  5  2  0
  4 27  1  0
  5  6  1  0
  5 35  1  0
  6  7  2  0
  6 36  1  0
  8  7  1  1
  7 26  1  0
  8  9  2  0
  8 10  2  0
  8 11  1  0
 11 12  1  0
 11 25  1  0
 12 13  1  0
 12 37  1  0
 12 38  1  0
 13 14  1  0
 13 39  1  0
 13 40  1  0
 14 15  1  0
 14 24  1  0
 14 41  1  1
 16 15  1  1
 15 42  1  0
 16 17  2  0
 16 18  2  0
 16 19  1  0
 19 20  2  0
 19 23  1  0
 20 21  1  0
 20 43  1  0
 21 22  2  0
 21 44  1  0
 22 23  1  0
 22 45  1  0
 24 25  1  0
 24 46  1  0
 24 47  1  0
 25 48  1  0
 25 49  1  0
 26 27  2  0
 26 50  1  0
 27 51  1  0
M  END

