
     RDKit          3D

 46 47  0  0  0  0  0  0  0  0999 V2000
    2.7683   -0.9309    0.6588 C   0  0  0  0  0  0  0  0  0  0  0  0
    2.1601    0.2009    0.0766 O   0  0  0  0  0  0  0  0  0  0  0  0
    3.0228    1.2436   -0.3961 C   0  0  1  0  0  0  0  0  0  0  0  0
    3.9634    0.7373   -1.5460 C   0  0  0  0  0  0  0  0  0  0  0  0
    5.1577    0.9603   -1.4395 O   0  0  0  0  0  0  0  0  0  0  0  0
    3.4162    0.0603   -2.7698 C   0  0  0  0  0  0  0  0  0  0  0  0
    2.1041   -0.4589   -2.7953 C   0  0  0  0  0  0  0  0  0  0  0  0
    1.5572   -1.1021   -3.9074 C   0  0  0  0  0  0  0  0  0  0  0  0
    0.1492   -1.6436   -3.8641 C   0  0  0  0  0  0  0  0  0  0  0  0
    2.3514   -1.2297   -5.0675 C   0  0  0  0  0  0  0  0  0  0  0  0
    1.8164   -1.9068   -6.3030 C   0  0  0  0  0  0  0  0  0  0  0  0
    3.6518   -0.7121   -5.0482 C   0  0  0  0  0  0  0  0  0  0  0  0
    4.2215   -0.0754   -3.9366 C   0  0  0  0  0  0  0  0  0  0  0  0
    5.6393    0.4271   -4.0615 C   0  0  0  0  0  0  0  0  0  0  0  0
    2.0908    2.3498   -0.9374 C   0  0  0  0  0  0  0  0  0  0  0  0
    1.2307    2.9695    0.1711 C   0  0  0  0  0  0  0  0  0  0  0  0
    2.0837    3.5017    1.3261 C   0  0  0  0  0  0  0  0  0  0  0  0
    3.0294    2.4253    1.8835 C   0  0  2  0  0  0  0  0  0  0  0  0
    3.9150    2.9682    3.0084 C   0  0  0  0  0  0  0  0  0  0  0  0
    3.8764    1.8251    0.7495 C   0  0  0  0  0  0  0  0  0  0  0  0
    1.9780   -1.6843    0.7936 H   0  0  0  0  0  0  0  0  0  0  0  0
    3.2090   -0.7124    1.6482 H   0  0  0  0  0  0  0  0  0  0  0  0
    3.5569   -1.3666    0.0170 H   0  0  0  0  0  0  0  0  0  0  0  0
    1.4963   -0.3692   -1.8963 H   0  0  0  0  0  0  0  0  0  0  0  0
   -0.3186   -1.4606   -2.8860 H   0  0  0  0  0  0  0  0  0  0  0  0
    0.1234   -2.7310   -4.0510 H   0  0  0  0  0  0  0  0  0  0  0  0
   -0.4906   -1.1795   -4.6343 H   0  0  0  0  0  0  0  0  0  0  0  0
    1.5235   -2.9505   -6.0969 H   0  0  0  0  0  0  0  0  0  0  0  0
    2.5614   -1.9187   -7.1115 H   0  0  0  0  0  0  0  0  0  0  0  0
    0.9128   -1.3996   -6.6822 H   0  0  0  0  0  0  0  0  0  0  0  0
    4.2612   -0.8107   -5.9516 H   0  0  0  0  0  0  0  0  0  0  0  0
    5.9946    0.3018   -5.0956 H   0  0  0  0  0  0  0  0  0  0  0  0
    6.3199   -0.1104   -3.3848 H   0  0  0  0  0  0  0  0  0  0  0  0
    5.7287    1.4869   -3.7812 H   0  0  0  0  0  0  0  0  0  0  0  0
    1.4522    1.9426   -1.7344 H   0  0  0  0  0  0  0  0  0  0  0  0
    2.7236    3.1261   -1.4015 H   0  0  0  0  0  0  0  0  0  0  0  0
    0.5355    2.2022    0.5492 H   0  0  0  0  0  0  0  0  0  0  0  0
    0.6120    3.7773   -0.2548 H   0  0  0  0  0  0  0  0  0  0  0  0
    1.4366    3.8898    2.1316 H   0  0  0  0  0  0  0  0  0  0  0  0
    2.6893    4.3588    0.9738 H   0  0  0  0  0  0  0  0  0  0  0  0
    2.4001    1.6181    2.3013 H   0  0  0  0  0  0  0  0  0  0  0  0
    4.5704    3.7768    2.6416 H   0  0  0  0  0  0  0  0  0  0  0  0
    4.5637    2.1813    3.4270 H   0  0  0  0  0  0  0  0  0  0  0  0
    3.3094    3.3784    3.8332 H   0  0  0  0  0  0  0  0  0  0  0  0
    4.5626    1.0562    1.1373 H   0  0  0  0  0  0  0  0  0  0  0  0
    4.5321    2.6012    0.3251 H   0  0  0  0  0  0  0  0  0  0  0  0
  1  2  1  0
  1 21  1  0
  1 22  1  0
  1 23  1  0
  3  2  1  1
  3  4  1  0
  3 15  1  0
  3 20  1  0
  4  5  2  0
  4  6  1  0
  6  7  2  0
  6 13  1  0
  7  8  1  0
  7 24  1  0
  8  9  1  0
  8 10  2  0
  9 25  1  0
  9 26  1  0
  9 27  1  0
 10 11  1  0
 10 12  1  0
 11 28  1  0
 11 29  1  0
 11 30  1  0
 12 13  2  0
 12 31  1  0
 13 14  1  0
 14 32  1  0
 14 33  1  0
 14 34  1  0
 15 16  1  0
 15 35  1  0
 15 36  1  0
 16 17  1  0
 16 37  1  0
 16 38  1  0
 17 18  1  0
 17 39  1  0
 17 40  1  0
 18 19  1  0
 18 20  1  0
 18 41  1  1
 19 42  1  0
 19 43  1  0
 19 44  1  0
 20 45  1  0
 20 46  1  0
M  END

