
     RDKit          3D

 68 72  0  0  0  0  0  0  0  0999 V2000
    2.5114    1.6327   -0.0254 O   0  0  0  0  0  0  0  0  0  0  0  0
    2.1552    0.4671    0.0588 C   0  0  0  0  0  0  0  0  0  0  0  0
    2.8482   -0.5086    1.0147 C   0  0  0  0  0  0  0  0  0  0  0  0
    1.9683   -1.5427    1.7333 C   0  0  0  0  0  0  0  0  0  0  0  0
    1.3443   -2.5428    0.8562 N   0  0  0  0  0  0  0  0  0  0  0  0
    2.2695   -3.5024    0.2196 C   0  0  0  0  0  0  0  0  0  0  0  0
    3.0429   -4.4417    1.1411 C   0  0  0  0  0  0  0  0  0  0  0  0
    4.2594   -4.0182    1.6558 C   0  0  0  0  0  0  0  0  0  0  0  0
    5.0230   -4.8140    2.5425 C   0  0  0  0  0  0  0  0  0  0  0  0
    4.5704   -6.0604    2.9108 C   0  0  0  0  0  0  0  0  0  0  0  0
    3.3446   -6.5636    2.3947 C   0  0  0  0  0  0  0  0  0  0  0  0
    2.8810   -7.8633    2.7456 C   0  0  0  0  0  0  0  0  0  0  0  0
    1.7057   -8.3644    2.2305 C   0  0  0  0  0  0  0  0  0  0  0  0
    0.9412   -7.5790    1.3339 C   0  0  0  0  0  0  0  0  0  0  0  0
    1.3580   -6.3120    0.9798 C   0  0  0  0  0  0  0  0  0  0  0  0
    2.5647   -5.7527    1.4952 C   0  0  0  0  0  0  0  0  0  0  0  0
    0.1681   -3.1411    1.4375 C   0  0  1  0  0  0  0  0  0  0  0  0
   -1.1092   -2.3423    1.4447 C   0  0  0  0  0  0  0  0  0  0  0  0
   -0.9686   -3.5324    0.5286 C   0  0  0  0  0  0  0  0  0  0  0  0
    1.1488   -0.0697   -0.6920 N   0  0  0  0  0  0  0  0  0  0  0  0
    0.3944    0.7135   -1.6444 C   0  0  0  0  0  0  0  0  0  0  0  0
    0.7636    0.4195   -3.1219 C   0  0  1  0  0  0  0  0  0  0  0  0
    0.6063   -1.0659   -3.4244 C   0  0  0  0  0  0  0  0  0  0  0  0
   -0.6713   -1.6287   -3.5852 C   0  0  0  0  0  0  0  0  0  0  0  0
   -0.8254   -2.9979   -3.8156 C   0  0  0  0  0  0  0  0  0  0  0  0
    0.2976   -3.8309   -3.8901 C   0  0  0  0  0  0  0  0  0  0  0  0
    1.5731   -3.2814   -3.7354 C   0  0  0  0  0  0  0  0  0  0  0  0
    1.7231   -1.9090   -3.5042 C   0  0  0  0  0  0  0  0  0  0  0  0
   -0.0568    1.2216   -4.0226 N   0  0  0  0  0  0  0  0  0  0  0  0
   -0.0793    2.6663   -3.7824 C   0  0  0  0  0  0  0  0  0  0  0  0
   -0.7685    3.2467   -5.0330 C   0  0  0  0  0  0  0  0  0  0  0  0
   -0.5737    2.1623   -6.1256 C   0  0  0  0  0  0  0  0  0  0  0  0
    0.2829    1.0892   -5.4394 C   0  0  0  0  0  0  0  0  0  0  0  0
    3.3473    0.1195    1.7667 H   0  0  0  0  0  0  0  0  0  0  0  0
    3.6603   -1.0018    0.4520 H   0  0  0  0  0  0  0  0  0  0  0  0
    1.1495   -1.0115    2.2421 H   0  0  0  0  0  0  0  0  0  0  0  0
    2.5676   -2.0206    2.5342 H   0  0  0  0  0  0  0  0  0  0  0  0
    2.9991   -2.9200   -0.3630 H   0  0  0  0  0  0  0  0  0  0  0  0
    1.6860   -4.0687   -0.5190 H   0  0  0  0  0  0  0  0  0  0  0  0
    4.6520   -3.0413    1.3609 H   0  0  0  0  0  0  0  0  0  0  0  0
    5.9733   -4.4343    2.9261 H   0  0  0  0  0  0  0  0  0  0  0  0
    5.1509   -6.6855    3.5947 H   0  0  0  0  0  0  0  0  0  0  0  0
    3.4835   -8.4628    3.4336 H   0  0  0  0  0  0  0  0  0  0  0  0
    1.3641   -9.3651    2.5068 H   0  0  0  0  0  0  0  0  0  0  0  0
    0.0133   -7.9803    0.9181 H   0  0  0  0  0  0  0  0  0  0  0  0
    0.7484   -5.7296    0.2903 H   0  0  0  0  0  0  0  0  0  0  0  0
    0.3329   -3.7895    2.3129 H   0  0  0  0  0  0  0  0  0  0  0  0
   -1.0820   -1.3482    0.9903 H   0  0  0  0  0  0  0  0  0  0  0  0
   -1.7628   -2.4249    2.3175 H   0  0  0  0  0  0  0  0  0  0  0  0
   -0.8482   -3.3347   -0.5406 H   0  0  0  0  0  0  0  0  0  0  0  0
   -1.5269   -4.4426    0.7649 H   0  0  0  0  0  0  0  0  0  0  0  0
    0.9320   -1.0554   -0.5275 H   0  0  0  0  0  0  0  0  0  0  0  0
    0.6076    1.7655   -1.4155 H   0  0  0  0  0  0  0  0  0  0  0  0
   -0.6872    0.5393   -1.5103 H   0  0  0  0  0  0  0  0  0  0  0  0
    1.8423    0.6784   -3.2352 H   0  0  0  0  0  0  0  0  0  0  0  0
   -1.5435   -0.9714   -3.5490 H   0  0  0  0  0  0  0  0  0  0  0  0
   -1.8267   -3.4177   -3.9455 H   0  0  0  0  0  0  0  0  0  0  0  0
    0.1780   -4.9013   -4.0771 H   0  0  0  0  0  0  0  0  0  0  0  0
    2.4573   -3.9211   -3.8022 H   0  0  0  0  0  0  0  0  0  0  0  0
    2.7241   -1.4831   -3.3924 H   0  0  0  0  0  0  0  0  0  0  0  0
    0.9529    3.0745   -3.6851 H   0  0  0  0  0  0  0  0  0  0  0  0
   -0.6163    2.9168   -2.8563 H   0  0  0  0  0  0  0  0  0  0  0  0
   -0.3288    4.2154   -5.3135 H   0  0  0  0  0  0  0  0  0  0  0  0
   -1.8382    3.4199   -4.8424 H   0  0  0  0  0  0  0  0  0  0  0  0
   -0.0884    2.5508   -7.0334 H   0  0  0  0  0  0  0  0  0  0  0  0
   -1.5439    1.7400   -6.4282 H   0  0  0  0  0  0  0  0  0  0  0  0
    1.3664    1.2922   -5.6106 H   0  0  0  0  0  0  0  0  0  0  0  0
    0.0819    0.0720   -5.8057 H   0  0  0  0  0  0  0  0  0  0  0  0
  1  2  2  0
  2  3  1  0
  2 20  1  0
  3  4  1  0
  3 34  1  0
  3 35  1  0
  4  5  1  0
  4 36  1  0
  4 37  1  0
  5  6  1  0
  5 17  1  0
  6  7  1  0
  6 38  1  0
  6 39  1  0
  7  8  2  0
  7 16  1  0
  8  9  1  0
  8 40  1  0
  9 10  2  0
  9 41  1  0
 10 11  1  0
 10 42  1  0
 11 12  1  0
 11 16  2  0
 12 13  2  0
 12 43  1  0
 13 14  1  0
 13 44  1  0
 14 15  2  0
 14 45  1  0
 15 16  1  0
 15 46  1  0
 17 18  1  0
 17 19  1  0
 17 47  1  1
 18 19  1  0
 18 48  1  0
 18 49  1  0
 19 50  1  0
 19 51  1  0
 20 21  1  0
 20 52  1  0
 21 22  1  0
 21 53  1  0
 21 54  1  0
 22 23  1  0
 22 29  1  0
 22 55  1  1
 23 24  2  0
 23 28  1  0
 24 25  1  0
 24 56  1  0
 25 26  2  0
 25 57  1  0
 26 27  1  0
 26 58  1  0
 27 28  2  0
 27 59  1  0
 28 60  1  0
 29 30  1  0
 29 33  1  0
 30 31  1  0
 30 61  1  0
 30 62  1  0
 31 32  1  0
 31 63  1  0
 31 64  1  0
 32 33  1  0
 32 65  1  0
 32 66  1  0
 33 67  1  0
 33 68  1  0
M  END

