
     RDKit          3D

 51 55  0  0  0  0  0  0  0  0999 V2000
    2.0897    1.1576   -0.4307 O   0  0  0  0  0  0  0  0  0  0  0  0
    2.1422   -0.0330   -0.1586 C   0  0  0  0  0  0  0  0  0  0  0  0
    1.6412   -0.5262    1.2024 C   0  0  0  0  0  0  0  0  0  0  0  0
    2.7584   -0.6482    2.2264 C   0  0  0  0  0  0  0  0  0  0  0  0
    3.6509    0.4187    2.4320 C   0  0  0  0  0  0  0  0  0  0  0  0
    4.6700    0.3318    3.3812 C   0  0  0  0  0  0  0  0  0  0  0  0
    4.7963   -0.8352    4.1333 C   0  0  0  0  0  0  0  0  0  0  0  0
    5.7741   -0.9236    5.0469 F   0  0  0  0  0  0  0  0  0  0  0  0
    3.9296   -1.9097    3.9572 C   0  0  0  0  0  0  0  0  0  0  0  0
    2.9147   -1.8070    3.0008 C   0  0  0  0  0  0  0  0  0  0  0  0
    2.6734   -0.9517   -1.0360 N   0  0  0  0  0  0  0  0  0  0  0  0
    2.9004   -2.3675   -0.7843 C   0  0  0  0  0  0  0  0  0  0  0  0
    2.3641   -3.2210   -1.9404 C   0  0  0  0  0  0  0  0  0  0  0  0
    2.9058   -2.7520   -3.2127 N   0  0  0  0  0  0  0  0  0  0  0  0
    3.5327   -3.5480   -4.1130 C   0  0  0  0  0  0  0  0  0  0  0  0
    3.9590   -3.0055   -5.2686 N   0  0  0  0  0  0  0  0  0  0  0  0
    4.5806   -3.7563   -6.1817 C   0  0  0  0  0  0  0  0  0  0  0  0
    4.8665   -5.0557   -6.1279 N   0  0  0  0  0  0  0  0  0  0  0  0
    4.4498   -5.6086   -4.9826 C   0  0  0  0  0  0  0  0  0  0  0  0
    3.7858   -4.9468   -3.9343 C   0  0  0  0  0  0  0  0  0  0  0  0
    3.5345   -5.8562   -2.9400 N   0  0  0  0  0  0  0  0  0  0  0  0
    3.9873   -7.0023   -3.3010 N   0  0  0  0  0  0  0  0  0  0  0  0
    4.5544   -6.9039   -4.5403 N   0  0  0  0  0  0  0  0  0  0  0  0
    5.1293   -8.0547   -5.1546 C   0  0  0  0  0  0  0  0  0  0  0  0
    5.0998   -9.2813   -4.4726 C   0  0  0  0  0  0  0  0  0  0  0  0
    5.6582  -10.4143   -5.0613 C   0  0  0  0  0  0  0  0  0  0  0  0
    6.2400  -10.3122   -6.3239 C   0  0  0  0  0  0  0  0  0  0  0  0
    6.7762  -11.4030   -6.8877 F   0  0  0  0  0  0  0  0  0  0  0  0
    6.2751   -9.1013   -7.0098 C   0  0  0  0  0  0  0  0  0  0  0  0
    5.7172   -7.9631   -6.4247 C   0  0  0  0  0  0  0  0  0  0  0  0
    2.6793   -1.3287   -3.4688 C   0  0  0  0  0  0  0  0  0  0  0  0
    3.2143   -0.4864   -2.3108 C   0  0  0  0  0  0  0  0  0  0  0  0
    1.0902   -1.4746    1.1275 H   0  0  0  0  0  0  0  0  0  0  0  0
    0.9230    0.2426    1.5245 H   0  0  0  0  0  0  0  0  0  0  0  0
    3.5400    1.3291    1.8377 H   0  0  0  0  0  0  0  0  0  0  0  0
    5.3669    1.1554    3.5490 H   0  0  0  0  0  0  0  0  0  0  0  0
    4.0559   -2.8079    4.5649 H   0  0  0  0  0  0  0  0  0  0  0  0
    2.2281   -2.6477    2.8655 H   0  0  0  0  0  0  0  0  0  0  0  0
    2.4175   -2.6782    0.1483 H   0  0  0  0  0  0  0  0  0  0  0  0
    3.9847   -2.5567   -0.6687 H   0  0  0  0  0  0  0  0  0  0  0  0
    1.2613   -3.1346   -1.9710 H   0  0  0  0  0  0  0  0  0  0  0  0
    2.6212   -4.2754   -1.7873 H   0  0  0  0  0  0  0  0  0  0  0  0
    4.8936   -3.2313   -7.0921 H   0  0  0  0  0  0  0  0  0  0  0  0
    4.6396   -9.3363   -3.4872 H   0  0  0  0  0  0  0  0  0  0  0  0
    5.6477  -11.3793   -4.5511 H   0  0  0  0  0  0  0  0  0  0  0  0
    6.7385   -9.0563   -7.9971 H   0  0  0  0  0  0  0  0  0  0  0  0
    5.7333   -7.0051   -6.9431 H   0  0  0  0  0  0  0  0  0  0  0  0
    1.5930   -1.1558   -3.5807 H   0  0  0  0  0  0  0  0  0  0  0  0
    3.1731   -1.0655   -4.4105 H   0  0  0  0  0  0  0  0  0  0  0  0
    2.9335    0.5672   -2.4294 H   0  0  0  0  0  0  0  0  0  0  0  0
    4.3188   -0.5498   -2.2893 H   0  0  0  0  0  0  0  0  0  0  0  0
  1  2  2  0
  2  3  1  0
  2 11  1  0
  3  4  1  0
  3 33  1  0
  3 34  1  0
  4  5  2  0
  4 10  1  0
  5  6  1  0
  5 35  1  0
  6  7  2  0
  6 36  1  0
  7  8  1  0
  7  9  1  0
  9 10  2  0
  9 37  1  0
 10 38  1  0
 11 12  1  0
 11 32  1  0
 12 13  1  0
 12 39  1  0
 12 40  1  0
 13 14  1  0
 13 41  1  0
 13 42  1  0
 14 15  1  0
 14 31  1  0
 15 16  2  0
 15 20  1  0
 16 17  1  0
 17 18  2  0
 17 43  1  0
 18 19  1  0
 19 20  2  0
 19 23  1  0
 20 21  1  0
 21 22  2  0
 22 23  1  0
 23 24  1  0
 24 25  2  0
 24 30  1  0
 25 26  1  0
 25 44  1  0
 26 27  2  0
 26 45  1  0
 27 28  1  0
 27 29  1  0
 29 30  2  0
 29 46  1  0
 30 47  1  0
 31 32  1  0
 31 48  1  0
 31 49  1  0
 32 50  1  0
 32 51  1  0
M  END

