
     RDKit          3D

 33 37  0  0  0  0  0  0  0  0999 V2000
   -1.1279    0.1934   -0.0131 C   0  0  0  0  0  0  0  0  0  0  0  0
   -0.1761    1.1736    0.0020 C   0  0  0  0  0  0  0  0  0  0  0  0
    1.0670    0.6209    0.0002 O   0  0  0  0  0  0  0  0  0  0  0  0
    0.9112   -0.7342   -0.0158 C   0  0  0  0  0  0  0  0  0  0  0  0
    2.0875   -1.5757   -0.0213 C   0  0  0  0  0  0  0  0  0  0  0  0
    2.0545   -2.8951   -0.0376 N   0  0  0  0  0  0  0  0  0  0  0  0
    3.3197   -3.3814   -0.0380 N   0  0  0  0  0  0  0  0  0  0  0  0
    4.1425   -2.3492   -0.0202 C   0  0  0  0  0  0  0  0  0  0  0  0
    5.5636   -2.2342   -0.0159 C   0  0  0  0  0  0  0  0  0  0  0  0
    6.5897   -3.2348   -0.0303 C   0  0  0  0  0  0  0  0  0  0  0  0
    7.8449   -2.6693   -0.0246 C   0  0  0  0  0  0  0  0  0  0  0  0
    7.8096   -0.9190   -0.0079 S   0  0  0  0  0  0  0  0  0  0  0  0
    6.0631   -0.9235   -0.0032 C   0  0  0  0  0  0  0  0  0  0  0  0
    5.3189    0.2113    0.0095 N   0  0  0  0  0  0  0  0  0  0  0  0
    4.0305    0.0915    0.0071 C   0  0  0  0  0  0  0  0  0  0  0  0
    3.4107   -1.1507   -0.0091 N   0  0  0  0  0  0  0  0  0  0  0  0
    9.1322   -3.4465   -0.0517 C   0  0  0  0  0  0  0  0  0  0  0  0
    8.8805   -4.9196    0.3124 C   0  0  0  0  0  0  0  0  0  0  0  0
    7.6545   -5.4796   -0.4203 C   0  0  0  0  0  0  0  0  0  0  0  0
    6.3727   -4.7276   -0.0350 C   0  0  0  0  0  0  0  0  0  0  0  0
   -0.4252   -1.0520   -0.0236 C   0  0  0  0  0  0  0  0  0  0  0  0
   -2.2056    0.3412   -0.0157 H   0  0  0  0  0  0  0  0  0  0  0  0
   -0.2155    2.2592    0.0142 H   0  0  0  0  0  0  0  0  0  0  0  0
    3.3727    0.9615    0.0165 H   0  0  0  0  0  0  0  0  0  0  0  0
    9.8708   -2.9986    0.6345 H   0  0  0  0  0  0  0  0  0  0  0  0
    9.5799   -3.3799   -1.0613 H   0  0  0  0  0  0  0  0  0  0  0  0
    8.7222   -5.0027    1.4024 H   0  0  0  0  0  0  0  0  0  0  0  0
    9.7786   -5.5137    0.0789 H   0  0  0  0  0  0  0  0  0  0  0  0
    7.5365   -6.5532   -0.2036 H   0  0  0  0  0  0  0  0  0  0  0  0
    7.8160   -5.3968   -1.5104 H   0  0  0  0  0  0  0  0  0  0  0  0
    6.0334   -5.0423    0.9694 H   0  0  0  0  0  0  0  0  0  0  0  0
    5.5380   -4.9814   -0.7070 H   0  0  0  0  0  0  0  0  0  0  0  0
   -0.8329   -2.0593   -0.0361 H   0  0  0  0  0  0  0  0  0  0  0  0
  1  2  2  0
  1 21  1  0
  1 22  1  0
  2  3  1  0
  2 23  1  0
  3  4  1  0
  4  5  1  0
  4 21  2  0
  5  6  2  0
  5 16  1  0
  6  7  1  0
  7  8  2  0
  8  9  1  0
  8 16  1  0
  9 10  1  0
  9 13  2  0
 10 11  2  0
 10 20  1  0
 11 12  1  0
 11 17  1  0
 12 13  1  0
 13 14  1  0
 14 15  2  0
 15 16  1  0
 15 24  1  0
 17 18  1  0
 17 25  1  0
 17 26  1  0
 18 19  1  0
 18 27  1  0
 18 28  1  0
 19 20  1  0
 19 29  1  0
 19 30  1  0
 20 31  1  0
 20 32  1  0
 21 33  1  0
M  END

