
     RDKit          3D

 31 32  0  0  0  0  0  0  0  0999 V2000
    1.0505    0.0358    0.5959 C   0  0  0  0  0  0  0  0  0  0  0  0
    2.4971   -0.0123    0.1630 C   0  0  0  0  0  0  0  0  0  0  0  0
    3.2722    1.1518    0.2506 C   0  0  0  0  0  0  0  0  0  0  0  0
    4.6353    1.1883   -0.0958 C   0  0  0  0  0  0  0  0  0  0  0  0
    5.3834    2.3474    0.0678 N   0  0  0  0  0  0  0  0  0  0  0  0
    5.2265   -0.0009   -0.5611 C   0  0  0  0  0  0  0  0  0  0  0  0
    4.4609   -1.1565   -0.6790 C   0  0  0  0  0  0  0  0  0  0  0  0
    3.1022   -1.1975   -0.3225 C   0  0  0  0  0  0  0  0  0  0  0  0
    2.4128   -2.4401   -0.4749 N   0  0  0  0  0  0  0  0  0  0  0  0
    1.1824   -2.5337   -1.2466 C   0  0  0  0  0  0  0  0  0  0  0  0
    1.0842   -3.9170   -1.8886 C   0  0  0  0  0  0  0  0  0  0  0  0
    1.2251   -4.9398   -0.9173 O   0  0  0  0  0  0  0  0  0  0  0  0
    2.4715   -4.8580   -0.2599 C   0  0  0  0  0  0  0  0  0  0  0  0
    2.6415   -3.5082    0.4502 C   0  0  2  0  0  0  0  0  0  0  0  0
    1.5734   -3.4880    2.0297 S   0  0  0  0  0  0  0  0  0  0  0  0
    0.8535    0.9382    1.1933 H   0  0  0  0  0  0  0  0  0  0  0  0
    0.7920   -0.8437    1.2034 H   0  0  0  0  0  0  0  0  0  0  0  0
    0.3638    0.0598   -0.2675 H   0  0  0  0  0  0  0  0  0  0  0  0
    2.8019    2.0649    0.6290 H   0  0  0  0  0  0  0  0  0  0  0  0
    4.8653    3.2180    0.0915 H   0  0  0  0  0  0  0  0  0  0  0  0
    6.2373    2.4114   -0.4741 H   0  0  0  0  0  0  0  0  0  0  0  0
    6.2832   -0.0127   -0.8428 H   0  0  0  0  0  0  0  0  0  0  0  0
    4.9196   -2.0680   -1.0711 H   0  0  0  0  0  0  0  0  0  0  0  0
    1.1933   -1.7608   -2.0301 H   0  0  0  0  0  0  0  0  0  0  0  0
    0.2801   -2.3687   -0.6238 H   0  0  0  0  0  0  0  0  0  0  0  0
    1.8680   -4.0245   -2.6662 H   0  0  0  0  0  0  0  0  0  0  0  0
    0.1001   -4.0584   -2.3617 H   0  0  0  0  0  0  0  0  0  0  0  0
    3.2970   -4.9660   -0.9943 H   0  0  0  0  0  0  0  0  0  0  0  0
    2.5206   -5.6875    0.4585 H   0  0  0  0  0  0  0  0  0  0  0  0
    3.6607   -3.4286    0.8521 H   0  0  0  0  0  0  0  0  0  0  0  0
    0.4943   -4.0535    1.4408 H   0  0  0  0  0  0  0  0  0  0  0  0
  1  2  1  0
  1 16  1  0
  1 17  1  0
  1 18  1  0
  2  3  2  0
  2  8  1  0
  3  4  1  0
  3 19  1  0
  4  5  1  0
  4  6  2  0
  5 20  1  0
  5 21  1  0
  6  7  1  0
  6 22  1  0
  7  8  2  0
  7 23  1  0
  8  9  1  0
  9 10  1  0
  9 14  1  0
 10 11  1  0
 10 24  1  0
 10 25  1  0
 11 12  1  0
 11 26  1  0
 11 27  1  0
 12 13  1  0
 13 14  1  0
 13 28  1  0
 13 29  1  0
 14 15  1  0
 14 30  1  1
 15 31  1  0
M  END

