
     RDKit          3D

 45 49  0  0  0  0  0  0  0  0999 V2000
    7.7564   -1.9031   -5.6949 Cl  0  0  0  0  0  0  0  0  0  0  0  0
    7.7174   -1.2394   -4.0730 C   0  0  0  0  0  0  0  0  0  0  0  0
    8.8255   -1.4149   -3.2391 C   0  0  0  0  0  0  0  0  0  0  0  0
    8.7888   -0.8886   -1.9370 C   0  0  0  0  0  0  0  0  0  0  0  0
    7.6575   -0.2161   -1.4949 C   0  0  0  0  0  0  0  0  0  0  0  0
    6.5556   -0.0366   -2.3586 C   0  0  0  0  0  0  0  0  0  0  0  0
    6.5682   -0.5525   -3.6592 C   0  0  0  0  0  0  0  0  0  0  0  0
    5.5686    0.7107   -1.7350 N   0  0  0  0  0  0  0  0  0  0  0  0
    5.8217    0.7317   -0.2926 C   0  0  0  0  0  0  0  0  0  0  0  0
    7.3610    0.4989   -0.1857 C   0  0  1  0  0  0  0  0  0  0  0  0
    7.7666   -0.1898    1.0980 C   0  0  0  0  0  0  0  0  0  0  0  0
    8.2680    0.5616    2.0621 N   0  0  0  0  0  0  0  0  0  0  0  0
    8.5957   -0.0165    3.2544 C   0  0  0  0  0  0  0  0  0  0  0  0
    8.4785   -1.2770    3.6026 N   0  0  0  0  0  0  0  0  0  0  0  0
    7.9738   -2.0717    2.6322 C   0  0  0  0  0  0  0  0  0  0  0  0
    7.7647   -3.3938    2.7366 N   0  0  0  0  0  0  0  0  0  0  0  0
    7.2666   -3.7480    1.5418 N   0  0  0  0  0  0  0  0  0  0  0  0
    6.9103   -5.1500    1.2566 C   0  0  1  0  0  0  0  0  0  0  0  0
    8.1350   -6.0867    1.3027 C   0  0  0  0  0  0  0  0  0  0  0  0
    8.5623   -6.4938    2.7194 C   0  0  0  0  0  0  0  0  0  0  0  0
    7.3822   -7.0594    3.5205 C   0  0  0  0  0  0  0  0  0  0  0  0
    6.2123   -6.0677    3.5683 C   0  0  0  0  0  0  0  0  0  0  0  0
    5.7663   -5.6584    2.1578 C   0  0  0  0  0  0  0  0  0  0  0  0
    7.1395   -2.7267    0.6634 C   0  0  0  0  0  0  0  0  0  0  0  0
    7.5935   -1.5825    1.3348 C   0  0  0  0  0  0  0  0  0  0  0  0
    9.7003   -1.9537   -3.6039 H   0  0  0  0  0  0  0  0  0  0  0  0
    9.6502   -1.0210   -1.2770 H   0  0  0  0  0  0  0  0  0  0  0  0
    5.7238   -0.4290   -4.3388 H   0  0  0  0  0  0  0  0  0  0  0  0
    4.6106    0.6218   -2.0547 H   0  0  0  0  0  0  0  0  0  0  0  0
    5.2790   -0.0827    0.2283 H   0  0  0  0  0  0  0  0  0  0  0  0
    5.5186    1.6857    0.1630 H   0  0  0  0  0  0  0  0  0  0  0  0
    7.8681    1.4784   -0.1741 H   0  0  0  0  0  0  0  0  0  0  0  0
    9.0055    0.6713    4.0042 H   0  0  0  0  0  0  0  0  0  0  0  0
    6.5428   -5.1164    0.2201 H   0  0  0  0  0  0  0  0  0  0  0  0
    8.9700   -5.6225    0.7529 H   0  0  0  0  0  0  0  0  0  0  0  0
    7.8533   -6.9924    0.7360 H   0  0  0  0  0  0  0  0  0  0  0  0
    8.9723   -5.6165    3.2427 H   0  0  0  0  0  0  0  0  0  0  0  0
    9.3723   -7.2392    2.6506 H   0  0  0  0  0  0  0  0  0  0  0  0
    7.7058   -7.3123    4.5435 H   0  0  0  0  0  0  0  0  0  0  0  0
    7.0434   -8.0069    3.0589 H   0  0  0  0  0  0  0  0  0  0  0  0
    6.5164   -5.1706    4.1289 H   0  0  0  0  0  0  0  0  0  0  0  0
    5.3549   -6.5101    4.1028 H   0  0  0  0  0  0  0  0  0  0  0  0
    4.9681   -4.8991    2.1977 H   0  0  0  0  0  0  0  0  0  0  0  0
    5.3358   -6.5377    1.6458 H   0  0  0  0  0  0  0  0  0  0  0  0
    6.7654   -2.8823   -0.3448 H   0  0  0  0  0  0  0  0  0  0  0  0
  1  2  1  0
  2  3  2  0
  2  7  1  0
  3  4  1  0
  3 26  1  0
  4  5  2  0
  4 27  1  0
  5  6  1  0
  5 10  1  0
  6  7  2  0
  6  8  1  0
  7 28  1  0
  8  9  1  0
  8 29  1  0
  9 10  1  0
  9 30  1  0
  9 31  1  0
 10 11  1  0
 10 32  1  6
 11 12  2  0
 11 25  1  0
 12 13  1  0
 13 14  2  0
 13 33  1  0
 14 15  1  0
 15 16  2  0
 15 25  1  0
 16 17  1  0
 17 18  1  0
 17 24  1  0
 18 19  1  0
 18 23  1  0
 18 34  1  6
 19 20  1  0
 19 35  1  0
 19 36  1  0
 20 21  1  0
 20 37  1  0
 20 38  1  0
 21 22  1  0
 21 39  1  0
 21 40  1  0
 22 23  1  0
 22 41  1  0
 22 42  1  0
 23 43  1  0
 23 44  1  0
 24 25  2  0
 24 45  1  0
M  END

