
     RDKit          3D

 29 30  0  0  0  0  0  0  0  0999 V2000
    1.6636    0.3583    1.0858 C   0  0  0  0  0  0  0  0  0  0  0  0
    2.5687    0.0379    0.0516 O   0  0  0  0  0  0  0  0  0  0  0  0
    2.9079    0.9784   -0.8534 C   0  0  0  0  0  0  0  0  0  0  0  0
    2.4125    2.2925   -0.8607 C   0  0  0  0  0  0  0  0  0  0  0  0
    2.8093    3.2016   -1.8421 C   0  0  0  0  0  0  0  0  0  0  0  0
    3.7197    2.8424   -2.8496 C   0  0  0  0  0  0  0  0  0  0  0  0
    4.1490    3.8398   -3.8444 C   0  0  0  0  0  0  0  0  0  0  0  0
    4.4735    5.1828   -3.6609 C   0  0  0  0  0  0  0  0  0  0  0  0
    4.8187    5.6673   -4.9442 C   0  0  0  0  0  0  0  0  0  0  0  0
    5.2585    7.0481   -5.3320 C   0  0  0  0  0  0  0  0  0  0  0  0
    4.7079    4.6994   -5.8542 N   0  0  0  0  0  0  0  0  0  0  0  0
    4.3036    3.6045   -5.1868 N   0  0  0  0  0  0  0  0  0  0  0  0
    4.0583    2.3901   -5.9393 C   0  0  0  0  0  0  0  0  0  0  0  0
    4.2264    1.5274   -2.8332 C   0  0  0  0  0  0  0  0  0  0  0  0
    3.8258    0.6146   -1.8625 C   0  0  0  0  0  0  0  0  0  0  0  0
    4.5390   -1.1499   -1.8839 Br  0  0  0  0  0  0  0  0  0  0  0  0
    1.5497   -0.5517    1.6893 H   0  0  0  0  0  0  0  0  0  0  0  0
    0.6752    0.6519    0.6894 H   0  0  0  0  0  0  0  0  0  0  0  0
    2.0472    1.1703    1.7290 H   0  0  0  0  0  0  0  0  0  0  0  0
    1.6997    2.6114   -0.1001 H   0  0  0  0  0  0  0  0  0  0  0  0
    2.3925    4.2108   -1.8336 H   0  0  0  0  0  0  0  0  0  0  0  0
    4.4855    5.7230   -2.7169 H   0  0  0  0  0  0  0  0  0  0  0  0
    5.2809    7.7136   -4.4572 H   0  0  0  0  0  0  0  0  0  0  0  0
    4.5782    7.4866   -6.0799 H   0  0  0  0  0  0  0  0  0  0  0  0
    6.2660    7.0347   -5.7782 H   0  0  0  0  0  0  0  0  0  0  0  0
    3.7340    2.6803   -6.9467 H   0  0  0  0  0  0  0  0  0  0  0  0
    3.2711    1.7963   -5.4565 H   0  0  0  0  0  0  0  0  0  0  0  0
    4.9685    1.7737   -6.0281 H   0  0  0  0  0  0  0  0  0  0  0  0
    4.9659    1.2109   -3.5688 H   0  0  0  0  0  0  0  0  0  0  0  0
  1  2  1  0
  1 17  1  0
  1 18  1  0
  1 19  1  0
  2  3  1  0
  3  4  2  0
  3 15  1  0
  4  5  1  0
  4 20  1  0
  5  6  2  0
  5 21  1  0
  6  7  1  0
  6 14  1  0
  7  8  2  0
  7 12  1  0
  8  9  1  0
  8 22  1  0
  9 10  1  0
  9 11  2  0
 10 23  1  0
 10 24  1  0
 10 25  1  0
 11 12  1  0
 12 13  1  0
 13 26  1  0
 13 27  1  0
 13 28  1  0
 14 15  2  0
 14 29  1  0
 15 16  1  0
M  END

