
     RDKit          3D

 30 30  0  0  0  0  0  0  0  0999 V2000
    1.1062   -0.3335    0.0365 C   0  0  0  0  0  0  0  0  0  0  0  0
    2.6011   -0.1503    0.0561 C   0  0  0  0  0  0  0  0  0  0  0  0
    3.1922    1.1238    0.0942 C   0  0  0  0  0  0  0  0  0  0  0  0
    4.5910    1.1841    0.1171 C   0  0  0  0  0  0  0  0  0  0  0  0
    5.3319    2.4944    0.1654 C   0  0  0  0  0  0  0  0  0  0  0  0
    5.3359    0.0741    0.1017 N   0  0  0  0  0  0  0  0  0  0  0  0
    4.6801   -1.0989    0.0522 C   0  0  0  0  0  0  0  0  0  0  0  0
    5.4200   -2.2417    0.0082 N   0  0  0  0  0  0  0  0  0  0  0  0
    6.8651   -2.2891    0.0339 C   0  0  0  0  0  0  0  0  0  0  0  0
    7.4531   -2.1721    1.4529 C   0  0  0  0  0  0  0  0  0  0  0  0
    8.9036   -2.2069    1.4788 N   0  0  0  0  0  0  0  0  0  0  0  0
    9.5748   -3.4043    1.3375 C   0  0  0  0  0  0  0  0  0  0  0  0
   10.9535   -3.2788    1.2470 N   0  0  0  0  0  0  0  0  0  0  0  0
    9.0064   -4.4824    1.2807 O   0  0  0  0  0  0  0  0  0  0  0  0
    3.3417   -1.2572    0.0336 N   0  0  0  0  0  0  0  0  0  0  0  0
    0.5702    0.6253    0.0727 H   0  0  0  0  0  0  0  0  0  0  0  0
    0.7922   -0.9528    0.8919 H   0  0  0  0  0  0  0  0  0  0  0  0
    0.8061   -0.8767   -0.8740 H   0  0  0  0  0  0  0  0  0  0  0  0
    2.5850    2.0298    0.1110 H   0  0  0  0  0  0  0  0  0  0  0  0
    4.6500    3.3562    0.1730 H   0  0  0  0  0  0  0  0  0  0  0  0
    6.0047    2.5785   -0.7032 H   0  0  0  0  0  0  0  0  0  0  0  0
    5.9680    2.5347    1.0643 H   0  0  0  0  0  0  0  0  0  0  0  0
    4.8843   -3.1007    0.0139 H   0  0  0  0  0  0  0  0  0  0  0  0
    7.2587   -1.4702   -0.5885 H   0  0  0  0  0  0  0  0  0  0  0  0
    7.1912   -3.2444   -0.4034 H   0  0  0  0  0  0  0  0  0  0  0  0
    7.0813   -3.0042    2.0685 H   0  0  0  0  0  0  0  0  0  0  0  0
    7.1155   -1.2288    1.9080 H   0  0  0  0  0  0  0  0  0  0  0  0
    9.3939   -1.3545    1.2334 H   0  0  0  0  0  0  0  0  0  0  0  0
   11.4038   -2.4995    1.7143 H   0  0  0  0  0  0  0  0  0  0  0  0
   11.4446   -4.1622    1.3267 H   0  0  0  0  0  0  0  0  0  0  0  0
  1  2  1  0
  1 16  1  0
  1 17  1  0
  1 18  1  0
  2  3  2  0
  2 15  1  0
  3  4  1  0
  3 19  1  0
  4  5  1  0
  4  6  2  0
  5 20  1  0
  5 21  1  0
  5 22  1  0
  6  7  1  0
  7  8  1  0
  7 15  2  0
  8  9  1  0
  8 23  1  0
  9 10  1  0
  9 24  1  0
  9 25  1  0
 10 11  1  0
 10 26  1  0
 10 27  1  0
 11 12  1  0
 11 28  1  0
 12 13  1  0
 12 14  2  0
 13 29  1  0
 13 30  1  0
M  END

