
     RDKit          3D

 43 42  0  0  0  0  0  0  0  0999 V2000
    1.0783   -0.7255   -0.9828 C   0  0  0  0  0  0  0  0  0  0  0  0
    2.2035   -0.3743   -0.7007 C   0  0  0  0  0  0  0  0  0  0  0  0
    3.5657    0.0513   -0.3774 C   0  0  0  0  0  0  0  0  0  0  0  0
    4.3820    0.5095   -1.6006 C   0  0  0  0  0  0  0  0  0  0  0  0
    5.8080    0.9251   -1.2370 C   0  0  0  0  0  0  0  0  0  0  0  0
    6.5921    1.4956   -2.4365 C   0  0  1  0  0  0  0  0  0  0  0  0
    6.0235    2.7814   -2.8210 N   0  0  0  0  0  0  0  0  0  0  0  0
    5.9852    3.2219   -4.2038 C   0  0  0  0  0  0  0  0  0  0  0  0
    4.8543    4.2240   -4.4670 C   0  0  0  0  0  0  0  0  0  0  0  0
    4.9861    5.5376   -3.6935 C   0  0  0  0  0  0  0  0  0  0  0  0
    8.1503    1.4779   -2.1940 C   0  0  1  0  0  0  0  0  0  0  0  0
    8.9019    1.9390   -3.4532 C   0  0  0  0  0  0  0  0  0  0  0  0
    8.5342    2.3435   -0.9752 C   0  0  0  0  0  0  0  0  0  0  0  0
   10.0297    2.4019   -0.6570 C   0  0  0  0  0  0  0  0  0  0  0  0
    8.5569    0.1502   -1.8152 O   0  0  0  0  0  0  0  0  0  0  0  0
    8.5562   -0.8725   -2.7789 C   0  0  0  0  0  0  0  0  0  0  0  0
    0.0809   -1.0362   -1.2288 H   0  0  0  0  0  0  0  0  0  0  0  0
    4.0901   -0.7790    0.1301 H   0  0  0  0  0  0  0  0  0  0  0  0
    3.5192    0.8715    0.3622 H   0  0  0  0  0  0  0  0  0  0  0  0
    3.8720    1.3563   -2.0861 H   0  0  0  0  0  0  0  0  0  0  0  0
    4.4056   -0.3095   -2.3409 H   0  0  0  0  0  0  0  0  0  0  0  0
    6.3600    0.0685   -0.8192 H   0  0  0  0  0  0  0  0  0  0  0  0
    5.7668    1.6899   -0.4406 H   0  0  0  0  0  0  0  0  0  0  0  0
    6.4130    0.8216   -3.2926 H   0  0  0  0  0  0  0  0  0  0  0  0
    6.2718    3.5239   -2.1737 H   0  0  0  0  0  0  0  0  0  0  0  0
    5.8216    2.3302   -4.8324 H   0  0  0  0  0  0  0  0  0  0  0  0
    6.9377    3.6726   -4.5622 H   0  0  0  0  0  0  0  0  0  0  0  0
    3.8917    3.7440   -4.2205 H   0  0  0  0  0  0  0  0  0  0  0  0
    4.8350    4.4397   -5.5502 H   0  0  0  0  0  0  0  0  0  0  0  0
    4.9208    5.3749   -2.6050 H   0  0  0  0  0  0  0  0  0  0  0  0
    4.1829    6.2423   -3.9614 H   0  0  0  0  0  0  0  0  0  0  0  0
    5.9480    6.0361   -3.9052 H   0  0  0  0  0  0  0  0  0  0  0  0
    8.8008    3.0243   -3.5937 H   0  0  0  0  0  0  0  0  0  0  0  0
    8.5211    1.4524   -4.3637 H   0  0  0  0  0  0  0  0  0  0  0  0
    9.9741    1.7087   -3.3672 H   0  0  0  0  0  0  0  0  0  0  0  0
    8.0047    1.9395   -0.0987 H   0  0  0  0  0  0  0  0  0  0  0  0
    8.1490    3.3654   -1.1352 H   0  0  0  0  0  0  0  0  0  0  0  0
   10.4379    1.3860   -0.5502 H   0  0  0  0  0  0  0  0  0  0  0  0
   10.2027    2.9404    0.2883 H   0  0  0  0  0  0  0  0  0  0  0  0
   10.6062    2.9215   -1.4385 H   0  0  0  0  0  0  0  0  0  0  0  0
    8.8500   -1.7972   -2.2596 H   0  0  0  0  0  0  0  0  0  0  0  0
    9.2817   -0.6967   -3.5950 H   0  0  0  0  0  0  0  0  0  0  0  0
    7.5626   -1.0441   -3.2361 H   0  0  0  0  0  0  0  0  0  0  0  0
  1  2  3  0
  1 17  1  0
  2  3  1  0
  3  4  1  0
  3 18  1  0
  3 19  1  0
  4  5  1  0
  4 20  1  0
  4 21  1  0
  5  6  1  0
  5 22  1  0
  5 23  1  0
  6  7  1  0
  6 11  1  0
  6 24  1  6
  7  8  1  0
  7 25  1  0
  8  9  1  0
  8 26  1  0
  8 27  1  0
  9 10  1  0
  9 28  1  0
  9 29  1  0
 10 30  1  0
 10 31  1  0
 10 32  1  0
 11 12  1  0
 11 13  1  0
 11 15  1  1
 12 33  1  0
 12 34  1  0
 12 35  1  0
 13 14  1  0
 13 36  1  0
 13 37  1  0
 14 38  1  0
 14 39  1  0
 14 40  1  0
 15 16  1  0
 16 41  1  0
 16 42  1  0
 16 43  1  0
M  END

