
     RDKit          3D

 33 34  0  0  0  0  0  0  0  0999 V2000
    3.4522    2.0155   -2.1804 C   0  0  0  0  0  0  0  0  0  0  0  0
    3.7445    0.9603   -1.1437 C   0  0  0  0  0  0  0  0  0  0  0  0
    3.3342    1.1318    0.1917 C   0  0  0  0  0  0  0  0  0  0  0  0
    3.6462    0.1292    1.1044 C   0  0  0  0  0  0  0  0  0  0  0  0
    4.2998   -0.9899    0.7927 N   0  0  0  0  0  0  0  0  0  0  0  0
    4.6871   -1.1847   -0.4774 C   0  0  0  0  0  0  0  0  0  0  0  0
    5.3262   -2.3850   -0.7530 N   0  0  0  0  0  0  0  0  0  0  0  0
    5.8335   -3.2140    0.3354 C   0  0  0  0  0  0  0  0  0  0  0  0
    5.6975   -4.6853   -0.0290 C   0  0  0  0  0  0  0  0  0  0  0  0
    6.2999   -4.9747   -1.2769 O   0  0  0  0  0  0  0  0  0  0  0  0
    5.8240   -4.1917   -2.3784 C   0  0  2  0  0  0  0  0  0  0  0  0
    4.3718   -4.5582   -2.7256 C   0  0  0  0  0  0  0  0  0  0  0  0
    6.7581   -4.5336   -3.5376 C   0  0  0  0  0  0  0  0  0  0  0  0
    5.9456   -2.6874   -2.0307 C   0  0  0  0  0  0  0  0  0  0  0  0
    4.4307   -0.2063   -1.4750 C   0  0  0  0  0  0  0  0  0  0  0  0
    3.8778    2.9885   -1.8841 H   0  0  0  0  0  0  0  0  0  0  0  0
    2.3653    2.1641   -2.2937 H   0  0  0  0  0  0  0  0  0  0  0  0
    3.8630    1.7488   -3.1652 H   0  0  0  0  0  0  0  0  0  0  0  0
    2.7957    2.0275    0.5097 H   0  0  0  0  0  0  0  0  0  0  0  0
    3.3525    0.2349    2.1564 H   0  0  0  0  0  0  0  0  0  0  0  0
    5.2721   -2.9755    1.2460 H   0  0  0  0  0  0  0  0  0  0  0  0
    6.9030   -2.9797    0.5191 H   0  0  0  0  0  0  0  0  0  0  0  0
    4.6291   -4.9754   -0.0244 H   0  0  0  0  0  0  0  0  0  0  0  0
    6.2163   -5.3087    0.7157 H   0  0  0  0  0  0  0  0  0  0  0  0
    4.2779   -5.6501   -2.8273 H   0  0  0  0  0  0  0  0  0  0  0  0
    4.0733   -4.0941   -3.6787 H   0  0  0  0  0  0  0  0  0  0  0  0
    3.6657   -4.2158   -1.9553 H   0  0  0  0  0  0  0  0  0  0  0  0
    6.6746   -5.6029   -3.7834 H   0  0  0  0  0  0  0  0  0  0  0  0
    7.8024   -4.3300   -3.2570 H   0  0  0  0  0  0  0  0  0  0  0  0
    6.5095   -3.9475   -4.4361 H   0  0  0  0  0  0  0  0  0  0  0  0
    5.4724   -2.1109   -2.8340 H   0  0  0  0  0  0  0  0  0  0  0  0
    7.0215   -2.4157   -2.0122 H   0  0  0  0  0  0  0  0  0  0  0  0
    4.7671   -0.3432   -2.5022 H   0  0  0  0  0  0  0  0  0  0  0  0
  1  2  1  0
  1 16  1  0
  1 17  1  0
  1 18  1  0
  2  3  2  0
  2 15  1  0
  3  4  1  0
  3 19  1  0
  4  5  2  0
  4 20  1  0
  5  6  1  0
  6  7  1  0
  6 15  2  0
  7  8  1  0
  7 14  1  0
  8  9  1  0
  8 21  1  0
  8 22  1  0
  9 10  1  0
  9 23  1  0
  9 24  1  0
 10 11  1  0
 11 12  1  6
 11 13  1  0
 11 14  1  0
 12 25  1  0
 12 26  1  0
 12 27  1  0
 13 28  1  0
 13 29  1  0
 13 30  1  0
 14 31  1  0
 14 32  1  0
 15 33  1  0
M  END

