
     RDKit          3D

 47 49  0  0  0  0  0  0  0  0999 V2000
    4.5652    2.0993   -0.7852 C   0  0  0  0  0  0  0  0  0  0  0  0
    4.9550    0.9757   -0.0240 O   0  0  0  0  0  0  0  0  0  0  0  0
    6.2765    0.7956    0.2792 C   0  0  0  0  0  0  0  0  0  0  0  0
    7.3064    1.6202   -0.1891 C   0  0  0  0  0  0  0  0  0  0  0  0
    8.6322    1.3421    0.1687 C   0  0  0  0  0  0  0  0  0  0  0  0
    8.9321    0.2528    0.9844 C   0  0  0  0  0  0  0  0  0  0  0  0
    7.8933   -0.5641    1.4487 C   0  0  0  0  0  0  0  0  0  0  0  0
    6.5619   -0.3090    1.1137 C   0  0  0  0  0  0  0  0  0  0  0  0
    5.4285   -1.1752    1.6242 C   0  0  0  0  0  0  0  0  0  0  0  0
    4.7324   -1.9012    0.5712 N   0  0  0  0  0  0  0  0  0  0  0  0
    4.8828   -3.2422    0.3743 C   0  0  0  0  0  0  0  0  0  0  0  0
    5.5327   -3.9521    1.1325 O   0  0  0  0  0  0  0  0  0  0  0  0
    4.1970   -3.7823   -0.8858 C   0  0  1  0  0  0  0  0  0  0  0  0
    5.1976   -3.8248   -2.0696 C   0  0  0  0  0  0  0  0  0  0  0  0
    6.1902   -4.9876   -1.9612 C   0  0  0  0  0  0  0  0  0  0  0  0
    5.4666   -6.2498   -1.8222 N   0  0  0  0  0  0  0  0  0  0  0  0
    5.7300   -7.2660   -2.7088 C   0  0  0  0  0  0  0  0  0  0  0  0
    6.6232   -7.1842   -3.5446 O   0  0  0  0  0  0  0  0  0  0  0  0
    4.8997   -8.5122   -2.6800 C   0  0  0  0  0  0  0  0  0  0  0  0
    5.4176   -9.7882   -3.1034 C   0  0  0  0  0  0  0  0  0  0  0  0
    4.3665  -10.6526   -3.0880 C   0  0  0  0  0  0  0  0  0  0  0  0
    3.2298  -10.0072   -2.7082 O   0  0  0  0  0  0  0  0  0  0  0  0
    3.5596   -8.7189   -2.4645 C   0  0  0  0  0  0  0  0  0  0  0  0
    4.6188   -6.3003   -0.6336 C   0  0  0  0  0  0  0  0  0  0  0  0
    3.5729   -5.1768   -0.6609 C   0  0  0  0  0  0  0  0  0  0  0  0
    3.4706    2.0591   -0.8670 H   0  0  0  0  0  0  0  0  0  0  0  0
    5.0011    2.0794   -1.8000 H   0  0  0  0  0  0  0  0  0  0  0  0
    4.8531    3.0447   -0.2928 H   0  0  0  0  0  0  0  0  0  0  0  0
    7.0921    2.4749   -0.8308 H   0  0  0  0  0  0  0  0  0  0  0  0
    9.4312    1.9892   -0.2021 H   0  0  0  0  0  0  0  0  0  0  0  0
    9.9665    0.0350    1.2594 H   0  0  0  0  0  0  0  0  0  0  0  0
    8.1182   -1.4226    2.0874 H   0  0  0  0  0  0  0  0  0  0  0  0
    4.6983   -0.5485    2.1633 H   0  0  0  0  0  0  0  0  0  0  0  0
    5.8158   -1.9298    2.3203 H   0  0  0  0  0  0  0  0  0  0  0  0
    4.2342   -1.3454   -0.1136 H   0  0  0  0  0  0  0  0  0  0  0  0
    3.3873   -3.0809   -1.1500 H   0  0  0  0  0  0  0  0  0  0  0  0
    5.7470   -2.8709   -2.1364 H   0  0  0  0  0  0  0  0  0  0  0  0
    4.6261   -3.9348   -3.0070 H   0  0  0  0  0  0  0  0  0  0  0  0
    6.8483   -4.8450   -1.0860 H   0  0  0  0  0  0  0  0  0  0  0  0
    6.8199   -5.0595   -2.8559 H   0  0  0  0  0  0  0  0  0  0  0  0
    6.4477   -9.9922   -3.3837 H   0  0  0  0  0  0  0  0  0  0  0  0
    4.2614  -11.7105   -3.3137 H   0  0  0  0  0  0  0  0  0  0  0  0
    2.7366   -8.0668   -2.1851 H   0  0  0  0  0  0  0  0  0  0  0  0
    5.2522   -6.1663    0.2577 H   0  0  0  0  0  0  0  0  0  0  0  0
    4.1382   -7.2810   -0.5576 H   0  0  0  0  0  0  0  0  0  0  0  0
    2.9985   -5.1895    0.2795 H   0  0  0  0  0  0  0  0  0  0  0  0
    2.8594   -5.3681   -1.4818 H   0  0  0  0  0  0  0  0  0  0  0  0
  1  2  1  0
  1 26  1  0
  1 27  1  0
  1 28  1  0
  2  3  1  0
  3  4  2  0
  3  8  1  0
  4  5  1  0
  4 29  1  0
  5  6  2  0
  5 30  1  0
  6  7  1  0
  6 31  1  0
  7  8  2  0
  7 32  1  0
  8  9  1  0
  9 10  1  0
  9 33  1  0
  9 34  1  0
 10 11  1  0
 10 35  1  0
 11 12  2  0
 11 13  1  0
 13 14  1  0
 13 25  1  0
 13 36  1  6
 14 15  1  0
 14 37  1  0
 14 38  1  0
 15 16  1  0
 15 39  1  0
 15 40  1  0
 16 17  1  0
 16 24  1  0
 17 18  2  0
 17 19  1  0
 19 20  1  0
 19 23  2  0
 20 21  2  0
 20 41  1  0
 21 22  1  0
 21 42  1  0
 22 23  1  0
 23 43  1  0
 24 25  1  0
 24 44  1  0
 24 45  1  0
 25 46  1  0
 25 47  1  0
M  END

