
     RDKit          3D

 43 44  0  0  0  0  0  0  0  0999 V2000
    6.3939   -4.8890    8.1199 C   0  0  0  0  0  0  0  0  0  0  0  0
    5.8911   -4.6489    6.6972 C   0  0  0  0  0  0  0  0  0  0  0  0
    5.7267   -3.1659    6.3660 C   0  0  0  0  0  0  0  0  0  0  0  0
    5.2597   -2.9896    5.0061 N   0  0  0  0  0  0  0  0  0  0  0  0
    5.0478   -1.7880    4.4138 C   0  0  0  0  0  0  0  0  0  0  0  0
    5.3260   -0.5607    5.0659 C   0  0  0  0  0  0  0  0  0  0  0  0
    5.0317    0.6383    4.4300 C   0  0  0  0  0  0  0  0  0  0  0  0
    4.4725    0.7375    3.2163 N   0  0  0  0  0  0  0  0  0  0  0  0
    4.2456   -0.4095    2.5800 C   0  0  0  0  0  0  0  0  0  0  0  0
    4.5387   -1.6892    3.0758 C   0  0  0  0  0  0  0  0  0  0  0  0
    4.2247   -2.9228    2.2981 C   0  0  0  0  0  0  0  0  0  0  0  0
    3.7771   -3.9202    2.8936 O   0  0  0  0  0  0  0  0  0  0  0  0
    4.4015   -2.9508    0.9395 N   0  0  0  0  0  0  0  0  0  0  0  0
    3.7567   -4.0438    0.1917 C   0  0  0  0  0  0  0  0  0  0  0  0
    4.4011   -5.4392    0.3010 C   0  0  0  0  0  0  0  0  0  0  0  0
    3.9573   -6.1843    1.3970 O   0  0  0  0  0  0  0  0  0  0  0  0
    5.3061   -2.0633    0.2124 C   0  0  1  0  0  0  0  0  0  0  0  0
    6.3561   -2.6451   -0.7771 C   0  0  0  0  0  0  0  0  0  0  0  0
    6.1533   -1.3746   -1.6436 C   0  0  0  0  0  0  0  0  0  0  0  0
    4.7988   -1.1390   -0.9263 C   0  0  0  0  0  0  0  0  0  0  0  0
    6.4974   -5.9651    8.3278 H   0  0  0  0  0  0  0  0  0  0  0  0
    5.7008   -4.4711    8.8688 H   0  0  0  0  0  0  0  0  0  0  0  0
    7.3799   -4.4229    8.2830 H   0  0  0  0  0  0  0  0  0  0  0  0
    4.9202   -5.1564    6.5544 H   0  0  0  0  0  0  0  0  0  0  0  0
    6.5858   -5.1004    5.9677 H   0  0  0  0  0  0  0  0  0  0  0  0
    6.6963   -2.6507    6.4969 H   0  0  0  0  0  0  0  0  0  0  0  0
    5.0283   -2.6994    7.0909 H   0  0  0  0  0  0  0  0  0  0  0  0
    4.7924   -3.7710    4.5488 H   0  0  0  0  0  0  0  0  0  0  0  0
    5.7434   -0.5474    6.0726 H   0  0  0  0  0  0  0  0  0  0  0  0
    5.2456    1.5831    4.9449 H   0  0  0  0  0  0  0  0  0  0  0  0
    3.7691   -0.3253    1.5972 H   0  0  0  0  0  0  0  0  0  0  0  0
    3.7308   -3.7333   -0.8620 H   0  0  0  0  0  0  0  0  0  0  0  0
    2.7112   -4.1314    0.5281 H   0  0  0  0  0  0  0  0  0  0  0  0
    5.5070   -5.3199    0.2864 H   0  0  0  0  0  0  0  0  0  0  0  0
    4.1373   -6.0032   -0.6123 H   0  0  0  0  0  0  0  0  0  0  0  0
    3.8658   -5.5506    2.1347 H   0  0  0  0  0  0  0  0  0  0  0  0
    5.8381   -1.4588    0.9553 H   0  0  0  0  0  0  0  0  0  0  0  0
    5.9933   -3.5414   -1.3002 H   0  0  0  0  0  0  0  0  0  0  0  0
    7.3584   -2.8587   -0.3751 H   0  0  0  0  0  0  0  0  0  0  0  0
    6.1281   -1.5119   -2.7341 H   0  0  0  0  0  0  0  0  0  0  0  0
    6.8872   -0.5889   -1.4077 H   0  0  0  0  0  0  0  0  0  0  0  0
    3.9629   -1.5917   -1.4823 H   0  0  0  0  0  0  0  0  0  0  0  0
    4.5208   -0.1089   -0.6556 H   0  0  0  0  0  0  0  0  0  0  0  0
  1  2  1  0
  1 21  1  0
  1 22  1  0
  1 23  1  0
  2  3  1  0
  2 24  1  0
  2 25  1  0
  3  4  1  0
  3 26  1  0
  3 27  1  0
  4  5  1  0
  4 28  1  0
  5  6  2  0
  5 10  1  0
  6  7  1  0
  6 29  1  0
  7  8  2  0
  7 30  1  0
  8  9  1  0
  9 10  2  0
  9 31  1  0
 10 11  1  0
 11 12  2  0
 11 13  1  0
 13 14  1  0
 13 17  1  0
 14 15  1  0
 14 32  1  0
 14 33  1  0
 15 16  1  0
 15 34  1  0
 15 35  1  0
 16 36  1  0
 17 18  1  0
 17 20  1  0
 17 37  1  1
 18 19  1  0
 18 38  1  0
 18 39  1  0
 19 20  1  0
 19 40  1  0
 19 41  1  0
 20 42  1  0
 20 43  1  0
M  END

