
     RDKit          3D

 65 68  0  0  0  0  0  0  0  0999 V2000
    1.3718   -1.3147   -1.0446 C   0  0  0  0  0  0  0  0  0  0  0  0
    1.2729   -0.6447    0.3335 C   0  0  1  0  0  0  0  0  0  0  0  0
    1.4757    0.8735    0.2269 C   0  0  0  0  0  0  0  0  0  0  0  0
   -0.0761   -0.9578    0.9852 C   0  0  0  0  0  0  0  0  0  0  0  0
    2.2325   -1.2167    1.2517 O   0  0  0  0  0  0  0  0  0  0  0  0
    3.6045   -1.1355    0.9583 C   0  0  0  0  0  0  0  0  0  0  0  0
    4.3505   -1.7990    2.1251 C   0  0  1  0  0  0  0  0  0  0  0  0
    4.2193   -1.1759    3.0265 H   0  0  0  0  0  0  0  0  0  0  0  0
    3.8260   -3.1313    2.3187 N   0  0  0  0  0  0  0  0  0  0  0  0
    4.4227   -4.0059    3.1710 C   0  0  0  0  0  0  0  0  0  0  0  0
    5.5171   -3.8346    3.6765 O   0  0  0  0  0  0  0  0  0  0  0  0
    3.6465   -5.0975    3.3514 O   0  0  0  0  0  0  0  0  0  0  0  0
    4.1093   -6.1110    4.2463 C   0  0  0  0  0  0  0  0  0  0  0  0
    3.1910   -6.2294    5.4670 C   0  0  2  0  0  0  0  0  0  0  0  0
    1.7468   -6.5998    5.1609 C   0  0  0  0  0  0  0  0  0  0  0  0
    1.2476   -7.6752    4.4304 C   0  0  0  0  0  0  0  0  0  0  0  0
   -0.1401   -7.8232    4.2965 C   0  0  0  0  0  0  0  0  0  0  0  0
   -1.0139   -6.9043    4.8923 C   0  0  0  0  0  0  0  0  0  0  0  0
   -0.5176   -5.8235    5.6288 C   0  0  0  0  0  0  0  0  0  0  0  0
    0.8670   -5.6724    5.7599 C   0  0  0  0  0  0  0  0  0  0  0  0
    1.6652   -4.6525    6.4571 C   0  0  0  0  0  0  0  0  0  0  0  0
    1.2750   -3.5304    7.1957 C   0  0  0  0  0  0  0  0  0  0  0  0
    2.2625   -2.7100    7.7510 C   0  0  0  0  0  0  0  0  0  0  0  0
    3.6202   -3.0043    7.5692 C   0  0  0  0  0  0  0  0  0  0  0  0
    4.0142   -4.1305    6.8331 C   0  0  0  0  0  0  0  0  0  0  0  0
    3.0341   -4.9539    6.2832 C   0  0  0  0  0  0  0  0  0  0  0  0
    5.8513   -1.7808    1.8441 C   0  0  0  0  0  0  0  0  0  0  0  0
    6.6103   -0.9618    2.2741 O   0  0  0  0  0  0  0  0  0  0  0  0
    6.2013   -2.7531    0.9475 O   0  0  0  0  0  0  0  0  0  0  0  0
    7.5364   -3.0382    0.7377 C   0  0  0  0  0  0  0  0  0  0  0  0
    8.3472   -3.4558    1.8004 C   0  0  0  0  0  0  0  0  0  0  0  0
    9.6725   -3.7976    1.5465 C   0  0  0  0  0  0  0  0  0  0  0  0
   10.1572   -3.7220    0.2378 C   0  0  0  0  0  0  0  0  0  0  0  0
   11.5610   -4.0896   -0.0296 N   0  0  0  0  0  0  0  0  0  0  0  0
   12.2435   -4.4429    0.9189 O   0  0  0  0  0  0  0  0  0  0  0  0
   11.9539   -4.0188   -1.1837 O   0  0  0  0  0  0  0  0  0  0  0  0
    9.3509   -3.3146   -0.8259 C   0  0  0  0  0  0  0  0  0  0  0  0
    8.0260   -2.9667   -0.5693 C   0  0  0  0  0  0  0  0  0  0  0  0
    0.5543   -0.9684   -1.6953 H   0  0  0  0  0  0  0  0  0  0  0  0
    1.2931   -2.4089   -0.9485 H   0  0  0  0  0  0  0  0  0  0  0  0
    2.3181   -1.0782   -1.5551 H   0  0  0  0  0  0  0  0  0  0  0  0
    0.6669    1.3261   -0.3671 H   0  0  0  0  0  0  0  0  0  0  0  0
    2.4258    1.1321   -0.2658 H   0  0  0  0  0  0  0  0  0  0  0  0
    1.4672    1.3326    1.2276 H   0  0  0  0  0  0  0  0  0  0  0  0
   -0.9049   -0.5535    0.3847 H   0  0  0  0  0  0  0  0  0  0  0  0
   -0.1227   -0.5169    1.9923 H   0  0  0  0  0  0  0  0  0  0  0  0
   -0.2126   -2.0457    1.0817 H   0  0  0  0  0  0  0  0  0  0  0  0
    3.9578   -0.0923    0.8700 H   0  0  0  0  0  0  0  0  0  0  0  0
    3.8575   -1.6685    0.0231 H   0  0  0  0  0  0  0  0  0  0  0  0
    2.8464   -3.2657    2.0889 H   0  0  0  0  0  0  0  0  0  0  0  0
    5.1395   -5.8787    4.5504 H   0  0  0  0  0  0  0  0  0  0  0  0
    4.1143   -7.0575    3.6828 H   0  0  0  0  0  0  0  0  0  0  0  0
    3.6399   -7.0181    6.1025 H   0  0  0  0  0  0  0  0  0  0  0  0
    1.9211   -8.4006    3.9650 H   0  0  0  0  0  0  0  0  0  0  0  0
   -0.5432   -8.6628    3.7246 H   0  0  0  0  0  0  0  0  0  0  0  0
   -2.0935   -7.0341    4.7810 H   0  0  0  0  0  0  0  0  0  0  0  0
   -1.2045   -5.1107    6.0922 H   0  0  0  0  0  0  0  0  0  0  0  0
    0.2173   -3.2938    7.3377 H   0  0  0  0  0  0  0  0  0  0  0  0
    1.9729   -1.8289    8.3295 H   0  0  0  0  0  0  0  0  0  0  0  0
    4.3799   -2.3492    8.0028 H   0  0  0  0  0  0  0  0  0  0  0  0
    5.0757   -4.3429    6.6855 H   0  0  0  0  0  0  0  0  0  0  0  0
    7.9216   -3.5227    2.8025 H   0  0  0  0  0  0  0  0  0  0  0  0
   10.3385   -4.1288    2.3426 H   0  0  0  0  0  0  0  0  0  0  0  0
    9.7715   -3.2734   -1.8301 H   0  0  0  0  0  0  0  0  0  0  0  0
    7.3625   -2.6414   -1.3723 H   0  0  0  0  0  0  0  0  0  0  0  0
  1  2  1  0
  1 39  1  0
  1 40  1  0
  1 41  1  0
  2  3  1  0
  2  4  1  0
  2  5  1  1
  3 42  1  0
  3 43  1  0
  3 44  1  0
  4 45  1  0
  4 46  1  0
  4 47  1  0
  5  6  1  0
  6  7  1  0
  6 48  1  0
  6 49  1  0
  7  8  1  1
  7  9  1  0
  7 27  1  0
  9 10  1  0
  9 50  1  0
 10 11  2  0
 10 12  1  0
 12 13  1  0
 13 14  1  0
 13 51  1  0
 13 52  1  0
 14 15  1  0
 14 26  1  0
 14 53  1  1
 15 16  2  0
 15 20  1  0
 16 17  1  0
 16 54  1  0
 17 18  2  0
 17 55  1  0
 18 19  1  0
 18 56  1  0
 19 20  2  0
 19 57  1  0
 20 21  1  0
 21 22  2  0
 21 26  1  0
 22 23  1  0
 22 58  1  0
 23 24  2  0
 23 59  1  0
 24 25  1  0
 24 60  1  0
 25 26  2  0
 25 61  1  0
 27 28  2  0
 27 29  1  0
 29 30  1  0
 30 31  2  0
 30 38  1  0
 31 32  1  0
 31 62  1  0
 32 33  2  0
 32 63  1  0
 33 34  1  0
 33 37  1  0
 34 35  2  0
 34 36  1  0
 37 38  2  0
 37 64  1  0
 38 65  1  0
M  CHG  2  34   1  36  -1
M  END

