
     RDKit          3D

 97106  0  0  0  0  0  0  0  0999 V2000
   -0.8927   -0.9395    0.3766 C   0  0  0  0  0  0  0  0  0  0  0  0
    0.4626   -0.5598    0.2787 O   0  0  0  0  0  0  0  0  0  0  0  0
    1.4200   -1.3419    0.8294 C   0  0  0  0  0  0  0  0  0  0  0  0
    2.7457   -0.8990    0.6855 C   0  0  0  0  0  0  0  0  0  0  0  0
    3.7744   -1.6493    1.2289 C   0  0  0  0  0  0  0  0  0  0  0  0
    3.5418   -2.8665    1.9065 C   0  0  0  0  0  0  0  0  0  0  0  0
    4.7264   -3.5958    2.4250 C   0  0  0  0  0  0  0  0  0  0  0  0
    5.8080   -2.8644    2.7381 N   0  0  0  0  0  0  0  0  0  0  0  0
    6.8704   -3.5230    3.2175 C   0  0  0  0  0  0  0  0  0  0  0  0
    8.0976   -2.7809    3.5962 C   0  0  0  0  0  0  0  0  0  0  0  0
    9.2835   -3.5357    3.7531 C   0  0  0  0  0  0  0  0  0  0  0  0
   10.4923   -2.9548    4.0920 C   0  0  0  0  0  0  0  0  0  0  0  0
   10.5529   -1.5674    4.3063 C   0  0  0  0  0  0  0  0  0  0  0  0
   11.7634   -1.0629    4.6374 O   0  0  0  0  0  0  0  0  0  0  0  0
   11.9064    0.3222    4.8664 C   0  0  0  0  0  0  0  0  0  0  0  0
    9.3853   -0.8036    4.1739 C   0  0  0  0  0  0  0  0  0  0  0  0
    8.1531   -1.3787    3.8186 C   0  0  0  0  0  0  0  0  0  0  0  0
    6.9656   -0.4503    3.7216 C   0  0  0  0  0  0  0  0  0  0  0  0
    6.8909   -4.8614    3.3644 N   0  0  0  0  0  0  0  0  0  0  0  0
    5.7921   -5.5224    2.9967 C   0  0  0  0  0  0  0  0  0  0  0  0
    5.8105   -7.0071    3.1548 C   0  0  0  0  0  0  0  0  0  0  0  0
    6.5690   -7.5281    4.2194 C   0  0  0  0  0  0  0  0  0  0  0  0
    6.6338   -8.8958    4.4695 C   0  0  0  0  0  0  0  0  0  0  0  0
    5.9488   -9.7785    3.6284 C   0  0  0  0  0  0  0  0  0  0  0  0
    6.0008  -11.1939    3.8586 N   0  0  0  0  0  0  0  0  0  0  0  0
    5.0335  -11.7902    4.6853 C   0  0  0  0  0  0  0  0  0  0  0  0
    4.0272  -10.9981    5.2853 C   0  0  0  0  0  0  0  0  0  0  0  0
    3.0609  -11.5670    6.1078 C   0  0  0  0  0  0  0  0  0  0  0  0
    3.0685  -12.9426    6.3573 C   0  0  0  0  0  0  0  0  0  0  0  0
    4.0581  -13.7248    5.7680 C   0  0  0  0  0  0  0  0  0  0  0  0
    5.0460  -13.1800    4.9335 C   0  0  0  0  0  0  0  0  0  0  0  0
    6.0955  -14.1143    4.3195 C   0  0  2  0  0  0  0  0  0  0  0  0
    5.4244  -15.2372    3.5064 C   0  0  0  0  0  0  0  0  0  0  0  0
    4.6249  -15.1235    2.3727 C   0  0  0  0  0  0  0  0  0  0  0  0
    4.1105  -16.2864    1.7844 C   0  0  0  0  0  0  0  0  0  0  0  0
    4.3958  -17.5464    2.3282 C   0  0  0  0  0  0  0  0  0  0  0  0
    5.1990  -17.6643    3.4671 C   0  0  0  0  0  0  0  0  0  0  0  0
    5.7135  -16.5031    4.0553 C   0  0  0  0  0  0  0  0  0  0  0  0
    6.5714  -16.3175    5.2360 C   0  0  0  0  0  0  0  0  0  0  0  0
    7.1287  -17.2473    6.1215 C   0  0  0  0  0  0  0  0  0  0  0  0
    7.9204  -16.7845    7.1775 C   0  0  0  0  0  0  0  0  0  0  0  0
    8.1524  -15.4125    7.3467 C   0  0  0  0  0  0  0  0  0  0  0  0
    7.5950  -14.4812    6.4606 C   0  0  0  0  0  0  0  0  0  0  0  0
    6.8065  -14.9384    5.4085 C   0  0  0  0  0  0  0  0  0  0  0  0
    7.1073  -13.3455    3.4614 C   0  0  0  0  0  0  0  0  0  0  0  0
    8.1500  -14.0538    2.8446 C   0  0  0  0  0  0  0  0  0  0  0  0
    9.1023  -13.4279    2.0448 C   0  0  0  0  0  0  0  0  0  0  0  0
    9.0149  -12.0460    1.8508 C   0  0  0  0  0  0  0  0  0  0  0  0
    7.9930  -11.3171    2.4494 C   0  0  0  0  0  0  0  0  0  0  0  0
    7.0245  -11.9502    3.2626 C   0  0  0  0  0  0  0  0  0  0  0  0
    5.2173   -9.2709    2.5508 C   0  0  0  0  0  0  0  0  0  0  0  0
    5.1241   -7.8951    2.2876 C   0  0  0  0  0  0  0  0  0  0  0  0
    4.3305   -7.4505    1.0820 C   0  0  0  0  0  0  0  0  0  0  0  0
    4.6813   -4.9328    2.5323 N   0  0  0  0  0  0  0  0  0  0  0  0
    2.2052   -3.3119    2.0644 C   0  0  0  0  0  0  0  0  0  0  0  0
    1.8173   -4.5644    2.8149 C   0  0  0  0  0  0  0  0  0  0  0  0
    1.1677   -2.5329    1.5243 C   0  0  0  0  0  0  0  0  0  0  0  0
   -1.4718   -0.1659   -0.1451 H   0  0  0  0  0  0  0  0  0  0  0  0
   -1.2304   -0.9911    1.4272 H   0  0  0  0  0  0  0  0  0  0  0  0
   -1.0818   -1.9150   -0.1060 H   0  0  0  0  0  0  0  0  0  0  0  0
    2.9354    0.0316    0.1475 H   0  0  0  0  0  0  0  0  0  0  0  0
    4.8053   -1.3094    1.1268 H   0  0  0  0  0  0  0  0  0  0  0  0
    9.2247   -4.6118    3.5905 H   0  0  0  0  0  0  0  0  0  0  0  0
   11.4036   -3.5460    4.1989 H   0  0  0  0  0  0  0  0  0  0  0  0
   12.9639    0.4900    5.1105 H   0  0  0  0  0  0  0  0  0  0  0  0
   11.2851    0.6649    5.7130 H   0  0  0  0  0  0  0  0  0  0  0  0
   11.6468    0.9153    3.9714 H   0  0  0  0  0  0  0  0  0  0  0  0
    9.4132    0.2713    4.3531 H   0  0  0  0  0  0  0  0  0  0  0  0
    7.2254    0.5413    4.1216 H   0  0  0  0  0  0  0  0  0  0  0  0
    6.0934   -0.8353    4.2675 H   0  0  0  0  0  0  0  0  0  0  0  0
    6.6334   -0.3296    2.6802 H   0  0  0  0  0  0  0  0  0  0  0  0
    7.1085   -6.8277    4.8582 H   0  0  0  0  0  0  0  0  0  0  0  0
    7.2135   -9.2853    5.3087 H   0  0  0  0  0  0  0  0  0  0  0  0
    4.0077   -9.9247    5.1021 H   0  0  0  0  0  0  0  0  0  0  0  0
    2.2972  -10.9264    6.5565 H   0  0  0  0  0  0  0  0  0  0  0  0
    2.3144  -13.3996    7.0018 H   0  0  0  0  0  0  0  0  0  0  0  0
    4.0736  -14.8008    5.9556 H   0  0  0  0  0  0  0  0  0  0  0  0
    4.4009  -14.1423    1.9465 H   0  0  0  0  0  0  0  0  0  0  0  0
    3.4814  -16.2108    0.8937 H   0  0  0  0  0  0  0  0  0  0  0  0
    3.9871  -18.4445    1.8578 H   0  0  0  0  0  0  0  0  0  0  0  0
    5.4190  -18.6490    3.8876 H   0  0  0  0  0  0  0  0  0  0  0  0
    6.9505  -18.3182    5.9935 H   0  0  0  0  0  0  0  0  0  0  0  0
    8.3624  -17.4988    7.8771 H   0  0  0  0  0  0  0  0  0  0  0  0
    8.7735  -15.0665    8.1769 H   0  0  0  0  0  0  0  0  0  0  0  0
    7.7775  -13.4120    6.5948 H   0  0  0  0  0  0  0  0  0  0  0  0
    8.2079  -15.1331    3.0024 H   0  0  0  0  0  0  0  0  0  0  0  0
    9.9009  -14.0097    1.5795 H   0  0  0  0  0  0  0  0  0  0  0  0
    9.7478  -11.5261    1.2284 H   0  0  0  0  0  0  0  0  0  0  0  0
    7.9397  -10.2413    2.2889 H   0  0  0  0  0  0  0  0  0  0  0  0
    4.7088   -9.9771    1.8903 H   0  0  0  0  0  0  0  0  0  0  0  0
    4.1534   -8.3016    0.4079 H   0  0  0  0  0  0  0  0  0  0  0  0
    4.8420   -6.6581    0.5177 H   0  0  0  0  0  0  0  0  0  0  0  0
    3.3555   -7.0347    1.3755 H   0  0  0  0  0  0  0  0  0  0  0  0
    2.3834   -4.6809    3.7494 H   0  0  0  0  0  0  0  0  0  0  0  0
    2.0241   -5.4670    2.2214 H   0  0  0  0  0  0  0  0  0  0  0  0
    0.7437   -4.5486    3.0551 H   0  0  0  0  0  0  0  0  0  0  0  0
    0.1428   -2.8762    1.6670 H   0  0  0  0  0  0  0  0  0  0  0  0
  1  2  1  0
  1 58  1  0
  1 59  1  0
  1 60  1  0
  2  3  1  0
  3  4  2  0
  3 57  1  0
  4  5  1  0
  4 61  1  0
  5  6  2  0
  5 62  1  0
  6  7  1  0
  6 55  1  0
  7  8  2  0
  7 54  1  0
  8  9  1  0
  9 10  1  0
  9 19  2  0
 10 11  2  0
 10 17  1  0
 11 12  1  0
 11 63  1  0
 12 13  2  0
 12 64  1  0
 13 14  1  0
 13 16  1  0
 14 15  1  0
 15 65  1  0
 15 66  1  0
 15 67  1  0
 16 17  2  0
 16 68  1  0
 17 18  1  0
 18 69  1  0
 18 70  1  0
 18 71  1  0
 19 20  1  0
 20 21  1  0
 20 54  2  0
 21 22  2  0
 21 52  1  0
 22 23  1  0
 22 72  1  0
 23 24  2  0
 23 73  1  0
 24 25  1  0
 24 51  1  0
 25 26  1  0
 25 50  1  0
 26 27  2  0
 26 31  1  0
 27 28  1  0
 27 74  1  0
 28 29  2  0
 28 75  1  0
 29 30  1  0
 29 76  1  0
 30 31  2  0
 30 77  1  0
 32 31  1  1
 32 33  1  0
 32 44  1  0
 32 45  1  0
 33 34  2  0
 33 38  1  0
 34 35  1  0
 34 78  1  0
 35 36  2  0
 35 79  1  0
 36 37  1  0
 36 80  1  0
 37 38  2  0
 37 81  1  0
 38 39  1  0
 39 40  2  0
 39 44  1  0
 40 41  1  0
 40 82  1  0
 41 42  2  0
 41 83  1  0
 42 43  1  0
 42 84  1  0
 43 44  2  0
 43 85  1  0
 45 46  1  0
 45 50  2  0
 46 47  2  0
 46 86  1  0
 47 48  1  0
 47 87  1  0
 48 49  2  0
 48 88  1  0
 49 50  1  0
 49 89  1  0
 51 52  2  0
 51 90  1  0
 52 53  1  0
 53 91  1  0
 53 92  1  0
 53 93  1  0
 55 56  1  0
 55 57  2  0
 56 94  1  0
 56 95  1  0
 56 96  1  0
 57 97  1  0
M  END

