
     RDKit          3D

 59 61  0  0  0  0  0  0  0  0999 V2000
    2.9994    3.0358    2.7134 C   0  0  0  0  0  0  0  0  0  0  0  0
    3.2322    1.9935    3.7080 N   0  0  0  0  0  0  0  0  0  0  0  0
    3.3706    0.3963    3.1799 S   0  0  1  0  0  0  0  0  0  0  0  0
    3.0197   -0.4136    4.3485 O   0  0  0  0  0  0  0  0  0  0  0  0
    2.6908    0.2270    1.8908 O   0  0  0  0  0  0  0  0  0  0  0  0
    5.1318    0.2295    2.8755 C   0  0  0  0  0  0  0  0  0  0  0  0
    6.0091    0.1540    3.9610 C   0  0  0  0  0  0  0  0  0  0  0  0
    7.3720    0.0073    3.7174 C   0  0  0  0  0  0  0  0  0  0  0  0
    7.8786   -0.0743    2.4023 C   0  0  0  0  0  0  0  0  0  0  0  0
    9.3249   -0.2298    2.2173 C   0  0  0  0  0  0  0  0  0  0  0  0
   10.0050   -0.3430    1.0617 C   0  0  0  0  0  0  0  0  0  0  0  0
   11.4917   -0.4912    1.0832 C   0  0  0  0  0  0  0  0  0  0  0  0
   12.1409   -0.5097    2.1215 O   0  0  0  0  0  0  0  0  0  0  0  0
   12.0689   -0.5894   -0.1544 N   0  0  0  0  0  0  0  0  0  0  0  0
   13.4989   -0.7973   -0.3374 C   0  0  0  0  0  0  0  0  0  0  0  0
   13.8735   -2.2358   -0.6431 C   0  0  0  0  0  0  0  0  0  0  0  0
   14.3355   -2.6137   -1.9115 C   0  0  0  0  0  0  0  0  0  0  0  0
   14.6660   -3.9422   -2.1914 C   0  0  0  0  0  0  0  0  0  0  0  0
   14.5416   -4.9325   -1.2076 C   0  0  0  0  0  0  0  0  0  0  0  0
   14.8454   -6.3888   -1.5229 C   0  0  0  0  0  0  0  0  0  0  0  0
   15.9795   -6.5625   -2.4184 N   0  0  0  0  0  0  0  0  0  0  0  0
   17.2860   -6.2720   -1.8251 C   0  0  0  0  0  0  0  0  0  0  0  0
   17.8414   -7.4187   -0.9612 C   0  0  0  0  0  0  0  0  0  0  0  0
   17.8689   -8.7333   -1.7541 C   0  0  0  0  0  0  0  0  0  0  0  0
   16.4953   -9.0253   -2.3747 C   0  0  0  0  0  0  0  0  0  0  0  0
   16.0006   -7.8094   -3.1784 C   0  0  0  0  0  0  0  0  0  0  0  0
   14.0875   -4.5520    0.0647 C   0  0  0  0  0  0  0  0  0  0  0  0
   13.7553   -3.2257    0.3458 C   0  0  0  0  0  0  0  0  0  0  0  0
    6.9646   -0.0068    1.3310 C   0  0  0  0  0  0  0  0  0  0  0  0
    5.5985    0.1415    1.5604 C   0  0  0  0  0  0  0  0  0  0  0  0
    2.9472    4.0026    3.2353 H   0  0  0  0  0  0  0  0  0  0  0  0
    2.0779    2.8879    2.1250 H   0  0  0  0  0  0  0  0  0  0  0  0
    3.8508    3.0822    2.0174 H   0  0  0  0  0  0  0  0  0  0  0  0
    2.5891    1.9904    4.5001 H   0  0  0  0  0  0  0  0  0  0  0  0
    5.6222    0.2027    4.9804 H   0  0  0  0  0  0  0  0  0  0  0  0
    8.0672   -0.0523    4.5585 H   0  0  0  0  0  0  0  0  0  0  0  0
    9.9330   -0.2584    3.1283 H   0  0  0  0  0  0  0  0  0  0  0  0
    9.4996   -0.3274    0.0908 H   0  0  0  0  0  0  0  0  0  0  0  0
   11.4674   -0.6869   -0.9638 H   0  0  0  0  0  0  0  0  0  0  0  0
   13.9718   -0.4709    0.5998 H   0  0  0  0  0  0  0  0  0  0  0  0
   13.8554   -0.1380   -1.1455 H   0  0  0  0  0  0  0  0  0  0  0  0
   14.4447   -1.8554   -2.6936 H   0  0  0  0  0  0  0  0  0  0  0  0
   15.0383   -4.2279   -3.1779 H   0  0  0  0  0  0  0  0  0  0  0  0
   13.9635   -6.8230   -2.0277 H   0  0  0  0  0  0  0  0  0  0  0  0
   14.9375   -6.9421   -0.5627 H   0  0  0  0  0  0  0  0  0  0  0  0
   17.2124   -5.3409   -1.2419 H   0  0  0  0  0  0  0  0  0  0  0  0
   17.9959   -6.0713   -2.6497 H   0  0  0  0  0  0  0  0  0  0  0  0
   17.2152   -7.5437   -0.0595 H   0  0  0  0  0  0  0  0  0  0  0  0
   18.8513   -7.1571   -0.6017 H   0  0  0  0  0  0  0  0  0  0  0  0
   18.1953   -9.5698   -1.1137 H   0  0  0  0  0  0  0  0  0  0  0  0
   18.6188   -8.6509   -2.5636 H   0  0  0  0  0  0  0  0  0  0  0  0
   15.7690   -9.2636   -1.5765 H   0  0  0  0  0  0  0  0  0  0  0  0
   16.5421   -9.9127   -3.0292 H   0  0  0  0  0  0  0  0  0  0  0  0
   14.9938   -7.9934   -3.5880 H   0  0  0  0  0  0  0  0  0  0  0  0
   16.6724   -7.6642   -4.0461 H   0  0  0  0  0  0  0  0  0  0  0  0
   13.9993   -5.3070    0.8521 H   0  0  0  0  0  0  0  0  0  0  0  0
   13.4114   -2.9450    1.3451 H   0  0  0  0  0  0  0  0  0  0  0  0
    7.3223   -0.0747    0.3017 H   0  0  0  0  0  0  0  0  0  0  0  0
    4.8852    0.1796    0.7356 H   0  0  0  0  0  0  0  0  0  0  0  0
  1  2  1  0
  1 31  1  0
  1 32  1  0
  1 33  1  0
  3  2  1  1
  2 34  1  0
  3  4  2  0
  3  5  2  0
  3  6  1  0
  6  7  2  0
  6 30  1  0
  7  8  1  0
  7 35  1  0
  8  9  2  0
  8 36  1  0
  9 10  1  0
  9 29  1  0
 10 11  2  0
 10 37  1  0
 11 12  1  0
 11 38  1  0
 12 13  2  0
 12 14  1  0
 14 15  1  0
 14 39  1  0
 15 16  1  0
 15 40  1  0
 15 41  1  0
 16 17  2  0
 16 28  1  0
 17 18  1  0
 17 42  1  0
 18 19  2  0
 18 43  1  0
 19 20  1  0
 19 27  1  0
 20 21  1  0
 20 44  1  0
 20 45  1  0
 21 22  1  0
 21 26  1  0
 22 23  1  0
 22 46  1  0
 22 47  1  0
 23 24  1  0
 23 48  1  0
 23 49  1  0
 24 25  1  0
 24 50  1  0
 24 51  1  0
 25 26  1  0
 25 52  1  0
 25 53  1  0
 26 54  1  0
 26 55  1  0
 27 28  2  0
 27 56  1  0
 28 57  1  0
 29 30  2  0
 29 58  1  0
 30 59  1  0
M  END

