
     RDKit          3D

 32 33  0  0  0  0  0  0  0  0999 V2000
    2.7927   -1.5807   -1.2598 N   0  0  0  0  0  0  0  0  0  0  0  0
    2.6402   -0.2087   -0.2867 S   0  0  1  0  0  0  0  0  0  0  0  0
    1.2191   -0.0809    0.0366 O   0  0  0  0  0  0  0  0  0  0  0  0
    3.6495   -0.3107    0.7904 O   0  0  0  0  0  0  0  0  0  0  0  0
    3.2132    1.1267   -1.4211 C   0  0  1  0  0  0  0  0  0  0  0  0
    2.1023    1.5655   -2.3849 C   0  0  0  0  0  0  0  0  0  0  0  0
    1.0879    2.5057   -1.7171 C   0  0  0  0  0  0  0  0  0  0  0  0
    1.7755    3.6331   -0.9452 C   0  0  0  0  0  0  0  0  0  0  0  0
    2.7465    3.0922    0.0096 N   0  0  0  0  0  0  0  0  0  0  0  0
    2.9181    3.7970    1.2064 C   0  0  0  0  0  0  0  0  0  0  0  0
    2.3003    4.8306    1.4119 O   0  0  0  0  0  0  0  0  0  0  0  0
    3.8396    3.2776    2.2456 C   0  0  0  0  0  0  0  0  0  0  0  0
    4.4157    4.0610    3.2437 C   0  0  0  0  0  0  0  0  0  0  0  0
    5.1627    3.1892    4.0671 C   0  0  0  0  0  0  0  0  0  0  0  0
    6.1843    3.6697    5.5801 Br  0  0  0  0  0  0  0  0  0  0  0  0
    5.0171    1.9002    3.5724 C   0  0  0  0  0  0  0  0  0  0  0  0
    4.2214    1.9689    2.4678 N   0  0  0  0  0  0  0  0  0  0  0  0
    3.9084    1.1453    1.9471 H   0  0  0  0  0  0  0  0  0  0  0  0
    3.7892    2.3074   -0.6283 C   0  0  0  0  0  0  0  0  0  0  0  0
    1.9287   -2.1217   -1.2044 H   0  0  0  0  0  0  0  0  0  0  0  0
    3.6006   -2.1354   -0.9741 H   0  0  0  0  0  0  0  0  0  0  0  0
    4.0298    0.6254   -1.9628 H   0  0  0  0  0  0  0  0  0  0  0  0
    1.6082    0.6869   -2.8283 H   0  0  0  0  0  0  0  0  0  0  0  0
    2.6051    2.0900   -3.2170 H   0  0  0  0  0  0  0  0  0  0  0  0
    0.4543    1.9313   -1.0267 H   0  0  0  0  0  0  0  0  0  0  0  0
    0.4302    2.9409   -2.4868 H   0  0  0  0  0  0  0  0  0  0  0  0
    1.0548    4.2384   -0.3839 H   0  0  0  0  0  0  0  0  0  0  0  0
    2.2925    4.3216   -1.6462 H   0  0  0  0  0  0  0  0  0  0  0  0
    4.2939    5.1357    3.3448 H   0  0  0  0  0  0  0  0  0  0  0  0
    5.4156    0.9562    3.9354 H   0  0  0  0  0  0  0  0  0  0  0  0
    4.5308    1.9631    0.0990 H   0  0  0  0  0  0  0  0  0  0  0  0
    4.3366    2.9312   -1.3671 H   0  0  0  0  0  0  0  0  0  0  0  0
  2  1  1  6
  1 20  1  0
  1 21  1  0
  2  3  2  0
  2  4  2  0
  2  5  1  0
  5  6  1  0
  5 19  1  0
  5 22  1  6
  6  7  1  0
  6 23  1  0
  6 24  1  0
  7  8  1  0
  7 25  1  0
  7 26  1  0
  8  9  1  0
  8 27  1  0
  8 28  1  0
  9 10  1  0
  9 19  1  0
 10 11  2  0
 10 12  1  0
 12 13  2  0
 12 17  1  0
 13 14  1  0
 13 29  1  0
 14 15  1  0
 14 16  2  0
 16 17  1  0
 16 30  1  0
 17 18  1  0
 19 31  1  0
 19 32  1  0
M  END

