
     RDKit          3D

 40 41  0  0  0  0  0  0  0  0999 V2000
    8.9666    2.2560   -4.1711 C   0  0  0  0  0  0  0  0  0  0  0  0
    8.3617    0.9456   -4.0063 N   0  0  0  0  0  0  0  0  0  0  0  0
    7.8336    0.3463   -5.2147 C   0  0  0  0  0  0  0  0  0  0  0  0
    8.3234    0.3810   -2.7519 C   0  0  0  0  0  0  0  0  0  0  0  0
    8.7801    0.9530   -1.7712 O   0  0  0  0  0  0  0  0  0  0  0  0
    7.6815   -0.9994   -2.6093 C   0  0  0  0  0  0  0  0  0  0  0  0
    7.7546   -1.5087   -1.1642 C   0  0  0  0  0  0  0  0  0  0  0  0
    7.0855   -2.7857   -0.9918 N   0  0  0  0  0  0  0  0  0  0  0  0
    7.7076   -4.0071   -1.2334 C   0  0  0  0  0  0  0  0  0  0  0  0
    8.9843   -4.1403   -1.7977 C   0  0  0  0  0  0  0  0  0  0  0  0
    9.5554   -5.4077   -1.9931 C   0  0  0  0  0  0  0  0  0  0  0  0
    8.8619   -6.5712   -1.6292 C   0  0  0  0  0  0  0  0  0  0  0  0
    7.5715   -6.4317   -1.0999 C   0  0  0  0  0  0  0  0  0  0  0  0
    6.9781   -5.1844   -0.9020 C   0  0  0  0  0  0  0  0  0  0  0  0
    5.6995   -5.0171   -0.3266 N   0  0  0  0  0  0  0  0  0  0  0  0
    9.5616   -7.8995   -1.7973 C   0  0  0  0  0  0  0  0  0  0  0  0
   10.4708   -7.8854   -3.0318 C   0  0  0  0  0  0  0  0  0  0  0  0
   11.3947   -6.6750   -3.0708 C   0  0  0  0  0  0  0  0  0  0  0  0
   12.5122   -6.6896   -3.5520 O   0  0  0  0  0  0  0  0  0  0  0  0
   10.8461   -5.5259   -2.5447 N   0  0  0  0  0  0  0  0  0  0  0  0
    8.2316    2.9815   -4.5640 H   0  0  0  0  0  0  0  0  0  0  0  0
    9.8126    2.2104   -4.8800 H   0  0  0  0  0  0  0  0  0  0  0  0
    9.3285    2.5999   -3.1956 H   0  0  0  0  0  0  0  0  0  0  0  0
    7.0577    0.9913   -5.6669 H   0  0  0  0  0  0  0  0  0  0  0  0
    7.3846   -0.6328   -5.0189 H   0  0  0  0  0  0  0  0  0  0  0  0
    8.6306    0.2109   -5.9691 H   0  0  0  0  0  0  0  0  0  0  0  0
    8.1691   -1.7177   -3.2892 H   0  0  0  0  0  0  0  0  0  0  0  0
    6.6238   -0.9614   -2.9215 H   0  0  0  0  0  0  0  0  0  0  0  0
    7.2701   -0.7730   -0.5077 H   0  0  0  0  0  0  0  0  0  0  0  0
    8.8096   -1.5438   -0.8374 H   0  0  0  0  0  0  0  0  0  0  0  0
    6.4519   -2.8369   -0.1990 H   0  0  0  0  0  0  0  0  0  0  0  0
    9.5583   -3.2547   -2.0743 H   0  0  0  0  0  0  0  0  0  0  0  0
    7.0076   -7.3320   -0.8343 H   0  0  0  0  0  0  0  0  0  0  0  0
    5.2349   -5.8976   -0.1230 H   0  0  0  0  0  0  0  0  0  0  0  0
    5.0874   -4.4376   -0.9027 H   0  0  0  0  0  0  0  0  0  0  0  0
    8.8300   -8.7196   -1.8691 H   0  0  0  0  0  0  0  0  0  0  0  0
   10.1758   -8.1114   -0.9005 H   0  0  0  0  0  0  0  0  0  0  0  0
    9.8563   -7.8456   -3.9503 H   0  0  0  0  0  0  0  0  0  0  0  0
   11.1032   -8.7809   -3.1031 H   0  0  0  0  0  0  0  0  0  0  0  0
   11.4251   -4.6961   -2.6299 H   0  0  0  0  0  0  0  0  0  0  0  0
  1  2  1  0
  1 21  1  0
  1 22  1  0
  1 23  1  0
  2  3  1  0
  2  4  1  0
  3 24  1  0
  3 25  1  0
  3 26  1  0
  4  5  2  0
  4  6  1  0
  6  7  1  0
  6 27  1  0
  6 28  1  0
  7  8  1  0
  7 29  1  0
  7 30  1  0
  8  9  1  0
  8 31  1  0
  9 10  2  0
  9 14  1  0
 10 11  1  0
 10 32  1  0
 11 12  2  0
 11 20  1  0
 12 13  1  0
 12 16  1  0
 13 14  2  0
 13 33  1  0
 14 15  1  0
 15 34  1  0
 15 35  1  0
 16 17  1  0
 16 36  1  0
 16 37  1  0
 17 18  1  0
 17 38  1  0
 17 39  1  0
 18 19  2  0
 18 20  1  0
 20 40  1  0
M  END

