
     RDKit          3D

 43 45  0  0  0  0  0  0  0  0999 V2000
    1.1890   -0.3485    0.5795 O   0  0  0  0  0  0  0  0  0  0  0  0
    2.3828   -0.2136    0.3507 C   0  0  0  0  0  0  0  0  0  0  0  0
    3.1808    0.8722    1.0862 C   0  0  0  0  0  0  0  0  0  0  0  0
    2.2743    1.8166    1.6839 N   0  0  0  0  0  0  0  0  0  0  0  0
    2.8234    2.6024    2.7669 C   0  0  0  0  0  0  0  0  0  0  0  0
    1.8469    3.6358    3.2959 C   0  0  0  0  0  0  0  0  0  0  0  0
    1.8977    4.0401    4.6386 C   0  0  0  0  0  0  0  0  0  0  0  0
    1.0321    5.0238    5.1246 C   0  0  0  0  0  0  0  0  0  0  0  0
    0.0931    5.6141    4.2732 C   0  0  0  0  0  0  0  0  0  0  0  0
    0.0286    5.2121    2.9356 C   0  0  0  0  0  0  0  0  0  0  0  0
    0.8991    4.2321    2.4501 C   0  0  0  0  0  0  0  0  0  0  0  0
    3.0578   -1.0252   -0.5241 N   0  0  0  0  0  0  0  0  0  0  0  0
    4.4934   -1.0082   -0.7818 C   0  0  0  0  0  0  0  0  0  0  0  0
    5.1366   -2.3525   -0.4146 C   0  0  0  0  0  0  0  0  0  0  0  0
    4.4282   -3.5142   -1.1206 C   0  0  2  0  0  0  0  0  0  0  0  0
    2.9205   -3.4664   -0.8558 C   0  0  0  0  0  0  0  0  0  0  0  0
    2.3374   -2.0949   -1.2138 C   0  0  0  0  0  0  0  0  0  0  0  0
    5.0006   -4.7391   -0.6849 O   0  0  0  0  0  0  0  0  0  0  0  0
    5.3069   -5.5247   -1.8239 C   0  0  0  0  0  0  0  0  0  0  0  0
    5.5619   -4.4651   -2.8926 C   0  0  0  0  0  0  0  0  0  0  0  0
    4.6447   -3.4464   -2.5329 O   0  0  0  0  0  0  0  0  0  0  0  0
    3.8705    1.3886    0.3945 H   0  0  0  0  0  0  0  0  0  0  0  0
    3.8326    0.3478    1.8283 H   0  0  0  0  0  0  0  0  0  0  0  0
    1.4109    1.3371    1.9406 H   0  0  0  0  0  0  0  0  0  0  0  0
    3.7225    3.1279    2.3875 H   0  0  0  0  0  0  0  0  0  0  0  0
    3.1889    1.9826    3.6194 H   0  0  0  0  0  0  0  0  0  0  0  0
    2.6229    3.5752    5.3138 H   0  0  0  0  0  0  0  0  0  0  0  0
    1.0861    5.3248    6.1744 H   0  0  0  0  0  0  0  0  0  0  0  0
   -0.5890    6.3796    4.6525 H   0  0  0  0  0  0  0  0  0  0  0  0
   -0.7062    5.6642    2.2638 H   0  0  0  0  0  0  0  0  0  0  0  0
    0.8507    3.9081    1.4086 H   0  0  0  0  0  0  0  0  0  0  0  0
    4.9744   -0.1956   -0.2266 H   0  0  0  0  0  0  0  0  0  0  0  0
    4.6635   -0.8170   -1.8569 H   0  0  0  0  0  0  0  0  0  0  0  0
    5.0798   -2.5205    0.6728 H   0  0  0  0  0  0  0  0  0  0  0  0
    6.2004   -2.3578   -0.7001 H   0  0  0  0  0  0  0  0  0  0  0  0
    2.7519   -3.6822    0.2111 H   0  0  0  0  0  0  0  0  0  0  0  0
    2.4292   -4.2556   -1.4458 H   0  0  0  0  0  0  0  0  0  0  0  0
    1.2818   -2.0212   -0.9283 H   0  0  0  0  0  0  0  0  0  0  0  0
    2.4196   -1.9375   -2.3037 H   0  0  0  0  0  0  0  0  0  0  0  0
    4.4592   -6.1803   -2.1018 H   0  0  0  0  0  0  0  0  0  0  0  0
    6.1818   -6.1534   -1.5998 H   0  0  0  0  0  0  0  0  0  0  0  0
    5.3414   -4.7994   -3.9175 H   0  0  0  0  0  0  0  0  0  0  0  0
    6.6065   -4.0995   -2.8542 H   0  0  0  0  0  0  0  0  0  0  0  0
  1  2  2  0
  2  3  1  0
  2 12  1  0
  3  4  1  0
  3 22  1  0
  3 23  1  0
  4  5  1  0
  4 24  1  0
  5  6  1  0
  5 25  1  0
  5 26  1  0
  6  7  2  0
  6 11  1  0
  7  8  1  0
  7 27  1  0
  8  9  2  0
  8 28  1  0
  9 10  1  0
  9 29  1  0
 10 11  2  0
 10 30  1  0
 11 31  1  0
 12 13  1  0
 12 17  1  0
 13 14  1  0
 13 32  1  0
 13 33  1  0
 14 15  1  0
 14 34  1  0
 14 35  1  0
 15 16  1  0
 15 18  1  1
 15 21  1  0
 16 17  1  0
 16 36  1  0
 16 37  1  0
 17 38  1  0
 17 39  1  0
 18 19  1  0
 19 20  1  0
 19 40  1  0
 19 41  1  0
 20 21  1  0
 20 42  1  0
 20 43  1  0
M  END

