
     RDKit          3D

 47 48  0  0  0  0  0  0  0  0999 V2000
    2.3224    1.0201    0.6839 C   0  0  0  0  0  0  0  0  0  0  0  0
    3.1394   -0.2295    1.0208 C   0  0  0  0  0  0  0  0  0  0  0  0
    3.5838   -1.0613   -0.2011 C   0  0  1  0  0  0  0  0  0  0  0  0
    4.5750   -2.1790    0.1880 C   0  0  0  0  0  0  0  0  0  0  0  0
    3.8999   -3.3567    0.9075 C   0  0  0  0  0  0  0  0  0  0  0  0
    2.7371   -3.9435    0.0951 C   0  0  2  0  0  0  0  0  0  0  0  0
    3.2037   -4.6620   -1.0464 O   0  0  0  0  0  0  0  0  0  0  0  0
    1.7194   -2.8473   -0.2901 C   0  0  2  0  0  0  0  0  0  0  0  0
    0.5681   -3.4212   -1.1388 C   0  0  0  0  0  0  0  0  0  0  0  0
   -0.1945   -4.4536   -0.4541 N   0  0  0  0  0  0  0  0  0  0  0  0
   -1.3337   -4.0261    0.3365 C   0  0  0  0  0  0  0  0  0  0  0  0
   -2.6423   -3.9277   -0.4577 C   0  0  0  0  0  0  0  0  0  0  0  0
   -3.1070   -5.5371   -1.2029 S   0  0  0  0  0  0  0  0  0  0  0  0
   -1.5043   -5.9610   -2.0657 C   0  0  2  0  0  0  0  0  0  0  0  0
   -1.3483   -5.1157   -3.3363 C   0  0  0  0  0  0  0  0  0  0  0  0
   -1.6096   -7.4460   -2.4302 C   0  0  0  0  0  0  0  0  0  0  0  0
   -0.3332   -5.7616   -1.0665 C   0  0  0  0  0  0  0  0  0  0  0  0
    2.4132   -1.6730   -1.0033 C   0  0  0  0  0  0  0  0  0  0  0  0
    2.1088    1.6092    1.5901 H   0  0  0  0  0  0  0  0  0  0  0  0
    1.3531    0.7734    0.2218 H   0  0  0  0  0  0  0  0  0  0  0  0
    2.8648    1.6765   -0.0176 H   0  0  0  0  0  0  0  0  0  0  0  0
    2.5689   -0.8564    1.7278 H   0  0  0  0  0  0  0  0  0  0  0  0
    4.0484    0.0780    1.5677 H   0  0  0  0  0  0  0  0  0  0  0  0
    4.1171   -0.3643   -0.8738 H   0  0  0  0  0  0  0  0  0  0  0  0
    5.3875   -1.7687    0.8110 H   0  0  0  0  0  0  0  0  0  0  0  0
    5.0694   -2.5507   -0.7295 H   0  0  0  0  0  0  0  0  0  0  0  0
    3.5160   -3.0286    1.8884 H   0  0  0  0  0  0  0  0  0  0  0  0
    4.6325   -4.1558    1.1075 H   0  0  0  0  0  0  0  0  0  0  0  0
    2.2101   -4.6997    0.6959 H   0  0  0  0  0  0  0  0  0  0  0  0
    3.7383   -4.0684   -1.5894 H   0  0  0  0  0  0  0  0  0  0  0  0
    1.2857   -2.4741    0.6557 H   0  0  0  0  0  0  0  0  0  0  0  0
    1.0074   -3.8507   -2.0507 H   0  0  0  0  0  0  0  0  0  0  0  0
   -0.0767   -2.5823   -1.4732 H   0  0  0  0  0  0  0  0  0  0  0  0
   -1.1052   -3.0469    0.7916 H   0  0  0  0  0  0  0  0  0  0  0  0
   -1.4872   -4.7373    1.1693 H   0  0  0  0  0  0  0  0  0  0  0  0
   -2.5754   -3.1533   -1.2402 H   0  0  0  0  0  0  0  0  0  0  0  0
   -3.4834   -3.6583    0.2009 H   0  0  0  0  0  0  0  0  0  0  0  0
   -2.1784   -5.3078   -4.0330 H   0  0  0  0  0  0  0  0  0  0  0  0
   -0.4028   -5.3646   -3.8499 H   0  0  0  0  0  0  0  0  0  0  0  0
   -1.3358   -4.0375   -3.1225 H   0  0  0  0  0  0  0  0  0  0  0  0
   -2.4663   -7.6342   -3.0970 H   0  0  0  0  0  0  0  0  0  0  0  0
   -1.7306   -8.0723   -1.5330 H   0  0  0  0  0  0  0  0  0  0  0  0
   -0.6954   -7.7702   -2.9563 H   0  0  0  0  0  0  0  0  0  0  0  0
    0.6155   -6.0050   -1.5751 H   0  0  0  0  0  0  0  0  0  0  0  0
   -0.4637   -6.5087   -0.2620 H   0  0  0  0  0  0  0  0  0  0  0  0
    1.6715   -0.8986   -1.2594 H   0  0  0  0  0  0  0  0  0  0  0  0
    2.8037   -2.0284   -1.9762 H   0  0  0  0  0  0  0  0  0  0  0  0
  1  2  1  0
  1 19  1  0
  1 20  1  0
  1 21  1  0
  2  3  1  0
  2 22  1  0
  2 23  1  0
  3  4  1  0
  3 18  1  0
  3 24  1  6
  4  5  1  0
  4 25  1  0
  4 26  1  0
  5  6  1  0
  5 27  1  0
  5 28  1  0
  6  7  1  0
  6  8  1  0
  6 29  1  1
  7 30  1  0
  8  9  1  0
  8 18  1  0
  8 31  1  1
  9 10  1  0
  9 32  1  0
  9 33  1  0
 10 11  1  0
 10 17  1  0
 11 12  1  0
 11 34  1  0
 11 35  1  0
 12 13  1  0
 12 36  1  0
 12 37  1  0
 13 14  1  0
 14 15  1  6
 14 16  1  0
 14 17  1  0
 15 38  1  0
 15 39  1  0
 15 40  1  0
 16 41  1  0
 16 42  1  0
 16 43  1  0
 17 44  1  0
 17 45  1  0
 18 46  1  0
 18 47  1  0
M  END

