
     RDKit          3D

 35 35  0  0  0  0  0  0  0  0999 V2000
    0.9745   -4.2972    2.2260 C   0  0  0  0  0  0  0  0  0  0  0  0
    2.4760   -4.3905    1.9565 C   0  0  0  0  0  0  0  0  0  0  0  0
    2.9244   -3.5944    0.7314 C   0  0  0  0  0  0  0  0  0  0  0  0
    4.3641   -3.6694    0.5409 N   0  0  0  0  0  0  0  0  0  0  0  0
    4.8629   -2.9517   -0.6205 C   0  0  0  0  0  0  0  0  0  0  0  0
    6.3913   -2.9984   -0.6916 C   0  0  0  0  0  0  0  0  0  0  0  0
    6.9293   -4.3451   -0.7773 N   0  0  0  0  0  0  0  0  0  0  0  0
    7.1946   -4.9525   -1.9717 C   0  0  0  0  0  0  0  0  0  0  0  0
    6.9884   -4.4450   -3.0585 O   0  0  0  0  0  0  0  0  0  0  0  0
    7.7766   -6.3311   -1.8227 C   0  0  0  0  0  0  0  0  0  0  0  0
    7.9901   -6.8841   -0.6331 N   0  0  0  0  0  0  0  0  0  0  0  0
    8.5035   -8.0809   -0.9591 N   0  0  0  0  0  0  0  0  0  0  0  0
    8.7686   -8.7409   -0.2357 H   0  0  0  0  0  0  0  0  0  0  0  0
    8.5870   -8.2157   -2.3113 C   0  0  0  0  0  0  0  0  0  0  0  0
    9.1405   -9.4220   -3.0070 C   0  0  0  0  0  0  0  0  0  0  0  0
    8.3494   -9.7989   -4.2631 C   0  0  0  0  0  0  0  0  0  0  0  0
    8.1281   -7.1154   -2.8769 N   0  0  0  0  0  0  0  0  0  0  0  0
    0.6872   -4.8868    3.1109 H   0  0  0  0  0  0  0  0  0  0  0  0
    0.3861   -4.6725    1.3719 H   0  0  0  0  0  0  0  0  0  0  0  0
    0.6635   -3.2546    2.4073 H   0  0  0  0  0  0  0  0  0  0  0  0
    2.7606   -5.4507    1.8187 H   0  0  0  0  0  0  0  0  0  0  0  0
    3.0480   -4.0332    2.8299 H   0  0  0  0  0  0  0  0  0  0  0  0
    2.6497   -2.5317    0.8681 H   0  0  0  0  0  0  0  0  0  0  0  0
    2.3513   -3.9395   -0.1617 H   0  0  0  0  0  0  0  0  0  0  0  0
    4.6394   -4.6492    0.4619 H   0  0  0  0  0  0  0  0  0  0  0  0
    4.5564   -1.8935   -0.5389 H   0  0  0  0  0  0  0  0  0  0  0  0
    4.4467   -3.3257   -1.5822 H   0  0  0  0  0  0  0  0  0  0  0  0
    6.8101   -2.5166    0.2061 H   0  0  0  0  0  0  0  0  0  0  0  0
    6.7290   -2.4453   -1.5807 H   0  0  0  0  0  0  0  0  0  0  0  0
    7.1724   -4.8488    0.0687 H   0  0  0  0  0  0  0  0  0  0  0  0
    9.1762  -10.2650   -2.2963 H   0  0  0  0  0  0  0  0  0  0  0  0
   10.1892   -9.2096   -3.2828 H   0  0  0  0  0  0  0  0  0  0  0  0
    7.3177  -10.0906   -4.0121 H   0  0  0  0  0  0  0  0  0  0  0  0
    8.8289  -10.6406   -4.7852 H   0  0  0  0  0  0  0  0  0  0  0  0
    8.2953   -8.9421   -4.9500 H   0  0  0  0  0  0  0  0  0  0  0  0
  1  2  1  0
  1 18  1  0
  1 19  1  0
  1 20  1  0
  2  3  1  0
  2 21  1  0
  2 22  1  0
  3  4  1  0
  3 23  1  0
  3 24  1  0
  4  5  1  0
  4 25  1  0
  5  6  1  0
  5 26  1  0
  5 27  1  0
  6  7  1  0
  6 28  1  0
  6 29  1  0
  7  8  1  0
  7 30  1  0
  8  9  2  0
  8 10  1  0
 10 11  2  0
 10 17  1  0
 11 12  1  0
 12 13  1  0
 12 14  1  0
 14 15  1  0
 14 17  2  0
 15 16  1  0
 15 31  1  0
 15 32  1  0
 16 33  1  0
 16 34  1  0
 16 35  1  0
M  END

