
     RDKit          3D

 34 34  0  0  0  0  0  0  0  0999 V2000
    4.3907   -1.0821    1.2821 C   0  0  0  0  0  0  0  0  0  0  0  0
    3.2857   -0.0366    1.1018 C   0  0  1  0  0  0  0  0  0  0  0  0
    2.2994   -0.4204   -0.0057 C   0  0  0  0  0  0  0  0  0  0  0  0
    2.5526    0.2135    2.4205 C   0  0  0  0  0  0  0  0  0  0  0  0
    3.8854    1.2754    0.8079 O   0  0  0  0  0  0  0  0  0  0  0  0
    4.6270    1.5019   -0.2826 C   0  0  0  0  0  0  0  0  0  0  0  0
    4.8889    0.6909   -1.1396 O   0  0  0  0  0  0  0  0  0  0  0  0
    5.0784    2.9557   -0.3385 C   0  0  0  0  0  0  0  0  0  0  0  0
    6.4859    3.1072   -0.8800 C   0  0  0  0  0  0  0  0  0  0  0  0
    7.3900    2.5970    0.1146 O   0  0  0  0  0  0  0  0  0  0  0  0
    8.7159    2.7438   -0.1153 C   0  0  0  0  0  0  0  0  0  0  0  0
    9.4116    3.8848    0.3327 C   0  0  0  0  0  0  0  0  0  0  0  0
    8.4541    5.2591    1.2372 Br  0  0  0  0  0  0  0  0  0  0  0  0
   10.7889    4.0301    0.1552 C   0  0  0  0  0  0  0  0  0  0  0  0
   11.4944    3.0121   -0.4891 C   0  0  0  0  0  0  0  0  0  0  0  0
   13.3736    3.1925   -0.7416 Br  0  0  0  0  0  0  0  0  0  0  0  0
   10.8484    1.8615   -0.9444 C   0  0  0  0  0  0  0  0  0  0  0  0
    9.4696    1.7394   -0.7559 C   0  0  0  0  0  0  0  0  0  0  0  0
    8.5935    0.1646   -1.3539 Br  0  0  0  0  0  0  0  0  0  0  0  0
    3.9475   -2.0329    1.6174 H   0  0  0  0  0  0  0  0  0  0  0  0
    5.1101   -0.7512    2.0471 H   0  0  0  0  0  0  0  0  0  0  0  0
    4.9313   -1.2566    0.3434 H   0  0  0  0  0  0  0  0  0  0  0  0
    1.7688   -1.3431    0.2768 H   0  0  0  0  0  0  0  0  0  0  0  0
    2.8165   -0.5903   -0.9585 H   0  0  0  0  0  0  0  0  0  0  0  0
    1.5490    0.3739   -0.1444 H   0  0  0  0  0  0  0  0  0  0  0  0
    2.0523   -0.7064    2.7592 H   0  0  0  0  0  0  0  0  0  0  0  0
    1.7924    1.0000    2.2986 H   0  0  0  0  0  0  0  0  0  0  0  0
    3.2586    0.5353    3.2008 H   0  0  0  0  0  0  0  0  0  0  0  0
    4.9915    3.4206    0.6530 H   0  0  0  0  0  0  0  0  0  0  0  0
    4.3830    3.4813   -1.0160 H   0  0  0  0  0  0  0  0  0  0  0  0
    6.7115    4.1693   -1.0730 H   0  0  0  0  0  0  0  0  0  0  0  0
    6.5998    2.5329   -1.8141 H   0  0  0  0  0  0  0  0  0  0  0  0
   11.2986    4.9224    0.5173 H   0  0  0  0  0  0  0  0  0  0  0  0
   11.4050    1.0661   -1.4391 H   0  0  0  0  0  0  0  0  0  0  0  0
  1  2  1  0
  1 20  1  0
  1 21  1  0
  1 22  1  0
  2  3  1  0
  2  4  1  0
  2  5  1  6
  3 23  1  0
  3 24  1  0
  3 25  1  0
  4 26  1  0
  4 27  1  0
  4 28  1  0
  5  6  1  0
  6  7  2  0
  6  8  1  0
  8  9  1  0
  8 29  1  0
  8 30  1  0
  9 10  1  0
  9 31  1  0
  9 32  1  0
 10 11  1  0
 11 12  2  0
 11 18  1  0
 12 13  1  0
 12 14  1  0
 14 15  2  0
 14 33  1  0
 15 16  1  0
 15 17  1  0
 17 18  2  0
 17 34  1  0
 18 19  1  0
M  END

