
     RDKit          3D

 26 26  0  0  0  0  0  0  0  0999 V2000
    2.3997    1.6007   -0.3750 C   0  0  0  0  0  0  0  0  0  0  0  0
    2.3338    0.1349    0.0576 C   0  0  1  0  0  0  0  0  0  0  0  0
    3.4034   -0.7037   -0.6825 C   0  0  0  0  0  0  0  0  0  0  0  0
    3.1143   -2.1980   -0.7844 C   0  0  0  0  0  0  0  0  0  0  0  0
    2.2674   -2.7202   -0.0761 O   0  0  0  0  0  0  0  0  0  0  0  0
    3.8930   -3.0025   -1.7812 C   0  0  0  0  0  0  0  0  0  0  0  0
    5.1537   -2.5407   -2.2129 C   0  0  0  0  0  0  0  0  0  0  0  0
    5.9538   -3.2597   -3.0948 C   0  0  0  0  0  0  0  0  0  0  0  0
    5.4791   -4.4779   -3.5898 C   0  0  0  0  0  0  0  0  0  0  0  0
    6.5389   -5.4813   -4.8032 Br  0  0  0  0  0  0  0  0  0  0  0  0
    4.2298   -4.9659   -3.2065 C   0  0  0  0  0  0  0  0  0  0  0  0
    3.4442   -4.2405   -2.3035 C   0  0  0  0  0  0  0  0  0  0  0  0
    1.8914   -4.9256   -1.9227 Cl  0  0  0  0  0  0  0  0  0  0  0  0
    2.4637    0.0277    1.5921 C   0  0  0  0  0  0  0  0  0  0  0  0
    2.7719    0.9639    2.2845 O   0  0  0  0  0  0  0  0  0  0  0  0
    2.2080   -1.1750    2.1154 O   0  0  0  0  0  0  0  0  0  0  0  0
    2.2319    1.6960   -1.4596 H   0  0  0  0  0  0  0  0  0  0  0  0
    3.3782    2.0393   -0.1282 H   0  0  0  0  0  0  0  0  0  0  0  0
    1.6397    2.1959    0.1499 H   0  0  0  0  0  0  0  0  0  0  0  0
    1.3451   -0.2788   -0.2095 H   0  0  0  0  0  0  0  0  0  0  0  0
    4.3902   -0.5656   -0.2032 H   0  0  0  0  0  0  0  0  0  0  0  0
    3.5211   -0.3107   -1.7056 H   0  0  0  0  0  0  0  0  0  0  0  0
    5.5367   -1.5943   -1.8299 H   0  0  0  0  0  0  0  0  0  0  0  0
    6.9312   -2.8806   -3.3951 H   0  0  0  0  0  0  0  0  0  0  0  0
    3.8536   -5.9090   -3.6020 H   0  0  0  0  0  0  0  0  0  0  0  0
    2.0175   -1.8229    1.3996 H   0  0  0  0  0  0  0  0  0  0  0  0
  1  2  1  0
  1 17  1  0
  1 18  1  0
  1 19  1  0
  2  3  1  0
  2 14  1  0
  2 20  1  6
  3  4  1  0
  3 21  1  0
  3 22  1  0
  4  5  2  0
  4  6  1  0
  6  7  2  0
  6 12  1  0
  7  8  1  0
  7 23  1  0
  8  9  2  0
  8 24  1  0
  9 10  1  0
  9 11  1  0
 11 12  2  0
 11 25  1  0
 12 13  1  0
 14 15  2  0
 14 16  1  0
 16 26  1  0
M  END

