
     RDKit          3D

 61 64  0  0  0  0  0  0  0  0999 V2000
    3.8135   -2.4141   -1.9856 C   0  0  0  0  0  0  0  0  0  0  0  0
    2.7485   -2.7373   -1.1152 O   0  0  0  0  0  0  0  0  0  0  0  0
    2.9910   -2.8139    0.2182 C   0  0  0  0  0  0  0  0  0  0  0  0
    4.2510   -2.6420    0.7976 C   0  0  0  0  0  0  0  0  0  0  0  0
    4.4199   -2.7096    2.1888 C   0  0  0  0  0  0  0  0  0  0  0  0
    5.8090   -2.4648    2.7988 C   0  0  2  0  0  0  0  0  0  0  0  0
    6.0953   -3.3976    3.9602 C   0  0  0  0  0  0  0  0  0  0  0  0
    6.0551   -2.9683    5.2523 C   0  0  0  0  0  0  0  0  0  0  0  0
    6.2264   -3.8776    6.4421 C   0  0  0  0  0  0  0  0  0  0  0  0
    7.0652   -5.1405    6.1370 C   0  0  2  0  0  0  0  0  0  0  0  0
    6.9235   -6.1374    7.2982 C   0  0  0  0  0  0  0  0  0  0  0  0
    8.5517   -4.7692    5.9707 C   0  0  0  0  0  0  0  0  0  0  0  0
    6.5229   -5.7661    4.8351 C   0  0  0  0  0  0  0  0  0  0  0  0
    6.4253   -4.8015    3.6574 C   0  0  0  0  0  0  0  0  0  0  0  0
    6.5849   -5.1880    2.5109 O   0  0  0  0  0  0  0  0  0  0  0  0
    5.8491   -1.6269    5.5290 N   0  0  0  0  0  0  0  0  0  0  0  0
    5.9079   -0.6538    4.5480 C   0  0  0  0  0  0  0  0  0  0  0  0
    5.9572   -1.0126    3.2330 C   0  0  0  0  0  0  0  0  0  0  0  0
    6.1677    0.0138    2.2002 C   0  0  0  0  0  0  0  0  0  0  0  0
    6.3486   -0.2778    1.0263 O   0  0  0  0  0  0  0  0  0  0  0  0
    6.1183    1.4735    2.6397 C   0  0  0  0  0  0  0  0  0  0  0  0
    6.6496    1.7398    4.0630 C   0  0  1  0  0  0  0  0  0  0  0  0
    8.1715    1.5037    4.1167 C   0  0  0  0  0  0  0  0  0  0  0  0
    6.3514    3.1907    4.4730 C   0  0  0  0  0  0  0  0  0  0  0  0
    5.9211    0.7752    5.0267 C   0  0  0  0  0  0  0  0  0  0  0  0
    3.3084   -2.9549    2.9993 C   0  0  0  0  0  0  0  0  0  0  0  0
    2.0508   -3.1428    2.4162 C   0  0  0  0  0  0  0  0  0  0  0  0
    0.5460   -3.4919    3.5389 Br  0  0  0  0  0  0  0  0  0  0  0  0
    1.8574   -3.0748    1.0320 C   0  0  0  0  0  0  0  0  0  0  0  0
    0.6153   -3.1921    0.4930 O   0  0  0  0  0  0  0  0  0  0  0  0
    0.3464   -4.3659   -0.2622 C   0  0  0  0  0  0  0  0  0  0  0  0
    3.3843   -2.3640   -2.9953 H   0  0  0  0  0  0  0  0  0  0  0  0
    4.6052   -3.1842   -1.9686 H   0  0  0  0  0  0  0  0  0  0  0  0
    4.2639   -1.4384   -1.7332 H   0  0  0  0  0  0  0  0  0  0  0  0
    5.1200   -2.4205    0.1812 H   0  0  0  0  0  0  0  0  0  0  0  0
    6.5369   -2.6688    2.0003 H   0  0  0  0  0  0  0  0  0  0  0  0
    5.2228   -4.1843    6.7928 H   0  0  0  0  0  0  0  0  0  0  0  0
    6.6840   -3.3175    7.2776 H   0  0  0  0  0  0  0  0  0  0  0  0
    7.2876   -5.7020    8.2437 H   0  0  0  0  0  0  0  0  0  0  0  0
    7.5087   -7.0500    7.1031 H   0  0  0  0  0  0  0  0  0  0  0  0
    5.8733   -6.4375    7.4461 H   0  0  0  0  0  0  0  0  0  0  0  0
    8.9538   -4.3315    6.8993 H   0  0  0  0  0  0  0  0  0  0  0  0
    8.7090   -4.0437    5.1579 H   0  0  0  0  0  0  0  0  0  0  0  0
    9.1491   -5.6648    5.7376 H   0  0  0  0  0  0  0  0  0  0  0  0
    5.5001   -6.1497    5.0118 H   0  0  0  0  0  0  0  0  0  0  0  0
    7.1304   -6.6262    4.5144 H   0  0  0  0  0  0  0  0  0  0  0  0
    5.8655   -1.3305    6.4971 H   0  0  0  0  0  0  0  0  0  0  0  0
    5.0568    1.7810    2.5824 H   0  0  0  0  0  0  0  0  0  0  0  0
    6.6588    2.0676    1.8869 H   0  0  0  0  0  0  0  0  0  0  0  0
    8.6916    2.1795    3.4194 H   0  0  0  0  0  0  0  0  0  0  0  0
    8.4404    0.4719    3.8430 H   0  0  0  0  0  0  0  0  0  0  0  0
    8.5643    1.7003    5.1279 H   0  0  0  0  0  0  0  0  0  0  0  0
    6.8541    3.8994    3.7957 H   0  0  0  0  0  0  0  0  0  0  0  0
    6.7069    3.3964    5.4964 H   0  0  0  0  0  0  0  0  0  0  0  0
    5.2708    3.4049    4.4408 H   0  0  0  0  0  0  0  0  0  0  0  0
    4.8734    1.1083    5.1510 H   0  0  0  0  0  0  0  0  0  0  0  0
    6.3813    0.8299    6.0297 H   0  0  0  0  0  0  0  0  0  0  0  0
    3.4078   -3.0140    4.0834 H   0  0  0  0  0  0  0  0  0  0  0  0
   -0.7039   -4.3005   -0.5790 H   0  0  0  0  0  0  0  0  0  0  0  0
    0.4776   -5.2732    0.3541 H   0  0  0  0  0  0  0  0  0  0  0  0
    0.9910   -4.4312   -1.1529 H   0  0  0  0  0  0  0  0  0  0  0  0
  1  2  1  0
  1 32  1  0
  1 33  1  0
  1 34  1  0
  2  3  1  0
  3  4  2  0
  3 29  1  0
  4  5  1  0
  4 35  1  0
  5  6  1  0
  5 26  2  0
  6  7  1  0
  6 18  1  0
  6 36  1  6
  7  8  2  0
  7 14  1  0
  8  9  1  0
  8 16  1  0
  9 10  1  0
  9 37  1  0
  9 38  1  0
 10 11  1  1
 10 12  1  0
 10 13  1  0
 11 39  1  0
 11 40  1  0
 11 41  1  0
 12 42  1  0
 12 43  1  0
 12 44  1  0
 13 14  1  0
 13 45  1  0
 13 46  1  0
 14 15  2  0
 16 17  1  0
 16 47  1  0
 17 18  2  0
 17 25  1  0
 18 19  1  0
 19 20  2  0
 19 21  1  0
 21 22  1  0
 21 48  1  0
 21 49  1  0
 22 23  1  6
 22 24  1  0
 22 25  1  0
 23 50  1  0
 23 51  1  0
 23 52  1  0
 24 53  1  0
 24 54  1  0
 24 55  1  0
 25 56  1  0
 25 57  1  0
 26 27  1  0
 26 58  1  0
 27 28  1  0
 27 29  2  0
 29 30  1  0
 30 31  1  0
 31 59  1  0
 31 60  1  0
 31 61  1  0
M  END

