
     RDKit          3D

 43 43  0  0  0  0  0  0  0  0999 V2000
    3.2370    0.0295    1.1406 C   0  0  0  0  0  0  0  0  0  0  0  0
    3.2882    0.4393   -0.3319 C   0  0  0  0  0  0  0  0  0  0  0  0
    4.4049   -0.2356   -1.1183 C   0  0  0  0  0  0  0  0  0  0  0  0
    4.1619   -1.6265   -1.1619 O   0  0  0  0  0  0  0  0  0  0  0  0
    5.0985   -2.4131   -1.8804 C   0  0  1  0  0  0  0  0  0  0  0  0
    6.2694   -2.8714   -0.9935 C   0  0  0  0  0  0  0  0  0  0  0  0
    5.8050   -3.8551    0.0906 C   0  0  0  0  0  0  0  0  0  0  0  0
    4.9849   -5.0068   -0.5085 C   0  0  0  0  0  0  0  0  0  0  0  0
    3.8884   -4.4885   -1.3242 N   0  0  0  0  0  0  0  0  0  0  0  0
    2.6081   -4.4979   -0.8033 C   0  0  0  0  0  0  0  0  0  0  0  0
    2.3502   -5.0867    0.2369 O   0  0  0  0  0  0  0  0  0  0  0  0
    1.5346   -3.7388   -1.5776 C   0  0  0  0  0  0  0  0  0  0  0  0
    0.1563   -3.8197   -0.9260 C   0  0  0  0  0  0  0  0  0  0  0  0
   -0.8320   -2.7814   -1.4780 C   0  0  1  0  0  0  0  0  0  0  0  0
   -2.2495   -3.0207   -0.9386 C   0  0  0  0  0  0  0  0  0  0  0  0
   -0.3239   -1.4292   -1.2107 N   0  0  0  0  0  0  0  0  0  0  0  0
    4.3336   -3.6339   -2.4134 C   0  0  0  0  0  0  0  0  0  0  0  0
    2.4161    0.5409    1.6684 H   0  0  0  0  0  0  0  0  0  0  0  0
    4.1759    0.2832    1.6620 H   0  0  0  0  0  0  0  0  0  0  0  0
    3.0806   -1.0552    1.2405 H   0  0  0  0  0  0  0  0  0  0  0  0
    3.4277    1.5313   -0.4187 H   0  0  0  0  0  0  0  0  0  0  0  0
    2.3281    0.1980   -0.8206 H   0  0  0  0  0  0  0  0  0  0  0  0
    5.3868   -0.0207   -0.6468 H   0  0  0  0  0  0  0  0  0  0  0  0
    4.4459    0.1732   -2.1494 H   0  0  0  0  0  0  0  0  0  0  0  0
    5.4864   -1.8363   -2.7442 H   0  0  0  0  0  0  0  0  0  0  0  0
    6.7665   -1.9968   -0.5423 H   0  0  0  0  0  0  0  0  0  0  0  0
    7.0222   -3.3540   -1.6435 H   0  0  0  0  0  0  0  0  0  0  0  0
    5.1779   -3.3234    0.8242 H   0  0  0  0  0  0  0  0  0  0  0  0
    6.6729   -4.2589    0.6384 H   0  0  0  0  0  0  0  0  0  0  0  0
    4.5477   -5.6356    0.2762 H   0  0  0  0  0  0  0  0  0  0  0  0
    5.6292   -5.6412   -1.1461 H   0  0  0  0  0  0  0  0  0  0  0  0
    1.4920   -4.1138   -2.6159 H   0  0  0  0  0  0  0  0  0  0  0  0
    1.8369   -2.6826   -1.6406 H   0  0  0  0  0  0  0  0  0  0  0  0
    0.2641   -3.6756    0.1627 H   0  0  0  0  0  0  0  0  0  0  0  0
   -0.2648   -4.8313   -1.0452 H   0  0  0  0  0  0  0  0  0  0  0  0
   -0.8647   -2.8887   -2.5791 H   0  0  0  0  0  0  0  0  0  0  0  0
   -2.2633   -2.9507    0.1631 H   0  0  0  0  0  0  0  0  0  0  0  0
   -2.6287   -4.0189   -1.2138 H   0  0  0  0  0  0  0  0  0  0  0  0
   -2.9560   -2.2714   -1.3332 H   0  0  0  0  0  0  0  0  0  0  0  0
   -0.3305   -1.2533   -0.2034 H   0  0  0  0  0  0  0  0  0  0  0  0
   -0.9409   -0.7290   -1.6235 H   0  0  0  0  0  0  0  0  0  0  0  0
    3.4854   -3.3015   -3.0208 H   0  0  0  0  0  0  0  0  0  0  0  0
    5.0055   -4.2139   -3.0729 H   0  0  0  0  0  0  0  0  0  0  0  0
  1  2  1  0
  1 18  1  0
  1 19  1  0
  1 20  1  0
  2  3  1  0
  2 21  1  0
  2 22  1  0
  3  4  1  0
  3 23  1  0
  3 24  1  0
  4  5  1  0
  5  6  1  0
  5 17  1  0
  5 25  1  6
  6  7  1  0
  6 26  1  0
  6 27  1  0
  7  8  1  0
  7 28  1  0
  7 29  1  0
  8  9  1  0
  8 30  1  0
  8 31  1  0
  9 10  1  0
  9 17  1  0
 10 11  2  0
 10 12  1  0
 12 13  1  0
 12 32  1  0
 12 33  1  0
 13 14  1  0
 13 34  1  0
 13 35  1  0
 14 15  1  0
 14 16  1  0
 14 36  1  6
 15 37  1  0
 15 38  1  0
 15 39  1  0
 16 40  1  0
 16 41  1  0
 17 42  1  0
 17 43  1  0
M  END

