
     RDKit          3D

 48 52  0  0  0  0  0  0  0  0999 V2000
   -0.5103    4.6371    1.5711 C   0  0  0  0  0  0  0  0  0  0  0  0
    0.5126    4.5866    2.5401 O   0  0  0  0  0  0  0  0  0  0  0  0
    1.7976    4.7976    2.1556 C   0  0  0  0  0  0  0  0  0  0  0  0
    2.1934    5.1130    0.8526 C   0  0  0  0  0  0  0  0  0  0  0  0
    3.5508    5.3187    0.5588 C   0  0  0  0  0  0  0  0  0  0  0  0
    3.9766    5.6991   -0.8598 C   0  0  2  0  0  0  0  0  0  0  0  0
    5.0805    5.7649   -0.8644 H   0  0  0  0  0  0  0  0  0  0  0  0
    3.3994    7.0602   -1.2620 C   0  0  0  0  0  0  0  0  0  0  0  0
    3.8133    8.2160   -0.5575 C   0  0  0  0  0  0  0  0  0  0  0  0
    3.2166    9.4178   -0.8721 C   0  0  0  0  0  0  0  0  0  0  0  0
    2.2234    9.5125   -1.8547 C   0  0  0  0  0  0  0  0  0  0  0  0
    1.8046    8.4118   -2.5732 C   0  0  0  0  0  0  0  0  0  0  0  0
    2.4160    7.1791   -2.2574 C   0  0  0  0  0  0  0  0  0  0  0  0
    2.0042    6.0832   -2.9867 O   0  0  0  0  0  0  0  0  0  0  0  0
    3.0315    5.1294   -3.1194 C   0  0  2  0  0  0  0  0  0  0  0  0
    2.5122    3.7970   -3.6722 C   0  0  0  0  0  0  0  0  0  0  0  0
    3.1762    2.7974   -2.9028 O   0  0  0  0  0  0  0  0  0  0  0  0
    3.7330    3.3517   -1.7777 C   0  0  0  0  0  0  0  0  0  0  0  0
    4.2926    2.7172   -0.9302 O   0  0  0  0  0  0  0  0  0  0  0  0
    3.5321    4.7154   -1.8403 N   0  0  0  0  0  0  0  0  0  0  0  0
    1.7913   10.8034   -1.9384 O   0  0  0  0  0  0  0  0  0  0  0  0
    2.6647   11.5669   -1.1060 C   0  0  0  0  0  0  0  0  0  0  0  0
    3.4182   10.6539   -0.3177 O   0  0  0  0  0  0  0  0  0  0  0  0
    4.5055    5.2017    1.5644 C   0  0  0  0  0  0  0  0  0  0  0  0
    4.1189    4.8960    2.8790 C   0  0  0  0  0  0  0  0  0  0  0  0
    5.0815    4.8425    3.8451 O   0  0  0  0  0  0  0  0  0  0  0  0
    5.3093    3.5812    4.4638 C   0  0  0  0  0  0  0  0  0  0  0  0
    2.7654    4.6912    3.1854 C   0  0  0  0  0  0  0  0  0  0  0  0
    2.3950    4.3609    4.4589 O   0  0  0  0  0  0  0  0  0  0  0  0
    1.8106    5.4037    5.2268 C   0  0  0  0  0  0  0  0  0  0  0  0
   -1.4502    4.4226    2.0973 H   0  0  0  0  0  0  0  0  0  0  0  0
   -0.3619    3.8801    0.7805 H   0  0  0  0  0  0  0  0  0  0  0  0
   -0.5827    5.6336    1.0990 H   0  0  0  0  0  0  0  0  0  0  0  0
    1.4574    5.2000    0.0537 H   0  0  0  0  0  0  0  0  0  0  0  0
    4.5640    8.1496    0.2316 H   0  0  0  0  0  0  0  0  0  0  0  0
    1.0469    8.4665   -3.3543 H   0  0  0  0  0  0  0  0  0  0  0  0
    3.8311    5.5794   -3.7447 H   0  0  0  0  0  0  0  0  0  0  0  0
    2.7404    3.6461   -4.7359 H   0  0  0  0  0  0  0  0  0  0  0  0
    1.4216    3.7414   -3.5170 H   0  0  0  0  0  0  0  0  0  0  0  0
    2.0704   12.2240   -0.4510 H   0  0  0  0  0  0  0  0  0  0  0  0
    3.3457   12.1686   -1.7403 H   0  0  0  0  0  0  0  0  0  0  0  0
    5.5698    5.3331    1.3601 H   0  0  0  0  0  0  0  0  0  0  0  0
    6.1287    3.7287    5.1817 H   0  0  0  0  0  0  0  0  0  0  0  0
    5.6184    2.8267    3.7182 H   0  0  0  0  0  0  0  0  0  0  0  0
    4.4151    3.2216    4.9955 H   0  0  0  0  0  0  0  0  0  0  0  0
    1.6027    4.9873    6.2227 H   0  0  0  0  0  0  0  0  0  0  0  0
    0.8651    5.7511    4.7785 H   0  0  0  0  0  0  0  0  0  0  0  0
    2.5026    6.2581    5.3317 H   0  0  0  0  0  0  0  0  0  0  0  0
  1  2  1  0
  1 31  1  0
  1 32  1  0
  1 33  1  0
  2  3  1  0
  3  4  2  0
  3 28  1  0
  4  5  1  0
  4 34  1  0
  5  6  1  0
  5 24  2  0
  6  7  1  1
  6  8  1  0
  6 20  1  0
  8  9  2  0
  8 13  1  0
  9 10  1  0
  9 35  1  0
 10 11  2  0
 10 23  1  0
 11 12  1  0
 11 21  1  0
 12 13  2  0
 12 36  1  0
 13 14  1  0
 14 15  1  0
 15 16  1  0
 15 20  1  0
 15 37  1  6
 16 17  1  0
 16 38  1  0
 16 39  1  0
 17 18  1  0
 18 19  2  0
 18 20  1  0
 21 22  1  0
 22 23  1  0
 22 40  1  0
 22 41  1  0
 24 25  1  0
 24 42  1  0
 25 26  1  0
 25 28  2  0
 26 27  1  0
 27 43  1  0
 27 44  1  0
 27 45  1  0
 28 29  1  0
 29 30  1  0
 30 46  1  0
 30 47  1  0
 30 48  1  0
M  END

