
     RDKit          3D

 52 51  0  0  0  0  0  0  0  0999 V2000
    0.6480    0.3627   -0.2463 C   0  0  0  0  0  0  0  0  0  0  0  0
    2.1508    0.1169   -0.1047 C   0  0  0  0  0  0  0  0  0  0  0  0
    2.9495    0.4545   -1.3675 C   0  0  0  0  0  0  0  0  0  0  0  0
    4.4564    0.2133   -1.2316 C   0  0  0  0  0  0  0  0  0  0  0  0
    5.2397    0.5415   -2.5053 C   0  0  0  0  0  0  0  0  0  0  0  0
    6.7699    0.4340   -2.3976 C   0  0  1  0  0  0  0  0  0  0  0  0
    7.2314   -0.9909   -2.0720 C   0  0  0  0  0  0  0  0  0  0  0  0
    7.3541    0.8846   -3.6617 N   0  0  0  0  0  0  0  0  0  0  0  0
    8.7661    1.2324   -3.6375 C   0  0  0  0  0  0  0  0  0  0  0  0
    9.2374    1.7389   -5.0005 C   0  0  0  0  0  0  0  0  0  0  0  0
   10.7298    2.0751   -5.0518 C   0  0  0  0  0  0  0  0  0  0  0  0
   11.1996    2.5908   -6.4153 C   0  0  0  0  0  0  0  0  0  0  0  0
   12.6940    2.9240   -6.4711 C   0  0  0  0  0  0  0  0  0  0  0  0
   13.1545    3.4363   -7.8398 C   0  0  0  0  0  0  0  0  0  0  0  0
   14.6297    3.8715   -7.9299 C   0  0  1  0  0  0  0  0  0  0  0  0
   15.6060    2.7129   -7.6849 C   0  0  0  0  0  0  0  0  0  0  0  0
   14.9140    4.5418   -9.2805 C   0  0  0  0  0  0  0  0  0  0  0  0
    0.1063    0.1093    0.6791 H   0  0  0  0  0  0  0  0  0  0  0  0
    0.2173   -0.2443   -1.0604 H   0  0  0  0  0  0  0  0  0  0  0  0
    0.4344    1.4200   -0.4774 H   0  0  0  0  0  0  0  0  0  0  0  0
    2.3279   -0.9406    0.1642 H   0  0  0  0  0  0  0  0  0  0  0  0
    2.5435    0.7096    0.7418 H   0  0  0  0  0  0  0  0  0  0  0  0
    2.7709    1.5119   -1.6393 H   0  0  0  0  0  0  0  0  0  0  0  0
    2.5600   -0.1404   -2.2148 H   0  0  0  0  0  0  0  0  0  0  0  0
    4.6240   -0.8400   -0.9461 H   0  0  0  0  0  0  0  0  0  0  0  0
    4.8475    0.8192   -0.3930 H   0  0  0  0  0  0  0  0  0  0  0  0
    4.9925    1.5764   -2.8101 H   0  0  0  0  0  0  0  0  0  0  0  0
    4.9040   -0.1070   -3.3348 H   0  0  0  0  0  0  0  0  0  0  0  0
    7.0920    1.0926   -1.5551 H   0  0  0  0  0  0  0  0  0  0  0  0
    6.8911   -1.6890   -2.8542 H   0  0  0  0  0  0  0  0  0  0  0  0
    6.8388   -1.3283   -1.1008 H   0  0  0  0  0  0  0  0  0  0  0  0
    8.3286   -1.0567   -2.0162 H   0  0  0  0  0  0  0  0  0  0  0  0
    6.8248    1.6860   -4.0045 H   0  0  0  0  0  0  0  0  0  0  0  0
    9.3528    0.3364   -3.3706 H   0  0  0  0  0  0  0  0  0  0  0  0
    9.0082    1.9930   -2.8569 H   0  0  0  0  0  0  0  0  0  0  0  0
    8.6523    2.6378   -5.2748 H   0  0  0  0  0  0  0  0  0  0  0  0
    8.9926    0.9749   -5.7588 H   0  0  0  0  0  0  0  0  0  0  0  0
   11.3154    1.1767   -4.7814 H   0  0  0  0  0  0  0  0  0  0  0  0
   10.9645    2.8289   -4.2772 H   0  0  0  0  0  0  0  0  0  0  0  0
   10.6143    3.4892   -6.6868 H   0  0  0  0  0  0  0  0  0  0  0  0
   10.9645    1.8373   -7.1899 H   0  0  0  0  0  0  0  0  0  0  0  0
   13.2701    2.0251   -6.1893 H   0  0  0  0  0  0  0  0  0  0  0  0
   12.9263    3.6837   -5.7010 H   0  0  0  0  0  0  0  0  0  0  0  0
   12.5199    4.2956   -8.1243 H   0  0  0  0  0  0  0  0  0  0  0  0
   12.9637    2.6593   -8.6050 H   0  0  0  0  0  0  0  0  0  0  0  0
   14.7997    4.6274   -7.1387 H   0  0  0  0  0  0  0  0  0  0  0  0
   15.4630    1.9133   -8.4329 H   0  0  0  0  0  0  0  0  0  0  0  0
   15.4785    2.2635   -6.6879 H   0  0  0  0  0  0  0  0  0  0  0  0
   16.6516    3.0533   -7.7605 H   0  0  0  0  0  0  0  0  0  0  0  0
   14.7556    3.8343  -10.1131 H   0  0  0  0  0  0  0  0  0  0  0  0
   15.9551    4.8984   -9.3425 H   0  0  0  0  0  0  0  0  0  0  0  0
   14.2519    5.4066   -9.4502 H   0  0  0  0  0  0  0  0  0  0  0  0
  1  2  1  0
  1 18  1  0
  1 19  1  0
  1 20  1  0
  2  3  1  0
  2 21  1  0
  2 22  1  0
  3  4  1  0
  3 23  1  0
  3 24  1  0
  4  5  1  0
  4 25  1  0
  4 26  1  0
  5  6  1  0
  5 27  1  0
  5 28  1  0
  6  7  1  0
  6  8  1  0
  6 29  1  1
  7 30  1  0
  7 31  1  0
  7 32  1  0
  8  9  1  0
  8 33  1  0
  9 10  1  0
  9 34  1  0
  9 35  1  0
 10 11  1  0
 10 36  1  0
 10 37  1  0
 11 12  1  0
 11 38  1  0
 11 39  1  0
 12 13  1  0
 12 40  1  0
 12 41  1  0
 13 14  1  0
 13 42  1  0
 13 43  1  0
 14 15  1  0
 14 44  1  0
 14 45  1  0
 15 16  1  0
 15 17  1  0
 15 46  1  1
 16 47  1  0
 16 48  1  0
 16 49  1  0
 17 50  1  0
 17 51  1  0
 17 52  1  0
M  END

