
     RDKit          3D

 51 52  0  0  0  0  0  0  0  0999 V2000
    1.6782    0.3560    0.4238 C   0  0  0  0  0  0  0  0  0  0  0  0
    3.1018    0.0227   -0.0475 C   0  0  1  0  0  0  0  0  0  0  0  0
    3.2376   -1.4341   -0.5361 C   0  0  0  0  0  0  0  0  0  0  0  0
    2.5828   -1.6594   -1.9054 C   0  0  0  0  0  0  0  0  0  0  0  0
    3.1385   -0.7399   -3.0199 C   0  0  2  0  0  0  0  0  0  0  0  0
    2.3119   -0.9370   -4.3250 C   0  0  0  0  0  0  0  0  0  0  0  0
    0.8718   -0.7669   -4.1338 N   0  0  0  0  0  0  0  0  0  0  0  0
    4.5827   -1.0410   -3.2707 N   0  0  0  0  0  0  0  0  0  0  0  0
    4.9482   -2.4470   -3.4112 C   0  0  0  0  0  0  0  0  0  0  0  0
    5.2440   -0.2400   -4.2936 C   0  0  0  0  0  0  0  0  0  0  0  0
    6.7178    0.0994   -4.0105 C   0  0  0  0  0  0  0  0  0  0  0  0
    7.4434    0.5091   -4.9022 O   0  0  0  0  0  0  0  0  0  0  0  0
    7.0990   -0.0567   -2.7138 N   0  0  0  0  0  0  0  0  0  0  0  0
    8.4243    0.2466   -2.2216 C   0  0  1  0  0  0  0  0  0  0  0  0
    8.4904    1.3570   -1.1577 C   0  0  0  0  0  0  0  0  0  0  0  0
    9.9175    1.2242   -0.6102 C   0  0  0  0  0  0  0  0  0  0  0  0
   10.2128   -0.3030   -0.6167 C   0  0  0  0  0  0  0  0  0  0  0  0
    9.1385   -0.9402   -1.5359 C   0  0  0  0  0  0  0  0  0  0  0  0
    2.9654    0.7155   -2.5170 C   0  0  0  0  0  0  0  0  0  0  0  0
    3.5997    0.9834   -1.1463 C   0  0  0  0  0  0  0  0  0  0  0  0
    1.3583   -0.3265    1.2284 H   0  0  0  0  0  0  0  0  0  0  0  0
    0.9355    0.2816   -0.3864 H   0  0  0  0  0  0  0  0  0  0  0  0
    1.6269    1.3835    0.8195 H   0  0  0  0  0  0  0  0  0  0  0  0
    3.7642    0.1433    0.8285 H   0  0  0  0  0  0  0  0  0  0  0  0
    2.7926   -2.1218    0.2038 H   0  0  0  0  0  0  0  0  0  0  0  0
    4.3083   -1.6929   -0.5945 H   0  0  0  0  0  0  0  0  0  0  0  0
    1.5067   -1.4422   -1.8295 H   0  0  0  0  0  0  0  0  0  0  0  0
    2.6543   -2.7196   -2.1968 H   0  0  0  0  0  0  0  0  0  0  0  0
    2.5779   -1.9202   -4.7628 H   0  0  0  0  0  0  0  0  0  0  0  0
    2.6431   -0.1789   -5.0526 H   0  0  0  0  0  0  0  0  0  0  0  0
    0.4339   -1.6404   -3.8441 H   0  0  0  0  0  0  0  0  0  0  0  0
    0.4228   -0.5019   -5.0088 H   0  0  0  0  0  0  0  0  0  0  0  0
    4.7055   -3.0235   -2.5083 H   0  0  0  0  0  0  0  0  0  0  0  0
    6.0373   -2.5194   -3.5514 H   0  0  0  0  0  0  0  0  0  0  0  0
    4.4752   -2.9532   -4.2792 H   0  0  0  0  0  0  0  0  0  0  0  0
    4.7445    0.7323   -4.4061 H   0  0  0  0  0  0  0  0  0  0  0  0
    5.2313   -0.7027   -5.3005 H   0  0  0  0  0  0  0  0  0  0  0  0
    6.3791   -0.4088   -2.0865 H   0  0  0  0  0  0  0  0  0  0  0  0
    8.9980    0.5664   -3.1058 H   0  0  0  0  0  0  0  0  0  0  0  0
    7.7476    1.1477   -0.3656 H   0  0  0  0  0  0  0  0  0  0  0  0
    8.2632    2.3528   -1.5685 H   0  0  0  0  0  0  0  0  0  0  0  0
   10.0410    1.6788    0.3846 H   0  0  0  0  0  0  0  0  0  0  0  0
   10.6160    1.7446   -1.2863 H   0  0  0  0  0  0  0  0  0  0  0  0
   10.1545   -0.7233    0.3995 H   0  0  0  0  0  0  0  0  0  0  0  0
   11.2327   -0.5066   -0.9774 H   0  0  0  0  0  0  0  0  0  0  0  0
    8.3995   -1.4995   -0.9362 H   0  0  0  0  0  0  0  0  0  0  0  0
    9.5542   -1.6485   -2.2687 H   0  0  0  0  0  0  0  0  0  0  0  0
    1.8813    0.9030   -2.4889 H   0  0  0  0  0  0  0  0  0  0  0  0
    3.3630    1.4323   -3.2533 H   0  0  0  0  0  0  0  0  0  0  0  0
    3.4024    2.0276   -0.8481 H   0  0  0  0  0  0  0  0  0  0  0  0
    4.6948    0.8933   -1.2335 H   0  0  0  0  0  0  0  0  0  0  0  0
  1  2  1  0
  1 21  1  0
  1 22  1  0
  1 23  1  0
  2  3  1  0
  2 20  1  0
  2 24  1  1
  3  4  1  0
  3 25  1  0
  3 26  1  0
  4  5  1  0
  4 27  1  0
  4 28  1  0
  5  6  1  0
  5  8  1  6
  5 19  1  0
  6  7  1  0
  6 29  1  0
  6 30  1  0
  7 31  1  0
  7 32  1  0
  8  9  1  0
  8 10  1  0
  9 33  1  0
  9 34  1  0
  9 35  1  0
 10 11  1  0
 10 36  1  0
 10 37  1  0
 11 12  2  0
 11 13  1  0
 13 14  1  0
 13 38  1  0
 14 15  1  0
 14 18  1  0
 14 39  1  6
 15 16  1  0
 15 40  1  0
 15 41  1  0
 16 17  1  0
 16 42  1  0
 16 43  1  0
 17 18  1  0
 17 44  1  0
 17 45  1  0
 18 46  1  0
 18 47  1  0
 19 20  1  0
 19 48  1  0
 19 49  1  0
 20 50  1  0
 20 51  1  0
M  END

