
     RDKit          3D

 36 37  0  0  0  0  0  0  0  0999 V2000
    1.7878   -1.3205   -0.7947 C   0  0  0  0  0  0  0  0  0  0  0  0
    2.7375   -0.3934   -0.3178 O   0  0  0  0  0  0  0  0  0  0  0  0
    3.1055    0.6472   -1.1047 C   0  0  0  0  0  0  0  0  0  0  0  0
    2.6066    0.8865   -2.3959 C   0  0  0  0  0  0  0  0  0  0  0  0
    3.0584    1.9936   -3.1178 C   0  0  0  0  0  0  0  0  0  0  0  0
    4.0047    2.8860   -2.5933 C   0  0  0  0  0  0  0  0  0  0  0  0
    4.4470    4.0820   -3.4362 C   0  0  1  0  0  0  0  0  0  0  0  0
    5.4387    5.0255   -2.7431 C   0  0  0  0  0  0  0  0  0  0  0  0
    4.9643    3.5933   -4.7132 N   0  0  0  0  0  0  0  0  0  0  0  0
    4.9894    4.2670   -5.8962 C   0  0  0  0  0  0  0  0  0  0  0  0
    4.3954    5.5389   -6.0845 C   0  0  0  0  0  0  0  0  0  0  0  0
    4.4656    6.1265   -7.3452 C   0  0  0  0  0  0  0  0  0  0  0  0
    3.8222    7.4821   -7.5192 C   0  0  0  0  0  0  0  0  0  0  0  0
    2.9924    7.9148   -6.7655 O   0  0  0  0  0  0  0  0  0  0  0  0
    4.2384    8.2064   -8.5782 O   0  0  0  0  0  0  0  0  0  0  0  0
    5.1008    5.4513   -8.3995 C   0  0  0  0  0  0  0  0  0  0  0  0
    5.6536    4.2020   -8.0924 C   0  0  0  0  0  0  0  0  0  0  0  0
    6.4605    3.3163   -9.3770 Cl  0  0  0  0  0  0  0  0  0  0  0  0
    5.6155    3.6329   -6.9114 N   0  0  0  0  0  0  0  0  0  0  0  0
    4.4920    2.6311   -1.3009 C   0  0  0  0  0  0  0  0  0  0  0  0
    4.0526    1.5323   -0.5660 C   0  0  0  0  0  0  0  0  0  0  0  0
    1.6492   -2.0639    0.0017 H   0  0  0  0  0  0  0  0  0  0  0  0
    2.1377   -1.8360   -1.7073 H   0  0  0  0  0  0  0  0  0  0  0  0
    0.8155   -0.8409   -1.0084 H   0  0  0  0  0  0  0  0  0  0  0  0
    1.8684    0.2226   -2.8462 H   0  0  0  0  0  0  0  0  0  0  0  0
    2.6621    2.1633   -4.1227 H   0  0  0  0  0  0  0  0  0  0  0  0
    3.5360    4.6635   -3.6640 H   0  0  0  0  0  0  0  0  0  0  0  0
    6.3744    4.5035   -2.4889 H   0  0  0  0  0  0  0  0  0  0  0  0
    5.0111    5.4468   -1.8205 H   0  0  0  0  0  0  0  0  0  0  0  0
    5.6925    5.8634   -3.4092 H   0  0  0  0  0  0  0  0  0  0  0  0
    5.4746    2.7162   -4.7148 H   0  0  0  0  0  0  0  0  0  0  0  0
    3.8855    6.0733   -5.2848 H   0  0  0  0  0  0  0  0  0  0  0  0
    4.9866    7.7723   -9.0128 H   0  0  0  0  0  0  0  0  0  0  0  0
    5.1447    5.8300   -9.4210 H   0  0  0  0  0  0  0  0  0  0  0  0
    5.2281    3.2960   -0.8466 H   0  0  0  0  0  0  0  0  0  0  0  0
    4.4333    1.3359    0.4384 H   0  0  0  0  0  0  0  0  0  0  0  0
  1  2  1  0
  1 22  1  0
  1 23  1  0
  1 24  1  0
  2  3  1  0
  3  4  2  0
  3 21  1  0
  4  5  1  0
  4 25  1  0
  5  6  2  0
  5 26  1  0
  6  7  1  0
  6 20  1  0
  7  8  1  0
  7  9  1  0
  7 27  1  6
  8 28  1  0
  8 29  1  0
  8 30  1  0
  9 10  1  0
  9 31  1  0
 10 11  2  0
 10 19  1  0
 11 12  1  0
 11 32  1  0
 12 13  1  0
 12 16  2  0
 13 14  2  0
 13 15  1  0
 15 33  1  0
 16 17  1  0
 16 34  1  0
 17 18  1  0
 17 19  2  0
 20 21  2  0
 20 35  1  0
 21 36  1  0
M  END

