
     RDKit          3D

 49 51  0  0  0  0  0  0  0  0999 V2000
    1.0670    0.0044    0.5151 C   0  0  0  0  0  0  0  0  0  0  0  0
    2.5459   -0.1562    0.1481 C   0  0  1  0  0  0  0  0  0  0  0  0
    2.8595   -1.5326   -0.5014 C   0  0  0  0  0  0  0  0  0  0  0  0
    2.7430   -1.5745   -2.0217 C   0  0  1  0  0  0  0  0  0  0  0  0
    2.7371   -2.9680   -2.6587 C   0  0  0  0  0  0  0  0  0  0  0  0
    2.0183   -2.7060   -3.9873 C   0  0  0  0  0  0  0  0  0  0  0  0
    0.9711   -1.6601   -3.5812 C   0  0  0  0  0  0  0  0  0  0  0  0
    1.5138   -0.9653   -2.4586 O   0  0  0  0  0  0  0  0  0  0  0  0
    2.9692    0.9688   -0.6822 N   0  0  0  0  0  0  0  0  0  0  0  0
    4.2680    1.4247   -0.6366 C   0  0  0  0  0  0  0  0  0  0  0  0
    5.1034    0.9531    0.1253 O   0  0  0  0  0  0  0  0  0  0  0  0
    4.5737    2.4821   -1.4894 N   0  0  0  0  0  0  0  0  0  0  0  0
    3.6352    3.1637   -2.3650 C   0  0  0  0  0  0  0  0  0  0  0  0
    3.9182    4.6683   -2.3571 C   0  0  0  0  0  0  0  0  0  0  0  0
    5.2737    4.9395   -2.6417 O   0  0  0  0  0  0  0  0  0  0  0  0
    6.1513    4.3506   -1.6885 C   0  0  2  0  0  0  0  0  0  0  0  0
    7.5725    4.7633   -2.0585 C   0  0  0  0  0  0  0  0  0  0  0  0
    7.8182    6.1822   -1.8935 N   0  0  0  0  0  0  0  0  0  0  0  0
    7.4606    7.1943   -2.7312 C   0  0  0  0  0  0  0  0  0  0  0  0
    7.8435    8.3735   -2.1148 C   0  0  0  0  0  0  0  0  0  0  0  0
    8.4221    7.9546   -0.8919 C   0  0  0  0  0  0  0  0  0  0  0  0
    8.3985    6.6309   -0.7664 N   0  0  0  0  0  0  0  0  0  0  0  0
    5.9741    2.8323   -1.6799 C   0  0  0  0  0  0  0  0  0  0  0  0
    0.7566   -0.7869    1.2155 H   0  0  0  0  0  0  0  0  0  0  0  0
    0.4304   -0.0680   -0.3792 H   0  0  0  0  0  0  0  0  0  0  0  0
    0.8949    0.9781    0.9996 H   0  0  0  0  0  0  0  0  0  0  0  0
    3.1483   -0.0855    1.0644 H   0  0  0  0  0  0  0  0  0  0  0  0
    2.1963   -2.2940   -0.0571 H   0  0  0  0  0  0  0  0  0  0  0  0
    3.8943   -1.8173   -0.2504 H   0  0  0  0  0  0  0  0  0  0  0  0
    3.5821   -0.9913   -2.4518 H   0  0  0  0  0  0  0  0  0  0  0  0
    2.1547   -3.6664   -2.0337 H   0  0  0  0  0  0  0  0  0  0  0  0
    3.7485   -3.3840   -2.7793 H   0  0  0  0  0  0  0  0  0  0  0  0
    1.5696   -3.6069   -4.4317 H   0  0  0  0  0  0  0  0  0  0  0  0
    2.7212   -2.2835   -4.7241 H   0  0  0  0  0  0  0  0  0  0  0  0
    0.0175   -2.1377   -3.2871 H   0  0  0  0  0  0  0  0  0  0  0  0
    0.7485   -0.9411   -4.3883 H   0  0  0  0  0  0  0  0  0  0  0  0
    2.4238    1.1023   -1.5269 H   0  0  0  0  0  0  0  0  0  0  0  0
    2.6069    3.0054   -2.0123 H   0  0  0  0  0  0  0  0  0  0  0  0
    3.7079    2.7838   -3.4051 H   0  0  0  0  0  0  0  0  0  0  0  0
    3.6441    5.0856   -1.3672 H   0  0  0  0  0  0  0  0  0  0  0  0
    3.3177    5.1756   -3.1277 H   0  0  0  0  0  0  0  0  0  0  0  0
    5.9153    4.7448   -0.6797 H   0  0  0  0  0  0  0  0  0  0  0  0
    7.7673    4.4834   -3.1059 H   0  0  0  0  0  0  0  0  0  0  0  0
    8.2919    4.2406   -1.4139 H   0  0  0  0  0  0  0  0  0  0  0  0
    6.9570    6.9945   -3.6737 H   0  0  0  0  0  0  0  0  0  0  0  0
    7.7266    9.3860   -2.4942 H   0  0  0  0  0  0  0  0  0  0  0  0
    8.8600    8.5666   -0.1031 H   0  0  0  0  0  0  0  0  0  0  0  0
    6.5449    2.3695   -0.8648 H   0  0  0  0  0  0  0  0  0  0  0  0
    6.3445    2.4250   -2.6439 H   0  0  0  0  0  0  0  0  0  0  0  0
  1  2  1  0
  1 24  1  0
  1 25  1  0
  1 26  1  0
  2  3  1  0
  2  9  1  0
  2 27  1  1
  3  4  1  0
  3 28  1  0
  3 29  1  0
  4  5  1  0
  4  8  1  0
  4 30  1  6
  5  6  1  0
  5 31  1  0
  5 32  1  0
  6  7  1  0
  6 33  1  0
  6 34  1  0
  7  8  1  0
  7 35  1  0
  7 36  1  0
  9 10  1  0
  9 37  1  0
 10 11  2  0
 10 12  1  0
 12 13  1  0
 12 23  1  0
 13 14  1  0
 13 38  1  0
 13 39  1  0
 14 15  1  0
 14 40  1  0
 14 41  1  0
 15 16  1  0
 16 17  1  0
 16 23  1  0
 16 42  1  1
 17 18  1  0
 17 43  1  0
 17 44  1  0
 18 19  1  0
 18 22  1  0
 19 20  2  0
 19 45  1  0
 20 21  1  0
 20 46  1  0
 21 22  2  0
 21 47  1  0
 23 48  1  0
 23 49  1  0
M  END

