
     RDKit          3D

 50 54  0  0  0  0  0  0  0  0999 V2000
    1.7428   -0.3469   -0.3617 C   0  0  0  0  0  0  0  0  0  0  0  0
    2.9140    0.3739    0.3259 C   0  0  0  0  0  0  0  0  0  0  0  0
    3.1010    1.8020   -0.1143 C   0  0  0  0  0  0  0  0  0  0  0  0
    2.4811    2.9482    0.4214 C   0  0  0  0  0  0  0  0  0  0  0  0
    1.5261    2.9153    1.5818 C   0  0  0  0  0  0  0  0  0  0  0  0
    2.9500    4.0656   -0.3410 C   0  0  0  0  0  0  0  0  0  0  0  0
    3.8254    3.5750   -1.3072 N   0  0  0  0  0  0  0  0  0  0  0  0
    3.9203    2.2297   -1.1828 C   0  0  0  0  0  0  0  0  0  0  0  0
    4.7822    1.4032   -2.0817 C   0  0  0  0  0  0  0  0  0  0  0  0
    4.5578    4.4025   -2.3742 B   0  0  2  0  0  0  0  0  0  0  0  0
    4.1200    3.9844   -3.6617 F   0  0  0  0  0  0  0  0  0  0  0  0
    5.9318    4.2429   -2.2878 F   0  0  0  0  0  0  0  0  0  0  0  0
    4.1799    5.9084   -2.1735 N   0  0  0  0  0  0  0  0  0  0  0  0
    4.6633    6.9569   -2.8795 C   0  0  0  0  0  0  0  0  0  0  0  0
    5.5931    6.8923   -3.9827 C   0  0  0  0  0  0  0  0  0  0  0  0
    6.5222    7.8568   -4.4098 C   0  0  0  0  0  0  0  0  0  0  0  0
    7.2087    7.3279   -5.5232 C   0  0  0  0  0  0  0  0  0  0  0  0
    6.6829    6.0612   -5.7589 C   0  0  0  0  0  0  0  0  0  0  0  0
    5.7240    5.8137   -4.8318 N   0  0  0  0  0  0  0  0  0  0  0  0
    5.1695    4.9629   -4.7365 H   0  0  0  0  0  0  0  0  0  0  0  0
    4.0944    8.1676   -2.3380 C   0  0  0  0  0  0  0  0  0  0  0  0
    4.2045    9.5124   -2.7406 C   0  0  0  0  0  0  0  0  0  0  0  0
    3.5157   10.4837   -2.0280 C   0  0  0  0  0  0  0  0  0  0  0  0
    2.7102   10.1231   -0.9270 C   0  0  0  0  0  0  0  0  0  0  0  0
    2.5641    8.7970   -0.5372 C   0  0  0  0  0  0  0  0  0  0  0  0
    3.2523    7.7900   -1.2501 C   0  0  0  0  0  0  0  0  0  0  0  0
    3.3151    6.3485   -1.1599 C   0  0  0  0  0  0  0  0  0  0  0  0
    2.7012    5.4606   -0.2670 C   0  0  0  0  0  0  0  0  0  0  0  0
    1.7771    6.0265    0.7802 C   0  0  0  0  0  0  0  0  0  0  0  0
    1.6516   -1.3870   -0.0079 H   0  0  0  0  0  0  0  0  0  0  0  0
    1.8778   -0.3711   -1.4549 H   0  0  0  0  0  0  0  0  0  0  0  0
    0.7871    0.1641   -0.1620 H   0  0  0  0  0  0  0  0  0  0  0  0
    3.8428   -0.1902    0.1397 H   0  0  0  0  0  0  0  0  0  0  0  0
    2.7694    0.3386    1.4186 H   0  0  0  0  0  0  0  0  0  0  0  0
    1.3962    1.8854    1.9413 H   0  0  0  0  0  0  0  0  0  0  0  0
    0.5235    3.2876    1.3145 H   0  0  0  0  0  0  0  0  0  0  0  0
    1.8801    3.5107    2.4392 H   0  0  0  0  0  0  0  0  0  0  0  0
    5.8215    1.7655   -2.0686 H   0  0  0  0  0  0  0  0  0  0  0  0
    4.4374    1.4747   -3.1257 H   0  0  0  0  0  0  0  0  0  0  0  0
    4.7681    0.3479   -1.7805 H   0  0  0  0  0  0  0  0  0  0  0  0
    6.7153    8.8097   -3.9250 H   0  0  0  0  0  0  0  0  0  0  0  0
    8.0052    7.8065   -6.0890 H   0  0  0  0  0  0  0  0  0  0  0  0
    6.9260    5.3274   -6.5246 H   0  0  0  0  0  0  0  0  0  0  0  0
    4.8034    9.7861   -3.6091 H   0  0  0  0  0  0  0  0  0  0  0  0
    3.5883   11.5325   -2.3253 H   0  0  0  0  0  0  0  0  0  0  0  0
    2.1772   10.9022   -0.3756 H   0  0  0  0  0  0  0  0  0  0  0  0
    1.9187    8.5639    0.3065 H   0  0  0  0  0  0  0  0  0  0  0  0
    0.9636    6.6027    0.3131 H   0  0  0  0  0  0  0  0  0  0  0  0
    2.3184    6.7118    1.4520 H   0  0  0  0  0  0  0  0  0  0  0  0
    1.3214    5.2518    1.3967 H   0  0  0  0  0  0  0  0  0  0  0  0
  1  2  1  0
  1 30  1  0
  1 31  1  0
  1 32  1  0
  2  3  1  0
  2 33  1  0
  2 34  1  0
  3  4  1  0
  3  8  2  0
  4  5  1  0
  4  6  2  0
  5 35  1  0
  5 36  1  0
  5 37  1  0
  6  7  1  0
  6 28  1  0
  7  8  1  0
  7 10  1  0
  8  9  1  0
  9 38  1  0
  9 39  1  0
  9 40  1  0
 10 11  1  6
 10 12  1  0
 10 13  1  0
 13 14  1  0
 13 27  1  0
 14 15  2  0
 14 21  1  0
 15 16  1  0
 15 19  1  0
 16 17  2  0
 16 41  1  0
 17 18  1  0
 17 42  1  0
 18 19  2  0
 18 43  1  0
 19 20  1  0
 21 22  2  0
 21 26  1  0
 22 23  1  0
 22 44  1  0
 23 24  2  0
 23 45  1  0
 24 25  1  0
 24 46  1  0
 25 26  2  0
 25 47  1  0
 26 27  1  0
 27 28  2  0
 28 29  1  0
 29 48  1  0
 29 49  1  0
 29 50  1  0
M  CHG  2  10  -1  19   1
M  END

