
     RDKit          3D

 38 39  0  0  0  0  0  0  0  0999 V2000
    2.9473    0.6957    2.4138 C   0  0  0  0  0  0  0  0  0  0  0  0
    2.6390    0.3581    0.9552 C   0  0  0  0  0  0  0  0  0  0  0  0
    3.0594   -1.0552    0.5347 C   0  0  0  0  0  0  0  0  0  0  0  0
    4.4966   -1.2624    0.6021 N   0  0  0  0  0  0  0  0  0  0  0  0
    5.1168   -2.3021    1.2287 C   0  0  0  0  0  0  0  0  0  0  0  0
    6.5334   -2.4513    1.1677 C   0  0  0  0  0  0  0  0  0  0  0  0
    7.1549   -3.4356    1.7846 N   0  0  0  0  0  0  0  0  0  0  0  0
    6.4204   -4.3242    2.4782 C   0  0  0  0  0  0  0  0  0  0  0  0
    7.0271   -5.5426    3.1253 C   0  0  0  0  0  0  0  0  0  0  0  0
    6.3116   -6.5297    3.2767 O   0  0  0  0  0  0  0  0  0  0  0  0
    8.3444   -5.5275    3.5201 N   0  0  0  0  0  0  0  0  0  0  0  0
    9.2108   -4.3569    3.5455 C   0  0  0  0  0  0  0  0  0  0  0  0
    8.9297   -6.7888    3.9727 C   0  0  0  0  0  0  0  0  0  0  0  0
    9.9307   -7.3823    2.9982 C   0  0  1  0  0  0  0  0  0  0  0  0
   11.3954   -7.0196    3.0444 C   0  0  0  0  0  0  0  0  0  0  0  0
   10.9412   -8.3880    3.4861 C   0  0  0  0  0  0  0  0  0  0  0  0
    5.0236   -4.1867    2.5170 C   0  0  0  0  0  0  0  0  0  0  0  0
    4.3815   -3.1897    1.9150 N   0  0  0  0  0  0  0  0  0  0  0  0
    2.6326    1.7217    2.6617 H   0  0  0  0  0  0  0  0  0  0  0  0
    4.0259    0.6160    2.6233 H   0  0  0  0  0  0  0  0  0  0  0  0
    2.4264    0.0083    3.1001 H   0  0  0  0  0  0  0  0  0  0  0  0
    3.1225    1.0960    0.2873 H   0  0  0  0  0  0  0  0  0  0  0  0
    1.5556    0.4537    0.7657 H   0  0  0  0  0  0  0  0  0  0  0  0
    2.6965   -1.2567   -0.4912 H   0  0  0  0  0  0  0  0  0  0  0  0
    2.6035   -1.8095    1.1907 H   0  0  0  0  0  0  0  0  0  0  0  0
    5.0847   -0.6474    0.0520 H   0  0  0  0  0  0  0  0  0  0  0  0
    7.1417   -1.7385    0.5953 H   0  0  0  0  0  0  0  0  0  0  0  0
    8.6350   -3.4407    3.7146 H   0  0  0  0  0  0  0  0  0  0  0  0
    9.7834   -4.2261    2.6134 H   0  0  0  0  0  0  0  0  0  0  0  0
    9.9236   -4.4729    4.3778 H   0  0  0  0  0  0  0  0  0  0  0  0
    8.0963   -7.4864    4.1237 H   0  0  0  0  0  0  0  0  0  0  0  0
    9.4188   -6.6261    4.9511 H   0  0  0  0  0  0  0  0  0  0  0  0
    9.5100   -7.5667    2.0031 H   0  0  0  0  0  0  0  0  0  0  0  0
   11.7299   -6.3213    3.8182 H   0  0  0  0  0  0  0  0  0  0  0  0
   11.9395   -6.9289    2.0999 H   0  0  0  0  0  0  0  0  0  0  0  0
   10.9616   -8.6120    4.5578 H   0  0  0  0  0  0  0  0  0  0  0  0
   11.1680   -9.2476    2.8495 H   0  0  0  0  0  0  0  0  0  0  0  0
    4.4259   -4.9259    3.0574 H   0  0  0  0  0  0  0  0  0  0  0  0
  1  2  1  0
  1 19  1  0
  1 20  1  0
  1 21  1  0
  2  3  1  0
  2 22  1  0
  2 23  1  0
  3  4  1  0
  3 24  1  0
  3 25  1  0
  4  5  1  0
  4 26  1  0
  5  6  2  0
  5 18  1  0
  6  7  1  0
  6 27  1  0
  7  8  2  0
  8  9  1  0
  8 17  1  0
  9 10  2  0
  9 11  1  0
 11 12  1  0
 11 13  1  0
 12 28  1  0
 12 29  1  0
 12 30  1  0
 13 14  1  0
 13 31  1  0
 13 32  1  0
 14 15  1  0
 14 16  1  0
 14 33  1  6
 15 16  1  0
 15 34  1  0
 15 35  1  0
 16 36  1  0
 16 37  1  0
 17 18  2  0
 17 38  1  0
M  END

