
     RDKit          3D

 30 29  0  0  0  0  0  0  0  0999 V2000
    2.7694   -0.9673    0.7321 C   0  0  0  0  0  0  0  0  0  0  0  0
    2.3406    0.0041   -0.0836 C   0  0  0  0  0  0  0  0  0  0  0  0
    3.0651    1.3271   -0.2350 C   0  0  0  0  0  0  0  0  0  0  0  0
    2.1652    2.4923   -0.1579 N   0  0  0  0  0  0  0  0  0  0  0  0
    1.6317    2.6717    1.1956 C   0  0  0  0  0  0  0  0  0  0  0  0
    2.7753    3.7016   -0.7155 C   0  0  0  0  0  0  0  0  0  0  0  0
    1.8139    4.8531   -1.1083 C   0  0  1  0  0  0  0  0  0  0  0  0
    2.6191    5.9055   -1.8867 C   0  0  0  0  0  0  0  0  0  0  0  0
    0.6318    4.3533   -1.9388 C   0  0  0  0  0  0  0  0  0  0  0  0
    1.2382    5.4696    0.0482 O   0  0  0  0  0  0  0  0  0  0  0  0
    1.1246   -0.2715   -0.9556 C   0  0  0  0  0  0  0  0  0  0  0  0
    0.6910   -1.3818   -1.1381 O   0  0  0  0  0  0  0  0  0  0  0  0
    0.5641    0.8129   -1.5012 O   0  0  0  0  0  0  0  0  0  0  0  0
    3.6374   -0.8288    1.3833 H   0  0  0  0  0  0  0  0  0  0  0  0
    2.2525   -1.9298    0.7482 H   0  0  0  0  0  0  0  0  0  0  0  0
    3.5407    1.3472   -1.2310 H   0  0  0  0  0  0  0  0  0  0  0  0
    3.8835    1.3929    0.5116 H   0  0  0  0  0  0  0  0  0  0  0  0
    1.1255    1.7519    1.5218 H   0  0  0  0  0  0  0  0  0  0  0  0
    0.9194    3.5038    1.2078 H   0  0  0  0  0  0  0  0  0  0  0  0
    2.4410    2.8935    1.9238 H   0  0  0  0  0  0  0  0  0  0  0  0
    3.3191    3.4024   -1.6251 H   0  0  0  0  0  0  0  0  0  0  0  0
    3.5399    4.1134   -0.0177 H   0  0  0  0  0  0  0  0  0  0  0  0
    2.9911    5.5125   -2.8457 H   0  0  0  0  0  0  0  0  0  0  0  0
    3.4916    6.2489   -1.3039 H   0  0  0  0  0  0  0  0  0  0  0  0
    1.9814    6.7781   -2.0917 H   0  0  0  0  0  0  0  0  0  0  0  0
    0.9734    3.8006   -2.8268 H   0  0  0  0  0  0  0  0  0  0  0  0
    0.0223    5.2077   -2.2686 H   0  0  0  0  0  0  0  0  0  0  0  0
   -0.0133    3.6896   -1.3469 H   0  0  0  0  0  0  0  0  0  0  0  0
    1.9467    5.8959    0.5501 H   0  0  0  0  0  0  0  0  0  0  0  0
    1.0092    1.6275   -1.1290 H   0  0  0  0  0  0  0  0  0  0  0  0
  1  2  2  0
  1 14  1  0
  1 15  1  0
  2  3  1  0
  2 11  1  0
  3  4  1  0
  3 16  1  0
  3 17  1  0
  4  5  1  0
  4  6  1  0
  5 18  1  0
  5 19  1  0
  5 20  1  0
  6  7  1  0
  6 21  1  0
  6 22  1  0
  7  8  1  0
  7  9  1  0
  7 10  1  1
  8 23  1  0
  8 24  1  0
  8 25  1  0
  9 26  1  0
  9 27  1  0
  9 28  1  0
 10 29  1  0
 11 12  2  0
 11 13  1  0
 13 30  1  0
M  END

