
     RDKit          3D

 57 60  0  0  0  0  0  0  0  0999 V2000
    1.5406   -0.9932   -1.3669 C   0  0  0  0  0  0  0  0  0  0  0  0
    2.3162   -0.5006   -0.1342 C   0  0  0  0  0  0  0  0  0  0  0  0
    2.6707    0.9752   -0.1830 C   0  0  0  0  0  0  0  0  0  0  0  0
    1.7888    1.8855    0.4112 C   0  0  0  0  0  0  0  0  0  0  0  0
    2.0020    3.2724    0.4011 C   0  0  0  0  0  0  0  0  0  0  0  0
    3.1114    3.8191   -0.2304 C   0  0  0  0  0  0  0  0  0  0  0  0
    4.0192    2.9571   -0.8658 C   0  0  0  0  0  0  0  0  0  0  0  0
    5.2953    3.1736   -1.5370 C   0  0  0  0  0  0  0  0  0  0  0  0
    6.1155    4.2865   -1.9063 C   0  0  0  0  0  0  0  0  0  0  0  0
    5.9424    5.6355   -2.1270 C   0  0  0  0  0  0  0  0  0  0  0  0
    4.6545    6.3169   -2.2803 C   0  0  0  0  0  0  0  0  0  0  0  0
    3.5520    5.7983   -2.2667 O   0  0  0  0  0  0  0  0  0  0  0  0
    4.7588    7.6912   -2.5090 N   0  0  0  0  0  0  0  0  0  0  0  0
    5.8840    8.4673   -2.6478 C   0  0  0  0  0  0  0  0  0  0  0  0
    5.7232   10.1036   -2.9152 S   0  0  0  0  0  0  0  0  0  0  0  0
    7.0868    7.7947   -2.5614 N   0  0  0  0  0  0  0  0  0  0  0  0
    8.3559    8.5330   -2.7227 C   0  0  0  0  0  0  0  0  0  0  0  0
    8.8244    8.6017   -4.1731 C   0  0  0  0  0  0  0  0  0  0  0  0
    7.1964    6.3974   -2.3686 C   0  0  0  0  0  0  0  0  0  0  0  0
    8.3000    5.8784   -2.3821 O   0  0  0  0  0  0  0  0  0  0  0  0
    5.7863    1.8927   -1.8042 C   0  0  0  0  0  0  0  0  0  0  0  0
    4.9123    0.9279   -1.4291 N   0  0  0  0  0  0  0  0  0  0  0  0
    5.1463   -0.5045   -1.5733 C   0  0  0  0  0  0  0  0  0  0  0  0
    6.2552   -0.8537   -2.5625 C   0  0  0  0  0  0  0  0  0  0  0  0
    6.2361   -2.2610   -2.6477 O   0  0  0  0  0  0  0  0  0  0  0  0
    7.1243   -2.9045   -3.4471 C   0  0  0  0  0  0  0  0  0  0  0  0
    8.0817   -2.2639   -4.2459 C   0  0  0  0  0  0  0  0  0  0  0  0
    8.9563   -3.0130   -5.0414 C   0  0  0  0  0  0  0  0  0  0  0  0
    8.8871   -4.4055   -5.0511 C   0  0  0  0  0  0  0  0  0  0  0  0
    7.9348   -5.0552   -4.2584 C   0  0  0  0  0  0  0  0  0  0  0  0
    7.0615   -4.3151   -3.4638 C   0  0  0  0  0  0  0  0  0  0  0  0
    5.8754   -5.1285   -2.4766 Cl  0  0  0  0  0  0  0  0  0  0  0  0
    3.8023    1.5457   -0.8134 C   0  0  0  0  0  0  0  0  0  0  0  0
    1.2874   -2.0615   -1.2727 H   0  0  0  0  0  0  0  0  0  0  0  0
    2.1164   -0.8642   -2.2979 H   0  0  0  0  0  0  0  0  0  0  0  0
    0.6031   -0.4288   -1.4894 H   0  0  0  0  0  0  0  0  0  0  0  0
    3.2064   -1.1261    0.0235 H   0  0  0  0  0  0  0  0  0  0  0  0
    1.6903   -0.6631    0.7576 H   0  0  0  0  0  0  0  0  0  0  0  0
    0.9032    1.4889    0.9160 H   0  0  0  0  0  0  0  0  0  0  0  0
    1.2835    3.9289    0.8978 H   0  0  0  0  0  0  0  0  0  0  0  0
    3.2672    4.8935   -0.2449 H   0  0  0  0  0  0  0  0  0  0  0  0
    7.1633    4.0012   -2.0612 H   0  0  0  0  0  0  0  0  0  0  0  0
    3.8774    8.1843   -2.6250 H   0  0  0  0  0  0  0  0  0  0  0  0
    9.0971    8.0101   -2.1065 H   0  0  0  0  0  0  0  0  0  0  0  0
    8.1885    9.5399   -2.3214 H   0  0  0  0  0  0  0  0  0  0  0  0
    8.9988    7.5938   -4.5789 H   0  0  0  0  0  0  0  0  0  0  0  0
    9.7730    9.1593   -4.2285 H   0  0  0  0  0  0  0  0  0  0  0  0
    8.0866    9.1242   -4.8003 H   0  0  0  0  0  0  0  0  0  0  0  0
    6.7341    1.6493   -2.2780 H   0  0  0  0  0  0  0  0  0  0  0  0
    4.2295   -0.9863   -1.9336 H   0  0  0  0  0  0  0  0  0  0  0  0
    5.3916   -0.9530   -0.5966 H   0  0  0  0  0  0  0  0  0  0  0  0
    7.2429   -0.5031   -2.2113 H   0  0  0  0  0  0  0  0  0  0  0  0
    6.0575   -0.3924   -3.5481 H   0  0  0  0  0  0  0  0  0  0  0  0
    8.1513   -1.1758   -4.2551 H   0  0  0  0  0  0  0  0  0  0  0  0
    9.6949   -2.4935   -5.6563 H   0  0  0  0  0  0  0  0  0  0  0  0
    9.5686   -4.9917   -5.6712 H   0  0  0  0  0  0  0  0  0  0  0  0
    7.8594   -6.1439   -4.2479 H   0  0  0  0  0  0  0  0  0  0  0  0
  1  2  1  0
  1 34  1  0
  1 35  1  0
  1 36  1  0
  2  3  1  0
  2 37  1  0
  2 38  1  0
  3  4  2  0
  3 33  1  0
  4  5  1  0
  4 39  1  0
  5  6  2  0
  5 40  1  0
  6  7  1  0
  6 41  1  0
  7  8  1  0
  7 33  2  0
  8  9  1  0
  8 21  2  0
  9 10  2  0
  9 42  1  0
 10 11  1  0
 10 19  1  0
 11 12  2  0
 11 13  1  0
 13 14  1  0
 13 43  1  0
 14 15  2  0
 14 16  1  0
 16 17  1  0
 16 19  1  0
 17 18  1  0
 17 44  1  0
 17 45  1  0
 18 46  1  0
 18 47  1  0
 18 48  1  0
 19 20  2  0
 21 22  1  0
 21 49  1  0
 22 23  1  0
 22 33  1  0
 23 24  1  0
 23 50  1  0
 23 51  1  0
 24 25  1  0
 24 52  1  0
 24 53  1  0
 25 26  1  0
 26 27  2  0
 26 31  1  0
 27 28  1  0
 27 54  1  0
 28 29  2  0
 28 55  1  0
 29 30  1  0
 29 56  1  0
 30 31  2  0
 30 57  1  0
 31 32  1  0
M  END

