
     RDKit          3D

 59 60  0  0  0  0  0  0  0  0999 V2000
    1.8905    0.6168    0.3547 C   0  0  0  0  0  0  0  0  0  0  0  0
    3.3927    0.8138    0.6132 C   0  0  1  0  0  0  0  0  0  0  0  0
    3.8658   -0.1213    1.7482 C   0  0  0  0  0  0  0  0  0  0  0  0
    3.0865    0.0634    2.9678 N   0  0  0  0  0  0  0  0  0  0  0  0
    3.6678   -0.3569    4.2415 C   0  0  1  0  0  0  0  0  0  0  0  0
    4.1676   -1.8241    4.3039 C   0  0  0  0  0  0  0  0  0  0  0  0
    4.9228   -2.1228    5.6365 C   0  0  1  0  0  0  0  0  0  0  0  0
    6.4591   -2.0994    5.4635 C   0  0  0  0  0  0  0  0  0  0  0  0
    6.8332   -0.5975    5.6193 C   0  0  0  0  0  0  0  0  0  0  0  0
    5.4960    0.1075    5.9803 C   0  0  1  0  0  0  0  0  0  0  0  0
    4.7339    0.6467    4.7346 C   0  0  0  0  0  0  0  0  0  0  0  0
    4.7333   -1.0022    6.5583 N   0  0  0  0  0  0  0  0  0  0  0  0
    3.8614   -1.0078    7.6041 C   0  0  0  0  0  0  0  0  0  0  0  0
    3.2101   -1.9803    7.9415 O   0  0  0  0  0  0  0  0  0  0  0  0
    3.8350    0.2037    8.2108 O   0  0  0  0  0  0  0  0  0  0  0  0
    3.0197    0.4504    9.4000 C   0  0  1  0  0  0  0  0  0  0  0  0
    3.4674   -0.4626   10.5468 C   0  0  0  0  0  0  0  0  0  0  0  0
    3.3242    1.9145    9.7257 C   0  0  0  0  0  0  0  0  0  0  0  0
    1.5341    0.2694    9.0678 C   0  0  0  0  0  0  0  0  0  0  0  0
    4.2743    0.7285   -0.6852 C   0  0  1  0  0  0  0  0  0  0  0  0
    3.9100    1.8963   -1.6265 C   0  0  0  0  0  0  0  0  0  0  0  0
    5.7695    0.8739   -0.3304 C   0  0  0  0  0  0  0  0  0  0  0  0
    4.0723   -0.5991   -1.4439 C   0  0  0  0  0  0  0  0  0  0  0  0
    1.3148    0.8785    1.2552 H   0  0  0  0  0  0  0  0  0  0  0  0
    1.6509   -0.4276    0.0920 H   0  0  0  0  0  0  0  0  0  0  0  0
    1.5176    1.2577   -0.4573 H   0  0  0  0  0  0  0  0  0  0  0  0
    3.5208    1.8402    1.0035 H   0  0  0  0  0  0  0  0  0  0  0  0
    4.9137    0.1085    1.9857 H   0  0  0  0  0  0  0  0  0  0  0  0
    3.8575   -1.1723    1.3861 H   0  0  0  0  0  0  0  0  0  0  0  0
    2.1642   -0.3518    2.8647 H   0  0  0  0  0  0  0  0  0  0  0  0
    2.8403   -0.2901    4.9664 H   0  0  0  0  0  0  0  0  0  0  0  0
    4.8294   -2.0391    3.4495 H   0  0  0  0  0  0  0  0  0  0  0  0
    3.2969   -2.4919    4.1998 H   0  0  0  0  0  0  0  0  0  0  0  0
    4.5546   -3.0431    6.1051 H   0  0  0  0  0  0  0  0  0  0  0  0
    6.7752   -2.5287    4.5012 H   0  0  0  0  0  0  0  0  0  0  0  0
    6.9285   -2.6961    6.2599 H   0  0  0  0  0  0  0  0  0  0  0  0
    7.2818   -0.1698    4.7104 H   0  0  0  0  0  0  0  0  0  0  0  0
    7.5611   -0.4633    6.4333 H   0  0  0  0  0  0  0  0  0  0  0  0
    5.6317    0.8986    6.7260 H   0  0  0  0  0  0  0  0  0  0  0  0
    5.4529    0.8758    3.9316 H   0  0  0  0  0  0  0  0  0  0  0  0
    4.2211    1.5918    4.9690 H   0  0  0  0  0  0  0  0  0  0  0  0
    4.5454   -0.3380   10.7358 H   0  0  0  0  0  0  0  0  0  0  0  0
    3.2687   -1.5155   10.3109 H   0  0  0  0  0  0  0  0  0  0  0  0
    2.9268   -0.1958   11.4686 H   0  0  0  0  0  0  0  0  0  0  0  0
    4.3974    2.0519    9.9277 H   0  0  0  0  0  0  0  0  0  0  0  0
    2.7585    2.2342   10.6141 H   0  0  0  0  0  0  0  0  0  0  0  0
    3.0459    2.5648    8.8824 H   0  0  0  0  0  0  0  0  0  0  0  0
    1.3139   -0.7746    8.8124 H   0  0  0  0  0  0  0  0  0  0  0  0
    1.2519    0.9109    8.2179 H   0  0  0  0  0  0  0  0  0  0  0  0
    0.9198    0.5618    9.9339 H   0  0  0  0  0  0  0  0  0  0  0  0
    4.0493    2.8692   -1.1267 H   0  0  0  0  0  0  0  0  0  0  0  0
    2.8677    1.8439   -1.9753 H   0  0  0  0  0  0  0  0  0  0  0  0
    4.5532    1.8856   -2.5216 H   0  0  0  0  0  0  0  0  0  0  0  0
    5.9509    1.7707    0.2855 H   0  0  0  0  0  0  0  0  0  0  0  0
    6.3727    0.9740   -1.2474 H   0  0  0  0  0  0  0  0  0  0  0  0
    6.1589    0.0020    0.2171 H   0  0  0  0  0  0  0  0  0  0  0  0
    3.0367   -0.7166   -1.7990 H   0  0  0  0  0  0  0  0  0  0  0  0
    4.3153   -1.4734   -0.8194 H   0  0  0  0  0  0  0  0  0  0  0  0
    4.7275   -0.6370   -2.3298 H   0  0  0  0  0  0  0  0  0  0  0  0
  1  2  1  0
  1 24  1  0
  1 25  1  0
  1 26  1  0
  2  3  1  0
  2 20  1  0
  2 27  1  1
  3  4  1  0
  3 28  1  0
  3 29  1  0
  4  5  1  0
  4 30  1  0
  5  6  1  0
  5 11  1  0
  5 31  1  1
  6  7  1  0
  6 32  1  0
  6 33  1  0
  7  8  1  0
  7 12  1  0
  7 34  1  1
  8  9  1  0
  8 35  1  0
  8 36  1  0
  9 10  1  0
  9 37  1  0
  9 38  1  0
 10 11  1  0
 10 12  1  0
 10 39  1  1
 11 40  1  0
 11 41  1  0
 12 13  1  0
 13 14  2  0
 13 15  1  0
 16 15  1  6
 16 17  1  0
 16 18  1  0
 16 19  1  0
 17 42  1  0
 17 43  1  0
 17 44  1  0
 18 45  1  0
 18 46  1  0
 18 47  1  0
 19 48  1  0
 19 49  1  0
 19 50  1  0
 20 21  1  6
 20 22  1  0
 20 23  1  0
 21 51  1  0
 21 52  1  0
 21 53  1  0
 22 54  1  0
 22 55  1  0
 22 56  1  0
 23 57  1  0
 23 58  1  0
 23 59  1  0
M  END

