
     RDKit          3D

 42 44  0  0  0  0  0  0  0  0999 V2000
    0.8764    0.7527    0.9009 C   0  0  0  0  0  0  0  0  0  0  0  0
    2.3858    0.6346    1.1132 C   0  0  0  0  0  0  0  0  0  0  0  0
    2.9695   -0.6931    0.5948 C   0  0  0  0  0  0  0  0  0  0  0  0
    4.4629   -0.8166    0.7988 C   0  0  0  0  0  0  0  0  0  0  0  0
    4.9932   -1.3793    1.9685 C   0  0  0  0  0  0  0  0  0  0  0  0
    6.3745   -1.4566    2.1694 C   0  0  0  0  0  0  0  0  0  0  0  0
    7.2778   -0.9736    1.2114 C   0  0  0  0  0  0  0  0  0  0  0  0
    8.7846   -1.0914    1.4439 C   0  0  1  0  0  0  0  0  0  0  0  0
    9.5312   -1.7928    0.4023 N   0  0  0  0  0  0  0  0  0  0  0  0
    9.4888    0.2524    1.6902 C   0  0  2  0  0  0  0  0  0  0  0  0
    8.8788    1.1060    2.7947 C   0  0  0  0  0  0  0  0  0  0  0  0
    9.6386    2.2921    2.9788 O   0  0  0  0  0  0  0  0  0  0  0  0
    9.9804    2.9377    1.8256 C   0  0  0  0  0  0  0  0  0  0  0  0
   10.4299    4.2604    1.8968 C   0  0  0  0  0  0  0  0  0  0  0  0
   10.7811    4.9487    0.7342 C   0  0  0  0  0  0  0  0  0  0  0  0
   10.6789    4.3179   -0.5113 C   0  0  0  0  0  0  0  0  0  0  0  0
   10.2417    2.9941   -0.5887 C   0  0  0  0  0  0  0  0  0  0  0  0
    9.8970    2.2969    0.5731 C   0  0  0  0  0  0  0  0  0  0  0  0
    9.4832    0.9963    0.4692 O   0  0  0  0  0  0  0  0  0  0  0  0
    6.7484   -0.4156    0.0349 C   0  0  0  0  0  0  0  0  0  0  0  0
    5.3694   -0.3379   -0.1625 C   0  0  0  0  0  0  0  0  0  0  0  0
    0.4902    1.7115    1.2820 H   0  0  0  0  0  0  0  0  0  0  0  0
    0.3330   -0.0549    1.4197 H   0  0  0  0  0  0  0  0  0  0  0  0
    0.6149    0.6903   -0.1688 H   0  0  0  0  0  0  0  0  0  0  0  0
    2.6231    0.7350    2.1869 H   0  0  0  0  0  0  0  0  0  0  0  0
    2.9021    1.4727    0.6129 H   0  0  0  0  0  0  0  0  0  0  0  0
    2.7351   -0.7910   -0.4796 H   0  0  0  0  0  0  0  0  0  0  0  0
    2.4579   -1.5304    1.1006 H   0  0  0  0  0  0  0  0  0  0  0  0
    4.3158   -1.7733    2.7322 H   0  0  0  0  0  0  0  0  0  0  0  0
    6.7574   -1.9114    3.0886 H   0  0  0  0  0  0  0  0  0  0  0  0
    8.9176   -1.6579    2.3833 H   0  0  0  0  0  0  0  0  0  0  0  0
    9.5858   -1.2104   -0.4334 H   0  0  0  0  0  0  0  0  0  0  0  0
    9.0448   -2.6484    0.1367 H   0  0  0  0  0  0  0  0  0  0  0  0
   10.5397    0.0285    1.9519 H   0  0  0  0  0  0  0  0  0  0  0  0
    8.8902    0.5717    3.7556 H   0  0  0  0  0  0  0  0  0  0  0  0
    7.8337    1.3600    2.5432 H   0  0  0  0  0  0  0  0  0  0  0  0
   10.4886    4.7293    2.8814 H   0  0  0  0  0  0  0  0  0  0  0  0
   11.1296    5.9819    0.8017 H   0  0  0  0  0  0  0  0  0  0  0  0
   10.9471    4.8536   -1.4248 H   0  0  0  0  0  0  0  0  0  0  0  0
   10.1667    2.4721   -1.5453 H   0  0  0  0  0  0  0  0  0  0  0  0
    7.4239   -0.0344   -0.7332 H   0  0  0  0  0  0  0  0  0  0  0  0
    4.9856    0.1010   -1.0886 H   0  0  0  0  0  0  0  0  0  0  0  0
  1  2  1  0
  1 22  1  0
  1 23  1  0
  1 24  1  0
  2  3  1  0
  2 25  1  0
  2 26  1  0
  3  4  1  0
  3 27  1  0
  3 28  1  0
  4  5  2  0
  4 21  1  0
  5  6  1  0
  5 29  1  0
  6  7  2  0
  6 30  1  0
  7  8  1  0
  7 20  1  0
  8  9  1  0
  8 10  1  0
  8 31  1  1
  9 32  1  0
  9 33  1  0
 10 11  1  0
 10 19  1  0
 10 34  1  1
 11 12  1  0
 11 35  1  0
 11 36  1  0
 12 13  1  0
 13 14  2  0
 13 18  1  0
 14 15  1  0
 14 37  1  0
 15 16  2  0
 15 38  1  0
 16 17  1  0
 16 39  1  0
 17 18  2  0
 17 40  1  0
 18 19  1  0
 20 21  2  0
 20 41  1  0
 21 42  1  0
M  END

