
     RDKit          3D

 49 50  0  0  0  0  0  0  0  0999 V2000
    1.1975    0.5814    2.4123 C   0  0  0  0  0  0  0  0  0  0  0  0
    2.6726    0.3960    2.0546 C   0  0  0  0  0  0  0  0  0  0  0  0
    3.0457   -1.0169    1.5750 C   0  0  1  0  0  0  0  0  0  0  0  0
    2.2722   -1.5123    0.3331 C   0  0  0  0  0  0  0  0  0  0  0  0
    2.4538   -0.6791   -0.9369 C   0  0  0  0  0  0  0  0  0  0  0  0
    4.4958   -1.0752    1.3902 N   0  0  0  0  0  0  0  0  0  0  0  0
    5.1730   -2.2718    1.4789 C   0  0  0  0  0  0  0  0  0  0  0  0
    4.5997   -3.3197    1.7478 O   0  0  0  0  0  0  0  0  0  0  0  0
    6.5461   -2.2257    1.2471 N   0  0  0  0  0  0  0  0  0  0  0  0
    7.2989   -3.4754    1.2902 C   0  0  0  0  0  0  0  0  0  0  0  0
    8.2896   -3.5380    0.1242 C   0  0  0  0  0  0  0  0  0  0  0  0
    9.1921   -2.2981    0.0915 C   0  0  0  0  0  0  0  0  0  0  0  0
    8.3584   -1.0203    0.1163 C   0  0  2  0  0  0  0  0  0  0  0  0
    9.2676    0.0812    0.2510 O   0  0  0  0  0  0  0  0  0  0  0  0
    8.9425    1.2996   -0.2113 C   0  0  0  0  0  0  0  0  0  0  0  0
    9.9012    2.3239   -0.0844 C   0  0  0  0  0  0  0  0  0  0  0  0
    9.6421    3.5491   -0.5320 N   0  0  0  0  0  0  0  0  0  0  0  0
    8.4658    3.7828   -1.1042 C   0  0  0  0  0  0  0  0  0  0  0  0
    7.5164    2.7486   -1.2265 C   0  0  0  0  0  0  0  0  0  0  0  0
    6.3479    3.0359   -1.8180 O   0  0  0  0  0  0  0  0  0  0  0  0
    5.3872    2.0028   -1.9712 C   0  0  0  0  0  0  0  0  0  0  0  0
    7.7550    1.5202   -0.7732 N   0  0  0  0  0  0  0  0  0  0  0  0
    7.3733   -1.0324    1.2953 C   0  0  0  0  0  0  0  0  0  0  0  0
    1.0201    1.5822    2.8365 H   0  0  0  0  0  0  0  0  0  0  0  0
    0.8728   -0.1593    3.1619 H   0  0  0  0  0  0  0  0  0  0  0  0
    0.5394    0.4759    1.5355 H   0  0  0  0  0  0  0  0  0  0  0  0
    3.2971    0.6203    2.9357 H   0  0  0  0  0  0  0  0  0  0  0  0
    2.9590    1.1382    1.2856 H   0  0  0  0  0  0  0  0  0  0  0  0
    2.8218   -1.7284    2.3853 H   0  0  0  0  0  0  0  0  0  0  0  0
    1.2002   -1.5714    0.5874 H   0  0  0  0  0  0  0  0  0  0  0  0
    2.5962   -2.5491    0.1516 H   0  0  0  0  0  0  0  0  0  0  0  0
    2.0663    0.3474   -0.8258 H   0  0  0  0  0  0  0  0  0  0  0  0
    1.9214   -1.1369   -1.7855 H   0  0  0  0  0  0  0  0  0  0  0  0
    3.5164   -0.6082   -1.2242 H   0  0  0  0  0  0  0  0  0  0  0  0
    4.9301   -0.2963    0.9129 H   0  0  0  0  0  0  0  0  0  0  0  0
    6.5774   -4.3001    1.2627 H   0  0  0  0  0  0  0  0  0  0  0  0
    7.8486   -3.5496    2.2512 H   0  0  0  0  0  0  0  0  0  0  0  0
    7.7240   -3.6151   -0.8206 H   0  0  0  0  0  0  0  0  0  0  0  0
    8.9035   -4.4497    0.2062 H   0  0  0  0  0  0  0  0  0  0  0  0
    9.8443   -2.2982   -0.7964 H   0  0  0  0  0  0  0  0  0  0  0  0
    9.8544   -2.2894    0.9753 H   0  0  0  0  0  0  0  0  0  0  0  0
    7.7878   -0.9090   -0.8189 H   0  0  0  0  0  0  0  0  0  0  0  0
   10.8683    2.1170    0.3825 H   0  0  0  0  0  0  0  0  0  0  0  0
    8.2403    4.7850   -1.4796 H   0  0  0  0  0  0  0  0  0  0  0  0
    4.5422    2.4511   -2.5092 H   0  0  0  0  0  0  0  0  0  0  0  0
    5.0436    1.6267   -0.9940 H   0  0  0  0  0  0  0  0  0  0  0  0
    5.7929    1.1559   -2.5467 H   0  0  0  0  0  0  0  0  0  0  0  0
    6.7665   -0.1206    1.2786 H   0  0  0  0  0  0  0  0  0  0  0  0
    7.9623   -1.0062    2.2352 H   0  0  0  0  0  0  0  0  0  0  0  0
  1  2  1  0
  1 24  1  0
  1 25  1  0
  1 26  1  0
  2  3  1  0
  2 27  1  0
  2 28  1  0
  3  4  1  0
  3  6  1  0
  3 29  1  1
  4  5  1  0
  4 30  1  0
  4 31  1  0
  5 32  1  0
  5 33  1  0
  5 34  1  0
  6  7  1  0
  6 35  1  0
  7  8  2  0
  7  9  1  0
  9 10  1  0
  9 23  1  0
 10 11  1  0
 10 36  1  0
 10 37  1  0
 11 12  1  0
 11 38  1  0
 11 39  1  0
 12 13  1  0
 12 40  1  0
 12 41  1  0
 13 14  1  0
 13 23  1  0
 13 42  1  6
 14 15  1  0
 15 16  2  0
 15 22  1  0
 16 17  1  0
 16 43  1  0
 17 18  2  0
 18 19  1  0
 18 44  1  0
 19 20  1  0
 19 22  2  0
 20 21  1  0
 21 45  1  0
 21 46  1  0
 21 47  1  0
 23 48  1  0
 23 49  1  0
M  END

