
     RDKit          3D

 43 45  0  0  0  0  0  0  0  0999 V2000
    2.2589    0.0949   -3.3461 C   0  0  0  0  0  0  0  0  0  0  0  0
    2.1581   -0.1750   -1.8506 C   0  0  0  0  0  0  0  0  0  0  0  0
    3.0093   -1.2312   -1.4186 O   0  0  0  0  0  0  0  0  0  0  0  0
    4.3232   -1.0112   -1.1763 C   0  0  0  0  0  0  0  0  0  0  0  0
    4.9757    0.2115   -1.2649 C   0  0  0  0  0  0  0  0  0  0  0  0
    6.3620    0.3579   -0.9703 C   0  0  0  0  0  0  0  0  0  0  0  0
    6.8890    1.7062   -1.1116 C   0  0  0  0  0  0  0  0  0  0  0  0
    8.1009    2.3362   -0.9549 C   0  0  0  0  0  0  0  0  0  0  0  0
    8.0860    3.7517   -1.2343 C   0  0  0  0  0  0  0  0  0  0  0  0
    8.0080    4.8855   -1.4735 N   0  0  0  0  0  0  0  0  0  0  0  0
    9.4192    1.8346   -0.5537 C   0  0  0  0  0  0  0  0  0  0  0  0
   10.4964    2.6785   -0.4758 N   0  0  0  0  0  0  0  0  0  0  0  0
   11.5113    1.9675   -0.1016 N   0  0  0  0  0  0  0  0  0  0  0  0
   11.0557    0.7337    0.0403 N   0  0  0  0  0  0  0  0  0  0  0  0
   11.6507   -0.0375    0.3305 H   0  0  0  0  0  0  0  0  0  0  0  0
    9.7697    0.5902   -0.2254 N   0  0  0  0  0  0  0  0  0  0  0  0
    7.0740   -0.7908   -0.5816 C   0  0  0  0  0  0  0  0  0  0  0  0
    6.4311   -2.0274   -0.4910 C   0  0  0  0  0  0  0  0  0  0  0  0
    5.0696   -2.1601   -0.7810 C   0  0  0  0  0  0  0  0  0  0  0  0
    4.3723   -3.3103   -0.7173 O   0  0  0  0  0  0  0  0  0  0  0  0
    5.0124   -4.5101   -0.3374 C   0  0  0  0  0  0  0  0  0  0  0  0
    4.0022   -5.6310   -0.3561 C   0  0  0  0  0  0  0  0  0  0  0  0
    2.6595   -5.4458   -0.7071 C   0  0  0  0  0  0  0  0  0  0  0  0
    1.7685   -6.5244   -0.7062 C   0  0  0  0  0  0  0  0  0  0  0  0
    2.2097   -7.8028   -0.3540 C   0  0  0  0  0  0  0  0  0  0  0  0
    3.5470   -8.0088   -0.0002 C   0  0  0  0  0  0  0  0  0  0  0  0
    4.4130   -6.9218   -0.0086 C   0  0  0  0  0  0  0  0  0  0  0  0
    5.7060   -7.1041    0.3302 F   0  0  0  0  0  0  0  0  0  0  0  0
    1.5263    0.8639   -3.6391 H   0  0  0  0  0  0  0  0  0  0  0  0
    2.0436   -0.8219   -3.9160 H   0  0  0  0  0  0  0  0  0  0  0  0
    3.2589    0.4503   -3.6373 H   0  0  0  0  0  0  0  0  0  0  0  0
    1.1435   -0.5163   -1.5957 H   0  0  0  0  0  0  0  0  0  0  0  0
    2.3488    0.7384   -1.2593 H   0  0  0  0  0  0  0  0  0  0  0  0
    4.4177    1.0963   -1.5712 H   0  0  0  0  0  0  0  0  0  0  0  0
    6.1121    2.4091   -1.4273 H   0  0  0  0  0  0  0  0  0  0  0  0
    8.1331   -0.7230   -0.3496 H   0  0  0  0  0  0  0  0  0  0  0  0
    7.0096   -2.8996   -0.1866 H   0  0  0  0  0  0  0  0  0  0  0  0
    5.4527   -4.4115    0.6733 H   0  0  0  0  0  0  0  0  0  0  0  0
    5.8475   -4.7390   -1.0269 H   0  0  0  0  0  0  0  0  0  0  0  0
    2.3288   -4.4427   -0.9795 H   0  0  0  0  0  0  0  0  0  0  0  0
    0.7239   -6.3631   -0.9824 H   0  0  0  0  0  0  0  0  0  0  0  0
    1.5149   -8.6460   -0.3529 H   0  0  0  0  0  0  0  0  0  0  0  0
    3.9286   -8.9923    0.2808 H   0  0  0  0  0  0  0  0  0  0  0  0
  1  2  1  0
  1 29  1  0
  1 30  1  0
  1 31  1  0
  2  3  1  0
  2 32  1  0
  2 33  1  0
  3  4  1  0
  4  5  2  0
  4 19  1  0
  5  6  1  0
  5 34  1  0
  6  7  1  0
  6 17  2  0
  7  8  2  0
  7 35  1  0
  8  9  1  0
  8 11  1  0
  9 10  3  0
 11 12  1  0
 11 16  2  0
 12 13  2  0
 13 14  1  0
 14 15  1  0
 14 16  1  0
 17 18  1  0
 17 36  1  0
 18 19  2  0
 18 37  1  0
 19 20  1  0
 20 21  1  0
 21 22  1  0
 21 38  1  0
 21 39  1  0
 22 23  2  0
 22 27  1  0
 23 24  1  0
 23 40  1  0
 24 25  2  0
 24 41  1  0
 25 26  1  0
 25 42  1  0
 26 27  2  0
 26 43  1  0
 27 28  1  0
M  END

