
     RDKit          3D

 49 51  0  0  0  0  0  0  0  0999 V2000
    0.8548    1.3998    0.3418 N   0  0  0  0  0  0  0  0  0  0  0  0
    2.0961    0.9704    0.9938 C   0  0  1  0  0  0  0  0  0  0  0  0
    1.8803    0.0175    2.1950 C   0  0  0  0  0  0  0  0  0  0  0  0
    1.3765   -1.3673    1.7642 C   0  0  0  0  0  0  0  0  0  0  0  0
    2.3043   -2.0012    0.7185 C   0  0  0  0  0  0  0  0  0  0  0  0
    2.5265   -1.0602   -0.4759 C   0  0  0  0  0  0  0  0  0  0  0  0
    3.0388    0.3371   -0.0633 C   0  0  2  0  0  0  0  0  0  0  0  0
    4.5074    0.2825    0.3925 C   0  0  0  0  0  0  0  0  0  0  0  0
    5.1928    1.6517    0.4329 C   0  0  0  0  0  0  0  0  0  0  0  0
    4.6131    2.6698    0.0854 O   0  0  0  0  0  0  0  0  0  0  0  0
    6.5001    1.6877    0.8711 N   0  0  0  0  0  0  0  0  0  0  0  0
    7.3051    0.5598    1.3146 C   0  0  0  0  0  0  0  0  0  0  0  0
    8.6431    0.5254    0.5737 C   0  0  0  0  0  0  0  0  0  0  0  0
    9.3389    1.8071    0.6967 N   0  0  0  0  0  0  0  0  0  0  0  0
   10.7231    1.8328    0.4549 C   0  0  0  0  0  0  0  0  0  0  0  0
   11.3297    2.6926   -0.4824 C   0  0  0  0  0  0  0  0  0  0  0  0
   12.7168    2.7237   -0.6591 C   0  0  0  0  0  0  0  0  0  0  0  0
   13.5456    1.8824    0.0835 C   0  0  0  0  0  0  0  0  0  0  0  0
   12.9726    1.0146    1.0197 C   0  0  0  0  0  0  0  0  0  0  0  0
   11.5971    1.0093    1.2001 C   0  0  0  0  0  0  0  0  0  0  0  0
   11.0790    0.1887    2.1384 F   0  0  0  0  0  0  0  0  0  0  0  0
    8.5301    2.9230    0.2227 C   0  0  0  0  0  0  0  0  0  0  0  0
    7.1936    2.9658    0.9643 C   0  0  0  0  0  0  0  0  0  0  0  0
    0.2920    1.9513    0.9896 H   0  0  0  0  0  0  0  0  0  0  0  0
    0.2781    0.6010    0.0778 H   0  0  0  0  0  0  0  0  0  0  0  0
    2.5815    1.8908    1.3517 H   0  0  0  0  0  0  0  0  0  0  0  0
    1.1713    0.4833    2.9017 H   0  0  0  0  0  0  0  0  0  0  0  0
    2.8270   -0.0999    2.7537 H   0  0  0  0  0  0  0  0  0  0  0  0
    0.3613   -1.2715    1.3359 H   0  0  0  0  0  0  0  0  0  0  0  0
    1.2711   -2.0278    2.6412 H   0  0  0  0  0  0  0  0  0  0  0  0
    1.8895   -2.9624    0.3703 H   0  0  0  0  0  0  0  0  0  0  0  0
    3.2736   -2.2437    1.1915 H   0  0  0  0  0  0  0  0  0  0  0  0
    1.5722   -0.9402   -1.0190 H   0  0  0  0  0  0  0  0  0  0  0  0
    3.2230   -1.5174   -1.2002 H   0  0  0  0  0  0  0  0  0  0  0  0
    2.9964    1.0031   -0.9373 H   0  0  0  0  0  0  0  0  0  0  0  0
    5.0744   -0.3609   -0.3039 H   0  0  0  0  0  0  0  0  0  0  0  0
    4.6057   -0.1969    1.3803 H   0  0  0  0  0  0  0  0  0  0  0  0
    6.7760   -0.3847    1.1466 H   0  0  0  0  0  0  0  0  0  0  0  0
    7.5050    0.6480    2.3999 H   0  0  0  0  0  0  0  0  0  0  0  0
    8.4560    0.2878   -0.4965 H   0  0  0  0  0  0  0  0  0  0  0  0
    9.2636   -0.2747    0.9930 H   0  0  0  0  0  0  0  0  0  0  0  0
   10.7039    3.3446   -1.0923 H   0  0  0  0  0  0  0  0  0  0  0  0
   13.1462    3.4072   -1.3955 H   0  0  0  0  0  0  0  0  0  0  0  0
   14.6286    1.8987   -0.0557 H   0  0  0  0  0  0  0  0  0  0  0  0
   13.5789    0.3483    1.6371 H   0  0  0  0  0  0  0  0  0  0  0  0
    8.3367    2.8584   -0.8704 H   0  0  0  0  0  0  0  0  0  0  0  0
    9.0697    3.8629    0.4109 H   0  0  0  0  0  0  0  0  0  0  0  0
    6.5363    3.7355    0.5421 H   0  0  0  0  0  0  0  0  0  0  0  0
    7.3813    3.2051    2.0281 H   0  0  0  0  0  0  0  0  0  0  0  0
  1  2  1  0
  1 24  1  0
  1 25  1  0
  2  3  1  0
  2  7  1  0
  2 26  1  1
  3  4  1  0
  3 27  1  0
  3 28  1  0
  4  5  1  0
  4 29  1  0
  4 30  1  0
  5  6  1  0
  5 31  1  0
  5 32  1  0
  6  7  1  0
  6 33  1  0
  6 34  1  0
  7  8  1  0
  7 35  1  6
  8  9  1  0
  8 36  1  0
  8 37  1  0
  9 10  2  0
  9 11  1  0
 11 12  1  0
 11 23  1  0
 12 13  1  0
 12 38  1  0
 12 39  1  0
 13 14  1  0
 13 40  1  0
 13 41  1  0
 14 15  1  0
 14 22  1  0
 15 16  2  0
 15 20  1  0
 16 17  1  0
 16 42  1  0
 17 18  2  0
 17 43  1  0
 18 19  1  0
 18 44  1  0
 19 20  2  0
 19 45  1  0
 20 21  1  0
 22 23  1  0
 22 46  1  0
 22 47  1  0
 23 48  1  0
 23 49  1  0
M  END

