
     RDKit          3D

 49 49  0  0  0  0  0  0  0  0999 V2000
    2.2760   -4.8498   -1.9853 C   0  0  0  0  0  0  0  0  0  0  0  0
    1.9351   -3.7066   -2.9463 C   0  0  0  0  0  0  0  0  0  0  0  0
    2.5148   -2.4053   -2.6019 N   0  0  0  0  0  0  0  0  0  0  0  0
    1.7940   -1.3534   -2.0921 C   0  0  0  0  0  0  0  0  0  0  0  0
    2.3399   -0.2906   -1.7975 O   0  0  0  0  0  0  0  0  0  0  0  0
    0.2743   -1.5024   -1.9262 C   0  0  1  0  0  0  0  0  0  0  0  0
   -0.2254   -2.4129   -0.7841 C   0  0  0  0  0  0  0  0  0  0  0  0
   -1.7083   -2.0343   -0.7282 C   0  0  2  0  0  0  0  0  0  0  0  0
   -2.4471   -2.7174   -1.9117 C   0  0  0  0  0  0  0  0  0  0  0  0
   -2.1322   -3.8274   -2.2798 O   0  0  0  0  0  0  0  0  0  0  0  0
   -3.4337   -2.0362   -2.4694 O   0  0  0  0  0  0  0  0  0  0  0  0
   -1.6560   -0.4810   -0.7497 C   0  0  2  0  0  0  0  0  0  0  0  0
   -2.9274    0.1342   -1.1592 N   0  0  0  0  0  0  0  0  0  0  0  0
   -0.4049   -0.1395   -1.6434 C   0  0  2  0  0  0  0  0  0  0  0  0
   -0.6241    0.6916   -2.9294 C   0  0  0  0  0  0  0  0  0  0  0  0
   -0.2777    2.0996   -2.7980 N   0  0  0  0  0  0  0  0  0  0  0  0
   -1.1467    3.0538   -2.3794 C   0  0  0  0  0  0  0  0  0  0  0  0
   -0.5947    4.4630   -2.2729 C   0  0  0  0  0  0  0  0  0  0  0  0
   -2.3225    2.8117   -2.1140 O   0  0  0  0  0  0  0  0  0  0  0  0
    3.9715   -2.1694   -2.7727 C   0  0  1  0  0  0  0  0  0  0  0  0
    4.7534   -2.4201   -1.4753 C   0  0  0  0  0  0  0  0  0  0  0  0
    4.5613   -2.9232   -3.9661 C   0  0  0  0  0  0  0  0  0  0  0  0
    1.7189   -5.7545   -2.2763 H   0  0  0  0  0  0  0  0  0  0  0  0
    1.9985   -4.5984   -0.9502 H   0  0  0  0  0  0  0  0  0  0  0  0
    3.3475   -5.0991   -1.9972 H   0  0  0  0  0  0  0  0  0  0  0  0
    0.8456   -3.6050   -3.0034 H   0  0  0  0  0  0  0  0  0  0  0  0
    2.2564   -3.9794   -3.9639 H   0  0  0  0  0  0  0  0  0  0  0  0
   -0.1335   -1.9096   -2.8671 H   0  0  0  0  0  0  0  0  0  0  0  0
    0.2814   -2.1543    0.1606 H   0  0  0  0  0  0  0  0  0  0  0  0
   -0.0964   -3.4843   -0.9733 H   0  0  0  0  0  0  0  0  0  0  0  0
   -2.1996   -2.4052    0.1887 H   0  0  0  0  0  0  0  0  0  0  0  0
   -3.4406   -1.0942   -2.0766 H   0  0  0  0  0  0  0  0  0  0  0  0
   -1.3971   -0.1650    0.2763 H   0  0  0  0  0  0  0  0  0  0  0  0
   -2.8021    1.0965   -1.5108 H   0  0  0  0  0  0  0  0  0  0  0  0
   -3.5574    0.1952   -0.3586 H   0  0  0  0  0  0  0  0  0  0  0  0
    0.3029    0.4343   -1.0312 H   0  0  0  0  0  0  0  0  0  0  0  0
   -1.6611    0.6246   -3.2877 H   0  0  0  0  0  0  0  0  0  0  0  0
    0.0127    0.2845   -3.7287 H   0  0  0  0  0  0  0  0  0  0  0  0
    0.7055    2.3353   -2.8703 H   0  0  0  0  0  0  0  0  0  0  0  0
    0.4703    4.5444   -2.5332 H   0  0  0  0  0  0  0  0  0  0  0  0
   -0.7478    4.8254   -1.2452 H   0  0  0  0  0  0  0  0  0  0  0  0
   -1.1797    5.1180   -2.9361 H   0  0  0  0  0  0  0  0  0  0  0  0
    4.0505   -1.0933   -2.9818 H   0  0  0  0  0  0  0  0  0  0  0  0
    4.7399   -3.4806   -1.1801 H   0  0  0  0  0  0  0  0  0  0  0  0
    4.3316   -1.8200   -0.6561 H   0  0  0  0  0  0  0  0  0  0  0  0
    5.8061   -2.1195   -1.6038 H   0  0  0  0  0  0  0  0  0  0  0  0
    4.5899   -4.0141   -3.8167 H   0  0  0  0  0  0  0  0  0  0  0  0
    5.5995   -2.5901   -4.1185 H   0  0  0  0  0  0  0  0  0  0  0  0
    4.0068   -2.7144   -4.8944 H   0  0  0  0  0  0  0  0  0  0  0  0
  1  2  1  0
  1 23  1  0
  1 24  1  0
  1 25  1  0
  2  3  1  0
  2 26  1  0
  2 27  1  0
  3  4  1  0
  3 20  1  0
  4  5  2  0
  4  6  1  0
  6  7  1  0
  6 14  1  0
  6 28  1  6
  7  8  1  0
  7 29  1  0
  7 30  1  0
  8  9  1  0
  8 12  1  0
  8 31  1  1
  9 10  2  0
  9 11  1  0
 11 32  1  0
 12 13  1  0
 12 14  1  0
 12 33  1  1
 13 34  1  0
 13 35  1  0
 14 15  1  0
 14 36  1  1
 15 16  1  0
 15 37  1  0
 15 38  1  0
 16 17  1  0
 16 39  1  0
 17 18  1  0
 17 19  2  0
 18 40  1  0
 18 41  1  0
 18 42  1  0
 20 21  1  0
 20 22  1  0
 20 43  1  6
 21 44  1  0
 21 45  1  0
 21 46  1  0
 22 47  1  0
 22 48  1  0
 22 49  1  0
M  END

