
     RDKit          3D

 49 51  0  0  0  0  0  0  0  0999 V2000
    0.6836   -1.1641    0.1673 N   0  0  0  0  0  0  0  0  0  0  0  0
    1.8967   -0.5462    0.1122 C   0  0  0  0  0  0  0  0  0  0  0  0
    2.1507    0.2959   -0.7363 O   0  0  0  0  0  0  0  0  0  0  0  0
    2.8907   -0.9798    1.1905 C   0  0  0  0  0  0  0  0  0  0  0  0
    4.3401   -0.5132    0.9193 C   0  0  1  0  0  0  0  0  0  0  0  0
    4.5947   -0.8584   -0.0949 H   0  0  0  0  0  0  0  0  0  0  0  0
    4.4646    0.9484    0.8461 N   0  0  0  0  0  0  0  0  0  0  0  0
    4.1008    1.7241    2.0211 C   0  0  0  0  0  0  0  0  0  0  0  0
    4.5705    3.1601    1.9007 C   0  0  0  0  0  0  0  0  0  0  0  0
    3.9585    4.2217    2.4955 C   0  0  0  0  0  0  0  0  0  0  0  0
    4.5401    5.5369    2.3863 C   0  0  0  0  0  0  0  0  0  0  0  0
    3.9608    6.6776    2.9911 C   0  0  0  0  0  0  0  0  0  0  0  0
    4.5523    7.9268    2.8623 C   0  0  0  0  0  0  0  0  0  0  0  0
    5.7412    8.0845    2.1246 C   0  0  0  0  0  0  0  0  0  0  0  0
    6.3267    6.9794    1.5204 C   0  0  0  0  0  0  0  0  0  0  0  0
    5.7410    5.7073    1.6443 C   0  0  0  0  0  0  0  0  0  0  0  0
    6.3862    4.5545    0.9787 C   0  0  0  0  0  0  0  0  0  0  0  0
    7.4004    4.6094    0.3001 O   0  0  0  0  0  0  0  0  0  0  0  0
    5.7268    3.3446    1.1826 N   0  0  0  0  0  0  0  0  0  0  0  0
    6.0896    2.5271    0.6917 H   0  0  0  0  0  0  0  0  0  0  0  0
    5.3438   -1.1592    1.9171 C   0  0  1  0  0  0  0  0  0  0  0  0
    5.4665   -2.6924    1.7364 C   0  0  0  0  0  0  0  0  0  0  0  0
    6.2187   -3.0977    0.4591 C   0  0  0  0  0  0  0  0  0  0  0  0
    7.6016   -2.4377    0.3827 C   0  0  0  0  0  0  0  0  0  0  0  0
    7.5115   -0.9165    0.5609 C   0  0  0  0  0  0  0  0  0  0  0  0
    6.7604   -0.5468    1.8468 C   0  0  0  0  0  0  0  0  0  0  0  0
   -0.0236   -0.8976   -0.5081 H   0  0  0  0  0  0  0  0  0  0  0  0
    0.4627   -1.8693    0.8571 H   0  0  0  0  0  0  0  0  0  0  0  0
    2.8456   -2.0765    1.2802 H   0  0  0  0  0  0  0  0  0  0  0  0
    2.5356   -0.5874    2.1606 H   0  0  0  0  0  0  0  0  0  0  0  0
    3.9005    1.2498    0.0499 H   0  0  0  0  0  0  0  0  0  0  0  0
    4.5954    1.2809    2.9041 H   0  0  0  0  0  0  0  0  0  0  0  0
    3.0164    1.7417    2.2521 H   0  0  0  0  0  0  0  0  0  0  0  0
    3.0370    4.0752    3.0613 H   0  0  0  0  0  0  0  0  0  0  0  0
    3.0371    6.5628    3.5649 H   0  0  0  0  0  0  0  0  0  0  0  0
    4.0898    8.7960    3.3379 H   0  0  0  0  0  0  0  0  0  0  0  0
    6.1984    9.0722    2.0286 H   0  0  0  0  0  0  0  0  0  0  0  0
    7.2467    7.0619    0.9380 H   0  0  0  0  0  0  0  0  0  0  0  0
    4.9532   -0.9828    2.9364 H   0  0  0  0  0  0  0  0  0  0  0  0
    4.4787   -3.1808    1.7650 H   0  0  0  0  0  0  0  0  0  0  0  0
    6.0161   -3.0889    2.6087 H   0  0  0  0  0  0  0  0  0  0  0  0
    5.6296   -2.8167   -0.4326 H   0  0  0  0  0  0  0  0  0  0  0  0
    6.3161   -4.1959    0.4209 H   0  0  0  0  0  0  0  0  0  0  0  0
    8.0934   -2.6877   -0.5724 H   0  0  0  0  0  0  0  0  0  0  0  0
    8.2435   -2.8558    1.1805 H   0  0  0  0  0  0  0  0  0  0  0  0
    7.0013   -0.4672   -0.3094 H   0  0  0  0  0  0  0  0  0  0  0  0
    8.5221   -0.4755    0.5807 H   0  0  0  0  0  0  0  0  0  0  0  0
    6.7181    0.5454    1.9593 H   0  0  0  0  0  0  0  0  0  0  0  0
    7.3329   -0.9256    2.7130 H   0  0  0  0  0  0  0  0  0  0  0  0
  1  2  1  0
  1 27  1  0
  1 28  1  0
  2  3  2  0
  2  4  1  0
  4  5  1  0
  4 29  1  0
  4 30  1  0
  5  6  1  6
  5  7  1  0
  5 21  1  0
  7  8  1  0
  7 31  1  0
  8  9  1  0
  8 32  1  0
  8 33  1  0
  9 10  2  0
  9 19  1  0
 10 11  1  0
 10 34  1  0
 11 12  2  0
 11 16  1  0
 12 13  1  0
 12 35  1  0
 13 14  2  0
 13 36  1  0
 14 15  1  0
 14 37  1  0
 15 16  2  0
 15 38  1  0
 16 17  1  0
 17 18  2  0
 17 19  1  0
 19 20  1  0
 21 22  1  0
 21 26  1  0
 21 39  1  1
 22 23  1  0
 22 40  1  0
 22 41  1  0
 23 24  1  0
 23 42  1  0
 23 43  1  0
 24 25  1  0
 24 44  1  0
 24 45  1  0
 25 26  1  0
 25 46  1  0
 25 47  1  0
 26 48  1  0
 26 49  1  0
M  END

