
     RDKit          3D

 49 52  0  0  0  0  0  0  0  0999 V2000
    0.5610   -1.0213    1.7614 C   0  0  0  0  0  0  0  0  0  0  0  0
   -0.0646   -1.8921    0.8480 O   0  0  0  0  0  0  0  0  0  0  0  0
    0.7009   -2.7001    0.0769 C   0  0  0  0  0  0  0  0  0  0  0  0
    2.1012   -2.7445    0.1017 C   0  0  0  0  0  0  0  0  0  0  0  0
    2.8256   -3.6064   -0.7281 C   0  0  0  0  0  0  0  0  0  0  0  0
    2.1516   -4.4568   -1.6163 C   0  0  0  0  0  0  0  0  0  0  0  0
    2.7943   -5.3497   -2.4946 N   0  0  0  0  0  0  0  0  0  0  0  0
    4.1232   -5.6434   -2.5747 C   0  0  0  0  0  0  0  0  0  0  0  0
    5.0095   -5.1228   -1.9165 O   0  0  0  0  0  0  0  0  0  0  0  0
    4.4543   -6.7187   -3.6341 C   0  0  1  0  0  0  0  0  0  0  0  0
    5.9232   -6.6631   -4.0373 C   0  0  0  0  0  0  0  0  0  0  0  0
    4.1081   -8.4313   -2.9778 S   0  0  0  0  0  0  0  0  0  0  0  0
    2.4057   -8.5950   -3.3826 C   0  0  0  0  0  0  0  0  0  0  0  0
    1.5968   -7.6394   -3.7898 N   0  0  0  0  0  0  0  0  0  0  0  0
    0.3568   -8.1779   -3.9597 N   0  0  0  0  0  0  0  0  0  0  0  0
    0.4160   -9.4523   -3.6450 C   0  0  0  0  0  0  0  0  0  0  0  0
   -0.7527  -10.3423   -3.6821 C   0  0  0  0  0  0  0  0  0  0  0  0
   -1.7946  -10.0557   -4.5828 C   0  0  0  0  0  0  0  0  0  0  0  0
   -2.9221  -10.8713   -4.5931 C   0  0  0  0  0  0  0  0  0  0  0  0
   -2.9765  -11.9510   -3.7037 C   0  0  0  0  0  0  0  0  0  0  0  0
   -2.0062  -12.2240   -2.8293 N   0  0  0  0  0  0  0  0  0  0  0  0
   -0.9308  -11.4372   -2.8157 C   0  0  0  0  0  0  0  0  0  0  0  0
    1.7190   -9.7833   -3.2829 N   0  0  0  0  0  0  0  0  0  0  0  0
    2.2776  -11.0617   -2.9181 C   0  0  1  0  0  0  0  0  0  0  0  0
    2.0867  -12.2475   -3.8286 C   0  0  0  0  0  0  0  0  0  0  0  0
    3.4413  -11.6124   -3.7080 C   0  0  0  0  0  0  0  0  0  0  0  0
    0.7439   -4.4246   -1.6491 C   0  0  0  0  0  0  0  0  0  0  0  0
    0.0347   -3.5635   -0.8203 C   0  0  0  0  0  0  0  0  0  0  0  0
   -1.7100   -3.5478   -0.8848 Cl  0  0  0  0  0  0  0  0  0  0  0  0
   -0.2436   -0.4758    2.2724 H   0  0  0  0  0  0  0  0  0  0  0  0
    1.2195   -0.2936    1.2530 H   0  0  0  0  0  0  0  0  0  0  0  0
    1.1553   -1.5707    2.5142 H   0  0  0  0  0  0  0  0  0  0  0  0
    2.6539   -2.0952    0.7813 H   0  0  0  0  0  0  0  0  0  0  0  0
    3.9119   -3.6274   -0.6888 H   0  0  0  0  0  0  0  0  0  0  0  0
    2.1785   -5.9337   -3.0761 H   0  0  0  0  0  0  0  0  0  0  0  0
    3.7944   -6.6053   -4.5059 H   0  0  0  0  0  0  0  0  0  0  0  0
    6.5749   -6.7936   -3.1619 H   0  0  0  0  0  0  0  0  0  0  0  0
    6.1474   -5.6721   -4.4599 H   0  0  0  0  0  0  0  0  0  0  0  0
    6.1552   -7.4310   -4.7891 H   0  0  0  0  0  0  0  0  0  0  0  0
   -1.7006   -9.1983   -5.2519 H   0  0  0  0  0  0  0  0  0  0  0  0
   -3.7483  -10.6791   -5.2811 H   0  0  0  0  0  0  0  0  0  0  0  0
   -3.8461  -12.6187   -3.6957 H   0  0  0  0  0  0  0  0  0  0  0  0
   -0.1735  -11.6749   -2.0626 H   0  0  0  0  0  0  0  0  0  0  0  0
    2.2755  -11.2465   -1.8383 H   0  0  0  0  0  0  0  0  0  0  0  0
    1.5307  -12.0846   -4.7550 H   0  0  0  0  0  0  0  0  0  0  0  0
    1.9014  -13.2152   -3.3557 H   0  0  0  0  0  0  0  0  0  0  0  0
    3.8054  -11.0189   -4.5495 H   0  0  0  0  0  0  0  0  0  0  0  0
    4.2251  -12.1239   -3.1438 H   0  0  0  0  0  0  0  0  0  0  0  0
    0.1919   -5.0812   -2.3248 H   0  0  0  0  0  0  0  0  0  0  0  0
  1  2  1  0
  1 30  1  0
  1 31  1  0
  1 32  1  0
  2  3  1  0
  3  4  2  0
  3 28  1  0
  4  5  1  0
  4 33  1  0
  5  6  2  0
  5 34  1  0
  6  7  1  0
  6 27  1  0
  7  8  1  0
  7 35  1  0
  8  9  2  0
  8 10  1  0
 10 11  1  0
 10 12  1  0
 10 36  1  6
 11 37  1  0
 11 38  1  0
 11 39  1  0
 12 13  1  0
 13 14  2  0
 13 23  1  0
 14 15  1  0
 15 16  2  0
 16 17  1  0
 16 23  1  0
 17 18  2  0
 17 22  1  0
 18 19  1  0
 18 40  1  0
 19 20  2  0
 19 41  1  0
 20 21  1  0
 20 42  1  0
 21 22  2  0
 22 43  1  0
 23 24  1  0
 24 25  1  0
 24 26  1  0
 24 44  1  1
 25 26  1  0
 25 45  1  0
 25 46  1  0
 26 47  1  0
 26 48  1  0
 27 28  2  0
 27 49  1  0
 28 29  1  0
M  END

