
     RDKit          3D

 36 35  0  0  0  0  0  0  0  0999 V2000
    3.3953   -3.7371    0.3718 C   0  0  0  0  0  0  0  0  0  0  0  0
    4.2506   -3.5019   -0.6276 C   0  0  0  0  0  0  0  0  0  0  0  0
    4.9874   -2.2140   -0.8682 C   0  0  0  0  0  0  0  0  0  0  0  0
    4.6542   -1.5743   -2.2268 C   0  0  0  0  0  0  0  0  0  0  0  0
    5.3885   -0.2456   -2.5056 C   0  0  0  0  0  0  0  0  0  0  0  0
    6.8877   -0.3521   -2.5690 C   0  0  0  0  0  0  0  0  0  0  0  0
    7.6682   -0.3020   -3.6633 C   0  0  0  0  0  0  0  0  0  0  0  0
    7.2194   -0.0847   -5.0821 C   0  0  0  0  0  0  0  0  0  0  0  0
    9.0137   -0.5453   -3.4819 O   0  0  0  0  0  0  0  0  0  0  0  0
    9.9550    0.2606   -4.1622 C   0  0  0  0  0  0  0  0  0  0  0  0
   11.3286   -0.2023   -3.6920 C   0  0  0  0  0  0  0  0  0  0  0  0
   12.3632    0.6314   -4.2230 O   0  0  0  0  0  0  0  0  0  0  0  0
   12.8216    0.3447   -5.4621 C   0  0  0  0  0  0  0  0  0  0  0  0
   12.3872   -0.5512   -6.1479 O   0  0  0  0  0  0  0  0  0  0  0  0
   13.9177    1.2754   -5.8441 C   0  0  0  0  0  0  0  0  0  0  0  0
   14.5213    1.1727   -7.0325 C   0  0  0  0  0  0  0  0  0  0  0  0
    2.8920   -4.7020    0.4810 H   0  0  0  0  0  0  0  0  0  0  0  0
    3.1687   -2.9732    1.1238 H   0  0  0  0  0  0  0  0  0  0  0  0
    4.4419   -4.3015   -1.3568 H   0  0  0  0  0  0  0  0  0  0  0  0
    6.0741   -2.4124   -0.8240 H   0  0  0  0  0  0  0  0  0  0  0  0
    4.7644   -1.5000   -0.0556 H   0  0  0  0  0  0  0  0  0  0  0  0
    3.5657   -1.3956   -2.2764 H   0  0  0  0  0  0  0  0  0  0  0  0
    4.8881   -2.2909   -3.0345 H   0  0  0  0  0  0  0  0  0  0  0  0
    5.1181    0.4735   -1.7099 H   0  0  0  0  0  0  0  0  0  0  0  0
    4.9901    0.1813   -3.4396 H   0  0  0  0  0  0  0  0  0  0  0  0
    7.4200   -0.5239   -1.6276 H   0  0  0  0  0  0  0  0  0  0  0  0
    6.1256   -0.0668   -5.1595 H   0  0  0  0  0  0  0  0  0  0  0  0
    7.5980   -0.8929   -5.7306 H   0  0  0  0  0  0  0  0  0  0  0  0
    7.5973    0.8661   -5.4947 H   0  0  0  0  0  0  0  0  0  0  0  0
    9.8171    1.3311   -3.9145 H   0  0  0  0  0  0  0  0  0  0  0  0
    9.8859    0.1435   -5.2573 H   0  0  0  0  0  0  0  0  0  0  0  0
   11.4918   -1.2479   -3.9907 H   0  0  0  0  0  0  0  0  0  0  0  0
   11.3998   -0.1160   -2.5993 H   0  0  0  0  0  0  0  0  0  0  0  0
   14.1970    2.0339   -5.1084 H   0  0  0  0  0  0  0  0  0  0  0  0
   14.2116    0.3979   -7.7400 H   0  0  0  0  0  0  0  0  0  0  0  0
   15.3291    1.8481   -7.3250 H   0  0  0  0  0  0  0  0  0  0  0  0
  1  2  2  0
  1 17  1  0
  1 18  1  0
  2  3  1  0
  2 19  1  0
  3  4  1  0
  3 20  1  0
  3 21  1  0
  4  5  1  0
  4 22  1  0
  4 23  1  0
  5  6  1  0
  5 24  1  0
  5 25  1  0
  6  7  2  0
  6 26  1  0
  7  8  1  0
  7  9  1  0
  8 27  1  0
  8 28  1  0
  8 29  1  0
  9 10  1  0
 10 11  1  0
 10 30  1  0
 10 31  1  0
 11 12  1  0
 11 32  1  0
 11 33  1  0
 12 13  1  0
 13 14  2  0
 13 15  1  0
 15 16  2  0
 15 34  1  0
 16 35  1  0
 16 36  1  0
M  END

