
     RDKit          3D

 59 61  0  0  0  0  0  0  0  0999 V2000
    1.5940    1.6637   -2.6378 C   0  0  0  0  0  0  0  0  0  0  0  0
    3.0394    1.6835   -2.1366 C   0  0  0  0  0  0  0  0  0  0  0  0
    3.1838    1.4267   -0.6322 C   0  0  1  0  0  0  0  0  0  0  0  0
    2.7554    0.0383   -0.1807 C   0  0  0  0  0  0  0  0  0  0  0  0
    4.5766    1.5618   -0.2609 O   0  0  0  0  0  0  0  0  0  0  0  0
    5.0448    2.7972    0.0289 C   0  0  0  0  0  0  0  0  0  0  0  0
    4.3303    3.7815   -0.0214 O   0  0  0  0  0  0  0  0  0  0  0  0
    6.4856    2.7524    0.3838 C   0  0  0  0  0  0  0  0  0  0  0  0
    7.2134    3.8954    0.5617 C   0  0  0  0  0  0  0  0  0  0  0  0
    6.7187    5.3146    0.5488 C   0  0  0  0  0  0  0  0  0  0  0  0
    8.5843    3.8028    0.7709 N   0  0  0  0  0  0  0  0  0  0  0  0
    9.3028    2.6447    0.6155 C   0  0  0  0  0  0  0  0  0  0  0  0
    8.6481    1.4636    0.4348 C   0  0  0  0  0  0  0  0  0  0  0  0
    9.3781    0.2469    0.0835 C   0  0  0  0  0  0  0  0  0  0  0  0
    8.8123   -0.8156   -0.1258 O   0  0  0  0  0  0  0  0  0  0  0  0
   10.9153    0.3552   -0.0614 C   0  0  2  0  0  0  0  0  0  0  0  0
   11.5065   -1.0205    0.2050 C   0  0  0  0  0  0  0  0  0  0  0  0
   11.8153   -1.4329    1.2967 O   0  0  0  0  0  0  0  0  0  0  0  0
   11.6400   -1.7279   -0.9254 O   0  0  0  0  0  0  0  0  0  0  0  0
   12.0705   -3.0810   -0.7761 C   0  0  0  0  0  0  0  0  0  0  0  0
   11.5169    1.4410    0.8485 C   0  0  1  0  0  0  0  0  0  0  0  0
   13.0316    1.5885    0.6804 C   0  0  0  0  0  0  0  0  0  0  0  0
   10.8002    2.7722    0.5919 C   0  0  0  0  0  0  0  0  0  0  0  0
    7.1372    1.3779    0.5693 C   0  0  1  0  0  0  0  0  0  0  0  0
    6.7282    0.7056    1.8849 C   0  0  0  0  0  0  0  0  0  0  0  0
    6.1047   -0.5518    1.8908 C   0  0  0  0  0  0  0  0  0  0  0  0
    5.7323   -1.1822    3.0802 C   0  0  0  0  0  0  0  0  0  0  0  0
    5.9810   -0.5609    4.3081 C   0  0  0  0  0  0  0  0  0  0  0  0
    6.6093    0.6856    4.3374 C   0  0  0  0  0  0  0  0  0  0  0  0
    6.9721    1.2873    3.1349 C   0  0  0  0  0  0  0  0  0  0  0  0
    7.5958    2.4842    3.1964 F   0  0  0  0  0  0  0  0  0  0  0  0
    1.5487    1.9307   -3.7052 H   0  0  0  0  0  0  0  0  0  0  0  0
    0.9697    2.3892   -2.0899 H   0  0  0  0  0  0  0  0  0  0  0  0
    1.1273    0.6717   -2.5295 H   0  0  0  0  0  0  0  0  0  0  0  0
    3.4815    2.6699   -2.3482 H   0  0  0  0  0  0  0  0  0  0  0  0
    3.6448    0.9364   -2.6799 H   0  0  0  0  0  0  0  0  0  0  0  0
    2.6201    2.1996   -0.0862 H   0  0  0  0  0  0  0  0  0  0  0  0
    3.3158   -0.7416   -0.7212 H   0  0  0  0  0  0  0  0  0  0  0  0
    1.6819   -0.1159   -0.3662 H   0  0  0  0  0  0  0  0  0  0  0  0
    2.9393   -0.0893    0.8962 H   0  0  0  0  0  0  0  0  0  0  0  0
    5.6565    5.3618    0.2979 H   0  0  0  0  0  0  0  0  0  0  0  0
    7.2993    5.9161   -0.1718 H   0  0  0  0  0  0  0  0  0  0  0  0
    6.8666    5.7605    1.5484 H   0  0  0  0  0  0  0  0  0  0  0  0
    9.0903    4.6627    0.9435 H   0  0  0  0  0  0  0  0  0  0  0  0
   11.1054    0.6049   -1.1210 H   0  0  0  0  0  0  0  0  0  0  0  0
   12.1417   -3.4933   -1.7901 H   0  0  0  0  0  0  0  0  0  0  0  0
   11.3413   -3.6529   -0.1830 H   0  0  0  0  0  0  0  0  0  0  0  0
   13.0478   -3.1296   -0.2722 H   0  0  0  0  0  0  0  0  0  0  0  0
   11.3120    1.1337    1.8881 H   0  0  0  0  0  0  0  0  0  0  0  0
   13.2964    1.8451   -0.3597 H   0  0  0  0  0  0  0  0  0  0  0  0
   13.5521    0.6582    0.9493 H   0  0  0  0  0  0  0  0  0  0  0  0
   13.4223    2.3871    1.3317 H   0  0  0  0  0  0  0  0  0  0  0  0
   11.1111    3.1814   -0.3894 H   0  0  0  0  0  0  0  0  0  0  0  0
   11.1127    3.5180    1.3448 H   0  0  0  0  0  0  0  0  0  0  0  0
    6.7767    0.7079   -0.2212 H   0  0  0  0  0  0  0  0  0  0  0  0
    5.9247   -1.0421    0.9321 H   0  0  0  0  0  0  0  0  0  0  0  0
    5.2521   -2.1631    3.0485 H   0  0  0  0  0  0  0  0  0  0  0  0
    5.6935   -1.0462    5.2440 H   0  0  0  0  0  0  0  0  0  0  0  0
    6.8299    1.2019    5.2739 H   0  0  0  0  0  0  0  0  0  0  0  0
  1  2  1  0
  1 32  1  0
  1 33  1  0
  1 34  1  0
  2  3  1  0
  2 35  1  0
  2 36  1  0
  3  4  1  0
  3  5  1  0
  3 37  1  1
  4 38  1  0
  4 39  1  0
  4 40  1  0
  5  6  1  0
  6  7  2  0
  6  8  1  0
  8  9  2  0
  8 24  1  0
  9 10  1  0
  9 11  1  0
 10 41  1  0
 10 42  1  0
 10 43  1  0
 11 12  1  0
 11 44  1  0
 12 13  2  0
 12 23  1  0
 13 14  1  0
 13 24  1  0
 14 15  2  0
 14 16  1  0
 16 17  1  0
 16 21  1  0
 16 45  1  6
 17 18  2  0
 17 19  1  0
 19 20  1  0
 20 46  1  0
 20 47  1  0
 20 48  1  0
 21 22  1  0
 21 23  1  0
 21 49  1  1
 22 50  1  0
 22 51  1  0
 22 52  1  0
 23 53  1  0
 23 54  1  0
 24 25  1  0
 24 55  1  6
 25 26  2  0
 25 30  1  0
 26 27  1  0
 26 56  1  0
 27 28  2  0
 27 57  1  0
 28 29  1  0
 28 58  1  0
 29 30  2  0
 29 59  1  0
 30 31  1  0
M  END

