
     RDKit          3D

 42 45  0  0  0  0  0  0  0  0999 V2000
    1.0123    0.8958   -0.0775 C   0  0  0  0  0  0  0  0  0  0  0  0
    2.5412    0.8753   -0.2251 C   0  0  1  0  0  0  0  0  0  0  0  0
    3.1340   -0.5416   -0.0695 C   0  0  0  0  0  0  0  0  0  0  0  0
    2.8487   -1.4506   -1.2728 C   0  0  0  0  0  0  0  0  0  0  0  0
    3.3231   -0.8249   -2.6048 C   0  0  2  0  0  0  0  0  0  0  0  0
    4.8218   -0.9015   -2.7410 C   0  0  0  0  0  0  0  0  0  0  0  0
    5.5795    0.1107   -3.0838 N   0  0  0  0  0  0  0  0  0  0  0  0
    6.8614   -0.4284   -3.1258 O   0  0  0  0  0  0  0  0  0  0  0  0
    6.7500   -1.7217   -2.8010 C   0  0  0  0  0  0  0  0  0  0  0  0
    7.9822   -2.5736   -2.7209 C   0  0  1  0  0  0  0  0  0  0  0  0
    9.0336   -2.3170   -3.8375 C   0  0  0  0  0  0  0  0  0  0  0  0
   10.3412   -2.5459   -3.1117 C   0  0  0  0  0  0  0  0  0  0  0  0
   11.6367   -2.7071   -3.5870 C   0  0  0  0  0  0  0  0  0  0  0  0
   12.6907   -2.8575   -2.6703 C   0  0  0  0  0  0  0  0  0  0  0  0
   12.4311   -2.8364   -1.2963 C   0  0  0  0  0  0  0  0  0  0  0  0
   11.1292   -2.6668   -0.8044 C   0  0  0  0  0  0  0  0  0  0  0  0
   10.0892   -2.5223   -1.7265 C   0  0  0  0  0  0  0  0  0  0  0  0
    8.7294   -2.3186   -1.4799 N   0  0  0  0  0  0  0  0  0  0  0  0
    5.5250   -2.0753   -2.5546 N   0  0  0  0  0  0  0  0  0  0  0  0
    2.7631    0.6012   -2.7749 C   0  0  0  0  0  0  0  0  0  0  0  0
    3.0228    1.4971   -1.5533 C   0  0  0  0  0  0  0  0  0  0  0  0
    0.7034    0.4827    0.8969 H   0  0  0  0  0  0  0  0  0  0  0  0
    0.5013    0.3091   -0.8577 H   0  0  0  0  0  0  0  0  0  0  0  0
    0.6259    1.9263   -0.1396 H   0  0  0  0  0  0  0  0  0  0  0  0
    2.9481    1.4941    0.5945 H   0  0  0  0  0  0  0  0  0  0  0  0
    2.7508   -1.0136    0.8515 H   0  0  0  0  0  0  0  0  0  0  0  0
    4.2274   -0.4555    0.0638 H   0  0  0  0  0  0  0  0  0  0  0  0
    1.7657   -1.6422   -1.3536 H   0  0  0  0  0  0  0  0  0  0  0  0
    3.3310   -2.4308   -1.1363 H   0  0  0  0  0  0  0  0  0  0  0  0
    2.9349   -1.4568   -3.4245 H   0  0  0  0  0  0  0  0  0  0  0  0
    7.6278   -3.6205   -2.7644 H   0  0  0  0  0  0  0  0  0  0  0  0
    8.9638   -1.2745   -4.1916 H   0  0  0  0  0  0  0  0  0  0  0  0
    8.8760   -2.9749   -4.7048 H   0  0  0  0  0  0  0  0  0  0  0  0
   11.8350   -2.7235   -4.6624 H   0  0  0  0  0  0  0  0  0  0  0  0
   13.7126   -2.9937   -3.0314 H   0  0  0  0  0  0  0  0  0  0  0  0
   13.2555   -2.9573   -0.5885 H   0  0  0  0  0  0  0  0  0  0  0  0
   10.9354   -2.6506    0.2710 H   0  0  0  0  0  0  0  0  0  0  0  0
    8.3346   -2.7022   -0.6274 H   0  0  0  0  0  0  0  0  0  0  0  0
    1.6779    0.5138   -2.9517 H   0  0  0  0  0  0  0  0  0  0  0  0
    3.1895    1.0679   -3.6763 H   0  0  0  0  0  0  0  0  0  0  0  0
    2.5385    2.4767   -1.7072 H   0  0  0  0  0  0  0  0  0  0  0  0
    4.1047    1.6955   -1.4855 H   0  0  0  0  0  0  0  0  0  0  0  0
  1  2  1  0
  1 22  1  0
  1 23  1  0
  1 24  1  0
  2  3  1  0
  2 21  1  0
  2 25  1  1
  3  4  1  0
  3 26  1  0
  3 27  1  0
  4  5  1  0
  4 28  1  0
  4 29  1  0
  5  6  1  0
  5 20  1  0
  5 30  1  6
  6  7  2  0
  6 19  1  0
  7  8  1  0
  8  9  1  0
  9 10  1  0
  9 19  2  0
 10 11  1  0
 10 18  1  0
 10 31  1  1
 11 12  1  0
 11 32  1  0
 11 33  1  0
 12 13  1  0
 12 17  2  0
 13 14  2  0
 13 34  1  0
 14 15  1  0
 14 35  1  0
 15 16  2  0
 15 36  1  0
 16 17  1  0
 16 37  1  0
 17 18  1  0
 18 38  1  0
 20 21  1  0
 20 39  1  0
 20 40  1  0
 21 41  1  0
 21 42  1  0
M  END

