
     RDKit          3D

 28 28  0  0  0  0  0  0  0  0999 V2000
    1.1664   -0.0568    0.0799 C   0  0  0  0  0  0  0  0  0  0  0  0
    2.6691   -0.0124    0.0858 C   0  0  0  0  0  0  0  0  0  0  0  0
    3.2770    0.8639   -0.7229 N   0  0  0  0  0  0  0  0  0  0  0  0
    4.6099    0.8793   -0.7167 C   0  0  0  0  0  0  0  0  0  0  0  0
    5.3781    0.0314    0.0870 C   0  0  0  0  0  0  0  0  0  0  0  0
    6.8933    0.1133    0.1104 C   0  0  1  0  0  0  0  0  0  0  0  0
    7.2918    0.7637    1.4631 C   0  0  0  0  0  0  0  0  0  0  0  0
    7.5428   -0.1296    2.4571 N   0  0  0  0  0  0  0  0  0  0  0  0
    7.3063    1.9701    1.6022 O   0  0  0  0  0  0  0  0  0  0  0  0
    7.5632   -1.1777   -0.0904 N   0  0  0  0  0  0  0  0  0  0  0  0
    7.0311   -1.9719   -1.1920 C   0  0  0  0  0  0  0  0  0  0  0  0
    9.0044   -1.0031   -0.2486 C   0  0  0  0  0  0  0  0  0  0  0  0
    4.6360   -0.8376    0.9016 C   0  0  0  0  0  0  0  0  0  0  0  0
    3.3072   -0.8688    0.9010 N   0  0  0  0  0  0  0  0  0  0  0  0
    0.7598    0.8039   -0.4656 H   0  0  0  0  0  0  0  0  0  0  0  0
    0.7802   -0.0746    1.1100 H   0  0  0  0  0  0  0  0  0  0  0  0
    0.8191   -0.9835   -0.4078 H   0  0  0  0  0  0  0  0  0  0  0  0
    5.1001    1.6031   -1.3804 H   0  0  0  0  0  0  0  0  0  0  0  0
    7.1975    0.8568   -0.6561 H   0  0  0  0  0  0  0  0  0  0  0  0
    7.6093   -1.1159    2.2320 H   0  0  0  0  0  0  0  0  0  0  0  0
    7.8010    0.2152    3.3738 H   0  0  0  0  0  0  0  0  0  0  0  0
    5.9679   -2.2005   -1.0432 H   0  0  0  0  0  0  0  0  0  0  0  0
    7.5762   -2.9271   -1.2427 H   0  0  0  0  0  0  0  0  0  0  0  0
    7.1387   -1.4698   -2.1789 H   0  0  0  0  0  0  0  0  0  0  0  0
    9.4287   -0.4527    0.6031 H   0  0  0  0  0  0  0  0  0  0  0  0
    9.2662   -0.4480   -1.1761 H   0  0  0  0  0  0  0  0  0  0  0  0
    9.4957   -1.9873   -0.2941 H   0  0  0  0  0  0  0  0  0  0  0  0
    5.1441   -1.5352    1.5777 H   0  0  0  0  0  0  0  0  0  0  0  0
  1  2  1  0
  1 15  1  0
  1 16  1  0
  1 17  1  0
  2  3  2  0
  2 14  1  0
  3  4  1  0
  4  5  2  0
  4 18  1  0
  5  6  1  0
  5 13  1  0
  6  7  1  0
  6 10  1  0
  6 19  1  6
  7  8  1  0
  7  9  2  0
  8 20  1  0
  8 21  1  0
 10 11  1  0
 10 12  1  0
 11 22  1  0
 11 23  1  0
 11 24  1  0
 12 25  1  0
 12 26  1  0
 12 27  1  0
 13 14  2  0
 13 28  1  0
M  END

