
     RDKit          3D

 41 43  0  0  0  0  0  0  0  0999 V2000
    0.5924    0.0418   -0.5523 C   0  0  0  0  0  0  0  0  0  0  0  0
    2.0947    0.0137   -0.4314 C   0  0  0  0  0  0  0  0  0  0  0  0
    2.8009    1.1723   -0.0703 C   0  0  0  0  0  0  0  0  0  0  0  0
    4.1877    1.1789    0.0495 C   0  0  0  0  0  0  0  0  0  0  0  0
    4.9075   -0.0011   -0.1959 C   0  0  0  0  0  0  0  0  0  0  0  0
    6.3601    0.0046   -0.0707 C   0  0  0  0  0  0  0  0  0  0  0  0
    7.1490    0.9837    0.2520 N   0  0  0  0  0  0  0  0  0  0  0  0
    8.4414    0.4893    0.2385 N   0  0  0  0  0  0  0  0  0  0  0  0
    8.3470   -0.7601   -0.0984 C   0  0  0  0  0  0  0  0  0  0  0  0
    9.5975   -1.9631   -0.3190 S   0  0  0  0  0  0  0  0  0  0  0  0
   11.0733   -0.9173   -0.0412 C   0  0  0  0  0  0  0  0  0  0  0  0
   11.3344   -0.6070    1.4272 C   0  0  0  0  0  0  0  0  0  0  0  0
   12.5871    0.0497    1.4784 O   0  0  0  0  0  0  0  0  0  0  0  0
   13.0624    0.4987    2.6725 C   0  0  0  0  0  0  0  0  0  0  0  0
   12.3966    0.3480    3.8979 C   0  0  0  0  0  0  0  0  0  0  0  0
   12.9751    0.8437    5.0733 C   0  0  0  0  0  0  0  0  0  0  0  0
   14.2077    1.4821    5.0169 C   0  0  0  0  0  0  0  0  0  0  0  0
   14.7615    1.9565    6.1462 F   0  0  0  0  0  0  0  0  0  0  0  0
   14.8832    1.6404    3.8058 C   0  0  0  0  0  0  0  0  0  0  0  0
   14.3088    1.1485    2.6370 C   0  0  0  0  0  0  0  0  0  0  0  0
    7.0669   -1.1472   -0.3097 O   0  0  0  0  0  0  0  0  0  0  0  0
    4.2115   -1.1665   -0.5579 C   0  0  0  0  0  0  0  0  0  0  0  0
    2.8179   -1.1779   -0.6794 C   0  0  0  0  0  0  0  0  0  0  0  0
    2.1007   -2.4466   -1.0702 C   0  0  0  0  0  0  0  0  0  0  0  0
    0.1904    1.0400   -0.3273 H   0  0  0  0  0  0  0  0  0  0  0  0
    0.1160   -0.6769    0.1362 H   0  0  0  0  0  0  0  0  0  0  0  0
    0.2616   -0.2339   -1.5683 H   0  0  0  0  0  0  0  0  0  0  0  0
    2.2447    2.0940    0.1217 H   0  0  0  0  0  0  0  0  0  0  0  0
    4.7256    2.0858    0.3308 H   0  0  0  0  0  0  0  0  0  0  0  0
   10.9660    0.0086   -0.6227 H   0  0  0  0  0  0  0  0  0  0  0  0
   11.9060   -1.5022   -0.4595 H   0  0  0  0  0  0  0  0  0  0  0  0
   11.3577   -1.5411    2.0191 H   0  0  0  0  0  0  0  0  0  0  0  0
   10.5327    0.0407    1.8201 H   0  0  0  0  0  0  0  0  0  0  0  0
   11.4280   -0.1483    3.9553 H   0  0  0  0  0  0  0  0  0  0  0  0
   12.4705    0.7368    6.0356 H   0  0  0  0  0  0  0  0  0  0  0  0
   15.8499    2.1476    3.7930 H   0  0  0  0  0  0  0  0  0  0  0  0
   14.8110    1.2575    1.6738 H   0  0  0  0  0  0  0  0  0  0  0  0
    4.7722   -2.0841   -0.7488 H   0  0  0  0  0  0  0  0  0  0  0  0
    2.8067   -3.2757   -1.2219 H   0  0  0  0  0  0  0  0  0  0  0  0
    1.5272   -2.3179   -2.0038 H   0  0  0  0  0  0  0  0  0  0  0  0
    1.3765   -2.7581   -0.2985 H   0  0  0  0  0  0  0  0  0  0  0  0
  1  2  1  0
  1 25  1  0
  1 26  1  0
  1 27  1  0
  2  3  2  0
  2 23  1  0
  3  4  1  0
  3 28  1  0
  4  5  2  0
  4 29  1  0
  5  6  1  0
  5 22  1  0
  6  7  2  0
  6 21  1  0
  7  8  1  0
  8  9  2  0
  9 10  1  0
  9 21  1  0
 10 11  1  0
 11 12  1  0
 11 30  1  0
 11 31  1  0
 12 13  1  0
 12 32  1  0
 12 33  1  0
 13 14  1  0
 14 15  2  0
 14 20  1  0
 15 16  1  0
 15 34  1  0
 16 17  2  0
 16 35  1  0
 17 18  1  0
 17 19  1  0
 19 20  2  0
 19 36  1  0
 20 37  1  0
 22 23  2  0
 22 38  1  0
 23 24  1  0
 24 39  1  0
 24 40  1  0
 24 41  1  0
M  END

