
     RDKit          3D

 35 36  0  0  0  0  0  0  0  0999 V2000
    2.3321    0.8799    1.0584 C   0  0  0  0  0  0  0  0  0  0  0  0
    2.6660    0.2362   -0.2964 C   0  0  0  0  0  0  0  0  0  0  0  0
    2.9944   -1.2361   -0.1835 C   0  0  0  0  0  0  0  0  0  0  0  0
    4.3051   -1.5210   -0.1225 N   0  0  0  0  0  0  0  0  0  0  0  0
    4.6683   -2.8066   -0.0531 C   0  0  0  0  0  0  0  0  0  0  0  0
    6.1121   -3.1494   -0.2010 C   0  0  0  0  0  0  0  0  0  0  0  0
    6.4193   -4.3902   -0.7977 C   0  0  0  0  0  0  0  0  0  0  0  0
    7.7133   -4.7638   -1.1393 C   0  0  0  0  0  0  0  0  0  0  0  0
    8.7561   -3.8711   -0.8687 C   0  0  0  0  0  0  0  0  0  0  0  0
   10.3963   -4.2983   -1.2977 Cl  0  0  0  0  0  0  0  0  0  0  0  0
    8.5054   -2.6569   -0.2393 C   0  0  0  0  0  0  0  0  0  0  0  0
    7.1953   -2.2885    0.1160 C   0  0  0  0  0  0  0  0  0  0  0  0
    7.1045   -1.0958    0.7535 O   0  0  0  0  0  0  0  0  0  0  0  0
    6.3907   -0.9792    1.9738 C   0  0  0  0  0  0  0  0  0  0  0  0
    3.8173   -3.8230    0.0728 N   0  0  0  0  0  0  0  0  0  0  0  0
    2.4925   -3.5871    0.0831 C   0  0  0  0  0  0  0  0  0  0  0  0
    1.7423   -4.7107    0.2841 N   0  0  0  0  0  0  0  0  0  0  0  0
    0.4318   -4.8490    0.8959 C   0  0  0  0  0  0  0  0  0  0  0  0
    2.0293   -2.2574   -0.1275 C   0  0  0  0  0  0  0  0  0  0  0  0
   -0.0221   -1.8007   -0.5347 I   0  0  0  0  0  0  0  0  0  0  0  0
    2.1447    1.9581    0.9354 H   0  0  0  0  0  0  0  0  0  0  0  0
    3.1666    0.7631    1.7678 H   0  0  0  0  0  0  0  0  0  0  0  0
    1.4342    0.4311    1.5110 H   0  0  0  0  0  0  0  0  0  0  0  0
    3.5541    0.7211   -0.7261 H   0  0  0  0  0  0  0  0  0  0  0  0
    1.8287    0.3866   -0.9941 H   0  0  0  0  0  0  0  0  0  0  0  0
    5.5873   -5.0598   -1.0191 H   0  0  0  0  0  0  0  0  0  0  0  0
    7.9171   -5.7213   -1.6200 H   0  0  0  0  0  0  0  0  0  0  0  0
    9.3161   -1.9732    0.0124 H   0  0  0  0  0  0  0  0  0  0  0  0
    6.9253   -0.2383    2.5874 H   0  0  0  0  0  0  0  0  0  0  0  0
    6.3657   -1.9392    2.5176 H   0  0  0  0  0  0  0  0  0  0  0  0
    5.3612   -0.6372    1.7970 H   0  0  0  0  0  0  0  0  0  0  0  0
    2.3536   -5.5161    0.3682 H   0  0  0  0  0  0  0  0  0  0  0  0
    0.2646   -4.1030    1.6890 H   0  0  0  0  0  0  0  0  0  0  0  0
    0.3804   -5.8461    1.3574 H   0  0  0  0  0  0  0  0  0  0  0  0
   -0.3939   -4.7691    0.1724 H   0  0  0  0  0  0  0  0  0  0  0  0
  1  2  1  0
  1 21  1  0
  1 22  1  0
  1 23  1  0
  2  3  1  0
  2 24  1  0
  2 25  1  0
  3  4  2  0
  3 19  1  0
  4  5  1  0
  5  6  1  0
  5 15  2  0
  6  7  2  0
  6 12  1  0
  7  8  1  0
  7 26  1  0
  8  9  2  0
  8 27  1  0
  9 10  1  0
  9 11  1  0
 11 12  2  0
 11 28  1  0
 12 13  1  0
 13 14  1  0
 14 29  1  0
 14 30  1  0
 14 31  1  0
 15 16  1  0
 16 17  1  0
 16 19  2  0
 17 18  1  0
 17 32  1  0
 18 33  1  0
 18 34  1  0
 18 35  1  0
 19 20  1  0
M  END

