
     RDKit          3D

 64 70  0  0  0  0  0  0  0  0999 V2000
    3.2637    0.3922   -3.6640 C   0  0  0  0  0  0  0  0  0  0  0  0
    4.1192    0.9447   -2.5226 C   0  0  0  0  0  0  0  0  0  0  0  0
    3.3379    1.0945   -1.2135 C   0  0  0  0  0  0  0  0  0  0  0  0
    4.1533    1.5817   -0.0102 C   0  0  0  0  0  0  0  0  0  0  0  0
    4.7333    2.9277   -0.1784 N   0  0  0  0  0  0  0  0  0  0  0  0
    6.0933    3.0272   -0.5109 C   0  0  0  0  0  0  0  0  0  0  0  0
    6.7805    2.0337   -0.6666 O   0  0  0  0  0  0  0  0  0  0  0  0
    6.6481    4.3995   -0.6611 C   0  0  0  0  0  0  0  0  0  0  0  0
    7.9838    4.5582   -0.9993 C   0  0  0  0  0  0  0  0  0  0  0  0
    8.5321    5.8393   -1.1469 C   0  0  0  0  0  0  0  0  0  0  0  0
    7.7689    6.9968   -0.9618 C   0  0  0  0  0  0  0  0  0  0  0  0
    8.3362    8.3467   -1.1144 C   0  0  0  0  0  0  0  0  0  0  0  0
    9.6761    8.5610   -1.4536 C   0  0  0  0  0  0  0  0  0  0  0  0
   10.2075    9.8497   -1.5973 C   0  0  0  0  0  0  0  0  0  0  0  0
    9.4066   10.9654   -1.4051 C   0  0  0  0  0  0  0  0  0  0  0  0
    8.0422   10.7983   -1.0585 C   0  0  0  0  0  0  0  0  0  0  0  0
    7.2290   11.9427   -0.8607 C   0  0  0  0  0  0  0  0  0  0  0  0
    5.8940   11.7840   -0.5195 C   0  0  0  0  0  0  0  0  0  0  0  0
    5.3459   10.5030   -0.3711 C   0  0  0  0  0  0  0  0  0  0  0  0
    6.1088    9.3454   -0.5571 C   0  0  0  0  0  0  0  0  0  0  0  0
    5.5418    7.9955   -0.4036 C   0  0  0  0  0  0  0  0  0  0  0  0
    4.2028    7.7812   -0.0608 C   0  0  0  0  0  0  0  0  0  0  0  0
    3.6713    6.4925    0.0824 C   0  0  0  0  0  0  0  0  0  0  0  0
    4.4707    5.3767   -0.1156 C   0  0  0  0  0  0  0  0  0  0  0  0
    5.8350    5.5439   -0.4627 C   0  0  0  0  0  0  0  0  0  0  0  0
    6.3865    6.8565   -0.6112 C   0  0  0  0  0  0  0  0  0  0  0  0
    3.8832    4.0200    0.0436 C   0  0  0  0  0  0  0  0  0  0  0  0
    2.7171    3.8500    0.3531 O   0  0  0  0  0  0  0  0  0  0  0  0
    7.4908    9.4857   -0.9093 C   0  0  0  0  0  0  0  0  0  0  0  0
    7.7838   13.3150   -1.0113 C   0  0  0  0  0  0  0  0  0  0  0  0
    7.1017   14.3087   -0.8352 O   0  0  0  0  0  0  0  0  0  0  0  0
    9.1376   13.4143   -1.3682 N   0  0  0  0  0  0  0  0  0  0  0  0
    9.7231   14.7603   -1.5151 C   0  0  0  0  0  0  0  0  0  0  0  0
    9.8692   15.2259   -2.9685 C   0  0  0  0  0  0  0  0  0  0  0  0
    8.5603   15.3583   -3.7532 C   0  0  0  0  0  0  0  0  0  0  0  0
    8.7710   15.8865   -5.1732 C   0  0  0  0  0  0  0  0  0  0  0  0
    9.9946   12.3221   -1.5624 C   0  0  0  0  0  0  0  0  0  0  0  0
   11.1672   12.4923   -1.8467 O   0  0  0  0  0  0  0  0  0  0  0  0
    3.8433    0.3037   -4.5967 H   0  0  0  0  0  0  0  0  0  0  0  0
    2.3983    1.0445   -3.8698 H   0  0  0  0  0  0  0  0  0  0  0  0
    2.8691   -0.6090   -3.4218 H   0  0  0  0  0  0  0  0  0  0  0  0
    4.5309    1.9252   -2.8205 H   0  0  0  0  0  0  0  0  0  0  0  0
    4.9943    0.2930   -2.3575 H   0  0  0  0  0  0  0  0  0  0  0  0
    2.9094    0.1158   -0.9305 H   0  0  0  0  0  0  0  0  0  0  0  0
    2.4780    1.7698   -1.3597 H   0  0  0  0  0  0  0  0  0  0  0  0
    4.9944    0.9059    0.1862 H   0  0  0  0  0  0  0  0  0  0  0  0
    3.5051    1.6220    0.8752 H   0  0  0  0  0  0  0  0  0  0  0  0
    8.5941    3.6655   -1.1472 H   0  0  0  0  0  0  0  0  0  0  0  0
    9.5857    5.9157   -1.4140 H   0  0  0  0  0  0  0  0  0  0  0  0
   10.3418    7.7135   -1.6147 H   0  0  0  0  0  0  0  0  0  0  0  0
   11.2558    9.9991   -1.8621 H   0  0  0  0  0  0  0  0  0  0  0  0
    5.2841   12.6768   -0.3704 H   0  0  0  0  0  0  0  0  0  0  0  0
    4.2927   10.4265   -0.1027 H   0  0  0  0  0  0  0  0  0  0  0  0
    3.5380    8.6287    0.1037 H   0  0  0  0  0  0  0  0  0  0  0  0
    2.6238    6.3431    0.3505 H   0  0  0  0  0  0  0  0  0  0  0  0
   10.7137   14.7310   -1.0420 H   0  0  0  0  0  0  0  0  0  0  0  0
    9.0730   15.4423   -0.9539 H   0  0  0  0  0  0  0  0  0  0  0  0
   10.5599   14.5452   -3.4942 H   0  0  0  0  0  0  0  0  0  0  0  0
   10.3768   16.2072   -2.9374 H   0  0  0  0  0  0  0  0  0  0  0  0
    7.8661   16.0176   -3.2045 H   0  0  0  0  0  0  0  0  0  0  0  0
    8.0596   14.3753   -3.8031 H   0  0  0  0  0  0  0  0  0  0  0  0
    9.2306   16.8893   -5.1645 H   0  0  0  0  0  0  0  0  0  0  0  0
    7.8184   15.9629   -5.7212 H   0  0  0  0  0  0  0  0  0  0  0  0
    9.4373   15.2258   -5.7530 H   0  0  0  0  0  0  0  0  0  0  0  0
  1  2  1  0
  1 39  1  0
  1 40  1  0
  1 41  1  0
  2  3  1  0
  2 42  1  0
  2 43  1  0
  3  4  1  0
  3 44  1  0
  3 45  1  0
  4  5  1  0
  4 46  1  0
  4 47  1  0
  5  6  1  0
  5 27  1  0
  6  7  2  0
  6  8  1  0
  8  9  1  0
  8 25  2  0
  9 10  2  0
  9 48  1  0
 10 11  1  0
 10 49  1  0
 11 12  1  0
 11 26  2  0
 12 13  2  0
 12 29  1  0
 13 14  1  0
 13 50  1  0
 14 15  2  0
 14 51  1  0
 15 16  1  0
 15 37  1  0
 16 17  1  0
 16 29  2  0
 17 18  2  0
 17 30  1  0
 18 19  1  0
 18 52  1  0
 19 20  2  0
 19 53  1  0
 20 21  1  0
 20 29  1  0
 21 22  2  0
 21 26  1  0
 22 23  1  0
 22 54  1  0
 23 24  2  0
 23 55  1  0
 24 25  1  0
 24 27  1  0
 25 26  1  0
 27 28  2  0
 30 31  2  0
 30 32  1  0
 32 33  1  0
 32 37  1  0
 33 34  1  0
 33 56  1  0
 33 57  1  0
 34 35  1  0
 34 58  1  0
 34 59  1  0
 35 36  1  0
 35 60  1  0
 35 61  1  0
 36 62  1  0
 36 63  1  0
 36 64  1  0
 37 38  2  0
M  END

