
     RDKit          3D

 24 25  0  0  0  0  0  0  0  0999 V2000
    1.3999   -0.1574    0.5355 N   0  0  0  0  0  0  0  0  0  0  0  0
    2.4277    0.4701   -0.1191 C   0  0  0  0  0  0  0  0  0  0  0  0
    2.8263    1.5765    0.1966 O   0  0  0  0  0  0  0  0  0  0  0  0
    3.0501   -0.3032   -1.2524 C   0  0  0  0  0  0  0  0  0  0  0  0
    3.7674    0.4078   -2.2288 C   0  0  0  0  0  0  0  0  0  0  0  0
    4.3621   -0.1760   -3.2685 N   0  0  0  0  0  0  0  0  0  0  0  0
    4.2766   -1.5004   -3.3845 C   0  0  0  0  0  0  0  0  0  0  0  0
    3.5959   -2.3007   -2.4590 C   0  0  0  0  0  0  0  0  0  0  0  0
    3.6713   -3.6639   -2.6464 O   0  0  0  0  0  0  0  0  0  0  0  0
    2.6048   -4.4907   -2.5737 C   0  0  0  0  0  0  0  0  0  0  0  0
    1.3943   -3.9905   -2.3460 N   0  0  0  0  0  0  0  0  0  0  0  0
    0.3787   -4.8555   -2.3183 C   0  0  0  0  0  0  0  0  0  0  0  0
    0.5944   -6.2152   -2.5137 C   0  0  0  0  0  0  0  0  0  0  0  0
   -0.4150   -7.0864   -2.4855 F   0  0  0  0  0  0  0  0  0  0  0  0
    1.9072   -6.6397   -2.7331 C   0  0  0  0  0  0  0  0  0  0  0  0
    2.9133   -5.7742   -2.7633 N   0  0  0  0  0  0  0  0  0  0  0  0
    2.9766   -1.6965   -1.3654 C   0  0  0  0  0  0  0  0  0  0  0  0
    0.9201    0.3850    1.2455 H   0  0  0  0  0  0  0  0  0  0  0  0
    0.8941   -0.9232    0.1097 H   0  0  0  0  0  0  0  0  0  0  0  0
    3.8469    1.4955   -2.1392 H   0  0  0  0  0  0  0  0  0  0  0  0
    4.7746   -1.9794   -4.2352 H   0  0  0  0  0  0  0  0  0  0  0  0
   -0.6313   -4.4703   -2.1379 H   0  0  0  0  0  0  0  0  0  0  0  0
    2.1282   -7.7028   -2.8850 H   0  0  0  0  0  0  0  0  0  0  0  0
    2.4725   -2.3032   -0.6140 H   0  0  0  0  0  0  0  0  0  0  0  0
  1  2  1  0
  1 18  1  0
  1 19  1  0
  2  3  2  0
  2  4  1  0
  4  5  2  0
  4 17  1  0
  5  6  1  0
  5 20  1  0
  6  7  2  0
  7  8  1  0
  7 21  1  0
  8  9  1  0
  8 17  2  0
  9 10  1  0
 10 11  2  0
 10 16  1  0
 11 12  1  0
 12 13  2  0
 12 22  1  0
 13 14  1  0
 13 15  1  0
 15 16  2  0
 15 23  1  0
 17 24  1  0
M  END

