
     RDKit          3D

 58 62  0  0  0  0  0  0  0  0999 V2000
    2.7947   -1.4605    0.6914 C   0  0  0  0  0  0  0  0  0  0  0  0
    3.3729   -0.4524   -0.1089 O   0  0  0  0  0  0  0  0  0  0  0  0
    3.8174    0.6867    0.4729 C   0  0  0  0  0  0  0  0  0  0  0  0
    3.7393    0.9648    1.8459 C   0  0  0  0  0  0  0  0  0  0  0  0
    4.2357    2.1779    2.3390 C   0  0  0  0  0  0  0  0  0  0  0  0
    4.8028    3.1394    1.4912 C   0  0  0  0  0  0  0  0  0  0  0  0
    5.3914    4.4004    2.0439 C   0  0  0  0  0  0  0  0  0  0  0  0
    6.5658    4.2744    2.7743 C   0  0  0  0  0  0  0  0  0  0  0  0
    7.2292    5.4243    3.2777 C   0  0  0  0  0  0  0  0  0  0  0  0
    8.4929    5.3290    4.0609 C   0  0  0  0  0  0  0  0  0  0  0  0
    9.1594    6.5079    4.4418 C   0  0  0  0  0  0  0  0  0  0  0  0
   10.3443    6.4546    5.1743 C   0  0  0  0  0  0  0  0  0  0  0  0
   10.9118    5.2301    5.5598 C   0  0  0  0  0  0  0  0  0  0  0  0
   12.1915    5.1674    6.3562 C   0  0  0  0  0  0  0  0  0  0  0  0
   10.2429    4.0539    5.1814 C   0  0  0  0  0  0  0  0  0  0  0  0
    9.0591    4.0995    4.4475 C   0  0  0  0  0  0  0  0  0  0  0  0
    6.7538    6.6386    3.0518 N   0  0  0  0  0  0  0  0  0  0  0  0
    5.6050    6.8112    2.3649 C   0  0  0  0  0  0  0  0  0  0  0  0
    5.1548    8.1599    2.1631 C   0  0  0  0  0  0  0  0  0  0  0  0
    6.0176    9.2061    2.6041 C   0  0  0  0  0  0  0  0  0  0  0  0
    6.7392   10.0533    2.9461 N   0  0  0  0  0  0  0  0  0  0  0  0
    3.9238    8.3575    1.4832 C   0  0  0  0  0  0  0  0  0  0  0  0
    3.3505    9.5693    1.2377 N   0  0  0  0  0  0  0  0  0  0  0  0
    2.1224    9.6787    0.4365 C   0  0  0  0  0  0  0  0  0  0  0  0
    1.9323   11.1898    0.2764 C   0  0  0  0  0  0  0  0  0  0  0  0
    2.5120   11.7493    1.5802 C   0  0  0  0  0  0  0  0  0  0  0  0
    3.7367   10.8590    1.8271 C   0  0  0  0  0  0  0  0  0  0  0  0
    3.2079    7.3042    1.0253 N   0  0  0  0  0  0  0  0  0  0  0  0
    3.6062    6.0541    1.1817 C   0  0  0  0  0  0  0  0  0  0  0  0
    2.7562    5.1118    0.6989 N   0  0  0  0  0  0  0  0  0  0  0  0
    4.8542    5.7078    1.8417 C   0  0  0  0  0  0  0  0  0  0  0  0
    4.8773    2.8418    0.1141 C   0  0  0  0  0  0  0  0  0  0  0  0
    4.3941    1.6393   -0.3883 C   0  0  0  0  0  0  0  0  0  0  0  0
    2.5180   -2.2779    0.0124 H   0  0  0  0  0  0  0  0  0  0  0  0
    1.8866   -1.1033    1.2098 H   0  0  0  0  0  0  0  0  0  0  0  0
    3.5058   -1.8455    1.4441 H   0  0  0  0  0  0  0  0  0  0  0  0
    3.3005    0.2491    2.5413 H   0  0  0  0  0  0  0  0  0  0  0  0
    4.1726    2.3809    3.4111 H   0  0  0  0  0  0  0  0  0  0  0  0
    6.9857    3.2801    2.9187 H   0  0  0  0  0  0  0  0  0  0  0  0
    8.7262    7.4654    4.1490 H   0  0  0  0  0  0  0  0  0  0  0  0
   10.8412    7.3882    5.4536 H   0  0  0  0  0  0  0  0  0  0  0  0
   12.6047    6.1703    6.5382 H   0  0  0  0  0  0  0  0  0  0  0  0
   12.9607    4.5745    5.8332 H   0  0  0  0  0  0  0  0  0  0  0  0
   12.0296    4.6872    7.3363 H   0  0  0  0  0  0  0  0  0  0  0  0
   10.6570    3.0826    5.4682 H   0  0  0  0  0  0  0  0  0  0  0  0
    8.5751    3.1576    4.1838 H   0  0  0  0  0  0  0  0  0  0  0  0
    1.2714    9.2118    0.9647 H   0  0  0  0  0  0  0  0  0  0  0  0
    2.2303    9.1451   -0.5188 H   0  0  0  0  0  0  0  0  0  0  0  0
    0.8798   11.4638    0.1096 H   0  0  0  0  0  0  0  0  0  0  0  0
    2.5138   11.5565   -0.5863 H   0  0  0  0  0  0  0  0  0  0  0  0
    1.7844   11.6274    2.4003 H   0  0  0  0  0  0  0  0  0  0  0  0
    2.7771   12.8154    1.5259 H   0  0  0  0  0  0  0  0  0  0  0  0
    3.9725   10.7520    2.8951 H   0  0  0  0  0  0  0  0  0  0  0  0
    4.6367   11.2691    1.3383 H   0  0  0  0  0  0  0  0  0  0  0  0
    1.8887    5.4426    0.2973 H   0  0  0  0  0  0  0  0  0  0  0  0
    2.9231    4.1236    0.8097 H   0  0  0  0  0  0  0  0  0  0  0  0
    5.3257    3.5678   -0.5684 H   0  0  0  0  0  0  0  0  0  0  0  0
    4.4572    1.4040   -1.4527 H   0  0  0  0  0  0  0  0  0  0  0  0
  1  2  1  0
  1 34  1  0
  1 35  1  0
  1 36  1  0
  2  3  1  0
  3  4  2  0
  3 33  1  0
  4  5  1  0
  4 37  1  0
  5  6  2  0
  5 38  1  0
  6  7  1  0
  6 32  1  0
  7  8  2  0
  7 31  1  0
  8  9  1  0
  8 39  1  0
  9 10  1  0
  9 17  2  0
 10 11  2  0
 10 16  1  0
 11 12  1  0
 11 40  1  0
 12 13  2  0
 12 41  1  0
 13 14  1  0
 13 15  1  0
 14 42  1  0
 14 43  1  0
 14 44  1  0
 15 16  2  0
 15 45  1  0
 16 46  1  0
 17 18  1  0
 18 19  1  0
 18 31  2  0
 19 20  1  0
 19 22  2  0
 20 21  3  0
 22 23  1  0
 22 28  1  0
 23 24  1  0
 23 27  1  0
 24 25  1  0
 24 47  1  0
 24 48  1  0
 25 26  1  0
 25 49  1  0
 25 50  1  0
 26 27  1  0
 26 51  1  0
 26 52  1  0
 27 53  1  0
 27 54  1  0
 28 29  2  0
 29 30  1  0
 29 31  1  0
 30 55  1  0
 30 56  1  0
 32 33  2  0
 32 57  1  0
 33 58  1  0
M  END

