
     RDKit          3D

 35 36  0  0  0  0  0  0  0  0999 V2000
   -2.3508   -6.5695    2.8763 C   0  0  0  0  0  0  0  0  0  0  0  0
   -1.0053   -6.3936    2.1690 C   0  0  0  0  0  0  0  0  0  0  0  0
   -0.2030   -5.2461    2.7083 C   0  0  0  0  0  0  0  0  0  0  0  0
   -0.6956   -4.1066    3.1749 N   0  0  0  0  0  0  0  0  0  0  0  0
    0.3729   -3.3270    3.5037 C   0  0  0  0  0  0  0  0  0  0  0  0
    1.5454   -4.0073    3.2358 C   0  0  0  0  0  0  0  0  0  0  0  0
    3.2472   -3.6158    3.4374 S   0  0  1  0  0  0  0  0  0  0  0  0
    3.9583   -4.6662    2.6980 O   0  0  0  0  0  0  0  0  0  0  0  0
    3.4680   -2.1958    3.1854 O   0  0  0  0  0  0  0  0  0  0  0  0
    3.5057   -3.7823    5.1138 N   0  0  0  0  0  0  0  0  0  0  0  0
    3.7176   -5.0747    5.6904 C   0  0  0  0  0  0  0  0  0  0  0  0
    4.8935   -5.8034    5.4762 C   0  0  0  0  0  0  0  0  0  0  0  0
    5.0849   -7.0511    6.0634 C   0  0  0  0  0  0  0  0  0  0  0  0
    4.0674   -7.5937    6.8631 C   0  0  0  0  0  0  0  0  0  0  0  0
    4.3075   -8.9453    7.4825 C   0  0  0  0  0  0  0  0  0  0  0  0
    5.4026   -9.4113    7.6478 O   0  0  0  0  0  0  0  0  0  0  0  0
    3.2042   -9.6397    7.8505 O   0  0  0  0  0  0  0  0  0  0  0  0
    2.8910   -6.8708    7.0941 C   0  0  0  0  0  0  0  0  0  0  0  0
    2.6895   -5.5969    6.5211 C   0  0  0  0  0  0  0  0  0  0  0  0
    1.5688   -4.8566    6.7857 N   0  0  0  0  0  0  0  0  0  0  0  0
    1.1584   -5.2317    2.7342 N   0  0  0  0  0  0  0  0  0  0  0  0
    1.8089   -5.9405    2.4073 H   0  0  0  0  0  0  0  0  0  0  0  0
   -2.9359   -7.3719    2.4023 H   0  0  0  0  0  0  0  0  0  0  0  0
   -2.9313   -5.6370    2.8325 H   0  0  0  0  0  0  0  0  0  0  0  0
   -2.2132   -6.8252    3.9387 H   0  0  0  0  0  0  0  0  0  0  0  0
   -1.1778   -6.2205    1.0905 H   0  0  0  0  0  0  0  0  0  0  0  0
   -0.4033   -7.3158    2.2338 H   0  0  0  0  0  0  0  0  0  0  0  0
    0.2662   -2.3186    3.9021 H   0  0  0  0  0  0  0  0  0  0  0  0
    4.1451   -3.0370    5.3951 H   0  0  0  0  0  0  0  0  0  0  0  0
    5.6561   -5.3756    4.8230 H   0  0  0  0  0  0  0  0  0  0  0  0
    6.0022   -7.6205    5.9113 H   0  0  0  0  0  0  0  0  0  0  0  0
    2.4094   -9.1992    7.5190 H   0  0  0  0  0  0  0  0  0  0  0  0
    2.1231   -7.2544    7.7730 H   0  0  0  0  0  0  0  0  0  0  0  0
    0.7492   -5.3084    7.1665 H   0  0  0  0  0  0  0  0  0  0  0  0
    1.4224   -4.0195    6.2357 H   0  0  0  0  0  0  0  0  0  0  0  0
  1  2  1  0
  1 23  1  0
  1 24  1  0
  1 25  1  0
  2  3  1  0
  2 26  1  0
  2 27  1  0
  3  4  2  0
  3 21  1  0
  4  5  1  0
  5  6  2  0
  5 28  1  0
  6  7  1  0
  6 21  1  0
  7  8  2  0
  7  9  2  0
  7 10  1  1
 10 11  1  0
 10 29  1  0
 11 12  2  0
 11 19  1  0
 12 13  1  0
 12 30  1  0
 13 14  2  0
 13 31  1  0
 14 15  1  0
 14 18  1  0
 15 16  2  0
 15 17  1  0
 17 32  1  0
 18 19  2  0
 18 33  1  0
 19 20  1  0
 20 34  1  0
 20 35  1  0
 21 22  1  0
M  END

