
     RDKit          3D

 57 59  0  0  0  0  0  0  0  0999 V2000
    3.4408    1.0772   -0.8910 C   0  0  0  0  0  0  0  0  0  0  0  0
    2.8583   -0.2877   -0.5476 C   0  0  0  0  0  0  0  0  0  0  0  0
    1.6708   -0.5205   -0.7004 O   0  0  0  0  0  0  0  0  0  0  0  0
    3.7258   -1.2440   -0.0595 N   0  0  0  0  0  0  0  0  0  0  0  0
    5.1531   -1.0881    0.1504 C   0  0  0  0  0  0  0  0  0  0  0  0
    5.5502   -1.4871    1.5792 C   0  0  0  0  0  0  0  0  0  0  0  0
    5.0743   -2.8315    1.8761 N   0  0  0  0  0  0  0  0  0  0  0  0
    5.7547   -3.6281    2.7805 C   0  0  0  0  0  0  0  0  0  0  0  0
    6.6225   -3.0474    3.7427 C   0  0  0  0  0  0  0  0  0  0  0  0
    7.2885   -3.8003    4.6972 C   0  0  0  0  0  0  0  0  0  0  0  0
    7.1131   -5.1923    4.7810 C   0  0  0  0  0  0  0  0  0  0  0  0
    7.8627   -5.9340    5.8574 C   0  0  0  0  0  0  0  0  0  0  0  0
    8.7757   -5.3953    6.4689 O   0  0  0  0  0  0  0  0  0  0  0  0
    7.4517   -7.2108    6.1034 N   0  0  0  0  0  0  0  0  0  0  0  0
    8.1068   -8.0936    7.0483 C   0  0  0  0  0  0  0  0  0  0  0  0
    8.4207   -9.4665    6.4228 C   0  0  0  0  0  0  0  0  0  0  0  0
    7.1939  -10.2042    5.9298 C   0  0  0  0  0  0  0  0  0  0  0  0
    6.8780  -10.2587    4.6218 C   0  0  0  0  0  0  0  0  0  0  0  0
    5.6768  -10.9767    4.0589 C   0  0  0  0  0  0  0  0  0  0  0  0
    5.0210  -11.9141    5.0810 C   0  0  0  0  0  0  0  0  0  0  0  0
    4.9324  -11.2480    6.4573 C   0  0  0  0  0  0  0  0  0  0  0  0
    6.3256  -10.8739    6.9775 C   0  0  0  0  0  0  0  0  0  0  0  0
    6.2942   -5.7970    3.8301 C   0  0  0  0  0  0  0  0  0  0  0  0
    5.6479   -5.0511    2.8380 C   0  0  0  0  0  0  0  0  0  0  0  0
    4.9845   -5.8566    1.7966 N   0  0  0  0  0  0  0  0  0  0  0  0
    4.8389   -5.3693    0.6846 O   0  0  0  0  0  0  0  0  0  0  0  0
    4.6522   -6.9974    2.0894 O   0  0  0  0  0  0  0  0  0  0  0  0
    3.6278   -2.9715    1.6710 C   0  0  0  0  0  0  0  0  0  0  0  0
    3.2320   -2.5811    0.2506 C   0  0  0  0  0  0  0  0  0  0  0  0
    2.6194    1.6933   -1.2755 H   0  0  0  0  0  0  0  0  0  0  0  0
    4.2264    1.0074   -1.6601 H   0  0  0  0  0  0  0  0  0  0  0  0
    3.8744    1.5744   -0.0086 H   0  0  0  0  0  0  0  0  0  0  0  0
    5.4599   -0.0508   -0.0277 H   0  0  0  0  0  0  0  0  0  0  0  0
    5.7090   -1.7312   -0.5585 H   0  0  0  0  0  0  0  0  0  0  0  0
    5.1396   -0.7412    2.2927 H   0  0  0  0  0  0  0  0  0  0  0  0
    6.6460   -1.4626    1.6547 H   0  0  0  0  0  0  0  0  0  0  0  0
    6.7396   -1.9643    3.7598 H   0  0  0  0  0  0  0  0  0  0  0  0
    7.9469   -3.3229    5.4257 H   0  0  0  0  0  0  0  0  0  0  0  0
    6.6562   -7.5873    5.6026 H   0  0  0  0  0  0  0  0  0  0  0  0
    7.4798   -8.2209    7.9507 H   0  0  0  0  0  0  0  0  0  0  0  0
    9.0292   -7.5905    7.3696 H   0  0  0  0  0  0  0  0  0  0  0  0
    8.9374  -10.0743    7.1872 H   0  0  0  0  0  0  0  0  0  0  0  0
    9.1297   -9.3192    5.5924 H   0  0  0  0  0  0  0  0  0  0  0  0
    7.5385   -9.7635    3.8993 H   0  0  0  0  0  0  0  0  0  0  0  0
    5.9752  -11.5402    3.1573 H   0  0  0  0  0  0  0  0  0  0  0  0
    4.9441  -10.2294    3.6965 H   0  0  0  0  0  0  0  0  0  0  0  0
    5.6216  -12.8377    5.1672 H   0  0  0  0  0  0  0  0  0  0  0  0
    4.0225  -12.2220    4.7305 H   0  0  0  0  0  0  0  0  0  0  0  0
    4.4232  -11.9076    7.1791 H   0  0  0  0  0  0  0  0  0  0  0  0
    4.3141  -10.3350    6.3792 H   0  0  0  0  0  0  0  0  0  0  0  0
    6.8521  -11.7789    7.3396 H   0  0  0  0  0  0  0  0  0  0  0  0
    6.2379  -10.2219    7.8649 H   0  0  0  0  0  0  0  0  0  0  0  0
    6.1584   -6.8771    3.7848 H   0  0  0  0  0  0  0  0  0  0  0  0
    3.1018   -2.3094    2.3897 H   0  0  0  0  0  0  0  0  0  0  0  0
    3.3056   -3.9965    1.8757 H   0  0  0  0  0  0  0  0  0  0  0  0
    2.1410   -2.5687    0.1375 H   0  0  0  0  0  0  0  0  0  0  0  0
    3.6585   -3.3149   -0.4548 H   0  0  0  0  0  0  0  0  0  0  0  0
  1  2  1  0
  1 30  1  0
  1 31  1  0
  1 32  1  0
  2  3  2  0
  2  4  1  0
  4  5  1  0
  4 29  1  0
  5  6  1  0
  5 33  1  0
  5 34  1  0
  6  7  1  0
  6 35  1  0
  6 36  1  0
  7  8  1  0
  7 28  1  0
  8  9  2  0
  8 24  1  0
  9 10  1  0
  9 37  1  0
 10 11  2  0
 10 38  1  0
 11 12  1  0
 11 23  1  0
 12 13  2  0
 12 14  1  0
 14 15  1  0
 14 39  1  0
 15 16  1  0
 15 40  1  0
 15 41  1  0
 16 17  1  0
 16 42  1  0
 16 43  1  0
 17 18  2  0
 17 22  1  0
 18 19  1  0
 18 44  1  0
 19 20  1  0
 19 45  1  0
 19 46  1  0
 20 21  1  0
 20 47  1  0
 20 48  1  0
 21 22  1  0
 21 49  1  0
 21 50  1  0
 22 51  1  0
 22 52  1  0
 23 24  2  0
 23 53  1  0
 24 25  1  0
 25 26  2  0
 25 27  1  0
 28 29  1  0
 28 54  1  0
 28 55  1  0
 29 56  1  0
 29 57  1  0
M  CHG  2  25   1  27  -1
M  END

