
     RDKit          3D

 56 59  0  0  0  0  0  0  0  0999 V2000
    2.9451   -0.5051   -1.2369 C   0  0  0  0  0  0  0  0  0  0  0  0
    2.6787   -1.2472   -2.4612 N   0  0  0  0  0  0  0  0  0  0  0  0
    2.8892   -0.4081   -3.6334 C   0  0  0  0  0  0  0  0  0  0  0  0
    3.3890   -2.5469   -2.4943 C   0  0  1  0  0  0  0  0  0  0  0  0
    2.8089   -3.4937   -1.4231 C   0  0  0  0  0  0  0  0  0  0  0  0
    1.3638   -3.5209   -1.5082 N   0  0  0  0  0  0  0  0  0  0  0  0
    0.6132   -4.4889   -0.9072 C   0  0  0  0  0  0  0  0  0  0  0  0
    1.1140   -5.4460   -0.3385 O   0  0  0  0  0  0  0  0  0  0  0  0
   -0.8992   -4.2789   -0.9844 C   0  0  0  0  0  0  0  0  0  0  0  0
   -1.6632   -5.6008   -1.0562 C   0  0  0  0  0  0  0  0  0  0  0  0
   -3.1783   -5.3940   -0.9945 C   0  0  0  0  0  0  0  0  0  0  0  0
   -3.9266   -6.6584   -1.0603 N   0  0  0  0  0  0  0  0  0  0  0  0
   -4.2376   -7.2899    0.1556 C   0  0  0  0  0  0  0  0  0  0  0  0
   -3.9100   -6.7937    1.2178 O   0  0  0  0  0  0  0  0  0  0  0  0
   -4.9819   -8.5760    0.0706 C   0  0  0  0  0  0  0  0  0  0  0  0
   -5.3243   -9.2447    1.2356 C   0  0  0  0  0  0  0  0  0  0  0  0
   -6.0320  -10.4659    1.1762 C   0  0  0  0  0  0  0  0  0  0  0  0
   -6.3909  -11.0088   -0.0434 C   0  0  0  0  0  0  0  0  0  0  0  0
   -6.0563  -10.3523   -1.2597 C   0  0  0  0  0  0  0  0  0  0  0  0
   -6.4008  -10.8679   -2.5395 C   0  0  0  0  0  0  0  0  0  0  0  0
   -6.0509  -10.1915   -3.6932 C   0  0  0  0  0  0  0  0  0  0  0  0
   -5.3417   -8.9719   -3.6205 C   0  0  0  0  0  0  0  0  0  0  0  0
   -4.9899   -8.4382   -2.3904 C   0  0  0  0  0  0  0  0  0  0  0  0
   -5.3402   -9.1156   -1.1928 C   0  0  0  0  0  0  0  0  0  0  0  0
   -4.2412   -7.1532   -2.3353 C   0  0  0  0  0  0  0  0  0  0  0  0
   -3.9107   -6.5454   -3.3381 O   0  0  0  0  0  0  0  0  0  0  0  0
    3.3681   -3.1821   -3.8562 C   0  0  0  0  0  0  0  0  0  0  0  0
    2.4720   -3.9575   -4.5434 C   0  0  0  0  0  0  0  0  0  0  0  0
    3.0604   -4.2236   -5.8243 C   0  0  0  0  0  0  0  0  0  0  0  0
    4.2694   -3.5898   -5.8213 C   0  0  0  0  0  0  0  0  0  0  0  0
    4.4656   -2.9585   -4.6368 O   0  0  0  0  0  0  0  0  0  0  0  0
    2.3566    0.4251   -1.2344 H   0  0  0  0  0  0  0  0  0  0  0  0
    4.0176   -0.2277   -1.1231 H   0  0  0  0  0  0  0  0  0  0  0  0
    2.6511   -1.0822   -0.3486 H   0  0  0  0  0  0  0  0  0  0  0  0
    2.2824    0.5053   -3.5337 H   0  0  0  0  0  0  0  0  0  0  0  0
    2.5671   -0.9258   -4.5468 H   0  0  0  0  0  0  0  0  0  0  0  0
    3.9491   -0.0993   -3.7686 H   0  0  0  0  0  0  0  0  0  0  0  0
    4.4647   -2.4001   -2.2528 H   0  0  0  0  0  0  0  0  0  0  0  0
    3.1396   -3.1773   -0.4170 H   0  0  0  0  0  0  0  0  0  0  0  0
    3.2013   -4.5105   -1.5652 H   0  0  0  0  0  0  0  0  0  0  0  0
    0.9367   -2.6830   -1.8943 H   0  0  0  0  0  0  0  0  0  0  0  0
   -1.1545   -3.6251   -1.8360 H   0  0  0  0  0  0  0  0  0  0  0  0
   -1.1935   -3.7292   -0.0705 H   0  0  0  0  0  0  0  0  0  0  0  0
   -1.3339   -6.2399   -0.2233 H   0  0  0  0  0  0  0  0  0  0  0  0
   -1.4061   -6.1258   -1.9907 H   0  0  0  0  0  0  0  0  0  0  0  0
   -3.5155   -4.7775   -1.8381 H   0  0  0  0  0  0  0  0  0  0  0  0
   -3.4572   -4.9065   -0.0515 H   0  0  0  0  0  0  0  0  0  0  0  0
   -5.0335   -8.8048    2.1915 H   0  0  0  0  0  0  0  0  0  0  0  0
   -6.2946  -10.9815    2.1029 H   0  0  0  0  0  0  0  0  0  0  0  0
   -6.9382  -11.9543   -0.0873 H   0  0  0  0  0  0  0  0  0  0  0  0
   -6.9488  -11.8123   -2.5978 H   0  0  0  0  0  0  0  0  0  0  0  0
   -6.3216  -10.5995   -4.6698 H   0  0  0  0  0  0  0  0  0  0  0  0
   -5.0570   -8.4279   -4.5232 H   0  0  0  0  0  0  0  0  0  0  0  0
    1.5092   -4.2997   -4.1739 H   0  0  0  0  0  0  0  0  0  0  0  0
    2.6385   -4.8144   -6.6348 H   0  0  0  0  0  0  0  0  0  0  0  0
    5.0734   -3.5069   -6.5481 H   0  0  0  0  0  0  0  0  0  0  0  0
  1  2  1  0
  1 32  1  0
  1 33  1  0
  1 34  1  0
  2  3  1  0
  2  4  1  0
  3 35  1  0
  3 36  1  0
  3 37  1  0
  4  5  1  0
  4 27  1  0
  4 38  1  1
  5  6  1  0
  5 39  1  0
  5 40  1  0
  6  7  1  0
  6 41  1  0
  7  8  2  0
  7  9  1  0
  9 10  1  0
  9 42  1  0
  9 43  1  0
 10 11  1  0
 10 44  1  0
 10 45  1  0
 11 12  1  0
 11 46  1  0
 11 47  1  0
 12 13  1  0
 12 25  1  0
 13 14  2  0
 13 15  1  0
 15 16  2  0
 15 24  1  0
 16 17  1  0
 16 48  1  0
 17 18  2  0
 17 49  1  0
 18 19  1  0
 18 50  1  0
 19 20  1  0
 19 24  2  0
 20 21  2  0
 20 51  1  0
 21 22  1  0
 21 52  1  0
 22 23  2  0
 22 53  1  0
 23 24  1  0
 23 25  1  0
 25 26  2  0
 27 28  2  0
 27 31  1  0
 28 29  1  0
 28 54  1  0
 29 30  2  0
 29 55  1  0
 30 31  1  0
 30 56  1  0
M  END

