
     RDKit          3D

 35 35  0  0  0  0  0  0  0  0999 V2000
    1.6489    1.0030   -2.3362 C   0  0  0  0  0  0  0  0  0  0  0  0
    2.1916    0.4074   -1.0580 C   0  0  0  0  0  0  0  0  0  0  0  0
    2.0037   -0.7549   -0.7571 O   0  0  0  0  0  0  0  0  0  0  0  0
    3.0692    1.3115   -0.1564 C   0  0  1  0  0  0  0  0  0  0  0  0
    2.7947    1.0237    1.3226 C   0  0  0  0  0  0  0  0  0  0  0  0
    4.4982    1.1872   -0.4924 N   0  0  0  0  0  0  0  0  0  0  0  0
    5.0238   -0.1538   -0.5885 C   0  0  0  0  0  0  0  0  0  0  0  0
    4.8416   -0.8718   -1.9415 C   0  0  0  0  0  0  0  0  0  0  0  0
    5.0853   -2.2132   -1.9118 N   0  0  0  0  0  0  0  0  0  0  0  0
    4.5757   -0.2756   -2.9722 O   0  0  0  0  0  0  0  0  0  0  0  0
    5.0786    2.2448   -1.3238 C   0  0  1  0  0  0  0  0  0  0  0  0
    5.0154    3.6476   -0.6781 C   0  0  0  0  0  0  0  0  0  0  0  0
    6.0521    4.4942   -1.4538 C   0  0  0  0  0  0  0  0  0  0  0  0
    6.9923    3.4694   -2.1498 C   0  0  0  0  0  0  0  0  0  0  0  0
    6.5849    2.0955   -1.5914 C   0  0  0  0  0  0  0  0  0  0  0  0
    0.9876    0.2811   -2.8336 H   0  0  0  0  0  0  0  0  0  0  0  0
    2.4993    1.2274   -3.0008 H   0  0  0  0  0  0  0  0  0  0  0  0
    1.1107    1.9449   -2.1406 H   0  0  0  0  0  0  0  0  0  0  0  0
    2.7940    2.3548   -0.3615 H   0  0  0  0  0  0  0  0  0  0  0  0
    2.9895   -0.0307    1.5665 H   0  0  0  0  0  0  0  0  0  0  0  0
    1.7388    1.2201    1.5696 H   0  0  0  0  0  0  0  0  0  0  0  0
    3.4312    1.6612    1.9537 H   0  0  0  0  0  0  0  0  0  0  0  0
    4.5698   -0.7741    0.2003 H   0  0  0  0  0  0  0  0  0  0  0  0
    6.1076   -0.1525   -0.3813 H   0  0  0  0  0  0  0  0  0  0  0  0
    5.0910   -2.7246   -1.0385 H   0  0  0  0  0  0  0  0  0  0  0  0
    4.9140   -2.7376   -2.7629 H   0  0  0  0  0  0  0  0  0  0  0  0
    4.5828    2.2929   -2.3150 H   0  0  0  0  0  0  0  0  0  0  0  0
    5.3051    3.5443    0.3812 H   0  0  0  0  0  0  0  0  0  0  0  0
    4.0117    4.0992   -0.6990 H   0  0  0  0  0  0  0  0  0  0  0  0
    6.6014    5.1647   -0.7749 H   0  0  0  0  0  0  0  0  0  0  0  0
    5.5625    5.1419   -2.1978 H   0  0  0  0  0  0  0  0  0  0  0  0
    8.0585    3.6849   -1.9812 H   0  0  0  0  0  0  0  0  0  0  0  0
    6.8363    3.4881   -3.2403 H   0  0  0  0  0  0  0  0  0  0  0  0
    7.1022    1.9030   -0.6346 H   0  0  0  0  0  0  0  0  0  0  0  0
    6.8190    1.2724   -2.2813 H   0  0  0  0  0  0  0  0  0  0  0  0
  1  2  1  0
  1 16  1  0
  1 17  1  0
  1 18  1  0
  2  3  2  0
  2  4  1  0
  4  5  1  0
  4  6  1  0
  4 19  1  1
  5 20  1  0
  5 21  1  0
  5 22  1  0
  6  7  1  0
  6 11  1  0
  7  8  1  0
  7 23  1  0
  7 24  1  0
  8  9  1  0
  8 10  2  0
  9 25  1  0
  9 26  1  0
 11 12  1  0
 11 15  1  0
 11 27  1  6
 12 13  1  0
 12 28  1  0
 12 29  1  0
 13 14  1  0
 13 30  1  0
 13 31  1  0
 14 15  1  0
 14 32  1  0
 14 33  1  0
 15 34  1  0
 15 35  1  0
M  END

