
     RDKit          3D

 28 29  0  0  0  0  0  0  0  0999 V2000
    3.1855   -1.4138   -2.1598 C   0  0  0  0  0  0  0  0  0  0  0  0
    3.3178   -0.5687   -0.9202 C   0  0  0  0  0  0  0  0  0  0  0  0
    3.6762    0.8214   -0.9604 C   0  0  0  0  0  0  0  0  0  0  0  0
    3.7448    1.4094    0.2746 C   0  0  0  0  0  0  0  0  0  0  0  0
    3.3797    0.2791    1.5285 S   0  0  0  0  0  0  0  0  0  0  0  0
    3.1270   -1.0089    0.3752 C   0  0  0  0  0  0  0  0  0  0  0  0
    2.7127   -2.3736    0.8632 C   0  0  0  0  0  0  0  0  0  0  0  0
    1.2709   -2.5983    0.8609 N   0  0  0  0  0  0  0  0  0  0  0  0
    0.6631   -3.4408   -0.0293 C   0  0  0  0  0  0  0  0  0  0  0  0
    1.3020   -4.1201   -0.8254 O   0  0  0  0  0  0  0  0  0  0  0  0
   -0.8260   -3.5025    0.0371 C   0  0  0  0  0  0  0  0  0  0  0  0
   -1.7955   -2.3042    0.8682 S   0  0  0  0  0  0  0  0  0  0  0  0
   -3.2179   -3.1898    0.4131 C   0  0  0  0  0  0  0  0  0  0  0  0
   -3.0012   -4.2596   -0.2866 N   0  0  0  0  0  0  0  0  0  0  0  0
   -1.6597   -4.4626   -0.5188 C   0  0  0  0  0  0  0  0  0  0  0  0
   -1.2544   -5.6613   -1.3207 C   0  0  0  0  0  0  0  0  0  0  0  0
    4.1594   -1.5218   -2.6676 H   0  0  0  0  0  0  0  0  0  0  0  0
    2.5010   -0.9392   -2.8825 H   0  0  0  0  0  0  0  0  0  0  0  0
    2.7961   -2.4189   -1.9471 H   0  0  0  0  0  0  0  0  0  0  0  0
    3.8778    1.3592   -1.8893 H   0  0  0  0  0  0  0  0  0  0  0  0
    3.9977    2.4405    0.5178 H   0  0  0  0  0  0  0  0  0  0  0  0
    3.0993   -2.5395    1.8824 H   0  0  0  0  0  0  0  0  0  0  0  0
    3.1420   -3.1541    0.2215 H   0  0  0  0  0  0  0  0  0  0  0  0
    0.7066   -2.0342    1.4855 H   0  0  0  0  0  0  0  0  0  0  0  0
   -4.2088   -2.8324    0.7048 H   0  0  0  0  0  0  0  0  0  0  0  0
   -1.7588   -6.5564   -0.9244 H   0  0  0  0  0  0  0  0  0  0  0  0
   -0.1684   -5.7961   -1.3222 H   0  0  0  0  0  0  0  0  0  0  0  0
   -1.5931   -5.5393   -2.3635 H   0  0  0  0  0  0  0  0  0  0  0  0
  1  2  1  0
  1 17  1  0
  1 18  1  0
  1 19  1  0
  2  3  1  0
  2  6  2  0
  3  4  2  0
  3 20  1  0
  4  5  1  0
  4 21  1  0
  5  6  1  0
  6  7  1  0
  7  8  1  0
  7 22  1  0
  7 23  1  0
  8  9  1  0
  8 24  1  0
  9 10  2  0
  9 11  1  0
 11 12  1  0
 11 15  2  0
 12 13  1  0
 13 14  2  0
 13 25  1  0
 14 15  1  0
 15 16  1  0
 16 26  1  0
 16 27  1  0
 16 28  1  0
M  END

