
     RDKit          3D

 49 53  0  0  0  0  0  0  0  0999 V2000
    1.2990   -0.2932    0.9889 C   0  0  0  0  0  0  0  0  0  0  0  0
    2.7808   -0.6582    0.8811 C   0  0  2  0  0  0  0  0  0  0  0  0
    3.3042   -0.2408    1.7616 H   0  0  0  0  0  0  0  0  0  0  0  0
    3.4391   -0.0514   -0.3731 C   0  0  0  0  0  0  0  0  0  0  0  0
    4.9599   -0.2795   -0.4267 C   0  0  0  0  0  0  0  0  0  0  0  0
    5.2919   -1.7032   -0.0733 C   0  0  0  0  0  0  0  0  0  0  0  0
    4.3839   -2.5203    0.5307 C   0  0  0  0  0  0  0  0  0  0  0  0
    4.8823   -3.7700    0.7956 O   0  0  0  0  0  0  0  0  0  0  0  0
    6.1742   -3.7679    0.3528 C   0  0  0  0  0  0  0  0  0  0  0  0
    7.0504   -4.8201    0.4308 C   0  0  0  0  0  0  0  0  0  0  0  0
    8.3596   -4.6310   -0.0868 C   0  0  0  0  0  0  0  0  0  0  0  0
    9.3232   -5.6810   -0.0493 C   0  0  0  0  0  0  0  0  0  0  0  0
   10.5876   -5.5091   -0.5664 C   0  0  0  0  0  0  0  0  0  0  0  0
   10.9499   -4.2697   -1.1549 C   0  0  0  0  0  0  0  0  0  0  0  0
   10.0485   -3.2293   -1.2055 C   0  0  0  0  0  0  0  0  0  0  0  0
    8.7320   -3.3631   -0.6721 C   0  0  0  0  0  0  0  0  0  0  0  0
    7.7839   -2.2917   -0.7158 C   0  0  0  0  0  0  0  0  0  0  0  0
    8.1643   -1.0515   -1.3155 N   0  0  0  0  0  0  0  0  0  0  0  0
    8.5100    0.3359   -0.3937 S   0  0  1  0  0  0  0  0  0  0  0  0
    8.0669    1.4488   -1.2406 O   0  0  0  0  0  0  0  0  0  0  0  0
    8.0138    0.1521    0.9727 O   0  0  0  0  0  0  0  0  0  0  0  0
   10.3013    0.3893   -0.3021 C   0  0  0  0  0  0  0  0  0  0  0  0
   11.0167    0.9530   -1.3634 C   0  0  0  0  0  0  0  0  0  0  0  0
   12.4105    0.9929   -1.2901 C   0  0  0  0  0  0  0  0  0  0  0  0
   13.0703    0.4803   -0.1667 C   0  0  0  0  0  0  0  0  0  0  0  0
   12.3391   -0.0688    0.8913 C   0  0  0  0  0  0  0  0  0  0  0  0
   10.9434   -0.1153    0.8314 C   0  0  0  0  0  0  0  0  0  0  0  0
    6.5012   -2.4940   -0.2056 C   0  0  0  0  0  0  0  0  0  0  0  0
    2.9856   -2.1890    0.9142 C   0  0  0  0  0  0  0  0  0  0  0  0
    0.7361   -0.6570    0.1122 H   0  0  0  0  0  0  0  0  0  0  0  0
    1.1598    0.7981    1.0452 H   0  0  0  0  0  0  0  0  0  0  0  0
    0.8392   -0.7368    1.8872 H   0  0  0  0  0  0  0  0  0  0  0  0
    3.2283    1.0296   -0.4142 H   0  0  0  0  0  0  0  0  0  0  0  0
    2.9665   -0.4958   -1.2690 H   0  0  0  0  0  0  0  0  0  0  0  0
    5.4789    0.3988    0.2718 H   0  0  0  0  0  0  0  0  0  0  0  0
    5.3410   -0.0155   -1.4262 H   0  0  0  0  0  0  0  0  0  0  0  0
    6.7538   -5.7725    0.8740 H   0  0  0  0  0  0  0  0  0  0  0  0
    9.0341   -6.6353    0.3993 H   0  0  0  0  0  0  0  0  0  0  0  0
   11.3119   -6.3267   -0.5295 H   0  0  0  0  0  0  0  0  0  0  0  0
   11.9516   -4.1415   -1.5730 H   0  0  0  0  0  0  0  0  0  0  0  0
   10.3257   -2.2793   -1.6629 H   0  0  0  0  0  0  0  0  0  0  0  0
    7.6409   -0.7525   -2.1368 H   0  0  0  0  0  0  0  0  0  0  0  0
   10.4819    1.3654   -2.2207 H   0  0  0  0  0  0  0  0  0  0  0  0
   12.9838    1.4333   -2.1095 H   0  0  0  0  0  0  0  0  0  0  0  0
   14.1613    0.5159   -0.1137 H   0  0  0  0  0  0  0  0  0  0  0  0
   12.8557   -0.4598    1.7711 H   0  0  0  0  0  0  0  0  0  0  0  0
   10.3513   -0.5271    1.6499 H   0  0  0  0  0  0  0  0  0  0  0  0
    2.7631   -2.5953    1.9159 H   0  0  0  0  0  0  0  0  0  0  0  0
    2.2781   -2.6848    0.2211 H   0  0  0  0  0  0  0  0  0  0  0  0
  1  2  1  0
  1 30  1  0
  1 31  1  0
  1 32  1  0
  2  3  1  1
  2  4  1  0
  2 29  1  0
  4  5  1  0
  4 33  1  0
  4 34  1  0
  5  6  1  0
  5 35  1  0
  5 36  1  0
  6  7  2  0
  6 28  1  0
  7  8  1  0
  7 29  1  0
  8  9  1  0
  9 10  1  0
  9 28  2  0
 10 11  2  0
 10 37  1  0
 11 12  1  0
 11 16  1  0
 12 13  2  0
 12 38  1  0
 13 14  1  0
 13 39  1  0
 14 15  2  0
 14 40  1  0
 15 16  1  0
 15 41  1  0
 16 17  2  0
 17 18  1  0
 17 28  1  0
 19 18  1  6
 18 42  1  0
 19 20  2  0
 19 21  2  0
 19 22  1  0
 22 23  2  0
 22 27  1  0
 23 24  1  0
 23 43  1  0
 24 25  2  0
 24 44  1  0
 25 26  1  0
 25 45  1  0
 26 27  2  0
 26 46  1  0
 27 47  1  0
 29 48  1  0
 29 49  1  0
M  END

