
     RDKit          3D

 85 92  0  0  0  0  0  0  0  0999 V2000
    1.6491   -0.4279    0.1304 C   0  0  0  0  0  0  0  0  0  0  0  0
    2.5616    0.4582   -0.4753 O   0  0  0  0  0  0  0  0  0  0  0  0
    3.3908    0.0228   -1.4586 C   0  0  0  0  0  0  0  0  0  0  0  0
    3.4444   -1.3162   -1.8731 C   0  0  0  0  0  0  0  0  0  0  0  0
    4.3066   -1.6923   -2.9161 C   0  0  0  0  0  0  0  0  0  0  0  0
    5.0803   -0.7032   -3.5625 C   0  0  0  0  0  0  0  0  0  0  0  0
    5.0581    0.6126   -3.1157 C   0  0  0  0  0  0  0  0  0  0  0  0
    4.2259    1.0093   -2.0556 C   0  0  0  0  0  0  0  0  0  0  0  0
    4.2392    2.4261   -1.6044 C   0  0  0  0  0  0  0  0  0  0  0  0
    3.0549    3.1470   -1.3451 C   0  0  0  0  0  0  0  0  0  0  0  0
    3.0963    4.4867   -0.9691 C   0  0  0  0  0  0  0  0  0  0  0  0
    4.3351    5.1171   -0.8413 C   0  0  0  0  0  0  0  0  0  0  0  0
    4.3838    6.5353   -0.4362 N   0  0  0  0  0  0  0  0  0  0  0  0
    3.3219    7.0985   -0.2217 O   0  0  0  0  0  0  0  0  0  0  0  0
    5.4831    7.0582   -0.3409 O   0  0  0  0  0  0  0  0  0  0  0  0
    5.5284    4.4380   -1.0855 C   0  0  0  0  0  0  0  0  0  0  0  0
    5.4710    3.0993   -1.4663 C   0  0  0  0  0  0  0  0  0  0  0  0
    5.7806   -1.2739   -4.7678 C   0  0  0  0  0  0  0  0  0  0  0  0
    5.2926   -2.6972   -4.7770 C   0  0  0  0  0  0  0  0  0  0  0  0
    5.4930   -3.6801   -5.7295 C   0  0  0  0  0  0  0  0  0  0  0  0
    4.9173   -4.9505   -5.5799 C   0  0  0  0  0  0  0  0  0  0  0  0
    4.2066   -5.2733   -4.4380 C   0  0  0  0  0  0  0  0  0  0  0  0
    4.0453   -4.3026   -3.4026 C   0  0  0  0  0  0  0  0  0  0  0  0
    4.5002   -2.9775   -3.6220 C   0  0  0  0  0  0  0  0  0  0  0  0
    3.4320   -5.0031   -2.2538 C   0  0  0  0  0  0  0  0  0  0  0  0
    3.2462   -4.6241   -0.9143 C   0  0  0  0  0  0  0  0  0  0  0  0
    2.6997   -5.5356    0.0008 C   0  0  0  0  0  0  0  0  0  0  0  0
    2.5419   -5.2512    1.3196 O   0  0  0  0  0  0  0  0  0  0  0  0
    3.1263   -4.0927    1.8703 C   0  0  0  0  0  0  0  0  0  0  0  0
    2.3060   -6.8411   -0.4096 C   0  0  0  0  0  0  0  0  0  0  0  0
    1.7116   -7.8227    0.5348 C   0  0  0  0  0  0  0  0  0  0  0  0
    0.7054   -7.4570    1.4531 C   0  0  0  0  0  0  0  0  0  0  0  0
    0.1251   -8.3986    2.2981 C   0  0  0  0  0  0  0  0  0  0  0  0
    0.5582   -9.7241    2.2342 C   0  0  0  0  0  0  0  0  0  0  0  0
   -0.0498  -10.7249    3.1319 N   0  0  0  0  0  0  0  0  0  0  0  0
   -0.9132  -10.3401    3.9049 O   0  0  0  0  0  0  0  0  0  0  0  0
    0.3477  -11.8763    3.0463 O   0  0  0  0  0  0  0  0  0  0  0  0
    1.5545  -10.1242    1.3442 C   0  0  0  0  0  0  0  0  0  0  0  0
    2.1224   -9.1715    0.5015 C   0  0  0  0  0  0  0  0  0  0  0  0
    2.5448   -7.2101   -1.7439 C   0  0  0  0  0  0  0  0  0  0  0  0
    3.1163   -6.3223   -2.6475 C   0  0  0  0  0  0  0  0  0  0  0  0
    3.5531   -6.5767   -4.0665 C   0  0  0  0  0  0  0  0  0  0  0  0
    5.2728   -5.7644   -6.7781 C   0  0  0  0  0  0  0  0  0  0  0  0
    4.9899   -6.9153   -7.0303 O   0  0  0  0  0  0  0  0  0  0  0  0
    6.0429   -4.9222   -7.5973 N   0  0  0  0  0  0  0  0  0  0  0  0
    6.6238   -5.3461   -8.8660 C   0  0  0  0  0  0  0  0  0  0  0  0
    5.6195   -5.4263  -10.0236 C   0  0  0  0  0  0  0  0  0  0  0  0
    4.9274   -4.1135  -10.4342 C   0  0  1  0  0  0  0  0  0  0  0  0
    5.9171   -3.0446  -10.9175 C   0  0  0  0  0  0  0  0  0  0  0  0
    3.8579   -4.3966  -11.4978 C   0  0  0  0  0  0  0  0  0  0  0  0
    6.2340   -3.6546   -7.0235 C   0  0  0  0  0  0  0  0  0  0  0  0
    6.8793   -2.7511   -7.5104 O   0  0  0  0  0  0  0  0  0  0  0  0
    1.0719    0.1648    0.8522 H   0  0  0  0  0  0  0  0  0  0  0  0
    2.1663   -1.2394    0.6717 H   0  0  0  0  0  0  0  0  0  0  0  0
    0.9572   -0.8754   -0.6050 H   0  0  0  0  0  0  0  0  0  0  0  0
    2.7835   -2.0482   -1.4180 H   0  0  0  0  0  0  0  0  0  0  0  0
    5.6593    1.3695   -3.6251 H   0  0  0  0  0  0  0  0  0  0  0  0
    2.0907    2.6517   -1.4496 H   0  0  0  0  0  0  0  0  0  0  0  0
    2.1871    5.0556   -0.7767 H   0  0  0  0  0  0  0  0  0  0  0  0
    6.4764    4.9621   -0.9677 H   0  0  0  0  0  0  0  0  0  0  0  0
    6.4022    2.5562   -1.6402 H   0  0  0  0  0  0  0  0  0  0  0  0
    6.8822   -1.2363   -4.6918 H   0  0  0  0  0  0  0  0  0  0  0  0
    5.5290   -0.7419   -5.7007 H   0  0  0  0  0  0  0  0  0  0  0  0
    3.5739   -3.6470   -0.5707 H   0  0  0  0  0  0  0  0  0  0  0  0
    2.9547   -4.1419    2.9536 H   0  0  0  0  0  0  0  0  0  0  0  0
    2.6609   -3.1704    1.4806 H   0  0  0  0  0  0  0  0  0  0  0  0
    4.2126   -4.0511    1.6773 H   0  0  0  0  0  0  0  0  0  0  0  0
    0.3700   -6.4214    1.4981 H   0  0  0  0  0  0  0  0  0  0  0  0
   -0.6598   -8.1283    3.0040 H   0  0  0  0  0  0  0  0  0  0  0  0
    1.8729  -11.1662    1.3308 H   0  0  0  0  0  0  0  0  0  0  0  0
    2.9180   -9.4755   -0.1816 H   0  0  0  0  0  0  0  0  0  0  0  0
    2.2736   -8.2169   -2.0704 H   0  0  0  0  0  0  0  0  0  0  0  0
    2.7127   -6.8032   -4.7469 H   0  0  0  0  0  0  0  0  0  0  0  0
    4.2462   -7.4300   -4.1561 H   0  0  0  0  0  0  0  0  0  0  0  0
    7.0685   -6.3410   -8.7090 H   0  0  0  0  0  0  0  0  0  0  0  0
    7.4368   -4.6400   -9.0857 H   0  0  0  0  0  0  0  0  0  0  0  0
    4.8557   -6.1774   -9.7617 H   0  0  0  0  0  0  0  0  0  0  0  0
    6.1625   -5.8347  -10.8959 H   0  0  0  0  0  0  0  0  0  0  0  0
    4.4077   -3.7138   -9.5426 H   0  0  0  0  0  0  0  0  0  0  0  0
    6.5041   -3.4112  -11.7781 H   0  0  0  0  0  0  0  0  0  0  0  0
    6.6164   -2.7410  -10.1241 H   0  0  0  0  0  0  0  0  0  0  0  0
    5.3828   -2.1384  -11.2460 H   0  0  0  0  0  0  0  0  0  0  0  0
    4.3143   -4.7968  -12.4198 H   0  0  0  0  0  0  0  0  0  0  0  0
    3.3121   -3.4789  -11.7701 H   0  0  0  0  0  0  0  0  0  0  0  0
    3.1199   -5.1355  -11.1451 H   0  0  0  0  0  0  0  0  0  0  0  0
  1  2  1  0
  1 53  1  0
  1 54  1  0
  1 55  1  0
  2  3  1  0
  3  4  2  0
  3  8  1  0
  4  5  1  0
  4 56  1  0
  5  6  2  0
  5 24  1  0
  6  7  1  0
  6 18  1  0
  7  8  2  0
  7 57  1  0
  8  9  1  0
  9 10  2  0
  9 17  1  0
 10 11  1  0
 10 58  1  0
 11 12  2  0
 11 59  1  0
 12 13  1  0
 12 16  1  0
 13 14  2  0
 13 15  1  0
 16 17  2  0
 16 60  1  0
 17 61  1  0
 18 19  1  0
 18 62  1  0
 18 63  1  0
 19 20  1  0
 19 24  2  0
 20 21  2  0
 20 51  1  0
 21 22  1  0
 21 43  1  0
 22 23  2  0
 22 42  1  0
 23 24  1  0
 23 25  1  0
 25 26  2  0
 25 41  1  0
 26 27  1  0
 26 64  1  0
 27 28  1  0
 27 30  2  0
 28 29  1  0
 29 65  1  0
 29 66  1  0
 29 67  1  0
 30 31  1  0
 30 40  1  0
 31 32  2  0
 31 39  1  0
 32 33  1  0
 32 68  1  0
 33 34  2  0
 33 69  1  0
 34 35  1  0
 34 38  1  0
 35 36  2  0
 35 37  1  0
 38 39  2  0
 38 70  1  0
 39 71  1  0
 40 41  2  0
 40 72  1  0
 41 42  1  0
 42 73  1  0
 42 74  1  0
 43 44  2  0
 43 45  1  0
 45 46  1  0
 45 51  1  0
 46 47  1  0
 46 75  1  0
 46 76  1  0
 47 48  1  0
 47 77  1  0
 47 78  1  0
 48 49  1  0
 48 50  1  0
 48 79  1  1
 49 80  1  0
 49 81  1  0
 49 82  1  0
 50 83  1  0
 50 84  1  0
 50 85  1  0
 51 52  2  0
M  CHG  4  13   1  15  -1  35   1  37  -1
M  END

