
     RDKit          3D

 42 44  0  0  0  0  0  0  0  0999 V2000
    0.2036   -5.6645   -6.3229 O   0  0  0  0  0  0  0  0  0  0  0  0
   -0.4371   -4.6351   -6.2341 C   0  0  0  0  0  0  0  0  0  0  0  0
   -1.6739   -4.5996   -5.6007 N   0  0  0  0  0  0  0  0  0  0  0  0
   -2.2188   -5.7596   -4.9443 C   0  0  0  0  0  0  0  0  0  0  0  0
   -2.4707   -5.4824   -3.4716 C   0  0  1  0  0  0  0  0  0  0  0  0
   -3.3565   -4.4717   -3.3143 F   0  0  0  0  0  0  0  0  0  0  0  0
   -2.9594   -6.5562   -2.8492 F   0  0  0  0  0  0  0  0  0  0  0  0
   -1.3419   -5.1051   -2.8373 F   0  0  0  0  0  0  0  0  0  0  0  0
    0.0348   -3.3253   -6.7995 C   0  0  0  0  0  0  0  0  0  0  0  0
    0.6495   -3.3796   -8.0601 C   0  0  0  0  0  0  0  0  0  0  0  0
    1.1200   -2.2282   -8.6849 C   0  0  0  0  0  0  0  0  0  0  0  0
    0.9985   -1.0016   -8.0252 C   0  0  0  0  0  0  0  0  0  0  0  0
    0.4313   -0.9212   -6.7541 C   0  0  0  0  0  0  0  0  0  0  0  0
   -0.0503   -2.0807   -6.1176 C   0  0  0  0  0  0  0  0  0  0  0  0
   -0.5699   -2.0403   -4.8068 N   0  0  0  0  0  0  0  0  0  0  0  0
   -0.7794   -0.9531   -3.9820 C   0  0  0  0  0  0  0  0  0  0  0  0
   -0.5934    0.2041   -4.2852 O   0  0  0  0  0  0  0  0  0  0  0  0
   -1.2933   -1.3632   -2.5782 C   0  0  1  0  0  0  0  0  0  0  0  0
   -2.1087   -2.0966   -2.6955 H   0  0  0  0  0  0  0  0  0  0  0  0
   -0.1876   -1.9822   -1.7121 C   0  0  0  0  0  0  0  0  0  0  0  0
    0.8346   -1.0377   -1.4773 O   0  0  0  0  0  0  0  0  0  0  0  0
    0.3729    0.1804   -1.0452 C   0  0  0  0  0  0  0  0  0  0  0  0
    1.2494    1.0449   -0.3856 C   0  0  0  0  0  0  0  0  0  0  0  0
    0.8010    2.2891    0.0622 C   0  0  0  0  0  0  0  0  0  0  0  0
   -0.5312    2.6670   -0.1426 C   0  0  0  0  0  0  0  0  0  0  0  0
   -1.4083    1.8089   -0.8084 C   0  0  0  0  0  0  0  0  0  0  0  0
   -0.9603    0.5691   -1.2700 C   0  0  0  0  0  0  0  0  0  0  0  0
   -1.8488   -0.2489   -1.9220 O   0  0  0  0  0  0  0  0  0  0  0  0
   -2.2884   -3.8130   -5.7814 H   0  0  0  0  0  0  0  0  0  0  0  0
   -1.4860   -6.5738   -5.0346 H   0  0  0  0  0  0  0  0  0  0  0  0
   -3.1700   -6.0944   -5.3904 H   0  0  0  0  0  0  0  0  0  0  0  0
    0.7421   -4.3552   -8.5418 H   0  0  0  0  0  0  0  0  0  0  0  0
    1.5805   -2.2865   -9.6734 H   0  0  0  0  0  0  0  0  0  0  0  0
    1.3624   -0.0862   -8.4987 H   0  0  0  0  0  0  0  0  0  0  0  0
    0.3599    0.0297   -6.2318 H   0  0  0  0  0  0  0  0  0  0  0  0
   -0.8005   -2.9450   -4.4104 H   0  0  0  0  0  0  0  0  0  0  0  0
    0.2753   -2.8517   -2.1987 H   0  0  0  0  0  0  0  0  0  0  0  0
   -0.6375   -2.3160   -0.7582 H   0  0  0  0  0  0  0  0  0  0  0  0
    2.2796    0.7159   -0.2335 H   0  0  0  0  0  0  0  0  0  0  0  0
    1.4921    2.9607    0.5767 H   0  0  0  0  0  0  0  0  0  0  0  0
   -0.8891    3.6366    0.2110 H   0  0  0  0  0  0  0  0  0  0  0  0
   -2.4483    2.0830   -0.9966 H   0  0  0  0  0  0  0  0  0  0  0  0
  1  2  2  0
  2  3  1  0
  2  9  1  0
  3  4  1  0
  3 29  1  0
  4  5  1  0
  4 30  1  0
  4 31  1  0
  5  6  1  6
  5  7  1  0
  5  8  1  0
  9 10  2  0
  9 14  1  0
 10 11  1  0
 10 32  1  0
 11 12  2  0
 11 33  1  0
 12 13  1  0
 12 34  1  0
 13 14  2  0
 13 35  1  0
 14 15  1  0
 15 16  1  0
 15 36  1  0
 16 17  2  0
 16 18  1  0
 18 19  1  6
 18 20  1  0
 18 28  1  0
 20 21  1  0
 20 37  1  0
 20 38  1  0
 21 22  1  0
 22 23  2  0
 22 27  1  0
 23 24  1  0
 23 39  1  0
 24 25  2  0
 24 40  1  0
 25 26  1  0
 25 41  1  0
 26 27  2  0
 26 42  1  0
 27 28  1  0
M  END

