
     RDKit          3D

 56 58  0  0  0  0  0  0  0  0999 V2000
    0.9466   -3.4280    0.8871 C   0  0  0  0  0  0  0  0  0  0  0  0
    2.3709   -3.0941    0.5301 C   0  0  0  0  0  0  0  0  0  0  0  0
    2.8293   -1.7870    0.3167 C   0  0  0  0  0  0  0  0  0  0  0  0
    4.1537   -1.4889   -0.0135 C   0  0  0  0  0  0  0  0  0  0  0  0
    5.0867   -2.5326   -0.1446 C   0  0  0  0  0  0  0  0  0  0  0  0
    6.4367   -2.3370   -0.4788 N   0  0  0  0  0  0  0  0  0  0  0  0
    7.1010   -1.1417   -0.7124 C   0  0  0  0  0  0  0  0  0  0  0  0
    6.5959   -0.0338   -0.6412 O   0  0  0  0  0  0  0  0  0  0  0  0
    8.4344   -1.3141   -1.0264 N   0  0  0  0  0  0  0  0  0  0  0  0
    9.2550   -0.2583   -1.6123 C   0  0  0  0  0  0  0  0  0  0  0  0
   10.2258   -1.3532   -2.1454 C   0  0  2  0  0  0  0  0  0  0  0  0
   10.6957   -1.2728   -3.5182 N   0  0  0  0  0  0  0  0  0  0  0  0
   10.9062    0.0748   -4.0614 C   0  0  0  0  0  0  0  0  0  0  0  0
   12.2158    0.8382   -3.7333 C   0  0  1  0  0  0  0  0  0  0  0  0
   12.2727    2.1153   -4.5833 C   0  0  0  0  0  0  0  0  0  0  0  0
   12.3891    1.1709   -2.2461 C   0  0  0  0  0  0  0  0  0  0  0  0
   11.7526   -2.2528   -3.8437 C   0  0  1  0  0  0  0  0  0  0  0  0
   11.3234   -3.7146   -3.5792 C   0  0  0  0  0  0  0  0  0  0  0  0
   10.2955   -4.2126   -4.5988 C   0  0  0  0  0  0  0  0  0  0  0  0
   10.7745   -4.0973   -5.9227 O   0  0  0  0  0  0  0  0  0  0  0  0
   11.1146   -2.7667   -6.2597 C   0  0  0  0  0  0  0  0  0  0  0  0
   12.1889   -2.2083   -5.3253 C   0  0  0  0  0  0  0  0  0  0  0  0
    9.1029   -2.3815   -1.7744 C   0  0  0  0  0  0  0  0  0  0  0  0
    4.6558   -3.8562    0.0634 C   0  0  0  0  0  0  0  0  0  0  0  0
    3.3299   -4.1034    0.3915 C   0  0  0  0  0  0  0  0  0  0  0  0
    2.9503   -5.3816    0.5847 F   0  0  0  0  0  0  0  0  0  0  0  0
    0.3383   -2.5155    0.9666 H   0  0  0  0  0  0  0  0  0  0  0  0
    0.8855   -3.9648    1.8483 H   0  0  0  0  0  0  0  0  0  0  0  0
    0.4826   -4.0828    0.1306 H   0  0  0  0  0  0  0  0  0  0  0  0
    2.1181   -0.9618    0.4152 H   0  0  0  0  0  0  0  0  0  0  0  0
    4.4778   -0.4628   -0.1668 H   0  0  0  0  0  0  0  0  0  0  0  0
    7.0025   -3.1767   -0.4889 H   0  0  0  0  0  0  0  0  0  0  0  0
    9.6698    0.4655   -0.8945 H   0  0  0  0  0  0  0  0  0  0  0  0
    8.7083    0.2930   -2.3944 H   0  0  0  0  0  0  0  0  0  0  0  0
   11.0623   -1.4807   -1.4274 H   0  0  0  0  0  0  0  0  0  0  0  0
   10.0579    0.7042   -3.7551 H   0  0  0  0  0  0  0  0  0  0  0  0
   10.8210    0.0139   -5.1583 H   0  0  0  0  0  0  0  0  0  0  0  0
   13.0694    0.2046   -4.0330 H   0  0  0  0  0  0  0  0  0  0  0  0
   11.4341    2.7908   -4.3401 H   0  0  0  0  0  0  0  0  0  0  0  0
   12.2151    1.8916   -5.6612 H   0  0  0  0  0  0  0  0  0  0  0  0
   13.2068    2.6720   -4.4071 H   0  0  0  0  0  0  0  0  0  0  0  0
   11.5620    1.8015   -1.8779 H   0  0  0  0  0  0  0  0  0  0  0  0
   13.3246    1.7294   -2.0792 H   0  0  0  0  0  0  0  0  0  0  0  0
   12.4328    0.2695   -1.6169 H   0  0  0  0  0  0  0  0  0  0  0  0
   12.6493   -2.0548   -3.2142 H   0  0  0  0  0  0  0  0  0  0  0  0
   10.9530   -3.8604   -2.5549 H   0  0  0  0  0  0  0  0  0  0  0  0
   12.2262   -4.3419   -3.6661 H   0  0  0  0  0  0  0  0  0  0  0  0
    9.3460   -3.6512   -4.4910 H   0  0  0  0  0  0  0  0  0  0  0  0
   10.0753   -5.2794   -4.4370 H   0  0  0  0  0  0  0  0  0  0  0  0
   10.2119   -2.1224   -6.2337 H   0  0  0  0  0  0  0  0  0  0  0  0
   11.4793   -2.7911   -7.2982 H   0  0  0  0  0  0  0  0  0  0  0  0
   12.4863   -1.2013   -5.6494 H   0  0  0  0  0  0  0  0  0  0  0  0
   13.0878   -2.8397   -5.4193 H   0  0  0  0  0  0  0  0  0  0  0  0
    9.4107   -3.2519   -1.1695 H   0  0  0  0  0  0  0  0  0  0  0  0
    8.5285   -2.7229   -2.6532 H   0  0  0  0  0  0  0  0  0  0  0  0
    5.3395   -4.7038   -0.0269 H   0  0  0  0  0  0  0  0  0  0  0  0
  1  2  1  0
  1 27  1  0
  1 28  1  0
  1 29  1  0
  2  3  2  0
  2 25  1  0
  3  4  1  0
  3 30  1  0
  4  5  2  0
  4 31  1  0
  5  6  1  0
  5 24  1  0
  6  7  1  0
  6 32  1  0
  7  8  2  0
  7  9  1  0
  9 10  1  0
  9 23  1  0
 10 11  1  0
 10 33  1  0
 10 34  1  0
 11 12  1  0
 11 23  1  0
 11 35  1  1
 12 13  1  0
 12 17  1  0
 13 14  1  0
 13 36  1  0
 13 37  1  0
 14 15  1  0
 14 16  1  0
 14 38  1  6
 15 39  1  0
 15 40  1  0
 15 41  1  0
 16 42  1  0
 16 43  1  0
 16 44  1  0
 17 18  1  0
 17 22  1  0
 17 45  1  1
 18 19  1  0
 18 46  1  0
 18 47  1  0
 19 20  1  0
 19 48  1  0
 19 49  1  0
 20 21  1  0
 21 22  1  0
 21 50  1  0
 21 51  1  0
 22 52  1  0
 22 53  1  0
 23 54  1  0
 23 55  1  0
 24 25  2  0
 24 56  1  0
 25 26  1  0
M  END

