
     RDKit          3D

 35 36  0  0  0  0  0  0  0  0999 V2000
    0.4860    0.8224   -0.9468 C   0  0  0  0  0  0  0  0  0  0  0  0
    1.6773    0.4923   -0.2738 O   0  0  0  0  0  0  0  0  0  0  0  0
    2.7511    1.3814   -0.4646 C   0  0  1  0  0  0  0  0  0  0  0  0
    2.4837    2.7295    0.1744 C   0  0  0  0  0  0  0  0  0  0  0  0
    1.8560    2.8626    1.3163 N   0  0  0  0  0  0  0  0  0  0  0  0
    1.8386    4.2394    1.5180 O   0  0  0  0  0  0  0  0  0  0  0  0
    2.4610    4.7979    0.4747 C   0  0  0  0  0  0  0  0  0  0  0  0
    2.5576    6.2800    0.4055 C   0  0  1  0  0  0  0  0  0  0  0  0
    3.8873    6.8434   -0.1261 C   0  0  0  0  0  0  0  0  0  0  0  0
    3.5143    8.2401   -0.6611 C   0  0  0  0  0  0  0  0  0  0  0  0
    2.1423    8.0380   -1.3170 C   0  0  0  0  0  0  0  0  0  0  0  0
    1.4810    6.9048   -0.5355 C   0  0  0  0  0  0  0  0  0  0  0  0
    0.3407    6.5381   -0.6180 O   0  0  0  0  0  0  0  0  0  0  0  0
    2.8817    3.9208   -0.3890 N   0  0  0  0  0  0  0  0  0  0  0  0
    4.0236    0.7027    0.0942 C   0  0  1  0  0  0  0  0  0  0  0  0
    4.2453   -0.6544   -0.5828 C   0  0  0  0  0  0  0  0  0  0  0  0
    5.2644    1.5938   -0.0335 C   0  0  0  0  0  0  0  0  0  0  0  0
   -0.2270    0.0053   -0.7656 H   0  0  0  0  0  0  0  0  0  0  0  0
    0.6458    0.9180   -2.0395 H   0  0  0  0  0  0  0  0  0  0  0  0
    0.0397    1.7630   -0.5745 H   0  0  0  0  0  0  0  0  0  0  0  0
    2.9032    1.5834   -1.5460 H   0  0  0  0  0  0  0  0  0  0  0  0
    2.3335    6.6828    1.4092 H   0  0  0  0  0  0  0  0  0  0  0  0
    4.2421    6.1974   -0.9454 H   0  0  0  0  0  0  0  0  0  0  0  0
    4.6746    6.8700    0.6413 H   0  0  0  0  0  0  0  0  0  0  0  0
    4.2701    8.6406   -1.3521 H   0  0  0  0  0  0  0  0  0  0  0  0
    3.4303    8.9524    0.1773 H   0  0  0  0  0  0  0  0  0  0  0  0
    2.2428    7.6801   -2.3579 H   0  0  0  0  0  0  0  0  0  0  0  0
    1.4893    8.9229   -1.3467 H   0  0  0  0  0  0  0  0  0  0  0  0
    3.8202    0.5299    1.1662 H   0  0  0  0  0  0  0  0  0  0  0  0
    4.4495   -0.5279   -1.6604 H   0  0  0  0  0  0  0  0  0  0  0  0
    3.3622   -1.2981   -0.4763 H   0  0  0  0  0  0  0  0  0  0  0  0
    5.1109   -1.1713   -0.1384 H   0  0  0  0  0  0  0  0  0  0  0  0
    5.4763    1.8351   -1.0890 H   0  0  0  0  0  0  0  0  0  0  0  0
    6.1467    1.0742    0.3721 H   0  0  0  0  0  0  0  0  0  0  0  0
    5.1600    2.5453    0.5087 H   0  0  0  0  0  0  0  0  0  0  0  0
  1  2  1  0
  1 18  1  0
  1 19  1  0
  1 20  1  0
  2  3  1  0
  3  4  1  0
  3 15  1  0
  3 21  1  6
  4  5  2  0
  4 14  1  0
  5  6  1  0
  6  7  1  0
  7  8  1  0
  7 14  2  0
  8  9  1  0
  8 12  1  0
  8 22  1  1
  9 10  1  0
  9 23  1  0
  9 24  1  0
 10 11  1  0
 10 25  1  0
 10 26  1  0
 11 12  1  0
 11 27  1  0
 11 28  1  0
 12 13  2  0
 15 16  1  0
 15 17  1  0
 15 29  1  1
 16 30  1  0
 16 31  1  0
 16 32  1  0
 17 33  1  0
 17 34  1  0
 17 35  1  0
M  END

