
     RDKit          3D

157171  0  0  0  0  0  0  0  0999 V2000
    1.4920    0.8541   -0.7247 C   0  0  0  0  0  0  0  0  0  0  0  0
    0.2847    0.7231   -0.8504 C   0  0  0  0  0  0  0  0  0  0  0  0
   -1.1247    0.5700   -0.9964 C   0  0  0  0  0  0  0  0  0  0  0  0
   -1.6710   -0.1610   -2.0750 C   0  0  0  0  0  0  0  0  0  0  0  0
   -3.0461   -0.3051   -2.2210 C   0  0  0  0  0  0  0  0  0  0  0  0
   -3.9322    0.2649   -1.2864 C   0  0  0  0  0  0  0  0  0  0  0  0
   -5.3342    0.1129   -1.4308 N   0  0  0  0  0  0  0  0  0  0  0  0
   -5.8753   -1.1338   -1.8339 C   0  0  0  0  0  0  0  0  0  0  0  0
   -5.3613   -2.3411   -1.3222 C   0  0  0  0  0  0  0  0  0  0  0  0
   -5.8886   -3.5635   -1.7224 C   0  0  0  0  0  0  0  0  0  0  0  0
   -6.9605   -3.6301   -2.6405 C   0  0  0  0  0  0  0  0  0  0  0  0
   -7.5060   -4.8832   -3.0449 C   0  0  0  0  0  0  0  0  0  0  0  0
   -7.9740   -5.9563   -3.3909 C   0  0  0  0  0  0  0  0  0  0  0  0
   -8.5215   -7.2095   -3.7947 C   0  0  0  0  0  0  0  0  0  0  0  0
   -7.9990   -8.4243   -3.2990 C   0  0  0  0  0  0  0  0  0  0  0  0
   -8.5391   -9.6445   -3.6931 C   0  0  0  0  0  0  0  0  0  0  0  0
   -9.6152   -9.7098   -4.5992 C   0  0  0  0  0  0  0  0  0  0  0  0
  -10.1868  -11.0154   -5.0187 C   0  0  0  0  0  0  0  0  0  0  0  0
  -10.2822  -12.0910   -4.1235 C   0  0  0  0  0  0  0  0  0  0  0  0
  -10.8437  -13.3070   -4.5495 C   0  0  0  0  0  0  0  0  0  0  0  0
  -10.9838  -14.4725   -3.6284 C   0  0  0  0  0  0  0  0  0  0  0  0
  -10.9779  -14.3244   -2.2293 C   0  0  0  0  0  0  0  0  0  0  0  0
  -11.1070  -15.4339   -1.3911 C   0  0  0  0  0  0  0  0  0  0  0  0
  -11.2431  -16.7145   -1.9347 C   0  0  0  0  0  0  0  0  0  0  0  0
  -11.2561  -16.8747   -3.3243 C   0  0  0  0  0  0  0  0  0  0  0  0
  -11.1325  -15.7660   -4.1619 C   0  0  0  0  0  0  0  0  0  0  0  0
  -11.2659  -13.4773   -5.8093 N   0  0  0  0  0  0  0  0  0  0  0  0
  -11.1737  -12.4743   -6.6923 C   0  0  0  0  0  0  0  0  0  0  0  0
  -11.6637  -12.7464   -8.0752 C   0  0  0  0  0  0  0  0  0  0  0  0
  -12.5524  -13.8140   -8.3000 C   0  0  0  0  0  0  0  0  0  0  0  0
  -13.0337  -14.0855   -9.5809 C   0  0  0  0  0  0  0  0  0  0  0  0
  -12.6305  -13.3019  -10.6673 C   0  0  0  0  0  0  0  0  0  0  0  0
  -11.7395  -12.2450  -10.4600 C   0  0  0  0  0  0  0  0  0  0  0  0
  -11.2616  -11.9696   -9.1770 C   0  0  0  0  0  0  0  0  0  0  0  0
  -10.6529  -11.2213   -6.3256 C   0  0  0  0  0  0  0  0  0  0  0  0
  -10.1320   -8.4969   -5.0942 C   0  0  0  0  0  0  0  0  0  0  0  0
   -9.6024   -7.2718   -4.7014 C   0  0  0  0  0  0  0  0  0  0  0  0
   -7.4747   -2.4145   -3.1446 C   0  0  0  0  0  0  0  0  0  0  0  0
   -6.9393   -1.1922   -2.7549 C   0  0  0  0  0  0  0  0  0  0  0  0
   -6.1958    1.2085   -1.1709 C   0  0  0  0  0  0  0  0  0  0  0  0
   -5.8606    2.5059   -1.6040 C   0  0  0  0  0  0  0  0  0  0  0  0
   -6.7024    3.5811   -1.3433 C   0  0  0  0  0  0  0  0  0  0  0  0
   -7.9205    3.4022   -0.6502 C   0  0  0  0  0  0  0  0  0  0  0  0
   -8.7865    4.5036   -0.3886 C   0  0  0  0  0  0  0  0  0  0  0  0
   -9.5284    5.4468   -0.1643 C   0  0  0  0  0  0  0  0  0  0  0  0
  -10.3951    6.5482    0.0983 C   0  0  0  0  0  0  0  0  0  0  0  0
  -10.0680    7.8507   -0.3388 C   0  0  0  0  0  0  0  0  0  0  0  0
  -10.9183    8.9217   -0.0824 C   0  0  0  0  0  0  0  0  0  0  0  0
  -12.1243    8.7457    0.6232 C   0  0  0  0  0  0  0  0  0  0  0  0
  -13.0272    9.8932    0.8975 C   0  0  0  0  0  0  0  0  0  0  0  0
  -13.1964   10.9273   -0.0350 C   0  0  0  0  0  0  0  0  0  0  0  0
  -14.0715   11.9894    0.2508 C   0  0  0  0  0  0  0  0  0  0  0  0
  -14.2988   13.1015   -0.7178 C   0  0  0  0  0  0  0  0  0  0  0  0
  -14.0225   12.9652   -2.0905 C   0  0  0  0  0  0  0  0  0  0  0  0
  -14.2416   14.0246   -2.9737 C   0  0  0  0  0  0  0  0  0  0  0  0
  -14.7400   15.2424   -2.5022 C   0  0  0  0  0  0  0  0  0  0  0  0
  -15.0242   15.3889   -1.1404 C   0  0  0  0  0  0  0  0  0  0  0  0
  -14.8105   14.3292   -0.2587 C   0  0  0  0  0  0  0  0  0  0  0  0
  -14.7306   12.0567    1.4149 N   0  0  0  0  0  0  0  0  0  0  0  0
  -14.5778   11.0929    2.3326 C   0  0  0  0  0  0  0  0  0  0  0  0
  -15.3449   11.2443    3.6034 C   0  0  0  0  0  0  0  0  0  0  0  0
  -16.4679   12.0913    3.6407 C   0  0  0  0  0  0  0  0  0  0  0  0
  -17.2089   12.2445    4.8127 C   0  0  0  0  0  0  0  0  0  0  0  0
  -16.8387   11.5618    5.9762 C   0  0  0  0  0  0  0  0  0  0  0  0
  -15.7187   10.7256    5.9562 C   0  0  0  0  0  0  0  0  0  0  0  0
  -14.9798   10.5679    4.7817 C   0  0  0  0  0  0  0  0  0  0  0  0
  -13.7445    9.9853    2.0994 C   0  0  0  0  0  0  0  0  0  0  0  0
  -12.4463    7.4463    1.0604 C   0  0  0  0  0  0  0  0  0  0  0  0
  -11.6054    6.3682    0.8034 C   0  0  0  0  0  0  0  0  0  0  0  0
   -8.2528    2.0966   -0.2246 C   0  0  0  0  0  0  0  0  0  0  0  0
   -7.4054    1.0231   -0.4739 C   0  0  0  0  0  0  0  0  0  0  0  0
   -3.3950    0.9897   -0.2050 C   0  0  0  0  0  0  0  0  0  0  0  0
   -2.0203    1.1445   -0.0669 C   0  0  0  0  0  0  0  0  0  0  0  0
    2.9019    1.0078   -0.5774 C   0  0  0  0  0  0  0  0  0  0  0  0
    3.4437    1.7460    0.4978 C   0  0  0  0  0  0  0  0  0  0  0  0
    4.8201    1.8909    0.6394 C   0  0  0  0  0  0  0  0  0  0  0  0
    5.7151    1.3147   -0.2827 C   0  0  0  0  0  0  0  0  0  0  0  0
    7.1841    1.4749   -0.1288 C   0  0  0  0  0  0  0  0  0  0  0  0
    7.7870    1.4919    1.1376 C   0  0  0  0  0  0  0  0  0  0  0  0
    9.1816    1.6292    1.2456 C   0  0  0  0  0  0  0  0  0  0  0  0
    9.8697    1.6332    2.5697 C   0  0  0  0  0  0  0  0  0  0  0  0
    9.2757    1.0871    3.7221 C   0  0  0  0  0  0  0  0  0  0  0  0
    9.9417    1.1079    4.9495 C   0  0  0  0  0  0  0  0  0  0  0  0
   11.2147    1.6767    5.0499 C   0  0  0  0  0  0  0  0  0  0  0  0
   11.8187    2.2179    3.9101 C   0  0  0  0  0  0  0  0  0  0  0  0
   11.1559    2.1924    2.6828 C   0  0  0  0  0  0  0  0  0  0  0  0
    9.9544    1.7771    0.1616 N   0  0  0  0  0  0  0  0  0  0  0  0
    9.4068    1.7809   -1.0609 C   0  0  0  0  0  0  0  0  0  0  0  0
   10.3363    1.9532   -2.2153 C   0  0  0  0  0  0  0  0  0  0  0  0
   11.7075    1.6843   -2.0497 C   0  0  0  0  0  0  0  0  0  0  0  0
   12.5977    1.8278   -3.1142 C   0  0  0  0  0  0  0  0  0  0  0  0
   12.1389    2.2524   -4.3656 C   0  0  0  0  0  0  0  0  0  0  0  0
   10.7810    2.5338   -4.5412 C   0  0  0  0  0  0  0  0  0  0  0  0
    9.8887    2.3850   -3.4772 C   0  0  0  0  0  0  0  0  0  0  0  0
    8.0232    1.6151   -1.2440 C   0  0  0  0  0  0  0  0  0  0  0  0
    5.1719    0.5817   -1.3555 C   0  0  0  0  0  0  0  0  0  0  0  0
    3.7970    0.4264   -1.5021 C   0  0  0  0  0  0  0  0  0  0  0  0
   -0.9990   -0.6061   -2.8115 H   0  0  0  0  0  0  0  0  0  0  0  0
   -3.4452   -0.8625   -3.0702 H   0  0  0  0  0  0  0  0  0  0  0  0
   -4.5427   -2.3143   -0.6008 H   0  0  0  0  0  0  0  0  0  0  0  0
   -5.4806   -4.4894   -1.3120 H   0  0  0  0  0  0  0  0  0  0  0  0
   -7.1572   -8.3982   -2.6043 H   0  0  0  0  0  0  0  0  0  0  0  0
   -8.0994  -10.5680   -3.3100 H   0  0  0  0  0  0  0  0  0  0  0  0
   -9.9325  -11.9763   -3.0980 H   0  0  0  0  0  0  0  0  0  0  0  0
  -10.8968  -13.3316   -1.7819 H   0  0  0  0  0  0  0  0  0  0  0  0
  -11.1084  -15.2952   -0.3069 H   0  0  0  0  0  0  0  0  0  0  0  0
  -11.3425  -17.5830   -1.2784 H   0  0  0  0  0  0  0  0  0  0  0  0
  -11.3628  -17.8722   -3.7587 H   0  0  0  0  0  0  0  0  0  0  0  0
  -11.1441  -15.8806   -5.2464 H   0  0  0  0  0  0  0  0  0  0  0  0
  -12.8590  -14.4208   -7.4472 H   0  0  0  0  0  0  0  0  0  0  0  0
  -13.7297  -14.9147   -9.7331 H   0  0  0  0  0  0  0  0  0  0  0  0
  -13.0057  -13.5163  -11.6713 H   0  0  0  0  0  0  0  0  0  0  0  0
  -11.4075  -11.6341  -11.3034 H   0  0  0  0  0  0  0  0  0  0  0  0
  -10.5480  -11.1540   -9.0435 H   0  0  0  0  0  0  0  0  0  0  0  0
  -10.5984  -10.4137   -7.0549 H   0  0  0  0  0  0  0  0  0  0  0  0
  -10.9825   -8.5123   -5.7793 H   0  0  0  0  0  0  0  0  0  0  0  0
  -10.0269   -6.3435   -5.0889 H   0  0  0  0  0  0  0  0  0  0  0  0
   -8.2968   -2.4410   -3.8627 H   0  0  0  0  0  0  0  0  0  0  0  0
   -7.3440   -0.2669   -3.1685 H   0  0  0  0  0  0  0  0  0  0  0  0
   -4.9312    2.6661   -2.1533 H   0  0  0  0  0  0  0  0  0  0  0  0
   -6.4287    4.5795   -1.6904 H   0  0  0  0  0  0  0  0  0  0  0  0
   -9.1323    8.0126   -0.8775 H   0  0  0  0  0  0  0  0  0  0  0  0
  -10.6278    9.9212   -0.4138 H   0  0  0  0  0  0  0  0  0  0  0  0
  -12.6589   10.8972   -0.9823 H   0  0  0  0  0  0  0  0  0  0  0  0
  -13.6551   12.0159   -2.4858 H   0  0  0  0  0  0  0  0  0  0  0  0
  -14.0281   13.8944   -4.0378 H   0  0  0  0  0  0  0  0  0  0  0  0
  -14.9098   16.0720   -3.1934 H   0  0  0  0  0  0  0  0  0  0  0  0
  -15.4150   16.3374   -0.7622 H   0  0  0  0  0  0  0  0  0  0  0  0
  -15.0316   14.4329    0.8043 H   0  0  0  0  0  0  0  0  0  0  0  0
  -16.7472   12.6213    2.7293 H   0  0  0  0  0  0  0  0  0  0  0  0
  -18.0829   12.9012    4.8186 H   0  0  0  0  0  0  0  0  0  0  0  0
  -17.4179   11.6838    6.8951 H   0  0  0  0  0  0  0  0  0  0  0  0
  -15.4125   10.1973    6.8628 H   0  0  0  0  0  0  0  0  0  0  0  0
  -14.0950    9.9282    4.7967 H   0  0  0  0  0  0  0  0  0  0  0  0
  -13.6436    9.2047    2.8529 H   0  0  0  0  0  0  0  0  0  0  0  0
  -13.3863    7.2722    1.5887 H   0  0  0  0  0  0  0  0  0  0  0  0
  -11.8811    5.3673    1.1417 H   0  0  0  0  0  0  0  0  0  0  0  0
   -9.1847    1.9353    0.3211 H   0  0  0  0  0  0  0  0  0  0  0  0
   -7.6767    0.0257   -0.1233 H   0  0  0  0  0  0  0  0  0  0  0  0
   -4.0667    1.4308    0.5335 H   0  0  0  0  0  0  0  0  0  0  0  0
   -1.6213    1.7061    0.7801 H   0  0  0  0  0  0  0  0  0  0  0  0
    2.7682    2.2114    1.2184 H   0  0  0  0  0  0  0  0  0  0  0  0
    5.2086    2.4863    1.4686 H   0  0  0  0  0  0  0  0  0  0  0  0
    7.1740    1.3861    2.0321 H   0  0  0  0  0  0  0  0  0  0  0  0
    8.2923    0.6162    3.6633 H   0  0  0  0  0  0  0  0  0  0  0  0
    9.4654    0.6704    5.8307 H   0  0  0  0  0  0  0  0  0  0  0  0
   11.7351    1.6943    6.0109 H   0  0  0  0  0  0  0  0  0  0  0  0
   12.8143    2.6642    3.9785 H   0  0  0  0  0  0  0  0  0  0  0  0
   11.6197    2.6095    1.7881 H   0  0  0  0  0  0  0  0  0  0  0  0
   12.0562    1.3563   -1.0697 H   0  0  0  0  0  0  0  0  0  0  0  0
   13.6580    1.6061   -2.9669 H   0  0  0  0  0  0  0  0  0  0  0  0
   12.8368    2.3674   -5.1990 H   0  0  0  0  0  0  0  0  0  0  0  0
   10.4133    2.8787   -5.5111 H   0  0  0  0  0  0  0  0  0  0  0  0
    8.8368    2.6336   -3.6320 H   0  0  0  0  0  0  0  0  0  0  0  0
    7.5983    1.6076   -2.2473 H   0  0  0  0  0  0  0  0  0  0  0  0
    5.8399    0.1016   -2.0741 H   0  0  0  0  0  0  0  0  0  0  0  0
    3.3986   -0.1561   -2.3352 H   0  0  0  0  0  0  0  0  0  0  0  0
  1  2  3  0
  1 74  1  0
  2  3  1  0
  3  4  2  0
  3 73  1  0
  4  5  1  0
  4 98  1  0
  5  6  2  0
  5 99  1  0
  6  7  1  0
  6 72  1  0
  7  8  1  0
  7 40  1  0
  8  9  2  0
  8 39  1  0
  9 10  1  0
  9100  1  0
 10 11  2  0
 10101  1  0
 11 12  1  0
 11 38  1  0
 12 13  3  0
 13 14  1  0
 14 15  2  0
 14 37  1  0
 15 16  1  0
 15102  1  0
 16 17  2  0
 16103  1  0
 17 18  1  0
 17 36  1  0
 18 19  2  0
 18 35  1  0
 19 20  1  0
 19104  1  0
 20 21  1  0
 20 27  2  0
 21 22  2  0
 21 26  1  0
 22 23  1  0
 22105  1  0
 23 24  2  0
 23106  1  0
 24 25  1  0
 24107  1  0
 25 26  2  0
 25108  1  0
 26109  1  0
 27 28  1  0
 28 29  1  0
 28 35  2  0
 29 30  2  0
 29 34  1  0
 30 31  1  0
 30110  1  0
 31 32  2  0
 31111  1  0
 32 33  1  0
 32112  1  0
 33 34  2  0
 33113  1  0
 34114  1  0
 35115  1  0
 36 37  2  0
 36116  1  0
 37117  1  0
 38 39  2  0
 38118  1  0
 39119  1  0
 40 41  2  0
 40 71  1  0
 41 42  1  0
 41120  1  0
 42 43  2  0
 42121  1  0
 43 44  1  0
 43 70  1  0
 44 45  3  0
 45 46  1  0
 46 47  2  0
 46 69  1  0
 47 48  1  0
 47122  1  0
 48 49  2  0
 48123  1  0
 49 50  1  0
 49 68  1  0
 50 51  2  0
 50 67  1  0
 51 52  1  0
 51124  1  0
 52 53  1  0
 52 59  2  0
 53 54  2  0
 53 58  1  0
 54 55  1  0
 54125  1  0
 55 56  2  0
 55126  1  0
 56 57  1  0
 56127  1  0
 57 58  2  0
 57128  1  0
 58129  1  0
 59 60  1  0
 60 61  1  0
 60 67  2  0
 61 62  2  0
 61 66  1  0
 62 63  1  0
 62130  1  0
 63 64  2  0
 63131  1  0
 64 65  1  0
 64132  1  0
 65 66  2  0
 65133  1  0
 66134  1  0
 67135  1  0
 68 69  2  0
 68136  1  0
 69137  1  0
 70 71  2  0
 70138  1  0
 71139  1  0
 72 73  2  0
 72140  1  0
 73141  1  0
 74 75  2  0
 74 97  1  0
 75 76  1  0
 75142  1  0
 76 77  2  0
 76143  1  0
 77 78  1  0
 77 96  1  0
 78 79  2  0
 78 95  1  0
 79 80  1  0
 79144  1  0
 80 81  1  0
 80 87  2  0
 81 82  2  0
 81 86  1  0
 82 83  1  0
 82145  1  0
 83 84  2  0
 83146  1  0
 84 85  1  0
 84147  1  0
 85 86  2  0
 85148  1  0
 86149  1  0
 87 88  1  0
 88 89  1  0
 88 95  2  0
 89 90  2  0
 89 94  1  0
 90 91  1  0
 90150  1  0
 91 92  2  0
 91151  1  0
 92 93  1  0
 92152  1  0
 93 94  2  0
 93153  1  0
 94154  1  0
 95155  1  0
 96 97  2  0
 96156  1  0
 97157  1  0
M  END

