
     RDKit          3D

 71 75  0  0  0  0  0  0  0  0999 V2000
    1.7870   -1.5097    0.9575 C   0  0  0  0  0  0  0  0  0  0  0  0
    3.0955   -1.2861    0.8130 C   0  0  0  0  0  0  0  0  0  0  0  0
    3.5887   -0.1152    0.2680 O   0  0  0  0  0  0  0  0  0  0  0  0
    5.0327   -0.2331    0.2452 C   0  0  2  0  0  0  0  0  0  0  0  0
    5.6396    1.1842    0.1582 C   0  0  0  0  0  0  0  0  0  0  0  0
    5.8708    1.8146    1.1643 O   0  0  0  0  0  0  0  0  0  0  0  0
    6.0267    1.7135   -1.0962 N   0  0  0  0  0  0  0  0  0  0  0  0
    5.6132    1.2859   -2.4143 C   0  0  0  0  0  0  0  0  0  0  0  0
    6.4289    0.8796   -3.2017 O   0  0  0  0  0  0  0  0  0  0  0  0
    4.1656    1.5405   -2.8548 C   0  0  2  0  0  0  0  0  0  0  0  0
    3.1539    2.1519   -1.8680 C   0  0  0  0  0  0  0  0  0  0  0  0
    1.9688    2.5081   -2.8025 C   0  0  0  0  0  0  0  0  0  0  0  0
    2.4760    2.0974   -4.2211 C   0  0  2  0  0  0  0  0  0  0  0  0
    1.6448    2.6042   -5.3837 C   0  0  0  0  0  0  0  0  0  0  0  0
    2.5579    0.5736   -4.1387 C   0  0  0  0  0  0  0  0  0  0  0  0
    1.8739   -0.2694   -4.6390 O   0  0  0  0  0  0  0  0  0  0  0  0
    3.6042    0.2816   -3.2990 O   0  0  0  0  0  0  0  0  0  0  0  0
    4.0091    2.4385   -4.1522 C   0  0  2  0  0  0  0  0  0  0  0  0
    4.7839    1.9348   -5.3783 C   0  0  0  0  0  0  0  0  0  0  0  0
    4.3368    3.9218   -3.9456 C   0  0  0  0  0  0  0  0  0  0  0  0
    6.9011    2.8647   -1.0919 C   0  0  0  0  0  0  0  0  0  0  0  0
    6.4051    4.0600   -0.5497 C   0  0  0  0  0  0  0  0  0  0  0  0
    7.1527    5.2339   -0.5729 C   0  0  0  0  0  0  0  0  0  0  0  0
    8.4099    5.2265   -1.1838 C   0  0  0  0  0  0  0  0  0  0  0  0
    9.3499    6.6949   -1.2542 Cl  0  0  0  0  0  0  0  0  0  0  0  0
    8.9150    4.0538   -1.7376 C   0  0  0  0  0  0  0  0  0  0  0  0
    8.1885    2.8507   -1.6703 C   0  0  0  0  0  0  0  0  0  0  0  0
    8.9181    1.6682   -2.2664 C   0  0  0  0  0  0  0  0  0  0  0  0
    9.6127    1.8025   -3.2491 O   0  0  0  0  0  0  0  0  0  0  0  0
    8.9441    0.3123   -1.5679 C   0  0  0  0  0  0  0  0  0  0  0  0
    8.3895    0.3221   -0.3031 F   0  0  0  0  0  0  0  0  0  0  0  0
    5.3650   -1.2605   -0.8612 C   0  0  0  0  0  0  0  0  0  0  0  0
    4.8650   -2.5889   -0.2361 C   0  0  0  0  0  0  0  0  0  0  0  0
    4.2951   -2.1527    1.1463 C   0  0  2  0  0  0  0  0  0  0  0  0
    4.0362   -3.2994    2.1071 C   0  0  0  0  0  0  0  0  0  0  0  0
    5.3052   -1.0178    1.5828 C   0  0  1  0  0  0  0  0  0  0  0  0
    6.7544   -1.4790    1.7754 C   0  0  0  0  0  0  0  0  0  0  0  0
    4.8520   -0.2986    2.8640 C   0  0  0  0  0  0  0  0  0  0  0  0
    1.0496   -0.7715    0.6370 H   0  0  0  0  0  0  0  0  0  0  0  0
    1.4340   -2.4420    1.3973 H   0  0  0  0  0  0  0  0  0  0  0  0
    3.5726    3.0382   -1.3731 H   0  0  0  0  0  0  0  0  0  0  0  0
    2.8941    1.4239   -1.0923 H   0  0  0  0  0  0  0  0  0  0  0  0
    1.7322    3.5824   -2.7870 H   0  0  0  0  0  0  0  0  0  0  0  0
    1.0448    1.9709   -2.5420 H   0  0  0  0  0  0  0  0  0  0  0  0
    0.6148    2.2244   -5.3028 H   0  0  0  0  0  0  0  0  0  0  0  0
    2.0426    2.2596   -6.3495 H   0  0  0  0  0  0  0  0  0  0  0  0
    1.6055    3.7046   -5.3933 H   0  0  0  0  0  0  0  0  0  0  0  0
    4.6644    0.8568   -5.5523 H   0  0  0  0  0  0  0  0  0  0  0  0
    5.8595    2.1312   -5.2741 H   0  0  0  0  0  0  0  0  0  0  0  0
    4.4313    2.4682   -6.2751 H   0  0  0  0  0  0  0  0  0  0  0  0
    3.7850    4.3957   -3.1234 H   0  0  0  0  0  0  0  0  0  0  0  0
    4.1074    4.4833   -4.8647 H   0  0  0  0  0  0  0  0  0  0  0  0
    5.4127    4.0553   -3.7495 H   0  0  0  0  0  0  0  0  0  0  0  0
    5.4160    4.0618   -0.0928 H   0  0  0  0  0  0  0  0  0  0  0  0
    6.7604    6.1531   -0.1352 H   0  0  0  0  0  0  0  0  0  0  0  0
    9.8910    4.0488   -2.2233 H   0  0  0  0  0  0  0  0  0  0  0  0
   10.0021    0.0133   -1.4902 H   0  0  0  0  0  0  0  0  0  0  0  0
    8.4107   -0.4155   -2.1983 H   0  0  0  0  0  0  0  0  0  0  0  0
    6.4402   -1.2739   -1.0809 H   0  0  0  0  0  0  0  0  0  0  0  0
    4.8243   -1.0264   -1.7857 H   0  0  0  0  0  0  0  0  0  0  0  0
    5.6825   -3.3129   -0.1021 H   0  0  0  0  0  0  0  0  0  0  0  0
    4.0896   -3.0748   -0.8453 H   0  0  0  0  0  0  0  0  0  0  0  0
    3.3476   -4.0332    1.6582 H   0  0  0  0  0  0  0  0  0  0  0  0
    3.5863   -2.9523    3.0491 H   0  0  0  0  0  0  0  0  0  0  0  0
    4.9715   -3.8301    2.3441 H   0  0  0  0  0  0  0  0  0  0  0  0
    7.1576   -2.0642    0.9389 H   0  0  0  0  0  0  0  0  0  0  0  0
    6.8294   -2.0987    2.6831 H   0  0  0  0  0  0  0  0  0  0  0  0
    7.4119   -0.6085    1.9145 H   0  0  0  0  0  0  0  0  0  0  0  0
    3.8677    0.1764    2.7594 H   0  0  0  0  0  0  0  0  0  0  0  0
    5.5705    0.4792    3.1473 H   0  0  0  0  0  0  0  0  0  0  0  0
    4.7912   -1.0279    3.6880 H   0  0  0  0  0  0  0  0  0  0  0  0
  1  2  2  0
  1 39  1  0
  1 40  1  0
  2  3  1  0
  2 34  1  0
  3  4  1  0
  4  5  1  6
  4 32  1  0
  4 36  1  0
  5  6  2  0
  5  7  1  0
  7  8  1  0
  7 21  1  0
  8  9  2  0
 10  8  1  1
 10 11  1  0
 10 17  1  0
 10 18  1  0
 11 12  1  0
 11 41  1  0
 11 42  1  0
 12 13  1  0
 12 43  1  0
 12 44  1  0
 13 14  1  6
 13 15  1  0
 13 18  1  0
 14 45  1  0
 14 46  1  0
 14 47  1  0
 15 16  2  0
 15 17  1  0
 18 19  1  6
 18 20  1  0
 19 48  1  0
 19 49  1  0
 19 50  1  0
 20 51  1  0
 20 52  1  0
 20 53  1  0
 21 22  2  0
 21 27  1  0
 22 23  1  0
 22 54  1  0
 23 24  2  0
 23 55  1  0
 24 25  1  0
 24 26  1  0
 26 27  2  0
 26 56  1  0
 27 28  1  0
 28 29  2  0
 28 30  1  0
 30 31  1  0
 30 57  1  0
 30 58  1  0
 32 33  1  0
 32 59  1  0
 32 60  1  0
 33 34  1  0
 33 61  1  0
 33 62  1  0
 34 35  1  1
 34 36  1  0
 35 63  1  0
 35 64  1  0
 35 65  1  0
 36 37  1  1
 36 38  1  0
 37 66  1  0
 37 67  1  0
 37 68  1  0
 38 69  1  0
 38 70  1  0
 38 71  1  0
M  END

