
     RDKit          3D

 42 44  0  0  0  0  0  0  0  0999 V2000
    1.2387   -0.9480    1.2926 O   0  0  0  0  0  0  0  0  0  0  0  0
    2.2943   -0.5470    0.8274 C   0  0  0  0  0  0  0  0  0  0  0  0
    2.6827    0.7647    0.8278 N   0  0  0  0  0  0  0  0  0  0  0  0
    2.0138    1.8767    1.3771 C   0  0  0  0  0  0  0  0  0  0  0  0
    0.7700    1.8097    2.0243 C   0  0  0  0  0  0  0  0  0  0  0  0
    0.2007    2.9721    2.5440 C   0  0  0  0  0  0  0  0  0  0  0  0
    0.8042    4.2397    2.4378 C   0  0  0  0  0  0  0  0  0  0  0  0
    0.2024    5.4119    2.9390 N   0  0  0  0  0  0  0  0  0  0  0  0
    0.8665    6.0565    4.0779 C   0  0  0  0  0  0  0  0  0  0  0  0
    0.5710    7.5513    4.1479 C   0  0  0  0  0  0  0  0  0  0  0  0
   -1.2142    7.9003    4.3541 S   0  0  0  0  0  0  0  0  0  0  0  0
   -1.7838    6.8830    2.9442 C   0  0  0  0  0  0  0  0  0  0  0  0
   -1.2547    5.4496    2.9965 C   0  0  0  0  0  0  0  0  0  0  0  0
    2.0470    4.2781    1.7605 C   0  0  0  0  0  0  0  0  0  0  0  0
    2.8666    5.8042    1.4872 Cl  0  0  0  0  0  0  0  0  0  0  0  0
    2.6437    3.1273    1.2544 C   0  0  0  0  0  0  0  0  0  0  0  0
    3.2220   -1.5283    0.1310 C   0  0  0  0  0  0  0  0  0  0  0  0
    2.5819   -2.6550   -0.4098 C   0  0  0  0  0  0  0  0  0  0  0  0
    3.3050   -3.6191   -1.1057 C   0  0  0  0  0  0  0  0  0  0  0  0
    4.6824   -3.4332   -1.2316 C   0  0  0  0  0  0  0  0  0  0  0  0
    5.3193   -2.3995   -0.6828 N   0  0  0  0  0  0  0  0  0  0  0  0
    4.6297   -1.4752   -0.0199 C   0  0  0  0  0  0  0  0  0  0  0  0
    5.6084   -0.1862    0.7776 S   0  0  0  0  0  0  0  0  0  0  0  0
    7.1132   -0.2433   -0.2839 C   0  0  1  0  0  0  0  0  0  0  0  0
    6.8934    0.3575   -1.4682 F   0  0  0  0  0  0  0  0  0  0  0  0
    8.0679    0.4431    0.3723 F   0  0  0  0  0  0  0  0  0  0  0  0
    3.5806    0.9739    0.3991 H   0  0  0  0  0  0  0  0  0  0  0  0
    0.2693    0.8507    2.1276 H   0  0  0  0  0  0  0  0  0  0  0  0
   -0.7534    2.8867    3.0664 H   0  0  0  0  0  0  0  0  0  0  0  0
    1.9510    5.9160    3.9751 H   0  0  0  0  0  0  0  0  0  0  0  0
    0.5561    5.5759    5.0301 H   0  0  0  0  0  0  0  0  0  0  0  0
    0.9440    8.0490    3.2385 H   0  0  0  0  0  0  0  0  0  0  0  0
    1.0722    7.9986    5.0197 H   0  0  0  0  0  0  0  0  0  0  0  0
   -1.4793    7.3616    1.9992 H   0  0  0  0  0  0  0  0  0  0  0  0
   -2.8834    6.8824    2.9926 H   0  0  0  0  0  0  0  0  0  0  0  0
   -1.6457    4.9017    2.1248 H   0  0  0  0  0  0  0  0  0  0  0  0
   -1.6523    4.9558    3.9096 H   0  0  0  0  0  0  0  0  0  0  0  0
    3.6025    3.2171    0.7394 H   0  0  0  0  0  0  0  0  0  0  0  0
    1.5028   -2.7393   -0.2668 H   0  0  0  0  0  0  0  0  0  0  0  0
    2.8155   -4.4913   -1.5430 H   0  0  0  0  0  0  0  0  0  0  0  0
    5.3010   -4.1493   -1.7839 H   0  0  0  0  0  0  0  0  0  0  0  0
    7.4119   -1.2868   -0.4516 H   0  0  0  0  0  0  0  0  0  0  0  0
  1  2  2  0
  2  3  1  0
  2 17  1  0
  3  4  1  0
  3 27  1  0
  4  5  2  0
  4 16  1  0
  5  6  1  0
  5 28  1  0
  6  7  2  0
  6 29  1  0
  7  8  1  0
  7 14  1  0
  8  9  1  0
  8 13  1  0
  9 10  1  0
  9 30  1  0
  9 31  1  0
 10 11  1  0
 10 32  1  0
 10 33  1  0
 11 12  1  0
 12 13  1  0
 12 34  1  0
 12 35  1  0
 13 36  1  0
 13 37  1  0
 14 15  1  0
 14 16  2  0
 16 38  1  0
 17 18  2  0
 17 22  1  0
 18 19  1  0
 18 39  1  0
 19 20  2  0
 19 40  1  0
 20 21  1  0
 20 41  1  0
 21 22  2  0
 22 23  1  0
 23 24  1  0
 24 25  1  0
 24 26  1  0
 24 42  1  6
M  END

