
     RDKit          3D

 42 44  0  0  0  0  0  0  0  0999 V2000
    1.1351    0.0318   -0.3748 C   0  0  0  0  0  0  0  0  0  0  0  0
    2.6427    0.0017   -0.2741 C   0  0  0  0  0  0  0  0  0  0  0  0
    3.3622    1.2228   -0.2146 C   0  0  0  0  0  0  0  0  0  0  0  0
    4.7544    1.2760   -0.1210 C   0  0  0  0  0  0  0  0  0  0  0  0
    5.4076    0.0489   -0.0889 C   0  0  0  0  0  0  0  0  0  0  0  0
    6.7404   -0.2198   -0.0028 O   0  0  0  0  0  0  0  0  0  0  0  0
    6.8238   -1.5980   -0.0099 C   0  0  0  0  0  0  0  0  0  0  0  0
    8.1781   -2.1459    0.0744 C   0  0  0  0  0  0  0  0  0  0  0  0
    9.2799   -1.2773    0.1520 C   0  0  0  0  0  0  0  0  0  0  0  0
   10.5716   -1.7946    0.2322 C   0  0  0  0  0  0  0  0  0  0  0  0
   10.8254   -3.1044    0.2396 N   0  0  0  0  0  0  0  0  0  0  0  0
    9.7980   -3.9481    0.1672 C   0  0  0  0  0  0  0  0  0  0  0  0
    8.4501   -3.5403    0.0825 C   0  0  0  0  0  0  0  0  0  0  0  0
    7.4184   -4.3914    0.0098 O   0  0  0  0  0  0  0  0  0  0  0  0
    7.6199   -5.7993    0.0123 C   0  0  0  0  0  0  0  0  0  0  0  0
    6.2548   -6.4998   -0.0825 C   0  0  1  0  0  0  0  0  0  0  0  0
    5.5499   -6.0865   -1.3876 C   0  0  0  0  0  0  0  0  0  0  0  0
    6.5140   -8.0168   -0.0780 C   0  0  0  0  0  0  0  0  0  0  0  0
    5.3858   -6.1073    1.1265 C   0  0  0  0  0  0  0  0  0  0  0  0
    5.6737   -2.1996   -0.0918 N   0  0  0  0  0  0  0  0  0  0  0  0
    4.7349   -1.1815   -0.1454 C   0  0  0  0  0  0  0  0  0  0  0  0
    3.3361   -1.2129   -0.2392 C   0  0  0  0  0  0  0  0  0  0  0  0
    0.6855    0.5520    0.4876 H   0  0  0  0  0  0  0  0  0  0  0  0
    0.7129   -0.9829   -0.4115 H   0  0  0  0  0  0  0  0  0  0  0  0
    0.8040    0.5664   -1.2809 H   0  0  0  0  0  0  0  0  0  0  0  0
    2.8017    2.1615   -0.2433 H   0  0  0  0  0  0  0  0  0  0  0  0
    5.2960    2.2222   -0.0761 H   0  0  0  0  0  0  0  0  0  0  0  0
    9.1156   -0.1996    0.1488 H   0  0  0  0  0  0  0  0  0  0  0  0
   11.4336   -1.1213    0.2927 H   0  0  0  0  0  0  0  0  0  0  0  0
   10.0443   -5.0134    0.1757 H   0  0  0  0  0  0  0  0  0  0  0  0
    8.1405   -6.1006    0.9406 H   0  0  0  0  0  0  0  0  0  0  0  0
    8.2574   -6.0870   -0.8445 H   0  0  0  0  0  0  0  0  0  0  0  0
    6.1506   -6.3625   -2.2707 H   0  0  0  0  0  0  0  0  0  0  0  0
    5.3807   -5.0001   -1.4113 H   0  0  0  0  0  0  0  0  0  0  0  0
    4.5746   -6.5921   -1.4758 H   0  0  0  0  0  0  0  0  0  0  0  0
    7.1379   -8.3251   -0.9337 H   0  0  0  0  0  0  0  0  0  0  0  0
    5.5633   -8.5692   -0.1443 H   0  0  0  0  0  0  0  0  0  0  0  0
    7.0222   -8.3396    0.8460 H   0  0  0  0  0  0  0  0  0  0  0  0
    5.2133   -5.0213    1.1456 H   0  0  0  0  0  0  0  0  0  0  0  0
    5.8671   -6.3979    2.0756 H   0  0  0  0  0  0  0  0  0  0  0  0
    4.4080   -6.6136    1.0790 H   0  0  0  0  0  0  0  0  0  0  0  0
    2.8100   -2.1687   -0.2832 H   0  0  0  0  0  0  0  0  0  0  0  0
  1  2  1  0
  1 23  1  0
  1 24  1  0
  1 25  1  0
  2  3  2  0
  2 22  1  0
  3  4  1  0
  3 26  1  0
  4  5  2  0
  4 27  1  0
  5  6  1  0
  5 21  1  0
  6  7  1  0
  7  8  1  0
  7 20  2  0
  8  9  2  0
  8 13  1  0
  9 10  1  0
  9 28  1  0
 10 11  2  0
 10 29  1  0
 11 12  1  0
 12 13  2  0
 12 30  1  0
 13 14  1  0
 14 15  1  0
 16 15  1  1
 15 31  1  0
 15 32  1  0
 16 17  1  0
 16 18  1  0
 16 19  1  0
 17 33  1  0
 17 34  1  0
 17 35  1  0
 18 36  1  0
 18 37  1  0
 18 38  1  0
 19 39  1  0
 19 40  1  0
 19 41  1  0
 20 21  1  0
 21 22  2  0
 22 42  1  0
M  END

