
     RDKit          3D

 66 69  0  0  0  0  0  0  0  0999 V2000
    5.5072    1.0687   -1.7667 C   0  0  0  0  0  0  0  0  0  0  0  0
    4.2779    0.1269   -1.8212 C   0  0  1  0  0  0  0  0  0  0  0  0
    4.1624   -0.3058   -3.3099 C   0  0  0  0  0  0  0  0  0  0  0  0
    4.5406   -1.2135   -1.0761 C   0  0  0  0  0  0  0  0  0  0  0  0
    2.9372    0.8763   -1.3247 C   0  0  2  0  0  0  0  0  0  0  0  0
    1.8239   -0.1388   -0.9988 C   0  0  0  0  0  0  0  0  0  0  0  0
    2.4629    1.7606   -2.5157 C   0  0  0  0  0  0  0  0  0  0  0  0
    1.3288    2.6175   -2.2316 N   0  0  0  0  0  0  0  0  0  0  0  0
    0.7841    3.2355   -3.4279 C   0  0  1  0  0  0  0  0  0  0  0  0
    0.0436    2.2686   -4.3890 C   0  0  0  0  0  0  0  0  0  0  0  0
   -1.2439    2.7694   -3.8890 N   0  0  0  0  0  0  0  0  0  0  0  0
   -2.3397    2.9883   -4.8115 C   0  0  1  0  0  0  0  0  0  0  0  0
   -2.7565    1.6757   -5.4782 C   0  0  0  0  0  0  0  0  0  0  0  0
   -2.8037    0.4764   -4.7502 C   0  0  0  0  0  0  0  0  0  0  0  0
   -3.2212   -0.7097   -5.3591 C   0  0  0  0  0  0  0  0  0  0  0  0
   -3.6004   -0.7166   -6.7054 C   0  0  0  0  0  0  0  0  0  0  0  0
   -3.5530    0.4714   -7.4397 C   0  0  0  0  0  0  0  0  0  0  0  0
   -3.1304    1.6560   -6.8293 C   0  0  0  0  0  0  0  0  0  0  0  0
   -3.5221    3.6503   -4.1009 C   0  0  0  0  0  0  0  0  0  0  0  0
   -4.2924    4.6173   -4.7624 C   0  0  0  0  0  0  0  0  0  0  0  0
   -5.3997    5.2010   -4.1402 C   0  0  0  0  0  0  0  0  0  0  0  0
   -5.7487    4.8292   -2.8390 C   0  0  0  0  0  0  0  0  0  0  0  0
   -4.9818    3.8720   -2.1670 C   0  0  0  0  0  0  0  0  0  0  0  0
   -3.8783    3.2865   -2.7929 C   0  0  0  0  0  0  0  0  0  0  0  0
   -0.5964    3.9164   -3.2370 C   0  0  0  0  0  0  0  0  0  0  0  0
    1.7266    3.5684   -1.2133 C   0  0  0  0  0  0  0  0  0  0  0  0
    2.0640    2.8216    0.0569 C   0  0  0  0  0  0  0  0  0  0  0  0
    3.1192    1.7951   -0.1218 N   0  0  0  0  0  0  0  0  0  0  0  0
    3.5186    1.3600    1.1585 C   0  0  0  0  0  0  0  0  0  0  0  0
    2.9481    1.6804    2.1726 O   0  0  0  0  0  0  0  0  0  0  0  0
    4.6411    0.6156    1.2476 O   0  0  0  0  0  0  0  0  0  0  0  0
    6.4067    0.5308   -2.1044 H   0  0  0  0  0  0  0  0  0  0  0  0
    5.7356    1.5116   -0.7853 H   0  0  0  0  0  0  0  0  0  0  0  0
    5.3690    1.9307   -2.4359 H   0  0  0  0  0  0  0  0  0  0  0  0
    5.0236   -0.9454   -3.5573 H   0  0  0  0  0  0  0  0  0  0  0  0
    4.1791    0.5373   -4.0134 H   0  0  0  0  0  0  0  0  0  0  0  0
    3.2563   -0.9010   -3.5002 H   0  0  0  0  0  0  0  0  0  0  0  0
    5.5502   -1.5769   -1.3270 H   0  0  0  0  0  0  0  0  0  0  0  0
    3.8332   -1.9848   -1.4140 H   0  0  0  0  0  0  0  0  0  0  0  0
    4.4629   -1.1683    0.0147 H   0  0  0  0  0  0  0  0  0  0  0  0
    0.8675    0.3866   -0.8711 H   0  0  0  0  0  0  0  0  0  0  0  0
    2.0404   -0.6989   -0.0781 H   0  0  0  0  0  0  0  0  0  0  0  0
    1.6912   -0.8648   -1.8155 H   0  0  0  0  0  0  0  0  0  0  0  0
    2.1783    1.0849   -3.3284 H   0  0  0  0  0  0  0  0  0  0  0  0
    3.3206    2.3693   -2.8798 H   0  0  0  0  0  0  0  0  0  0  0  0
    1.5372    3.8800   -3.9315 H   0  0  0  0  0  0  0  0  0  0  0  0
    0.2062    1.1881   -4.2445 H   0  0  0  0  0  0  0  0  0  0  0  0
    0.2335    2.5129   -5.4536 H   0  0  0  0  0  0  0  0  0  0  0  0
   -2.0318    3.6795   -5.6311 H   0  0  0  0  0  0  0  0  0  0  0  0
   -2.5014    0.4807   -3.7009 H   0  0  0  0  0  0  0  0  0  0  0  0
   -3.2506   -1.6357   -4.7783 H   0  0  0  0  0  0  0  0  0  0  0  0
   -3.9276   -1.6450   -7.1808 H   0  0  0  0  0  0  0  0  0  0  0  0
   -3.8412    0.4766   -8.4943 H   0  0  0  0  0  0  0  0  0  0  0  0
   -3.0896    2.5801   -7.4133 H   0  0  0  0  0  0  0  0  0  0  0  0
   -4.0216    4.9198   -5.7782 H   0  0  0  0  0  0  0  0  0  0  0  0
   -5.9879    5.9533   -4.6724 H   0  0  0  0  0  0  0  0  0  0  0  0
   -6.6117    5.2868   -2.3484 H   0  0  0  0  0  0  0  0  0  0  0  0
   -5.2438    3.5797   -1.1466 H   0  0  0  0  0  0  0  0  0  0  0  0
   -3.2748    2.5450   -2.2653 H   0  0  0  0  0  0  0  0  0  0  0  0
   -0.9267    4.1079   -2.2036 H   0  0  0  0  0  0  0  0  0  0  0  0
   -0.6782    4.8601   -3.8129 H   0  0  0  0  0  0  0  0  0  0  0  0
    0.9012    4.2617   -0.9923 H   0  0  0  0  0  0  0  0  0  0  0  0
    2.5950    4.1843   -1.5480 H   0  0  0  0  0  0  0  0  0  0  0  0
    1.1452    2.3666    0.4650 H   0  0  0  0  0  0  0  0  0  0  0  0
    2.4206    3.5261    0.8182 H   0  0  0  0  0  0  0  0  0  0  0  0
    5.1228    0.6215    0.4112 H   0  0  0  0  0  0  0  0  0  0  0  0
  2  1  1  6
  1 32  1  0
  1 33  1  0
  1 34  1  0
  2  3  1  0
  2  4  1  0
  2  5  1  0
  3 35  1  0
  3 36  1  0
  3 37  1  0
  4 38  1  0
  4 39  1  0
  4 40  1  0
  5  6  1  1
  5  7  1  0
  5 28  1  0
  6 41  1  0
  6 42  1  0
  6 43  1  0
  7  8  1  0
  7 44  1  0
  7 45  1  0
  8  9  1  0
  8 26  1  0
  9 10  1  0
  9 25  1  0
  9 46  1  6
 10 11  1  0
 10 47  1  0
 10 48  1  0
 11 12  1  0
 11 25  1  0
 12 13  1  0
 12 19  1  0
 12 49  1  6
 13 14  2  0
 13 18  1  0
 14 15  1  0
 14 50  1  0
 15 16  2  0
 15 51  1  0
 16 17  1  0
 16 52  1  0
 17 18  2  0
 17 53  1  0
 18 54  1  0
 19 20  2  0
 19 24  1  0
 20 21  1  0
 20 55  1  0
 21 22  2  0
 21 56  1  0
 22 23  1  0
 22 57  1  0
 23 24  2  0
 23 58  1  0
 24 59  1  0
 25 60  1  0
 25 61  1  0
 26 27  1  0
 26 62  1  0
 26 63  1  0
 27 28  1  0
 27 64  1  0
 27 65  1  0
 28 29  1  0
 29 30  2  0
 29 31  1  0
 31 66  1  0
M  END

