
     RDKit          3D

 29 30  0  0  0  0  0  0  0  0999 V2000
    5.1389   -1.8487   -1.0115 N   0  0  0  0  0  0  0  0  0  0  0  0
    4.3926   -0.9653   -0.2400 C   0  0  0  0  0  0  0  0  0  0  0  0
    4.8566    0.3198    0.0828 C   0  0  0  0  0  0  0  0  0  0  0  0
    4.0878    1.2030    0.8426 C   0  0  0  0  0  0  0  0  0  0  0  0
    2.8287    0.8028    1.2892 C   0  0  0  0  0  0  0  0  0  0  0  0
    1.8520    1.8923    2.2545 Cl  0  0  0  0  0  0  0  0  0  0  0  0
    2.3337   -0.4640    0.9670 C   0  0  0  0  0  0  0  0  0  0  0  0
    3.0992   -1.3538    0.2038 C   0  0  0  0  0  0  0  0  0  0  0  0
    2.6428   -2.6625   -0.1460 N   0  0  0  0  0  0  0  0  0  0  0  0
    2.2006   -2.7769   -1.5461 C   0  0  0  0  0  0  0  0  0  0  0  0
    2.2111   -4.2222   -2.0425 C   0  0  0  0  0  0  0  0  0  0  0  0
    1.1249   -5.2663   -1.0310 S   0  0  2  0  0  0  0  0  0  0  0  0
    1.4096   -6.6797   -1.3038 O   0  0  0  0  0  0  0  0  0  0  0  0
   -0.2402   -4.7268   -1.1487 O   0  0  0  0  0  0  0  0  0  0  0  0
    1.7371   -4.8334    0.6219 C   0  0  0  0  0  0  0  0  0  0  0  0
    1.7538   -3.3163    0.8130 C   0  0  0  0  0  0  0  0  0  0  0  0
    6.1329   -1.6527   -1.0595 H   0  0  0  0  0  0  0  0  0  0  0  0
    4.9359   -2.8243   -0.8054 H   0  0  0  0  0  0  0  0  0  0  0  0
    5.8511    0.6265   -0.2530 H   0  0  0  0  0  0  0  0  0  0  0  0
    4.4688    2.1934    1.0959 H   0  0  0  0  0  0  0  0  0  0  0  0
    1.3381   -0.7462    1.3091 H   0  0  0  0  0  0  0  0  0  0  0  0
    2.8878   -2.1922   -2.1739 H   0  0  0  0  0  0  0  0  0  0  0  0
    1.1832   -2.3582   -1.6793 H   0  0  0  0  0  0  0  0  0  0  0  0
    3.2112   -4.6789   -2.0041 H   0  0  0  0  0  0  0  0  0  0  0  0
    1.8104   -4.3078   -3.0638 H   0  0  0  0  0  0  0  0  0  0  0  0
    2.7365   -5.2820    0.7186 H   0  0  0  0  0  0  0  0  0  0  0  0
    1.0413   -5.3287    1.3158 H   0  0  0  0  0  0  0  0  0  0  0  0
    2.1170   -3.0957    1.8280 H   0  0  0  0  0  0  0  0  0  0  0  0
    0.7102   -2.9478    0.7453 H   0  0  0  0  0  0  0  0  0  0  0  0
  1  2  1  0
  1 17  1  0
  1 18  1  0
  2  3  2  0
  2  8  1  0
  3  4  1  0
  3 19  1  0
  4  5  2  0
  4 20  1  0
  5  6  1  0
  5  7  1  0
  7  8  2  0
  7 21  1  0
  8  9  1  0
  9 10  1  0
  9 16  1  0
 10 11  1  0
 10 22  1  0
 10 23  1  0
 12 11  1  6
 11 24  1  0
 11 25  1  0
 12 13  2  0
 12 14  2  0
 12 15  1  0
 15 16  1  0
 15 26  1  0
 15 27  1  0
 16 28  1  0
 16 29  1  0
M  END

