
     RDKit          3D

 42 44  0  0  0  0  0  0  0  0999 V2000
    1.2262    0.8784   -0.6619 C   0  0  0  0  0  0  0  0  0  0  0  0
    2.5406    0.2543   -0.3024 C   0  0  0  0  0  0  0  0  0  0  0  0
    3.5222    0.8860    0.2691 N   0  0  0  0  0  0  0  0  0  0  0  0
    4.6056    0.0728    0.5053 C   0  0  0  0  0  0  0  0  0  0  0  0
    5.8410    0.6276    1.1572 C   0  0  0  0  0  0  0  0  0  0  0  0
    4.4396   -1.2328    0.0901 C   0  0  0  0  0  0  0  0  0  0  0  0
    5.3958   -2.2420    0.1975 N   0  0  0  0  0  0  0  0  0  0  0  0
    5.1881   -3.5639   -0.1710 C   0  0  0  0  0  0  0  0  0  0  0  0
    4.1336   -3.9176   -0.6786 O   0  0  0  0  0  0  0  0  0  0  0  0
    6.2308   -4.4360    0.0734 N   0  0  0  0  0  0  0  0  0  0  0  0
    6.1807   -5.7648   -0.5248 C   0  0  0  0  0  0  0  0  0  0  0  0
    6.5882   -6.8202    0.4929 C   0  0  0  0  0  0  0  0  0  0  0  0
    7.8970   -6.5290    1.0642 N   0  0  0  0  0  0  0  0  0  0  0  0
    8.3561   -7.6055    1.9373 C   0  0  0  0  0  0  0  0  0  0  0  0
    9.7693   -7.3567    2.4598 C   0  0  0  0  0  0  0  0  0  0  0  0
    9.8441   -6.0067    3.1763 C   0  0  0  0  0  0  0  0  0  0  0  0
    9.3248   -4.8999    2.2561 C   0  0  0  0  0  0  0  0  0  0  0  0
    7.9267   -5.2149    1.7070 C   0  0  1  0  0  0  0  0  0  0  0  0
    7.4951   -4.1216    0.7136 C   0  0  0  0  0  0  0  0  0  0  0  0
    2.8605   -1.4500   -0.6212 S   0  0  0  0  0  0  0  0  0  0  0  0
    1.2569    1.9384   -0.3746 H   0  0  0  0  0  0  0  0  0  0  0  0
    0.3853    0.3955   -0.1367 H   0  0  0  0  0  0  0  0  0  0  0  0
    1.0214    0.8122   -1.7434 H   0  0  0  0  0  0  0  0  0  0  0  0
    5.5922    1.5768    1.6516 H   0  0  0  0  0  0  0  0  0  0  0  0
    6.6461    0.8375    0.4292 H   0  0  0  0  0  0  0  0  0  0  0  0
    6.2510   -0.0548    1.9220 H   0  0  0  0  0  0  0  0  0  0  0  0
    6.3230   -1.9320    0.4542 H   0  0  0  0  0  0  0  0  0  0  0  0
    6.8710   -5.8084   -1.3896 H   0  0  0  0  0  0  0  0  0  0  0  0
    5.1591   -5.9354   -0.8839 H   0  0  0  0  0  0  0  0  0  0  0  0
    6.6309   -7.8030   -0.0044 H   0  0  0  0  0  0  0  0  0  0  0  0
    5.8043   -6.8857    1.2830 H   0  0  0  0  0  0  0  0  0  0  0  0
    8.3210   -8.5468    1.3643 H   0  0  0  0  0  0  0  0  0  0  0  0
    7.6643   -7.7386    2.8040 H   0  0  0  0  0  0  0  0  0  0  0  0
   10.4727   -7.3657    1.6092 H   0  0  0  0  0  0  0  0  0  0  0  0
   10.0625   -8.1782    3.1338 H   0  0  0  0  0  0  0  0  0  0  0  0
   10.8754   -5.7868    3.4977 H   0  0  0  0  0  0  0  0  0  0  0  0
    9.2290   -6.0429    4.0938 H   0  0  0  0  0  0  0  0  0  0  0  0
   10.0156   -4.7811    1.4028 H   0  0  0  0  0  0  0  0  0  0  0  0
    9.2952   -3.9328    2.7862 H   0  0  0  0  0  0  0  0  0  0  0  0
    7.1999   -5.1909    2.5561 H   0  0  0  0  0  0  0  0  0  0  0  0
    8.2942   -3.9967   -0.0444 H   0  0  0  0  0  0  0  0  0  0  0  0
    7.4170   -3.1859    1.2838 H   0  0  0  0  0  0  0  0  0  0  0  0
  1  2  1  0
  1 21  1  0
  1 22  1  0
  1 23  1  0
  2  3  2  0
  2 20  1  0
  3  4  1  0
  4  5  1  0
  4  6  2  0
  5 24  1  0
  5 25  1  0
  5 26  1  0
  6  7  1  0
  6 20  1  0
  7  8  1  0
  7 27  1  0
  8  9  2  0
  8 10  1  0
 10 11  1  0
 10 19  1  0
 11 12  1  0
 11 28  1  0
 11 29  1  0
 12 13  1  0
 12 30  1  0
 12 31  1  0
 13 14  1  0
 13 18  1  0
 14 15  1  0
 14 32  1  0
 14 33  1  0
 15 16  1  0
 15 34  1  0
 15 35  1  0
 16 17  1  0
 16 36  1  0
 16 37  1  0
 17 18  1  0
 17 38  1  0
 17 39  1  0
 18 19  1  0
 18 40  1  1
 19 41  1  0
 19 42  1  0
M  END

