
     RDKit          3D

 72 75  0  0  0  0  0  0  0  0999 V2000
    1.5072    4.5597   -1.7638 C   0  0  0  0  0  0  0  0  0  0  0  0
    2.6733    3.7387   -1.2688 C   0  0  0  0  0  0  0  0  0  0  0  0
    2.6211    2.5810   -0.9463 O   0  0  0  0  0  0  0  0  0  0  0  0
    3.7915    4.5097   -1.2421 O   0  0  0  0  0  0  0  0  0  0  0  0
    5.0600    4.1087   -0.8423 C   0  0  0  0  0  0  0  0  0  0  0  0
    5.4158    2.8406   -0.3698 C   0  0  0  0  0  0  0  0  0  0  0  0
    6.7398    2.5818   -0.0006 C   0  0  0  0  0  0  0  0  0  0  0  0
    7.7208    3.5827   -0.0974 C   0  0  0  0  0  0  0  0  0  0  0  0
    9.0693    3.3946    0.2578 N   0  0  0  0  0  0  0  0  0  0  0  0
    9.6859    2.2687    0.7462 C   0  0  0  0  0  0  0  0  0  0  0  0
    9.1172    1.2004    0.9149 O   0  0  0  0  0  0  0  0  0  0  0  0
   11.1577    2.4247    1.0554 C   0  0  0  0  0  0  0  0  0  0  0  0
   11.7974    3.6685    1.1608 C   0  0  0  0  0  0  0  0  0  0  0  0
   13.1704    3.7110    1.4498 C   0  0  0  0  0  0  0  0  0  0  0  0
   13.8896    4.9141    1.5676 N   0  0  0  0  0  0  0  0  0  0  0  0
   13.4496    6.2068    1.3848 C   0  0  0  0  0  0  0  0  0  0  0  0
   12.2877    6.4954    1.1375 O   0  0  0  0  0  0  0  0  0  0  0  0
   14.5044    7.2697    1.5291 C   0  0  0  0  0  0  0  0  0  0  0  0
   15.8848    7.0392    1.3951 C   0  0  0  0  0  0  0  0  0  0  0  0
   16.7932    8.0848    1.5270 C   0  0  0  0  0  0  0  0  0  0  0  0
   16.3372    9.3832    1.7944 C   0  0  0  0  0  0  0  0  0  0  0  0
   17.3494   10.3172    1.9040 O   0  0  0  0  0  0  0  0  0  0  0  0
   17.2001   11.6504    2.1635 C   0  0  0  0  0  0  0  0  0  0  0  0
   18.5560   12.3077    2.2012 C   0  0  0  0  0  0  0  0  0  0  0  0
   16.1477   12.2030    2.3340 O   0  0  0  0  0  0  0  0  0  0  0  0
   14.9638    9.6395    1.9181 C   0  0  0  0  0  0  0  0  0  0  0  0
   14.0679    8.5794    1.7755 C   0  0  0  0  0  0  0  0  0  0  0  0
   13.8946    2.5221    1.6431 C   0  0  0  0  0  0  0  0  0  0  0  0
   13.2446    1.2836    1.5521 C   0  0  0  0  0  0  0  0  0  0  0  0
   13.9047    0.0559    1.7346 N   0  0  0  0  0  0  0  0  0  0  0  0
   15.2310   -0.1793    2.0261 C   0  0  0  0  0  0  0  0  0  0  0  0
   16.0459    0.7104    2.2196 O   0  0  0  0  0  0  0  0  0  0  0  0
   15.6214   -1.6296    2.1116 C   0  0  0  0  0  0  0  0  0  0  0  0
   14.9007   -2.6802    1.5172 C   0  0  0  0  0  0  0  0  0  0  0  0
   15.3420   -3.9949    1.6310 C   0  0  0  0  0  0  0  0  0  0  0  0
   16.5156   -4.2838    2.3415 C   0  0  0  0  0  0  0  0  0  0  0  0
   16.8283   -5.6290    2.3761 O   0  0  0  0  0  0  0  0  0  0  0  0
   17.9091   -6.1966    2.9901 C   0  0  0  0  0  0  0  0  0  0  0  0
   17.8724   -7.6897    2.7878 C   0  0  0  0  0  0  0  0  0  0  0  0
   18.7516   -5.5910    3.5947 O   0  0  0  0  0  0  0  0  0  0  0  0
   17.2586   -3.2504    2.9308 C   0  0  0  0  0  0  0  0  0  0  0  0
   16.8037   -1.9379    2.7997 C   0  0  0  0  0  0  0  0  0  0  0  0
   11.8722    1.2428    1.2591 C   0  0  0  0  0  0  0  0  0  0  0  0
    7.3452    4.8537   -0.5730 C   0  0  0  0  0  0  0  0  0  0  0  0
    6.0309    5.1130   -0.9420 C   0  0  0  0  0  0  0  0  0  0  0  0
    0.6083    3.9329   -1.7971 H   0  0  0  0  0  0  0  0  0  0  0  0
    1.7261    4.9620   -2.7648 H   0  0  0  0  0  0  0  0  0  0  0  0
    1.3427    5.4198   -1.0963 H   0  0  0  0  0  0  0  0  0  0  0  0
    4.6674    2.0573   -0.2909 H   0  0  0  0  0  0  0  0  0  0  0  0
    7.0213    1.5972    0.3643 H   0  0  0  0  0  0  0  0  0  0  0  0
    9.6661    4.1973    0.0996 H   0  0  0  0  0  0  0  0  0  0  0  0
   11.2736    4.6152    1.0589 H   0  0  0  0  0  0  0  0  0  0  0  0
   14.8517    4.8014    1.8618 H   0  0  0  0  0  0  0  0  0  0  0  0
   16.2722    6.0461    1.1531 H   0  0  0  0  0  0  0  0  0  0  0  0
   17.8662    7.9186    1.4164 H   0  0  0  0  0  0  0  0  0  0  0  0
   19.0726   12.1601    1.2403 H   0  0  0  0  0  0  0  0  0  0  0  0
   19.1783   11.8410    2.9803 H   0  0  0  0  0  0  0  0  0  0  0  0
   18.4364   13.3781    2.4051 H   0  0  0  0  0  0  0  0  0  0  0  0
   14.6093   10.6462    2.1192 H   0  0  0  0  0  0  0  0  0  0  0  0
   12.9940    8.7575    1.8552 H   0  0  0  0  0  0  0  0  0  0  0  0
   14.9584    2.5431    1.8728 H   0  0  0  0  0  0  0  0  0  0  0  0
   13.2993   -0.7546    1.6968 H   0  0  0  0  0  0  0  0  0  0  0  0
   14.0008   -2.4867    0.9276 H   0  0  0  0  0  0  0  0  0  0  0  0
   14.7949   -4.8170    1.1663 H   0  0  0  0  0  0  0  0  0  0  0  0
   17.8820   -7.9238    1.7121 H   0  0  0  0  0  0  0  0  0  0  0  0
   16.9399   -8.1026    3.2024 H   0  0  0  0  0  0  0  0  0  0  0  0
   18.7389   -8.1456    3.2808 H   0  0  0  0  0  0  0  0  0  0  0  0
   18.1712   -3.4727    3.4757 H   0  0  0  0  0  0  0  0  0  0  0  0
   17.3725   -1.1163    3.2389 H   0  0  0  0  0  0  0  0  0  0  0  0
   11.3314    0.2966    1.1869 H   0  0  0  0  0  0  0  0  0  0  0  0
    8.0925    5.6487   -0.6519 H   0  0  0  0  0  0  0  0  0  0  0  0
    5.7363    6.0973   -1.3108 H   0  0  0  0  0  0  0  0  0  0  0  0
  1  2  1  0
  1 46  1  0
  1 47  1  0
  1 48  1  0
  2  3  2  0
  2  4  1  0
  4  5  1  0
  5  6  2  0
  5 45  1  0
  6  7  1  0
  6 49  1  0
  7  8  2  0
  7 50  1  0
  8  9  1  0
  8 44  1  0
  9 10  1  0
  9 51  1  0
 10 11  2  0
 10 12  1  0
 12 13  2  0
 12 43  1  0
 13 14  1  0
 13 52  1  0
 14 15  1  0
 14 28  2  0
 15 16  1  0
 15 53  1  0
 16 17  2  0
 16 18  1  0
 18 19  2  0
 18 27  1  0
 19 20  1  0
 19 54  1  0
 20 21  2  0
 20 55  1  0
 21 22  1  0
 21 26  1  0
 22 23  1  0
 23 24  1  0
 23 25  2  0
 24 56  1  0
 24 57  1  0
 24 58  1  0
 26 27  2  0
 26 59  1  0
 27 60  1  0
 28 29  1  0
 28 61  1  0
 29 30  1  0
 29 43  2  0
 30 31  1  0
 30 62  1  0
 31 32  2  0
 31 33  1  0
 33 34  2  0
 33 42  1  0
 34 35  1  0
 34 63  1  0
 35 36  2  0
 35 64  1  0
 36 37  1  0
 36 41  1  0
 37 38  1  0
 38 39  1  0
 38 40  2  0
 39 65  1  0
 39 66  1  0
 39 67  1  0
 41 42  2  0
 41 68  1  0
 42 69  1  0
 43 70  1  0
 44 45  2  0
 44 71  1  0
 45 72  1  0
M  END

