
     RDKit          3D

 44 45  0  0  0  0  0  0  0  0999 V2000
    4.7649   -2.7600    0.9347 C   0  0  0  0  0  0  0  0  0  0  0  0
    4.8748   -1.3435    0.3806 C   0  0  0  0  0  0  0  0  0  0  0  0
    4.2456   -0.3858    1.2701 N   0  0  0  0  0  0  0  0  0  0  0  0
    4.1811    1.0062    0.8456 C   0  0  1  0  0  0  0  0  0  0  0  0
    2.7347    1.4306    0.6180 C   0  0  0  0  0  0  0  0  0  0  0  0
    1.7018    1.0373    1.4921 C   0  0  0  0  0  0  0  0  0  0  0  0
    0.4349    1.3981    1.3012 N   0  0  0  0  0  0  0  0  0  0  0  0
    0.1765    2.1426    0.2205 C   0  0  0  0  0  0  0  0  0  0  0  0
    1.1891    2.5262   -0.6596 C   0  0  0  0  0  0  0  0  0  0  0  0
    2.4635    2.1755   -0.4583 N   0  0  0  0  0  0  0  0  0  0  0  0
    4.9413    1.9460    1.8480 C   0  0  1  0  0  0  0  0  0  0  0  0
    4.3864    1.5547    3.1169 O   0  0  0  0  0  0  0  0  0  0  0  0
    4.6682    2.2934    4.2797 C   0  0  0  0  0  0  0  0  0  0  0  0
    6.4592    1.6487    1.8160 C   0  0  0  0  0  0  0  0  0  0  0  0
    7.1578    2.1401    0.5373 C   0  0  0  0  0  0  0  0  0  0  0  0
    6.9092    3.6330    0.2387 C   0  0  2  0  0  0  0  0  0  0  0  0
    7.7120    4.5600    1.1637 C   0  0  0  0  0  0  0  0  0  0  0  0
    5.3946    3.9242    0.2690 C   0  0  0  0  0  0  0  0  0  0  0  0
    4.7208    3.4447    1.5642 C   0  0  0  0  0  0  0  0  0  0  0  0
    5.2186   -3.4906    0.2467 H   0  0  0  0  0  0  0  0  0  0  0  0
    3.7102   -3.0332    1.0949 H   0  0  0  0  0  0  0  0  0  0  0  0
    5.2859   -2.8484    1.9035 H   0  0  0  0  0  0  0  0  0  0  0  0
    4.3658   -1.2966   -0.5987 H   0  0  0  0  0  0  0  0  0  0  0  0
    5.9466   -1.1150    0.1752 H   0  0  0  0  0  0  0  0  0  0  0  0
    4.5544   -0.4648    2.2351 H   0  0  0  0  0  0  0  0  0  0  0  0
    4.6678    1.1168   -0.1351 H   0  0  0  0  0  0  0  0  0  0  0  0
    1.9334    0.4094    2.3555 H   0  0  0  0  0  0  0  0  0  0  0  0
   -0.8635    2.4420    0.0467 H   0  0  0  0  0  0  0  0  0  0  0  0
    0.9657    3.1291   -1.5475 H   0  0  0  0  0  0  0  0  0  0  0  0
    4.2869    1.7040    5.1271 H   0  0  0  0  0  0  0  0  0  0  0  0
    4.1634    3.2766    4.2950 H   0  0  0  0  0  0  0  0  0  0  0  0
    5.7502    2.4572    4.4403 H   0  0  0  0  0  0  0  0  0  0  0  0
    6.6223    0.5676    1.9471 H   0  0  0  0  0  0  0  0  0  0  0  0
    6.9209    2.1343    2.6911 H   0  0  0  0  0  0  0  0  0  0  0  0
    6.8081    1.5437   -0.3224 H   0  0  0  0  0  0  0  0  0  0  0  0
    8.2410    1.9449    0.6157 H   0  0  0  0  0  0  0  0  0  0  0  0
    7.2627    3.8266   -0.7896 H   0  0  0  0  0  0  0  0  0  0  0  0
    7.4427    4.4398    2.2255 H   0  0  0  0  0  0  0  0  0  0  0  0
    7.5449    5.6178    0.9026 H   0  0  0  0  0  0  0  0  0  0  0  0
    8.7931    4.3627    1.0778 H   0  0  0  0  0  0  0  0  0  0  0  0
    4.9032    3.4428   -0.5915 H   0  0  0  0  0  0  0  0  0  0  0  0
    5.2197    5.0073    0.1508 H   0  0  0  0  0  0  0  0  0  0  0  0
    3.6445    3.6725    1.5438 H   0  0  0  0  0  0  0  0  0  0  0  0
    5.1367    4.0136    2.4113 H   0  0  0  0  0  0  0  0  0  0  0  0
  1  2  1  0
  1 20  1  0
  1 21  1  0
  1 22  1  0
  2  3  1  0
  2 23  1  0
  2 24  1  0
  3  4  1  0
  3 25  1  0
  4  5  1  0
  4 11  1  0
  4 26  1  6
  5  6  2  0
  5 10  1  0
  6  7  1  0
  6 27  1  0
  7  8  2  0
  8  9  1  0
  8 28  1  0
  9 10  2  0
  9 29  1  0
 11 12  1  1
 11 14  1  0
 11 19  1  0
 12 13  1  0
 13 30  1  0
 13 31  1  0
 13 32  1  0
 14 15  1  0
 14 33  1  0
 14 34  1  0
 15 16  1  0
 15 35  1  0
 15 36  1  0
 16 17  1  0
 16 18  1  0
 16 37  1  6
 17 38  1  0
 17 39  1  0
 17 40  1  0
 18 19  1  0
 18 41  1  0
 18 42  1  0
 19 43  1  0
 19 44  1  0
M  END

