
     RDKit          3D

 27 30  0  0  0  0  0  0  0  0999 V2000
    1.1083    0.1310   -0.0412 O   0  0  0  0  0  0  0  0  0  0  0  0
    2.3127    0.0713   -0.0411 C   0  0  0  0  0  0  0  0  0  0  0  0
    3.2031   -1.1145   -0.0415 C   0  0  0  0  0  0  0  0  0  0  0  0
    2.8841   -2.4701   -0.0416 C   0  0  0  0  0  0  0  0  0  0  0  0
    3.9418   -3.3850   -0.0419 C   0  0  0  0  0  0  0  0  0  0  0  0
    3.6025   -5.0975   -0.0420 Cl  0  0  0  0  0  0  0  0  0  0  0  0
    5.2750   -2.9470   -0.0421 C   0  0  0  0  0  0  0  0  0  0  0  0
    5.5969   -1.5831   -0.0420 C   0  0  0  0  0  0  0  0  0  0  0  0
    4.5394   -0.6762   -0.0417 C   0  0  0  0  0  0  0  0  0  0  0  0
    4.5741    0.7455   -0.0417 N   0  0  0  0  0  0  0  0  0  0  0  0
    3.2740    1.2574   -0.0415 C   0  0  0  0  0  0  0  0  0  0  0  0
    2.9579    2.4983   -0.0414 N   0  0  0  0  0  0  0  0  0  0  0  0
    4.0017    3.4124   -0.0417 C   0  0  0  0  0  0  0  0  0  0  0  0
    3.6928    4.7854   -0.0416 C   0  0  0  0  0  0  0  0  0  0  0  0
    4.7297    5.7060   -0.0419 C   0  0  0  0  0  0  0  0  0  0  0  0
    4.4413    7.0096   -0.0418 F   0  0  0  0  0  0  0  0  0  0  0  0
    6.0776    5.3182   -0.0421 C   0  0  0  0  0  0  0  0  0  0  0  0
    6.3852    3.9635   -0.0421 C   0  0  0  0  0  0  0  0  0  0  0  0
    5.3628    3.0005   -0.0419 C   0  0  0  0  0  0  0  0  0  0  0  0
    5.7131    1.5668   -0.0420 C   0  0  0  0  0  0  0  0  0  0  0  0
    6.8415    1.1112   -0.0422 O   0  0  0  0  0  0  0  0  0  0  0  0
    1.8431   -2.7976   -0.0415 H   0  0  0  0  0  0  0  0  0  0  0  0
    6.0747   -3.6900   -0.0423 H   0  0  0  0  0  0  0  0  0  0  0  0
    6.6288   -1.2382   -0.0422 H   0  0  0  0  0  0  0  0  0  0  0  0
    2.6513    5.1072   -0.0415 H   0  0  0  0  0  0  0  0  0  0  0  0
    6.8531    6.0861   -0.0423 H   0  0  0  0  0  0  0  0  0  0  0  0
    7.4212    3.6194   -0.0423 H   0  0  0  0  0  0  0  0  0  0  0  0
  1  2  2  0
  2  3  1  0
  2 11  1  0
  3  4  2  0
  3  9  1  0
  4  5  1  0
  4 22  1  0
  5  6  1  0
  5  7  2  0
  7  8  1  0
  7 23  1  0
  8  9  2  0
  8 24  1  0
  9 10  1  0
 10 11  1  0
 10 20  1  0
 11 12  2  0
 12 13  1  0
 13 14  1  0
 13 19  2  0
 14 15  2  0
 14 25  1  0
 15 16  1  0
 15 17  1  0
 17 18  2  0
 17 26  1  0
 18 19  1  0
 18 27  1  0
 19 20  1  0
 20 21  2  0
M  END

