
     RDKit          3D

 45 47  0  0  0  0  0  0  0  0999 V2000
    3.0824    2.6840   -3.3640 C   0  0  0  0  0  0  0  0  0  0  0  0
    3.4656    1.6142   -2.6546 C   0  0  0  0  0  0  0  0  0  0  0  0
    4.1455    0.4205   -3.2708 C   0  0  0  0  0  0  0  0  0  0  0  0
    3.1650    1.5205   -1.1703 C   0  0  0  0  0  0  0  0  0  0  0  0
    4.2968    1.0817   -0.3488 N   0  0  0  0  0  0  0  0  0  0  0  0
    4.2253   -0.1602    0.2489 C   0  0  0  0  0  0  0  0  0  0  0  0
    3.2833   -0.9209    0.1212 O   0  0  0  0  0  0  0  0  0  0  0  0
    5.4077   -0.5077    1.1447 C   0  0  0  0  0  0  0  0  0  0  0  0
    6.6390    0.0229    0.6940 O   0  0  0  0  0  0  0  0  0  0  0  0
    6.6059    1.3495    0.3804 C   0  0  0  0  0  0  0  0  0  0  0  0
    7.7668    2.0992    0.5573 C   0  0  0  0  0  0  0  0  0  0  0  0
    7.7758    3.4584    0.2044 C   0  0  0  0  0  0  0  0  0  0  0  0
    8.9074    4.2822    0.3483 N   0  0  0  0  0  0  0  0  0  0  0  0
   10.1557    3.9565    0.8159 C   0  0  0  0  0  0  0  0  0  0  0  0
   10.4840    2.8481    1.1956 O   0  0  0  0  0  0  0  0  0  0  0  0
   11.1641    5.1225    0.8721 C   0  0  0  0  0  0  0  0  0  0  0  0
   10.8051    6.4050    0.1602 C   0  0  0  0  0  0  0  0  0  0  0  0
   10.1720    7.4587    0.8420 C   0  0  0  0  0  0  0  0  0  0  0  0
    9.8125    8.6339    0.1745 C   0  0  0  0  0  0  0  0  0  0  0  0
   10.0812    8.7756   -1.1898 C   0  0  0  0  0  0  0  0  0  0  0  0
   10.7116    7.7358   -1.8812 C   0  0  0  0  0  0  0  0  0  0  0  0
   11.0688    6.5627   -1.2119 C   0  0  0  0  0  0  0  0  0  0  0  0
    6.6030    4.0358   -0.3110 C   0  0  0  0  0  0  0  0  0  0  0  0
    5.4472    3.2753   -0.4828 C   0  0  0  0  0  0  0  0  0  0  0  0
    5.4258    1.9157   -0.1456 C   0  0  0  0  0  0  0  0  0  0  0  0
    3.2338    2.7374   -4.4458 H   0  0  0  0  0  0  0  0  0  0  0  0
    2.5912    3.5403   -2.8908 H   0  0  0  0  0  0  0  0  0  0  0  0
    4.2424    0.5289   -4.3605 H   0  0  0  0  0  0  0  0  0  0  0  0
    3.5848   -0.5052   -3.0554 H   0  0  0  0  0  0  0  0  0  0  0  0
    5.1552    0.2790   -2.8493 H   0  0  0  0  0  0  0  0  0  0  0  0
    2.3877    0.7591   -1.0062 H   0  0  0  0  0  0  0  0  0  0  0  0
    2.7780    2.4789   -0.7901 H   0  0  0  0  0  0  0  0  0  0  0  0
    5.5027   -1.6001    1.1674 H   0  0  0  0  0  0  0  0  0  0  0  0
    5.1824   -0.1565    2.1728 H   0  0  0  0  0  0  0  0  0  0  0  0
    8.6558    1.6229    0.9624 H   0  0  0  0  0  0  0  0  0  0  0  0
    8.7830    5.2457    0.0555 H   0  0  0  0  0  0  0  0  0  0  0  0
   12.1051    4.7031    0.4847 H   0  0  0  0  0  0  0  0  0  0  0  0
   11.3370    5.3094    1.9450 H   0  0  0  0  0  0  0  0  0  0  0  0
    9.9659    7.3593    1.9119 H   0  0  0  0  0  0  0  0  0  0  0  0
    9.3267    9.4438    0.7248 H   0  0  0  0  0  0  0  0  0  0  0  0
    9.8043    9.6947   -1.7122 H   0  0  0  0  0  0  0  0  0  0  0  0
   10.9301    7.8404   -2.9470 H   0  0  0  0  0  0  0  0  0  0  0  0
   11.5645    5.7560   -1.7596 H   0  0  0  0  0  0  0  0  0  0  0  0
    6.5926    5.0926   -0.5903 H   0  0  0  0  0  0  0  0  0  0  0  0
    4.5643    3.7495   -0.9078 H   0  0  0  0  0  0  0  0  0  0  0  0
  1  2  2  0
  1 26  1  0
  1 27  1  0
  2  3  1  0
  2  4  1  0
  3 28  1  0
  3 29  1  0
  3 30  1  0
  4  5  1  0
  4 31  1  0
  4 32  1  0
  5  6  1  0
  5 25  1  0
  6  7  2  0
  6  8  1  0
  8  9  1  0
  8 33  1  0
  8 34  1  0
  9 10  1  0
 10 11  1  0
 10 25  2  0
 11 12  2  0
 11 35  1  0
 12 13  1  0
 12 23  1  0
 13 14  1  0
 13 36  1  0
 14 15  2  0
 14 16  1  0
 16 17  1  0
 16 37  1  0
 16 38  1  0
 17 18  2  0
 17 22  1  0
 18 19  1  0
 18 39  1  0
 19 20  2  0
 19 40  1  0
 20 21  1  0
 20 41  1  0
 21 22  2  0
 21 42  1  0
 22 43  1  0
 23 24  2  0
 23 44  1  0
 24 25  1  0
 24 45  1  0
M  END

