
     RDKit          3D

 43 43  0  0  0  0  0  0  0  0999 V2000
    6.8375    0.6071    4.3424 C   0  0  0  0  0  0  0  0  0  0  0  0
    6.5136    0.2540    2.8899 C   0  0  0  0  0  0  0  0  0  0  0  0
    6.9021    1.3544    1.8991 C   0  0  0  0  0  0  0  0  0  0  0  0
    6.5809    1.0053    0.4537 C   0  0  0  0  0  0  0  0  0  0  0  0
    6.9663    2.0740   -0.3785 O   0  0  0  0  0  0  0  0  0  0  0  0
    6.7127    1.8724   -1.7468 C   0  0  0  0  0  0  0  0  0  0  0  0
    7.1927    3.0873   -2.5279 C   0  0  0  0  0  0  0  0  0  0  0  0
    8.6974    3.3371   -2.3724 C   0  0  0  0  0  0  0  0  0  0  0  0
    9.1656    4.4724   -3.1405 N   0  0  0  0  0  0  0  0  0  0  0  0
    9.6830    5.5964   -2.5764 C   0  0  0  0  0  0  0  0  0  0  0  0
    9.8365    5.7779   -1.3779 O   0  0  0  0  0  0  0  0  0  0  0  0
   10.0751    6.6438   -3.5792 C   0  0  0  0  0  0  0  0  0  0  0  0
   10.6282    7.8559   -3.2216 C   0  0  0  0  0  0  0  0  0  0  0  0
   10.9495    8.7988   -4.6169 S   0  0  0  0  0  0  0  0  0  0  0  0
   10.3149    7.4926   -5.5992 C   0  0  0  0  0  0  0  0  0  0  0  0
   10.2966    7.6712   -7.0768 C   0  0  0  0  0  0  0  0  0  0  0  0
   10.7012    8.6784   -7.6125 O   0  0  0  0  0  0  0  0  0  0  0  0
    9.7965    6.6074   -7.7082 O   0  0  0  0  0  0  0  0  0  0  0  0
    9.7279    6.6658   -9.1479 C   0  0  0  0  0  0  0  0  0  0  0  0
    8.4514    7.3402   -9.6208 C   0  0  0  0  0  0  0  0  0  0  0  0
    9.9061    6.4569   -4.9220 N   0  0  0  0  0  0  0  0  0  0  0  0
    6.5468   -0.2030    5.0300 H   0  0  0  0  0  0  0  0  0  0  0  0
    6.3073    1.5206    4.6597 H   0  0  0  0  0  0  0  0  0  0  0  0
    7.9164    0.7897    4.4787 H   0  0  0  0  0  0  0  0  0  0  0  0
    5.4330    0.0404    2.7962 H   0  0  0  0  0  0  0  0  0  0  0  0
    7.0296   -0.6848    2.6167 H   0  0  0  0  0  0  0  0  0  0  0  0
    7.9825    1.5694    1.9743 H   0  0  0  0  0  0  0  0  0  0  0  0
    6.3833    2.2954    2.1527 H   0  0  0  0  0  0  0  0  0  0  0  0
    5.4941    0.8006    0.3399 H   0  0  0  0  0  0  0  0  0  0  0  0
    7.1088    0.0733    0.1556 H   0  0  0  0  0  0  0  0  0  0  0  0
    5.6284    1.7112   -1.9245 H   0  0  0  0  0  0  0  0  0  0  0  0
    7.2316    0.9559   -2.1055 H   0  0  0  0  0  0  0  0  0  0  0  0
    6.6398    3.9789   -2.1883 H   0  0  0  0  0  0  0  0  0  0  0  0
    6.9407    2.9371   -3.5930 H   0  0  0  0  0  0  0  0  0  0  0  0
    9.2564    2.4298   -2.6695 H   0  0  0  0  0  0  0  0  0  0  0  0
    8.9340    3.5394   -1.3197 H   0  0  0  0  0  0  0  0  0  0  0  0
    9.0935    4.4673   -4.1538 H   0  0  0  0  0  0  0  0  0  0  0  0
   10.8423    8.1938   -2.2095 H   0  0  0  0  0  0  0  0  0  0  0  0
    9.7680    5.6146   -9.4667 H   0  0  0  0  0  0  0  0  0  0  0  0
   10.6167    7.1924   -9.5256 H   0  0  0  0  0  0  0  0  0  0  0  0
    7.5635    6.8378   -9.2070 H   0  0  0  0  0  0  0  0  0  0  0  0
    8.3925    7.2949  -10.7201 H   0  0  0  0  0  0  0  0  0  0  0  0
    8.4330    8.3987   -9.3221 H   0  0  0  0  0  0  0  0  0  0  0  0
  1  2  1  0
  1 22  1  0
  1 23  1  0
  1 24  1  0
  2  3  1  0
  2 25  1  0
  2 26  1  0
  3  4  1  0
  3 27  1  0
  3 28  1  0
  4  5  1  0
  4 29  1  0
  4 30  1  0
  5  6  1  0
  6  7  1  0
  6 31  1  0
  6 32  1  0
  7  8  1  0
  7 33  1  0
  7 34  1  0
  8  9  1  0
  8 35  1  0
  8 36  1  0
  9 10  1  0
  9 37  1  0
 10 11  2  0
 10 12  1  0
 12 13  1  0
 12 21  2  0
 13 14  2  0
 13 38  1  0
 14 15  1  0
 15 16  2  0
 15 21  1  0
 16 17  1  0
 16 18  1  0
 18 19  1  0
 19 20  1  0
 19 39  1  0
 19 40  1  0
 20 41  1  0
 20 42  1  0
 20 43  1  0
M  CHG  2  14   1  17  -1
M  END

