
     RDKit          3D

 25 26  0  0  0  0  0  0  0  0999 V2000
    1.0359   -0.0556    0.1098 C   0  0  0  0  0  0  0  0  0  0  0  0
    2.5162    0.0935   -0.1046 C   0  0  0  0  0  0  0  0  0  0  0  0
    3.1208    1.3117   -0.4287 C   0  0  0  0  0  0  0  0  0  0  0  0
    4.4973    1.4030   -0.6201 C   0  0  0  0  0  0  0  0  0  0  0  0
    4.9819    2.6216   -0.9287 F   0  0  0  0  0  0  0  0  0  0  0  0
    5.3550    0.2946   -0.5019 C   0  0  0  0  0  0  0  0  0  0  0  0
    6.8286    0.3238   -0.6932 C   0  0  0  0  0  0  0  0  0  0  0  0
    7.5680    1.4767   -1.0254 C   0  0  0  0  0  0  0  0  0  0  0  0
    8.9468    1.3736   -1.1778 C   0  0  0  0  0  0  0  0  0  0  0  0
    9.5887    0.1372   -1.0024 C   0  0  0  0  0  0  0  0  0  0  0  0
   11.0058    0.0104   -1.1548 C   0  0  0  0  0  0  0  0  0  0  0  0
   12.1577   -0.0487   -1.2877 N   0  0  0  0  0  0  0  0  0  0  0  0
    8.7531   -0.9572   -0.6703 C   0  0  0  0  0  0  0  0  0  0  0  0
    9.4674   -2.5319   -0.4343 Cl  0  0  0  0  0  0  0  0  0  0  0  0
    7.4572   -0.8568   -0.5279 N   0  0  0  0  0  0  0  0  0  0  0  0
    4.7385   -0.9319   -0.1742 C   0  0  0  0  0  0  0  0  0  0  0  0
    3.3707   -1.0139    0.0141 C   0  0  0  0  0  0  0  0  0  0  0  0
    2.8258   -2.2025    0.3245 F   0  0  0  0  0  0  0  0  0  0  0  0
    0.5175    0.9065   -0.0035 H   0  0  0  0  0  0  0  0  0  0  0  0
    0.8206   -0.4521    1.1154 H   0  0  0  0  0  0  0  0  0  0  0  0
    0.6034   -0.7709   -0.6088 H   0  0  0  0  0  0  0  0  0  0  0  0
    2.5254    2.2203   -0.5388 H   0  0  0  0  0  0  0  0  0  0  0  0
    7.0764    2.4351   -1.1624 H   0  0  0  0  0  0  0  0  0  0  0  0
    9.5403    2.2531   -1.4350 H   0  0  0  0  0  0  0  0  0  0  0  0
    5.3586   -1.8218   -0.0703 H   0  0  0  0  0  0  0  0  0  0  0  0
  1  2  1  0
  1 19  1  0
  1 20  1  0
  1 21  1  0
  2  3  2  0
  2 17  1  0
  3  4  1  0
  3 22  1  0
  4  5  1  0
  4  6  2  0
  6  7  1  0
  6 16  1  0
  7  8  2  0
  7 15  1  0
  8  9  1  0
  8 23  1  0
  9 10  2  0
  9 24  1  0
 10 11  1  0
 10 13  1  0
 11 12  3  0
 13 14  1  0
 13 15  2  0
 16 17  2  0
 16 25  1  0
 17 18  1  0
M  END

