
     RDKit          3D

 52 55  0  0  0  0  0  0  0  0999 V2000
    1.2444   -0.5583    0.2326 C   0  0  0  0  0  0  0  0  0  0  0  0
    2.6373   -0.3037    0.0412 O   0  0  0  0  0  0  0  0  0  0  0  0
    3.0750    0.9236    0.3489 C   0  0  0  0  0  0  0  0  0  0  0  0
    2.2937    1.7684    0.7612 O   0  0  0  0  0  0  0  0  0  0  0  0
    4.5428    1.0864    0.2000 C   0  0  0  0  0  0  0  0  0  0  0  0
    5.2880   -0.1106    0.1520 C   0  0  0  0  0  0  0  0  0  0  0  0
    6.6814   -0.1245    0.1496 C   0  0  0  0  0  0  0  0  0  0  0  0
    7.3864    1.0748    0.1955 C   0  0  0  0  0  0  0  0  0  0  0  0
    6.6634    2.2689    0.2239 C   0  0  0  0  0  0  0  0  0  0  0  0
    5.2278    2.3432    0.2041 C   0  0  0  0  0  0  0  0  0  0  0  0
    4.9142    3.7790    0.1709 C   0  0  0  0  0  0  0  0  0  0  0  0
    3.7526    4.6072    0.0499 C   0  0  0  0  0  0  0  0  0  0  0  0
    2.4983    4.1678   -0.0505 O   0  0  0  0  0  0  0  0  0  0  0  0
    3.9113    6.0015   -0.0030 C   0  0  0  0  0  0  0  0  0  0  0  0
    5.1579    6.6394    0.0444 C   0  0  0  0  0  0  0  0  0  0  0  0
    5.2633    8.1580   -0.0179 C   0  0  1  0  0  0  0  0  0  0  0  0
    4.7197    8.7201   -1.3428 C   0  0  0  0  0  0  0  0  0  0  0  0
    4.5886    8.8288    1.1913 C   0  0  0  0  0  0  0  0  0  0  0  0
    6.3121    5.8565    0.1462 C   0  0  0  0  0  0  0  0  0  0  0  0
    6.1687    4.4677    0.2009 C   0  0  0  0  0  0  0  0  0  0  0  0
    7.1993    3.5421    0.2528 N   0  0  0  0  0  0  0  0  0  0  0  0
    8.6053    3.8563    0.3262 C   0  0  0  0  0  0  0  0  0  0  0  0
    9.3201    3.9782   -1.0137 C   0  0  0  0  0  0  0  0  0  0  0  0
    8.6355    3.9155   -2.2305 C   0  0  0  0  0  0  0  0  0  0  0  0
    9.3150    4.0411   -3.4463 C   0  0  0  0  0  0  0  0  0  0  0  0
   10.6989    4.2329   -3.4681 C   0  0  0  0  0  0  0  0  0  0  0  0
   11.4038    4.2985   -2.2675 C   0  0  0  0  0  0  0  0  0  0  0  0
   10.7228    4.1722   -1.0429 C   0  0  0  0  0  0  0  0  0  0  0  0
   11.4637    4.2399    0.1865 C   0  0  0  0  0  0  0  0  0  0  0  0
   12.0508    4.2901    1.1877 N   0  0  0  0  0  0  0  0  0  0  0  0
    1.0835   -1.5976   -0.0780 H   0  0  0  0  0  0  0  0  0  0  0  0
    0.6361    0.1239   -0.3792 H   0  0  0  0  0  0  0  0  0  0  0  0
    0.9642   -0.4250    1.2882 H   0  0  0  0  0  0  0  0  0  0  0  0
    4.7442   -1.0531    0.1411 H   0  0  0  0  0  0  0  0  0  0  0  0
    7.2174   -1.0756    0.1208 H   0  0  0  0  0  0  0  0  0  0  0  0
    8.4776    1.0802    0.1938 H   0  0  0  0  0  0  0  0  0  0  0  0
    2.4111    3.2441    0.2893 H   0  0  0  0  0  0  0  0  0  0  0  0
    2.9882    6.5776   -0.0891 H   0  0  0  0  0  0  0  0  0  0  0  0
    6.3385    8.4042    0.0273 H   0  0  0  0  0  0  0  0  0  0  0  0
    3.6401    8.5262   -1.4486 H   0  0  0  0  0  0  0  0  0  0  0  0
    5.2269    8.2661   -2.2085 H   0  0  0  0  0  0  0  0  0  0  0  0
    4.8693    9.8113   -1.3930 H   0  0  0  0  0  0  0  0  0  0  0  0
    3.5031    8.6389    1.2011 H   0  0  0  0  0  0  0  0  0  0  0  0
    4.7368    9.9210    1.1635 H   0  0  0  0  0  0  0  0  0  0  0  0
    5.0019    8.4521    2.1399 H   0  0  0  0  0  0  0  0  0  0  0  0
    7.2978    6.3239    0.1560 H   0  0  0  0  0  0  0  0  0  0  0  0
    9.1076    3.0943    0.9433 H   0  0  0  0  0  0  0  0  0  0  0  0
    8.7212    4.7969    0.8882 H   0  0  0  0  0  0  0  0  0  0  0  0
    7.5543    3.7684   -2.2254 H   0  0  0  0  0  0  0  0  0  0  0  0
    8.7550    3.9892   -4.3832 H   0  0  0  0  0  0  0  0  0  0  0  0
   11.2293    4.3309   -4.4178 H   0  0  0  0  0  0  0  0  0  0  0  0
   12.4854    4.4467   -2.2631 H   0  0  0  0  0  0  0  0  0  0  0  0
  1  2  1  0
  1 31  1  0
  1 32  1  0
  1 33  1  0
  2  3  1  0
  3  4  2  0
  3  5  1  0
  5  6  2  0
  5 10  1  0
  6  7  1  0
  6 34  1  0
  7  8  2  0
  7 35  1  0
  8  9  1  0
  8 36  1  0
  9 10  2  0
  9 21  1  0
 10 11  1  0
 11 12  2  0
 11 20  1  0
 12 13  1  0
 12 14  1  0
 13 37  1  0
 14 15  2  0
 14 38  1  0
 15 16  1  0
 15 19  1  0
 16 17  1  0
 16 18  1  0
 16 39  1  1
 17 40  1  0
 17 41  1  0
 17 42  1  0
 18 43  1  0
 18 44  1  0
 18 45  1  0
 19 20  2  0
 19 46  1  0
 20 21  1  0
 21 22  1  0
 22 23  1  0
 22 47  1  0
 22 48  1  0
 23 24  2  0
 23 28  1  0
 24 25  1  0
 24 49  1  0
 25 26  2  0
 25 50  1  0
 26 27  1  0
 26 51  1  0
 27 28  2  0
 27 52  1  0
 28 29  1  0
 29 30  3  0
M  END

