
     RDKit          3D

 32 33  0  0  0  0  0  0  0  0999 V2000
    0.8683    0.1812    0.4294 C   0  0  0  0  0  0  0  0  0  0  0  0
    2.2889    0.0655    0.1632 N   0  0  0  0  0  0  0  0  0  0  0  0
    2.7487   -1.2804   -0.1593 C   0  0  0  0  0  0  0  0  0  0  0  0
    2.4673   -1.7071   -1.6134 C   0  0  0  0  0  0  0  0  0  0  0  0
    3.0276   -0.6934   -2.6354 C   0  0  2  0  0  0  0  0  0  0  0  0
    4.5915   -0.7885   -2.7638 C   0  0  1  0  0  0  0  0  0  0  0  0
    5.0007   -2.1594   -3.1027 C   0  0  0  0  0  0  0  0  0  0  0  0
    5.3075   -3.2426   -3.3779 N   0  0  0  0  0  0  0  0  0  0  0  0
    5.1754    0.2092   -3.7571 C   0  0  0  0  0  0  0  0  0  0  0  0
    5.1754   -0.0186   -5.1451 C   0  0  0  0  0  0  0  0  0  0  0  0
    5.6575    0.8756   -6.0066 N   0  0  0  0  0  0  0  0  0  0  0  0
    6.1522    2.0034   -5.4929 C   0  0  0  0  0  0  0  0  0  0  0  0
    6.1628    2.2343   -4.1136 C   0  0  0  0  0  0  0  0  0  0  0  0
    5.6741    1.3410   -3.2514 N   0  0  0  0  0  0  0  0  0  0  0  0
    2.5501    0.7233   -2.2508 C   0  0  0  0  0  0  0  0  0  0  0  0
    2.8256    1.0500   -0.7702 C   0  0  0  0  0  0  0  0  0  0  0  0
    0.5836   -0.5175    1.2330 H   0  0  0  0  0  0  0  0  0  0  0  0
    0.1979   -0.0239   -0.4359 H   0  0  0  0  0  0  0  0  0  0  0  0
    0.6394    1.1997    0.7830 H   0  0  0  0  0  0  0  0  0  0  0  0
    2.2827   -1.9950    0.5381 H   0  0  0  0  0  0  0  0  0  0  0  0
    3.8361   -1.3302    0.0375 H   0  0  0  0  0  0  0  0  0  0  0  0
    1.3773   -1.7761   -1.7689 H   0  0  0  0  0  0  0  0  0  0  0  0
    2.8686   -2.7164   -1.7993 H   0  0  0  0  0  0  0  0  0  0  0  0
    2.6269   -0.9425   -3.6330 H   0  0  0  0  0  0  0  0  0  0  0  0
    5.0510   -0.5464   -1.7930 H   0  0  0  0  0  0  0  0  0  0  0  0
    4.7842   -0.9548   -5.5587 H   0  0  0  0  0  0  0  0  0  0  0  0
    6.5541    2.7461   -6.1911 H   0  0  0  0  0  0  0  0  0  0  0  0
    6.5768    3.1605   -3.6995 H   0  0  0  0  0  0  0  0  0  0  0  0
    1.4641    0.7700   -2.4401 H   0  0  0  0  0  0  0  0  0  0  0  0
    3.0075    1.4905   -2.8938 H   0  0  0  0  0  0  0  0  0  0  0  0
    2.4106    2.0402   -0.5218 H   0  0  0  0  0  0  0  0  0  0  0  0
    3.9165    1.1283   -0.6114 H   0  0  0  0  0  0  0  0  0  0  0  0
  1  2  1  0
  1 17  1  0
  1 18  1  0
  1 19  1  0
  2  3  1  0
  2 16  1  0
  3  4  1  0
  3 20  1  0
  3 21  1  0
  4  5  1  0
  4 22  1  0
  4 23  1  0
  5  6  1  0
  5 15  1  0
  5 24  1  6
  6  7  1  0
  6  9  1  0
  6 25  1  1
  7  8  3  0
  9 10  2  0
  9 14  1  0
 10 11  1  0
 10 26  1  0
 11 12  2  0
 12 13  1  0
 12 27  1  0
 13 14  2  0
 13 28  1  0
 15 16  1  0
 15 29  1  0
 15 30  1  0
 16 31  1  0
 16 32  1  0
M  END

