
     RDKit          3D

 68 69  0  0  0  0  0  0  0  0999 V2000
   14.3588    1.4292    3.1737 C   0  0  0  0  0  0  0  0  0  0  0  0
   12.9242    1.7932    3.5619 C   0  0  0  0  0  0  0  0  0  0  0  0
   12.0239    2.2725    2.4388 C   0  0  0  0  0  0  0  0  0  0  0  0
   12.5478    2.8509    1.2727 C   0  0  0  0  0  0  0  0  0  0  0  0
   11.7217    3.3031    0.2407 C   0  0  0  0  0  0  0  0  0  0  0  0
   10.3357    3.1912    0.3557 C   0  0  0  0  0  0  0  0  0  0  0  0
    9.7844    2.6341    1.5097 C   0  0  0  0  0  0  0  0  0  0  0  0
   10.6147    2.1709    2.5404 C   0  0  0  0  0  0  0  0  0  0  0  0
   10.0442    1.5710    3.7220 N   0  0  0  0  0  0  0  0  0  0  0  0
    9.8905    2.3632    4.9597 C   0  0  0  0  0  0  0  0  0  0  0  0
    8.9674    3.5836    4.7708 C   0  0  0  0  0  0  0  0  0  0  0  0
    9.4246    4.5484    4.1784 O   0  0  0  0  0  0  0  0  0  0  0  0
    7.6618    3.5469    5.2133 N   0  0  0  0  0  0  0  0  0  0  0  0
    6.8286    4.6676    4.7696 C   0  0  0  0  0  0  0  0  0  0  0  0
    6.7257    5.8724    5.6905 C   0  0  0  0  0  0  0  0  0  0  0  0
    7.3009    5.9179    6.9670 C   0  0  0  0  0  0  0  0  0  0  0  0
    7.1996    7.0515    7.7776 C   0  0  0  0  0  0  0  0  0  0  0  0
    6.5086    8.1700    7.3108 C   0  0  0  0  0  0  0  0  0  0  0  0
    6.3742    9.5995    8.3118 Cl  0  0  0  0  0  0  0  0  0  0  0  0
    5.9139    8.1631    6.0475 C   0  0  0  0  0  0  0  0  0  0  0  0
    6.0307    7.0169    5.2600 C   0  0  0  0  0  0  0  0  0  0  0  0
    5.2673    7.0323    3.6758 Cl  0  0  0  0  0  0  0  0  0  0  0  0
    7.0972    2.3657    5.8978 C   0  0  2  0  0  0  0  0  0  0  0  0
    7.2639    1.4821    5.2663 H   0  0  0  0  0  0  0  0  0  0  0  0
    5.5834    2.4569    6.1322 C   0  0  0  0  0  0  0  0  0  0  0  0
    7.7521    2.1150    7.2797 C   0  0  0  0  0  0  0  0  0  0  0  0
    7.9637    3.0175    8.0780 O   0  0  0  0  0  0  0  0  0  0  0  0
    7.9988    0.8079    7.5543 N   0  0  0  0  0  0  0  0  0  0  0  0
    8.4611    0.3614    8.8724 C   0  0  1  0  0  0  0  0  0  0  0  0
    9.1151    1.1631    9.2548 H   0  0  0  0  0  0  0  0  0  0  0  0
    7.2811    0.2160    9.8414 C   0  0  0  0  0  0  0  0  0  0  0  0
    9.2757   -0.9338    8.7552 C   0  0  0  0  0  0  0  0  0  0  0  0
   10.5638   -0.8202    7.9373 C   0  0  0  0  0  0  0  0  0  0  0  0
    9.0333    0.2257    3.5252 S   0  0  1  0  0  0  0  0  0  0  0  0
   10.0481   -0.9020    2.5675 C   0  0  0  0  0  0  0  0  0  0  0  0
    8.8455   -0.3567    4.8686 O   0  0  0  0  0  0  0  0  0  0  0  0
    7.8293    0.5276    2.7421 O   0  0  0  0  0  0  0  0  0  0  0  0
   14.8960    1.0213    4.0439 H   0  0  0  0  0  0  0  0  0  0  0  0
   14.9310    2.3019    2.8226 H   0  0  0  0  0  0  0  0  0  0  0  0
   14.3841    0.6697    2.3754 H   0  0  0  0  0  0  0  0  0  0  0  0
   12.9584    2.5767    4.3424 H   0  0  0  0  0  0  0  0  0  0  0  0
   12.4418    0.9308    4.0496 H   0  0  0  0  0  0  0  0  0  0  0  0
   13.6292    2.9474    1.1629 H   0  0  0  0  0  0  0  0  0  0  0  0
   12.1663    3.7461   -0.6541 H   0  0  0  0  0  0  0  0  0  0  0  0
    9.6806    3.5491   -0.4420 H   0  0  0  0  0  0  0  0  0  0  0  0
    8.7039    2.5447    1.6205 H   0  0  0  0  0  0  0  0  0  0  0  0
   10.8749    2.7830    5.2060 H   0  0  0  0  0  0  0  0  0  0  0  0
    9.6102    1.6773    5.7634 H   0  0  0  0  0  0  0  0  0  0  0  0
    5.8192    4.3032    4.5400 H   0  0  0  0  0  0  0  0  0  0  0  0
    7.2509    5.0164    3.8173 H   0  0  0  0  0  0  0  0  0  0  0  0
    7.8151    5.0330    7.3469 H   0  0  0  0  0  0  0  0  0  0  0  0
    7.6529    7.0642    8.7698 H   0  0  0  0  0  0  0  0  0  0  0  0
    5.3703    9.0327    5.6792 H   0  0  0  0  0  0  0  0  0  0  0  0
    5.2614    1.5576    6.6777 H   0  0  0  0  0  0  0  0  0  0  0  0
    5.0250    2.4859    5.1860 H   0  0  0  0  0  0  0  0  0  0  0  0
    5.3210    3.3350    6.7395 H   0  0  0  0  0  0  0  0  0  0  0  0
    7.9355    0.1334    6.7945 H   0  0  0  0  0  0  0  0  0  0  0  0
    6.7290    1.1644    9.9174 H   0  0  0  0  0  0  0  0  0  0  0  0
    7.6354   -0.0520   10.8497 H   0  0  0  0  0  0  0  0  0  0  0  0
    6.5853   -0.5694    9.5022 H   0  0  0  0  0  0  0  0  0  0  0  0
    8.6306   -1.7286    8.3354 H   0  0  0  0  0  0  0  0  0  0  0  0
    9.5174   -1.2594    9.7810 H   0  0  0  0  0  0  0  0  0  0  0  0
   10.3548   -0.6131    6.8771 H   0  0  0  0  0  0  0  0  0  0  0  0
   11.1385   -1.7591    7.9831 H   0  0  0  0  0  0  0  0  0  0  0  0
   11.2105   -0.0156    8.3251 H   0  0  0  0  0  0  0  0  0  0  0  0
   10.9440   -1.1543    3.1472 H   0  0  0  0  0  0  0  0  0  0  0  0
   10.3013   -0.4381    1.6069 H   0  0  0  0  0  0  0  0  0  0  0  0
    9.4140   -1.7853    2.4137 H   0  0  0  0  0  0  0  0  0  0  0  0
  1  2  1  0
  1 38  1  0
  1 39  1  0
  1 40  1  0
  2  3  1  0
  2 41  1  0
  2 42  1  0
  3  4  2  0
  3  8  1  0
  4  5  1  0
  4 43  1  0
  5  6  2  0
  5 44  1  0
  6  7  1  0
  6 45  1  0
  7  8  2  0
  7 46  1  0
  8  9  1  0
  9 10  1  0
 34  9  1  1
 10 11  1  0
 10 47  1  0
 10 48  1  0
 11 12  2  0
 11 13  1  0
 13 14  1  0
 13 23  1  0
 14 15  1  0
 14 49  1  0
 14 50  1  0
 15 16  2  0
 15 21  1  0
 16 17  1  0
 16 51  1  0
 17 18  2  0
 17 52  1  0
 18 19  1  0
 18 20  1  0
 20 21  2  0
 20 53  1  0
 21 22  1  0
 23 24  1  6
 23 25  1  0
 23 26  1  0
 25 54  1  0
 25 55  1  0
 25 56  1  0
 26 27  2  0
 26 28  1  0
 28 29  1  0
 28 57  1  0
 29 30  1  1
 29 31  1  0
 29 32  1  0
 31 58  1  0
 31 59  1  0
 31 60  1  0
 32 33  1  0
 32 61  1  0
 32 62  1  0
 33 63  1  0
 33 64  1  0
 33 65  1  0
 34 35  1  0
 34 36  2  0
 34 37  2  0
 35 66  1  0
 35 67  1  0
 35 68  1  0
M  END

