
     RDKit          3D

 46 47  0  0  0  0  0  0  0  0999 V2000
    0.6108    0.8352    0.3449 C   0  0  0  0  0  0  0  0  0  0  0  0
    2.0350    0.7035    0.6097 N   0  0  0  0  0  0  0  0  0  0  0  0
    2.4180    0.1949    1.9158 C   0  0  0  0  0  0  0  0  0  0  0  0
    2.3117   -1.3404    2.0486 C   0  0  0  0  0  0  0  0  0  0  0  0
    2.8268   -1.8289    3.3789 C   0  0  0  0  0  0  0  0  0  0  0  0
    2.0203   -2.5327    4.2911 C   0  0  0  0  0  0  0  0  0  0  0  0
    2.4780   -2.9624    5.4669 N   0  0  0  0  0  0  0  0  0  0  0  0
    3.7517   -2.6897    5.7514 C   0  0  0  0  0  0  0  0  0  0  0  0
    4.5638   -1.9829    4.8563 C   0  0  0  0  0  0  0  0  0  0  0  0
    4.1045   -1.5564    3.6809 N   0  0  0  0  0  0  0  0  0  0  0  0
    2.9277    0.9991   -0.3998 C   0  0  0  0  0  0  0  0  0  0  0  0
    2.5487    1.3663   -1.5037 O   0  0  0  0  0  0  0  0  0  0  0  0
    4.4190    0.8567   -0.0840 C   0  0  0  0  0  0  0  0  0  0  0  0
    5.3124    1.2397   -1.2665 C   0  0  0  0  0  0  0  0  0  0  0  0
    5.3914    2.7519   -1.4982 C   0  0  0  0  0  0  0  0  0  0  0  0
    5.8461    3.4754   -0.3665 O   0  0  0  0  0  0  0  0  0  0  0  0
    7.2340    3.4567   -0.1486 C   0  0  0  0  0  0  0  0  0  0  0  0
    7.6083    4.3862    0.9852 C   0  0  0  0  0  0  0  0  0  0  0  0
    8.8639    4.2675    1.6004 C   0  0  0  0  0  0  0  0  0  0  0  0
    9.2438    5.1419    2.6210 C   0  0  0  0  0  0  0  0  0  0  0  0
    8.3666    6.1448    3.0475 C   0  0  0  0  0  0  0  0  0  0  0  0
    7.1115    6.2639    2.4444 C   0  0  0  0  0  0  0  0  0  0  0  0
    6.7341    5.3919    1.4180 C   0  0  0  0  0  0  0  0  0  0  0  0
    0.1355    1.4801    1.1041 H   0  0  0  0  0  0  0  0  0  0  0  0
    0.0986   -0.1434    0.3561 H   0  0  0  0  0  0  0  0  0  0  0  0
    0.4839    1.2832   -0.6471 H   0  0  0  0  0  0  0  0  0  0  0  0
    1.7736    0.6702    2.6760 H   0  0  0  0  0  0  0  0  0  0  0  0
    3.4468    0.4885    2.1538 H   0  0  0  0  0  0  0  0  0  0  0  0
    2.9145   -1.8014    1.2478 H   0  0  0  0  0  0  0  0  0  0  0  0
    1.2719   -1.6716    1.9039 H   0  0  0  0  0  0  0  0  0  0  0  0
    0.9735   -2.7530    4.0500 H   0  0  0  0  0  0  0  0  0  0  0  0
    4.1444   -3.0367    6.7139 H   0  0  0  0  0  0  0  0  0  0  0  0
    5.6087   -1.7605    5.1020 H   0  0  0  0  0  0  0  0  0  0  0  0
    4.6262   -0.1789    0.2338 H   0  0  0  0  0  0  0  0  0  0  0  0
    4.6721    1.4950    0.7791 H   0  0  0  0  0  0  0  0  0  0  0  0
    4.9300    0.7757   -2.1890 H   0  0  0  0  0  0  0  0  0  0  0  0
    6.3230    0.8319   -1.0964 H   0  0  0  0  0  0  0  0  0  0  0  0
    4.3860    3.1348   -1.7235 H   0  0  0  0  0  0  0  0  0  0  0  0
    6.0400    2.9657   -2.3713 H   0  0  0  0  0  0  0  0  0  0  0  0
    7.7658    3.7713   -1.0738 H   0  0  0  0  0  0  0  0  0  0  0  0
    7.6003    2.4359    0.0837 H   0  0  0  0  0  0  0  0  0  0  0  0
    9.5527    3.4799    1.2782 H   0  0  0  0  0  0  0  0  0  0  0  0
   10.2258    5.0365    3.0898 H   0  0  0  0  0  0  0  0  0  0  0  0
    8.6601    6.8275    3.8492 H   0  0  0  0  0  0  0  0  0  0  0  0
    6.4183    7.0424    2.7746 H   0  0  0  0  0  0  0  0  0  0  0  0
    5.7546    5.4757    0.9455 H   0  0  0  0  0  0  0  0  0  0  0  0
  1  2  1  0
  1 24  1  0
  1 25  1  0
  1 26  1  0
  2  3  1  0
  2 11  1  0
  3  4  1  0
  3 27  1  0
  3 28  1  0
  4  5  1  0
  4 29  1  0
  4 30  1  0
  5  6  2  0
  5 10  1  0
  6  7  1  0
  6 31  1  0
  7  8  2  0
  8  9  1  0
  8 32  1  0
  9 10  2  0
  9 33  1  0
 11 12  2  0
 11 13  1  0
 13 14  1  0
 13 34  1  0
 13 35  1  0
 14 15  1  0
 14 36  1  0
 14 37  1  0
 15 16  1  0
 15 38  1  0
 15 39  1  0
 16 17  1  0
 17 18  1  0
 17 40  1  0
 17 41  1  0
 18 19  2  0
 18 23  1  0
 19 20  1  0
 19 42  1  0
 20 21  2  0
 20 43  1  0
 21 22  1  0
 21 44  1  0
 22 23  2  0
 22 45  1  0
 23 46  1  0
M  END

