
     RDKit          3D

 28 30  0  0  0  0  0  0  0  0999 V2000
    3.3873   -0.4703   -0.4996 O   0  0  0  0  0  0  0  0  0  0  0  0
    2.7754   -0.4046    0.5487 C   0  0  0  0  0  0  0  0  0  0  0  0
    3.4065   -0.9631    1.8274 C   0  0  0  0  0  0  0  0  0  0  0  0
    2.5727   -0.6503    3.4266 S   0  0  0  0  0  0  0  0  0  0  0  0
    3.1424    0.9865    3.6932 C   0  0  0  0  0  0  0  0  0  0  0  0
    3.9463    1.7067    2.9769 N   0  0  0  0  0  0  0  0  0  0  0  0
    4.0762    2.9151    3.6376 N   0  0  0  0  0  0  0  0  0  0  0  0
    3.3392    2.8358    4.7049 C   0  0  0  0  0  0  0  0  0  0  0  0
    3.1359    3.8344    5.7250 C   0  0  0  0  0  0  0  0  0  0  0  0
    3.6362    5.1073    5.8637 C   0  0  0  0  0  0  0  0  0  0  0  0
    3.0778    5.6148    7.0758 C   0  0  0  0  0  0  0  0  0  0  0  0
    2.2860    4.6166    7.5769 C   0  0  0  0  0  0  0  0  0  0  0  0
    2.3146    3.5340    6.7658 O   0  0  0  0  0  0  0  0  0  0  0  0
    2.7094    1.6264    4.8057 O   0  0  0  0  0  0  0  0  0  0  0  0
    1.5134    0.1106    0.6465 N   0  0  0  0  0  0  0  0  0  0  0  0
    0.7782    0.6390   -0.4059 C   0  0  0  0  0  0  0  0  0  0  0  0
   -0.4205    1.1123   -0.2187 N   0  0  0  0  0  0  0  0  0  0  0  0
   -0.9425    1.5748   -1.3998 C   0  0  0  0  0  0  0  0  0  0  0  0
   -0.1354    1.4520   -2.4964 C   0  0  0  0  0  0  0  0  0  0  0  0
    1.3778    0.7155   -2.0515 S   0  0  0  0  0  0  0  0  0  0  0  0
    4.4360   -0.5844    1.8768 H   0  0  0  0  0  0  0  0  0  0  0  0
    3.4497   -2.0593    1.7350 H   0  0  0  0  0  0  0  0  0  0  0  0
    4.3163    5.6018    5.1747 H   0  0  0  0  0  0  0  0  0  0  0  0
    3.2427    6.5947    7.5180 H   0  0  0  0  0  0  0  0  0  0  0  0
    1.6646    4.5310    8.4644 H   0  0  0  0  0  0  0  0  0  0  0  0
    1.0481    0.1358    1.5515 H   0  0  0  0  0  0  0  0  0  0  0  0
   -1.9456    2.0053   -1.4079 H   0  0  0  0  0  0  0  0  0  0  0  0
   -0.3360    1.7472   -3.5248 H   0  0  0  0  0  0  0  0  0  0  0  0
  1  2  2  0
  2  3  1  0
  2 15  1  0
  3  4  1  0
  3 21  1  0
  3 22  1  0
  4  5  1  0
  5  6  2  0
  5 14  1  0
  6  7  1  0
  7  8  2  0
  8  9  1  0
  8 14  1  0
  9 10  2  0
  9 13  1  0
 10 11  1  0
 10 23  1  0
 11 12  2  0
 11 24  1  0
 12 13  1  0
 12 25  1  0
 15 16  1  0
 15 26  1  0
 16 17  2  0
 16 20  1  0
 17 18  1  0
 18 19  2  0
 18 27  1  0
 19 20  1  0
 19 28  1  0
M  END

