
     RDKit          3D

 50 51  0  0  0  0  0  0  0  0999 V2000
    3.5797   -1.2240    0.9237 C   0  0  0  0  0  0  0  0  0  0  0  0
    3.6701   -1.4327   -0.5865 C   0  0  1  0  0  0  0  0  0  0  0  0
    4.7402   -1.4005   -0.8594 H   0  0  0  0  0  0  0  0  0  0  0  0
    3.1121   -2.7664   -1.1511 C   0  0  1  0  0  0  0  0  0  0  0  0
    1.6100   -2.9197   -0.8191 C   0  0  0  0  0  0  0  0  0  0  0  0
    0.9332   -1.8562   -1.7412 C   0  0  0  0  0  0  0  0  0  0  0  0
    2.1344   -1.2145   -2.4726 C   0  0  2  0  0  0  0  0  0  0  0  0
    3.0601   -2.4369   -2.6562 C   0  0  0  0  0  0  0  0  0  0  0  0
    2.9236   -0.3503   -1.4472 C   0  0  2  0  0  0  0  0  0  0  0  0
    2.2108    0.1861   -0.7932 H   0  0  0  0  0  0  0  0  0  0  0  0
    3.8794    0.6840   -2.0599 C   0  0  0  0  0  0  0  0  0  0  0  0
    3.1971    1.9039   -2.6879 C   0  0  1  0  0  0  0  0  0  0  0  0
    2.4690    1.5692   -3.4548 H   0  0  0  0  0  0  0  0  0  0  0  0
    2.5110    2.6755   -1.7004 O   0  0  0  0  0  0  0  0  0  0  0  0
    4.2039    2.8463   -3.3860 C   0  0  1  0  0  0  0  0  0  0  0  0
    5.0867    2.9621   -2.7306 H   0  0  0  0  0  0  0  0  0  0  0  0
    4.6627    2.2945   -4.7391 C   0  0  0  0  0  0  0  0  0  0  0  0
    3.5688    4.1600   -3.5205 N   0  0  0  0  0  0  0  0  0  0  0  0
    4.2160    5.2851   -3.8879 C   0  0  0  0  0  0  0  0  0  0  0  0
    5.3673    5.2759   -4.3299 O   0  0  0  0  0  0  0  0  0  0  0  0
    3.4069    6.5868   -3.7111 C   0  0  1  0  0  0  0  0  0  0  0  0
    2.4781    6.4732   -4.3136 H   0  0  0  0  0  0  0  0  0  0  0  0
    3.1558    6.7731   -2.2782 N   0  0  0  0  0  0  0  0  0  0  0  0
    4.1722    7.8171   -4.2246 C   0  0  0  0  0  0  0  0  0  0  0  0
    4.3248    7.9196   -5.7451 C   0  0  0  0  0  0  0  0  0  0  0  0
    3.7351    8.7424   -6.3997 O   0  0  0  0  0  0  0  0  0  0  0  0
    5.1643    7.0435   -6.3053 O   0  0  0  0  0  0  0  0  0  0  0  0
    4.1074   -2.0220    1.4715 H   0  0  0  0  0  0  0  0  0  0  0  0
    2.5372   -1.2063    1.2803 H   0  0  0  0  0  0  0  0  0  0  0  0
    4.0402   -0.2656    1.2153 H   0  0  0  0  0  0  0  0  0  0  0  0
    3.7192   -3.6394   -0.8665 H   0  0  0  0  0  0  0  0  0  0  0  0
    1.3901   -2.7651    0.2474 H   0  0  0  0  0  0  0  0  0  0  0  0
    1.2676   -3.9365   -1.0671 H   0  0  0  0  0  0  0  0  0  0  0  0
    0.3459   -1.1135   -1.1775 H   0  0  0  0  0  0  0  0  0  0  0  0
    0.2480   -2.3302   -2.4614 H   0  0  0  0  0  0  0  0  0  0  0  0
    1.8537   -0.6792   -3.3926 H   0  0  0  0  0  0  0  0  0  0  0  0
    4.0455   -2.1912   -3.0833 H   0  0  0  0  0  0  0  0  0  0  0  0
    2.6060   -3.2329   -3.2682 H   0  0  0  0  0  0  0  0  0  0  0  0
    4.5106    0.1893   -2.8162 H   0  0  0  0  0  0  0  0  0  0  0  0
    4.5607    1.0568   -1.2750 H   0  0  0  0  0  0  0  0  0  0  0  0
    1.8113    2.1314   -1.3177 H   0  0  0  0  0  0  0  0  0  0  0  0
    5.1497    1.3150   -4.6213 H   0  0  0  0  0  0  0  0  0  0  0  0
    5.3847    2.9828   -5.1958 H   0  0  0  0  0  0  0  0  0  0  0  0
    3.8064    2.1792   -5.4230 H   0  0  0  0  0  0  0  0  0  0  0  0
    2.6865    4.2429   -3.0247 H   0  0  0  0  0  0  0  0  0  0  0  0
    2.6788    5.9741   -1.8623 H   0  0  0  0  0  0  0  0  0  0  0  0
    2.5532    7.5830   -2.1326 H   0  0  0  0  0  0  0  0  0  0  0  0
    5.1605    7.8305   -3.7389 H   0  0  0  0  0  0  0  0  0  0  0  0
    3.6231    8.7168   -3.9145 H   0  0  0  0  0  0  0  0  0  0  0  0
    5.4857    6.4097   -5.6190 H   0  0  0  0  0  0  0  0  0  0  0  0
  1  2  1  0
  1 28  1  0
  1 29  1  0
  1 30  1  0
  2  3  1  6
  2  4  1  0
  2  9  1  0
  4  5  1  0
  4  8  1  0
  4 31  1  6
  5  6  1  0
  5 32  1  0
  5 33  1  0
  6  7  1  0
  6 34  1  0
  6 35  1  0
  7  8  1  0
  7  9  1  0
  7 36  1  6
  8 37  1  0
  8 38  1  0
  9 10  1  1
  9 11  1  0
 11 12  1  0
 11 39  1  0
 11 40  1  0
 12 13  1  6
 12 14  1  0
 12 15  1  0
 14 41  1  0
 15 16  1  1
 15 17  1  0
 15 18  1  0
 17 42  1  0
 17 43  1  0
 17 44  1  0
 18 19  1  0
 18 45  1  0
 19 20  2  0
 19 21  1  0
 21 22  1  6
 21 23  1  0
 21 24  1  0
 23 46  1  0
 23 47  1  0
 24 25  1  0
 24 48  1  0
 24 49  1  0
 25 26  2  0
 25 27  1  0
 27 50  1  0
M  END

