
     RDKit          3D

 56 59  0  0  0  0  0  0  0  0999 V2000
    1.2790    1.1773   -1.2137 C   0  0  0  0  0  0  0  0  0  0  0  0
    2.7055    0.8793   -0.8813 C   0  0  0  0  0  0  0  0  0  0  0  0
    3.6403    1.6974   -0.2973 C   0  0  0  0  0  0  0  0  0  0  0  0
    4.8217    0.9579   -0.2289 N   0  0  0  0  0  0  0  0  0  0  0  0
    6.0214    1.3800    0.3652 C   0  0  0  0  0  0  0  0  0  0  0  0
    6.0438    2.3822    1.3115 C   0  0  0  0  0  0  0  0  0  0  0  0
    7.2606    2.8516    1.8594 C   0  0  0  0  0  0  0  0  0  0  0  0
    8.4414    2.2917    1.4460 C   0  0  0  0  0  0  0  0  0  0  0  0
    8.4330    1.2739    0.5256 N   0  0  0  0  0  0  0  0  0  0  0  0
    7.2711    0.7322   -0.0586 C   0  0  0  0  0  0  0  0  0  0  0  0
    7.3560   -0.2094   -0.8392 O   0  0  0  0  0  0  0  0  0  0  0  0
    9.6987    0.6312    0.1942 C   0  0  0  0  0  0  0  0  0  0  0  0
   10.8465    1.6316    0.0843 C   0  0  2  0  0  0  0  0  0  0  0  0
   12.1716    0.8739   -0.2076 C   0  0  1  0  0  0  0  0  0  0  0  0
   12.0397   -0.2210   -1.2688 C   0  0  0  0  0  0  0  0  0  0  0  0
   13.2090    1.7676   -0.5735 O   0  0  0  0  0  0  0  0  0  0  0  0
   10.8990    2.4501    1.3161 N   0  0  0  0  0  0  0  0  0  0  0  0
   12.1256    3.1335    1.7740 C   0  0  0  0  0  0  0  0  0  0  0  0
   12.4086    4.4701    1.0998 C   0  0  0  0  0  0  0  0  0  0  0  0
   11.5508    5.5683    1.2878 C   0  0  0  0  0  0  0  0  0  0  0  0
   11.8224    6.7939    0.6753 C   0  0  0  0  0  0  0  0  0  0  0  0
   10.8537    7.9410    0.8424 C   0  0  1  0  0  0  0  0  0  0  0  0
   10.2610    7.9230    2.0469 F   0  0  0  0  0  0  0  0  0  0  0  0
   11.4608    9.1320    0.7034 F   0  0  0  0  0  0  0  0  0  0  0  0
    9.8721    7.8901   -0.0798 F   0  0  0  0  0  0  0  0  0  0  0  0
   12.9594    6.9563   -0.1239 C   0  0  0  0  0  0  0  0  0  0  0  0
   13.8216    5.8750   -0.2990 C   0  0  0  0  0  0  0  0  0  0  0  0
   15.0610    5.9983   -1.1511 C   0  0  1  0  0  0  0  0  0  0  0  0
   15.1899    7.2190   -1.6921 F   0  0  0  0  0  0  0  0  0  0  0  0
   16.1759    5.7495   -0.4414 F   0  0  0  0  0  0  0  0  0  0  0  0
   15.0424    5.1081   -2.1652 F   0  0  0  0  0  0  0  0  0  0  0  0
   13.5500    4.6425    0.3090 C   0  0  0  0  0  0  0  0  0  0  0  0
    9.7430    2.8119    1.9734 C   0  0  0  0  0  0  0  0  0  0  0  0
    9.7393    3.5709    2.9350 O   0  0  0  0  0  0  0  0  0  0  0  0
    4.5168   -0.2811   -0.7782 C   0  0  0  0  0  0  0  0  0  0  0  0
    3.2725   -0.3498   -1.1653 N   0  0  0  0  0  0  0  0  0  0  0  0
    1.0023    2.2022   -0.9264 H   0  0  0  0  0  0  0  0  0  0  0  0
    0.6040    0.4760   -0.6959 H   0  0  0  0  0  0  0  0  0  0  0  0
    1.0969    1.0563   -2.2942 H   0  0  0  0  0  0  0  0  0  0  0  0
    3.5844    2.7317    0.0278 H   0  0  0  0  0  0  0  0  0  0  0  0
    5.1051    2.8212    1.6523 H   0  0  0  0  0  0  0  0  0  0  0  0
    7.2938    3.6491    2.5996 H   0  0  0  0  0  0  0  0  0  0  0  0
    9.5374    0.1047   -0.7512 H   0  0  0  0  0  0  0  0  0  0  0  0
    9.9332   -0.1276    0.9633 H   0  0  0  0  0  0  0  0  0  0  0  0
   10.6557    2.2899   -0.7887 H   0  0  0  0  0  0  0  0  0  0  0  0
   12.5069    0.4118    0.7365 H   0  0  0  0  0  0  0  0  0  0  0  0
   11.5989    0.1734   -2.2009 H   0  0  0  0  0  0  0  0  0  0  0  0
   11.4295   -1.0731   -0.9381 H   0  0  0  0  0  0  0  0  0  0  0  0
   13.0471   -0.5957   -1.4999 H   0  0  0  0  0  0  0  0  0  0  0  0
   13.0222    2.1226   -1.4545 H   0  0  0  0  0  0  0  0  0  0  0  0
   12.9822    2.4676    1.6406 H   0  0  0  0  0  0  0  0  0  0  0  0
   11.9824    3.3034    2.8490 H   0  0  0  0  0  0  0  0  0  0  0  0
   10.6794    5.4632    1.9355 H   0  0  0  0  0  0  0  0  0  0  0  0
   13.1735    7.9159   -0.5941 H   0  0  0  0  0  0  0  0  0  0  0  0
   14.2282    3.8018    0.1595 H   0  0  0  0  0  0  0  0  0  0  0  0
    5.2696   -1.0591   -0.8596 H   0  0  0  0  0  0  0  0  0  0  0  0
  1  2  1  0
  1 37  1  0
  1 38  1  0
  1 39  1  0
  2  3  2  0
  2 36  1  0
  3  4  1  0
  3 40  1  0
  4  5  1  0
  4 35  1  0
  5  6  2  0
  5 10  1  0
  6  7  1  0
  6 41  1  0
  7  8  2  0
  7 42  1  0
  8  9  1  0
  8 33  1  0
  9 10  1  0
  9 12  1  0
 10 11  2  0
 12 13  1  0
 12 43  1  0
 12 44  1  0
 13 14  1  0
 13 17  1  0
 13 45  1  6
 14 15  1  0
 14 16  1  0
 14 46  1  1
 15 47  1  0
 15 48  1  0
 15 49  1  0
 16 50  1  0
 17 18  1  0
 17 33  1  0
 18 19  1  0
 18 51  1  0
 18 52  1  0
 19 20  2  0
 19 32  1  0
 20 21  1  0
 20 53  1  0
 21 22  1  0
 21 26  2  0
 22 23  1  1
 22 24  1  0
 22 25  1  0
 26 27  1  0
 26 54  1  0
 27 28  1  0
 27 32  2  0
 28 29  1  6
 28 30  1  0
 28 31  1  0
 32 55  1  0
 33 34  2  0
 35 36  2  0
 35 56  1  0
M  END

