
     RDKit          3D

 48 50  0  0  0  0  0  0  0  0999 V2000
    2.1874   -4.5766   -1.9163 C   0  0  0  0  0  0  0  0  0  0  0  0
    3.5158   -3.8761   -1.7637 C   0  0  0  0  0  0  0  0  0  0  0  0
    4.6290   -4.2649   -2.5329 C   0  0  0  0  0  0  0  0  0  0  0  0
    5.8608   -3.6323   -2.4027 C   0  0  0  0  0  0  0  0  0  0  0  0
    6.0176   -2.5787   -1.4879 C   0  0  0  0  0  0  0  0  0  0  0  0
    7.2613   -2.0111   -1.4221 O   0  0  0  0  0  0  0  0  0  0  0  0
    7.5017   -0.9462   -0.5288 C   0  0  0  0  0  0  0  0  0  0  0  0
    8.9520   -0.4621   -0.6142 C   0  0  0  0  0  0  0  0  0  0  0  0
    9.3131    0.4552    0.0992 O   0  0  0  0  0  0  0  0  0  0  0  0
    9.7199   -1.1384   -1.5187 N   0  0  0  0  0  0  0  0  0  0  0  0
   11.0746   -0.9546   -1.8434 C   0  0  0  0  0  0  0  0  0  0  0  0
   11.8824    0.0294   -1.2452 C   0  0  0  0  0  0  0  0  0  0  0  0
   13.2195    0.1474   -1.6262 C   0  0  0  0  0  0  0  0  0  0  0  0
   13.7774   -0.6999   -2.5919 C   0  0  0  0  0  0  0  0  0  0  0  0
   15.4731   -0.4842   -3.1202 S   0  0  0  0  0  0  0  0  0  0  0  0
   16.3792   -1.5576   -2.0162 C   0  0  0  0  0  0  0  0  0  0  0  0
   15.7331   -2.2660   -1.0960 N   0  0  0  0  0  0  0  0  0  0  0  0
   16.4768   -3.0477   -0.3004 C   0  0  0  0  0  0  0  0  0  0  0  0
   15.7438   -3.8459    0.7428 C   0  0  0  0  0  0  0  0  0  0  0  0
   17.8683   -3.1033   -0.4487 C   0  0  0  0  0  0  0  0  0  0  0  0
   18.4513   -2.3162   -1.4536 C   0  0  0  0  0  0  0  0  0  0  0  0
   19.9352   -2.2946   -1.7002 C   0  0  0  0  0  0  0  0  0  0  0  0
   17.6952   -1.5410   -2.2387 N   0  0  0  0  0  0  0  0  0  0  0  0
   12.9673   -1.6744   -3.1904 C   0  0  0  0  0  0  0  0  0  0  0  0
   11.6317   -1.8019   -2.8192 C   0  0  0  0  0  0  0  0  0  0  0  0
    4.9268   -2.1728   -0.7120 C   0  0  0  0  0  0  0  0  0  0  0  0
    3.6946   -2.8241   -0.8593 C   0  0  0  0  0  0  0  0  0  0  0  0
    1.8210   -4.5251   -2.9553 H   0  0  0  0  0  0  0  0  0  0  0  0
    1.4189   -4.1298   -1.2684 H   0  0  0  0  0  0  0  0  0  0  0  0
    2.2632   -5.6460   -1.6558 H   0  0  0  0  0  0  0  0  0  0  0  0
    4.5274   -5.0834   -3.2517 H   0  0  0  0  0  0  0  0  0  0  0  0
    6.7189   -3.9404   -3.0040 H   0  0  0  0  0  0  0  0  0  0  0  0
    7.3179   -1.2440    0.5195 H   0  0  0  0  0  0  0  0  0  0  0  0
    6.8539   -0.0775   -0.7459 H   0  0  0  0  0  0  0  0  0  0  0  0
    9.2280   -1.8747   -2.0166 H   0  0  0  0  0  0  0  0  0  0  0  0
   11.4531    0.6875   -0.4931 H   0  0  0  0  0  0  0  0  0  0  0  0
   13.8439    0.9138   -1.1619 H   0  0  0  0  0  0  0  0  0  0  0  0
   15.1955   -3.1676    1.4162 H   0  0  0  0  0  0  0  0  0  0  0  0
   16.4224   -4.4715    1.3392 H   0  0  0  0  0  0  0  0  0  0  0  0
   14.9896   -4.4887    0.2615 H   0  0  0  0  0  0  0  0  0  0  0  0
   18.4792   -3.7381    0.1956 H   0  0  0  0  0  0  0  0  0  0  0  0
   20.4745   -2.9940   -1.0462 H   0  0  0  0  0  0  0  0  0  0  0  0
   20.3273   -1.2779   -1.5359 H   0  0  0  0  0  0  0  0  0  0  0  0
   20.1445   -2.5475   -2.7515 H   0  0  0  0  0  0  0  0  0  0  0  0
   13.3889   -2.3362   -3.9498 H   0  0  0  0  0  0  0  0  0  0  0  0
   11.0082   -2.5669   -3.2913 H   0  0  0  0  0  0  0  0  0  0  0  0
    5.0158   -1.3576    0.0064 H   0  0  0  0  0  0  0  0  0  0  0  0
    2.8518   -2.4942   -0.2453 H   0  0  0  0  0  0  0  0  0  0  0  0
  1  2  1  0
  1 28  1  0
  1 29  1  0
  1 30  1  0
  2  3  2  0
  2 27  1  0
  3  4  1  0
  3 31  1  0
  4  5  2  0
  4 32  1  0
  5  6  1  0
  5 26  1  0
  6  7  1  0
  7  8  1  0
  7 33  1  0
  7 34  1  0
  8  9  2  0
  8 10  1  0
 10 11  1  0
 10 35  1  0
 11 12  2  0
 11 25  1  0
 12 13  1  0
 12 36  1  0
 13 14  2  0
 13 37  1  0
 14 15  1  0
 14 24  1  0
 15 16  1  0
 16 17  2  0
 16 23  1  0
 17 18  1  0
 18 19  1  0
 18 20  2  0
 19 38  1  0
 19 39  1  0
 19 40  1  0
 20 21  1  0
 20 41  1  0
 21 22  1  0
 21 23  2  0
 22 42  1  0
 22 43  1  0
 22 44  1  0
 24 25  2  0
 24 45  1  0
 25 46  1  0
 26 27  2  0
 26 47  1  0
 27 48  1  0
M  END

