
     RDKit          3D

146152  0  0  0  0  0  0  0  0999 V2000
    2.4200    8.1393    1.4295 C   0  0  0  0  0  0  0  0  0  0  0  0
    3.0327    6.9706    2.2029 C   0  0  0  0  0  0  0  0  0  0  0  0
    4.5442    7.1095    2.4082 C   0  0  0  0  0  0  0  0  0  0  0  0
    5.1954    5.9610    3.1973 C   0  0  0  0  0  0  0  0  0  0  0  0
    5.1108    4.6451    2.5702 N   0  0  0  0  0  0  0  0  0  0  0  0
    4.1216    3.7000    3.0799 C   0  0  0  0  0  0  0  0  0  0  0  0
    4.6812    2.5811    3.9748 C   0  0  0  0  0  0  0  0  0  0  0  0
    5.3303    3.0649    5.2750 C   0  0  0  0  0  0  0  0  0  0  0  0
    5.8599    1.9237    6.1449 C   0  0  0  0  0  0  0  0  0  0  0  0
    5.9465    4.3027    1.5157 C   0  0  0  0  0  0  0  0  0  0  0  0
    6.9866    5.1642    1.0760 C   0  0  0  0  0  0  0  0  0  0  0  0
    7.8273    4.8066    0.0270 C   0  0  0  0  0  0  0  0  0  0  0  0
    7.6947    3.5922   -0.6669 C   0  0  0  0  0  0  0  0  0  0  0  0
    8.6581    3.1890   -1.7178 C   0  0  0  0  0  0  0  0  0  0  0  0
    9.1633    4.0245   -2.6525 C   0  0  0  0  0  0  0  0  0  0  0  0
   10.2781    3.8778   -3.6127 C   0  0  0  0  0  0  0  0  0  0  0  0
   10.8913    5.1095   -3.9284 C   0  0  0  0  0  0  0  0  0  0  0  0
   12.0542    5.2685   -4.6879 C   0  0  0  0  0  0  0  0  0  0  0  0
   12.5776    6.6721   -4.9260 C   0  0  0  0  0  0  0  0  0  0  0  0
   11.7274    7.5068   -5.9243 C   0  0  0  0  0  0  0  0  0  0  0  0
   12.4219    8.7919   -6.3338 C   0  0  0  0  0  0  0  0  0  0  0  0
   12.5944    9.7887   -5.3575 C   0  0  0  0  0  0  0  0  0  0  0  0
   13.2671   10.9786   -5.6224 C   0  0  0  0  0  0  0  0  0  0  0  0
   13.7884   11.1934   -6.9013 C   0  0  0  0  0  0  0  0  0  0  0  0
   14.5736   12.4434   -7.2026 C   0  0  1  0  0  0  0  0  0  0  0  0
   14.1621   13.4866   -6.4586 F   0  0  0  0  0  0  0  0  0  0  0  0
   15.8884   12.2803   -6.9482 F   0  0  0  0  0  0  0  0  0  0  0  0
   14.4721   12.8050   -8.4951 F   0  0  0  0  0  0  0  0  0  0  0  0
   13.6082   10.2231   -7.8893 C   0  0  0  0  0  0  0  0  0  0  0  0
   12.9283    9.0204   -7.6376 C   0  0  0  0  0  0  0  0  0  0  0  0
   12.7421    8.0513   -8.7936 C   0  0  0  0  0  0  0  0  0  0  0  0
   13.5204    6.7256   -8.7109 C   0  0  0  0  0  0  0  0  0  0  0  0
   13.4763    5.9245  -10.0186 C   0  0  0  0  0  0  0  0  0  0  0  0
   13.7924    4.4219   -9.8691 C   0  0  0  0  0  0  0  0  0  0  0  0
   15.1497    4.0708   -9.2760 C   0  0  0  0  0  0  0  0  0  0  0  0
   16.2812    4.3747  -10.0500 C   0  0  0  0  0  0  0  0  0  0  0  0
   17.6035    4.0876   -9.6412 C   0  0  0  0  0  0  0  0  0  0  0  0
   18.7051    4.4040  -10.4303 N   0  0  0  0  0  0  0  0  0  0  0  0
   18.5475    5.1478  -11.6751 C   0  0  0  0  0  0  0  0  0  0  0  0
   18.3267    6.6621  -11.5159 C   0  0  0  0  0  0  0  0  0  0  0  0
   19.4927    7.4154  -10.8686 C   0  0  0  0  0  0  0  0  0  0  0  0
   19.2428    8.9189  -10.7403 C   0  0  0  0  0  0  0  0  0  0  0  0
   20.0490    3.9971  -10.0337 C   0  0  0  0  0  0  0  0  0  0  0  0
   20.3954    2.5202  -10.2905 C   0  0  0  0  0  0  0  0  0  0  0  0
   20.3830    2.1050  -11.7647 C   0  0  0  0  0  0  0  0  0  0  0  0
   20.7479    0.6352  -11.9800 C   0  0  0  0  0  0  0  0  0  0  0  0
   17.7418    3.4463   -8.3850 C   0  0  0  0  0  0  0  0  0  0  0  0
   16.6225    3.1390   -7.6204 C   0  0  0  0  0  0  0  0  0  0  0  0
   15.3093    3.4361   -8.0222 C   0  0  0  0  0  0  0  0  0  0  0  0
   14.1686    3.0972   -7.0796 C   0  0  0  0  0  0  0  0  0  0  0  0
   13.9890    4.1529   -5.9634 C   0  0  0  0  0  0  0  0  0  0  0  0
   12.6862    4.1043   -5.1836 C   0  0  0  0  0  0  0  0  0  0  0  0
   12.0676    2.8791   -4.9156 C   0  0  0  0  0  0  0  0  0  0  0  0
   10.8644    2.7059   -4.1946 C   0  0  0  0  0  0  0  0  0  0  0  0
   10.3750    1.3118   -4.2470 C   0  0  0  0  0  0  0  0  0  0  0  0
    9.1372    0.7775   -4.1658 C   0  0  0  0  0  0  0  0  0  0  0  0
    8.8299   -0.6441   -4.4684 C   0  0  0  0  0  0  0  0  0  0  0  0
    9.3841   -1.2767   -5.5960 C   0  0  0  0  0  0  0  0  0  0  0  0
    9.0414   -2.5827   -5.9404 C   0  0  0  0  0  0  0  0  0  0  0  0
    8.1143   -3.2875   -5.1604 C   0  0  0  0  0  0  0  0  0  0  0  0
    7.7742   -4.7139   -5.5088 C   0  0  1  0  0  0  0  0  0  0  0  0
    7.7452   -4.9095   -6.8403 F   0  0  0  0  0  0  0  0  0  0  0  0
    8.6809   -5.5789   -5.0106 F   0  0  0  0  0  0  0  0  0  0  0  0
    6.5757   -5.0822   -5.0210 F   0  0  0  0  0  0  0  0  0  0  0  0
    7.5525   -2.6862   -4.0335 C   0  0  0  0  0  0  0  0  0  0  0  0
    7.9078   -1.3798   -3.6633 C   0  0  0  0  0  0  0  0  0  0  0  0
    7.4230   -0.7169   -2.4560 C   0  0  0  0  0  0  0  0  0  0  0  0
    6.2616   -0.7831   -1.7591 C   0  0  0  0  0  0  0  0  0  0  0  0
    6.0066    0.2651   -0.7631 C   0  0  0  0  0  0  0  0  0  0  0  0
    6.4586    1.5128   -1.0416 C   0  0  0  0  0  0  0  0  0  0  0  0
    6.6359    2.7302   -0.2528 C   0  0  0  0  0  0  0  0  0  0  0  0
    5.8027    3.0804    0.8166 C   0  0  0  0  0  0  0  0  0  0  0  0
    1.3340    8.0110    1.2962 H   0  0  0  0  0  0  0  0  0  0  0  0
    2.8691    8.2339    0.4268 H   0  0  0  0  0  0  0  0  0  0  0  0
    2.5801    9.0967    1.9535 H   0  0  0  0  0  0  0  0  0  0  0  0
    2.8241    6.0286    1.6665 H   0  0  0  0  0  0  0  0  0  0  0  0
    2.5360    6.8793    3.1868 H   0  0  0  0  0  0  0  0  0  0  0  0
    4.7569    8.0499    2.9497 H   0  0  0  0  0  0  0  0  0  0  0  0
    5.0364    7.2063    1.4253 H   0  0  0  0  0  0  0  0  0  0  0  0
    4.7146    5.8865    4.1843 H   0  0  0  0  0  0  0  0  0  0  0  0
    6.2502    6.2098    3.4043 H   0  0  0  0  0  0  0  0  0  0  0  0
    3.5621    3.2534    2.2402 H   0  0  0  0  0  0  0  0  0  0  0  0
    3.3785    4.2771    3.6506 H   0  0  0  0  0  0  0  0  0  0  0  0
    5.4131    1.9842    3.4041 H   0  0  0  0  0  0  0  0  0  0  0  0
    3.8474    1.8950    4.2132 H   0  0  0  0  0  0  0  0  0  0  0  0
    4.5966    3.6580    5.8521 H   0  0  0  0  0  0  0  0  0  0  0  0
    6.1580    3.7542    5.0332 H   0  0  0  0  0  0  0  0  0  0  0  0
    5.0523    1.2306    6.4348 H   0  0  0  0  0  0  0  0  0  0  0  0
    6.3217    2.3018    7.0709 H   0  0  0  0  0  0  0  0  0  0  0  0
    6.6229    1.3344    5.6094 H   0  0  0  0  0  0  0  0  0  0  0  0
    7.1580    6.1205    1.5673 H   0  0  0  0  0  0  0  0  0  0  0  0
    8.6427    5.4834   -0.2411 H   0  0  0  0  0  0  0  0  0  0  0  0
    9.0107    2.1537   -1.6867 H   0  0  0  0  0  0  0  0  0  0  0  0
    8.7645    5.0461   -2.6372 H   0  0  0  0  0  0  0  0  0  0  0  0
   10.4361    6.0115   -3.5083 H   0  0  0  0  0  0  0  0  0  0  0  0
   13.6153    6.6456   -5.2827 H   0  0  0  0  0  0  0  0  0  0  0  0
   12.6125    7.2096   -3.9637 H   0  0  0  0  0  0  0  0  0  0  0  0
   10.7599    7.7472   -5.4517 H   0  0  0  0  0  0  0  0  0  0  0  0
   11.4877    6.8923   -6.8016 H   0  0  0  0  0  0  0  0  0  0  0  0
   12.1814    9.6272   -4.3577 H   0  0  0  0  0  0  0  0  0  0  0  0
   13.3791   11.7378   -4.8463 H   0  0  0  0  0  0  0  0  0  0  0  0
   13.9934   10.4131   -8.8936 H   0  0  0  0  0  0  0  0  0  0  0  0
   13.0328    8.5724   -9.7206 H   0  0  0  0  0  0  0  0  0  0  0  0
   11.6681    7.8192   -8.9106 H   0  0  0  0  0  0  0  0  0  0  0  0
   13.0962    6.1100   -7.9045 H   0  0  0  0  0  0  0  0  0  0  0  0
   14.5676    6.9213   -8.4258 H   0  0  0  0  0  0  0  0  0  0  0  0
   14.1605    6.3853  -10.7532 H   0  0  0  0  0  0  0  0  0  0  0  0
   12.4666    6.0068  -10.4602 H   0  0  0  0  0  0  0  0  0  0  0  0
   13.7245    3.9628  -10.8709 H   0  0  0  0  0  0  0  0  0  0  0  0
   12.9882    3.9607   -9.2783 H   0  0  0  0  0  0  0  0  0  0  0  0
   16.1092    4.8481  -11.0163 H   0  0  0  0  0  0  0  0  0  0  0  0
   17.7213    4.7177  -12.2673 H   0  0  0  0  0  0  0  0  0  0  0  0
   19.4539    4.9812  -12.2768 H   0  0  0  0  0  0  0  0  0  0  0  0
   17.4095    6.8404  -10.9288 H   0  0  0  0  0  0  0  0  0  0  0  0
   18.1320    7.0802  -12.5210 H   0  0  0  0  0  0  0  0  0  0  0  0
   20.4120    7.2441  -11.4592 H   0  0  0  0  0  0  0  0  0  0  0  0
   19.6886    6.9910   -9.8686 H   0  0  0  0  0  0  0  0  0  0  0  0
   19.0743    9.3846  -11.7259 H   0  0  0  0  0  0  0  0  0  0  0  0
   20.0972    9.4328  -10.2718 H   0  0  0  0  0  0  0  0  0  0  0  0
   18.3528    9.1253  -10.1225 H   0  0  0  0  0  0  0  0  0  0  0  0
   20.2110    4.2304   -8.9673 H   0  0  0  0  0  0  0  0  0  0  0  0
   20.7619    4.6317  -10.5820 H   0  0  0  0  0  0  0  0  0  0  0  0
   19.6994    1.8755   -9.7268 H   0  0  0  0  0  0  0  0  0  0  0  0
   21.3985    2.3323   -9.8642 H   0  0  0  0  0  0  0  0  0  0  0  0
   21.0842    2.7452  -12.3319 H   0  0  0  0  0  0  0  0  0  0  0  0
   19.3820    2.2984  -12.1878 H   0  0  0  0  0  0  0  0  0  0  0  0
   21.7583    0.4114  -11.5984 H   0  0  0  0  0  0  0  0  0  0  0  0
   20.7287    0.3656  -13.0481 H   0  0  0  0  0  0  0  0  0  0  0  0
   20.0433   -0.0320  -11.4559 H   0  0  0  0  0  0  0  0  0  0  0  0
   18.7229    3.1725   -8.0005 H   0  0  0  0  0  0  0  0  0  0  0  0
   16.7776    2.6342   -6.6612 H   0  0  0  0  0  0  0  0  0  0  0  0
   14.3641    2.1098   -6.6296 H   0  0  0  0  0  0  0  0  0  0  0  0
   13.2207    2.9934   -7.6273 H   0  0  0  0  0  0  0  0  0  0  0  0
   14.1041    5.1418   -6.4215 H   0  0  0  0  0  0  0  0  0  0  0  0
   14.8383    4.0693   -5.2596 H   0  0  0  0  0  0  0  0  0  0  0  0
   12.5298    1.9759   -5.3190 H   0  0  0  0  0  0  0  0  0  0  0  0
   11.1747    0.6063   -4.5032 H   0  0  0  0  0  0  0  0  0  0  0  0
    8.2886    1.4157   -3.9043 H   0  0  0  0  0  0  0  0  0  0  0  0
   10.0674   -0.7154   -6.2370 H   0  0  0  0  0  0  0  0  0  0  0  0
    9.4731   -3.0478   -6.8287 H   0  0  0  0  0  0  0  0  0  0  0  0
    6.8486   -3.2472   -3.4160 H   0  0  0  0  0  0  0  0  0  0  0  0
    8.1306    0.0271   -2.0884 H   0  0  0  0  0  0  0  0  0  0  0  0
    5.5046   -1.5521   -1.9548 H   0  0  0  0  0  0  0  0  0  0  0  0
    5.5120    0.0153    0.1830 H   0  0  0  0  0  0  0  0  0  0  0  0
    6.8284    1.6368   -2.0599 H   0  0  0  0  0  0  0  0  0  0  0  0
    4.9998    2.3915    1.0739 H   0  0  0  0  0  0  0  0  0  0  0  0
  1  2  1  0
  1 73  1  0
  1 74  1  0
  1 75  1  0
  2  3  1  0
  2 76  1  0
  2 77  1  0
  3  4  1  0
  3 78  1  0
  3 79  1  0
  4  5  1  0
  4 80  1  0
  4 81  1  0
  5  6  1  0
  5 10  1  0
  6  7  1  0
  6 82  1  0
  6 83  1  0
  7  8  1  0
  7 84  1  0
  7 85  1  0
  8  9  1  0
  8 86  1  0
  8 87  1  0
  9 88  1  0
  9 89  1  0
  9 90  1  0
 10 11  2  0
 10 72  1  0
 11 12  1  0
 11 91  1  0
 12 13  2  0
 12 92  1  0
 13 14  1  0
 13 71  1  0
 14 15  2  0
 14 93  1  0
 15 16  1  0
 15 94  1  0
 16 17  2  0
 16 54  1  0
 17 18  1  0
 17 95  1  0
 18 19  1  0
 18 52  2  0
 19 20  1  0
 19 96  1  0
 19 97  1  0
 20 21  1  0
 20 98  1  0
 20 99  1  0
 21 22  2  0
 21 30  1  0
 22 23  1  0
 22100  1  0
 23 24  2  0
 23101  1  0
 24 25  1  0
 24 29  1  0
 25 26  1  1
 25 27  1  0
 25 28  1  0
 29 30  2  0
 29102  1  0
 30 31  1  0
 31 32  1  0
 31103  1  0
 31104  1  0
 32 33  1  0
 32105  1  0
 32106  1  0
 33 34  1  0
 33107  1  0
 33108  1  0
 34 35  1  0
 34109  1  0
 34110  1  0
 35 36  2  0
 35 49  1  0
 36 37  1  0
 36111  1  0
 37 38  1  0
 37 47  2  0
 38 39  1  0
 38 43  1  0
 39 40  1  0
 39112  1  0
 39113  1  0
 40 41  1  0
 40114  1  0
 40115  1  0
 41 42  1  0
 41116  1  0
 41117  1  0
 42118  1  0
 42119  1  0
 42120  1  0
 43 44  1  0
 43121  1  0
 43122  1  0
 44 45  1  0
 44123  1  0
 44124  1  0
 45 46  1  0
 45125  1  0
 45126  1  0
 46127  1  0
 46128  1  0
 46129  1  0
 47 48  1  0
 47130  1  0
 48 49  2  0
 48131  1  0
 49 50  1  0
 50 51  1  0
 50132  1  0
 50133  1  0
 51 52  1  0
 51134  1  0
 51135  1  0
 52 53  1  0
 53 54  2  0
 53136  1  0
 54 55  1  0
 55 56  2  0
 55137  1  0
 56 57  1  0
 56138  1  0
 57 58  1  0
 57 66  2  0
 58 59  2  0
 58139  1  0
 59 60  1  0
 59140  1  0
 60 61  1  0
 60 65  2  0
 61 62  1  6
 61 63  1  0
 61 64  1  0
 65 66  1  0
 65141  1  0
 66 67  1  0
 67 68  2  0
 67142  1  0
 68 69  1  0
 68143  1  0
 69 70  2  0
 69144  1  0
 70 71  1  0
 70145  1  0
 71 72  2  0
 72146  1  0
M  END

