
     RDKit          3D

 19 19  0  0  0  0  0  0  0  0999 V2000
    1.0226   -0.2761   -0.1114 O   0  0  0  0  0  0  0  0  0  0  0  0
    2.2185   -0.0425   -0.0156 C   0  0  0  0  0  0  0  0  0  0  0  0
    2.9240    0.7120   -0.9132 N   0  0  0  0  0  0  0  0  0  0  0  0
    2.2811    1.3575   -2.0342 C   0  0  0  0  0  0  0  0  0  0  0  0
    1.9166    2.8192   -1.8061 C   0  0  0  0  0  0  0  0  0  0  0  0
    3.6674    4.1053   -1.4885 I   0  0  0  0  0  0  0  0  0  0  0  0
    3.0111   -0.5915    1.1069 C   0  0  0  0  0  0  0  0  0  0  0  0
    2.6349   -1.3728    2.1669 C   0  0  0  0  0  0  0  0  0  0  0  0
    3.8113   -1.5994    2.9459 C   0  0  0  0  0  0  0  0  0  0  0  0
    4.8152   -0.9312    2.2947 C   0  0  0  0  0  0  0  0  0  0  0  0
    6.6304   -0.7462    2.6802 Br  0  0  0  0  0  0  0  0  0  0  0  0
    4.3528   -0.3181    1.1854 O   0  0  0  0  0  0  0  0  0  0  0  0
    3.8978    0.9193   -0.7191 H   0  0  0  0  0  0  0  0  0  0  0  0
    1.3393    0.8137   -2.2159 H   0  0  0  0  0  0  0  0  0  0  0  0
    2.9111    1.2571   -2.9328 H   0  0  0  0  0  0  0  0  0  0  0  0
    1.2979    2.9531   -0.9103 H   0  0  0  0  0  0  0  0  0  0  0  0
    1.4076    3.2477   -2.6787 H   0  0  0  0  0  0  0  0  0  0  0  0
    1.6268   -1.7359    2.3514 H   0  0  0  0  0  0  0  0  0  0  0  0
    3.9093   -2.1748    3.8627 H   0  0  0  0  0  0  0  0  0  0  0  0
  1  2  2  0
  2  3  1  0
  2  7  1  0
  3  4  1  0
  3 13  1  0
  4  5  1  0
  4 14  1  0
  4 15  1  0
  5  6  1  0
  5 16  1  0
  5 17  1  0
  7  8  2  0
  7 12  1  0
  8  9  1  0
  8 18  1  0
  9 10  2  0
  9 19  1  0
 10 11  1  0
 10 12  1  0
M  END

