
     RDKit          3D

 53 59  0  0  0  0  0  0  0  0999 V2000
    1.0973    0.0786   -1.3231 F   0  0  0  0  0  0  0  0  0  0  0  0
    2.3554    0.0362   -0.7479 B   0  0  1  0  0  0  0  0  0  0  0  0
    2.3148    0.1410    0.6312 F   0  0  0  0  0  0  0  0  0  0  0  0
    3.0792   -1.3308   -1.1012 N   0  0  0  0  0  0  0  0  0  0  0  0
    4.2604   -1.3994   -1.8398 C   0  0  0  0  0  0  0  0  0  0  0  0
    4.6709   -2.7705   -1.9009 C   0  0  0  0  0  0  0  0  0  0  0  0
    5.7507   -3.4291   -2.5198 C   0  0  0  0  0  0  0  0  0  0  0  0
    5.8441   -4.8081   -2.3921 C   0  0  0  0  0  0  0  0  0  0  0  0
    4.8772   -5.5472   -1.6658 C   0  0  0  0  0  0  0  0  0  0  0  0
    3.8096   -4.9131   -1.0481 C   0  0  0  0  0  0  0  0  0  0  0  0
    3.7084   -3.5086   -1.1519 C   0  0  0  0  0  0  0  0  0  0  0  0
    2.7385   -2.5652   -0.6640 C   0  0  0  0  0  0  0  0  0  0  0  0
    1.5854   -2.9009    0.1917 C   0  0  0  0  0  0  0  0  0  0  0  0
    1.7978   -3.7282    1.3144 C   0  0  0  0  0  0  0  0  0  0  0  0
    0.7340   -4.1095    2.1326 C   0  0  0  0  0  0  0  0  0  0  0  0
   -0.5645   -3.6832    1.8386 C   0  0  0  0  0  0  0  0  0  0  0  0
   -0.7876   -2.8677    0.7252 C   0  0  0  0  0  0  0  0  0  0  0  0
    0.2734   -2.4751   -0.0920 C   0  0  0  0  0  0  0  0  0  0  0  0
    4.8739   -0.2513   -2.3263 C   0  0  0  0  0  0  0  0  0  0  0  0
    4.3690    1.0249   -2.1081 C   0  0  0  0  0  0  0  0  0  0  0  0
    4.8200    2.2980   -2.5855 C   0  0  0  0  0  0  0  0  0  0  0  0
    5.9331    2.7060   -3.3455 C   0  0  0  0  0  0  0  0  0  0  0  0
    6.0833    4.0577   -3.6233 C   0  0  0  0  0  0  0  0  0  0  0  0
    5.1500    5.0145   -3.1516 C   0  0  0  0  0  0  0  0  0  0  0  0
    4.0475    4.6284   -2.4043 C   0  0  0  0  0  0  0  0  0  0  0  0
    3.8685    3.2554   -2.1274 C   0  0  0  0  0  0  0  0  0  0  0  0
    2.8720    2.5367   -1.3799 C   0  0  0  0  0  0  0  0  0  0  0  0
    1.6795    3.1416   -0.7578 C   0  0  0  0  0  0  0  0  0  0  0  0
    0.8978    4.0311   -1.5243 C   0  0  0  0  0  0  0  0  0  0  0  0
   -0.2161    4.6628   -0.9704 C   0  0  0  0  0  0  0  0  0  0  0  0
   -0.5635    4.4290    0.3635 C   0  0  0  0  0  0  0  0  0  0  0  0
    0.2076    3.5540    1.1343 C   0  0  0  0  0  0  0  0  0  0  0  0
    1.3176    2.9118    0.5836 C   0  0  0  0  0  0  0  0  0  0  0  0
    3.2029    1.2248   -1.3695 N   0  0  0  0  0  0  0  0  0  0  0  0
    6.4968   -2.8737   -3.0936 H   0  0  0  0  0  0  0  0  0  0  0  0
    6.6734   -5.3386   -2.8669 H   0  0  0  0  0  0  0  0  0  0  0  0
    4.9750   -6.6334   -1.5990 H   0  0  0  0  0  0  0  0  0  0  0  0
    3.0599   -5.4883   -0.5015 H   0  0  0  0  0  0  0  0  0  0  0  0
    2.8120   -4.0483    1.5618 H   0  0  0  0  0  0  0  0  0  0  0  0
    0.9220   -4.7379    3.0070 H   0  0  0  0  0  0  0  0  0  0  0  0
   -1.3995   -3.9838    2.4766 H   0  0  0  0  0  0  0  0  0  0  0  0
   -1.7998   -2.5310    0.4874 H   0  0  0  0  0  0  0  0  0  0  0  0
    0.0892   -1.8344   -0.9523 H   0  0  0  0  0  0  0  0  0  0  0  0
    5.7933   -0.3565   -2.9048 H   0  0  0  0  0  0  0  0  0  0  0  0
    6.6677    1.9812   -3.7051 H   0  0  0  0  0  0  0  0  0  0  0  0
    6.9416    4.3954   -4.2098 H   0  0  0  0  0  0  0  0  0  0  0  0
    5.3087    6.0716   -3.3777 H   0  0  0  0  0  0  0  0  0  0  0  0
    3.3387    5.3703   -2.0315 H   0  0  0  0  0  0  0  0  0  0  0  0
    1.1516    4.2031   -2.5723 H   0  0  0  0  0  0  0  0  0  0  0  0
   -0.8182    5.3362   -1.5857 H   0  0  0  0  0  0  0  0  0  0  0  0
   -1.4339    4.9256    0.8000 H   0  0  0  0  0  0  0  0  0  0  0  0
   -0.0562    3.3669    2.1783 H   0  0  0  0  0  0  0  0  0  0  0  0
    1.9071    2.2277    1.1910 H   0  0  0  0  0  0  0  0  0  0  0  0
  2  1  1  6
  2  3  1  0
  2  4  1  0
  2 34  1  0
  4  5  1  0
  4 12  1  0
  5  6  2  0
  5 19  1  0
  6  7  1  0
  6 11  1  0
  7  8  2  0
  7 35  1  0
  8  9  1  0
  8 36  1  0
  9 10  2  0
  9 37  1  0
 10 11  1  0
 10 38  1  0
 11 12  2  0
 12 13  1  0
 13 14  2  0
 13 18  1  0
 14 15  1  0
 14 39  1  0
 15 16  2  0
 15 40  1  0
 16 17  1  0
 16 41  1  0
 17 18  2  0
 17 42  1  0
 18 43  1  0
 19 20  2  0
 19 44  1  0
 20 21  1  0
 20 34  1  0
 21 22  2  0
 21 26  1  0
 22 23  1  0
 22 45  1  0
 23 24  2  0
 23 46  1  0
 24 25  1  0
 24 47  1  0
 25 26  2  0
 25 48  1  0
 26 27  1  0
 27 28  1  0
 27 34  2  0
 28 29  2  0
 28 33  1  0
 29 30  1  0
 29 49  1  0
 30 31  2  0
 30 50  1  0
 31 32  1  0
 31 51  1  0
 32 33  2  0
 32 52  1  0
 33 53  1  0
M  CHG  2   2  -1  34   1
M  END

