
     RDKit          3D

 43 43  0  0  0  0  0  0  0  0999 V2000
   -0.1511    8.1453    1.2152 C   0  0  0  0  0  0  0  0  0  0  0  0
    0.3635    7.0569    2.1613 C   0  0  0  0  0  0  0  0  0  0  0  0
    2.1653    6.7712    2.0535 P   0  0  1  0  0  0  0  0  0  0  0  0
    3.0122    7.9950    2.2217 O   0  0  0  0  0  0  0  0  0  0  0  0
    2.3441    5.6468    3.2424 O   0  0  0  0  0  0  0  0  0  0  0  0
    2.6020    5.8197    0.5270 C   0  0  1  0  0  0  0  0  0  0  0  0
    1.6644    4.6462    0.2230 C   0  0  0  0  0  0  0  0  0  0  0  0
    2.8208    6.7592   -0.6595 C   0  0  0  0  0  0  0  0  0  0  0  0
    3.4299    6.0079   -1.6956 O   0  0  0  0  0  0  0  0  0  0  0  0
    3.7434    6.6181   -2.8718 C   0  0  0  0  0  0  0  0  0  0  0  0
    3.5389    7.9797   -3.1403 C   0  0  0  0  0  0  0  0  0  0  0  0
    3.8977    8.5005   -4.3886 C   0  0  0  0  0  0  0  0  0  0  0  0
    4.4638    7.7033   -5.3926 C   0  0  0  0  0  0  0  0  0  0  0  0
    4.8621    8.2991   -6.7243 C   0  0  0  0  0  0  0  0  0  0  0  0
    6.1839    9.0988   -6.7207 C   0  0  1  0  0  0  0  0  0  0  0  0
    7.4006    8.2292   -6.3752 C   0  0  0  0  0  0  0  0  0  0  0  0
    6.2976    9.7985   -8.0035 N   0  0  0  0  0  0  0  0  0  0  0  0
    4.6572    6.3412   -5.1008 C   0  0  0  0  0  0  0  0  0  0  0  0
    4.3056    5.8015   -3.8662 C   0  0  0  0  0  0  0  0  0  0  0  0
   -1.2027    8.3851    1.4360 H   0  0  0  0  0  0  0  0  0  0  0  0
   -0.1011    7.8349    0.1594 H   0  0  0  0  0  0  0  0  0  0  0  0
    0.4413    9.0663    1.3262 H   0  0  0  0  0  0  0  0  0  0  0  0
   -0.1651    6.0997    2.0250 H   0  0  0  0  0  0  0  0  0  0  0  0
    0.2123    7.3517    3.2133 H   0  0  0  0  0  0  0  0  0  0  0  0
    3.2019    5.7644    3.6782 H   0  0  0  0  0  0  0  0  0  0  0  0
    3.5977    5.4182    0.7915 H   0  0  0  0  0  0  0  0  0  0  0  0
    0.6613    4.9938   -0.0747 H   0  0  0  0  0  0  0  0  0  0  0  0
    1.5564    3.9879    1.0983 H   0  0  0  0  0  0  0  0  0  0  0  0
    2.0685    4.0524   -0.6098 H   0  0  0  0  0  0  0  0  0  0  0  0
    3.4642    7.6004   -0.3499 H   0  0  0  0  0  0  0  0  0  0  0  0
    1.8603    7.1792   -1.0153 H   0  0  0  0  0  0  0  0  0  0  0  0
    3.1039    8.6419   -2.3915 H   0  0  0  0  0  0  0  0  0  0  0  0
    3.7229    9.5633   -4.5819 H   0  0  0  0  0  0  0  0  0  0  0  0
    4.0785    8.9858   -7.0823 H   0  0  0  0  0  0  0  0  0  0  0  0
    4.9421    7.4955   -7.4789 H   0  0  0  0  0  0  0  0  0  0  0  0
    6.0906    9.8795   -5.9433 H   0  0  0  0  0  0  0  0  0  0  0  0
    7.5344    7.4313   -7.1273 H   0  0  0  0  0  0  0  0  0  0  0  0
    7.3013    7.7496   -5.3885 H   0  0  0  0  0  0  0  0  0  0  0  0
    8.3214    8.8359   -6.3636 H   0  0  0  0  0  0  0  0  0  0  0  0
    6.4168    9.1171   -8.7569 H   0  0  0  0  0  0  0  0  0  0  0  0
    7.1421   10.3720   -8.0157 H   0  0  0  0  0  0  0  0  0  0  0  0
    5.0895    5.6853   -5.8621 H   0  0  0  0  0  0  0  0  0  0  0  0
    4.4555    4.7423   -3.6469 H   0  0  0  0  0  0  0  0  0  0  0  0
  1  2  1  0
  1 20  1  0
  1 21  1  0
  1 22  1  0
  2  3  1  0
  2 23  1  0
  2 24  1  0
  3  4  2  0
  3  5  1  1
  3  6  1  0
  5 25  1  0
  6  7  1  0
  6  8  1  0
  6 26  1  1
  7 27  1  0
  7 28  1  0
  7 29  1  0
  8  9  1  0
  8 30  1  0
  8 31  1  0
  9 10  1  0
 10 11  2  0
 10 19  1  0
 11 12  1  0
 11 32  1  0
 12 13  2  0
 12 33  1  0
 13 14  1  0
 13 18  1  0
 14 15  1  0
 14 34  1  0
 14 35  1  0
 15 16  1  0
 15 17  1  0
 15 36  1  1
 16 37  1  0
 16 38  1  0
 16 39  1  0
 17 40  1  0
 17 41  1  0
 18 19  2  0
 18 42  1  0
 19 43  1  0
M  END

