
     RDKit          3D

 65 68  0  0  0  0  0  0  0  0999 V2000
    4.6668   -6.7576    1.8472 O   0  0  0  0  0  0  0  0  0  0  0  0
    4.9854   -6.4023    0.4919 C   0  0  1  0  0  0  0  0  0  0  0  0
    4.1167   -7.2799   -0.4067 C   0  0  0  0  0  0  0  0  0  0  0  0
    4.3598   -8.7855   -0.2136 C   0  0  0  0  0  0  0  0  0  0  0  0
    3.4549   -9.6459   -1.0643 C   0  0  0  0  0  0  0  0  0  0  0  0
    3.8166  -10.0085   -2.3722 C   0  0  0  0  0  0  0  0  0  0  0  0
    2.9670  -10.7721   -3.1729 C   0  0  0  0  0  0  0  0  0  0  0  0
    1.7273  -11.1910   -2.6757 C   0  0  0  0  0  0  0  0  0  0  0  0
    0.8314  -12.0640   -3.5146 C   0  0  1  0  0  0  0  0  0  0  0  0
    0.9785  -11.8195   -4.8303 F   0  0  0  0  0  0  0  0  0  0  0  0
    1.0953  -13.3747   -3.3333 F   0  0  0  0  0  0  0  0  0  0  0  0
   -0.4688  -11.8870   -3.2149 F   0  0  0  0  0  0  0  0  0  0  0  0
    1.3488  -10.8373   -1.3753 C   0  0  0  0  0  0  0  0  0  0  0  0
    2.2065  -10.0737   -0.5831 C   0  0  0  0  0  0  0  0  0  0  0  0
    4.7586   -5.0184    0.1805 N   0  0  0  0  0  0  0  0  0  0  0  0
    5.5470   -4.0024    0.8591 C   0  0  2  0  0  0  0  0  0  0  0  0
    6.0120   -4.4101    1.7794 H   0  0  0  0  0  0  0  0  0  0  0  0
    4.6174   -2.8593    1.3437 C   0  0  0  0  0  0  0  0  0  0  0  0
    3.4704   -2.6082    0.4882 N   0  0  0  0  0  0  0  0  0  0  0  0
    2.4069   -1.8228    1.1055 C   0  0  0  0  0  0  0  0  0  0  0  0
    1.4233   -1.5609   -0.0471 C   0  0  0  0  0  0  0  0  0  0  0  0
    2.2994   -1.6491   -1.3274 C   0  0  0  0  0  0  0  0  0  0  0  0
    3.7111   -1.9820   -0.8081 C   0  0  0  0  0  0  0  0  0  0  0  0
    6.7572   -3.5646   -0.0131 C   0  0  2  0  0  0  0  0  0  0  0  0
    6.3658   -3.2004   -0.9806 H   0  0  0  0  0  0  0  0  0  0  0  0
    7.5128   -4.7570   -0.2079 O   0  0  0  0  0  0  0  0  0  0  0  0
    7.6232   -2.4829    0.6105 C   0  0  0  0  0  0  0  0  0  0  0  0
    8.4924   -2.7946    1.6716 C   0  0  0  0  0  0  0  0  0  0  0  0
    9.2874   -1.8087    2.2541 C   0  0  0  0  0  0  0  0  0  0  0  0
    9.2336   -0.4894    1.7927 C   0  0  0  0  0  0  0  0  0  0  0  0
    8.3608   -0.1631    0.7354 C   0  0  0  0  0  0  0  0  0  0  0  0
    7.5742   -1.1609    0.1519 C   0  0  0  0  0  0  0  0  0  0  0  0
    8.2677    1.1135    0.2535 O   0  0  0  0  0  0  0  0  0  0  0  0
    8.8256    2.1041    1.1030 C   0  0  0  0  0  0  0  0  0  0  0  0
   10.1773    1.6488    1.6272 C   0  0  0  0  0  0  0  0  0  0  0  0
   10.0373    0.4508    2.3748 O   0  0  0  0  0  0  0  0  0  0  0  0
    5.4177   -6.5266    2.4070 H   0  0  0  0  0  0  0  0  0  0  0  0
    6.0510   -6.6148    0.3049 H   0  0  0  0  0  0  0  0  0  0  0  0
    4.2998   -6.9891   -1.4528 H   0  0  0  0  0  0  0  0  0  0  0  0
    3.0576   -7.0500   -0.1913 H   0  0  0  0  0  0  0  0  0  0  0  0
    4.2154   -9.0219    0.8512 H   0  0  0  0  0  0  0  0  0  0  0  0
    5.4133   -9.0124   -0.4517 H   0  0  0  0  0  0  0  0  0  0  0  0
    4.7835   -9.6878   -2.7703 H   0  0  0  0  0  0  0  0  0  0  0  0
    3.2640  -11.0412   -4.1885 H   0  0  0  0  0  0  0  0  0  0  0  0
    0.3807  -11.1577   -0.9853 H   0  0  0  0  0  0  0  0  0  0  0  0
    1.9028   -9.8040    0.4323 H   0  0  0  0  0  0  0  0  0  0  0  0
    3.7707   -4.7653    0.2202 H   0  0  0  0  0  0  0  0  0  0  0  0
    5.2124   -1.9397    1.5278 H   0  0  0  0  0  0  0  0  0  0  0  0
    4.2122   -3.1705    2.3198 H   0  0  0  0  0  0  0  0  0  0  0  0
    2.7959   -0.8580    1.5076 H   0  0  0  0  0  0  0  0  0  0  0  0
    1.9571   -2.3689    1.9506 H   0  0  0  0  0  0  0  0  0  0  0  0
    0.9231   -0.5869    0.0607 H   0  0  0  0  0  0  0  0  0  0  0  0
    0.6377   -2.3310   -0.0635 H   0  0  0  0  0  0  0  0  0  0  0  0
    2.2959   -0.7153   -1.9092 H   0  0  0  0  0  0  0  0  0  0  0  0
    1.9347   -2.4463   -1.9920 H   0  0  0  0  0  0  0  0  0  0  0  0
    4.3132   -1.0503   -0.7008 H   0  0  0  0  0  0  0  0  0  0  0  0
    4.2621   -2.6621   -1.4746 H   0  0  0  0  0  0  0  0  0  0  0  0
    8.2817   -4.5379   -0.7503 H   0  0  0  0  0  0  0  0  0  0  0  0
    8.5623   -3.8268    2.0199 H   0  0  0  0  0  0  0  0  0  0  0  0
    9.9765   -2.0387    3.0697 H   0  0  0  0  0  0  0  0  0  0  0  0
    6.9172   -0.8712   -0.6716 H   0  0  0  0  0  0  0  0  0  0  0  0
    8.1434    2.3034    1.9512 H   0  0  0  0  0  0  0  0  0  0  0  0
    8.9204    3.0230    0.5060 H   0  0  0  0  0  0  0  0  0  0  0  0
   10.6148    2.3995    2.3016 H   0  0  0  0  0  0  0  0  0  0  0  0
   10.8717    1.4880    0.7808 H   0  0  0  0  0  0  0  0  0  0  0  0
  1  2  1  0
  1 37  1  0
  2  3  1  0
  2 15  1  0
  2 38  1  6
  3  4  1  0
  3 39  1  0
  3 40  1  0
  4  5  1  0
  4 41  1  0
  4 42  1  0
  5  6  2  0
  5 14  1  0
  6  7  1  0
  6 43  1  0
  7  8  2  0
  7 44  1  0
  8  9  1  0
  8 13  1  0
  9 10  1  6
  9 11  1  0
  9 12  1  0
 13 14  2  0
 13 45  1  0
 14 46  1  0
 15 16  1  0
 15 47  1  0
 16 17  1  1
 16 18  1  0
 16 24  1  0
 18 19  1  0
 18 48  1  0
 18 49  1  0
 19 20  1  0
 19 23  1  0
 20 21  1  0
 20 50  1  0
 20 51  1  0
 21 22  1  0
 21 52  1  0
 21 53  1  0
 22 23  1  0
 22 54  1  0
 22 55  1  0
 23 56  1  0
 23 57  1  0
 24 25  1  6
 24 26  1  0
 24 27  1  0
 26 58  1  0
 27 28  2  0
 27 32  1  0
 28 29  1  0
 28 59  1  0
 29 30  2  0
 29 60  1  0
 30 31  1  0
 30 36  1  0
 31 32  2  0
 31 33  1  0
 32 61  1  0
 33 34  1  0
 34 35  1  0
 34 62  1  0
 34 63  1  0
 35 36  1  0
 35 64  1  0
 35 65  1  0
M  END

