
     RDKit          3D

 80 88  0  0  0  0  0  0  0  0999 V2000
    2.6078    1.0862   -3.2896 C   0  0  0  0  0  0  0  0  0  0  0  0
    2.8903    0.3737   -2.1059 O   0  0  0  0  0  0  0  0  0  0  0  0
    3.4160    1.0191   -1.0352 C   0  0  0  0  0  0  0  0  0  0  0  0
    3.7064    2.4129   -1.0225 C   0  0  0  0  0  0  0  0  0  0  0  0
    4.2408    2.9947    0.1087 C   0  0  0  0  0  0  0  0  0  0  0  0
    4.5123    2.2343    1.2779 C   0  0  0  0  0  0  0  0  0  0  0  0
    5.0573    2.8133    2.4502 C   0  0  0  0  0  0  0  0  0  0  0  0
    5.3380    2.0549    3.5845 C   0  0  0  0  0  0  0  0  0  0  0  0
    5.8720    2.7363    4.7680 C   0  0  0  0  0  0  0  0  0  0  0  0
    6.7350    2.2211    5.6877 N   0  0  0  0  0  0  0  0  0  0  0  0
    6.9769    3.2042    6.6456 C   0  0  0  0  0  0  0  0  0  0  0  0
    7.8751    3.0878    7.6070 N   0  0  0  0  0  0  0  0  0  0  0  0
    8.6258    2.0081    7.7118 C   0  0  0  0  0  0  0  0  0  0  0  0
    9.7170    1.7965    8.6344 C   0  0  0  0  0  0  0  0  0  0  0  0
   10.1863    2.6957    9.6968 C   0  0  0  0  0  0  0  0  0  0  0  0
    9.9917    4.0919    9.6386 C   0  0  0  0  0  0  0  0  0  0  0  0
   10.4726    4.9204   10.6536 C   0  0  0  0  0  0  0  0  0  0  0  0
   11.1545    4.3806   11.7483 C   0  0  0  0  0  0  0  0  0  0  0  0
   11.3527    2.9976   11.8216 C   0  0  0  0  0  0  0  0  0  0  0  0
   10.8752    2.1665   10.8092 C   0  0  0  0  0  0  0  0  0  0  0  0
   10.2335    0.5490    8.3061 C   0  0  0  0  0  0  0  0  0  0  0  0
    9.4758    0.0032    7.2319 C   0  0  0  0  0  0  0  0  0  0  0  0
    9.7326   -1.3068    6.6306 C   0  0  0  0  0  0  0  0  0  0  0  0
   11.0762   -1.8110    6.6461 C   0  0  0  0  0  0  0  0  0  0  0  0
   11.3858   -3.0464    6.1347 C   0  0  0  0  0  0  0  0  0  0  0  0
   10.3757   -3.8875    5.5789 C   0  0  0  0  0  0  0  0  0  0  0  0
   10.6551   -5.1665    5.0498 C   0  0  0  0  0  0  0  0  0  0  0  0
    9.6421   -5.9572    4.5208 C   0  0  0  0  0  0  0  0  0  0  0  0
   10.0077   -7.1698    4.0371 O   0  0  0  0  0  0  0  0  0  0  0  0
    9.0372   -8.0291    3.4810 C   0  0  0  0  0  0  0  0  0  0  0  0
    8.3016   -5.4779    4.5092 C   0  0  0  0  0  0  0  0  0  0  0  0
    8.0120   -4.2301    5.0215 C   0  0  0  0  0  0  0  0  0  0  0  0
    9.0259   -3.3966    5.5667 C   0  0  0  0  0  0  0  0  0  0  0  0
    8.7346   -2.1134    6.0917 C   0  0  0  0  0  0  0  0  0  0  0  0
    8.5049    0.8930    6.8816 N   0  0  0  0  0  0  0  0  0  0  0  0
    7.3968    0.8004    5.7721 B   0  0  1  0  0  0  0  0  0  0  0  0
    6.4204   -0.1236    6.1890 F   0  0  0  0  0  0  0  0  0  0  0  0
    7.9399    0.4408    4.5588 F   0  0  0  0  0  0  0  0  0  0  0  0
    6.2017    4.3787    6.3261 C   0  0  0  0  0  0  0  0  0  0  0  0
    6.1309    5.6345    7.0819 C   0  0  0  0  0  0  0  0  0  0  0  0
    6.3778    5.6834    8.4701 C   0  0  0  0  0  0  0  0  0  0  0  0
    6.2790    6.8874    9.1690 C   0  0  0  0  0  0  0  0  0  0  0  0
    5.9329    8.0678    8.5038 C   0  0  0  0  0  0  0  0  0  0  0  0
    5.6858    8.0354    7.1271 C   0  0  0  0  0  0  0  0  0  0  0  0
    5.7836    6.8346    6.4256 C   0  0  0  0  0  0  0  0  0  0  0  0
    5.5429    4.0686    5.1408 C   0  0  0  0  0  0  0  0  0  0  0  0
    5.0437    0.6537    3.5548 C   0  0  0  0  0  0  0  0  0  0  0  0
    4.5020    0.0711    2.4353 C   0  0  0  0  0  0  0  0  0  0  0  0
    4.2214    0.8276    1.2589 C   0  0  0  0  0  0  0  0  0  0  0  0
    3.6731    0.2494    0.0924 C   0  0  0  0  0  0  0  0  0  0  0  0
    2.1983    0.3566   -4.0011 H   0  0  0  0  0  0  0  0  0  0  0  0
    3.5161    1.5377   -3.7277 H   0  0  0  0  0  0  0  0  0  0  0  0
    1.8581    1.8811   -3.1256 H   0  0  0  0  0  0  0  0  0  0  0  0
    3.5111    3.0285   -1.9006 H   0  0  0  0  0  0  0  0  0  0  0  0
    4.4621    4.0656    0.1112 H   0  0  0  0  0  0  0  0  0  0  0  0
    5.2875    3.8811    2.4387 H   0  0  0  0  0  0  0  0  0  0  0  0
    9.4646    4.5207    8.7873 H   0  0  0  0  0  0  0  0  0  0  0  0
   10.3158    6.0000   10.5843 H   0  0  0  0  0  0  0  0  0  0  0  0
   11.5293    5.0330   12.5412 H   0  0  0  0  0  0  0  0  0  0  0  0
   11.8772    2.5630   12.6765 H   0  0  0  0  0  0  0  0  0  0  0  0
   11.0169    1.0867   10.8910 H   0  0  0  0  0  0  0  0  0  0  0  0
   11.0719    0.0488    8.7829 H   0  0  0  0  0  0  0  0  0  0  0  0
   11.8757   -1.1831    7.0435 H   0  0  0  0  0  0  0  0  0  0  0  0
   12.4207   -3.3984    6.1424 H   0  0  0  0  0  0  0  0  0  0  0  0
   11.6756   -5.5553    5.0487 H   0  0  0  0  0  0  0  0  0  0  0  0
    9.5705   -8.9349    3.1627 H   0  0  0  0  0  0  0  0  0  0  0  0
    8.5430   -7.5802    2.6007 H   0  0  0  0  0  0  0  0  0  0  0  0
    8.2644   -8.3124    4.2180 H   0  0  0  0  0  0  0  0  0  0  0  0
    7.4978   -6.0877    4.0968 H   0  0  0  0  0  0  0  0  0  0  0  0
    6.9820   -3.8643    5.0084 H   0  0  0  0  0  0  0  0  0  0  0  0
    7.7000   -1.7744    6.0907 H   0  0  0  0  0  0  0  0  0  0  0  0
    6.6417    4.7672    8.9976 H   0  0  0  0  0  0  0  0  0  0  0  0
    6.4686    6.9013   10.2455 H   0  0  0  0  0  0  0  0  0  0  0  0
    5.8557    9.0086    9.0548 H   0  0  0  0  0  0  0  0  0  0  0  0
    5.4210    8.9532    6.5957 H   0  0  0  0  0  0  0  0  0  0  0  0
    5.6094    6.8267    5.3474 H   0  0  0  0  0  0  0  0  0  0  0  0
    4.8269    4.6928    4.6125 H   0  0  0  0  0  0  0  0  0  0  0  0
    5.2330    0.0529    4.4420 H   0  0  0  0  0  0  0  0  0  0  0  0
    4.2733   -0.9979    2.4381 H   0  0  0  0  0  0  0  0  0  0  0  0
    3.4441   -0.8178    0.0595 H   0  0  0  0  0  0  0  0  0  0  0  0
  1  2  1  0
  1 51  1  0
  1 52  1  0
  1 53  1  0
  2  3  1  0
  3  4  2  0
  3 50  1  0
  4  5  1  0
  4 54  1  0
  5  6  2  0
  5 55  1  0
  6  7  1  0
  6 49  1  0
  7  8  2  0
  7 56  1  0
  8  9  1  0
  8 47  1  0
  9 10  1  0
  9 46  2  0
 10 11  1  0
 10 36  1  0
 11 12  1  0
 11 39  2  0
 12 13  2  0
 13 14  1  0
 13 35  1  0
 14 15  1  0
 14 21  2  0
 15 16  2  0
 15 20  1  0
 16 17  1  0
 16 57  1  0
 17 18  2  0
 17 58  1  0
 18 19  1  0
 18 59  1  0
 19 20  2  0
 19 60  1  0
 20 61  1  0
 21 22  1  0
 21 62  1  0
 22 23  1  0
 22 35  2  0
 23 24  2  0
 23 34  1  0
 24 25  1  0
 24 63  1  0
 25 26  2  0
 25 64  1  0
 26 27  1  0
 26 33  1  0
 27 28  2  0
 27 65  1  0
 28 29  1  0
 28 31  1  0
 29 30  1  0
 30 66  1  0
 30 67  1  0
 30 68  1  0
 31 32  2  0
 31 69  1  0
 32 33  1  0
 32 70  1  0
 33 34  2  0
 34 71  1  0
 35 36  1  0
 36 37  1  1
 36 38  1  0
 39 40  1  0
 39 46  1  0
 40 41  2  0
 40 45  1  0
 41 42  1  0
 41 72  1  0
 42 43  2  0
 42 73  1  0
 43 44  1  0
 43 74  1  0
 44 45  2  0
 44 75  1  0
 45 76  1  0
 46 77  1  0
 47 48  2  0
 47 78  1  0
 48 49  1  0
 48 79  1  0
 49 50  2  0
 50 80  1  0
M  CHG  2  35   1  36  -1
M  END

