
     RDKit          3D

 40 41  0  0  0  0  0  0  0  0999 V2000
    2.8285    1.1686    0.5982 C   0  0  0  0  0  0  0  0  0  0  0  0
    2.5944   -0.2749    0.1344 C   0  0  1  0  0  0  0  0  0  0  0  0
    1.1008   -0.6214    0.1338 C   0  0  0  0  0  0  0  0  0  0  0  0
    3.2454   -0.5913   -1.2477 C   0  0  1  0  0  0  0  0  0  0  0  0
    2.6868    0.2541   -2.2911 N   0  0  0  0  0  0  0  0  0  0  0  0
    2.9662   -0.1417   -3.6632 C   0  0  0  0  0  0  0  0  0  0  0  0
    2.2874    0.7620   -4.6749 C   0  0  0  0  0  0  0  0  0  0  0  0
    0.9763    1.2241   -4.4646 C   0  0  0  0  0  0  0  0  0  0  0  0
    0.3588    2.0267   -5.4246 C   0  0  0  0  0  0  0  0  0  0  0  0
    1.0271    2.3804   -6.6007 C   0  0  0  0  0  0  0  0  0  0  0  0
    2.3345    1.9245   -6.8144 C   0  0  0  0  0  0  0  0  0  0  0  0
    3.0466    2.2332   -7.9306 O   0  0  0  0  0  0  0  0  0  0  0  0
    2.9587    1.1219   -5.8481 C   0  0  0  0  0  0  0  0  0  0  0  0
    4.7779   -0.6163   -1.1582 C   0  0  0  0  0  0  0  0  0  0  0  0
    5.4302   -1.7624   -0.6753 C   0  0  0  0  0  0  0  0  0  0  0  0
    6.8185   -1.8153   -0.5413 C   0  0  0  0  0  0  0  0  0  0  0  0
    7.5819   -0.7013   -0.9021 C   0  0  0  0  0  0  0  0  0  0  0  0
    9.3243   -0.7542   -0.7447 Cl  0  0  0  0  0  0  0  0  0  0  0  0
    6.9641    0.4501   -1.3946 C   0  0  0  0  0  0  0  0  0  0  0  0
    5.5721    0.4817   -1.5187 C   0  0  0  0  0  0  0  0  0  0  0  0
    2.4312    1.3145    1.6152 H   0  0  0  0  0  0  0  0  0  0  0  0
    2.3098    1.8915   -0.0541 H   0  0  0  0  0  0  0  0  0  0  0  0
    3.8982    1.4290    0.6204 H   0  0  0  0  0  0  0  0  0  0  0  0
    3.0975   -0.9397    0.8590 H   0  0  0  0  0  0  0  0  0  0  0  0
    0.5602   -0.0103   -0.6044 H   0  0  0  0  0  0  0  0  0  0  0  0
    0.6549   -0.4417    1.1255 H   0  0  0  0  0  0  0  0  0  0  0  0
    0.9335   -1.6803   -0.1227 H   0  0  0  0  0  0  0  0  0  0  0  0
    2.9383   -1.6238   -1.4940 H   0  0  0  0  0  0  0  0  0  0  0  0
    2.9061    1.2377   -2.1466 H   0  0  0  0  0  0  0  0  0  0  0  0
    2.5872   -1.1738   -3.7924 H   0  0  0  0  0  0  0  0  0  0  0  0
    4.0496   -0.1905   -3.8999 H   0  0  0  0  0  0  0  0  0  0  0  0
    0.4547    0.9514   -3.5459 H   0  0  0  0  0  0  0  0  0  0  0  0
   -0.6611    2.3851   -5.2611 H   0  0  0  0  0  0  0  0  0  0  0  0
    0.5379    3.0113   -7.3500 H   0  0  0  0  0  0  0  0  0  0  0  0
    2.5099    2.7898   -8.5098 H   0  0  0  0  0  0  0  0  0  0  0  0
    3.9818    0.7870   -6.0360 H   0  0  0  0  0  0  0  0  0  0  0  0
    4.8394   -2.6413   -0.3989 H   0  0  0  0  0  0  0  0  0  0  0  0
    7.3119   -2.7136   -0.1663 H   0  0  0  0  0  0  0  0  0  0  0  0
    7.5701    1.3115   -1.6807 H   0  0  0  0  0  0  0  0  0  0  0  0
    5.1040    1.3863   -1.9152 H   0  0  0  0  0  0  0  0  0  0  0  0
  1  2  1  0
  1 21  1  0
  1 22  1  0
  1 23  1  0
  2  3  1  0
  2  4  1  0
  2 24  1  1
  3 25  1  0
  3 26  1  0
  3 27  1  0
  4  5  1  0
  4 14  1  0
  4 28  1  6
  5  6  1  0
  5 29  1  0
  6  7  1  0
  6 30  1  0
  6 31  1  0
  7  8  2  0
  7 13  1  0
  8  9  1  0
  8 32  1  0
  9 10  2  0
  9 33  1  0
 10 11  1  0
 10 34  1  0
 11 12  1  0
 11 13  2  0
 12 35  1  0
 13 36  1  0
 14 15  2  0
 14 20  1  0
 15 16  1  0
 15 37  1  0
 16 17  2  0
 16 38  1  0
 17 18  1  0
 17 19  1  0
 19 20  2  0
 19 39  1  0
 20 40  1  0
M  END

