
     RDKit          3D

 82 85  0  0  0  0  0  0  0  0999 V2000
    6.3964   -2.1041   -1.4675 C   0  0  0  0  0  0  0  0  0  0  0  0
    6.1422   -1.6546   -0.0726 C   0  0  0  0  0  0  0  0  0  0  0  0
    6.9129   -1.3491    0.9870 C   0  0  0  0  0  0  0  0  0  0  0  0
    5.7356   -1.1217    1.9175 C   0  0  2  0  0  0  0  0  0  0  0  0
    4.8377   -1.3800    0.6593 C   0  0  0  0  0  0  0  0  0  0  0  0
    5.5943    0.1780    2.6004 N   0  0  0  0  0  0  0  0  0  0  0  0
    5.7378    0.2476    3.8741 C   0  0  0  0  0  0  0  0  0  0  0  0
    5.9502    1.3776    4.6589 C   0  0  0  0  0  0  0  0  0  0  0  0
    5.3510    1.5126    5.9906 C   0  0  0  0  0  0  0  0  0  0  0  0
    5.1176    0.4145    6.8481 C   0  0  0  0  0  0  0  0  0  0  0  0
    5.4918   -0.8154    6.5058 F   0  0  0  0  0  0  0  0  0  0  0  0
    4.5430    0.5517    8.1110 C   0  0  0  0  0  0  0  0  0  0  0  0
    4.3959   -0.5572    8.8574 F   0  0  0  0  0  0  0  0  0  0  0  0
    4.1262    1.8022    8.6090 C   0  0  0  0  0  0  0  0  0  0  0  0
    3.5616    2.0322    9.8328 N   0  0  0  0  0  0  0  0  0  0  0  0
    2.9727    1.0373   10.7212 C   0  0  0  0  0  0  0  0  0  0  0  0
    2.4812    1.7051   12.0034 C   0  0  0  0  0  0  0  0  0  0  0  0
    1.8520    0.7160   12.9863 C   0  0  0  0  0  0  0  0  0  0  0  0
    1.3587    1.3888   14.2694 C   0  0  0  0  0  0  0  0  0  0  0  0
    0.7590    0.4360   15.1989 N   0  0  0  0  0  0  0  0  0  0  0  0
   -0.6458    0.7649   16.0306 P   0  0  1  0  0  0  0  0  0  0  0  0
   -1.5591    1.6904   15.3071 O   0  0  0  0  0  0  0  0  0  0  0  0
   -1.2461   -0.6978   16.3984 O   0  0  0  0  0  0  0  0  0  0  0  0
   -1.9429   -1.4832   15.3957 C   0  0  1  0  0  0  0  0  0  0  0  0
   -1.7002   -2.9450   15.7393 C   0  0  0  0  0  0  0  0  0  0  0  0
   -3.4160   -1.0952   15.3671 C   0  0  0  0  0  0  0  0  0  0  0  0
   -0.1536    1.2420   17.4928 O   0  0  0  0  0  0  0  0  0  0  0  0
   -1.1063    1.7021   18.4897 C   0  0  1  0  0  0  0  0  0  0  0  0
   -1.1916    0.6585   19.5950 C   0  0  0  0  0  0  0  0  0  0  0  0
   -0.6420    3.0700   18.9673 C   0  0  0  0  0  0  0  0  0  0  0  0
    4.3534    2.9003    7.7466 C   0  0  0  0  0  0  0  0  0  0  0  0
    3.9541    4.1139    8.1688 F   0  0  0  0  0  0  0  0  0  0  0  0
    4.9361    2.7657    6.4984 C   0  0  0  0  0  0  0  0  0  0  0  0
    5.0701    3.8717    5.7662 F   0  0  0  0  0  0  0  0  0  0  0  0
    6.8130    2.3205    4.0276 C   0  0  0  0  0  0  0  0  0  0  0  0
    7.7892    3.2530    4.4781 C   0  0  0  0  0  0  0  0  0  0  0  0
    8.2303    3.4931    5.8883 C   0  0  0  0  0  0  0  0  0  0  0  0
    8.2389    3.9127    3.3303 C   0  0  0  0  0  0  0  0  0  0  0  0
    7.5564    3.3765    2.2137 C   0  0  0  0  0  0  0  0  0  0  0  0
    7.6870    3.7901    0.7846 C   0  0  0  0  0  0  0  0  0  0  0  0
    6.7202    2.4033    2.6385 N   0  0  0  0  0  0  0  0  0  0  0  0
    5.6077    1.6096    1.8499 B   0  0  1  0  0  0  0  0  0  0  0  0
    5.9662    1.4504    0.5309 F   0  0  0  0  0  0  0  0  0  0  0  0
    4.3814    2.2184    2.0002 F   0  0  0  0  0  0  0  0  0  0  0  0
    5.8974   -3.0676   -1.6723 H   0  0  0  0  0  0  0  0  0  0  0  0
    7.4725   -2.2222   -1.6663 H   0  0  0  0  0  0  0  0  0  0  0  0
    5.9885   -1.3765   -2.1908 H   0  0  0  0  0  0  0  0  0  0  0  0
    7.9921   -1.3133    1.1570 H   0  0  0  0  0  0  0  0  0  0  0  0
    4.1307   -2.2228    0.7548 H   0  0  0  0  0  0  0  0  0  0  0  0
    5.6259   -1.8916    2.6973 H   0  0  0  0  0  0  0  0  0  0  0  0
    4.2944   -0.4885    0.3113 H   0  0  0  0  0  0  0  0  0  0  0  0
    3.2277    2.9820    9.9539 H   0  0  0  0  0  0  0  0  0  0  0  0
    3.7236    0.2713   10.9638 H   0  0  0  0  0  0  0  0  0  0  0  0
    2.1329    0.5097   10.2284 H   0  0  0  0  0  0  0  0  0  0  0  0
    1.7404    2.4858   11.7473 H   0  0  0  0  0  0  0  0  0  0  0  0
    3.3297    2.2266   12.4814 H   0  0  0  0  0  0  0  0  0  0  0  0
    2.5890   -0.0674   13.2427 H   0  0  0  0  0  0  0  0  0  0  0  0
    1.0012    0.1966   12.5129 H   0  0  0  0  0  0  0  0  0  0  0  0
    0.5842    2.1323   14.0267 H   0  0  0  0  0  0  0  0  0  0  0  0
    2.1927    1.9394   14.7463 H   0  0  0  0  0  0  0  0  0  0  0  0
    1.4001   -0.2159   15.6436 H   0  0  0  0  0  0  0  0  0  0  0  0
   -1.4885   -1.2625   14.4131 H   0  0  0  0  0  0  0  0  0  0  0  0
   -2.1110   -3.1803   16.7341 H   0  0  0  0  0  0  0  0  0  0  0  0
   -0.6229   -3.1697   15.7498 H   0  0  0  0  0  0  0  0  0  0  0  0
   -2.1858   -3.6002   14.9993 H   0  0  0  0  0  0  0  0  0  0  0  0
   -3.8856   -1.2945   16.3440 H   0  0  0  0  0  0  0  0  0  0  0  0
   -3.9511   -1.6780   14.6003 H   0  0  0  0  0  0  0  0  0  0  0  0
   -3.5194   -0.0259   15.1342 H   0  0  0  0  0  0  0  0  0  0  0  0
   -2.0898    1.8099   18.0010 H   0  0  0  0  0  0  0  0  0  0  0  0
   -0.2097    0.5278   20.0777 H   0  0  0  0  0  0  0  0  0  0  0  0
   -1.5077   -0.3101   19.1816 H   0  0  0  0  0  0  0  0  0  0  0  0
   -1.9179    0.9678   20.3635 H   0  0  0  0  0  0  0  0  0  0  0  0
    0.3649    3.0022   19.4097 H   0  0  0  0  0  0  0  0  0  0  0  0
   -1.3311    3.4680   19.7289 H   0  0  0  0  0  0  0  0  0  0  0  0
   -0.6062    3.7778   18.1259 H   0  0  0  0  0  0  0  0  0  0  0  0
    8.2098    2.5710    6.4888 H   0  0  0  0  0  0  0  0  0  0  0  0
    7.5732    4.2254    6.3881 H   0  0  0  0  0  0  0  0  0  0  0  0
    9.2531    3.8980    5.9163 H   0  0  0  0  0  0  0  0  0  0  0  0
    8.9949    4.6956    3.2836 H   0  0  0  0  0  0  0  0  0  0  0  0
    8.4111    4.6113    0.6932 H   0  0  0  0  0  0  0  0  0  0  0  0
    6.7201    4.1285    0.3780 H   0  0  0  0  0  0  0  0  0  0  0  0
    8.0134    2.9507    0.1523 H   0  0  0  0  0  0  0  0  0  0  0  0
  1  2  1  0
  1 45  1  0
  1 46  1  0
  1 47  1  0
  2  3  2  0
  2  5  1  0
  3  4  1  0
  3 48  1  0
  4  5  1  0
  4  6  1  0
  4 50  1  1
  5 49  1  0
  5 51  1  0
  6  7  2  0
  6 42  1  0
  7  8  2  0
  8  9  1  0
  8 35  1  0
  9 10  2  0
  9 33  1  0
 10 11  1  0
 10 12  1  0
 12 13  1  0
 12 14  2  0
 14 15  1  0
 14 31  1  0
 15 16  1  0
 15 52  1  0
 16 17  1  0
 16 53  1  0
 16 54  1  0
 17 18  1  0
 17 55  1  0
 17 56  1  0
 18 19  1  0
 18 57  1  0
 18 58  1  0
 19 20  1  0
 19 59  1  0
 19 60  1  0
 20 21  1  0
 20 61  1  0
 21 22  2  0
 21 23  1  1
 21 27  1  0
 23 24  1  0
 24 25  1  0
 24 26  1  0
 24 62  1  6
 25 63  1  0
 25 64  1  0
 25 65  1  0
 26 66  1  0
 26 67  1  0
 26 68  1  0
 27 28  1  0
 28 29  1  0
 28 30  1  0
 28 69  1  6
 29 70  1  0
 29 71  1  0
 29 72  1  0
 30 73  1  0
 30 74  1  0
 30 75  1  0
 31 32  1  0
 31 33  2  0
 33 34  1  0
 35 36  2  0
 35 41  1  0
 36 37  1  0
 36 38  1  0
 37 76  1  0
 37 77  1  0
 37 78  1  0
 38 39  2  0
 38 79  1  0
 39 40  1  0
 39 41  1  0
 40 80  1  0
 40 81  1  0
 40 82  1  0
 41 42  1  0
 42 43  1  6
 42 44  1  0
M  CHG  2   6   1  42  -1
M  END

