
     RDKit          3D

 47 48  0  0  0  0  0  0  0  0999 V2000
    2.4756   -3.7122    1.3217 C   0  0  0  0  0  0  0  0  0  0  0  0
    2.2519   -2.1929    1.3002 C   0  0  2  0  0  0  0  0  0  0  0  0
    0.7578   -1.8506    1.3882 C   0  0  0  0  0  0  0  0  0  0  0  0
    2.9654   -1.4500    0.1276 C   0  0  2  0  0  0  0  0  0  0  0  0
    2.7040   -0.3775    0.2797 H   0  0  0  0  0  0  0  0  0  0  0  0
    2.3626   -1.7796   -1.2598 C   0  0  0  0  0  0  0  0  0  0  0  0
    2.7613   -3.0522   -1.8339 N   0  0  0  0  0  0  0  0  0  0  0  0
    3.2826   -3.1719   -3.0881 C   0  0  0  0  0  0  0  0  0  0  0  0
    3.4777   -2.2135   -3.8242 O   0  0  0  0  0  0  0  0  0  0  0  0
    3.5825   -4.6024   -3.5324 C   0  0  0  0  0  0  0  0  0  0  0  0
    4.7782   -4.6649   -4.4962 C   0  0  0  0  0  0  0  0  0  0  0  0
    5.0007   -6.0166   -5.1118 C   0  0  0  0  0  0  0  0  0  0  0  0
    4.7558   -6.4161   -6.4046 C   0  0  0  0  0  0  0  0  0  0  0  0
    5.0597   -7.7922   -6.6460 C   0  0  0  0  0  0  0  0  0  0  0  0
    5.5332   -8.4318   -5.5303 C   0  0  0  0  0  0  0  0  0  0  0  0
    5.6155   -7.3572   -4.1740 S   0  0  0  0  0  0  0  0  0  0  0  0
    4.4199   -1.6737    0.1404 N   0  0  0  0  0  0  0  0  0  0  0  0
    5.1897   -1.0670   -0.9571 C   0  0  0  0  0  0  0  0  0  0  0  0
    5.4655    0.4222   -0.7332 C   0  0  0  0  0  0  0  0  0  0  0  0
    6.1227    0.6481    0.5023 O   0  0  0  0  0  0  0  0  0  0  0  0
    5.4078    0.1056    1.5949 C   0  0  0  0  0  0  0  0  0  0  0  0
    5.1365   -1.3880    1.3887 C   0  0  0  0  0  0  0  0  0  0  0  0
    2.1785   -4.1370    2.2939 H   0  0  0  0  0  0  0  0  0  0  0  0
    3.5309   -3.9663    1.1425 H   0  0  0  0  0  0  0  0  0  0  0  0
    1.8589   -4.2248    0.5623 H   0  0  0  0  0  0  0  0  0  0  0  0
    2.6963   -1.7902    2.2245 H   0  0  0  0  0  0  0  0  0  0  0  0
    0.1737   -2.3023    0.5697 H   0  0  0  0  0  0  0  0  0  0  0  0
    0.5861   -0.7620    1.3621 H   0  0  0  0  0  0  0  0  0  0  0  0
    0.3339   -2.2304    2.3315 H   0  0  0  0  0  0  0  0  0  0  0  0
    2.6414   -1.0181   -1.9989 H   0  0  0  0  0  0  0  0  0  0  0  0
    1.2645   -1.7258   -1.1752 H   0  0  0  0  0  0  0  0  0  0  0  0
    2.6925   -3.8839   -1.2635 H   0  0  0  0  0  0  0  0  0  0  0  0
    2.6816   -4.9812   -4.0471 H   0  0  0  0  0  0  0  0  0  0  0  0
    3.7420   -5.2597   -2.6615 H   0  0  0  0  0  0  0  0  0  0  0  0
    5.6863   -4.3299   -3.9658 H   0  0  0  0  0  0  0  0  0  0  0  0
    4.6072   -3.9319   -5.2982 H   0  0  0  0  0  0  0  0  0  0  0  0
    4.3710   -5.7343   -7.1658 H   0  0  0  0  0  0  0  0  0  0  0  0
    4.9346   -8.2842   -7.6122 H   0  0  0  0  0  0  0  0  0  0  0  0
    5.8461   -9.4699   -5.4270 H   0  0  0  0  0  0  0  0  0  0  0  0
    4.7022   -1.2178   -1.9283 H   0  0  0  0  0  0  0  0  0  0  0  0
    6.1620   -1.5898   -1.0054 H   0  0  0  0  0  0  0  0  0  0  0  0
    4.5185    1.0019   -0.7730 H   0  0  0  0  0  0  0  0  0  0  0  0
    6.1264    0.8160   -1.5213 H   0  0  0  0  0  0  0  0  0  0  0  0
    4.4531    0.6554    1.7422 H   0  0  0  0  0  0  0  0  0  0  0  0
    6.0250    0.2678    2.4933 H   0  0  0  0  0  0  0  0  0  0  0  0
    4.6102   -1.8044    2.2582 H   0  0  0  0  0  0  0  0  0  0  0  0
    6.1118   -1.9044    1.3347 H   0  0  0  0  0  0  0  0  0  0  0  0
  1  2  1  0
  1 23  1  0
  1 24  1  0
  1 25  1  0
  2  3  1  0
  2  4  1  0
  2 26  1  1
  3 27  1  0
  3 28  1  0
  3 29  1  0
  4  5  1  1
  4  6  1  0
  4 17  1  0
  6  7  1  0
  6 30  1  0
  6 31  1  0
  7  8  1  0
  7 32  1  0
  8  9  2  0
  8 10  1  0
 10 11  1  0
 10 33  1  0
 10 34  1  0
 11 12  1  0
 11 35  1  0
 11 36  1  0
 12 13  2  0
 12 16  1  0
 13 14  1  0
 13 37  1  0
 14 15  2  0
 14 38  1  0
 15 16  1  0
 15 39  1  0
 17 18  1  0
 17 22  1  0
 18 19  1  0
 18 40  1  0
 18 41  1  0
 19 20  1  0
 19 42  1  0
 19 43  1  0
 20 21  1  0
 21 22  1  0
 21 44  1  0
 21 45  1  0
 22 46  1  0
 22 47  1  0
M  END

