
     RDKit          3D

 27 28  0  0  0  0  0  0  0  0999 V2000
    1.0847    0.8263   -0.7946 C   0  0  0  0  0  0  0  0  0  0  0  0
    2.4840    0.9077   -0.9157 O   0  0  0  0  0  0  0  0  0  0  0  0
    3.1563    0.9470    0.3070 C   0  0  0  0  0  0  0  0  0  0  0  0
    4.6222    1.0322    0.0323 C   0  0  0  0  0  0  0  0  0  0  0  0
    5.3504    1.0728   -1.1195 C   0  0  0  0  0  0  0  0  0  0  0  0
    6.6926    1.1509   -0.6386 C   0  0  0  0  0  0  0  0  0  0  0  0
    7.9014    1.2196   -1.4448 C   0  0  0  0  0  0  0  0  0  0  0  0
    7.9868    1.2228   -2.7418 N   0  0  0  0  0  0  0  0  0  0  0  0
    9.3285    1.3000   -3.0291 C   0  0  0  0  0  0  0  0  0  0  0  0
    9.7935    1.3254   -4.4713 C   0  0  0  0  0  0  0  0  0  0  0  0
    8.9918    1.2792   -5.3645 O   0  0  0  0  0  0  0  0  0  0  0  0
   11.1036    1.4008   -4.6766 O   0  0  0  0  0  0  0  0  0  0  0  0
   10.0209    1.3421   -1.8344 C   0  0  0  0  0  0  0  0  0  0  0  0
   11.4425    1.4237   -1.4627 C   0  0  0  0  0  0  0  0  0  0  0  0
   12.3239    1.4736   -2.2973 O   0  0  0  0  0  0  0  0  0  0  0  0
   11.7168    1.4409   -0.1604 O   0  0  0  0  0  0  0  0  0  0  0  0
    9.1053    1.2903   -0.8224 O   0  0  0  0  0  0  0  0  0  0  0  0
    6.7516    1.1560    0.6796 N   0  0  0  0  0  0  0  0  0  0  0  0
    5.4476    1.0815    1.0969 O   0  0  0  0  0  0  0  0  0  0  0  0
    0.6668    0.7969   -1.8103 H   0  0  0  0  0  0  0  0  0  0  0  0
    0.6657    1.7031   -0.2622 H   0  0  0  0  0  0  0  0  0  0  0  0
    0.7709   -0.0886   -0.2538 H   0  0  0  0  0  0  0  0  0  0  0  0
    2.9524    0.0446    0.9237 H   0  0  0  0  0  0  0  0  0  0  0  0
    2.8492    1.8197    0.9238 H   0  0  0  0  0  0  0  0  0  0  0  0
    4.9980    1.0514   -2.1452 H   0  0  0  0  0  0  0  0  0  0  0  0
   11.6405    1.4324   -3.8453 H   0  0  0  0  0  0  0  0  0  0  0  0
   10.9014    1.3947    0.3669 H   0  0  0  0  0  0  0  0  0  0  0  0
  1  2  1  0
  1 20  1  0
  1 21  1  0
  1 22  1  0
  2  3  1  0
  3  4  1  0
  3 23  1  0
  3 24  1  0
  4  5  2  0
  4 19  1  0
  5  6  1  0
  5 25  1  0
  6  7  1  0
  6 18  2  0
  7  8  2  0
  7 17  1  0
  8  9  1  0
  9 10  1  0
  9 13  2  0
 10 11  2  0
 10 12  1  0
 12 26  1  0
 13 14  1  0
 13 17  1  0
 14 15  2  0
 14 16  1  0
 16 27  1  0
 18 19  1  0
M  END

