
     RDKit          3D

 48 49  0  0  0  0  0  0  0  0999 V2000
    1.6679   -0.4462   -1.2303 C   0  0  0  0  0  0  0  0  0  0  0  0
    3.0916   -0.2453   -0.7661 C   0  0  0  0  0  0  0  0  0  0  0  0
    3.6778    1.0208   -0.8510 C   0  0  0  0  0  0  0  0  0  0  0  0
    5.0039    1.2729   -0.4286 C   0  0  0  0  0  0  0  0  0  0  0  0
    5.5610    2.5318   -0.5252 N   0  0  0  0  0  0  0  0  0  0  0  0
    4.9022    3.6612   -1.1660 C   0  0  0  0  0  0  0  0  0  0  0  0
    6.0141    4.7125   -1.2839 C   0  0  0  0  0  0  0  0  0  0  0  0
    6.9152    4.4040   -0.0808 C   0  0  0  0  0  0  0  0  0  0  0  0
    6.8762    2.8721    0.0008 C   0  0  0  0  0  0  0  0  0  0  0  0
    5.7299    0.1801    0.0958 C   0  0  0  0  0  0  0  0  0  0  0  0
    5.1598   -1.0867    0.1900 C   0  0  0  0  0  0  0  0  0  0  0  0
    3.8434   -1.3208   -0.2376 C   0  0  0  0  0  0  0  0  0  0  0  0
    3.2324   -2.5953   -0.1611 N   0  0  0  0  0  0  0  0  0  0  0  0
    3.7366   -3.7651    0.3239 C   0  0  0  0  0  0  0  0  0  0  0  0
    4.8563   -3.9310    0.7795 O   0  0  0  0  0  0  0  0  0  0  0  0
    2.7513   -4.9495    0.3246 C   0  0  0  0  0  0  0  0  0  0  0  0
    1.3397   -4.9153   -0.8328 S   0  0  0  0  0  0  0  0  0  0  0  0
    2.2247   -5.2293   -2.4146 C   0  0  0  0  0  0  0  0  0  0  0  0
    1.2547   -5.3467   -3.5971 C   0  0  1  0  0  0  0  0  0  0  0  0
    0.5027   -4.0460   -3.8964 C   0  0  0  0  0  0  0  0  0  0  0  0
    2.0197   -5.8439   -4.8386 C   0  0  0  0  0  0  0  0  0  0  0  0
    1.1947   -6.0268   -5.9680 O   0  0  0  0  0  0  0  0  0  0  0  0
    1.2397    0.4921   -1.6098 H   0  0  0  0  0  0  0  0  0  0  0  0
    1.0125   -0.7990   -0.4142 H   0  0  0  0  0  0  0  0  0  0  0  0
    1.5959   -1.1908   -2.0428 H   0  0  0  0  0  0  0  0  0  0  0  0
    3.0735    1.8361   -1.2509 H   0  0  0  0  0  0  0  0  0  0  0  0
    4.0523    4.0381   -0.5595 H   0  0  0  0  0  0  0  0  0  0  0  0
    4.4905    3.3816   -2.1520 H   0  0  0  0  0  0  0  0  0  0  0  0
    5.6255    5.7419   -1.2882 H   0  0  0  0  0  0  0  0  0  0  0  0
    6.5725    4.5633   -2.2232 H   0  0  0  0  0  0  0  0  0  0  0  0
    6.4844    4.8394    0.8364 H   0  0  0  0  0  0  0  0  0  0  0  0
    7.9374    4.7969   -0.1869 H   0  0  0  0  0  0  0  0  0  0  0  0
    7.0023    2.5084    1.0357 H   0  0  0  0  0  0  0  0  0  0  0  0
    7.6884    2.4138   -0.6008 H   0  0  0  0  0  0  0  0  0  0  0  0
    6.7595    0.3116    0.4297 H   0  0  0  0  0  0  0  0  0  0  0  0
    5.7339   -1.9172    0.5951 H   0  0  0  0  0  0  0  0  0  0  0  0
    2.2791   -2.6691   -0.5086 H   0  0  0  0  0  0  0  0  0  0  0  0
    2.3057   -5.0162    1.3310 H   0  0  0  0  0  0  0  0  0  0  0  0
    3.3489   -5.8620    0.1814 H   0  0  0  0  0  0  0  0  0  0  0  0
    2.7953   -6.1647   -2.2920 H   0  0  0  0  0  0  0  0  0  0  0  0
    2.9467   -4.4139   -2.5888 H   0  0  0  0  0  0  0  0  0  0  0  0
    0.5130   -6.1294   -3.3410 H   0  0  0  0  0  0  0  0  0  0  0  0
    1.2116   -3.2222   -4.0898 H   0  0  0  0  0  0  0  0  0  0  0  0
   -0.1457   -3.7452   -3.0597 H   0  0  0  0  0  0  0  0  0  0  0  0
   -0.1180   -4.1681   -4.7955 H   0  0  0  0  0  0  0  0  0  0  0  0
    2.5715   -6.7719   -4.5844 H   0  0  0  0  0  0  0  0  0  0  0  0
    2.7750   -5.0938   -5.1299 H   0  0  0  0  0  0  0  0  0  0  0  0
    0.5727   -6.7411   -5.7757 H   0  0  0  0  0  0  0  0  0  0  0  0
  1  2  1  0
  1 23  1  0
  1 24  1  0
  1 25  1  0
  2  3  2  0
  2 12  1  0
  3  4  1  0
  3 26  1  0
  4  5  1  0
  4 10  2  0
  5  6  1  0
  5  9  1  0
  6  7  1  0
  6 27  1  0
  6 28  1  0
  7  8  1  0
  7 29  1  0
  7 30  1  0
  8  9  1  0
  8 31  1  0
  8 32  1  0
  9 33  1  0
  9 34  1  0
 10 11  1  0
 10 35  1  0
 11 12  2  0
 11 36  1  0
 12 13  1  0
 13 14  1  0
 13 37  1  0
 14 15  2  0
 14 16  1  0
 16 17  1  0
 16 38  1  0
 16 39  1  0
 17 18  1  0
 18 19  1  0
 18 40  1  0
 18 41  1  0
 19 20  1  0
 19 21  1  0
 19 42  1  1
 20 43  1  0
 20 44  1  0
 20 45  1  0
 21 22  1  0
 21 46  1  0
 21 47  1  0
 22 48  1  0
M  END

