
     RDKit          3D

 56 59  0  0  0  0  0  0  0  0999 V2000
    2.1066   -0.9609    2.1010 C   0  0  0  0  0  0  0  0  0  0  0  0
    2.0617   -0.3389    0.6919 C   0  0  1  0  0  0  0  0  0  0  0  0
    2.9933    0.8722    0.5253 C   0  0  0  0  0  0  0  0  0  0  0  0
    3.7696    1.3988    1.5674 C   0  0  0  0  0  0  0  0  0  0  0  0
    4.5787    2.5251    1.3662 C   0  0  0  0  0  0  0  0  0  0  0  0
    4.6232    3.1469    0.1184 C   0  0  0  0  0  0  0  0  0  0  0  0
    3.8536    2.6313   -0.9317 C   0  0  0  0  0  0  0  0  0  0  0  0
    3.0542    1.5070   -0.7287 C   0  0  0  0  0  0  0  0  0  0  0  0
    2.2437   -1.2717   -0.4183 N   0  0  0  0  0  0  0  0  0  0  0  0
    3.5230   -1.9407   -0.5838 C   0  0  0  0  0  0  0  0  0  0  0  0
    3.5456   -3.3898   -0.0554 C   0  0  0  0  0  0  0  0  0  0  0  0
    2.3782   -4.2290   -0.6002 C   0  0  2  0  0  0  0  0  0  0  0  0
    2.5869   -4.5179   -2.0218 N   0  0  0  0  0  0  0  0  0  0  0  0
    1.9682   -5.5951   -2.6191 C   0  0  0  0  0  0  0  0  0  0  0  0
    1.1460   -6.2887   -2.0364 O   0  0  0  0  0  0  0  0  0  0  0  0
    2.3622   -5.8278   -3.9265 N   0  0  0  0  0  0  0  0  0  0  0  0
    1.6977   -6.8358   -4.7413 C   0  0  2  0  0  0  0  0  0  0  0  0
    2.7217   -7.6665   -5.5415 C   0  0  0  0  0  0  0  0  0  0  0  0
    3.5468   -6.8178   -6.5305 C   0  0  0  0  0  0  0  0  0  0  0  0
    2.6564   -5.8451   -7.2541 C   0  0  0  0  0  0  0  0  0  0  0  0
    2.8478   -5.0100   -8.3880 C   0  0  0  0  0  0  0  0  0  0  0  0
    1.7623   -4.2920   -8.6602 N   0  0  0  0  0  0  0  0  0  0  0  0
    0.8724   -4.6483   -7.7185 N   0  0  0  0  0  0  0  0  0  0  0  0
   -0.0484   -4.2263   -7.7216 H   0  0  0  0  0  0  0  0  0  0  0  0
    1.3557   -5.5767   -6.8483 C   0  0  0  0  0  0  0  0  0  0  0  0
    0.6459   -6.2105   -5.6924 C   0  0  0  0  0  0  0  0  0  0  0  0
    1.0484   -3.4849   -0.3627 C   0  0  0  0  0  0  0  0  0  0  0  0
    1.1104   -2.0476   -0.9027 C   0  0  0  0  0  0  0  0  0  0  0  0
    1.8351   -0.2241    2.8735 H   0  0  0  0  0  0  0  0  0  0  0  0
    3.1061   -1.3528    2.3487 H   0  0  0  0  0  0  0  0  0  0  0  0
    1.3890   -1.7909    2.1726 H   0  0  0  0  0  0  0  0  0  0  0  0
    1.0376    0.0566    0.5615 H   0  0  0  0  0  0  0  0  0  0  0  0
    3.7538    0.9366    2.5555 H   0  0  0  0  0  0  0  0  0  0  0  0
    5.1767    2.9142    2.1947 H   0  0  0  0  0  0  0  0  0  0  0  0
    5.2533    4.0263   -0.0386 H   0  0  0  0  0  0  0  0  0  0  0  0
    3.8796    3.1092   -1.9150 H   0  0  0  0  0  0  0  0  0  0  0  0
    2.4677    1.0929   -1.5522 H   0  0  0  0  0  0  0  0  0  0  0  0
    4.3087   -1.3469   -0.0925 H   0  0  0  0  0  0  0  0  0  0  0  0
    3.7877   -1.9467   -1.6621 H   0  0  0  0  0  0  0  0  0  0  0  0
    3.4720   -3.3820    1.0434 H   0  0  0  0  0  0  0  0  0  0  0  0
    4.5082   -3.8713   -0.3049 H   0  0  0  0  0  0  0  0  0  0  0  0
    2.3343   -5.1941   -0.0695 H   0  0  0  0  0  0  0  0  0  0  0  0
    3.4148   -4.1371   -2.4640 H   0  0  0  0  0  0  0  0  0  0  0  0
    2.8337   -5.0775   -4.4202 H   0  0  0  0  0  0  0  0  0  0  0  0
    1.1763   -7.4842   -4.0252 H   0  0  0  0  0  0  0  0  0  0  0  0
    2.1685   -8.4412   -6.0999 H   0  0  0  0  0  0  0  0  0  0  0  0
    3.3896   -8.1901   -4.8401 H   0  0  0  0  0  0  0  0  0  0  0  0
    4.0741   -7.4767   -7.2404 H   0  0  0  0  0  0  0  0  0  0  0  0
    4.3436   -6.2788   -5.9838 H   0  0  0  0  0  0  0  0  0  0  0  0
    3.7341   -4.9083   -9.0155 H   0  0  0  0  0  0  0  0  0  0  0  0
   -0.0403   -7.0018   -6.0461 H   0  0  0  0  0  0  0  0  0  0  0  0
    0.0288   -5.4864   -5.1351 H   0  0  0  0  0  0  0  0  0  0  0  0
    0.8422   -3.4794    0.7211 H   0  0  0  0  0  0  0  0  0  0  0  0
    0.2335   -4.0492   -0.8418 H   0  0  0  0  0  0  0  0  0  0  0  0
    0.1806   -1.5064   -0.6663 H   0  0  0  0  0  0  0  0  0  0  0  0
    1.1669   -2.1038   -2.0083 H   0  0  0  0  0  0  0  0  0  0  0  0
  1  2  1  0
  1 29  1  0
  1 30  1  0
  1 31  1  0
  2  3  1  0
  2  9  1  0
  2 32  1  6
  3  4  2  0
  3  8  1  0
  4  5  1  0
  4 33  1  0
  5  6  2  0
  5 34  1  0
  6  7  1  0
  6 35  1  0
  7  8  2  0
  7 36  1  0
  8 37  1  0
  9 10  1  0
  9 28  1  0
 10 11  1  0
 10 38  1  0
 10 39  1  0
 11 12  1  0
 11 40  1  0
 11 41  1  0
 12 13  1  0
 12 27  1  0
 12 42  1  1
 13 14  1  0
 13 43  1  0
 14 15  2  0
 14 16  1  0
 16 17  1  0
 16 44  1  0
 17 18  1  0
 17 26  1  0
 17 45  1  1
 18 19  1  0
 18 46  1  0
 18 47  1  0
 19 20  1  0
 19 48  1  0
 19 49  1  0
 20 21  1  0
 20 25  2  0
 21 22  2  0
 21 50  1  0
 22 23  1  0
 23 24  1  0
 23 25  1  0
 25 26  1  0
 26 51  1  0
 26 52  1  0
 27 28  1  0
 27 53  1  0
 27 54  1  0
 28 55  1  0
 28 56  1  0
M  END

