
     RDKit          3D

 38 38  0  0  0  0  0  0  0  0999 V2000
    2.2151    1.3931    0.9533 C   0  0  0  0  0  0  0  0  0  0  0  0
    2.7809    0.2634    0.3306 O   0  0  0  0  0  0  0  0  0  0  0  0
    3.0991    0.3243   -0.9922 C   0  0  0  0  0  0  0  0  0  0  0  0
    2.8792    1.4419   -1.8050 C   0  0  0  0  0  0  0  0  0  0  0  0
    3.2777    1.4147   -3.1468 C   0  0  0  0  0  0  0  0  0  0  0  0
    3.8944    0.2863   -3.6769 C   0  0  0  0  0  0  0  0  0  0  0  0
    4.1166   -0.8528   -2.8836 C   0  0  0  0  0  0  0  0  0  0  0  0
    4.7786   -2.0858   -3.4538 C   0  0  0  0  0  0  0  0  0  0  0  0
    3.8186   -3.0357   -4.2004 C   0  0  1  0  0  0  0  0  0  0  0  0
    3.2091   -2.3922   -5.3101 O   0  0  0  0  0  0  0  0  0  0  0  0
    4.4899   -4.3440   -4.6443 C   0  0  0  0  0  0  0  0  0  0  0  0
    4.9033   -5.2970   -3.5205 C   0  0  0  0  0  0  0  0  0  0  0  0
    5.4849   -6.6167   -4.0289 C   0  0  0  0  0  0  0  0  0  0  0  0
    5.8043   -7.5076   -2.9179 N   0  0  0  0  0  0  0  0  0  0  0  0
    3.7031   -0.8355   -1.5408 C   0  0  0  0  0  0  0  0  0  0  0  0
    3.9659   -1.9260   -0.7546 O   0  0  0  0  0  0  0  0  0  0  0  0
    2.8619   -2.6401   -0.2180 C   0  0  0  0  0  0  0  0  0  0  0  0
    2.0605    1.1254    2.0075 H   0  0  0  0  0  0  0  0  0  0  0  0
    1.2414    1.6676    0.5080 H   0  0  0  0  0  0  0  0  0  0  0  0
    2.8865    2.2693    0.9020 H   0  0  0  0  0  0  0  0  0  0  0  0
    2.4105    2.3385   -1.3993 H   0  0  0  0  0  0  0  0  0  0  0  0
    3.1051    2.2921   -3.7749 H   0  0  0  0  0  0  0  0  0  0  0  0
    4.2045    0.2735   -4.7236 H   0  0  0  0  0  0  0  0  0  0  0  0
    5.2666   -2.6388   -2.6398 H   0  0  0  0  0  0  0  0  0  0  0  0
    5.5704   -1.7824   -4.1632 H   0  0  0  0  0  0  0  0  0  0  0  0
    2.9807   -3.2833   -3.5263 H   0  0  0  0  0  0  0  0  0  0  0  0
    3.9006   -2.2136   -5.9626 H   0  0  0  0  0  0  0  0  0  0  0  0
    5.3716   -4.0951   -5.2677 H   0  0  0  0  0  0  0  0  0  0  0  0
    3.7744   -4.8529   -5.3130 H   0  0  0  0  0  0  0  0  0  0  0  0
    4.0363   -5.5280   -2.8779 H   0  0  0  0  0  0  0  0  0  0  0  0
    5.6491   -4.8127   -2.8643 H   0  0  0  0  0  0  0  0  0  0  0  0
    6.3467   -6.3932   -4.6981 H   0  0  0  0  0  0  0  0  0  0  0  0
    4.7332   -7.1187   -4.6638 H   0  0  0  0  0  0  0  0  0  0  0  0
    6.5681   -7.1178   -2.3630 H   0  0  0  0  0  0  0  0  0  0  0  0
    6.1399   -8.4061   -3.2648 H   0  0  0  0  0  0  0  0  0  0  0  0
    3.2747   -3.5295    0.2794 H   0  0  0  0  0  0  0  0  0  0  0  0
    2.1703   -2.9678   -1.0157 H   0  0  0  0  0  0  0  0  0  0  0  0
    2.3042   -2.0393    0.5165 H   0  0  0  0  0  0  0  0  0  0  0  0
  1  2  1  0
  1 18  1  0
  1 19  1  0
  1 20  1  0
  2  3  1  0
  3  4  2  0
  3 15  1  0
  4  5  1  0
  4 21  1  0
  5  6  2  0
  5 22  1  0
  6  7  1  0
  6 23  1  0
  7  8  1  0
  7 15  2  0
  8  9  1  0
  8 24  1  0
  8 25  1  0
  9 10  1  0
  9 11  1  0
  9 26  1  1
 10 27  1  0
 11 12  1  0
 11 28  1  0
 11 29  1  0
 12 13  1  0
 12 30  1  0
 12 31  1  0
 13 14  1  0
 13 32  1  0
 13 33  1  0
 14 34  1  0
 14 35  1  0
 15 16  1  0
 16 17  1  0
 17 36  1  0
 17 37  1  0
 17 38  1  0
M  END

