
     RDKit          3D

 30 31  0  0  0  0  0  0  0  0999 V2000
    2.4686    1.0810   -0.8831 C   0  0  0  0  0  0  0  0  0  0  0  0
    2.6633    0.0237    0.0348 O   0  0  0  0  0  0  0  0  0  0  0  0
    3.2792    0.2561    1.2220 C   0  0  0  0  0  0  0  0  0  0  0  0
    3.7766    1.5146    1.5963 C   0  0  0  0  0  0  0  0  0  0  0  0
    4.4045    1.6618    2.8348 C   0  0  0  0  0  0  0  0  0  0  0  0
    4.5447    0.5818    3.7024 C   0  0  0  0  0  0  0  0  0  0  0  0
    4.0451   -0.6703    3.3199 C   0  0  0  0  0  0  0  0  0  0  0  0
    4.1509   -1.7609    4.1212 O   0  0  0  0  0  0  0  0  0  0  0  0
    3.4001   -0.8593    2.0860 C   0  0  0  0  0  0  0  0  0  0  0  0
    2.8585   -2.2134    1.6440 C   0  0  1  0  0  0  0  0  0  0  0  0
    3.9075   -3.1907    1.3458 N   0  0  0  0  0  0  0  0  0  0  0  0
    4.3114   -4.2339    2.1049 C   0  0  0  0  0  0  0  0  0  0  0  0
    5.6566   -5.1508    1.7645 S   0  0  0  0  0  0  0  0  0  0  0  0
    3.5179   -4.5217    3.2070 N   0  0  0  0  0  0  0  0  0  0  0  0
    2.3929   -3.8528    3.6345 C   0  0  0  0  0  0  0  0  0  0  0  0
    1.8532   -4.0806    4.6900 O   0  0  0  0  0  0  0  0  0  0  0  0
    1.8159   -2.8520    2.6101 C   0  0  2  0  0  0  0  0  0  0  0  0
    0.7634   -3.5402    1.8493 C   0  0  0  0  0  0  0  0  0  0  0  0
   -0.0589   -4.0741    1.2320 N   0  0  0  0  0  0  0  0  0  0  0  0
    1.9451    0.6484   -1.7455 H   0  0  0  0  0  0  0  0  0  0  0  0
    3.4284    1.5087   -1.2213 H   0  0  0  0  0  0  0  0  0  0  0  0
    1.8476    1.8849   -0.4513 H   0  0  0  0  0  0  0  0  0  0  0  0
    3.6815    2.3729    0.9333 H   0  0  0  0  0  0  0  0  0  0  0  0
    4.7923    2.6409    3.1263 H   0  0  0  0  0  0  0  0  0  0  0  0
    5.0392    0.6988    4.6706 H   0  0  0  0  0  0  0  0  0  0  0  0
    4.5688   -1.5303    4.9615 H   0  0  0  0  0  0  0  0  0  0  0  0
    2.3364   -2.0236    0.6994 H   0  0  0  0  0  0  0  0  0  0  0  0
    4.5146   -2.9953    0.5571 H   0  0  0  0  0  0  0  0  0  0  0  0
    3.8702   -5.2581    3.8133 H   0  0  0  0  0  0  0  0  0  0  0  0
    1.3318   -2.0650    3.2061 H   0  0  0  0  0  0  0  0  0  0  0  0
  1  2  1  0
  1 20  1  0
  1 21  1  0
  1 22  1  0
  2  3  1  0
  3  4  2  0
  3  9  1  0
  4  5  1  0
  4 23  1  0
  5  6  2  0
  5 24  1  0
  6  7  1  0
  6 25  1  0
  7  8  1  0
  7  9  2  0
  8 26  1  0
  9 10  1  0
 10 11  1  0
 10 17  1  0
 10 27  1  6
 11 12  1  0
 11 28  1  0
 12 13  2  0
 12 14  1  0
 14 15  1  0
 14 29  1  0
 15 16  2  0
 15 17  1  0
 17 18  1  0
 17 30  1  1
 18 19  3  0
M  END

