
     RDKit          3D

 31 31  0  0  0  0  0  0  0  0999 V2000
    1.9328    0.0455    1.0134 C   0  0  0  0  0  0  0  0  0  0  0  0
    2.9689   -0.4887    0.0225 C   0  0  1  0  0  0  0  0  0  0  0  0
    2.3989   -1.5674   -0.9227 C   0  0  0  0  0  0  0  0  0  0  0  0
    1.9169   -2.7147   -0.1640 N   0  0  0  0  0  0  0  0  0  0  0  0
    3.6180    0.5753   -0.7689 N   0  0  0  0  0  0  0  0  0  0  0  0
    2.8133    1.5943   -1.4322 C   0  0  0  0  0  0  0  0  0  0  0  0
    5.2621    0.8324   -0.6240 S   0  0  1  0  0  0  0  0  0  0  0  0
    5.8654   -0.4481   -0.2469 O   0  0  0  0  0  0  0  0  0  0  0  0
    5.6876    1.5729   -1.8127 O   0  0  0  0  0  0  0  0  0  0  0  0
    5.4963    1.9445    0.7796 C   0  0  0  0  0  0  0  0  0  0  0  0
    5.7080    1.4174    2.0574 C   0  0  0  0  0  0  0  0  0  0  0  0
    5.8540    2.2879    3.1353 C   0  0  0  0  0  0  0  0  0  0  0  0
    5.7960    3.6753    2.9447 C   0  0  0  0  0  0  0  0  0  0  0  0
    5.9815    4.7133    4.3243 Cl  0  0  0  0  0  0  0  0  0  0  0  0
    5.6014    4.1948    1.6518 C   0  0  0  0  0  0  0  0  0  0  0  0
    5.5415    6.0642    1.3333 Br  0  0  0  0  0  0  0  0  0  0  0  0
    5.4577    3.3241    0.5671 C   0  0  0  0  0  0  0  0  0  0  0  0
    1.4967   -0.8007    1.5619 H   0  0  0  0  0  0  0  0  0  0  0  0
    1.1077    0.5659    0.5006 H   0  0  0  0  0  0  0  0  0  0  0  0
    2.3876    0.7449    1.7321 H   0  0  0  0  0  0  0  0  0  0  0  0
    3.7766   -0.9761    0.5882 H   0  0  0  0  0  0  0  0  0  0  0  0
    3.1895   -1.8001   -1.6640 H   0  0  0  0  0  0  0  0  0  0  0  0
    1.5470   -1.1476   -1.4856 H   0  0  0  0  0  0  0  0  0  0  0  0
    2.7017   -3.2761    0.1692 H   0  0  0  0  0  0  0  0  0  0  0  0
    1.3554   -3.3283   -0.7523 H   0  0  0  0  0  0  0  0  0  0  0  0
    1.9382    1.1172   -1.8980 H   0  0  0  0  0  0  0  0  0  0  0  0
    3.4043    2.0593   -2.2307 H   0  0  0  0  0  0  0  0  0  0  0  0
    2.4518    2.3800   -0.7431 H   0  0  0  0  0  0  0  0  0  0  0  0
    5.7793    0.3380    2.1981 H   0  0  0  0  0  0  0  0  0  0  0  0
    6.0248    1.9030    4.1421 H   0  0  0  0  0  0  0  0  0  0  0  0
    5.3395    3.7193   -0.4422 H   0  0  0  0  0  0  0  0  0  0  0  0
  1  2  1  0
  1 18  1  0
  1 19  1  0
  1 20  1  0
  2  3  1  0
  2  5  1  0
  2 21  1  1
  3  4  1  0
  3 22  1  0
  3 23  1  0
  4 24  1  0
  4 25  1  0
  5  6  1  0
  7  5  1  6
  6 26  1  0
  6 27  1  0
  6 28  1  0
  7  8  2  0
  7  9  2  0
  7 10  1  0
 10 11  2  0
 10 17  1  0
 11 12  1  0
 11 29  1  0
 12 13  2  0
 12 30  1  0
 13 14  1  0
 13 15  1  0
 15 16  1  0
 15 17  2  0
 17 31  1  0
M  END

