
     RDKit          3D

 70 72  0  0  0  0  0  0  0  0999 V2000
    3.1697    0.8422   -1.0890 C   0  0  0  0  0  0  0  0  0  0  0  0
    2.5023   -0.1711   -0.3719 O   0  0  0  0  0  0  0  0  0  0  0  0
    3.2308   -1.0511    0.3658 C   0  0  0  0  0  0  0  0  0  0  0  0
    4.6277   -1.0574    0.4459 C   0  0  0  0  0  0  0  0  0  0  0  0
    5.2901   -1.9877    1.2585 C   0  0  0  0  0  0  0  0  0  0  0  0
    4.5842   -2.9290    2.0111 C   0  0  0  0  0  0  0  0  0  0  0  0
    5.3067   -3.9172    2.9313 C   0  0  1  0  0  0  0  0  0  0  0  0
    5.1676   -3.4996    4.4095 C   0  0  0  0  0  0  0  0  0  0  0  0
    6.0450   -4.3250    5.3678 C   0  0  0  0  0  0  0  0  0  0  0  0
    5.8507   -3.9585    6.8213 C   0  0  0  0  0  0  0  0  0  0  0  0
    4.8701   -4.5929    7.6014 C   0  0  0  0  0  0  0  0  0  0  0  0
    4.6559   -4.2396    8.9355 C   0  0  0  0  0  0  0  0  0  0  0  0
    5.4350   -3.2317    9.5093 C   0  0  0  0  0  0  0  0  0  0  0  0
    5.1794   -2.7824   11.1831 Cl  0  0  0  0  0  0  0  0  0  0  0  0
    6.4197   -2.5826    8.7604 C   0  0  0  0  0  0  0  0  0  0  0  0
    6.6173   -2.9502    7.4275 C   0  0  0  0  0  0  0  0  0  0  0  0
    4.9025   -5.3106    2.7792 N   0  0  0  0  0  0  0  0  0  0  0  0
    5.1491   -5.9213    1.4888 C   0  0  0  0  0  0  0  0  0  0  0  0
    4.4721   -7.2930    1.4208 C   0  0  1  0  0  0  0  0  0  0  0  0
    3.0772   -7.1639    1.6621 O   0  0  0  0  0  0  0  0  0  0  0  0
    4.7703   -8.0264    0.0990 C   0  0  0  0  0  0  0  0  0  0  0  0
    4.1949   -9.4224    0.0253 C   0  0  0  0  0  0  0  0  0  0  0  0
    4.9624  -10.5406    0.3756 C   0  0  0  0  0  0  0  0  0  0  0  0
    4.4097  -11.8254    0.3543 C   0  0  0  0  0  0  0  0  0  0  0  0
    3.0828  -12.0138   -0.0304 C   0  0  0  0  0  0  0  0  0  0  0  0
    2.4752  -13.2359   -0.0930 O   0  0  0  0  0  0  0  0  0  0  0  0
    2.2905  -10.8981   -0.3798 C   0  0  0  0  0  0  0  0  0  0  0  0
    0.9408  -11.1358   -0.7256 N   0  0  0  0  0  0  0  0  0  0  0  0
    0.1439  -10.4337   -2.0342 S   0  0  1  0  0  0  0  0  0  0  0  0
    1.0719  -10.9473   -3.4939 C   0  0  0  0  0  0  0  0  0  0  0  0
   -1.1596  -11.0895   -2.0715 O   0  0  0  0  0  0  0  0  0  0  0  0
    0.2785   -8.9814   -1.9331 O   0  0  0  0  0  0  0  0  0  0  0  0
    2.8539   -9.6187   -0.3401 C   0  0  0  0  0  0  0  0  0  0  0  0
    3.1822   -2.9256    1.9112 C   0  0  0  0  0  0  0  0  0  0  0  0
    2.4986   -2.0137    1.1081 C   0  0  0  0  0  0  0  0  0  0  0  0
    1.1341   -2.0332    1.1156 O   0  0  0  0  0  0  0  0  0  0  0  0
    0.4674   -2.3303   -0.1024 C   0  0  0  0  0  0  0  0  0  0  0  0
    2.3922    1.4403   -1.5830 H   0  0  0  0  0  0  0  0  0  0  0  0
    3.8450    0.4274   -1.8595 H   0  0  0  0  0  0  0  0  0  0  0  0
    3.7556    1.4986   -0.4207 H   0  0  0  0  0  0  0  0  0  0  0  0
    5.2142   -0.3326   -0.1194 H   0  0  0  0  0  0  0  0  0  0  0  0
    6.3831   -1.9671    1.3029 H   0  0  0  0  0  0  0  0  0  0  0  0
    6.3810   -3.8669    2.6732 H   0  0  0  0  0  0  0  0  0  0  0  0
    4.1074   -3.5906    4.7081 H   0  0  0  0  0  0  0  0  0  0  0  0
    5.4142   -2.4292    4.5022 H   0  0  0  0  0  0  0  0  0  0  0  0
    7.1042   -4.1843    5.0908 H   0  0  0  0  0  0  0  0  0  0  0  0
    5.8195   -5.3898    5.2084 H   0  0  0  0  0  0  0  0  0  0  0  0
    4.2613   -5.3867    7.1586 H   0  0  0  0  0  0  0  0  0  0  0  0
    3.8932   -4.7427    9.5325 H   0  0  0  0  0  0  0  0  0  0  0  0
    7.0251   -1.8002    9.2216 H   0  0  0  0  0  0  0  0  0  0  0  0
    7.3927   -2.4413    6.8472 H   0  0  0  0  0  0  0  0  0  0  0  0
    3.9197   -5.4384    3.0224 H   0  0  0  0  0  0  0  0  0  0  0  0
    6.2380   -6.0363    1.3379 H   0  0  0  0  0  0  0  0  0  0  0  0
    4.7804   -5.3093    0.6322 H   0  0  0  0  0  0  0  0  0  0  0  0
    4.8442   -7.9027    2.2608 H   0  0  0  0  0  0  0  0  0  0  0  0
    2.6885   -6.6563    0.9344 H   0  0  0  0  0  0  0  0  0  0  0  0
    5.8642   -8.0676   -0.0320 H   0  0  0  0  0  0  0  0  0  0  0  0
    4.3803   -7.4142   -0.7345 H   0  0  0  0  0  0  0  0  0  0  0  0
    6.0072  -10.4148    0.6722 H   0  0  0  0  0  0  0  0  0  0  0  0
    5.0196  -12.6931    0.6250 H   0  0  0  0  0  0  0  0  0  0  0  0
    3.0752  -13.9193    0.2321 H   0  0  0  0  0  0  0  0  0  0  0  0
    0.6190  -12.0895   -0.5715 H   0  0  0  0  0  0  0  0  0  0  0  0
    1.0162  -12.0400   -3.5797 H   0  0  0  0  0  0  0  0  0  0  0  0
    2.1096  -10.6018   -3.3983 H   0  0  0  0  0  0  0  0  0  0  0  0
    0.5845  -10.4649   -4.3520 H   0  0  0  0  0  0  0  0  0  0  0  0
    2.2190   -8.7719   -0.5969 H   0  0  0  0  0  0  0  0  0  0  0  0
    2.5702   -3.6386    2.4701 H   0  0  0  0  0  0  0  0  0  0  0  0
   -0.6060   -2.3726    0.1299 H   0  0  0  0  0  0  0  0  0  0  0  0
    0.7825   -3.3131   -0.4995 H   0  0  0  0  0  0  0  0  0  0  0  0
    0.6435   -1.5586   -0.8676 H   0  0  0  0  0  0  0  0  0  0  0  0
  1  2  1  0
  1 38  1  0
  1 39  1  0
  1 40  1  0
  2  3  1  0
  3  4  2  0
  3 35  1  0
  4  5  1  0
  4 41  1  0
  5  6  2  0
  5 42  1  0
  6  7  1  0
  6 34  1  0
  7  8  1  0
  7 17  1  0
  7 43  1  6
  8  9  1  0
  8 44  1  0
  8 45  1  0
  9 10  1  0
  9 46  1  0
  9 47  1  0
 10 11  2  0
 10 16  1  0
 11 12  1  0
 11 48  1  0
 12 13  2  0
 12 49  1  0
 13 14  1  0
 13 15  1  0
 15 16  2  0
 15 50  1  0
 16 51  1  0
 17 18  1  0
 17 52  1  0
 18 19  1  0
 18 53  1  0
 18 54  1  0
 19 20  1  0
 19 21  1  0
 19 55  1  1
 20 56  1  0
 21 22  1  0
 21 57  1  0
 21 58  1  0
 22 23  2  0
 22 33  1  0
 23 24  1  0
 23 59  1  0
 24 25  2  0
 24 60  1  0
 25 26  1  0
 25 27  1  0
 26 61  1  0
 27 28  1  0
 27 33  2  0
 29 28  1  1
 28 62  1  0
 29 30  1  0
 29 31  2  0
 29 32  2  0
 30 63  1  0
 30 64  1  0
 30 65  1  0
 33 66  1  0
 34 35  2  0
 34 67  1  0
 35 36  1  0
 36 37  1  0
 37 68  1  0
 37 69  1  0
 37 70  1  0
M  END

