
     RDKit          3D

 41 42  0  0  0  0  0  0  0  0999 V2000
    1.1647    0.8779    0.9424 C   0  0  0  0  0  0  0  0  0  0  0  0
    2.5536    1.4762    0.8288 C   0  0  0  0  0  0  0  0  0  0  0  0
    3.3307    0.6394   -0.0141 O   0  0  0  0  0  0  0  0  0  0  0  0
    4.6322    0.9551   -0.2684 C   0  0  0  0  0  0  0  0  0  0  0  0
    5.2996    2.0779    0.2238 C   0  0  0  0  0  0  0  0  0  0  0  0
    6.6390    2.3085   -0.1100 C   0  0  0  0  0  0  0  0  0  0  0  0
    7.3163    1.4265   -0.9555 C   0  0  0  0  0  0  0  0  0  0  0  0
    8.7503    1.7383   -1.2805 C   0  0  0  0  0  0  0  0  0  0  0  0
    9.4259    2.4881   -0.5873 O   0  0  0  0  0  0  0  0  0  0  0  0
    9.2626    1.1527   -2.4090 N   0  0  0  0  0  0  0  0  0  0  0  0
   10.6360    1.3781   -2.8207 C   0  0  0  0  0  0  0  0  0  0  0  0
   11.6482    0.4579   -2.1055 C   0  0  0  0  0  0  0  0  0  0  0  0
   13.0761    0.7448   -2.5094 C   0  0  0  0  0  0  0  0  0  0  0  0
   13.7833    1.8071   -1.9205 C   0  0  0  0  0  0  0  0  0  0  0  0
   15.0896    2.1063   -2.3153 C   0  0  0  0  0  0  0  0  0  0  0  0
   15.7154    1.3473   -3.3095 C   0  0  0  0  0  0  0  0  0  0  0  0
   15.0245    0.2878   -3.9041 C   0  0  0  0  0  0  0  0  0  0  0  0
   13.7167   -0.0074   -3.5069 C   0  0  0  0  0  0  0  0  0  0  0  0
    6.6445    0.2872   -1.4382 C   0  0  0  0  0  0  0  0  0  0  0  0
    5.3096    0.0282   -1.1088 C   0  0  0  0  0  0  0  0  0  0  0  0
    4.6426   -1.1162   -1.5152 N   0  0  0  0  0  0  0  0  0  0  0  0
    0.5338    1.5029    1.5930 H   0  0  0  0  0  0  0  0  0  0  0  0
    1.2104   -0.1347    1.3718 H   0  0  0  0  0  0  0  0  0  0  0  0
    0.6850    0.8132   -0.0466 H   0  0  0  0  0  0  0  0  0  0  0  0
    3.0313    1.5517    1.8235 H   0  0  0  0  0  0  0  0  0  0  0  0
    2.5083    2.4976    0.4059 H   0  0  0  0  0  0  0  0  0  0  0  0
    4.7816    2.7846    0.8724 H   0  0  0  0  0  0  0  0  0  0  0  0
    7.1736    3.1760    0.2788 H   0  0  0  0  0  0  0  0  0  0  0  0
    8.6459    0.6327   -3.0178 H   0  0  0  0  0  0  0  0  0  0  0  0
   10.8929    2.4262   -2.6033 H   0  0  0  0  0  0  0  0  0  0  0  0
   10.7026    1.2368   -3.9110 H   0  0  0  0  0  0  0  0  0  0  0  0
   11.3941   -0.5930   -2.3225 H   0  0  0  0  0  0  0  0  0  0  0  0
   11.5244    0.6075   -1.0215 H   0  0  0  0  0  0  0  0  0  0  0  0
   13.3015    2.4017   -1.1385 H   0  0  0  0  0  0  0  0  0  0  0  0
   15.6237    2.9341   -1.8411 H   0  0  0  0  0  0  0  0  0  0  0  0
   16.7388    1.5785   -3.6165 H   0  0  0  0  0  0  0  0  0  0  0  0
   15.5064   -0.3148   -4.6787 H   0  0  0  0  0  0  0  0  0  0  0  0
   13.1855   -0.8426   -3.9738 H   0  0  0  0  0  0  0  0  0  0  0  0
    7.1705   -0.4514   -2.0498 H   0  0  0  0  0  0  0  0  0  0  0  0
    4.9795   -1.5641   -2.3585 H   0  0  0  0  0  0  0  0  0  0  0  0
    3.6330   -1.0736   -1.4392 H   0  0  0  0  0  0  0  0  0  0  0  0
  1  2  1  0
  1 22  1  0
  1 23  1  0
  1 24  1  0
  2  3  1  0
  2 25  1  0
  2 26  1  0
  3  4  1  0
  4  5  2  0
  4 20  1  0
  5  6  1  0
  5 27  1  0
  6  7  2  0
  6 28  1  0
  7  8  1  0
  7 19  1  0
  8  9  2  0
  8 10  1  0
 10 11  1  0
 10 29  1  0
 11 12  1  0
 11 30  1  0
 11 31  1  0
 12 13  1  0
 12 32  1  0
 12 33  1  0
 13 14  2  0
 13 18  1  0
 14 15  1  0
 14 34  1  0
 15 16  2  0
 15 35  1  0
 16 17  1  0
 16 36  1  0
 17 18  2  0
 17 37  1  0
 18 38  1  0
 19 20  2  0
 19 39  1  0
 20 21  1  0
 21 40  1  0
 21 41  1  0
M  END

