
     RDKit          3D

 68 74  0  0  0  0  0  0  0  0999 V2000
    2.5935    2.4219   -3.6263 C   0  0  0  0  0  0  0  0  0  0  0  0
    2.5736    3.0655   -2.3844 C   0  0  0  0  0  0  0  0  0  0  0  0
    2.6537    2.3336   -1.1995 C   0  0  0  0  0  0  0  0  0  0  0  0
    2.7376    0.9268   -1.2315 C   0  0  0  0  0  0  0  0  0  0  0  0
    2.8400    0.1673   -0.0379 N   0  0  0  0  0  0  0  0  0  0  0  0
    2.1929    0.5524    1.1641 C   0  0  0  0  0  0  0  0  0  0  0  0
    0.9370    1.1923    1.1472 C   0  0  0  0  0  0  0  0  0  0  0  0
    0.3060    1.5458    2.3401 C   0  0  0  0  0  0  0  0  0  0  0  0
    0.8961    1.2570    3.5752 C   0  0  0  0  0  0  0  0  0  0  0  0
    2.1339    0.6091    3.5980 C   0  0  0  0  0  0  0  0  0  0  0  0
    2.7813    0.2639    2.4099 C   0  0  0  0  0  0  0  0  0  0  0  0
    3.6256   -1.0312   -0.0463 C   0  0  0  0  0  0  0  0  0  0  0  0
    5.0372   -0.9441   -0.0844 C   0  0  0  0  0  0  0  0  0  0  0  0
    5.7180    0.3165   -0.0893 C   0  0  0  0  0  0  0  0  0  0  0  0
    7.0869    0.3848   -0.1581 C   0  0  0  0  0  0  0  0  0  0  0  0
    7.8639   -0.8060   -0.2335 C   0  0  0  0  0  0  0  0  0  0  0  0
    7.2536   -2.0350   -0.2099 C   0  0  0  0  0  0  0  0  0  0  0  0
    5.8289   -2.1543   -0.1168 C   0  0  0  0  0  0  0  0  0  0  0  0
    5.1866   -3.4136   -0.0581 C   0  0  0  0  0  0  0  0  0  0  0  0
    5.9721   -4.6121   -0.0616 N   0  0  0  0  0  0  0  0  0  0  0  0
    6.7019   -4.9547    1.1055 C   0  0  0  0  0  0  0  0  0  0  0  0
    6.2008   -4.6220    2.3781 C   0  0  0  0  0  0  0  0  0  0  0  0
    6.9298   -4.9249    3.5299 C   0  0  0  0  0  0  0  0  0  0  0  0
    8.1646   -5.5733    3.4442 C   0  0  0  0  0  0  0  0  0  0  0  0
    8.6684   -5.9056    2.1822 C   0  0  0  0  0  0  0  0  0  0  0  0
    7.9554   -5.5946    1.0242 C   0  0  0  0  0  0  0  0  0  0  0  0
    5.9912   -5.4142   -1.2314 C   0  0  0  0  0  0  0  0  0  0  0  0
    5.8833   -4.8172   -2.5016 C   0  0  0  0  0  0  0  0  0  0  0  0
    5.8664   -5.6023   -3.6562 C   0  0  0  0  0  0  0  0  0  0  0  0
    5.9671   -6.9937   -3.5757 C   0  0  0  0  0  0  0  0  0  0  0  0
    6.0733   -7.5929   -2.3160 C   0  0  0  0  0  0  0  0  0  0  0  0
    6.0764   -6.8191   -1.1552 C   0  0  0  0  0  0  0  0  0  0  0  0
    3.7760   -3.5002    0.0056 C   0  0  0  0  0  0  0  0  0  0  0  0
    3.0981   -4.7593    0.0936 C   0  0  0  0  0  0  0  0  0  0  0  0
    1.7278   -4.8283    0.1229 C   0  0  0  0  0  0  0  0  0  0  0  0
    0.9459   -3.6400    0.0589 C   0  0  0  0  0  0  0  0  0  0  0  0
    1.5549   -2.4118   -0.0042 C   0  0  0  0  0  0  0  0  0  0  0  0
    2.9825   -2.2909   -0.0150 C   0  0  0  0  0  0  0  0  0  0  0  0
    2.7579    0.2850   -2.4841 C   0  0  0  0  0  0  0  0  0  0  0  0
    2.6921    1.0285   -3.6642 C   0  0  0  0  0  0  0  0  0  0  0  0
    2.5363    2.9999   -4.5515 H   0  0  0  0  0  0  0  0  0  0  0  0
    2.5094    4.1558   -2.3338 H   0  0  0  0  0  0  0  0  0  0  0  0
    2.6560    2.8537   -0.2403 H   0  0  0  0  0  0  0  0  0  0  0  0
    0.4530    1.4085    0.1934 H   0  0  0  0  0  0  0  0  0  0  0  0
   -0.6679    2.0413    2.3012 H   0  0  0  0  0  0  0  0  0  0  0  0
    0.3954    1.5308    4.5066 H   0  0  0  0  0  0  0  0  0  0  0  0
    2.6121    0.3746    4.5528 H   0  0  0  0  0  0  0  0  0  0  0  0
    3.7524   -0.2319    2.4443 H   0  0  0  0  0  0  0  0  0  0  0  0
    5.1265    1.2300   -0.0387 H   0  0  0  0  0  0  0  0  0  0  0  0
    7.5850    1.3575   -0.1596 H   0  0  0  0  0  0  0  0  0  0  0  0
    8.9522   -0.7389   -0.3061 H   0  0  0  0  0  0  0  0  0  0  0  0
    7.8518   -2.9440   -0.2608 H   0  0  0  0  0  0  0  0  0  0  0  0
    5.2332   -4.1252    2.4623 H   0  0  0  0  0  0  0  0  0  0  0  0
    6.5184   -4.6567    4.5067 H   0  0  0  0  0  0  0  0  0  0  0  0
    8.7294   -5.8139    4.3478 H   0  0  0  0  0  0  0  0  0  0  0  0
    9.6385   -6.4020    2.0933 H   0  0  0  0  0  0  0  0  0  0  0  0
    8.3727   -5.8441    0.0473 H   0  0  0  0  0  0  0  0  0  0  0  0
    5.8147   -3.7314   -2.5816 H   0  0  0  0  0  0  0  0  0  0  0  0
    5.7827   -5.1145   -4.6310 H   0  0  0  0  0  0  0  0  0  0  0  0
    5.9595   -7.6044   -4.4814 H   0  0  0  0  0  0  0  0  0  0  0  0
    6.1405   -8.6809   -2.2312 H   0  0  0  0  0  0  0  0  0  0  0  0
    6.1406   -7.3050   -0.1803 H   0  0  0  0  0  0  0  0  0  0  0  0
    3.6929   -5.6711    0.1360 H   0  0  0  0  0  0  0  0  0  0  0  0
    1.2320   -5.7998    0.1912 H   0  0  0  0  0  0  0  0  0  0  0  0
   -0.1447   -3.7084    0.0648 H   0  0  0  0  0  0  0  0  0  0  0  0
    0.9535   -1.5043   -0.0458 H   0  0  0  0  0  0  0  0  0  0  0  0
    2.8235   -0.8030   -2.5301 H   0  0  0  0  0  0  0  0  0  0  0  0
    2.7089    0.5063   -4.6246 H   0  0  0  0  0  0  0  0  0  0  0  0
  1  2  2  0
  1 40  1  0
  1 41  1  0
  2  3  1  0
  2 42  1  0
  3  4  2  0
  3 43  1  0
  4  5  1  0
  4 39  1  0
  5  6  1  0
  5 12  1  0
  6  7  2  0
  6 11  1  0
  7  8  1  0
  7 44  1  0
  8  9  2  0
  8 45  1  0
  9 10  1  0
  9 46  1  0
 10 11  2  0
 10 47  1  0
 11 48  1  0
 12 13  1  0
 12 38  2  0
 13 14  2  0
 13 18  1  0
 14 15  1  0
 14 49  1  0
 15 16  2  0
 15 50  1  0
 16 17  1  0
 16 51  1  0
 17 18  2  0
 17 52  1  0
 18 19  1  0
 19 20  1  0
 19 33  2  0
 20 21  1  0
 20 27  1  0
 21 22  2  0
 21 26  1  0
 22 23  1  0
 22 53  1  0
 23 24  2  0
 23 54  1  0
 24 25  1  0
 24 55  1  0
 25 26  2  0
 25 56  1  0
 26 57  1  0
 27 28  2  0
 27 32  1  0
 28 29  1  0
 28 58  1  0
 29 30  2  0
 29 59  1  0
 30 31  1  0
 30 60  1  0
 31 32  2  0
 31 61  1  0
 32 62  1  0
 33 34  1  0
 33 38  1  0
 34 35  2  0
 34 63  1  0
 35 36  1  0
 35 64  1  0
 36 37  2  0
 36 65  1  0
 37 38  1  0
 37 66  1  0
 39 40  2  0
 39 67  1  0
 40 68  1  0
M  END

