
     RDKit          3D

 35 38  0  0  0  0  0  0  0  0999 V2000
   -1.4060    0.1417    0.1123 C   0  0  0  0  0  0  0  0  0  0  0  0
   -0.7035    1.2159   -0.4459 C   0  0  0  0  0  0  0  0  0  0  0  0
    0.6850    1.1680   -0.5611 C   0  0  0  0  0  0  0  0  0  0  0  0
    1.4091    0.0406   -0.1225 C   0  0  0  0  0  0  0  0  0  0  0  0
    2.8740    0.0329   -0.2625 C   0  0  0  0  0  0  0  0  0  0  0  0
    3.5740    1.1919   -0.3801 N   0  0  0  0  0  0  0  0  0  0  0  0
    4.8596    0.9045   -0.5156 C   0  0  0  0  0  0  0  0  0  0  0  0
    5.9136    1.9203   -0.6564 C   0  0  0  0  0  0  0  0  0  0  0  0
    5.7236    3.1654   -0.0226 C   0  0  0  0  0  0  0  0  0  0  0  0
    6.6710    4.1800   -0.1464 C   0  0  0  0  0  0  0  0  0  0  0  0
    7.8283    3.9790   -0.9078 C   0  0  0  0  0  0  0  0  0  0  0  0
    8.0194    2.7572   -1.5577 C   0  0  0  0  0  0  0  0  0  0  0  0
    7.0707    1.7379   -1.4394 C   0  0  0  0  0  0  0  0  0  0  0  0
    5.0469   -0.4677   -0.4781 N   0  0  0  0  0  0  0  0  0  0  0  0
    6.1920   -1.2420   -0.4794 C   0  0  0  0  0  0  0  0  0  0  0  0
    6.0940   -2.6023   -0.4385 C   0  0  0  0  0  0  0  0  0  0  0  0
    4.8129   -3.2367   -0.3960 C   0  0  0  0  0  0  0  0  0  0  0  0
    3.6752   -2.4694   -0.3366 C   0  0  0  0  0  0  0  0  0  0  0  0
    3.7678   -1.0529   -0.3349 C   0  0  0  0  0  0  0  0  0  0  0  0
    0.6917   -1.0247    0.4560 C   0  0  0  0  0  0  0  0  0  0  0  0
   -0.7001   -0.9757    0.5663 C   0  0  0  0  0  0  0  0  0  0  0  0
   -2.4948    0.1794    0.2002 H   0  0  0  0  0  0  0  0  0  0  0  0
   -1.2444    2.0989   -0.7972 H   0  0  0  0  0  0  0  0  0  0  0  0
    1.2382    2.0032   -0.9937 H   0  0  0  0  0  0  0  0  0  0  0  0
    4.8160    3.3167    0.5640 H   0  0  0  0  0  0  0  0  0  0  0  0
    6.5073    5.1361    0.3576 H   0  0  0  0  0  0  0  0  0  0  0  0
    8.5723    4.7741   -1.0008 H   0  0  0  0  0  0  0  0  0  0  0  0
    8.9072    2.5976   -2.1751 H   0  0  0  0  0  0  0  0  0  0  0  0
    7.2188    0.8125   -1.9989 H   0  0  0  0  0  0  0  0  0  0  0  0
    7.1404   -0.7093   -0.4982 H   0  0  0  0  0  0  0  0  0  0  0  0
    7.0098   -3.1956   -0.4383 H   0  0  0  0  0  0  0  0  0  0  0  0
    4.7453   -4.3262   -0.4023 H   0  0  0  0  0  0  0  0  0  0  0  0
    2.6893   -2.9316   -0.2968 H   0  0  0  0  0  0  0  0  0  0  0  0
    1.2240   -1.8878    0.8592 H   0  0  0  0  0  0  0  0  0  0  0  0
   -1.2346   -1.8130    1.0230 H   0  0  0  0  0  0  0  0  0  0  0  0
  1  2  2  0
  1 21  1  0
  1 22  1  0
  2  3  1  0
  2 23  1  0
  3  4  2  0
  3 24  1  0
  4  5  1  0
  4 20  1  0
  5  6  1  0
  5 19  2  0
  6  7  2  0
  7  8  1  0
  7 14  1  0
  8  9  2  0
  8 13  1  0
  9 10  1  0
  9 25  1  0
 10 11  2  0
 10 26  1  0
 11 12  1  0
 11 27  1  0
 12 13  2  0
 12 28  1  0
 13 29  1  0
 14 15  1  0
 14 19  1  0
 15 16  2  0
 15 30  1  0
 16 17  1  0
 16 31  1  0
 17 18  2  0
 17 32  1  0
 18 19  1  0
 18 33  1  0
 20 21  2  0
 20 34  1  0
 21 35  1  0
M  END

