
     RDKit          3D

 61 64  0  0  0  0  0  0  0  0999 V2000
    1.1241   -0.2864    0.1211 O   0  0  0  0  0  0  0  0  0  0  0  0
    2.3409   -0.2076    0.1243 C   0  0  0  0  0  0  0  0  0  0  0  0
    3.1896   -1.4984    0.0620 C   0  0  0  0  0  0  0  0  0  0  0  0
    2.3391   -2.6230    0.0141 O   0  0  0  0  0  0  0  0  0  0  0  0
    1.7701   -2.9909    1.1882 C   0  0  0  0  0  0  0  0  0  0  0  0
    2.0885   -2.5077    2.2465 O   0  0  0  0  0  0  0  0  0  0  0  0
    0.7340   -4.0903    0.9805 C   0  0  1  0  0  0  0  0  0  0  0  0
    1.4961   -5.4072    0.7426 C   0  0  0  0  0  0  0  0  0  0  0  0
    2.4425   -5.8276    1.6958 C   0  0  0  0  0  0  0  0  0  0  0  0
    3.1535   -7.0179    1.5467 C   0  0  0  0  0  0  0  0  0  0  0  0
    2.9184   -7.8201    0.4261 C   0  0  0  0  0  0  0  0  0  0  0  0
    3.8009   -9.3179    0.2284 Cl  0  0  0  0  0  0  0  0  0  0  0  0
    1.9846   -7.4314   -0.5346 C   0  0  0  0  0  0  0  0  0  0  0  0
    1.2852   -6.2312   -0.3717 C   0  0  0  0  0  0  0  0  0  0  0  0
   -0.2094   -4.2134    2.2066 C   0  0  0  0  0  0  0  0  0  0  0  0
   -1.4403   -4.9423    1.6504 C   0  0  0  0  0  0  0  0  0  0  0  0
   -1.5984   -4.4186    0.1985 C   0  0  0  0  0  0  0  0  0  0  0  0
   -0.2667   -3.7015   -0.1434 C   0  0  0  0  0  0  0  0  0  0  0  0
    3.0004    0.9928    0.1815 N   0  0  0  0  0  0  0  0  0  0  0  0
    2.2121    2.2432    0.2684 C   0  0  1  0  0  0  0  0  0  0  0  0
    1.3508    2.5548   -0.9824 C   0  0  0  0  0  0  0  0  0  0  0  0
    0.1860    3.3861   -0.4292 C   0  0  0  0  0  0  0  0  0  0  0  0
   -0.1389    2.6880    0.9011 C   0  0  0  0  0  0  0  0  0  0  0  0
    1.2398    2.3321    1.4907 C   0  0  0  0  0  0  0  0  0  0  0  0
    4.4549    1.1054    0.2130 C   0  0  1  0  0  0  0  0  0  0  0  0
    5.0298    1.8537   -1.0329 C   0  0  0  0  0  0  0  0  0  0  0  0
    6.3974    2.4152   -0.6629 C   0  0  0  0  0  0  0  0  0  0  0  0
    6.0996    3.1352    0.9885 S   0  0  2  0  0  0  0  0  0  0  0  0
    5.2637    4.3330    0.7949 O   0  0  0  0  0  0  0  0  0  0  0  0
    7.3216    3.1863    1.7941 O   0  0  0  0  0  0  0  0  0  0  0  0
    4.9961    1.7688    1.5140 C   0  0  0  0  0  0  0  0  0  0  0  0
    3.8552   -1.5623    0.9366 H   0  0  0  0  0  0  0  0  0  0  0  0
    3.7890   -1.5299   -0.8599 H   0  0  0  0  0  0  0  0  0  0  0  0
    2.6345   -5.2061    2.5743 H   0  0  0  0  0  0  0  0  0  0  0  0
    3.8870   -7.3273    2.2933 H   0  0  0  0  0  0  0  0  0  0  0  0
    1.8060   -8.0638   -1.4060 H   0  0  0  0  0  0  0  0  0  0  0  0
    0.5638   -5.9478   -1.1387 H   0  0  0  0  0  0  0  0  0  0  0  0
   -0.4741   -3.1986    2.5441 H   0  0  0  0  0  0  0  0  0  0  0  0
    0.2577   -4.7257    3.0597 H   0  0  0  0  0  0  0  0  0  0  0  0
   -2.3366   -4.7737    2.2667 H   0  0  0  0  0  0  0  0  0  0  0  0
   -1.2580   -6.0290    1.6445 H   0  0  0  0  0  0  0  0  0  0  0  0
   -2.4418   -3.7162    0.1132 H   0  0  0  0  0  0  0  0  0  0  0  0
   -1.8120   -5.2443   -0.4982 H   0  0  0  0  0  0  0  0  0  0  0  0
   -0.3958   -2.6098   -0.1106 H   0  0  0  0  0  0  0  0  0  0  0  0
    0.1164   -3.9269   -1.1476 H   0  0  0  0  0  0  0  0  0  0  0  0
    2.9565    3.0439    0.3733 H   0  0  0  0  0  0  0  0  0  0  0  0
    0.9650    1.6180   -1.4078 H   0  0  0  0  0  0  0  0  0  0  0  0
    1.9284    3.0742   -1.7639 H   0  0  0  0  0  0  0  0  0  0  0  0
   -0.6715    3.4313   -1.1188 H   0  0  0  0  0  0  0  0  0  0  0  0
    0.5117    4.4259   -0.2453 H   0  0  0  0  0  0  0  0  0  0  0  0
   -0.6977    1.7609    0.7000 H   0  0  0  0  0  0  0  0  0  0  0  0
   -0.7462    3.3085    1.5782 H   0  0  0  0  0  0  0  0  0  0  0  0
    1.2149    1.3966    2.0645 H   0  0  0  0  0  0  0  0  0  0  0  0
    1.5889    3.1271    2.1702 H   0  0  0  0  0  0  0  0  0  0  0  0
    4.8722    0.0937    0.1899 H   0  0  0  0  0  0  0  0  0  0  0  0
    4.3661    2.6848   -1.3089 H   0  0  0  0  0  0  0  0  0  0  0  0
    5.0804    1.1711   -1.8944 H   0  0  0  0  0  0  0  0  0  0  0  0
    6.7592    3.2229   -1.3135 H   0  0  0  0  0  0  0  0  0  0  0  0
    7.1792    1.6493   -0.5442 H   0  0  0  0  0  0  0  0  0  0  0  0
    4.2158    2.2197    2.1392 H   0  0  0  0  0  0  0  0  0  0  0  0
    5.6020    1.0855    2.1236 H   0  0  0  0  0  0  0  0  0  0  0  0
  1  2  2  0
  2  3  1  0
  2 19  1  0
  3  4  1  0
  3 32  1  0
  3 33  1  0
  4  5  1  0
  5  6  2  0
  7  5  1  1
  7  8  1  0
  7 15  1  0
  7 18  1  0
  8  9  2  0
  8 14  1  0
  9 10  1  0
  9 34  1  0
 10 11  2  0
 10 35  1  0
 11 12  1  0
 11 13  1  0
 13 14  2  0
 13 36  1  0
 14 37  1  0
 15 16  1  0
 15 38  1  0
 15 39  1  0
 16 17  1  0
 16 40  1  0
 16 41  1  0
 17 18  1  0
 17 42  1  0
 17 43  1  0
 18 44  1  0
 18 45  1  0
 19 20  1  0
 19 25  1  0
 20 21  1  0
 20 24  1  0
 20 46  1  1
 21 22  1  0
 21 47  1  0
 21 48  1  0
 22 23  1  0
 22 49  1  0
 22 50  1  0
 23 24  1  0
 23 51  1  0
 23 52  1  0
 24 53  1  0
 24 54  1  0
 25 26  1  0
 25 31  1  0
 25 55  1  6
 26 27  1  0
 26 56  1  0
 26 57  1  0
 28 27  1  6
 27 58  1  0
 27 59  1  0
 28 29  2  0
 28 30  2  0
 28 31  1  0
 31 60  1  0
 31 61  1  0
M  END

