
     RDKit          3D

 53 59  0  0  0  0  0  0  0  0999 V2000
    0.9566   -0.5488   -0.5434 C   0  0  0  0  0  0  0  0  0  0  0  0
    0.1743   -1.4094    0.0023 N   0  0  0  0  0  0  0  0  0  0  0  0
   -1.2117   -1.3109   -0.1494 C   0  0  0  0  0  0  0  0  0  0  0  0
   -1.9554   -2.5052   -0.2421 C   0  0  0  0  0  0  0  0  0  0  0  0
   -3.3360   -2.4756   -0.3971 C   0  0  0  0  0  0  0  0  0  0  0  0
   -4.0376   -1.2536   -0.4346 C   0  0  0  0  0  0  0  0  0  0  0  0
   -5.4971   -1.1992   -0.5836 C   0  0  0  0  0  0  0  0  0  0  0  0
   -6.3911   -2.2565   -0.7324 C   0  0  0  0  0  0  0  0  0  0  0  0
   -7.6269   -1.6576   -0.8322 N   0  0  0  0  0  0  0  0  0  0  0  0
   -8.8834   -2.1155   -0.9876 N   0  0  0  0  0  0  0  0  0  0  0  0
   -9.7152   -1.1126   -1.0234 C   0  0  0  0  0  0  0  0  0  0  0  0
  -11.1461   -1.2661   -1.1817 C   0  0  0  0  0  0  0  0  0  0  0  0
  -12.1214   -0.2862   -1.2273 C   0  0  0  0  0  0  0  0  0  0  0  0
  -13.4302   -0.8160   -1.3940 C   0  0  0  0  0  0  0  0  0  0  0  0
  -13.4342   -2.1883   -1.4729 C   0  0  0  0  0  0  0  0  0  0  0  0
  -11.8479   -2.8569   -1.3459 S   0  0  0  0  0  0  0  0  0  0  0  0
   -8.9739    0.5081   -0.8624 S   0  0  0  0  0  0  0  0  0  0  0  0
   -7.4227   -0.2953   -0.7406 C   0  0  0  0  0  0  0  0  0  0  0  0
   -6.1690    0.0182   -0.5923 N   0  0  0  0  0  0  0  0  0  0  0  0
   -3.2987   -0.0628   -0.3081 C   0  0  0  0  0  0  0  0  0  0  0  0
   -1.9132   -0.0873   -0.1699 C   0  0  0  0  0  0  0  0  0  0  0  0
    2.4174   -0.4747   -0.3938 C   0  0  0  0  0  0  0  0  0  0  0  0
    3.1405    0.2958   -1.3630 C   0  0  0  0  0  0  0  0  0  0  0  0
    2.5374    0.8901   -2.5225 C   0  0  0  0  0  0  0  0  0  0  0  0
    3.2680    1.6271   -3.4242 C   0  0  0  0  0  0  0  0  0  0  0  0
    4.6656    1.8268   -3.2476 C   0  0  0  0  0  0  0  0  0  0  0  0
    5.2937    1.2621   -2.1684 C   0  0  0  0  0  0  0  0  0  0  0  0
    4.5667    0.4839   -1.2108 C   0  0  0  0  0  0  0  0  0  0  0  0
    5.2272   -0.1086   -0.1293 C   0  0  0  0  0  0  0  0  0  0  0  0
    4.5506   -0.8924    0.8125 C   0  0  0  0  0  0  0  0  0  0  0  0
    5.2639   -1.4923    1.8994 C   0  0  0  0  0  0  0  0  0  0  0  0
    4.6150   -2.2576    2.8336 C   0  0  0  0  0  0  0  0  0  0  0  0
    3.2107   -2.4556    2.7227 C   0  0  0  0  0  0  0  0  0  0  0  0
    2.4901   -1.8963    1.6929 C   0  0  0  0  0  0  0  0  0  0  0  0
    3.1224   -1.0921    0.6894 C   0  0  0  0  0  0  0  0  0  0  0  0
    0.5191    0.2262   -1.1936 H   0  0  0  0  0  0  0  0  0  0  0  0
   -1.4171   -3.4545   -0.2030 H   0  0  0  0  0  0  0  0  0  0  0  0
   -3.8782   -3.4207   -0.4797 H   0  0  0  0  0  0  0  0  0  0  0  0
   -6.2696   -3.3337   -0.7770 H   0  0  0  0  0  0  0  0  0  0  0  0
  -11.9034    0.7799   -1.1430 H   0  0  0  0  0  0  0  0  0  0  0  0
  -14.3318   -0.2052   -1.4529 H   0  0  0  0  0  0  0  0  0  0  0  0
  -14.2908   -2.8492   -1.5999 H   0  0  0  0  0  0  0  0  0  0  0  0
   -3.8378    0.8859   -0.3114 H   0  0  0  0  0  0  0  0  0  0  0  0
   -1.3685    0.8507   -0.0392 H   0  0  0  0  0  0  0  0  0  0  0  0
    1.4768    0.7465   -2.7223 H   0  0  0  0  0  0  0  0  0  0  0  0
    2.7681    2.0591   -4.2950 H   0  0  0  0  0  0  0  0  0  0  0  0
    5.2289    2.4173   -3.9742 H   0  0  0  0  0  0  0  0  0  0  0  0
    6.3692    1.3900   -2.0194 H   0  0  0  0  0  0  0  0  0  0  0  0
    6.3055    0.0395   -0.0203 H   0  0  0  0  0  0  0  0  0  0  0  0
    6.3421   -1.3237    1.9661 H   0  0  0  0  0  0  0  0  0  0  0  0
    5.1675   -2.7123    3.6597 H   0  0  0  0  0  0  0  0  0  0  0  0
    2.6941   -3.0650    3.4690 H   0  0  0  0  0  0  0  0  0  0  0  0
    1.4206   -2.0722    1.6099 H   0  0  0  0  0  0  0  0  0  0  0  0
  1  2  2  0
  1 22  1  0
  1 36  1  0
  2  3  1  0
  3  4  2  0
  3 21  1  0
  4  5  1  0
  4 37  1  0
  5  6  2  0
  5 38  1  0
  6  7  1  0
  6 20  1  0
  7  8  2  0
  7 19  1  0
  8  9  1  0
  8 39  1  0
  9 10  1  0
  9 18  1  0
 10 11  2  0
 11 12  1  0
 11 17  1  0
 12 13  2  0
 12 16  1  0
 13 14  1  0
 13 40  1  0
 14 15  2  0
 14 41  1  0
 15 16  1  0
 15 42  1  0
 17 18  1  0
 18 19  2  0
 20 21  2  0
 20 43  1  0
 21 44  1  0
 22 23  1  0
 22 35  2  0
 23 24  2  0
 23 28  1  0
 24 25  1  0
 24 45  1  0
 25 26  2  0
 25 46  1  0
 26 27  1  0
 26 47  1  0
 27 28  2  0
 27 48  1  0
 28 29  1  0
 29 30  2  0
 29 49  1  0
 30 31  1  0
 30 35  1  0
 31 32  2  0
 31 50  1  0
 32 33  1  0
 32 51  1  0
 33 34  2  0
 33 52  1  0
 34 35  1  0
 34 53  1  0
M  END

