
     RDKit          3D

 36 37  0  0  0  0  0  0  0  0999 V2000
    2.2111    1.1084   -1.8374 O   0  0  0  0  0  0  0  0  0  0  0  0
    2.9841    0.6102   -0.8355 C   0  0  0  0  0  0  0  0  0  0  0  0
    3.1020    1.2392    0.4111 C   0  0  0  0  0  0  0  0  0  0  0  0
    3.9192    0.6714    1.3926 C   0  0  0  0  0  0  0  0  0  0  0  0
    4.6156   -0.5120    1.1431 C   0  0  0  0  0  0  0  0  0  0  0  0
    4.5028   -1.1505   -0.1050 C   0  0  0  0  0  0  0  0  0  0  0  0
    5.2196   -2.4572   -0.3686 C   0  0  0  0  0  0  0  0  0  0  0  0
    4.4197   -3.6857    0.1041 C   0  0  0  0  0  0  0  0  0  0  0  0
    5.0831   -5.0352   -0.1997 C   0  0  0  0  0  0  0  0  0  0  0  0
    6.4070   -5.2835    0.5490 C   0  0  1  0  0  0  0  0  0  0  0  0
    6.2447   -5.0722    1.9421 O   0  0  0  0  0  0  0  0  0  0  0  0
    7.0253   -6.6479    0.2360 C   0  0  0  0  0  0  0  0  0  0  0  0
    7.1860   -7.0918   -1.0881 C   0  0  0  0  0  0  0  0  0  0  0  0
    7.7686   -8.3308   -1.3644 C   0  0  0  0  0  0  0  0  0  0  0  0
    8.2039   -9.1538   -0.3207 C   0  0  0  0  0  0  0  0  0  0  0  0
    8.0595   -8.7193    0.9986 C   0  0  0  0  0  0  0  0  0  0  0  0
    7.4808   -7.4758    1.2727 C   0  0  0  0  0  0  0  0  0  0  0  0
    3.6835   -0.5791   -1.0856 C   0  0  0  0  0  0  0  0  0  0  0  0
    1.7910    1.9263   -1.5409 H   0  0  0  0  0  0  0  0  0  0  0  0
    2.5601    2.1698    0.6087 H   0  0  0  0  0  0  0  0  0  0  0  0
    4.0135    1.1660    2.3630 H   0  0  0  0  0  0  0  0  0  0  0  0
    5.2554   -0.9444    1.9170 H   0  0  0  0  0  0  0  0  0  0  0  0
    6.1967   -2.4376    0.1412 H   0  0  0  0  0  0  0  0  0  0  0  0
    5.4270   -2.5530   -1.4485 H   0  0  0  0  0  0  0  0  0  0  0  0
    3.4251   -3.6656   -0.3727 H   0  0  0  0  0  0  0  0  0  0  0  0
    4.2461   -3.6013    1.1889 H   0  0  0  0  0  0  0  0  0  0  0  0
    5.2543   -5.1267   -1.2852 H   0  0  0  0  0  0  0  0  0  0  0  0
    4.3851   -5.8522    0.0627 H   0  0  0  0  0  0  0  0  0  0  0  0
    7.1372   -4.5142    0.2412 H   0  0  0  0  0  0  0  0  0  0  0  0
    5.5543   -5.6747    2.2550 H   0  0  0  0  0  0  0  0  0  0  0  0
    6.8606   -6.4631   -1.9207 H   0  0  0  0  0  0  0  0  0  0  0  0
    7.8836   -8.6550   -2.4022 H   0  0  0  0  0  0  0  0  0  0  0  0
    8.6576  -10.1245   -0.5366 H   0  0  0  0  0  0  0  0  0  0  0  0
    8.4057   -9.3479    1.8235 H   0  0  0  0  0  0  0  0  0  0  0  0
    7.3937   -7.1283    2.3033 H   0  0  0  0  0  0  0  0  0  0  0  0
    3.5759   -1.0441   -2.0688 H   0  0  0  0  0  0  0  0  0  0  0  0
  1  2  1  0
  1 19  1  0
  2  3  2  0
  2 18  1  0
  3  4  1  0
  3 20  1  0
  4  5  2  0
  4 21  1  0
  5  6  1  0
  5 22  1  0
  6  7  1  0
  6 18  2  0
  7  8  1  0
  7 23  1  0
  7 24  1  0
  8  9  1  0
  8 25  1  0
  8 26  1  0
  9 10  1  0
  9 27  1  0
  9 28  1  0
 10 11  1  0
 10 12  1  0
 10 29  1  6
 11 30  1  0
 12 13  2  0
 12 17  1  0
 13 14  1  0
 13 31  1  0
 14 15  2  0
 14 32  1  0
 15 16  1  0
 15 33  1  0
 16 17  2  0
 16 34  1  0
 17 35  1  0
 18 36  1  0
M  END

