
     RDKit          3D

 46 47  0  0  0  0  0  0  0  0999 V2000
    4.4498    2.3489    3.5499 C   0  0  0  0  0  0  0  0  0  0  0  0
    3.7486    1.0732    3.1188 C   0  0  0  0  0  0  0  0  0  0  0  0
    4.3544    0.6318    1.9152 O   0  0  0  0  0  0  0  0  0  0  0  0
    4.1239   -0.6950    1.4655 C   0  0  1  0  0  0  0  0  0  0  0  0
    2.6272   -1.0188    1.3468 C   0  0  0  0  0  0  0  0  0  0  0  0
    4.8298   -0.7237    0.0847 C   0  0  0  0  0  0  0  0  0  0  0  0
    4.7529   -2.0220   -0.7170 C   0  0  0  0  0  0  0  0  0  0  0  0
    4.8009   -1.6875    2.4041 C   0  0  0  0  0  0  0  0  0  0  0  0
    5.7727   -1.3447    3.2132 N   0  0  0  0  0  0  0  0  0  0  0  0
    6.1142   -2.5385    3.8393 O   0  0  0  0  0  0  0  0  0  0  0  0
    5.3151   -3.4896    3.3439 C   0  0  0  0  0  0  0  0  0  0  0  0
    5.4516   -4.8809    3.8886 C   0  0  0  0  0  0  0  0  0  0  0  0
    4.4999   -5.1341    4.9645 N   0  0  0  0  0  0  0  0  0  0  0  0
    3.1621   -5.4117    4.4487 C   0  0  0  0  0  0  0  0  0  0  0  0
    2.0390   -5.4296    5.4920 C   0  0  0  0  0  0  0  0  0  0  0  0
    1.9856   -6.6701    6.3869 C   0  0  0  0  0  0  0  0  0  0  0  0
    2.9769   -6.6912    7.4579 N   0  0  0  0  0  0  0  0  0  0  0  0
    4.2336   -5.9800    7.3054 C   0  0  0  0  0  0  0  0  0  0  0  0
    4.9889   -6.0776    5.9661 C   0  0  0  0  0  0  0  0  0  0  0  0
    4.4860   -3.0287    2.4533 N   0  0  0  0  0  0  0  0  0  0  0  0
    3.9869    2.7557    4.4630 H   0  0  0  0  0  0  0  0  0  0  0  0
    4.3866    3.1111    2.7575 H   0  0  0  0  0  0  0  0  0  0  0  0
    5.5129    2.1485    3.7511 H   0  0  0  0  0  0  0  0  0  0  0  0
    2.6686    1.2634    2.9630 H   0  0  0  0  0  0  0  0  0  0  0  0
    3.8395    0.3086    3.9117 H   0  0  0  0  0  0  0  0  0  0  0  0
    2.1498   -0.2931    0.6705 H   0  0  0  0  0  0  0  0  0  0  0  0
    2.1239   -0.9709    2.3236 H   0  0  0  0  0  0  0  0  0  0  0  0
    2.4768   -2.0321    0.9524 H   0  0  0  0  0  0  0  0  0  0  0  0
    5.8800   -0.4471    0.2709 H   0  0  0  0  0  0  0  0  0  0  0  0
    4.3910    0.1082   -0.4908 H   0  0  0  0  0  0  0  0  0  0  0  0
    5.1529   -2.8818   -0.1585 H   0  0  0  0  0  0  0  0  0  0  0  0
    5.3375   -1.9240   -1.6453 H   0  0  0  0  0  0  0  0  0  0  0  0
    3.7199   -2.2696   -1.0075 H   0  0  0  0  0  0  0  0  0  0  0  0
    6.4722   -4.9757    4.2842 H   0  0  0  0  0  0  0  0  0  0  0  0
    5.3533   -5.5946    3.0426 H   0  0  0  0  0  0  0  0  0  0  0  0
    3.1485   -6.3849    3.8997 H   0  0  0  0  0  0  0  0  0  0  0  0
    2.9331   -4.6379    3.7009 H   0  0  0  0  0  0  0  0  0  0  0  0
    1.0887   -5.3939    4.9335 H   0  0  0  0  0  0  0  0  0  0  0  0
    2.0722   -4.5107    6.1008 H   0  0  0  0  0  0  0  0  0  0  0  0
    2.0652   -7.5569    5.7202 H   0  0  0  0  0  0  0  0  0  0  0  0
    0.9783   -6.7284    6.8399 H   0  0  0  0  0  0  0  0  0  0  0  0
    3.1336   -7.6419    7.7781 H   0  0  0  0  0  0  0  0  0  0  0  0
    4.9015   -6.3512    8.0999 H   0  0  0  0  0  0  0  0  0  0  0  0
    4.0952   -4.9021    7.5062 H   0  0  0  0  0  0  0  0  0  0  0  0
    4.9746   -7.1327    5.6014 H   0  0  0  0  0  0  0  0  0  0  0  0
    6.0437   -5.8266    6.1626 H   0  0  0  0  0  0  0  0  0  0  0  0
  1  2  1  0
  1 21  1  0
  1 22  1  0
  1 23  1  0
  2  3  1  0
  2 24  1  0
  2 25  1  0
  4  3  1  1
  4  5  1  0
  4  6  1  0
  4  8  1  0
  5 26  1  0
  5 27  1  0
  5 28  1  0
  6  7  1  0
  6 29  1  0
  6 30  1  0
  7 31  1  0
  7 32  1  0
  7 33  1  0
  8  9  2  0
  8 20  1  0
  9 10  1  0
 10 11  1  0
 11 12  1  0
 11 20  2  0
 12 13  1  0
 12 34  1  0
 12 35  1  0
 13 14  1  0
 13 19  1  0
 14 15  1  0
 14 36  1  0
 14 37  1  0
 15 16  1  0
 15 38  1  0
 15 39  1  0
 16 17  1  0
 16 40  1  0
 16 41  1  0
 17 18  1  0
 17 42  1  0
 18 19  1  0
 18 43  1  0
 18 44  1  0
 19 45  1  0
 19 46  1  0
M  END

