
     RDKit          3D

 13 13  0  0  0  0  0  0  0  0999 V2000
    1.7478    0.3406   -1.3379 Br  0  0  0  0  0  0  0  0  0  0  0  0
    2.6524    0.0808    0.3401 N   0  0  0  0  0  0  0  0  0  0  0  0
    3.5327   -1.6131    0.3820 Br  0  0  0  0  0  0  0  0  0  0  0  0
    3.4355    1.1864    0.7728 C   0  0  0  0  0  0  0  0  0  0  0  0
    2.9100    2.4967    0.6827 C   0  0  0  0  0  0  0  0  0  0  0  0
    3.6454    3.5286    1.2523 C   0  0  0  0  0  0  0  0  0  0  0  0
    4.8626    3.2479    1.8876 C   0  0  0  0  0  0  0  0  0  0  0  0
    5.2863    1.9210    1.9142 C   0  0  0  0  0  0  0  0  0  0  0  0
    4.5938    0.9230    1.3585 N   0  0  0  0  0  0  0  0  0  0  0  0
    1.9568    2.6881    0.1914 H   0  0  0  0  0  0  0  0  0  0  0  0
    3.2667    4.5527    1.2026 H   0  0  0  0  0  0  0  0  0  0  0  0
    5.4664    4.0367    2.3403 H   0  0  0  0  0  0  0  0  0  0  0  0
    6.2330    1.6443    2.3924 H   0  0  0  0  0  0  0  0  0  0  0  0
  1  2  1  0
  2  3  1  0
  2  4  1  0
  4  5  2  0
  4  9  1  0
  5  6  1  0
  5 10  1  0
  6  7  2  0
  6 11  1  0
  7  8  1  0
  7 12  1  0
  8  9  2  0
  8 13  1  0
M  END

