
     RDKit          3D

 52 53  0  0  0  0  0  0  0  0999 V2000
    0.5473   -0.2364   -3.4757 C   0  0  0  0  0  0  0  0  0  0  0  0
    1.1168   -0.6752   -2.2583 O   0  0  0  0  0  0  0  0  0  0  0  0
    0.8601    0.0021   -1.1115 C   0  0  0  0  0  0  0  0  0  0  0  0
    0.0537    1.1414   -1.0250 C   0  0  0  0  0  0  0  0  0  0  0  0
   -0.1471    1.7692    0.2066 C   0  0  0  0  0  0  0  0  0  0  0  0
    0.4693    1.2372    1.3344 C   0  0  0  0  0  0  0  0  0  0  0  0
    0.2607    1.8970    2.6364 N   0  0  0  0  0  0  0  0  0  0  0  0
   -0.4521    2.8905    2.6587 O   0  0  0  0  0  0  0  0  0  0  0  0
    0.8092    1.4136    3.6133 O   0  0  0  0  0  0  0  0  0  0  0  0
    1.2806    0.0997    1.2827 C   0  0  0  0  0  0  0  0  0  0  0  0
    1.4830   -0.5318    0.0530 C   0  0  0  0  0  0  0  0  0  0  0  0
    2.2659   -1.6735   -0.1212 N   0  0  0  0  0  0  0  0  0  0  0  0
    2.9928   -2.3645    0.8121 C   0  0  0  0  0  0  0  0  0  0  0  0
    3.0754   -2.0790    1.9929 O   0  0  0  0  0  0  0  0  0  0  0  0
    3.6723   -3.6380    0.2489 C   0  0  1  0  0  0  0  0  0  0  0  0
    4.6162   -3.7072    0.8257 H   0  0  0  0  0  0  0  0  0  0  0  0
    2.7974   -4.8317    0.6542 C   0  0  0  0  0  0  0  0  0  0  0  0
    3.9246   -3.5246   -1.1891 N   0  0  0  0  0  0  0  0  0  0  0  0
    5.0265   -2.6319   -1.5211 C   0  0  0  0  0  0  0  0  0  0  0  0
    3.7724   -4.6737   -2.0739 C   0  0  0  0  0  0  0  0  0  0  0  0
    4.8263   -5.7789   -2.0685 C   0  0  0  0  0  0  0  0  0  0  0  0
    5.8259   -5.8605   -1.0925 C   0  0  0  0  0  0  0  0  0  0  0  0
    6.7729   -6.8902   -1.0964 C   0  0  0  0  0  0  0  0  0  0  0  0
    6.7488   -7.8800   -2.0835 C   0  0  0  0  0  0  0  0  0  0  0  0
    7.7583   -9.0020   -2.1105 C   0  0  0  0  0  0  0  0  0  0  0  0
    5.7420   -7.7988   -3.0591 C   0  0  0  0  0  0  0  0  0  0  0  0
    4.7856   -6.7772   -3.0740 C   0  0  0  0  0  0  0  0  0  0  0  0
    3.7250   -6.7574   -4.1498 C   0  0  0  0  0  0  0  0  0  0  0  0
    0.8928   -0.9332   -4.2502 H   0  0  0  0  0  0  0  0  0  0  0  0
    0.8799    0.7840   -3.7339 H   0  0  0  0  0  0  0  0  0  0  0  0
   -0.5558   -0.2573   -3.4376 H   0  0  0  0  0  0  0  0  0  0  0  0
   -0.4233    1.5492   -1.9158 H   0  0  0  0  0  0  0  0  0  0  0  0
   -0.7695    2.6577    0.3008 H   0  0  0  0  0  0  0  0  0  0  0  0
    1.7500   -0.2898    2.1820 H   0  0  0  0  0  0  0  0  0  0  0  0
    2.3473   -2.0439   -1.0682 H   0  0  0  0  0  0  0  0  0  0  0  0
    2.6405   -4.7947    1.7411 H   0  0  0  0  0  0  0  0  0  0  0  0
    3.2780   -5.7891    0.4075 H   0  0  0  0  0  0  0  0  0  0  0  0
    1.8105   -4.7923    0.1669 H   0  0  0  0  0  0  0  0  0  0  0  0
    4.8915   -1.6609   -1.0188 H   0  0  0  0  0  0  0  0  0  0  0  0
    5.0394   -2.4432   -2.6061 H   0  0  0  0  0  0  0  0  0  0  0  0
    6.0249   -3.0187   -1.2351 H   0  0  0  0  0  0  0  0  0  0  0  0
    3.7030   -4.2691   -3.0990 H   0  0  0  0  0  0  0  0  0  0  0  0
    2.7848   -5.1287   -1.8925 H   0  0  0  0  0  0  0  0  0  0  0  0
    5.8758   -5.1081   -0.3050 H   0  0  0  0  0  0  0  0  0  0  0  0
    7.5394   -6.9180   -0.3168 H   0  0  0  0  0  0  0  0  0  0  0  0
    8.4856   -8.9112   -1.2903 H   0  0  0  0  0  0  0  0  0  0  0  0
    8.3208   -9.0140   -3.0591 H   0  0  0  0  0  0  0  0  0  0  0  0
    7.2678   -9.9856   -2.0169 H   0  0  0  0  0  0  0  0  0  0  0  0
    5.6999   -8.5649   -3.8405 H   0  0  0  0  0  0  0  0  0  0  0  0
    3.8332   -7.6147   -4.8296 H   0  0  0  0  0  0  0  0  0  0  0  0
    3.7755   -5.8399   -4.7614 H   0  0  0  0  0  0  0  0  0  0  0  0
    2.7069   -6.7946   -3.7258 H   0  0  0  0  0  0  0  0  0  0  0  0
  1  2  1  0
  1 29  1  0
  1 30  1  0
  1 31  1  0
  2  3  1  0
  3  4  2  0
  3 11  1  0
  4  5  1  0
  4 32  1  0
  5  6  2  0
  5 33  1  0
  6  7  1  0
  6 10  1  0
  7  8  2  0
  7  9  1  0
 10 11  2  0
 10 34  1  0
 11 12  1  0
 12 13  1  0
 12 35  1  0
 13 14  2  0
 13 15  1  0
 15 16  1  1
 15 17  1  0
 15 18  1  0
 17 36  1  0
 17 37  1  0
 17 38  1  0
 18 19  1  0
 18 20  1  0
 19 39  1  0
 19 40  1  0
 19 41  1  0
 20 21  1  0
 20 42  1  0
 20 43  1  0
 21 22  2  0
 21 27  1  0
 22 23  1  0
 22 44  1  0
 23 24  2  0
 23 45  1  0
 24 25  1  0
 24 26  1  0
 25 46  1  0
 25 47  1  0
 25 48  1  0
 26 27  2  0
 26 49  1  0
 27 28  1  0
 28 50  1  0
 28 51  1  0
 28 52  1  0
M  CHG  2   7   1   9  -1
M  END

