
     RDKit          3D

 43 43  0  0  0  0  0  0  0  0999 V2000
    2.2568    1.4273    0.8093 C   0  0  0  0  0  0  0  0  0  0  0  0
    2.1176    0.0551    0.5210 O   0  0  0  0  0  0  0  0  0  0  0  0
    2.9142   -0.8481    1.1624 C   0  0  0  0  0  0  0  0  0  0  0  0
    3.8493   -0.5097    2.1462 C   0  0  0  0  0  0  0  0  0  0  0  0
    4.6207   -1.5098    2.7517 C   0  0  0  0  0  0  0  0  0  0  0  0
    4.4857   -2.8545    2.3958 C   0  0  0  0  0  0  0  0  0  0  0  0
    5.3353   -3.9337    3.0556 C   0  0  1  0  0  0  0  0  0  0  0  0
    4.4803   -4.9569    3.8232 C   0  0  0  0  0  0  0  0  0  0  0  0
    6.2677   -4.6312    2.0498 C   0  0  0  0  0  0  0  0  0  0  0  0
    3.5406   -3.1663    1.4007 C   0  0  0  0  0  0  0  0  0  0  0  0
    2.7519   -2.1990    0.7740 C   0  0  0  0  0  0  0  0  0  0  0  0
    1.7345   -2.5730   -0.2804 C   0  0  0  0  0  0  0  0  0  0  0  0
    0.2923   -2.5927    0.2589 C   0  0  0  0  0  0  0  0  0  0  0  0
   -0.8081   -3.0174   -0.7508 C   0  0  1  0  0  0  0  0  0  0  0  0
   -2.1644   -3.0889   -0.0106 C   0  0  0  0  0  0  0  0  0  0  0  0
   -0.9155   -2.0203   -1.9135 C   0  0  0  0  0  0  0  0  0  0  0  0
   -0.5040   -4.4168   -1.3269 C   0  0  0  0  0  0  0  0  0  0  0  0
   -0.4983   -4.6854   -2.4970 O   0  0  0  0  0  0  0  0  0  0  0  0
   -0.2520   -5.3881   -0.4136 O   0  0  0  0  0  0  0  0  0  0  0  0
    1.5420    1.9579    0.1658 H   0  0  0  0  0  0  0  0  0  0  0  0
    3.2761    1.7922    0.5882 H   0  0  0  0  0  0  0  0  0  0  0  0
    2.0221    1.6529    1.8654 H   0  0  0  0  0  0  0  0  0  0  0  0
    3.9880    0.5275    2.4520 H   0  0  0  0  0  0  0  0  0  0  0  0
    5.3463   -1.2247    3.5193 H   0  0  0  0  0  0  0  0  0  0  0  0
    5.9755   -3.4218    3.7954 H   0  0  0  0  0  0  0  0  0  0  0  0
    3.8233   -5.5234    3.1425 H   0  0  0  0  0  0  0  0  0  0  0  0
    3.8407   -4.4632    4.5716 H   0  0  0  0  0  0  0  0  0  0  0  0
    5.1188   -5.6866    4.3479 H   0  0  0  0  0  0  0  0  0  0  0  0
    5.6950   -5.1778    1.2824 H   0  0  0  0  0  0  0  0  0  0  0  0
    6.9188   -5.3608    2.5592 H   0  0  0  0  0  0  0  0  0  0  0  0
    6.9111   -3.9041    1.5302 H   0  0  0  0  0  0  0  0  0  0  0  0
    3.4133   -4.2075    1.0878 H   0  0  0  0  0  0  0  0  0  0  0  0
    1.9930   -3.5646   -0.6860 H   0  0  0  0  0  0  0  0  0  0  0  0
    1.7967   -1.8562   -1.1130 H   0  0  0  0  0  0  0  0  0  0  0  0
    0.0368   -1.5889    0.6345 H   0  0  0  0  0  0  0  0  0  0  0  0
    0.2575   -3.2496    1.1492 H   0  0  0  0  0  0  0  0  0  0  0  0
   -2.4264   -2.0973    0.3914 H   0  0  0  0  0  0  0  0  0  0  0  0
   -2.1422   -3.7934    0.8369 H   0  0  0  0  0  0  0  0  0  0  0  0
   -2.9707   -3.4055   -0.6903 H   0  0  0  0  0  0  0  0  0  0  0  0
   -1.1149   -1.0084   -1.5271 H   0  0  0  0  0  0  0  0  0  0  0  0
   -1.7309   -2.3042   -2.5938 H   0  0  0  0  0  0  0  0  0  0  0  0
    0.0051   -1.9913   -2.5123 H   0  0  0  0  0  0  0  0  0  0  0  0
   -0.2712   -5.0210    0.4816 H   0  0  0  0  0  0  0  0  0  0  0  0
  1  2  1  0
  1 20  1  0
  1 21  1  0
  1 22  1  0
  2  3  1  0
  3  4  2  0
  3 11  1  0
  4  5  1  0
  4 23  1  0
  5  6  2  0
  5 24  1  0
  6  7  1  0
  6 10  1  0
  7  8  1  0
  7  9  1  0
  7 25  1  1
  8 26  1  0
  8 27  1  0
  8 28  1  0
  9 29  1  0
  9 30  1  0
  9 31  1  0
 10 11  2  0
 10 32  1  0
 11 12  1  0
 12 13  1  0
 12 33  1  0
 12 34  1  0
 13 14  1  0
 13 35  1  0
 13 36  1  0
 14 15  1  0
 14 16  1  0
 14 17  1  6
 15 37  1  0
 15 38  1  0
 15 39  1  0
 16 40  1  0
 16 41  1  0
 16 42  1  0
 17 18  2  0
 17 19  1  0
 19 43  1  0
M  END

