
     RDKit          3D

 36 37  0  0  0  0  0  0  0  0999 V2000
    1.0752   -0.6776    0.9373 C   0  0  0  0  0  0  0  0  0  0  0  0
    2.3339   -0.0234    0.3450 C   0  0  0  0  0  0  0  0  0  0  0  0
    2.9105    1.0685    1.2006 C   0  0  0  0  0  0  0  0  0  0  0  0
    2.6988    2.3549    0.9196 N   0  0  0  0  0  0  0  0  0  0  0  0
    3.3222    3.0499    1.8779 N   0  0  0  0  0  0  0  0  0  0  0  0
    3.2284    4.4927    1.8988 C   0  0  0  0  0  0  0  0  0  0  0  0
    3.9378    2.2492    2.7954 C   0  0  0  0  0  0  0  0  0  0  0  0
    3.6925    0.9446    2.3862 C   0  0  0  0  0  0  0  0  0  0  0  0
    4.1096   -0.2585    2.9658 N   0  0  0  0  0  0  0  0  0  0  0  0
    4.8749   -0.3669    4.1048 C   0  0  0  0  0  0  0  0  0  0  0  0
    5.2767    0.6207    4.7079 O   0  0  0  0  0  0  0  0  0  0  0  0
    5.1973   -1.7581    4.5529 C   0  0  0  0  0  0  0  0  0  0  0  0
    6.2198   -1.9103    5.5067 C   0  0  0  0  0  0  0  0  0  0  0  0
    6.5843   -3.1627    5.9804 C   0  0  0  0  0  0  0  0  0  0  0  0
    5.9219   -4.3249    5.5261 C   0  0  0  0  0  0  0  0  0  0  0  0
    6.2833   -5.5579    6.0382 N   0  0  0  0  0  0  0  0  0  0  0  0
    5.8017   -6.7312    5.4773 N   0  0  0  0  0  0  0  0  0  0  0  0
    4.8848   -4.1823    4.5822 C   0  0  0  0  0  0  0  0  0  0  0  0
    4.5360   -2.9187    4.1137 C   0  0  0  0  0  0  0  0  0  0  0  0
    0.6901   -1.4717    0.2771 H   0  0  0  0  0  0  0  0  0  0  0  0
    0.2784    0.0697    1.0749 H   0  0  0  0  0  0  0  0  0  0  0  0
    1.2767   -1.1269    1.9239 H   0  0  0  0  0  0  0  0  0  0  0  0
    2.0972    0.4139   -0.6372 H   0  0  0  0  0  0  0  0  0  0  0  0
    3.1009   -0.7982    0.1583 H   0  0  0  0  0  0  0  0  0  0  0  0
    3.3559    4.8790    0.8778 H   0  0  0  0  0  0  0  0  0  0  0  0
    4.0203    4.8995    2.5424 H   0  0  0  0  0  0  0  0  0  0  0  0
    2.2490    4.8258    2.2817 H   0  0  0  0  0  0  0  0  0  0  0  0
    4.4976    2.6264    3.6437 H   0  0  0  0  0  0  0  0  0  0  0  0
    3.9020   -1.1017    2.4480 H   0  0  0  0  0  0  0  0  0  0  0  0
    6.7234   -1.0104    5.8648 H   0  0  0  0  0  0  0  0  0  0  0  0
    7.3888   -3.2542    6.7167 H   0  0  0  0  0  0  0  0  0  0  0  0
    7.1407   -5.5879    6.5839 H   0  0  0  0  0  0  0  0  0  0  0  0
    5.4523   -7.3637    6.1958 H   0  0  0  0  0  0  0  0  0  0  0  0
    6.5073   -7.2140    4.9169 H   0  0  0  0  0  0  0  0  0  0  0  0
    4.3626   -5.0751    4.2396 H   0  0  0  0  0  0  0  0  0  0  0  0
    3.7039   -2.8540    3.4066 H   0  0  0  0  0  0  0  0  0  0  0  0
  1  2  1  0
  1 20  1  0
  1 21  1  0
  1 22  1  0
  2  3  1  0
  2 23  1  0
  2 24  1  0
  3  4  2  0
  3  8  1  0
  4  5  1  0
  5  6  1  0
  5  7  1  0
  6 25  1  0
  6 26  1  0
  6 27  1  0
  7  8  2  0
  7 28  1  0
  8  9  1  0
  9 10  1  0
  9 29  1  0
 10 11  2  0
 10 12  1  0
 12 13  2  0
 12 19  1  0
 13 14  1  0
 13 30  1  0
 14 15  2  0
 14 31  1  0
 15 16  1  0
 15 18  1  0
 16 17  1  0
 16 32  1  0
 17 33  1  0
 17 34  1  0
 18 19  2  0
 18 35  1  0
 19 36  1  0
M  END

