
     RDKit          3D

 30 30  0  0  0  0  0  0  0  0999 V2000
    4.3703   -4.4631   -3.1439 C   0  0  0  0  0  0  0  0  0  0  0  0
    3.7501   -3.7321   -2.1097 O   0  0  0  0  0  0  0  0  0  0  0  0
    3.7586   -2.3721   -2.1455 C   0  0  0  0  0  0  0  0  0  0  0  0
    4.3448   -1.6007   -3.1493 C   0  0  0  0  0  0  0  0  0  0  0  0
    4.2964   -0.2017   -3.0900 C   0  0  0  0  0  0  0  0  0  0  0  0
    3.6559    0.4096   -2.0165 C   0  0  0  0  0  0  0  0  0  0  0  0
    3.5883    2.1582   -1.9295 Cl  0  0  0  0  0  0  0  0  0  0  0  0
    3.0597   -0.3416   -0.9969 C   0  0  0  0  0  0  0  0  0  0  0  0
    3.1065   -1.7388   -1.0536 C   0  0  0  0  0  0  0  0  0  0  0  0
    2.5459   -2.5951   -0.0930 N   0  0  0  0  0  0  0  0  0  0  0  0
    1.8763   -2.2312    1.0335 C   0  0  0  0  0  0  0  0  0  0  0  0
    1.6372   -1.1026    1.4166 O   0  0  0  0  0  0  0  0  0  0  0  0
    1.4179   -3.3227    1.8301 N   0  0  0  0  0  0  0  0  0  0  0  0
    1.5439   -4.6794    1.6402 C   0  0  0  0  0  0  0  0  0  0  0  0
    2.1170   -5.1734    0.6812 O   0  0  0  0  0  0  0  0  0  0  0  0
    0.9066   -5.5312    2.7310 C   0  0  0  0  0  0  0  0  0  0  0  0
    1.0854   -7.0174    2.4625 C   0  0  0  0  0  0  0  0  0  0  0  0
    0.3186   -7.9945    3.7723 Cl  0  0  0  0  0  0  0  0  0  0  0  0
    4.2353   -5.5248   -2.8990 H   0  0  0  0  0  0  0  0  0  0  0  0
    5.4508   -4.2421   -3.2075 H   0  0  0  0  0  0  0  0  0  0  0  0
    3.9049   -4.2570   -4.1243 H   0  0  0  0  0  0  0  0  0  0  0  0
    4.8464   -2.0792   -3.9905 H   0  0  0  0  0  0  0  0  0  0  0  0
    4.7544    0.4019   -3.8745 H   0  0  0  0  0  0  0  0  0  0  0  0
    2.5612    0.1449   -0.1629 H   0  0  0  0  0  0  0  0  0  0  0  0
    2.6551   -3.6013   -0.2570 H   0  0  0  0  0  0  0  0  0  0  0  0
    0.9255   -2.9889    2.6533 H   0  0  0  0  0  0  0  0  0  0  0  0
   -0.1665   -5.2842    2.8037 H   0  0  0  0  0  0  0  0  0  0  0  0
    1.3504   -5.2646    3.7056 H   0  0  0  0  0  0  0  0  0  0  0  0
    2.1465   -7.2927    2.4222 H   0  0  0  0  0  0  0  0  0  0  0  0
    0.6201   -7.3122    1.5138 H   0  0  0  0  0  0  0  0  0  0  0  0
  1  2  1  0
  1 19  1  0
  1 20  1  0
  1 21  1  0
  2  3  1  0
  3  4  2  0
  3  9  1  0
  4  5  1  0
  4 22  1  0
  5  6  2  0
  5 23  1  0
  6  7  1  0
  6  8  1  0
  8  9  2  0
  8 24  1  0
  9 10  1  0
 10 11  1  0
 10 25  1  0
 11 12  2  0
 11 13  1  0
 13 14  1  0
 13 26  1  0
 14 15  2  0
 14 16  1  0
 16 17  1  0
 16 27  1  0
 16 28  1  0
 17 18  1  0
 17 29  1  0
 17 30  1  0
M  END

