
     RDKit          3D

 46 48  0  0  0  0  0  0  0  0999 V2000
    7.6822    0.2778    2.2181 C   0  0  0  0  0  0  0  0  0  0  0  0
    6.2421   -0.0909    1.9520 C   0  0  0  0  0  0  0  0  0  0  0  0
    5.1875    0.6262    2.5376 C   0  0  0  0  0  0  0  0  0  0  0  0
    3.8443    0.3101    2.2866 C   0  0  0  0  0  0  0  0  0  0  0  0
    2.7227    1.1070    2.9099 C   0  0  0  0  0  0  0  0  0  0  0  0
    3.5626   -0.7719    1.4403 C   0  0  0  0  0  0  0  0  0  0  0  0
    4.5963   -1.5119    0.8488 C   0  0  0  0  0  0  0  0  0  0  0  0
    4.3342   -2.5996   -0.1651 C   0  0  0  0  0  0  0  0  0  0  0  0
    4.9466   -2.5942   -1.2255 O   0  0  0  0  0  0  0  0  0  0  0  0
    3.3796   -3.5523    0.1227 N   0  0  0  0  0  0  0  0  0  0  0  0
    2.8804   -3.8940    1.4529 C   0  0  0  0  0  0  0  0  0  0  0  0
    3.2877   -5.3213    1.8452 C   0  0  0  0  0  0  0  0  0  0  0  0
    2.9132   -6.3360    0.7594 C   0  0  0  0  0  0  0  0  0  0  0  0
    3.4496   -5.9390   -0.6379 C   0  0  1  0  0  0  0  0  0  0  0  0
    4.9925   -6.0568   -0.7414 C   0  0  0  0  0  0  0  0  0  0  0  0
    5.4652   -7.5173   -0.7427 C   0  0  0  0  0  0  0  0  0  0  0  0
    4.6849   -8.3328   -1.7728 C   0  0  0  0  0  0  0  0  0  0  0  0
    3.2873   -8.2011   -1.5896 O   0  0  0  0  0  0  0  0  0  0  0  0
    2.8487   -6.8659   -1.7148 C   0  0  0  0  0  0  0  0  0  0  0  0
    2.9912   -4.4935   -0.9248 C   0  0  0  0  0  0  0  0  0  0  0  0
    5.9280   -1.1525    1.0941 C   0  0  0  0  0  0  0  0  0  0  0  0
    7.7633    1.1074    2.9359 H   0  0  0  0  0  0  0  0  0  0  0  0
    8.1921    0.5848    1.2895 H   0  0  0  0  0  0  0  0  0  0  0  0
    8.2466   -0.5775    2.6249 H   0  0  0  0  0  0  0  0  0  0  0  0
    5.4197    1.4646    3.2017 H   0  0  0  0  0  0  0  0  0  0  0  0
    3.1036    1.9772    3.4645 H   0  0  0  0  0  0  0  0  0  0  0  0
    2.1368    0.4924    3.6146 H   0  0  0  0  0  0  0  0  0  0  0  0
    2.0196    1.4756    2.1450 H   0  0  0  0  0  0  0  0  0  0  0  0
    2.5216   -1.0247    1.2207 H   0  0  0  0  0  0  0  0  0  0  0  0
    1.7757   -3.8137    1.4538 H   0  0  0  0  0  0  0  0  0  0  0  0
    3.2606   -3.1740    2.1859 H   0  0  0  0  0  0  0  0  0  0  0  0
    2.7976   -5.5847    2.7977 H   0  0  0  0  0  0  0  0  0  0  0  0
    4.3739   -5.3433    2.0364 H   0  0  0  0  0  0  0  0  0  0  0  0
    1.8107   -6.3965    0.6959 H   0  0  0  0  0  0  0  0  0  0  0  0
    3.2516   -7.3464    1.0331 H   0  0  0  0  0  0  0  0  0  0  0  0
    5.4867   -5.4923    0.0644 H   0  0  0  0  0  0  0  0  0  0  0  0
    5.3104   -5.5696   -1.6791 H   0  0  0  0  0  0  0  0  0  0  0  0
    5.3299   -7.9715    0.2536 H   0  0  0  0  0  0  0  0  0  0  0  0
    6.5439   -7.5688   -0.9682 H   0  0  0  0  0  0  0  0  0  0  0  0
    4.9117   -9.4074   -1.6944 H   0  0  0  0  0  0  0  0  0  0  0  0
    4.9619   -8.0044   -2.7979 H   0  0  0  0  0  0  0  0  0  0  0  0
    1.7493   -6.8891   -1.6390 H   0  0  0  0  0  0  0  0  0  0  0  0
    3.1083   -6.4708   -2.7211 H   0  0  0  0  0  0  0  0  0  0  0  0
    1.8865   -4.4795   -1.0042 H   0  0  0  0  0  0  0  0  0  0  0  0
    3.4106   -4.1279   -1.8703 H   0  0  0  0  0  0  0  0  0  0  0  0
    6.7225   -1.7093    0.5911 H   0  0  0  0  0  0  0  0  0  0  0  0
  1  2  1  0
  1 22  1  0
  1 23  1  0
  1 24  1  0
  2  3  2  0
  2 21  1  0
  3  4  1  0
  3 25  1  0
  4  5  1  0
  4  6  2  0
  5 26  1  0
  5 27  1  0
  5 28  1  0
  6  7  1  0
  6 29  1  0
  7  8  1  0
  7 21  2  0
  8  9  2  0
  8 10  1  0
 10 11  1  0
 10 20  1  0
 11 12  1  0
 11 30  1  0
 11 31  1  0
 12 13  1  0
 12 32  1  0
 12 33  1  0
 14 13  1  1
 13 34  1  0
 13 35  1  0
 14 15  1  0
 14 19  1  0
 14 20  1  0
 15 16  1  0
 15 36  1  0
 15 37  1  0
 16 17  1  0
 16 38  1  0
 16 39  1  0
 17 18  1  0
 17 40  1  0
 17 41  1  0
 18 19  1  0
 19 42  1  0
 19 43  1  0
 20 44  1  0
 20 45  1  0
 21 46  1  0
M  END

