
     RDKit          3D

 48 50  0  0  0  0  0  0  0  0999 V2000
    0.9122   -0.4816    0.5845 C   0  0  0  0  0  0  0  0  0  0  0  0
    2.3300   -0.1294    0.2468 C   0  0  0  0  0  0  0  0  0  0  0  0
    2.7941    1.1245   -0.0417 C   0  0  0  0  0  0  0  0  0  0  0  0
    4.5105    1.0766   -0.3645 S   0  0  0  0  0  0  0  0  0  0  0  0
    4.4573   -0.6764   -0.0967 C   0  0  0  0  0  0  0  0  0  0  0  0
    5.5730   -1.4634   -0.2417 N   0  0  0  0  0  0  0  0  0  0  0  0
    5.5404   -2.8312    0.2757 C   0  0  0  0  0  0  0  0  0  0  0  0
    6.4548   -3.7266   -0.5502 C   0  0  0  0  0  0  0  0  0  0  0  0
    7.7955   -3.1588   -0.6539 N   0  0  0  0  0  0  0  0  0  0  0  0
    8.8835   -4.0114   -0.4846 C   0  0  0  0  0  0  0  0  0  0  0  0
    8.7602   -5.1245    0.0006 O   0  0  0  0  0  0  0  0  0  0  0  0
   10.1073   -3.5108   -0.8896 N   0  0  0  0  0  0  0  0  0  0  0  0
   11.3318   -4.1769   -0.7343 C   0  0  0  0  0  0  0  0  0  0  0  0
   11.6234   -5.4295   -0.1303 C   0  0  0  0  0  0  0  0  0  0  0  0
   12.9300   -5.6854   -0.1831 N   0  0  0  0  0  0  0  0  0  0  0  0
   13.4883   -4.6424   -0.8009 N   0  0  0  0  0  0  0  0  0  0  0  0
   14.9216   -4.6251   -1.0447 C   0  0  0  0  0  0  0  0  0  0  0  0
   15.3950   -5.7102   -2.0272 C   0  0  1  0  0  0  0  0  0  0  0  0
   14.7607   -5.5487   -3.4122 C   0  0  0  0  0  0  0  0  0  0  0  0
   16.9260   -5.7134   -2.0992 C   0  0  0  0  0  0  0  0  0  0  0  0
   12.5671   -3.6988   -1.1566 C   0  0  0  0  0  0  0  0  0  0  0  0
    7.8306   -1.7984   -1.1581 C   0  0  0  0  0  0  0  0  0  0  0  0
    6.8992   -0.8873   -0.3466 C   0  0  0  0  0  0  0  0  0  0  0  0
    3.2772   -1.1310    0.2181 N   0  0  0  0  0  0  0  0  0  0  0  0
    0.2623    0.4049    0.5748 H   0  0  0  0  0  0  0  0  0  0  0  0
    0.8574   -0.9470    1.5824 H   0  0  0  0  0  0  0  0  0  0  0  0
    0.5146   -1.2170   -0.1342 H   0  0  0  0  0  0  0  0  0  0  0  0
    2.2461    2.0635   -0.0786 H   0  0  0  0  0  0  0  0  0  0  0  0
    4.5033   -3.1855    0.2341 H   0  0  0  0  0  0  0  0  0  0  0  0
    5.8625   -2.8423    1.3364 H   0  0  0  0  0  0  0  0  0  0  0  0
    6.0232   -3.8519   -1.5631 H   0  0  0  0  0  0  0  0  0  0  0  0
    6.5473   -4.7162   -0.0875 H   0  0  0  0  0  0  0  0  0  0  0  0
   10.1333   -2.6693   -1.4468 H   0  0  0  0  0  0  0  0  0  0  0  0
   10.9245   -6.1228    0.3265 H   0  0  0  0  0  0  0  0  0  0  0  0
   15.4321   -4.7534   -0.0765 H   0  0  0  0  0  0  0  0  0  0  0  0
   15.1778   -3.6230   -1.4255 H   0  0  0  0  0  0  0  0  0  0  0  0
   15.0618   -6.6734   -1.6041 H   0  0  0  0  0  0  0  0  0  0  0  0
   15.0593   -4.5932   -3.8788 H   0  0  0  0  0  0  0  0  0  0  0  0
   13.6614   -5.5722   -3.3595 H   0  0  0  0  0  0  0  0  0  0  0  0
   15.0792   -6.3599   -4.0862 H   0  0  0  0  0  0  0  0  0  0  0  0
   17.3109   -4.7592   -2.4999 H   0  0  0  0  0  0  0  0  0  0  0  0
   17.2873   -6.5174   -2.7595 H   0  0  0  0  0  0  0  0  0  0  0  0
   17.3801   -5.8672   -1.1067 H   0  0  0  0  0  0  0  0  0  0  0  0
   12.8507   -2.7793   -1.6646 H   0  0  0  0  0  0  0  0  0  0  0  0
    7.5300   -1.7629   -2.2252 H   0  0  0  0  0  0  0  0  0  0  0  0
    8.8425   -1.3795   -1.0732 H   0  0  0  0  0  0  0  0  0  0  0  0
    6.8399    0.0891   -0.8504 H   0  0  0  0  0  0  0  0  0  0  0  0
    7.3388   -0.7226    0.6593 H   0  0  0  0  0  0  0  0  0  0  0  0
  1  2  1  0
  1 25  1  0
  1 26  1  0
  1 27  1  0
  2  3  2  0
  2 24  1  0
  3  4  1  0
  3 28  1  0
  4  5  1  0
  5  6  1  0
  5 24  2  0
  6  7  1  0
  6 23  1  0
  7  8  1  0
  7 29  1  0
  7 30  1  0
  8  9  1  0
  8 31  1  0
  8 32  1  0
  9 10  1  0
  9 22  1  0
 10 11  2  0
 10 12  1  0
 12 13  1  0
 12 33  1  0
 13 14  1  0
 13 21  2  0
 14 15  2  0
 14 34  1  0
 15 16  1  0
 16 17  1  0
 16 21  1  0
 17 18  1  0
 17 35  1  0
 17 36  1  0
 18 19  1  0
 18 20  1  0
 18 37  1  1
 19 38  1  0
 19 39  1  0
 19 40  1  0
 20 41  1  0
 20 42  1  0
 20 43  1  0
 21 44  1  0
 22 23  1  0
 22 45  1  0
 22 46  1  0
 23 47  1  0
 23 48  1  0
M  END

