
     RDKit          3D

 43 45  0  0  0  0  0  0  0  0999 V2000
    3.0998    0.0802   -1.8433 C   0  0  0  0  0  0  0  0  0  0  0  0
    2.6811   -0.0725   -0.3807 C   0  0  1  0  0  0  0  0  0  0  0  0
    1.5832    0.0153   -0.3212 H   0  0  0  0  0  0  0  0  0  0  0  0
    3.0632   -1.4178    0.2534 C   0  0  0  0  0  0  0  0  0  0  0  0
    4.5612   -1.7003    0.4094 C   0  0  0  0  0  0  0  0  0  0  0  0
    5.2310   -0.8043    1.3595 N   0  0  0  0  0  0  0  0  0  0  0  0
    5.1824   -1.1407    2.6969 C   0  0  0  0  0  0  0  0  0  0  0  0
    4.6992   -2.1850    3.0884 O   0  0  0  0  0  0  0  0  0  0  0  0
    5.7403   -0.0994    3.6800 C   0  0  0  0  0  0  0  0  0  0  0  0
    5.7180   -0.6127    4.9987 O   0  0  0  0  0  0  0  0  0  0  0  0
    4.5438   -0.5770    5.6370 C   0  0  0  0  0  0  0  0  0  0  0  0
    3.5438   -0.0669    5.1863 O   0  0  0  0  0  0  0  0  0  0  0  0
    4.5328   -1.2715    6.9634 C   0  0  0  0  0  0  0  0  0  0  0  0
    3.2950   -1.7027    7.4517 C   0  0  0  0  0  0  0  0  0  0  0  0
    3.1797   -2.3906    8.6527 C   0  0  0  0  0  0  0  0  0  0  0  0
    4.3566   -2.6326    9.3741 C   0  0  0  0  0  0  0  0  0  0  0  0
    5.5700   -2.1823    8.8971 C   0  0  0  0  0  0  0  0  0  0  0  0
    5.6888   -1.4868    7.7065 N   0  0  0  0  0  0  0  0  0  0  0  0
    6.8174   -1.0611    7.3632 O   0  0  0  0  0  0  0  0  0  0  0  0
    5.7834    0.4214    0.8779 C   0  0  0  0  0  0  0  0  0  0  0  0
    7.1746    0.5661    0.7780 C   0  0  0  0  0  0  0  0  0  0  0  0
    7.7402    1.7620    0.3301 C   0  0  0  0  0  0  0  0  0  0  0  0
    6.9099    2.8204   -0.0487 C   0  0  0  0  0  0  0  0  0  0  0  0
    5.5222    2.6739    0.0089 C   0  0  0  0  0  0  0  0  0  0  0  0
    4.9416    1.4815    0.4715 C   0  0  0  0  0  0  0  0  0  0  0  0
    3.1658    1.4047    0.6387 S   0  0  0  0  0  0  0  0  0  0  0  0
    4.1945    0.0977   -1.9605 H   0  0  0  0  0  0  0  0  0  0  0  0
    2.7057    1.0148   -2.2687 H   0  0  0  0  0  0  0  0  0  0  0  0
    2.7116   -0.7623   -2.4407 H   0  0  0  0  0  0  0  0  0  0  0  0
    2.6310   -2.2207   -0.3720 H   0  0  0  0  0  0  0  0  0  0  0  0
    2.5933   -1.5036    1.2451 H   0  0  0  0  0  0  0  0  0  0  0  0
    5.0901   -1.6278   -0.5533 H   0  0  0  0  0  0  0  0  0  0  0  0
    4.6884   -2.7231    0.7893 H   0  0  0  0  0  0  0  0  0  0  0  0
    5.1415    0.8211    3.5999 H   0  0  0  0  0  0  0  0  0  0  0  0
    6.7904    0.1356    3.4666 H   0  0  0  0  0  0  0  0  0  0  0  0
    2.4274   -1.4749    6.8313 H   0  0  0  0  0  0  0  0  0  0  0  0
    2.2099   -2.7314    9.0173 H   0  0  0  0  0  0  0  0  0  0  0  0
    4.3413   -3.1716   10.3241 H   0  0  0  0  0  0  0  0  0  0  0  0
    6.5261   -2.3099    9.4030 H   0  0  0  0  0  0  0  0  0  0  0  0
    7.8101   -0.2758    1.0634 H   0  0  0  0  0  0  0  0  0  0  0  0
    8.8265    1.8615    0.2684 H   0  0  0  0  0  0  0  0  0  0  0  0
    7.3417    3.7585   -0.4058 H   0  0  0  0  0  0  0  0  0  0  0  0
    4.8666    3.4884   -0.3064 H   0  0  0  0  0  0  0  0  0  0  0  0
  1  2  1  0
  1 27  1  0
  1 28  1  0
  1 29  1  0
  2  3  1  6
  2  4  1  0
  2 26  1  0
  4  5  1  0
  4 30  1  0
  4 31  1  0
  5  6  1  0
  5 32  1  0
  5 33  1  0
  6  7  1  0
  6 20  1  0
  7  8  2  0
  7  9  1  0
  9 10  1  0
  9 34  1  0
  9 35  1  0
 10 11  1  0
 11 12  2  0
 11 13  1  0
 13 14  2  0
 13 18  1  0
 14 15  1  0
 14 36  1  0
 15 16  2  0
 15 37  1  0
 16 17  1  0
 16 38  1  0
 17 18  2  0
 17 39  1  0
 18 19  1  0
 20 21  2  0
 20 25  1  0
 21 22  1  0
 21 40  1  0
 22 23  2  0
 22 41  1  0
 23 24  1  0
 23 42  1  0
 24 25  2  0
 24 43  1  0
 25 26  1  0
M  CHG  2  18   1  19  -1
M  END

