
     RDKit          3D

 61 68  0  0  0  0  0  0  0  0999 V2000
    1.3180   -1.0382    0.7628 C   0  0  0  0  0  0  0  0  0  0  0  0
    2.2423    0.0165    0.1150 C   0  0  2  0  0  0  0  0  0  0  0  0
    1.4137    0.9843   -0.7583 C   0  0  0  0  0  0  0  0  0  0  0  0
    3.3566   -0.6414   -0.6879 C   0  0  0  0  0  0  0  0  0  0  0  0
    3.2244   -1.4732   -1.7964 C   0  0  0  0  0  0  0  0  0  0  0  0
    4.3715   -1.9939   -2.4076 C   0  0  0  0  0  0  0  0  0  0  0  0
    5.6361   -1.6771   -1.9009 C   0  0  0  0  0  0  0  0  0  0  0  0
    5.7748   -0.8418   -0.7880 C   0  0  0  0  0  0  0  0  0  0  0  0
    4.6316   -0.3102   -0.1673 C   0  0  0  0  0  0  0  0  0  0  0  0
    4.4388    0.5816    0.9979 C   0  0  0  0  0  0  0  0  0  0  0  0
    3.0468    0.7708    1.1680 C   0  0  0  0  0  0  0  0  0  0  0  0
    2.5410    1.5618    2.1868 C   0  0  0  0  0  0  0  0  0  0  0  0
    3.4134    2.1987    3.0896 C   0  0  0  0  0  0  0  0  0  0  0  0
    2.9210    3.0342    4.1457 C   0  0  0  0  0  0  0  0  0  0  0  0
    3.7627    3.6452    5.0286 C   0  0  0  0  0  0  0  0  0  0  0  0
    5.1895    3.4769    4.9448 C   0  0  0  0  0  0  0  0  0  0  0  0
    6.0896    4.0967    5.8569 C   0  0  0  0  0  0  0  0  0  0  0  0
    5.6276    4.8919    7.0248 C   0  0  0  0  0  0  0  0  0  0  0  0
    4.7562    4.3849    8.0037 C   0  0  0  0  0  0  0  0  0  0  0  0
    4.4061    5.1696    9.0986 C   0  0  0  0  0  0  0  0  0  0  0  0
    4.9314    6.4705    9.2167 C   0  0  0  0  0  0  0  0  0  0  0  0
    4.6054    7.3683   10.3582 C   0  0  0  0  0  0  0  0  0  0  0  0
    3.6846    7.0345   11.3648 C   0  0  0  0  0  0  0  0  0  0  0  0
    3.4421    7.9366   12.3996 C   0  0  0  0  0  0  0  0  0  0  0  0
    4.1288    9.1540   12.4000 C   0  0  0  0  0  0  0  0  0  0  0  0
    5.0071    9.4939   11.4529 N   0  0  0  0  0  0  0  0  0  0  0  0
    5.2338    8.6271   10.4665 C   0  0  0  0  0  0  0  0  0  0  0  0
    5.7692    6.9539    8.2847 N   0  0  0  0  0  0  0  0  0  0  0  0
    6.1008    6.2013    7.2428 C   0  0  0  0  0  0  0  0  0  0  0  0
    7.4737    3.9535    5.6569 C   0  0  0  0  0  0  0  0  0  0  0  0
    7.9848    3.1914    4.6127 C   0  0  0  0  0  0  0  0  0  0  0  0
    7.1255    2.5349    3.7150 C   0  0  0  0  0  0  0  0  0  0  0  0
    7.6236    1.7260    2.6415 C   0  0  0  0  0  0  0  0  0  0  0  0
    6.7819    1.0957    1.7723 C   0  0  0  0  0  0  0  0  0  0  0  0
    5.3528    1.2136    1.8804 C   0  0  0  0  0  0  0  0  0  0  0  0
    4.8273    2.0273    2.9455 C   0  0  0  0  0  0  0  0  0  0  0  0
    5.7111    2.6781    3.8702 C   0  0  0  0  0  0  0  0  0  0  0  0
    0.7929   -1.6229   -0.0093 H   0  0  0  0  0  0  0  0  0  0  0  0
    0.5553   -0.5554    1.3947 H   0  0  0  0  0  0  0  0  0  0  0  0
    1.8914   -1.7368    1.3907 H   0  0  0  0  0  0  0  0  0  0  0  0
    0.8899    0.4363   -1.5578 H   0  0  0  0  0  0  0  0  0  0  0  0
    2.0561    1.7444   -1.2280 H   0  0  0  0  0  0  0  0  0  0  0  0
    0.6531    1.5039   -0.1538 H   0  0  0  0  0  0  0  0  0  0  0  0
    2.2349   -1.7216   -2.1901 H   0  0  0  0  0  0  0  0  0  0  0  0
    4.2790   -2.6477   -3.2784 H   0  0  0  0  0  0  0  0  0  0  0  0
    6.5306   -2.0861   -2.3776 H   0  0  0  0  0  0  0  0  0  0  0  0
    6.7782   -0.6253   -0.4263 H   0  0  0  0  0  0  0  0  0  0  0  0
    1.4629    1.7030    2.3035 H   0  0  0  0  0  0  0  0  0  0  0  0
    1.8409    3.1838    4.2264 H   0  0  0  0  0  0  0  0  0  0  0  0
    3.3499    4.2910    5.8038 H   0  0  0  0  0  0  0  0  0  0  0  0
    4.3705    3.3662    7.9179 H   0  0  0  0  0  0  0  0  0  0  0  0
    3.7415    4.7598    9.8599 H   0  0  0  0  0  0  0  0  0  0  0  0
    3.1509    6.0821   11.3481 H   0  0  0  0  0  0  0  0  0  0  0  0
    2.7296    7.7016   13.1938 H   0  0  0  0  0  0  0  0  0  0  0  0
    3.9598    9.8851   13.1999 H   0  0  0  0  0  0  0  0  0  0  0  0
    5.9538    8.9175    9.6967 H   0  0  0  0  0  0  0  0  0  0  0  0
    6.7800    6.6555    6.5111 H   0  0  0  0  0  0  0  0  0  0  0  0
    8.1605    4.4301    6.3604 H   0  0  0  0  0  0  0  0  0  0  0  0
    9.0659    3.0854    4.4913 H   0  0  0  0  0  0  0  0  0  0  0  0
    8.7060    1.6214    2.5289 H   0  0  0  0  0  0  0  0  0  0  0  0
    7.2096    0.4952    0.9743 H   0  0  0  0  0  0  0  0  0  0  0  0
  2  1  1  1
  1 38  1  0
  1 39  1  0
  1 40  1  0
  2  3  1  0
  2  4  1  0
  2 11  1  0
  3 41  1  0
  3 42  1  0
  3 43  1  0
  4  5  2  0
  4  9  1  0
  5  6  1  0
  5 44  1  0
  6  7  2  0
  6 45  1  0
  7  8  1  0
  7 46  1  0
  8  9  2  0
  8 47  1  0
  9 10  1  0
 10 11  2  0
 10 35  1  0
 11 12  1  0
 12 13  2  0
 12 48  1  0
 13 14  1  0
 13 36  1  0
 14 15  2  0
 14 49  1  0
 15 16  1  0
 15 50  1  0
 16 17  2  0
 16 37  1  0
 17 18  1  0
 17 30  1  0
 18 19  2  0
 18 29  1  0
 19 20  1  0
 19 51  1  0
 20 21  2  0
 20 52  1  0
 21 22  1  0
 21 28  1  0
 22 23  2  0
 22 27  1  0
 23 24  1  0
 23 53  1  0
 24 25  2  0
 24 54  1  0
 25 26  1  0
 25 55  1  0
 26 27  2  0
 27 56  1  0
 28 29  2  0
 29 57  1  0
 30 31  2  0
 30 58  1  0
 31 32  1  0
 31 59  1  0
 32 33  2  0
 32 37  1  0
 33 34  1  0
 33 60  1  0
 34 35  2  0
 34 61  1  0
 35 36  1  0
 36 37  2  0
M  END

