
     RDKit          3D

 36 36  0  0  0  0  0  0  0  0999 V2000
    2.9708   -0.1614   -1.3477 C   0  0  0  0  0  0  0  0  0  0  0  0
    4.4905   -0.0350   -1.2249 C   0  0  2  0  0  0  0  0  0  0  0  0
    4.7407    1.0455   -1.1389 H   0  0  0  0  0  0  0  0  0  0  0  0
    5.1921   -0.5645   -2.4870 C   0  0  0  0  0  0  0  0  0  0  0  0
    4.9517   -1.9355   -2.6790 O   0  0  0  0  0  0  0  0  0  0  0  0
    5.0215   -0.8248   -0.1048 N   0  0  0  0  0  0  0  0  0  0  0  0
    4.4763   -0.6378    1.2470 C   0  0  2  0  0  0  0  0  0  0  0  0
    3.3952   -0.8391    1.1839 H   0  0  0  0  0  0  0  0  0  0  0  0
    4.6586    0.7992    1.7646 C   0  0  0  0  0  0  0  0  0  0  0  0
    5.1146   -1.6967    2.1900 C   0  0  1  0  0  0  0  0  0  0  0  0
    4.6622   -1.5846    3.6634 C   0  0  0  0  0  0  0  0  0  0  0  0
    3.2110   -2.0377    3.8823 C   0  0  0  0  0  0  0  0  0  0  0  0
    2.9894   -3.4685    3.3732 C   0  0  0  0  0  0  0  0  0  0  0  0
    3.4403   -3.6263    1.9149 C   0  0  0  0  0  0  0  0  0  0  0  0
    4.8852   -3.1477    1.7110 C   0  0  0  0  0  0  0  0  0  0  0  0
    2.6809   -1.2165   -1.4632 H   0  0  0  0  0  0  0  0  0  0  0  0
    2.6227    0.3856   -2.2375 H   0  0  0  0  0  0  0  0  0  0  0  0
    2.4430    0.2568   -0.4777 H   0  0  0  0  0  0  0  0  0  0  0  0
    6.2813   -0.3473   -2.4055 H   0  0  0  0  0  0  0  0  0  0  0  0
    4.8273   -0.0243   -3.3765 H   0  0  0  0  0  0  0  0  0  0  0  0
    5.0082   -2.3223   -1.7892 H   0  0  0  0  0  0  0  0  0  0  0  0
    6.0348   -0.6958   -0.0665 H   0  0  0  0  0  0  0  0  0  0  0  0
    4.1251    0.9732    2.7107 H   0  0  0  0  0  0  0  0  0  0  0  0
    4.2730    1.5324    1.0396 H   0  0  0  0  0  0  0  0  0  0  0  0
    5.7264    1.0247    1.9331 H   0  0  0  0  0  0  0  0  0  0  0  0
    6.2050   -1.5031    2.1661 H   0  0  0  0  0  0  0  0  0  0  0  0
    4.8114   -0.5649    4.0503 H   0  0  0  0  0  0  0  0  0  0  0  0
    5.3242   -2.2319    4.2665 H   0  0  0  0  0  0  0  0  0  0  0  0
    2.5181   -1.3505    3.3631 H   0  0  0  0  0  0  0  0  0  0  0  0
    2.9566   -1.9706    4.9538 H   0  0  0  0  0  0  0  0  0  0  0  0
    1.9305   -3.7576    3.4840 H   0  0  0  0  0  0  0  0  0  0  0  0
    3.5687   -4.1663    4.0064 H   0  0  0  0  0  0  0  0  0  0  0  0
    2.7612   -3.0561    1.2557 H   0  0  0  0  0  0  0  0  0  0  0  0
    3.3493   -4.6798    1.6005 H   0  0  0  0  0  0  0  0  0  0  0  0
    5.1720   -3.2415    0.6541 H   0  0  0  0  0  0  0  0  0  0  0  0
    5.5614   -3.8082    2.2834 H   0  0  0  0  0  0  0  0  0  0  0  0
  1  2  1  0
  1 16  1  0
  1 17  1  0
  1 18  1  0
  2  3  1  1
  2  4  1  0
  2  6  1  0
  4  5  1  0
  4 19  1  0
  4 20  1  0
  5 21  1  0
  6  7  1  0
  6 22  1  0
  7  8  1  6
  7  9  1  0
  7 10  1  0
  9 23  1  0
  9 24  1  0
  9 25  1  0
 10 11  1  0
 10 15  1  0
 10 26  1  1
 11 12  1  0
 11 27  1  0
 11 28  1  0
 12 13  1  0
 12 29  1  0
 12 30  1  0
 13 14  1  0
 13 31  1  0
 13 32  1  0
 14 15  1  0
 14 33  1  0
 14 34  1  0
 15 35  1  0
 15 36  1  0
M  END

