
     RDKit          3D

 38 39  0  0  0  0  0  0  0  0999 V2000
    0.5492    0.2231    0.6644 C   0  0  0  0  0  0  0  0  0  0  0  0
    2.0702    0.0961    0.5334 C   0  0  0  0  0  0  0  0  0  0  0  0
    2.7190   -0.8010    1.5999 C   0  0  1  0  0  0  0  0  0  0  0  0
    2.1599   -2.2552    1.5719 C   0  0  0  0  0  0  0  0  0  0  0  0
    2.2700   -2.9861    0.2516 C   0  0  0  0  0  0  0  0  0  0  0  0
    3.5086   -3.3293   -0.3214 C   0  0  0  0  0  0  0  0  0  0  0  0
    3.6035   -4.0105   -1.5367 C   0  0  0  0  0  0  0  0  0  0  0  0
    2.4312   -4.3682   -2.1990 C   0  0  0  0  0  0  0  0  0  0  0  0
    2.5043   -5.0266   -3.3647 F   0  0  0  0  0  0  0  0  0  0  0  0
    1.1787   -4.0627   -1.6761 C   0  0  0  0  0  0  0  0  0  0  0  0
    1.1302   -3.3792   -0.4627 C   0  0  0  0  0  0  0  0  0  0  0  0
   -0.0909   -3.0945    0.0357 F   0  0  0  0  0  0  0  0  0  0  0  0
    4.1933   -0.8407    1.5352 N   0  0  0  0  0  0  0  0  0  0  0  0
    4.9585    0.1671    0.8048 C   0  0  0  0  0  0  0  0  0  0  0  0
    5.2529    1.4327    1.6229 C   0  0  0  0  0  0  0  0  0  0  0  0
    5.9165    1.0516    2.8641 N   0  0  0  0  0  0  0  0  0  0  0  0
    5.1167    0.1189    3.6481 C   0  0  0  0  0  0  0  0  0  0  0  0
    4.8484   -1.1376    2.8088 C   0  0  0  0  0  0  0  0  0  0  0  0
    0.1634    0.9610   -0.0566 H   0  0  0  0  0  0  0  0  0  0  0  0
    0.2618    0.5670    1.6725 H   0  0  0  0  0  0  0  0  0  0  0  0
    0.0282   -0.7252    0.4722 H   0  0  0  0  0  0  0  0  0  0  0  0
    2.5050    1.1050    0.6094 H   0  0  0  0  0  0  0  0  0  0  0  0
    2.3251   -0.2775   -0.4732 H   0  0  0  0  0  0  0  0  0  0  0  0
    2.3994   -0.3848    2.5800 H   0  0  0  0  0  0  0  0  0  0  0  0
    1.1079   -2.2384    1.8884 H   0  0  0  0  0  0  0  0  0  0  0  0
    2.6954   -2.8337    2.3419 H   0  0  0  0  0  0  0  0  0  0  0  0
    4.4156   -3.0350    0.2074 H   0  0  0  0  0  0  0  0  0  0  0  0
    4.5688   -4.2721   -1.9734 H   0  0  0  0  0  0  0  0  0  0  0  0
    0.2622   -4.3492   -2.1926 H   0  0  0  0  0  0  0  0  0  0  0  0
    4.4617    0.4215   -0.1398 H   0  0  0  0  0  0  0  0  0  0  0  0
    5.9314   -0.2863    0.5391 H   0  0  0  0  0  0  0  0  0  0  0  0
    4.3020    1.9890    1.7964 H   0  0  0  0  0  0  0  0  0  0  0  0
    5.9171    2.0985    1.0460 H   0  0  0  0  0  0  0  0  0  0  0  0
    6.1578    1.8732    3.4139 H   0  0  0  0  0  0  0  0  0  0  0  0
    4.1423    0.5526    3.9752 H   0  0  0  0  0  0  0  0  0  0  0  0
    5.6694   -0.1569    4.5619 H   0  0  0  0  0  0  0  0  0  0  0  0
    4.2429   -1.8546    3.3840 H   0  0  0  0  0  0  0  0  0  0  0  0
    5.8201   -1.6232    2.6032 H   0  0  0  0  0  0  0  0  0  0  0  0
  1  2  1  0
  1 19  1  0
  1 20  1  0
  1 21  1  0
  2  3  1  0
  2 22  1  0
  2 23  1  0
  3  4  1  0
  3 13  1  0
  3 24  1  1
  4  5  1  0
  4 25  1  0
  4 26  1  0
  5  6  2  0
  5 11  1  0
  6  7  1  0
  6 27  1  0
  7  8  2  0
  7 28  1  0
  8  9  1  0
  8 10  1  0
 10 11  2  0
 10 29  1  0
 11 12  1  0
 13 14  1  0
 13 18  1  0
 14 15  1  0
 14 30  1  0
 14 31  1  0
 15 16  1  0
 15 32  1  0
 15 33  1  0
 16 17  1  0
 16 34  1  0
 17 18  1  0
 17 35  1  0
 17 36  1  0
 18 37  1  0
 18 38  1  0
M  END

