
     RDKit          3D

 46 47  0  0  0  0  0  0  0  0999 V2000
    3.0122   -0.4028    6.3500 C   0  0  0  0  0  0  0  0  0  0  0  0
    3.4128    0.1062    4.9649 C   0  0  0  0  0  0  0  0  0  0  0  0
    4.7883   -0.4001    4.5184 C   0  0  0  0  0  0  0  0  0  0  0  0
    5.2454    0.1115    3.1357 C   0  0  0  0  0  0  0  0  0  0  0  0
    5.5445    1.6029    3.1311 C   0  0  0  0  0  0  0  0  0  0  0  0
    4.6962    2.4640    3.1428 O   0  0  0  0  0  0  0  0  0  0  0  0
    6.9163    1.8866    3.1509 N   0  0  0  0  0  0  0  0  0  0  0  0
    7.3510    3.1436    3.2002 N   0  0  0  0  0  0  0  0  0  0  0  0
    8.6275    3.3513    3.2128 C   0  0  0  0  0  0  0  0  0  0  0  0
    9.7119    2.3110    3.1769 C   0  0  0  0  0  0  0  0  0  0  0  0
    9.5704    1.0904    3.1400 O   0  0  0  0  0  0  0  0  0  0  0  0
   10.9111    2.9864    3.2020 N   0  0  0  0  0  0  0  0  0  0  0  0
   12.1927    2.2941    3.2164 C   0  0  0  0  0  0  0  0  0  0  0  0
   12.6969    1.8632    1.8320 C   0  0  0  0  0  0  0  0  0  0  0  0
   13.0050    3.0090    0.8684 C   0  0  0  0  0  0  0  0  0  0  0  0
   10.6913    4.3836    3.2633 C   0  0  0  0  0  0  0  0  0  0  0  0
   11.6041    5.4262    3.3191 C   0  0  0  0  0  0  0  0  0  0  0  0
   11.1186    6.7462    3.3847 C   0  0  0  0  0  0  0  0  0  0  0  0
    9.7396    7.0110    3.3910 C   0  0  0  0  0  0  0  0  0  0  0  0
    9.1985    8.2568    3.4502 O   0  0  0  0  0  0  0  0  0  0  0  0
   10.0484    9.3773    3.5131 C   0  0  0  0  0  0  0  0  0  0  0  0
    8.8181    5.9467    3.3329 C   0  0  0  0  0  0  0  0  0  0  0  0
    9.2996    4.6469    3.2710 C   0  0  0  0  0  0  0  0  0  0  0  0
    2.0153   -0.0345    6.6397 H   0  0  0  0  0  0  0  0  0  0  0  0
    3.7255   -0.0688    7.1224 H   0  0  0  0  0  0  0  0  0  0  0  0
    2.9825   -1.5053    6.3846 H   0  0  0  0  0  0  0  0  0  0  0  0
    3.4034    1.2078    4.9485 H   0  0  0  0  0  0  0  0  0  0  0  0
    2.6589   -0.2082    4.2206 H   0  0  0  0  0  0  0  0  0  0  0  0
    4.7781   -1.5040    4.4858 H   0  0  0  0  0  0  0  0  0  0  0  0
    5.5490   -0.1292    5.2736 H   0  0  0  0  0  0  0  0  0  0  0  0
    4.4456   -0.0563    2.3966 H   0  0  0  0  0  0  0  0  0  0  0  0
    6.1279   -0.4586    2.8027 H   0  0  0  0  0  0  0  0  0  0  0  0
    7.6161    1.1334    3.1306 H   0  0  0  0  0  0  0  0  0  0  0  0
   12.0649    1.3993    3.8450 H   0  0  0  0  0  0  0  0  0  0  0  0
   12.9252    2.9476    3.7163 H   0  0  0  0  0  0  0  0  0  0  0  0
   11.9479    1.1843    1.3913 H   0  0  0  0  0  0  0  0  0  0  0  0
   13.6041    1.2539    1.9912 H   0  0  0  0  0  0  0  0  0  0  0  0
   12.1146    3.6269    0.6717 H   0  0  0  0  0  0  0  0  0  0  0  0
   13.3591    2.6226   -0.1003 H   0  0  0  0  0  0  0  0  0  0  0  0
   13.7908    3.6732    1.2661 H   0  0  0  0  0  0  0  0  0  0  0  0
   12.6805    5.2487    3.3084 H   0  0  0  0  0  0  0  0  0  0  0  0
   11.8396    7.5623    3.4278 H   0  0  0  0  0  0  0  0  0  0  0  0
    9.3988   10.2619    3.5550 H   0  0  0  0  0  0  0  0  0  0  0  0
   10.6979    9.4542    2.6216 H   0  0  0  0  0  0  0  0  0  0  0  0
   10.6874    9.3614    4.4154 H   0  0  0  0  0  0  0  0  0  0  0  0
    7.7474    6.1561    3.3397 H   0  0  0  0  0  0  0  0  0  0  0  0
  1  2  1  0
  1 24  1  0
  1 25  1  0
  1 26  1  0
  2  3  1  0
  2 27  1  0
  2 28  1  0
  3  4  1  0
  3 29  1  0
  3 30  1  0
  4  5  1  0
  4 31  1  0
  4 32  1  0
  5  6  2  0
  5  7  1  0
  7  8  1  0
  7 33  1  0
  8  9  2  0
  9 10  1  0
  9 23  1  0
 10 11  2  0
 10 12  1  0
 12 13  1  0
 12 16  1  0
 13 14  1  0
 13 34  1  0
 13 35  1  0
 14 15  1  0
 14 36  1  0
 14 37  1  0
 15 38  1  0
 15 39  1  0
 15 40  1  0
 16 17  2  0
 16 23  1  0
 17 18  1  0
 17 41  1  0
 18 19  2  0
 18 42  1  0
 19 20  1  0
 19 22  1  0
 20 21  1  0
 21 43  1  0
 21 44  1  0
 21 45  1  0
 22 23  2  0
 22 46  1  0
M  END

