
     RDKit          3D

 88 94  0  0  0  0  0  0  0  0999 V2000
    3.0808   -2.3713    0.5026 C   0  0  0  0  0  0  0  0  0  0  0  0
    2.3538   -1.2361    1.2261 C   0  0  0  0  0  0  0  0  0  0  0  0
    2.7381   -1.0614    2.6243 N   0  0  0  0  0  0  0  0  0  0  0  0
    2.3431   -2.0831    3.5902 C   0  0  0  0  0  0  0  0  0  0  0  0
    3.4702   -3.0218    4.0339 C   0  0  0  0  0  0  0  0  0  0  0  0
    3.4292    0.0431    3.0259 C   0  0  0  0  0  0  0  0  0  0  0  0
    3.6957    1.2608    2.1982 C   0  0  0  0  0  0  0  0  0  0  0  0
    4.9734    1.6782    2.4143 C   0  0  0  0  0  0  0  0  0  0  0  0
    5.0727    2.4992    3.6557 C   0  0  0  0  0  0  0  0  0  0  0  0
    5.7408    3.6662    4.0181 C   0  0  0  0  0  0  0  0  0  0  0  0
    6.4007    4.5176    2.9841 C   0  0  0  0  0  0  0  0  0  0  0  0
    7.6100    4.0516    2.4355 C   0  0  0  0  0  0  0  0  0  0  0  0
    8.2819    4.7580    1.4380 C   0  0  0  0  0  0  0  0  0  0  0  0
    7.7417    5.9504    0.9498 C   0  0  0  0  0  0  0  0  0  0  0  0
    6.5365    6.4187    1.4670 C   0  0  0  0  0  0  0  0  0  0  0  0
    5.8635    5.7342    2.4943 C   0  0  0  0  0  0  0  0  0  0  0  0
    4.5412    6.3491    2.9060 C   0  0  0  0  0  0  0  0  0  0  0  0
    3.8478    6.9296    2.1073 O   0  0  0  0  0  0  0  0  0  0  0  0
    4.1643    6.2687    4.1906 O   0  0  0  0  0  0  0  0  0  0  0  0
    5.8099    4.0074    5.4165 C   0  0  0  0  0  0  0  0  0  0  0  0
    6.4146    5.1693    5.9327 C   0  0  0  0  0  0  0  0  0  0  0  0
    6.4238    5.4868    7.3289 C   0  0  0  0  0  0  0  0  0  0  0  0
    6.9928    6.6361    7.9092 C   0  0  0  0  0  0  0  0  0  0  0  0
    7.6067    7.6844    7.0507 C   0  0  0  0  0  0  0  0  0  0  0  0
    6.7825    8.4545    6.2087 C   0  0  0  0  0  0  0  0  0  0  0  0
    7.2988    9.4739    5.4065 C   0  0  0  0  0  0  0  0  0  0  0  0
    8.6667    9.7576    5.4317 C   0  0  0  0  0  0  0  0  0  0  0  0
    9.5032    9.0106    6.2612 C   0  0  0  0  0  0  0  0  0  0  0  0
    8.9936    7.9748    7.0647 C   0  0  0  0  0  0  0  0  0  0  0  0
    9.9556    7.1302    7.8608 C   0  0  0  0  0  0  0  0  0  0  0  0
    9.8904    5.9370    7.9682 O   0  0  0  0  0  0  0  0  0  0  0  0
   10.9728    7.8155    8.4460 O   0  0  0  0  0  0  0  0  0  0  0  0
    6.9509    6.7955    9.3399 C   0  0  0  0  0  0  0  0  0  0  0  0
    7.4342    7.9076   10.0692 C   0  0  0  0  0  0  0  0  0  0  0  0
    7.3544    7.9875   11.4531 C   0  0  0  0  0  0  0  0  0  0  0  0
    6.7660    6.9520   12.2292 C   0  0  0  0  0  0  0  0  0  0  0  0
    6.6916    7.0217   13.6121 N   0  0  0  0  0  0  0  0  0  0  0  0
    6.1943    5.9067   14.4058 C   0  0  0  0  0  0  0  0  0  0  0  0
    4.6765    5.9094   14.6206 C   0  0  0  0  0  0  0  0  0  0  0  0
    7.1173    8.2074   14.3428 C   0  0  0  0  0  0  0  0  0  0  0  0
    8.6068    8.2275   14.7042 C   0  0  0  0  0  0  0  0  0  0  0  0
    6.2538    5.8439   11.5139 C   0  0  0  0  0  0  0  0  0  0  0  0
    6.3523    5.7886   10.1302 C   0  0  0  0  0  0  0  0  0  0  0  0
    5.8041    4.6807    9.5318 O   0  0  0  0  0  0  0  0  0  0  0  0
    5.8169    4.5149    8.1971 C   0  0  0  0  0  0  0  0  0  0  0  0
    5.2201    3.3546    7.7193 C   0  0  0  0  0  0  0  0  0  0  0  0
    5.1980    3.1048    6.3421 C   0  0  0  0  0  0  0  0  0  0  0  0
    4.5839    1.9803    5.9370 O   0  0  0  0  0  0  0  0  0  0  0  0
    4.4741    1.6452    4.6264 C   0  0  0  0  0  0  0  0  0  0  0  0
    3.7934    0.3898    4.3348 C   0  0  0  0  0  0  0  0  0  0  0  0
    2.7535   -2.4156   -0.5486 H   0  0  0  0  0  0  0  0  0  0  0  0
    2.8694   -3.3530    0.9553 H   0  0  0  0  0  0  0  0  0  0  0  0
    4.1707   -2.2142    0.5161 H   0  0  0  0  0  0  0  0  0  0  0  0
    1.2615   -1.4015    1.1766 H   0  0  0  0  0  0  0  0  0  0  0  0
    2.5565   -0.2844    0.7138 H   0  0  0  0  0  0  0  0  0  0  0  0
    1.5281   -2.6680    3.1353 H   0  0  0  0  0  0  0  0  0  0  0  0
    1.9052   -1.5829    4.4722 H   0  0  0  0  0  0  0  0  0  0  0  0
    3.8733   -3.5942    3.1851 H   0  0  0  0  0  0  0  0  0  0  0  0
    3.0925   -3.7382    4.7810 H   0  0  0  0  0  0  0  0  0  0  0  0
    4.3012   -2.4634    4.4897 H   0  0  0  0  0  0  0  0  0  0  0  0
    2.9051    2.0193    2.3185 H   0  0  0  0  0  0  0  0  0  0  0  0
    5.7493    0.8959    2.3751 H   0  0  0  0  0  0  0  0  0  0  0  0
    8.0261    3.1134    2.8103 H   0  0  0  0  0  0  0  0  0  0  0  0
    9.2241    4.3727    1.0399 H   0  0  0  0  0  0  0  0  0  0  0  0
    8.2529    6.5087    0.1617 H   0  0  0  0  0  0  0  0  0  0  0  0
    6.0777    7.3285    1.0759 H   0  0  0  0  0  0  0  0  0  0  0  0
    4.8520    5.8923    4.7796 H   0  0  0  0  0  0  0  0  0  0  0  0
    6.9806    5.8083    5.2551 H   0  0  0  0  0  0  0  0  0  0  0  0
    5.7102    8.2453    6.1906 H   0  0  0  0  0  0  0  0  0  0  0  0
    6.6280   10.0500    4.7641 H   0  0  0  0  0  0  0  0  0  0  0  0
    9.0824   10.5482    4.8025 H   0  0  0  0  0  0  0  0  0  0  0  0
   10.5793    9.2077    6.2527 H   0  0  0  0  0  0  0  0  0  0  0  0
   10.8164    8.7667    8.3624 H   0  0  0  0  0  0  0  0  0  0  0  0
    7.8877    8.7384    9.5258 H   0  0  0  0  0  0  0  0  0  0  0  0
    7.7680    8.8703   11.9384 H   0  0  0  0  0  0  0  0  0  0  0  0
    6.7020    5.9373   15.3843 H   0  0  0  0  0  0  0  0  0  0  0  0
    6.5111    4.9582   13.9436 H   0  0  0  0  0  0  0  0  0  0  0  0
    4.3502    6.8300   15.1309 H   0  0  0  0  0  0  0  0  0  0  0  0
    4.3711    5.0521   15.2427 H   0  0  0  0  0  0  0  0  0  0  0  0
    4.1350    5.8482   13.6642 H   0  0  0  0  0  0  0  0  0  0  0  0
    6.5159    8.2666   15.2652 H   0  0  0  0  0  0  0  0  0  0  0  0
    6.8534    9.1085   13.7666 H   0  0  0  0  0  0  0  0  0  0  0  0
    8.8749    7.3599   15.3283 H   0  0  0  0  0  0  0  0  0  0  0  0
    8.8570    9.1403   15.2693 H   0  0  0  0  0  0  0  0  0  0  0  0
    9.2385    8.1974   13.8032 H   0  0  0  0  0  0  0  0  0  0  0  0
    5.7556    5.0117   12.0067 H   0  0  0  0  0  0  0  0  0  0  0  0
    4.7658    2.6488    8.4141 H   0  0  0  0  0  0  0  0  0  0  0  0
    3.4999   -0.2062    5.2016 H   0  0  0  0  0  0  0  0  0  0  0  0
  1  2  1  0
  1 51  1  0
  1 52  1  0
  1 53  1  0
  2  3  1  0
  2 54  1  0
  2 55  1  0
  3  4  1  0
  3  6  1  0
  4  5  1  0
  4 56  1  0
  4 57  1  0
  5 58  1  0
  5 59  1  0
  5 60  1  0
  6  7  2  0
  6 50  1  0
  7  8  1  0
  7 61  1  0
  8  9  2  0
  8 62  1  0
  9 10  1  0
  9 49  1  0
 10 11  1  0
 10 20  2  0
 11 12  2  0
 11 16  1  0
 12 13  1  0
 12 63  1  0
 13 14  2  0
 13 64  1  0
 14 15  1  0
 14 65  1  0
 15 16  2  0
 15 66  1  0
 16 17  1  0
 17 18  2  0
 17 19  1  0
 19 67  1  0
 20 21  1  0
 20 47  1  0
 21 22  2  0
 21 68  1  0
 22 23  1  0
 22 45  1  0
 23 24  2  0
 23 33  1  0
 24 25  1  0
 24 29  1  0
 25 26  2  0
 25 69  1  0
 26 27  1  0
 26 70  1  0
 27 28  2  0
 27 71  1  0
 28 29  1  0
 28 72  1  0
 29 30  2  0
 30 31  1  0
 30 32  1  0
 32 73  1  0
 33 34  2  0
 33 43  1  0
 34 35  1  0
 34 74  1  0
 35 36  2  0
 35 75  1  0
 36 37  1  0
 36 42  1  0
 37 38  1  0
 37 40  1  0
 38 39  1  0
 38 76  1  0
 38 77  1  0
 39 78  1  0
 39 79  1  0
 39 80  1  0
 40 41  1  0
 40 81  1  0
 40 82  1  0
 41 83  1  0
 41 84  1  0
 41 85  1  0
 42 43  2  0
 42 86  1  0
 43 44  1  0
 44 45  1  0
 45 46  2  0
 46 47  1  0
 46 87  1  0
 47 48  2  0
 48 49  1  0
 49 50  2  0
 50 88  1  0
M  CHG  2  31  -1  48   1
M  END

