
     RDKit          3D

 56 55  0  0  0  0  0  0  0  0999 V2000
    0.5054    0.0327    0.0180 C   0  0  0  0  0  0  0  0  0  0  0  0
    2.0347    0.0176    0.0133 C   0  0  0  0  0  0  0  0  0  0  0  0
    2.6380   -1.2585    0.6085 C   0  0  0  0  0  0  0  0  0  0  0  0
    4.1692   -1.2819    0.6076 C   0  0  0  0  0  0  0  0  0  0  0  0
    4.7721   -2.5578    1.2027 C   0  0  0  0  0  0  0  0  0  0  0  0
    6.3035   -2.5807    1.2012 C   0  0  0  0  0  0  0  0  0  0  0  0
    6.9065   -3.8566    1.7964 C   0  0  0  0  0  0  0  0  0  0  0  0
    8.4379   -3.8791    1.7946 C   0  0  0  0  0  0  0  0  0  0  0  0
    9.0408   -5.1550    2.3898 C   0  0  0  0  0  0  0  0  0  0  0  0
   10.5725   -5.1774    2.3870 C   0  0  0  0  0  0  0  0  0  0  0  0
   11.1664   -6.4581    2.9844 C   0  0  0  0  0  0  0  0  0  0  0  0
   12.6984   -6.5487    2.9401 C   0  0  0  0  0  0  0  0  0  0  0  0
   13.4245   -5.5231    3.8185 C   0  0  0  0  0  0  0  0  0  0  0  0
   14.9369   -5.7050    3.7837 C   0  0  0  0  0  0  0  0  0  0  0  0
   15.6107   -4.6688    4.5240 O   0  0  0  0  0  0  0  0  0  0  0  0
   15.7611   -4.8449    5.8434 C   0  0  0  0  0  0  0  0  0  0  0  0
   15.4452   -5.8413    6.4452 O   0  0  0  0  0  0  0  0  0  0  0  0
   16.3828   -3.6087    6.4906 C   0  0  1  0  0  0  0  0  0  0  0  0
   15.0017   -2.4514    6.7935 Cl  0  0  0  0  0  0  0  0  0  0  0  0
   17.1174   -3.9126    7.7885 C   0  0  0  0  0  0  0  0  0  0  0  0
   18.3865   -4.7413    7.5717 C   0  0  0  0  0  0  0  0  0  0  0  0
    0.1071    0.9637   -0.4165 H   0  0  0  0  0  0  0  0  0  0  0  0
    0.1066   -0.0530    1.0429 H   0  0  0  0  0  0  0  0  0  0  0  0
    0.0942   -0.8086   -0.5651 H   0  0  0  0  0  0  0  0  0  0  0  0
    2.4140    0.8926    0.5724 H   0  0  0  0  0  0  0  0  0  0  0  0
    2.4017    0.1435   -1.0218 H   0  0  0  0  0  0  0  0  0  0  0  0
    2.2591   -2.1349    0.0496 H   0  0  0  0  0  0  0  0  0  0  0  0
    2.2716   -1.3853    1.6445 H   0  0  0  0  0  0  0  0  0  0  0  0
    4.5475   -0.4053    1.1662 H   0  0  0  0  0  0  0  0  0  0  0  0
    4.5351   -1.1549   -0.4286 H   0  0  0  0  0  0  0  0  0  0  0  0
    4.3940   -3.4346    0.6443 H   0  0  0  0  0  0  0  0  0  0  0  0
    4.4067   -2.6849    2.2389 H   0  0  0  0  0  0  0  0  0  0  0  0
    6.6817   -1.7040    1.7596 H   0  0  0  0  0  0  0  0  0  0  0  0
    6.6690   -2.4537    0.1650 H   0  0  0  0  0  0  0  0  0  0  0  0
    6.5282   -4.7333    1.2382 H   0  0  0  0  0  0  0  0  0  0  0  0
    6.5413   -3.9834    2.8327 H   0  0  0  0  0  0  0  0  0  0  0  0
    8.8160   -3.0024    2.3530 H   0  0  0  0  0  0  0  0  0  0  0  0
    8.8031   -3.7522    0.7583 H   0  0  0  0  0  0  0  0  0  0  0  0
    8.6618   -6.0321    1.8327 H   0  0  0  0  0  0  0  0  0  0  0  0
    8.6770   -5.2810    3.4266 H   0  0  0  0  0  0  0  0  0  0  0  0
   10.9436   -4.2954    2.9388 H   0  0  0  0  0  0  0  0  0  0  0  0
   10.9371   -5.0581    1.3492 H   0  0  0  0  0  0  0  0  0  0  0  0
   10.7488   -7.3268    2.4448 H   0  0  0  0  0  0  0  0  0  0  0  0
   10.8272   -6.5649    4.0314 H   0  0  0  0  0  0  0  0  0  0  0  0
   13.0385   -6.4427    1.8927 H   0  0  0  0  0  0  0  0  0  0  0  0
   13.0009   -7.5636    3.2543 H   0  0  0  0  0  0  0  0  0  0  0  0
   13.0793   -5.6180    4.8620 H   0  0  0  0  0  0  0  0  0  0  0  0
   13.1916   -4.4947    3.4967 H   0  0  0  0  0  0  0  0  0  0  0  0
   15.3239   -5.6140    2.7580 H   0  0  0  0  0  0  0  0  0  0  0  0
   15.2271   -6.6846    4.1925 H   0  0  0  0  0  0  0  0  0  0  0  0
   17.0249   -3.1034    5.7567 H   0  0  0  0  0  0  0  0  0  0  0  0
   16.4234   -4.4444    8.4575 H   0  0  0  0  0  0  0  0  0  0  0  0
   17.3654   -2.9530    8.2685 H   0  0  0  0  0  0  0  0  0  0  0  0
   18.1546   -5.7275    7.1410 H   0  0  0  0  0  0  0  0  0  0  0  0
   18.9003   -4.9124    8.5303 H   0  0  0  0  0  0  0  0  0  0  0  0
   19.0972   -4.2300    6.9011 H   0  0  0  0  0  0  0  0  0  0  0  0
  1  2  1  0
  1 22  1  0
  1 23  1  0
  1 24  1  0
  2  3  1  0
  2 25  1  0
  2 26  1  0
  3  4  1  0
  3 27  1  0
  3 28  1  0
  4  5  1  0
  4 29  1  0
  4 30  1  0
  5  6  1  0
  5 31  1  0
  5 32  1  0
  6  7  1  0
  6 33  1  0
  6 34  1  0
  7  8  1  0
  7 35  1  0
  7 36  1  0
  8  9  1  0
  8 37  1  0
  8 38  1  0
  9 10  1  0
  9 39  1  0
  9 40  1  0
 10 11  1  0
 10 41  1  0
 10 42  1  0
 11 12  1  0
 11 43  1  0
 11 44  1  0
 12 13  1  0
 12 45  1  0
 12 46  1  0
 13 14  1  0
 13 47  1  0
 13 48  1  0
 14 15  1  0
 14 49  1  0
 14 50  1  0
 15 16  1  0
 16 17  2  0
 16 18  1  0
 18 19  1  0
 18 20  1  0
 18 51  1  6
 20 21  1  0
 20 52  1  0
 20 53  1  0
 21 54  1  0
 21 55  1  0
 21 56  1  0
M  END

