
     RDKit          3D

 53 55  0  0  0  0  0  0  0  0999 V2000
    1.8479   -1.3939    2.5620 C   0  0  0  0  0  0  0  0  0  0  0  0
    1.0616   -0.4175    3.4458 C   0  0  0  0  0  0  0  0  0  0  0  0
    1.9455    0.3856    4.3698 C   0  0  0  0  0  0  0  0  0  0  0  0
    2.8523    1.1964    3.8111 N   0  0  0  0  0  0  0  0  0  0  0  0
    3.6491    1.9146    4.5994 C   0  0  0  0  0  0  0  0  0  0  0  0
    3.5518    1.8375    6.0047 C   0  0  0  0  0  0  0  0  0  0  0  0
    4.3222    2.5507    6.9288 N   0  0  0  0  0  0  0  0  0  0  0  0
    5.3547    3.4444    6.6575 C   0  0  0  0  0  0  0  0  0  0  0  0
    5.7104    3.6906    5.5135 O   0  0  0  0  0  0  0  0  0  0  0  0
    5.9517    4.0160    7.7678 N   0  0  0  0  0  0  0  0  0  0  0  0
    5.2768    4.1389    9.0641 C   0  0  0  0  0  0  0  0  0  0  0  0
    4.2533    5.2806    9.1244 C   0  0  0  0  0  0  0  0  0  0  0  0
    4.7900    6.6527    8.6504 C   0  0  0  0  0  0  0  0  0  0  0  0
    5.1739    6.7388    7.2532 N   0  0  0  0  0  0  0  0  0  0  0  0
    4.1006    6.6783    6.2782 C   0  0  0  0  0  0  0  0  0  0  0  0
    3.1878    7.8988    6.2817 C   0  0  0  0  0  0  0  0  0  0  0  0
    3.7050    9.1872    6.4863 C   0  0  0  0  0  0  0  0  0  0  0  0
    2.8725   10.3078    6.4355 C   0  0  0  0  0  0  0  0  0  0  0  0
    1.5050   10.1588    6.1792 C   0  0  0  0  0  0  0  0  0  0  0  0
    0.9779    8.8802    5.9787 C   0  0  0  0  0  0  0  0  0  0  0  0
    1.8144    7.7607    6.0347 C   0  0  0  0  0  0  0  0  0  0  0  0
    6.5090    6.3152    6.8745 C   0  0  0  0  0  0  0  0  0  0  0  0
    7.0217    5.0106    7.5465 C   0  0  2  0  0  0  0  0  0  0  0  0
    8.2594    4.4483    6.8428 C   0  0  0  0  0  0  0  0  0  0  0  0
    2.5720    0.9527    6.4862 C   0  0  0  0  0  0  0  0  0  0  0  0
    1.7840    0.2388    5.6925 N   0  0  0  0  0  0  0  0  0  0  0  0
    1.1771   -1.9233    1.8671 H   0  0  0  0  0  0  0  0  0  0  0  0
    2.3703   -2.1501    3.1702 H   0  0  0  0  0  0  0  0  0  0  0  0
    2.6025   -0.8533    1.9707 H   0  0  0  0  0  0  0  0  0  0  0  0
    0.3238   -0.9511    4.0624 H   0  0  0  0  0  0  0  0  0  0  0  0
    0.5100    0.2883    2.8004 H   0  0  0  0  0  0  0  0  0  0  0  0
    4.3869    2.5685    4.1337 H   0  0  0  0  0  0  0  0  0  0  0  0
    4.1344    2.3251    7.8971 H   0  0  0  0  0  0  0  0  0  0  0  0
    6.0624    4.2999    9.8196 H   0  0  0  0  0  0  0  0  0  0  0  0
    4.8081    3.1845    9.3559 H   0  0  0  0  0  0  0  0  0  0  0  0
    3.8912    5.3761   10.1636 H   0  0  0  0  0  0  0  0  0  0  0  0
    3.3726    5.0113    8.5171 H   0  0  0  0  0  0  0  0  0  0  0  0
    5.6541    6.9482    9.2725 H   0  0  0  0  0  0  0  0  0  0  0  0
    4.0077    7.4058    8.8482 H   0  0  0  0  0  0  0  0  0  0  0  0
    3.4641    5.7735    6.3790 H   0  0  0  0  0  0  0  0  0  0  0  0
    4.5623    6.5883    5.2819 H   0  0  0  0  0  0  0  0  0  0  0  0
    4.7721    9.2981    6.6942 H   0  0  0  0  0  0  0  0  0  0  0  0
    3.2926   11.3045    6.5963 H   0  0  0  0  0  0  0  0  0  0  0  0
    0.8532   11.0355    6.1403 H   0  0  0  0  0  0  0  0  0  0  0  0
   -0.0902    8.7517    5.7837 H   0  0  0  0  0  0  0  0  0  0  0  0
    1.3936    6.7619    5.8818 H   0  0  0  0  0  0  0  0  0  0  0  0
    7.2549    7.1012    7.1166 H   0  0  0  0  0  0  0  0  0  0  0  0
    6.5283    6.1840    5.7846 H   0  0  0  0  0  0  0  0  0  0  0  0
    7.3387    5.2802    8.5654 H   0  0  0  0  0  0  0  0  0  0  0  0
    8.0276    4.1396    5.8159 H   0  0  0  0  0  0  0  0  0  0  0  0
    8.6583    3.5811    7.3915 H   0  0  0  0  0  0  0  0  0  0  0  0
    9.0466    5.2189    6.8110 H   0  0  0  0  0  0  0  0  0  0  0  0
    2.4325    0.8270    7.5704 H   0  0  0  0  0  0  0  0  0  0  0  0
  1  2  1  0
  1 27  1  0
  1 28  1  0
  1 29  1  0
  2  3  1  0
  2 30  1  0
  2 31  1  0
  3  4  2  0
  3 26  1  0
  4  5  1  0
  5  6  2  0
  5 32  1  0
  6  7  1  0
  6 25  1  0
  7  8  1  0
  7 33  1  0
  8  9  2  0
  8 10  1  0
 10 11  1  0
 10 23  1  0
 11 12  1  0
 11 34  1  0
 11 35  1  0
 12 13  1  0
 12 36  1  0
 12 37  1  0
 13 14  1  0
 13 38  1  0
 13 39  1  0
 14 15  1  0
 14 22  1  0
 15 16  1  0
 15 40  1  0
 15 41  1  0
 16 17  2  0
 16 21  1  0
 17 18  1  0
 17 42  1  0
 18 19  2  0
 18 43  1  0
 19 20  1  0
 19 44  1  0
 20 21  2  0
 20 45  1  0
 21 46  1  0
 22 23  1  0
 22 47  1  0
 22 48  1  0
 23 24  1  0
 23 49  1  1
 24 50  1  0
 24 51  1  0
 24 52  1  0
 25 26  2  0
 25 53  1  0
M  END

