
     RDKit          3D

 49 51  0  0  0  0  0  0  0  0999 V2000
    1.4651    0.5821    0.7781 C   0  0  0  0  0  0  0  0  0  0  0  0
    2.8684    0.3168    0.2082 C   0  0  1  0  0  0  0  0  0  0  0  0
    3.0924   -1.1671   -0.1490 C   0  0  0  0  0  0  0  0  0  0  0  0
    2.4453   -1.5852   -1.4861 C   0  0  2  0  0  0  0  0  0  0  0  0
    2.6766   -2.9789   -1.8596 N   0  0  0  0  0  0  0  0  0  0  0  0
    2.0499   -4.0629   -1.0883 C   0  0  2  0  0  0  0  0  0  0  0  0
    2.6100   -5.3963   -1.6094 C   0  0  0  0  0  0  0  0  0  0  0  0
    2.1509   -5.6477   -3.0479 C   0  0  0  0  0  0  0  0  0  0  0  0
    0.6251   -5.7638   -3.1192 C   0  0  0  0  0  0  0  0  0  0  0  0
   -0.1244   -4.7891   -2.2269 C   0  0  0  0  0  0  0  0  0  0  0  0
   -1.5220   -4.6981   -2.3391 C   0  0  0  0  0  0  0  0  0  0  0  0
   -2.2734   -3.8961   -1.4807 C   0  0  0  0  0  0  0  0  0  0  0  0
   -1.6302   -3.1777   -0.4686 C   0  0  0  0  0  0  0  0  0  0  0  0
   -0.2422   -3.2582   -0.3487 C   0  0  0  0  0  0  0  0  0  0  0  0
    0.5286   -4.0380   -1.2271 C   0  0  0  0  0  0  0  0  0  0  0  0
    2.9609   -0.6803   -2.6154 C   0  0  0  0  0  0  0  0  0  0  0  0
    2.7374    0.8333   -2.3838 C   0  0  2  0  0  0  0  0  0  0  0  0
    1.2468    1.1920   -2.5599 C   0  0  0  0  0  0  0  0  0  0  0  0
    3.5324    1.6240   -3.4406 C   0  0  0  0  0  0  0  0  0  0  0  0
    3.2773    1.2174   -0.9798 C   0  0  0  0  0  0  0  0  0  0  0  0
    1.3328    0.0458    1.7323 H   0  0  0  0  0  0  0  0  0  0  0  0
    0.6548    0.2572    0.1095 H   0  0  0  0  0  0  0  0  0  0  0  0
    1.3151    1.6555    0.9789 H   0  0  0  0  0  0  0  0  0  0  0  0
    3.5711    0.5612    1.0252 H   0  0  0  0  0  0  0  0  0  0  0  0
    2.7320   -1.8064    0.6749 H   0  0  0  0  0  0  0  0  0  0  0  0
    4.1795   -1.3561   -0.2333 H   0  0  0  0  0  0  0  0  0  0  0  0
    1.3543   -1.4554   -1.4132 H   0  0  0  0  0  0  0  0  0  0  0  0
    3.6812   -3.1511   -1.9135 H   0  0  0  0  0  0  0  0  0  0  0  0
    2.2797   -3.9893   -0.0035 H   0  0  0  0  0  0  0  0  0  0  0  0
    2.2693   -6.2121   -0.9482 H   0  0  0  0  0  0  0  0  0  0  0  0
    3.7123   -5.3827   -1.5461 H   0  0  0  0  0  0  0  0  0  0  0  0
    2.6148   -6.5623   -3.4521 H   0  0  0  0  0  0  0  0  0  0  0  0
    2.4896   -4.8062   -3.6713 H   0  0  0  0  0  0  0  0  0  0  0  0
    0.3237   -6.7844   -2.8154 H   0  0  0  0  0  0  0  0  0  0  0  0
    0.2784   -5.6546   -4.1608 H   0  0  0  0  0  0  0  0  0  0  0  0
   -2.0288   -5.2816   -3.1143 H   0  0  0  0  0  0  0  0  0  0  0  0
   -3.3596   -3.8420   -1.5921 H   0  0  0  0  0  0  0  0  0  0  0  0
   -2.2067   -2.5612    0.2260 H   0  0  0  0  0  0  0  0  0  0  0  0
    0.2598   -2.7090    0.4527 H   0  0  0  0  0  0  0  0  0  0  0  0
    2.4952   -0.9951   -3.5637 H   0  0  0  0  0  0  0  0  0  0  0  0
    4.0472   -0.8631   -2.7287 H   0  0  0  0  0  0  0  0  0  0  0  0
    0.9325    1.0165   -3.6019 H   0  0  0  0  0  0  0  0  0  0  0  0
    1.0687    2.2560   -2.3326 H   0  0  0  0  0  0  0  0  0  0  0  0
    0.5802    0.6008   -1.9179 H   0  0  0  0  0  0  0  0  0  0  0  0
    3.2011    1.3657   -4.4599 H   0  0  0  0  0  0  0  0  0  0  0  0
    4.6120    1.4110   -3.3743 H   0  0  0  0  0  0  0  0  0  0  0  0
    3.3960    2.7106   -3.3095 H   0  0  0  0  0  0  0  0  0  0  0  0
    3.0176    2.2684   -0.7606 H   0  0  0  0  0  0  0  0  0  0  0  0
    4.3801    1.1873   -1.0405 H   0  0  0  0  0  0  0  0  0  0  0  0
  1  2  1  0
  1 21  1  0
  1 22  1  0
  1 23  1  0
  2  3  1  0
  2 20  1  0
  2 24  1  1
  3  4  1  0
  3 25  1  0
  3 26  1  0
  4  5  1  0
  4 16  1  0
  4 27  1  1
  5  6  1  0
  5 28  1  0
  6  7  1  0
  6 15  1  0
  6 29  1  1
  7  8  1  0
  7 30  1  0
  7 31  1  0
  8  9  1  0
  8 32  1  0
  8 33  1  0
  9 10  1  0
  9 34  1  0
  9 35  1  0
 10 11  2  0
 10 15  1  0
 11 12  1  0
 11 36  1  0
 12 13  2  0
 12 37  1  0
 13 14  1  0
 13 38  1  0
 14 15  2  0
 14 39  1  0
 16 17  1  0
 16 40  1  0
 16 41  1  0
 17 18  1  1
 17 19  1  0
 17 20  1  0
 18 42  1  0
 18 43  1  0
 18 44  1  0
 19 45  1  0
 19 46  1  0
 19 47  1  0
 20 48  1  0
 20 49  1  0
M  END

