
     RDKit          3D

 36 36  0  0  0  0  0  0  0  0999 V2000
    1.8151   -0.6405   -0.7867 C   0  0  0  0  0  0  0  0  0  0  0  0
    2.2037   -1.1891    0.5117 N   0  0  0  0  0  0  0  0  0  0  0  0
    2.7548   -0.2161    1.4735 C   0  0  1  0  0  0  0  0  0  0  0  0
    2.1339   -0.4485    2.8741 C   0  0  0  0  0  0  0  0  0  0  0  0
    2.4656    0.1708    3.8528 O   0  0  0  0  0  0  0  0  0  0  0  0
    1.1670   -1.3645    2.8645 O   0  0  0  0  0  0  0  0  0  0  0  0
    4.2736   -0.0980    1.4926 C   0  0  0  0  0  0  0  0  0  0  0  0
    5.1149   -1.1976    1.7651 C   0  0  0  0  0  0  0  0  0  0  0  0
    4.5622   -2.5353    2.2033 C   0  0  0  0  0  0  0  0  0  0  0  0
    6.5059   -1.0060    1.6422 C   0  0  0  0  0  0  0  0  0  0  0  0
    7.6427   -2.5258    1.9845 Br  0  0  0  0  0  0  0  0  0  0  0  0
    7.0912    0.2190    1.2783 C   0  0  0  0  0  0  0  0  0  0  0  0
    8.5791    0.4190    1.1319 C   0  0  0  0  0  0  0  0  0  0  0  0
    6.2353    1.3196    1.0465 C   0  0  0  0  0  0  0  0  0  0  0  0
    6.7991    2.6585    0.6389 C   0  0  0  0  0  0  0  0  0  0  0  0
    4.8477    1.1504    1.1803 C   0  0  0  0  0  0  0  0  0  0  0  0
    4.0176    2.2297    0.9758 O   0  0  0  0  0  0  0  0  0  0  0  0
    3.7486    3.0078    2.1450 C   0  0  0  0  0  0  0  0  0  0  0  0
    1.4406   -1.4526   -1.4284 H   0  0  0  0  0  0  0  0  0  0  0  0
    2.6419   -0.1306   -1.3171 H   0  0  0  0  0  0  0  0  0  0  0  0
    0.9972    0.0849   -0.6563 H   0  0  0  0  0  0  0  0  0  0  0  0
    2.8611   -1.9543    0.3722 H   0  0  0  0  0  0  0  0  0  0  0  0
    2.3776    0.7732    1.1765 H   0  0  0  0  0  0  0  0  0  0  0  0
    1.1296   -1.6520    1.9119 H   0  0  0  0  0  0  0  0  0  0  0  0
    3.4823   -2.5135    2.3879 H   0  0  0  0  0  0  0  0  0  0  0  0
    5.0425   -2.8592    3.1388 H   0  0  0  0  0  0  0  0  0  0  0  0
    4.7725   -3.3251    1.4624 H   0  0  0  0  0  0  0  0  0  0  0  0
    9.1483   -0.4695    1.4242 H   0  0  0  0  0  0  0  0  0  0  0  0
    8.9240    1.2649    1.7478 H   0  0  0  0  0  0  0  0  0  0  0  0
    8.8417    0.6612    0.0880 H   0  0  0  0  0  0  0  0  0  0  0  0
    7.4884    2.5582   -0.2145 H   0  0  0  0  0  0  0  0  0  0  0  0
    7.3764    3.1259    1.4553 H   0  0  0  0  0  0  0  0  0  0  0  0
    5.9962    3.3457    0.3463 H   0  0  0  0  0  0  0  0  0  0  0  0
    4.6638    3.5072    2.5093 H   0  0  0  0  0  0  0  0  0  0  0  0
    3.3375    2.3796    2.9528 H   0  0  0  0  0  0  0  0  0  0  0  0
    3.0158    3.7738    1.8549 H   0  0  0  0  0  0  0  0  0  0  0  0
  1  2  1  0
  1 19  1  0
  1 20  1  0
  1 21  1  0
  2  3  1  0
  2 22  1  0
  3  4  1  0
  3  7  1  0
  3 23  1  6
  4  5  2  0
  4  6  1  0
  6 24  1  0
  7  8  2  0
  7 16  1  0
  8  9  1  0
  8 10  1  0
  9 25  1  0
  9 26  1  0
  9 27  1  0
 10 11  1  0
 10 12  2  0
 12 13  1  0
 12 14  1  0
 13 28  1  0
 13 29  1  0
 13 30  1  0
 14 15  1  0
 14 16  2  0
 15 31  1  0
 15 32  1  0
 15 33  1  0
 16 17  1  0
 17 18  1  0
 18 34  1  0
 18 35  1  0
 18 36  1  0
M  END

