
     RDKit          3D

 50 53  0  0  0  0  0  0  0  0999 V2000
    4.9044    1.6690   -0.7545 C   0  0  0  0  0  0  0  0  0  0  0  0
    5.3592    2.1183    0.6338 C   0  0  2  0  0  0  0  0  0  0  0  0
    5.7809    3.5821    0.6558 C   0  0  0  0  0  0  0  0  0  0  0  0
    6.4280    1.1543    1.2385 C   0  0  0  0  0  0  0  0  0  0  0  0
    5.6274    0.3455    2.2279 C   0  0  0  0  0  0  0  0  0  0  0  0
    5.9456   -0.7630    2.9959 C   0  0  0  0  0  0  0  0  0  0  0  0
    4.9673   -1.2654    3.8728 C   0  0  0  0  0  0  0  0  0  0  0  0
    5.3394   -2.7244    4.8359 S   0  0  1  0  0  0  0  0  0  0  0  0
    4.1084   -3.1001    5.5493 O   0  0  0  0  0  0  0  0  0  0  0  0
    6.0244   -3.6952    3.9752 O   0  0  0  0  0  0  0  0  0  0  0  0
    6.5103   -2.1669    5.9288 N   0  0  0  0  0  0  0  0  0  0  0  0
    6.0150   -1.4404    7.1068 C   0  0  0  0  0  0  0  0  0  0  0  0
    5.7652   -2.3932    8.2874 C   0  0  0  0  0  0  0  0  0  0  0  0
    6.9184   -3.2361    8.6044 N   0  0  0  0  0  0  0  0  0  0  0  0
    7.9857   -2.5879    9.3654 C   0  0  0  0  0  0  0  0  0  0  0  0
    8.7817   -3.5912   10.1495 C   0  0  0  0  0  0  0  0  0  0  0  0
   10.0545   -3.5098   10.4768 N   0  0  0  0  0  0  0  0  0  0  0  0
   10.3122   -4.6236   11.2391 C   0  0  0  0  0  0  0  0  0  0  0  0
    9.1768   -5.3944   11.3677 C   0  0  0  0  0  0  0  0  0  0  0  0
    8.2051   -4.7154   10.6670 N   0  0  0  0  0  0  0  0  0  0  0  0
    7.2429   -4.9843   10.4945 H   0  0  0  0  0  0  0  0  0  0  0  0
    7.3778   -3.9631    7.4151 C   0  0  0  0  0  0  0  0  0  0  0  0
    7.6554   -3.0452    6.2157 C   0  0  0  0  0  0  0  0  0  0  0  0
    3.6990   -0.6836    3.9698 C   0  0  0  0  0  0  0  0  0  0  0  0
    3.3759    0.4351    3.1939 C   0  0  0  0  0  0  0  0  0  0  0  0
    4.3531    0.9331    2.3309 C   0  0  0  0  0  0  0  0  0  0  0  0
    4.1911    1.9961    1.5220 O   0  0  0  0  0  0  0  0  0  0  0  0
    5.7258    1.7700   -1.4814 H   0  0  0  0  0  0  0  0  0  0  0  0
    4.0560    2.2803   -1.0968 H   0  0  0  0  0  0  0  0  0  0  0  0
    4.5861    0.6150   -0.7376 H   0  0  0  0  0  0  0  0  0  0  0  0
    6.6568    3.7387    0.0067 H   0  0  0  0  0  0  0  0  0  0  0  0
    6.0439    3.8945    1.6777 H   0  0  0  0  0  0  0  0  0  0  0  0
    4.9637    4.2261    0.2971 H   0  0  0  0  0  0  0  0  0  0  0  0
    7.2330    1.7156    1.7432 H   0  0  0  0  0  0  0  0  0  0  0  0
    6.9022    0.5369    0.4597 H   0  0  0  0  0  0  0  0  0  0  0  0
    6.9229   -1.2454    2.9292 H   0  0  0  0  0  0  0  0  0  0  0  0
    5.0947   -0.8984    6.8436 H   0  0  0  0  0  0  0  0  0  0  0  0
    6.7724   -0.6798    7.3684 H   0  0  0  0  0  0  0  0  0  0  0  0
    4.9190   -3.0467    8.0191 H   0  0  0  0  0  0  0  0  0  0  0  0
    5.4768   -1.8202    9.1839 H   0  0  0  0  0  0  0  0  0  0  0  0
    7.5100   -1.8770   10.0647 H   0  0  0  0  0  0  0  0  0  0  0  0
    8.7056   -1.9933    8.7686 H   0  0  0  0  0  0  0  0  0  0  0  0
   11.3014   -4.8210   11.6510 H   0  0  0  0  0  0  0  0  0  0  0  0
    8.9841   -6.3391   11.8699 H   0  0  0  0  0  0  0  0  0  0  0  0
    6.5965   -4.6883    7.1271 H   0  0  0  0  0  0  0  0  0  0  0  0
    8.2828   -4.5382    7.6684 H   0  0  0  0  0  0  0  0  0  0  0  0
    7.8817   -3.6338    5.3175 H   0  0  0  0  0  0  0  0  0  0  0  0
    8.5233   -2.3920    6.4146 H   0  0  0  0  0  0  0  0  0  0  0  0
    2.9657   -1.1252    4.6467 H   0  0  0  0  0  0  0  0  0  0  0  0
    2.3914    0.9024    3.2477 H   0  0  0  0  0  0  0  0  0  0  0  0
  2  1  1  6
  1 28  1  0
  1 29  1  0
  1 30  1  0
  2  3  1  0
  2  4  1  0
  2 27  1  0
  3 31  1  0
  3 32  1  0
  3 33  1  0
  4  5  1  0
  4 34  1  0
  4 35  1  0
  5  6  2  0
  5 26  1  0
  6  7  1  0
  6 36  1  0
  8  7  1  6
  7 24  2  0
  8  9  2  0
  8 10  2  0
  8 11  1  0
 11 12  1  0
 11 23  1  0
 12 13  1  0
 12 37  1  0
 12 38  1  0
 13 14  1  0
 13 39  1  0
 13 40  1  0
 14 15  1  0
 14 22  1  0
 15 16  1  0
 15 41  1  0
 15 42  1  0
 16 17  2  0
 16 20  1  0
 17 18  1  0
 18 19  2  0
 18 43  1  0
 19 20  1  0
 19 44  1  0
 20 21  1  0
 22 23  1  0
 22 45  1  0
 22 46  1  0
 23 47  1  0
 23 48  1  0
 24 25  1  0
 24 49  1  0
 25 26  2  0
 25 50  1  0
 26 27  1  0
M  END

