
     RDKit          3D

 80 87  0  0  0  0  0  0  0  0999 V2000
    0.2194   -2.7928    3.4474 C   0  0  0  0  0  0  0  0  0  0  0  0
    1.6530   -3.3134    3.4651 C   0  0  0  0  0  0  0  0  0  0  0  0
    2.6421   -2.4830    2.7683 N   0  0  0  0  0  0  0  0  0  0  0  0
    2.2070   -1.5843    1.7019 C   0  0  0  0  0  0  0  0  0  0  0  0
    2.1206   -2.2346    0.3168 C   0  0  0  0  0  0  0  0  0  0  0  0
    3.9836   -2.7826    2.9158 C   0  0  0  0  0  0  0  0  0  0  0  0
    4.4206   -3.8239    3.7942 C   0  0  0  0  0  0  0  0  0  0  0  0
    5.7652   -4.0983    3.9691 C   0  0  0  0  0  0  0  0  0  0  0  0
    6.7658   -3.3791    3.2835 C   0  0  0  0  0  0  0  0  0  0  0  0
    8.1720   -3.5848    3.4200 C   0  0  0  0  0  0  0  0  0  0  0  0
    9.0811   -2.8304    2.7259 C   0  0  0  0  0  0  0  0  0  0  0  0
   10.5183   -3.1294    2.8464 C   0  0  0  0  0  0  0  0  0  0  0  0
   10.9914   -4.3587    2.8537 N   0  0  0  0  0  0  0  0  0  0  0  0
   12.3403   -4.2375    3.0386 C   0  0  0  0  0  0  0  0  0  0  0  0
   13.3047   -5.3031    3.1054 C   0  0  0  0  0  0  0  0  0  0  0  0
   12.9547   -6.6530    2.9671 C   0  0  0  0  0  0  0  0  0  0  0  0
   13.9349   -7.6462    3.0416 C   0  0  0  0  0  0  0  0  0  0  0  0
   15.2696   -7.3062    3.2552 C   0  0  0  0  0  0  0  0  0  0  0  0
   15.6586   -5.9599    3.3997 C   0  0  0  0  0  0  0  0  0  0  0  0
   17.0291   -5.5885    3.6247 C   0  0  0  0  0  0  0  0  0  0  0  0
   17.3899   -4.2826    3.7689 C   0  0  0  0  0  0  0  0  0  0  0  0
   16.4192   -3.2221    3.7003 C   0  0  0  0  0  0  0  0  0  0  0  0
   16.8016   -1.8758    3.8559 C   0  0  0  0  0  0  0  0  0  0  0  0
   15.8535   -0.8608    3.7909 C   0  0  0  0  0  0  0  0  0  0  0  0
   14.5063   -1.1558    3.5647 C   0  0  0  0  0  0  0  0  0  0  0  0
   14.0733   -2.4834    3.3973 C   0  0  0  0  0  0  0  0  0  0  0  0
   15.0437   -3.5480    3.4715 C   0  0  0  0  0  0  0  0  0  0  0  0
   14.6670   -4.9299    3.3239 C   0  0  0  0  0  0  0  0  0  0  0  0
   12.7104   -2.8963    3.1614 C   0  0  0  0  0  0  0  0  0  0  0  0
   11.5198   -2.1829    3.0310 N   0  0  0  0  0  0  0  0  0  0  0  0
   11.3203   -0.7772    3.2353 C   0  0  0  0  0  0  0  0  0  0  0  0
   10.8855   -0.3124    4.4771 C   0  0  0  0  0  0  0  0  0  0  0  0
   10.7033    1.0583    4.6919 C   0  0  0  0  0  0  0  0  0  0  0  0
   10.9544    1.9971    3.6797 C   0  0  0  0  0  0  0  0  0  0  0  0
   10.7671    3.5136    3.8787 C   0  0  1  0  0  0  0  0  0  0  0  0
   10.2928    3.8604    5.3015 C   0  0  0  0  0  0  0  0  0  0  0  0
   12.1126    4.2338    3.6290 C   0  0  0  0  0  0  0  0  0  0  0  0
    9.7107    4.0340    2.8762 C   0  0  0  0  0  0  0  0  0  0  0  0
   11.3900    1.5000    2.4347 C   0  0  0  0  0  0  0  0  0  0  0  0
   11.5655    0.1382    2.2057 C   0  0  0  0  0  0  0  0  0  0  0  0
    8.6104   -1.8488    1.7394 C   0  0  0  0  0  0  0  0  0  0  0  0
    9.2891   -1.2230    0.9660 O   0  0  0  0  0  0  0  0  0  0  0  0
    7.2357   -1.6469    1.6882 O   0  0  0  0  0  0  0  0  0  0  0  0
    6.3310   -2.3666    2.4006 C   0  0  0  0  0  0  0  0  0  0  0  0
    4.9857   -2.0724    2.2094 C   0  0  0  0  0  0  0  0  0  0  0  0
   -0.3998   -3.4602    4.0663 H   0  0  0  0  0  0  0  0  0  0  0  0
   -0.2234   -2.7808    2.4401 H   0  0  0  0  0  0  0  0  0  0  0  0
    0.1440   -1.7805    3.8743 H   0  0  0  0  0  0  0  0  0  0  0  0
    1.6666   -4.3469    3.0632 H   0  0  0  0  0  0  0  0  0  0  0  0
    1.9620   -3.3938    4.5194 H   0  0  0  0  0  0  0  0  0  0  0  0
    2.8824   -0.7168    1.6731 H   0  0  0  0  0  0  0  0  0  0  0  0
    1.2290   -1.1700    1.9770 H   0  0  0  0  0  0  0  0  0  0  0  0
    3.0946   -2.6362   -0.0019 H   0  0  0  0  0  0  0  0  0  0  0  0
    1.7951   -1.4968   -0.4343 H   0  0  0  0  0  0  0  0  0  0  0  0
    1.3959   -3.0647    0.3101 H   0  0  0  0  0  0  0  0  0  0  0  0
    3.6987   -4.4261    4.3401 H   0  0  0  0  0  0  0  0  0  0  0  0
    6.0653   -4.8984    4.6512 H   0  0  0  0  0  0  0  0  0  0  0  0
    8.5385   -4.3628    4.0946 H   0  0  0  0  0  0  0  0  0  0  0  0
   11.9059   -6.9039    2.7984 H   0  0  0  0  0  0  0  0  0  0  0  0
   13.6528   -8.6965    2.9307 H   0  0  0  0  0  0  0  0  0  0  0  0
   16.0339   -8.0860    3.3134 H   0  0  0  0  0  0  0  0  0  0  0  0
   17.7807   -6.3809    3.6798 H   0  0  0  0  0  0  0  0  0  0  0  0
   18.4354   -4.0129    3.9418 H   0  0  0  0  0  0  0  0  0  0  0  0
   17.8547   -1.6397    4.0302 H   0  0  0  0  0  0  0  0  0  0  0  0
   16.1591    0.1812    3.9161 H   0  0  0  0  0  0  0  0  0  0  0  0
   13.7885   -0.3399    3.5186 H   0  0  0  0  0  0  0  0  0  0  0  0
   10.6970   -1.0251    5.2830 H   0  0  0  0  0  0  0  0  0  0  0  0
   10.3636    1.3827    5.6754 H   0  0  0  0  0  0  0  0  0  0  0  0
   11.0159    3.5375    6.0670 H   0  0  0  0  0  0  0  0  0  0  0  0
    9.3191    3.4014    5.5340 H   0  0  0  0  0  0  0  0  0  0  0  0
   10.1746    4.9510    5.3987 H   0  0  0  0  0  0  0  0  0  0  0  0
   12.8842    3.8856    4.3340 H   0  0  0  0  0  0  0  0  0  0  0  0
   11.9963    5.3219    3.7621 H   0  0  0  0  0  0  0  0  0  0  0  0
   12.4885    4.0620    2.6090 H   0  0  0  0  0  0  0  0  0  0  0  0
    8.7395    3.5384    3.0329 H   0  0  0  0  0  0  0  0  0  0  0  0
   10.0107    3.8566    1.8324 H   0  0  0  0  0  0  0  0  0  0  0  0
    9.5646    5.1195    3.0020 H   0  0  0  0  0  0  0  0  0  0  0  0
   11.5872    2.1901    1.6116 H   0  0  0  0  0  0  0  0  0  0  0  0
   11.8787   -0.2269    1.2276 H   0  0  0  0  0  0  0  0  0  0  0  0
    4.7533   -1.2824    1.4998 H   0  0  0  0  0  0  0  0  0  0  0  0
  1  2  1  0
  1 46  1  0
  1 47  1  0
  1 48  1  0
  2  3  1  0
  2 49  1  0
  2 50  1  0
  3  4  1  0
  3  6  1  0
  4  5  1  0
  4 51  1  0
  4 52  1  0
  5 53  1  0
  5 54  1  0
  5 55  1  0
  6  7  2  0
  6 45  1  0
  7  8  1  0
  7 56  1  0
  8  9  2  0
  8 57  1  0
  9 10  1  0
  9 44  1  0
 10 11  2  0
 10 58  1  0
 11 12  1  0
 11 41  1  0
 12 13  2  0
 12 30  1  0
 13 14  1  0
 14 15  2  0
 14 29  1  0
 15 16  1  0
 15 28  1  0
 16 17  2  0
 16 59  1  0
 17 18  1  0
 17 60  1  0
 18 19  2  0
 18 61  1  0
 19 20  1  0
 19 28  1  0
 20 21  2  0
 20 62  1  0
 21 22  1  0
 21 63  1  0
 22 23  2  0
 22 27  1  0
 23 24  1  0
 23 64  1  0
 24 25  2  0
 24 65  1  0
 25 26  1  0
 25 66  1  0
 26 27  1  0
 26 29  2  0
 27 28  2  0
 29 30  1  0
 30 31  1  0
 31 32  2  0
 31 40  1  0
 32 33  1  0
 32 67  1  0
 33 34  2  0
 33 68  1  0
 34 35  1  0
 34 39  1  0
 35 36  1  1
 35 37  1  0
 35 38  1  0
 36 69  1  0
 36 70  1  0
 36 71  1  0
 37 72  1  0
 37 73  1  0
 37 74  1  0
 38 75  1  0
 38 76  1  0
 38 77  1  0
 39 40  2  0
 39 78  1  0
 40 79  1  0
 41 42  2  0
 41 43  1  0
 43 44  1  0
 44 45  2  0
 45 80  1  0
M  END

