
     RDKit          3D

 56 59  0  0  0  0  0  0  0  0999 V2000
    2.0365    2.6222    2.8733 C   0  0  0  0  0  0  0  0  0  0  0  0
    2.1361    2.9343    1.3813 C   0  0  0  0  0  0  0  0  0  0  0  0
    2.9107    1.9307    0.6240 N   0  0  0  0  0  0  0  0  0  0  0  0
    2.1057    0.8511    0.0528 C   0  0  0  0  0  0  0  0  0  0  0  0
    1.5972    1.1591   -1.3728 C   0  0  0  0  0  0  0  0  0  0  0  0
    0.6574    0.0903   -1.8798 C   0  0  0  0  0  0  0  0  0  0  0  0
   -0.7344    0.2490   -1.8230 C   0  0  0  0  0  0  0  0  0  0  0  0
   -1.5624   -0.7844   -2.2724 C   0  0  0  0  0  0  0  0  0  0  0  0
   -1.1030   -1.9389   -2.7598 N   0  0  0  0  0  0  0  0  0  0  0  0
    0.2227   -2.0944   -2.8139 C   0  0  0  0  0  0  0  0  0  0  0  0
    1.1368   -1.1247   -2.3925 C   0  0  0  0  0  0  0  0  0  0  0  0
    4.2453    2.0110    0.4052 C   0  0  0  0  0  0  0  0  0  0  0  0
    5.1215    1.1996   -0.2970 C   0  0  0  0  0  0  0  0  0  0  0  0
    4.9830   -0.0805   -1.0041 C   0  0  0  0  0  0  0  0  0  0  0  0
    5.1436   -0.3262   -2.3507 C   0  0  0  0  0  0  0  0  0  0  0  0
    5.0900   -1.7109   -2.6929 C   0  0  0  0  0  0  0  0  0  0  0  0
    4.9048   -2.5199   -1.5998 C   0  0  0  0  0  0  0  0  0  0  0  0
    4.8138   -1.6010   -0.1390 S   0  0  0  0  0  0  0  0  0  0  0  0
    6.4614    1.8257   -0.2668 C   0  0  0  0  0  0  0  0  0  0  0  0
    7.4880    1.4457   -0.7749 O   0  0  0  0  0  0  0  0  0  0  0  0
    6.3542    3.0269    0.4998 N   0  0  0  0  0  0  0  0  0  0  0  0
    7.4570    3.8794    0.8172 C   0  0  0  0  0  0  0  0  0  0  0  0
    8.5520    3.3244    1.4886 C   0  0  0  0  0  0  0  0  0  0  0  0
    9.6749    4.0940    1.8163 C   0  0  0  0  0  0  0  0  0  0  0  0
   10.8627    3.4712    2.5085 C   0  0  0  0  0  0  0  0  0  0  0  0
    9.6588    5.4496    1.4601 C   0  0  0  0  0  0  0  0  0  0  0  0
    8.5690    6.0017    0.7858 C   0  0  0  0  0  0  0  0  0  0  0  0
    7.4470    5.2368    0.4363 C   0  0  0  0  0  0  0  0  0  0  0  0
    6.2949    5.8559   -0.3115 C   0  0  0  0  0  0  0  0  0  0  0  0
    5.0703    3.1756    0.9776 C   0  0  0  0  0  0  0  0  0  0  0  0
    4.6920    4.0551    1.7222 O   0  0  0  0  0  0  0  0  0  0  0  0
    1.3891    3.3632    3.3690 H   0  0  0  0  0  0  0  0  0  0  0  0
    3.0285    2.6735    3.3444 H   0  0  0  0  0  0  0  0  0  0  0  0
    1.6084    1.6230    3.0546 H   0  0  0  0  0  0  0  0  0  0  0  0
    2.5774    3.9251    1.2397 H   0  0  0  0  0  0  0  0  0  0  0  0
    1.1313    2.9534    0.9306 H   0  0  0  0  0  0  0  0  0  0  0  0
    1.2461    0.6888    0.7209 H   0  0  0  0  0  0  0  0  0  0  0  0
    2.6768   -0.0839    0.0490 H   0  0  0  0  0  0  0  0  0  0  0  0
    2.4665    1.2464   -2.0429 H   0  0  0  0  0  0  0  0  0  0  0  0
    1.0839    2.1343   -1.3708 H   0  0  0  0  0  0  0  0  0  0  0  0
   -1.1759    1.1735   -1.4398 H   0  0  0  0  0  0  0  0  0  0  0  0
   -2.6524   -0.6664   -2.2365 H   0  0  0  0  0  0  0  0  0  0  0  0
    0.5869   -3.0465   -3.2189 H   0  0  0  0  0  0  0  0  0  0  0  0
    2.2103   -1.3159   -2.4689 H   0  0  0  0  0  0  0  0  0  0  0  0
    5.3078    0.4742   -3.0735 H   0  0  0  0  0  0  0  0  0  0  0  0
    5.1875   -2.0907   -3.7113 H   0  0  0  0  0  0  0  0  0  0  0  0
    4.8210   -3.6057   -1.5718 H   0  0  0  0  0  0  0  0  0  0  0  0
    8.5231    2.2656    1.7534 H   0  0  0  0  0  0  0  0  0  0  0  0
   10.5499    2.7472    3.2772 H   0  0  0  0  0  0  0  0  0  0  0  0
   11.4923    4.2324    2.9935 H   0  0  0  0  0  0  0  0  0  0  0  0
   11.4986    2.9250    1.7901 H   0  0  0  0  0  0  0  0  0  0  0  0
   10.5150    6.0836    1.7078 H   0  0  0  0  0  0  0  0  0  0  0  0
    8.5893    7.0602    0.5114 H   0  0  0  0  0  0  0  0  0  0  0  0
    6.5923    6.8111   -0.7678 H   0  0  0  0  0  0  0  0  0  0  0  0
    5.4435    6.0451    0.3620 H   0  0  0  0  0  0  0  0  0  0  0  0
    5.9315    5.1937   -1.1136 H   0  0  0  0  0  0  0  0  0  0  0  0
  1  2  1  0
  1 32  1  0
  1 33  1  0
  1 34  1  0
  2  3  1  0
  2 35  1  0
  2 36  1  0
  3  4  1  0
  3 12  1  0
  4  5  1  0
  4 37  1  0
  4 38  1  0
  5  6  1  0
  5 39  1  0
  5 40  1  0
  6  7  2  0
  6 11  1  0
  7  8  1  0
  7 41  1  0
  8  9  2  0
  8 42  1  0
  9 10  1  0
 10 11  2  0
 10 43  1  0
 11 44  1  0
 12 13  1  0
 12 30  2  0
 13 14  2  0
 13 19  1  0
 14 15  1  0
 14 18  1  0
 15 16  2  0
 15 45  1  0
 16 17  1  0
 16 46  1  0
 17 18  2  0
 17 47  1  0
 19 20  2  0
 19 21  1  0
 21 22  1  0
 21 30  1  0
 22 23  2  0
 22 28  1  0
 23 24  1  0
 23 48  1  0
 24 25  1  0
 24 26  2  0
 25 49  1  0
 25 50  1  0
 25 51  1  0
 26 27  1  0
 26 52  1  0
 27 28  2  0
 27 53  1  0
 28 29  1  0
 29 54  1  0
 29 55  1  0
 29 56  1  0
 30 31  1  0
M  CHG  2  18   1  31  -1
M  END

