
     RDKit          3D

 34 34  0  0  0  0  0  0  0  0999 V2000
    1.5886    0.6903    1.2815 C   0  0  0  0  0  0  0  0  0  0  0  0
    2.9093    0.5577    0.5660 C   0  0  0  0  0  0  0  0  0  0  0  0
    4.0597    0.1500    1.2679 C   0  0  0  0  0  0  0  0  0  0  0  0
    5.2890    0.0213    0.6278 C   0  0  0  0  0  0  0  0  0  0  0  0
    5.3736    0.2959   -0.7417 C   0  0  0  0  0  0  0  0  0  0  0  0
    6.9579    0.2516   -1.5769 S   0  0  1  0  0  0  0  0  0  0  0  0
    6.7173    0.4663   -3.0106 O   0  0  0  0  0  0  0  0  0  0  0  0
    7.8980    1.1244   -0.8648 O   0  0  0  0  0  0  0  0  0  0  0  0
    7.4986   -1.3490   -1.2936 N   0  0  0  0  0  0  0  0  0  0  0  0
    6.6571   -2.3601   -1.9556 C   0  0  0  0  0  0  0  0  0  0  0  0
    6.7227   -3.7400   -1.2983 C   0  0  0  0  0  0  0  0  0  0  0  0
    6.1628   -3.8167    0.4447 S   0  0  0  0  0  0  0  0  0  0  0  0
    8.9485   -1.5184   -1.5172 C   0  0  0  0  0  0  0  0  0  0  0  0
    9.8742   -1.0317   -0.3990 C   0  0  0  0  0  0  0  0  0  0  0  0
    9.5306   -1.6956    1.2791 S   0  0  0  0  0  0  0  0  0  0  0  0
    4.2519    0.7016   -1.4657 C   0  0  0  0  0  0  0  0  0  0  0  0
    3.0271    0.8296   -0.8049 C   0  0  0  0  0  0  0  0  0  0  0  0
    1.2744   -0.2739    1.7147 H   0  0  0  0  0  0  0  0  0  0  0  0
    0.7923    1.0331    0.6053 H   0  0  0  0  0  0  0  0  0  0  0  0
    1.6592    1.4086    2.1151 H   0  0  0  0  0  0  0  0  0  0  0  0
    3.9875   -0.0732    2.3359 H   0  0  0  0  0  0  0  0  0  0  0  0
    6.1709   -0.3066    1.1780 H   0  0  0  0  0  0  0  0  0  0  0  0
    6.9254   -2.4544   -3.0268 H   0  0  0  0  0  0  0  0  0  0  0  0
    5.6155   -2.0106   -1.9182 H   0  0  0  0  0  0  0  0  0  0  0  0
    7.7288   -4.1807   -1.3707 H   0  0  0  0  0  0  0  0  0  0  0  0
    6.0508   -4.4135   -1.8525 H   0  0  0  0  0  0  0  0  0  0  0  0
    7.2464   -3.1814    0.9590 H   0  0  0  0  0  0  0  0  0  0  0  0
    9.2624   -1.0358   -2.4643 H   0  0  0  0  0  0  0  0  0  0  0  0
    9.1057   -2.5976   -1.6549 H   0  0  0  0  0  0  0  0  0  0  0  0
    9.8763    0.0617   -0.3395 H   0  0  0  0  0  0  0  0  0  0  0  0
   10.8977   -1.3603   -0.6380 H   0  0  0  0  0  0  0  0  0  0  0  0
    8.6009   -0.7740    1.6147 H   0  0  0  0  0  0  0  0  0  0  0  0
    4.3482    0.9132   -2.5319 H   0  0  0  0  0  0  0  0  0  0  0  0
    2.1465    1.1481   -1.3691 H   0  0  0  0  0  0  0  0  0  0  0  0
  1  2  1  0
  1 18  1  0
  1 19  1  0
  1 20  1  0
  2  3  2  0
  2 17  1  0
  3  4  1  0
  3 21  1  0
  4  5  2  0
  4 22  1  0
  5  6  1  0
  5 16  1  0
  6  7  2  0
  6  8  2  0
  6  9  1  6
  9 10  1  0
  9 13  1  0
 10 11  1  0
 10 23  1  0
 10 24  1  0
 11 12  1  0
 11 25  1  0
 11 26  1  0
 12 27  1  0
 13 14  1  0
 13 28  1  0
 13 29  1  0
 14 15  1  0
 14 30  1  0
 14 31  1  0
 15 32  1  0
 16 17  2  0
 16 33  1  0
 17 34  1  0
M  END

