
     RDKit          3D

 42 43  0  0  0  0  0  0  0  0999 V2000
    5.4087   -0.2875    4.0375 C   0  0  0  0  0  0  0  0  0  0  0  0
    4.8034   -1.0965    2.9119 C   0  0  0  0  0  0  0  0  0  0  0  0
    4.1556   -2.1025    3.0601 O   0  0  0  0  0  0  0  0  0  0  0  0
    5.0863   -0.5266    1.7220 O   0  0  0  0  0  0  0  0  0  0  0  0
    4.5509   -1.0608    0.4620 C   0  0  2  0  0  0  0  0  0  0  0  0
    3.0179   -0.9196    0.5291 C   0  0  0  0  0  0  0  0  0  0  0  0
    2.1374   -2.0094    0.4689 C   0  0  0  0  0  0  0  0  0  0  0  0
    0.7535   -1.8272    0.5543 C   0  0  0  0  0  0  0  0  0  0  0  0
    0.2175   -0.5491    0.7200 C   0  0  0  0  0  0  0  0  0  0  0  0
    1.0814    0.5461    0.8095 C   0  0  0  0  0  0  0  0  0  0  0  0
    2.4618    0.3595    0.7153 C   0  0  0  0  0  0  0  0  0  0  0  0
    5.0670   -2.4979    0.2424 C   0  0  0  0  0  0  0  0  0  0  0  0
    4.8713   -2.9964   -1.2057 C   0  0  0  0  0  0  0  0  0  0  0  0
    5.4052   -2.1058   -2.2208 N   0  0  0  0  0  0  0  0  0  0  0  0
    6.8016   -2.3116   -2.5512 C   0  0  0  0  0  0  0  0  0  0  0  0
    4.8774   -0.7507   -2.0462 C   0  0  2  0  0  0  0  0  0  0  0  0
    3.7789   -0.8719   -2.0910 H   0  0  0  0  0  0  0  0  0  0  0  0
    5.2352    0.1835   -3.2026 C   0  0  0  0  0  0  0  0  0  0  0  0
    5.1596   -0.1289   -0.6410 C   0  0  2  0  0  0  0  0  0  0  0  0
    4.5989    0.8188   -0.6117 H   0  0  0  0  0  0  0  0  0  0  0  0
    6.6326    0.2248   -0.3808 C   0  0  0  0  0  0  0  0  0  0  0  0
    5.2574   -0.8129    4.9881 H   0  0  0  0  0  0  0  0  0  0  0  0
    4.9276    0.7024    4.0803 H   0  0  0  0  0  0  0  0  0  0  0  0
    6.4816   -0.1219    3.8584 H   0  0  0  0  0  0  0  0  0  0  0  0
    2.5223   -3.0238    0.3733 H   0  0  0  0  0  0  0  0  0  0  0  0
    0.0930   -2.6965    0.5016 H   0  0  0  0  0  0  0  0  0  0  0  0
   -0.8641   -0.4076    0.7891 H   0  0  0  0  0  0  0  0  0  0  0  0
    0.6801    1.5523    0.9563 H   0  0  0  0  0  0  0  0  0  0  0  0
    3.1191    1.2267    0.8082 H   0  0  0  0  0  0  0  0  0  0  0  0
    4.5965   -3.1851    0.9566 H   0  0  0  0  0  0  0  0  0  0  0  0
    6.1424   -2.4957    0.4816 H   0  0  0  0  0  0  0  0  0  0  0  0
    3.7947   -3.1402   -1.4028 H   0  0  0  0  0  0  0  0  0  0  0  0
    5.3403   -3.9878   -1.3114 H   0  0  0  0  0  0  0  0  0  0  0  0
    6.9356   -3.3401   -2.9279 H   0  0  0  0  0  0  0  0  0  0  0  0
    7.5227   -2.1759   -1.7164 H   0  0  0  0  0  0  0  0  0  0  0  0
    7.1100   -1.6340   -3.3601 H   0  0  0  0  0  0  0  0  0  0  0  0
    4.9584   -0.2843   -4.1598 H   0  0  0  0  0  0  0  0  0  0  0  0
    6.3059    0.4334   -3.2463 H   0  0  0  0  0  0  0  0  0  0  0  0
    4.6804    1.1301   -3.1098 H   0  0  0  0  0  0  0  0  0  0  0  0
    7.0504    0.7944   -1.2243 H   0  0  0  0  0  0  0  0  0  0  0  0
    7.2677   -0.6602   -0.2341 H   0  0  0  0  0  0  0  0  0  0  0  0
    6.7260    0.8463    0.5195 H   0  0  0  0  0  0  0  0  0  0  0  0
  1  2  1  0
  1 22  1  0
  1 23  1  0
  1 24  1  0
  2  3  2  0
  2  4  1  0
  5  4  1  1
  5  6  1  0
  5 12  1  0
  5 19  1  0
  6  7  2  0
  6 11  1  0
  7  8  1  0
  7 25  1  0
  8  9  2  0
  8 26  1  0
  9 10  1  0
  9 27  1  0
 10 11  2  0
 10 28  1  0
 11 29  1  0
 12 13  1  0
 12 30  1  0
 12 31  1  0
 13 14  1  0
 13 32  1  0
 13 33  1  0
 14 15  1  0
 14 16  1  0
 15 34  1  0
 15 35  1  0
 15 36  1  0
 16 17  1  1
 16 18  1  0
 16 19  1  0
 18 37  1  0
 18 38  1  0
 18 39  1  0
 19 20  1  6
 19 21  1  0
 21 40  1  0
 21 41  1  0
 21 42  1  0
M  END

