
     RDKit          3D

 58 62  0  0  0  0  0  0  0  0999 V2000
    2.3395   -1.3057   -0.5237 C   0  0  0  0  0  0  0  0  0  0  0  0
    3.6039   -0.8181   -0.1406 O   0  0  0  0  0  0  0  0  0  0  0  0
    3.6957    0.0349    0.9114 C   0  0  0  0  0  0  0  0  0  0  0  0
    2.6063    0.4953    1.6496 C   0  0  0  0  0  0  0  0  0  0  0  0
    2.8141    1.3753    2.7317 C   0  0  0  0  0  0  0  0  0  0  0  0
    1.7191    1.8600    3.3875 O   0  0  0  0  0  0  0  0  0  0  0  0
    4.0936    1.7933    3.1259 C   0  0  0  0  0  0  0  0  0  0  0  0
    4.4502    2.6958    4.3104 C   0  0  1  0  0  0  0  0  0  0  0  0
    3.2895    3.4444    5.0071 C   0  0  0  0  0  0  0  0  0  0  0  0
    2.3417    2.6272    5.8813 C   0  0  0  0  0  0  0  0  0  0  0  0
    2.5540    1.4721    6.2051 O   0  0  0  0  0  0  0  0  0  0  0  0
    1.2212    3.3104    6.3243 N   0  0  0  0  0  0  0  0  0  0  0  0
    0.8511    4.6783    5.9060 C   0  0  0  0  0  0  0  0  0  0  0  0
   -0.3644    5.0532    6.7820 C   0  0  0  0  0  0  0  0  0  0  0  0
   -0.8074    3.7253    7.3494 C   0  0  0  0  0  0  0  0  0  0  0  0
   -1.9506    3.4036    8.0733 C   0  0  0  0  0  0  0  0  0  0  0  0
   -2.1163    2.0939    8.5464 C   0  0  0  0  0  0  0  0  0  0  0  0
   -1.1320    1.1332    8.2942 C   0  0  0  0  0  0  0  0  0  0  0  0
    0.0259    1.4410    7.5673 C   0  0  0  0  0  0  0  0  0  0  0  0
    0.1731    2.7500    7.0905 C   0  0  0  0  0  0  0  0  0  0  0  0
    5.4022    2.0387    5.3243 C   0  0  0  0  0  0  0  0  0  0  0  0
    6.3625    2.8381    5.9583 C   0  0  0  0  0  0  0  0  0  0  0  0
    7.2644    2.3258    6.9129 C   0  0  0  0  0  0  0  0  0  0  0  0
    7.1731    0.9752    7.1917 C   0  0  0  0  0  0  0  0  0  0  0  0
    6.2264    0.1672    6.5589 C   0  0  0  0  0  0  0  0  0  0  0  0
    5.3306    0.6627    5.6320 C   0  0  0  0  0  0  0  0  0  0  0  0
    6.3370   -1.1141    7.0400 O   0  0  0  0  0  0  0  0  0  0  0  0
    7.4973   -1.1284    7.8603 C   0  0  0  0  0  0  0  0  0  0  0  0
    7.8978    0.2207    8.0783 O   0  0  0  0  0  0  0  0  0  0  0  0
    5.1694    1.3486    2.3047 C   0  0  0  0  0  0  0  0  0  0  0  0
    6.3867    1.8423    2.6415 O   0  0  0  0  0  0  0  0  0  0  0  0
    7.5414    1.3983    1.9677 C   0  0  0  0  0  0  0  0  0  0  0  0
    4.9889    0.4750    1.2319 C   0  0  0  0  0  0  0  0  0  0  0  0
    2.5069   -1.9801   -1.3744 H   0  0  0  0  0  0  0  0  0  0  0  0
    1.6628   -0.4919   -0.8428 H   0  0  0  0  0  0  0  0  0  0  0  0
    1.8526   -1.8725    0.2906 H   0  0  0  0  0  0  0  0  0  0  0  0
    1.5837    0.2112    1.3979 H   0  0  0  0  0  0  0  0  0  0  0  0
    0.9531    1.3080    3.1868 H   0  0  0  0  0  0  0  0  0  0  0  0
    5.0493    3.5079    3.8653 H   0  0  0  0  0  0  0  0  0  0  0  0
    2.7084    3.9912    4.2510 H   0  0  0  0  0  0  0  0  0  0  0  0
    3.7440    4.2132    5.6575 H   0  0  0  0  0  0  0  0  0  0  0  0
    0.5854    4.6805    4.8339 H   0  0  0  0  0  0  0  0  0  0  0  0
    1.6912    5.3733    6.0409 H   0  0  0  0  0  0  0  0  0  0  0  0
   -1.1487    5.5599    6.1987 H   0  0  0  0  0  0  0  0  0  0  0  0
   -0.0726    5.7433    7.5933 H   0  0  0  0  0  0  0  0  0  0  0  0
   -2.7100    4.1650    8.2731 H   0  0  0  0  0  0  0  0  0  0  0  0
   -3.0108    1.8268    9.1144 H   0  0  0  0  0  0  0  0  0  0  0  0
   -1.2625    0.1148    8.6702 H   0  0  0  0  0  0  0  0  0  0  0  0
    0.7966    0.7001    7.3721 H   0  0  0  0  0  0  0  0  0  0  0  0
    6.4286    3.8984    5.6971 H   0  0  0  0  0  0  0  0  0  0  0  0
    8.0055    2.9592    7.4030 H   0  0  0  0  0  0  0  0  0  0  0  0
    4.5809    0.0198    5.1744 H   0  0  0  0  0  0  0  0  0  0  0  0
    8.3125   -1.6802    7.3479 H   0  0  0  0  0  0  0  0  0  0  0  0
    7.2660   -1.6081    8.8262 H   0  0  0  0  0  0  0  0  0  0  0  0
    8.3921    1.9028    2.4450 H   0  0  0  0  0  0  0  0  0  0  0  0
    7.5203    1.6641    0.8955 H   0  0  0  0  0  0  0  0  0  0  0  0
    7.6733    0.3060    2.0611 H   0  0  0  0  0  0  0  0  0  0  0  0
    5.8160    0.1225    0.6195 H   0  0  0  0  0  0  0  0  0  0  0  0
  1  2  1  0
  1 34  1  0
  1 35  1  0
  1 36  1  0
  2  3  1  0
  3  4  2  0
  3 33  1  0
  4  5  1  0
  4 37  1  0
  5  6  1  0
  5  7  2  0
  6 38  1  0
  7  8  1  0
  7 30  1  0
  8  9  1  0
  8 21  1  0
  8 39  1  6
  9 10  1  0
  9 40  1  0
  9 41  1  0
 10 11  2  0
 10 12  1  0
 12 13  1  0
 12 20  1  0
 13 14  1  0
 13 42  1  0
 13 43  1  0
 14 15  1  0
 14 44  1  0
 14 45  1  0
 15 16  1  0
 15 20  2  0
 16 17  2  0
 16 46  1  0
 17 18  1  0
 17 47  1  0
 18 19  2  0
 18 48  1  0
 19 20  1  0
 19 49  1  0
 21 22  2  0
 21 26  1  0
 22 23  1  0
 22 50  1  0
 23 24  2  0
 23 51  1  0
 24 25  1  0
 24 29  1  0
 25 26  2  0
 25 27  1  0
 26 52  1  0
 27 28  1  0
 28 29  1  0
 28 53  1  0
 28 54  1  0
 30 31  1  0
 30 33  2  0
 31 32  1  0
 32 55  1  0
 32 56  1  0
 32 57  1  0
 33 58  1  0
M  END

