
     RDKit          3D

 32 31  0  0  0  0  0  0  0  0999 V2000
    1.0127    0.2873   -0.1234 C   0  0  0  0  0  0  0  0  0  0  0  0
    2.5166    0.0437    0.0179 C   0  0  1  0  0  0  0  0  0  0  0  0
    2.8825   -0.2397   -0.9854 H   0  0  0  0  0  0  0  0  0  0  0  0
    3.3154    1.2977    0.4279 C   0  0  0  0  0  0  0  0  0  0  0  0
    4.6705    0.7484    0.8792 C   0  0  0  0  0  0  0  0  0  0  0  0
    4.2871   -0.4948    1.6952 C   0  0  0  0  0  0  0  0  0  0  0  0
    3.0541   -1.1066    0.9667 C   0  0  1  0  0  0  0  0  0  0  0  0
    3.4180   -1.8937    0.2833 H   0  0  0  0  0  0  0  0  0  0  0  0
    2.1009   -1.8847    1.9081 C   0  0  0  0  0  0  0  0  0  0  0  0
    0.9255   -2.3191    1.2306 O   0  0  0  0  0  0  0  0  0  0  0  0
    2.8000   -3.1963    2.4152 C   0  0  0  0  0  0  0  0  0  0  0  0
    2.7207   -4.1924    1.3444 N   0  0  0  0  0  0  0  0  0  0  0  0
    1.4335   -0.9856    3.4527 P   0  0  0  0  0  0  0  0  0  0  0  0
    0.1082   -1.8951    3.6717 O   0  0  0  0  0  0  0  0  0  0  0  0
    2.4468   -1.5270    4.6248 O   0  0  0  0  0  0  0  0  0  0  0  0
    1.1999    0.9419    3.5733 S   0  0  0  0  0  0  0  0  0  0  0  0
    0.8491    1.1277   -0.8189 H   0  0  0  0  0  0  0  0  0  0  0  0
    0.5484    0.5583    0.8353 H   0  0  0  0  0  0  0  0  0  0  0  0
    0.4884   -0.5923   -0.5195 H   0  0  0  0  0  0  0  0  0  0  0  0
    2.8140    1.7961    1.2733 H   0  0  0  0  0  0  0  0  0  0  0  0
    3.3900    2.0258   -0.3961 H   0  0  0  0  0  0  0  0  0  0  0  0
    5.2684    1.4680    1.4604 H   0  0  0  0  0  0  0  0  0  0  0  0
    5.2744    0.4568    0.0010 H   0  0  0  0  0  0  0  0  0  0  0  0
    4.0066   -0.1821    2.7133 H   0  0  0  0  0  0  0  0  0  0  0  0
    5.1181   -1.2106    1.7989 H   0  0  0  0  0  0  0  0  0  0  0  0
    1.1930   -3.2103    0.8927 H   0  0  0  0  0  0  0  0  0  0  0  0
    2.2396   -3.5884    3.2744 H   0  0  0  0  0  0  0  0  0  0  0  0
    3.8199   -2.9792    2.7673 H   0  0  0  0  0  0  0  0  0  0  0  0
    2.6847   -5.1400    1.7135 H   0  0  0  0  0  0  0  0  0  0  0  0
    3.5124   -4.1429    0.7048 H   0  0  0  0  0  0  0  0  0  0  0  0
   -0.1105   -2.2525    2.7808 H   0  0  0  0  0  0  0  0  0  0  0  0
    2.6093   -0.7996    5.2457 H   0  0  0  0  0  0  0  0  0  0  0  0
  1  2  1  0
  1 17  1  0
  1 18  1  0
  1 19  1  0
  2  3  1  6
  2  4  1  0
  2  7  1  0
  4  5  1  0
  4 20  1  0
  4 21  1  0
  5  6  1  0
  5 22  1  0
  5 23  1  0
  6  7  1  0
  6 24  1  0
  6 25  1  0
  7  8  1  6
  7  9  1  0
  9 10  1  0
  9 11  1  0
 10 26  1  0
 11 12  1  0
 11 27  1  0
 11 28  1  0
 12 29  1  0
 12 30  1  0
 13 14  1  0
 13 15  2  0
 13 16  2  0
 14 31  1  0
 15 32  1  0
M  CHG  2   9  -1  15   1
M  END

