
     RDKit          3D

 39 41  0  0  0  0  0  0  0  0999 V2000
    0.9853    0.0823    0.3236 N   0  0  0  0  0  0  0  0  0  0  0  0
    2.4189    0.0446    0.0514 C   0  0  1  0  0  0  0  0  0  0  0  0
    2.9973   -1.3357   -0.3323 C   0  0  0  0  0  0  0  0  0  0  0  0
    2.4991   -1.7929   -1.7156 C   0  0  2  0  0  0  0  0  0  0  0  0
    3.0703   -3.1303   -2.1541 C   0  0  0  0  0  0  0  0  0  0  0  0
    4.4552   -3.3330   -2.2943 C   0  0  0  0  0  0  0  0  0  0  0  0
    4.9591   -4.5680   -2.7107 C   0  0  0  0  0  0  0  0  0  0  0  0
    4.0983   -5.6316   -2.9954 C   0  0  0  0  0  0  0  0  0  0  0  0
    2.7293   -5.4232   -2.8538 C   0  0  0  0  0  0  0  0  0  0  0  0
    1.8830   -6.4297   -3.1201 F   0  0  0  0  0  0  0  0  0  0  0  0
    2.2076   -4.1983   -2.4430 C   0  0  0  0  0  0  0  0  0  0  0  0
    2.7470   -0.6926   -2.7740 C   0  0  0  0  0  0  0  0  0  0  0  0
    2.1872    0.5797   -2.3443 N   0  0  0  0  0  0  0  0  0  0  0  0
    1.8090    1.5334   -3.3055 C   0  0  0  0  0  0  0  0  0  0  0  0
    0.9958    2.6285   -2.9341 C   0  0  0  0  0  0  0  0  0  0  0  0
    0.5853    3.5777   -3.8661 C   0  0  0  0  0  0  0  0  0  0  0  0
    0.9675    3.4502   -5.2058 C   0  0  0  0  0  0  0  0  0  0  0  0
    0.3952    4.7444   -6.4879 Br  0  0  0  0  0  0  0  0  0  0  0  0
    1.7621    2.3761   -5.6029 C   0  0  0  0  0  0  0  0  0  0  0  0
    2.1853    1.4338   -4.6608 C   0  0  0  0  0  0  0  0  0  0  0  0
    2.7348    1.0415   -1.0668 C   0  0  0  0  0  0  0  0  0  0  0  0
    0.7166   -0.6380    0.9935 H   0  0  0  0  0  0  0  0  0  0  0  0
    0.4599   -0.0902   -0.5338 H   0  0  0  0  0  0  0  0  0  0  0  0
    2.9409    0.3924    0.9605 H   0  0  0  0  0  0  0  0  0  0  0  0
    2.7322   -2.0872    0.4308 H   0  0  0  0  0  0  0  0  0  0  0  0
    4.0997   -1.2697   -0.3356 H   0  0  0  0  0  0  0  0  0  0  0  0
    1.4052   -1.9122   -1.6452 H   0  0  0  0  0  0  0  0  0  0  0  0
    5.1521   -2.5210   -2.0744 H   0  0  0  0  0  0  0  0  0  0  0  0
    6.0382   -4.7074   -2.8141 H   0  0  0  0  0  0  0  0  0  0  0  0
    4.4662   -6.6067   -3.3199 H   0  0  0  0  0  0  0  0  0  0  0  0
    1.1242   -4.0920   -2.3513 H   0  0  0  0  0  0  0  0  0  0  0  0
    2.2683   -0.9990   -3.7143 H   0  0  0  0  0  0  0  0  0  0  0  0
    3.8381   -0.6112   -2.9758 H   0  0  0  0  0  0  0  0  0  0  0  0
    0.6529    2.7205   -1.9018 H   0  0  0  0  0  0  0  0  0  0  0  0
   -0.0492    4.4090   -3.5532 H   0  0  0  0  0  0  0  0  0  0  0  0
    2.0689    2.2759   -6.6457 H   0  0  0  0  0  0  0  0  0  0  0  0
    2.8300    0.6220   -4.9983 H   0  0  0  0  0  0  0  0  0  0  0  0
    2.3083    2.0175   -0.8108 H   0  0  0  0  0  0  0  0  0  0  0  0
    3.8359    1.1690   -1.1480 H   0  0  0  0  0  0  0  0  0  0  0  0
  1  2  1  0
  1 22  1  0
  1 23  1  0
  2  3  1  0
  2 21  1  0
  2 24  1  1
  3  4  1  0
  3 25  1  0
  3 26  1  0
  4  5  1  0
  4 12  1  0
  4 27  1  1
  5  6  2  0
  5 11  1  0
  6  7  1  0
  6 28  1  0
  7  8  2  0
  7 29  1  0
  8  9  1  0
  8 30  1  0
  9 10  1  0
  9 11  2  0
 11 31  1  0
 12 13  1  0
 12 32  1  0
 12 33  1  0
 13 14  1  0
 13 21  1  0
 14 15  2  0
 14 20  1  0
 15 16  1  0
 15 34  1  0
 16 17  2  0
 16 35  1  0
 17 18  1  0
 17 19  1  0
 19 20  2  0
 19 36  1  0
 20 37  1  0
 21 38  1  0
 21 39  1  0
M  END

