
     RDKit          3D

 50 53  0  0  0  0  0  0  0  0999 V2000
    1.8618    0.0744    1.1912 C   0  0  0  0  0  0  0  0  0  0  0  0
    0.9340   -0.9111    1.8558 C   0  0  0  0  0  0  0  0  0  0  0  0
   -0.1109   -0.4805    2.6857 C   0  0  0  0  0  0  0  0  0  0  0  0
   -0.9979   -1.3854    3.2753 C   0  0  0  0  0  0  0  0  0  0  0  0
   -0.8470   -2.7559    3.0533 C   0  0  0  0  0  0  0  0  0  0  0  0
    0.2006   -3.2098    2.2500 C   0  0  0  0  0  0  0  0  0  0  0  0
    1.0818   -2.3011    1.6498 C   0  0  0  0  0  0  0  0  0  0  0  0
    2.1436   -2.8191    0.8422 N   0  0  0  0  0  0  0  0  0  0  0  0
    1.9304   -3.0391   -0.8335 S   0  0  1  0  0  0  0  0  0  0  0  0
    0.9057   -2.1232   -1.3474 O   0  0  0  0  0  0  0  0  0  0  0  0
    3.2937   -3.0430   -1.3683 O   0  0  0  0  0  0  0  0  0  0  0  0
    1.2601   -4.6989   -0.9589 C   0  0  0  0  0  0  0  0  0  0  0  0
    2.1129   -5.7940   -0.7958 C   0  0  0  0  0  0  0  0  0  0  0  0
    1.5748   -7.0791   -0.8919 C   0  0  0  0  0  0  0  0  0  0  0  0
    0.2146   -7.2554   -1.1558 C   0  0  0  0  0  0  0  0  0  0  0  0
   -0.6306   -6.1516   -1.3505 C   0  0  0  0  0  0  0  0  0  0  0  0
   -2.0883   -6.4429   -1.6282 C   0  0  0  0  0  0  0  0  0  0  0  0
   -2.5664   -7.5323   -1.3528 O   0  0  0  0  0  0  0  0  0  0  0  0
   -2.7878   -5.4156   -2.2078 N   0  0  0  0  0  0  0  0  0  0  0  0
   -4.1532   -5.3620   -2.5631 C   0  0  0  0  0  0  0  0  0  0  0  0
   -5.0568   -6.4169   -2.3386 C   0  0  0  0  0  0  0  0  0  0  0  0
   -6.3929   -6.2637   -2.7095 C   0  0  0  0  0  0  0  0  0  0  0  0
   -6.8551   -5.0900   -3.3077 C   0  0  0  0  0  0  0  0  0  0  0  0
   -5.9440   -4.0426   -3.5512 C   0  0  0  0  0  0  0  0  0  0  0  0
   -4.6085   -4.1822   -3.1734 C   0  0  0  0  0  0  0  0  0  0  0  0
   -6.3341   -2.8779   -4.1496 O   0  0  0  0  0  0  0  0  0  0  0  0
   -7.5986   -2.9420   -4.7930 C   0  0  0  0  0  0  0  0  0  0  0  0
   -8.6057   -3.6571   -3.9075 C   0  0  0  0  0  0  0  0  0  0  0  0
   -8.1769   -4.9835   -3.6469 O   0  0  0  0  0  0  0  0  0  0  0  0
   -0.0969   -4.8587   -1.2400 C   0  0  0  0  0  0  0  0  0  0  0  0
    1.5688    1.1086    1.4210 H   0  0  0  0  0  0  0  0  0  0  0  0
    1.8462   -0.0530    0.0972 H   0  0  0  0  0  0  0  0  0  0  0  0
    2.9078   -0.0507    1.5235 H   0  0  0  0  0  0  0  0  0  0  0  0
   -0.2376    0.5914    2.8610 H   0  0  0  0  0  0  0  0  0  0  0  0
   -1.8078   -1.0168    3.9100 H   0  0  0  0  0  0  0  0  0  0  0  0
   -1.5322   -3.4715    3.5140 H   0  0  0  0  0  0  0  0  0  0  0  0
    0.3567   -4.2777    2.0849 H   0  0  0  0  0  0  0  0  0  0  0  0
    3.0538   -2.3726    0.9549 H   0  0  0  0  0  0  0  0  0  0  0  0
    3.1750   -5.6343   -0.6019 H   0  0  0  0  0  0  0  0  0  0  0  0
    2.2223   -7.9495   -0.7627 H   0  0  0  0  0  0  0  0  0  0  0  0
   -0.2249   -8.2525   -1.2196 H   0  0  0  0  0  0  0  0  0  0  0  0
   -2.2530   -4.5969   -2.4694 H   0  0  0  0  0  0  0  0  0  0  0  0
   -4.7065   -7.3357   -1.8766 H   0  0  0  0  0  0  0  0  0  0  0  0
   -7.1126   -7.0661   -2.5334 H   0  0  0  0  0  0  0  0  0  0  0  0
   -3.9335   -3.3463   -3.3745 H   0  0  0  0  0  0  0  0  0  0  0  0
   -7.5047   -3.4742   -5.7583 H   0  0  0  0  0  0  0  0  0  0  0  0
   -7.9091   -1.9058   -4.9920 H   0  0  0  0  0  0  0  0  0  0  0  0
   -9.5866   -3.7266   -4.4004 H   0  0  0  0  0  0  0  0  0  0  0  0
   -8.7270   -3.1030   -2.9571 H   0  0  0  0  0  0  0  0  0  0  0  0
   -0.7065   -3.9596   -1.3464 H   0  0  0  0  0  0  0  0  0  0  0  0
  1  2  1  0
  1 31  1  0
  1 32  1  0
  1 33  1  0
  2  3  2  0
  2  7  1  0
  3  4  1  0
  3 34  1  0
  4  5  2  0
  4 35  1  0
  5  6  1  0
  5 36  1  0
  6  7  2  0
  6 37  1  0
  7  8  1  0
  9  8  1  1
  8 38  1  0
  9 10  2  0
  9 11  2  0
  9 12  1  0
 12 13  2  0
 12 30  1  0
 13 14  1  0
 13 39  1  0
 14 15  2  0
 14 40  1  0
 15 16  1  0
 15 41  1  0
 16 17  1  0
 16 30  2  0
 17 18  2  0
 17 19  1  0
 19 20  1  0
 19 42  1  0
 20 21  2  0
 20 25  1  0
 21 22  1  0
 21 43  1  0
 22 23  2  0
 22 44  1  0
 23 24  1  0
 23 29  1  0
 24 25  2  0
 24 26  1  0
 25 45  1  0
 26 27  1  0
 27 28  1  0
 27 46  1  0
 27 47  1  0
 28 29  1  0
 28 48  1  0
 28 49  1  0
 30 50  1  0
M  END

