
     RDKit          3D

 50 53  0  0  0  0  0  0  0  0999 V2000
    1.2573   -0.9789   -0.2809 N   0  0  0  0  0  0  0  0  0  0  0  0
    2.3964   -0.7492   -0.2220 C   0  0  0  0  0  0  0  0  0  0  0  0
    3.7933   -0.5178   -0.1277 C   0  0  0  0  0  0  0  0  0  0  0  0
    4.4755    0.7017   -0.2423 C   0  0  0  0  0  0  0  0  0  0  0  0
    3.8836    2.0321   -0.4786 C   0  0  0  0  0  0  0  0  0  0  0  0
    2.5855    2.3342   -0.0118 C   0  0  0  0  0  0  0  0  0  0  0  0
    2.0405    3.5828   -0.2863 C   0  0  0  0  0  0  0  0  0  0  0  0
    2.8077    4.4954   -1.0140 C   0  0  0  0  0  0  0  0  0  0  0  0
    2.2438    6.1699   -1.3199 S   0  0  1  0  0  0  0  0  0  0  0  0
    2.2767    6.9089   -0.0590 O   0  0  0  0  0  0  0  0  0  0  0  0
    2.9637    6.6467   -2.5073 O   0  0  0  0  0  0  0  0  0  0  0  0
    0.6108    5.9660   -1.6708 N   0  0  0  0  0  0  0  0  0  0  0  0
    0.1514    5.8740   -3.0600 C   0  0  1  0  0  0  0  0  0  0  0  0
    0.6403    4.6045   -3.7471 C   0  0  0  0  0  0  0  0  0  0  0  0
    0.1908    3.4826   -3.0788 F   0  0  0  0  0  0  0  0  0  0  0  0
   -1.3724    5.9250   -3.0305 C   0  0  0  0  0  0  0  0  0  0  0  0
   -1.7810    7.0555   -2.3445 F   0  0  0  0  0  0  0  0  0  0  0  0
    4.0888    4.1246   -1.4353 C   0  0  0  0  0  0  0  0  0  0  0  0
    4.6071    2.9280   -1.1737 N   0  0  0  0  0  0  0  0  0  0  0  0
    5.8365    0.4573   -0.1415 N   0  0  0  0  0  0  0  0  0  0  0  0
    6.9147    1.4538   -0.0751 C   0  0  0  0  0  0  0  0  0  0  0  0
    7.0096    2.1609    1.2614 C   0  0  1  0  0  0  0  0  0  0  0  0
    7.7082    1.5270    2.4383 C   0  0  0  0  0  0  0  0  0  0  0  0
    8.3407    2.6958    1.7267 C   0  0  0  0  0  0  0  0  0  0  0  0
    6.0392   -0.8984    0.0460 C   0  0  0  0  0  0  0  0  0  0  0  0
    7.2347   -1.6210    0.2032 C   0  0  0  0  0  0  0  0  0  0  0  0
    7.1148   -2.9939    0.3519 C   0  0  0  0  0  0  0  0  0  0  0  0
    8.2319   -3.7218    0.5013 F   0  0  0  0  0  0  0  0  0  0  0  0
    5.8782   -3.6683    0.3540 C   0  0  0  0  0  0  0  0  0  0  0  0
    4.7030   -2.9466    0.2013 C   0  0  0  0  0  0  0  0  0  0  0  0
    4.7782   -1.5497    0.0494 C   0  0  0  0  0  0  0  0  0  0  0  0
    2.0120    1.6046    0.5583 H   0  0  0  0  0  0  0  0  0  0  0  0
    1.0346    3.8433    0.0467 H   0  0  0  0  0  0  0  0  0  0  0  0
    0.0853    6.6489   -1.1223 H   0  0  0  0  0  0  0  0  0  0  0  0
    0.5252    6.7265   -3.6589 H   0  0  0  0  0  0  0  0  0  0  0  0
    1.7405    4.5848   -3.7797 H   0  0  0  0  0  0  0  0  0  0  0  0
    0.2626    4.5764   -4.7842 H   0  0  0  0  0  0  0  0  0  0  0  0
   -1.7734    5.0365   -2.5179 H   0  0  0  0  0  0  0  0  0  0  0  0
   -1.7707    5.9696   -4.0578 H   0  0  0  0  0  0  0  0  0  0  0  0
    4.7011    4.8255   -2.0114 H   0  0  0  0  0  0  0  0  0  0  0  0
    6.7440    2.1807   -0.8769 H   0  0  0  0  0  0  0  0  0  0  0  0
    7.8524    0.9241   -0.2922 H   0  0  0  0  0  0  0  0  0  0  0  0
    6.1386    2.7828    1.4944 H   0  0  0  0  0  0  0  0  0  0  0  0
    8.1569    0.5386    2.3031 H   0  0  0  0  0  0  0  0  0  0  0  0
    7.2863    1.6881    3.4341 H   0  0  0  0  0  0  0  0  0  0  0  0
    9.2186    2.5022    1.1020 H   0  0  0  0  0  0  0  0  0  0  0  0
    8.3592    3.6682    2.2259 H   0  0  0  0  0  0  0  0  0  0  0  0
    8.2239   -1.1645    0.2089 H   0  0  0  0  0  0  0  0  0  0  0  0
    5.8745   -4.7526    0.4772 H   0  0  0  0  0  0  0  0  0  0  0  0
    3.7343   -3.4512    0.1998 H   0  0  0  0  0  0  0  0  0  0  0  0
  1  2  3  0
  2  3  1  0
  3  4  2  0
  3 31  1  0
  4  5  1  0
  4 20  1  0
  5  6  2  0
  5 19  1  0
  6  7  1  0
  6 32  1  0
  7  8  2  0
  7 33  1  0
  8  9  1  0
  8 18  1  0
  9 10  2  0
  9 11  2  0
  9 12  1  6
 12 13  1  0
 12 34  1  0
 13 14  1  0
 13 16  1  0
 13 35  1  6
 14 15  1  0
 14 36  1  0
 14 37  1  0
 16 17  1  0
 16 38  1  0
 16 39  1  0
 18 19  2  0
 18 40  1  0
 20 21  1  0
 20 25  1  0
 21 22  1  0
 21 41  1  0
 21 42  1  0
 22 23  1  0
 22 24  1  0
 22 43  1  1
 23 24  1  0
 23 44  1  0
 23 45  1  0
 24 46  1  0
 24 47  1  0
 25 26  1  0
 25 31  2  0
 26 27  2  0
 26 48  1  0
 27 28  1  0
 27 29  1  0
 29 30  2  0
 29 49  1  0
 30 31  1  0
 30 50  1  0
M  END

