
     RDKit          3D

 60 63  0  0  0  0  0  0  0  0999 V2000
    2.7659   -0.7751   -4.7122 C   0  0  0  0  0  0  0  0  0  0  0  0
    4.0225   -0.9045   -3.8853 C   0  0  0  0  0  0  0  0  0  0  0  0
    4.3889    0.0737   -2.9562 C   0  0  0  0  0  0  0  0  0  0  0  0
    5.5518   -0.0271   -2.1770 C   0  0  0  0  0  0  0  0  0  0  0  0
    5.9158    1.0751   -1.2172 C   0  0  0  0  0  0  0  0  0  0  0  0
    6.3614   -1.1699   -2.3331 C   0  0  0  0  0  0  0  0  0  0  0  0
    7.5612   -1.3234   -1.5763 N   0  0  0  0  0  0  0  0  0  0  0  0
    7.6261   -1.4280   -0.2143 C   0  0  0  0  0  0  0  0  0  0  0  0
    6.6735   -1.3180    0.5357 O   0  0  0  0  0  0  0  0  0  0  0  0
    9.0550   -1.6909    0.3284 C   0  0  1  0  0  0  0  0  0  0  0  0
    9.7564   -0.9973   -0.1610 H   0  0  0  0  0  0  0  0  0  0  0  0
    9.1106   -1.5536    1.8366 C   0  0  0  0  0  0  0  0  0  0  0  0
    9.4587   -3.0415    0.0075 O   0  0  0  0  0  0  0  0  0  0  0  0
   10.1917   -3.3144   -1.0838 C   0  0  0  0  0  0  0  0  0  0  0  0
   10.7327   -4.6297   -1.1460 C   0  0  0  0  0  0  0  0  0  0  0  0
   11.4962   -5.0264   -2.2336 C   0  0  0  0  0  0  0  0  0  0  0  0
   12.0713   -6.4135   -2.3262 C   0  0  0  0  0  0  0  0  0  0  0  0
   11.7012   -4.0509   -3.2446 C   0  0  0  0  0  0  0  0  0  0  0  0
   12.3627   -3.9697   -4.5184 C   0  0  0  0  0  0  0  0  0  0  0  0
   13.1581   -5.0083   -5.2470 C   0  0  0  0  0  0  0  0  0  0  0  0
   12.1953   -2.7721   -5.0419 N   0  0  0  0  0  0  0  0  0  0  0  0
   11.4500   -2.0292   -4.1722 N   0  0  0  0  0  0  0  0  0  0  0  0
   11.0990   -0.6972   -4.5194 C   0  0  0  0  0  0  0  0  0  0  0  0
   11.0821   -0.3315   -5.8749 C   0  0  0  0  0  0  0  0  0  0  0  0
   10.7492    0.9739   -6.2359 C   0  0  0  0  0  0  0  0  0  0  0  0
   10.4262    1.9229   -5.2604 C   0  0  0  0  0  0  0  0  0  0  0  0
   10.4499    1.5545   -3.9131 C   0  0  0  0  0  0  0  0  0  0  0  0
   10.7901    0.2532   -3.5342 C   0  0  0  0  0  0  0  0  0  0  0  0
   11.1204   -2.7738   -3.0637 C   0  0  0  0  0  0  0  0  0  0  0  0
   10.3640   -2.3934   -2.0205 N   0  0  0  0  0  0  0  0  0  0  0  0
    6.0231   -2.1733   -3.2688 C   0  0  0  0  0  0  0  0  0  0  0  0
    6.8961   -3.3924   -3.4410 C   0  0  0  0  0  0  0  0  0  0  0  0
    4.8613   -2.0188   -4.0306 C   0  0  0  0  0  0  0  0  0  0  0  0
    2.2475    0.1748   -4.5151 H   0  0  0  0  0  0  0  0  0  0  0  0
    2.0584   -1.5937   -4.4959 H   0  0  0  0  0  0  0  0  0  0  0  0
    2.9876   -0.8208   -5.7916 H   0  0  0  0  0  0  0  0  0  0  0  0
    3.7567    0.9586   -2.8360 H   0  0  0  0  0  0  0  0  0  0  0  0
    5.3296    1.9834   -1.4185 H   0  0  0  0  0  0  0  0  0  0  0  0
    6.9856    1.3290   -1.2931 H   0  0  0  0  0  0  0  0  0  0  0  0
    5.7376    0.7588   -0.1774 H   0  0  0  0  0  0  0  0  0  0  0  0
    8.4273   -1.5248   -2.0793 H   0  0  0  0  0  0  0  0  0  0  0  0
    8.8291   -0.5327    2.1322 H   0  0  0  0  0  0  0  0  0  0  0  0
   10.1273   -1.7657    2.1984 H   0  0  0  0  0  0  0  0  0  0  0  0
    8.4002   -2.2459    2.3085 H   0  0  0  0  0  0  0  0  0  0  0  0
   10.5280   -5.3048   -0.3142 H   0  0  0  0  0  0  0  0  0  0  0  0
   11.8088   -7.0149   -1.4448 H   0  0  0  0  0  0  0  0  0  0  0  0
   13.1698   -6.3828   -2.4073 H   0  0  0  0  0  0  0  0  0  0  0  0
   11.6988   -6.9367   -3.2217 H   0  0  0  0  0  0  0  0  0  0  0  0
   12.5547   -5.9046   -5.4644 H   0  0  0  0  0  0  0  0  0  0  0  0
   14.0324   -5.3355   -4.6613 H   0  0  0  0  0  0  0  0  0  0  0  0
   13.5156   -4.5919   -6.1987 H   0  0  0  0  0  0  0  0  0  0  0  0
   11.3401   -1.0779   -6.6253 H   0  0  0  0  0  0  0  0  0  0  0  0
   10.7383    1.2496   -7.2935 H   0  0  0  0  0  0  0  0  0  0  0  0
   10.1609    2.9427   -5.5488 H   0  0  0  0  0  0  0  0  0  0  0  0
   10.2097    2.2887   -3.1400 H   0  0  0  0  0  0  0  0  0  0  0  0
   10.8211   -0.0245   -2.4827 H   0  0  0  0  0  0  0  0  0  0  0  0
    7.1012   -3.8817   -2.4751 H   0  0  0  0  0  0  0  0  0  0  0  0
    7.8749   -3.1387   -3.8840 H   0  0  0  0  0  0  0  0  0  0  0  0
    6.4182   -4.1281   -4.1036 H   0  0  0  0  0  0  0  0  0  0  0  0
    4.5980   -2.7983   -4.7525 H   0  0  0  0  0  0  0  0  0  0  0  0
  1  2  1  0
  1 34  1  0
  1 35  1  0
  1 36  1  0
  2  3  2  0
  2 33  1  0
  3  4  1  0
  3 37  1  0
  4  5  1  0
  4  6  2  0
  5 38  1  0
  5 39  1  0
  5 40  1  0
  6  7  1  0
  6 31  1  0
  7  8  1  0
  7 41  1  0
  8  9  2  0
  8 10  1  0
 10 11  1  6
 10 12  1  0
 10 13  1  0
 12 42  1  0
 12 43  1  0
 12 44  1  0
 13 14  1  0
 14 15  2  0
 14 30  1  0
 15 16  1  0
 15 45  1  0
 16 17  1  0
 16 18  2  0
 17 46  1  0
 17 47  1  0
 17 48  1  0
 18 19  1  0
 18 29  1  0
 19 20  1  0
 19 21  2  0
 20 49  1  0
 20 50  1  0
 20 51  1  0
 21 22  1  0
 22 23  1  0
 22 29  1  0
 23 24  2  0
 23 28  1  0
 24 25  1  0
 24 52  1  0
 25 26  2  0
 25 53  1  0
 26 27  1  0
 26 54  1  0
 27 28  2  0
 27 55  1  0
 28 56  1  0
 29 30  2  0
 31 32  1  0
 31 33  2  0
 32 57  1  0
 32 58  1  0
 32 59  1  0
 33 60  1  0
M  END

