
     RDKit          3D

 51 53  0  0  0  0  0  0  0  0999 V2000
    1.0837   -0.1483    0.1283 N   0  0  0  0  0  0  0  0  0  0  0  0
    2.4352   -0.0146   -0.0842 C   0  0  0  0  0  0  0  0  0  0  0  0
    3.0671    1.2347   -0.2112 C   0  0  0  0  0  0  0  0  0  0  0  0
    4.4456    1.3293   -0.3842 C   0  0  0  0  0  0  0  0  0  0  0  0
    5.2355    0.1742   -0.4341 C   0  0  0  0  0  0  0  0  0  0  0  0
    6.7018    0.3216   -0.6139 C   0  0  0  0  0  0  0  0  0  0  0  0
    7.2718    1.3835   -0.7490 O   0  0  0  0  0  0  0  0  0  0  0  0
    7.3472   -0.8682   -0.6105 O   0  0  0  0  0  0  0  0  0  0  0  0
    8.7860   -0.8580   -0.7875 C   0  0  1  0  0  0  0  0  0  0  0  0
    9.4818   -0.6409    0.5618 C   0  0  0  0  0  0  0  0  0  0  0  0
    9.2737   -1.8194    1.5218 C   0  0  0  0  0  0  0  0  0  0  0  0
    9.6942   -3.1490    0.8800 C   0  0  0  0  0  0  0  0  0  0  0  0
    8.9712   -3.3804   -0.4542 C   0  0  0  0  0  0  0  0  0  0  0  0
    9.1670   -2.1993   -1.4157 C   0  0  0  0  0  0  0  0  0  0  0  0
    4.6173   -1.0882   -0.3127 C   0  0  0  0  0  0  0  0  0  0  0  0
    3.2433   -1.1857   -0.1408 C   0  0  0  0  0  0  0  0  0  0  0  0
    2.5320   -2.3569   -0.0348 O   0  0  0  0  0  0  0  0  0  0  0  0
    3.1886   -3.6067   -0.0842 C   0  0  0  0  0  0  0  0  0  0  0  0
    3.7626   -3.9977    1.2761 C   0  0  0  0  0  0  0  0  0  0  0  0
    4.3364   -5.2787    1.1148 O   0  0  0  0  0  0  0  0  0  0  0  0
    4.9157   -5.8994    2.1768 C   0  0  0  0  0  0  0  0  0  0  0  0
    5.0049   -5.3496    3.4639 C   0  0  0  0  0  0  0  0  0  0  0  0
    5.6233   -6.0720    4.4912 C   0  0  0  0  0  0  0  0  0  0  0  0
    6.1502   -7.3374    4.2371 C   0  0  0  0  0  0  0  0  0  0  0  0
    6.9224   -8.2382    5.5247 Cl  0  0  0  0  0  0  0  0  0  0  0  0
    6.0649   -7.8929    2.9540 C   0  0  0  0  0  0  0  0  0  0  0  0
    5.4507   -7.1760    1.9320 C   0  0  0  0  0  0  0  0  0  0  0  0
    0.4864    0.6334   -0.1073 H   0  0  0  0  0  0  0  0  0  0  0  0
    0.6925   -1.0697   -0.0239 H   0  0  0  0  0  0  0  0  0  0  0  0
    2.4565    2.1407   -0.1694 H   0  0  0  0  0  0  0  0  0  0  0  0
    4.9321    2.3012   -0.4813 H   0  0  0  0  0  0  0  0  0  0  0  0
    9.0278   -0.0251   -1.4634 H   0  0  0  0  0  0  0  0  0  0  0  0
    9.1309    0.3057    1.0007 H   0  0  0  0  0  0  0  0  0  0  0  0
   10.5606   -0.5109    0.3605 H   0  0  0  0  0  0  0  0  0  0  0  0
    8.2076   -1.8717    1.8038 H   0  0  0  0  0  0  0  0  0  0  0  0
    9.8347   -1.6471    2.4553 H   0  0  0  0  0  0  0  0  0  0  0  0
    9.4996   -3.9872    1.5697 H   0  0  0  0  0  0  0  0  0  0  0  0
   10.7865   -3.1381    0.7049 H   0  0  0  0  0  0  0  0  0  0  0  0
    7.8924   -3.5182   -0.2645 H   0  0  0  0  0  0  0  0  0  0  0  0
    9.3247   -4.3113   -0.9279 H   0  0  0  0  0  0  0  0  0  0  0  0
    8.5874   -2.3445   -2.3419 H   0  0  0  0  0  0  0  0  0  0  0  0
   10.2291   -2.1357   -1.7120 H   0  0  0  0  0  0  0  0  0  0  0  0
    5.2433   -1.9771   -0.3600 H   0  0  0  0  0  0  0  0  0  0  0  0
    3.9811   -3.6231   -0.8511 H   0  0  0  0  0  0  0  0  0  0  0  0
    2.4282   -4.3455   -0.3776 H   0  0  0  0  0  0  0  0  0  0  0  0
    2.9520   -4.0124    2.0279 H   0  0  0  0  0  0  0  0  0  0  0  0
    4.5192   -3.2649    1.6092 H   0  0  0  0  0  0  0  0  0  0  0  0
    4.5998   -4.3619    3.6845 H   0  0  0  0  0  0  0  0  0  0  0  0
    5.6942   -5.6460    5.4934 H   0  0  0  0  0  0  0  0  0  0  0  0
    6.4798   -8.8839    2.7632 H   0  0  0  0  0  0  0  0  0  0  0  0
    5.3728   -7.5891    0.9244 H   0  0  0  0  0  0  0  0  0  0  0  0
  1  2  1  0
  1 28  1  0
  1 29  1  0
  2  3  2  0
  2 16  1  0
  3  4  1  0
  3 30  1  0
  4  5  2  0
  4 31  1  0
  5  6  1  0
  5 15  1  0
  6  7  2  0
  6  8  1  0
  8  9  1  0
  9 10  1  0
  9 14  1  0
  9 32  1  6
 10 11  1  0
 10 33  1  0
 10 34  1  0
 11 12  1  0
 11 35  1  0
 11 36  1  0
 12 13  1  0
 12 37  1  0
 12 38  1  0
 13 14  1  0
 13 39  1  0
 13 40  1  0
 14 41  1  0
 14 42  1  0
 15 16  2  0
 15 43  1  0
 16 17  1  0
 17 18  1  0
 18 19  1  0
 18 44  1  0
 18 45  1  0
 19 20  1  0
 19 46  1  0
 19 47  1  0
 20 21  1  0
 21 22  2  0
 21 27  1  0
 22 23  1  0
 22 48  1  0
 23 24  2  0
 23 49  1  0
 24 25  1  0
 24 26  1  0
 26 27  2  0
 26 50  1  0
 27 51  1  0
M  END

