
     RDKit          3D

 52 54  0  0  0  0  0  0  0  0999 V2000
    1.0659    0.2653   -0.4261 C   0  0  0  0  0  0  0  0  0  0  0  0
    2.4624    0.2693   -0.0747 N   0  0  0  0  0  0  0  0  0  0  0  0
    2.8824   -0.4852    0.8707 C   0  0  0  0  0  0  0  0  0  0  0  0
    4.2518   -0.5619    1.1498 N   0  0  0  0  0  0  0  0  0  0  0  0
    5.1461    0.3916    0.4922 C   0  0  0  0  0  0  0  0  0  0  0  0
    6.6144    0.0798    0.8097 C   0  0  0  0  0  0  0  0  0  0  0  0
    7.1559   -1.1766    0.1904 C   0  0  0  0  0  0  0  0  0  0  0  0
    8.4021   -1.4397   -0.3377 C   0  0  0  0  0  0  0  0  0  0  0  0
    8.4058   -2.8108   -0.7722 C   0  0  0  0  0  0  0  0  0  0  0  0
    9.3571   -3.6526   -1.3810 C   0  0  0  0  0  0  0  0  0  0  0  0
    9.0058   -4.9644   -1.6862 C   0  0  0  0  0  0  0  0  0  0  0  0
    7.7157   -5.4602   -1.3973 C   0  0  0  0  0  0  0  0  0  0  0  0
    6.7531   -4.6537   -0.7939 C   0  0  0  0  0  0  0  0  0  0  0  0
    7.1099   -3.3344   -0.4831 C   0  0  0  0  0  0  0  0  0  0  0  0
    6.3852   -2.3239    0.1120 N   0  0  0  0  0  0  0  0  0  0  0  0
    5.4002   -2.3269    0.3573 H   0  0  0  0  0  0  0  0  0  0  0  0
    2.0819   -1.2825    1.6874 N   0  0  0  0  0  0  0  0  0  0  0  0
    2.5445   -2.4664    2.4114 C   0  0  0  0  0  0  0  0  0  0  0  0
    3.2701   -2.2021    3.7245 C   0  0  0  0  0  0  0  0  0  0  0  0
    4.5925   -2.6454    3.8731 C   0  0  0  0  0  0  0  0  0  0  0  0
    5.3091   -2.4703    5.0609 C   0  0  0  0  0  0  0  0  0  0  0  0
    4.6740   -1.8314    6.1181 C   0  0  0  0  0  0  0  0  0  0  0  0
    5.3324   -1.6423    7.2697 F   0  0  0  0  0  0  0  0  0  0  0  0
    3.3608   -1.3776    6.0098 C   0  0  0  0  0  0  0  0  0  0  0  0
    2.6409   -1.5565    4.8201 C   0  0  0  0  0  0  0  0  0  0  0  0
    1.2135   -1.0666    4.7629 C   0  0  0  0  0  0  0  0  0  0  0  0
   -0.0715   -2.3889    4.7812 S   0  0  0  0  0  0  0  0  0  0  0  0
    0.2207   -3.1439    6.4112 C   0  0  0  0  0  0  0  0  0  0  0  0
    0.9103    0.8314   -1.3576 H   0  0  0  0  0  0  0  0  0  0  0  0
    0.4282    0.7441    0.3466 H   0  0  0  0  0  0  0  0  0  0  0  0
    0.6491   -0.7518   -0.6004 H   0  0  0  0  0  0  0  0  0  0  0  0
    4.4486   -0.6722    2.1429 H   0  0  0  0  0  0  0  0  0  0  0  0
    4.9088    1.4281    0.7964 H   0  0  0  0  0  0  0  0  0  0  0  0
    4.9553    0.3440   -0.5886 H   0  0  0  0  0  0  0  0  0  0  0  0
    6.7408    0.0438    1.9106 H   0  0  0  0  0  0  0  0  0  0  0  0
    7.2335    0.9241    0.4709 H   0  0  0  0  0  0  0  0  0  0  0  0
    9.2245   -0.7297   -0.4045 H   0  0  0  0  0  0  0  0  0  0  0  0
   10.3580   -3.2783   -1.6125 H   0  0  0  0  0  0  0  0  0  0  0  0
    9.7376   -5.6245   -2.1592 H   0  0  0  0  0  0  0  0  0  0  0  0
    7.4677   -6.4941   -1.6513 H   0  0  0  0  0  0  0  0  0  0  0  0
    5.7542   -5.0384   -0.5718 H   0  0  0  0  0  0  0  0  0  0  0  0
    1.1216   -1.3351    1.3714 H   0  0  0  0  0  0  0  0  0  0  0  0
    3.1950   -3.0904    1.7732 H   0  0  0  0  0  0  0  0  0  0  0  0
    1.6466   -3.0627    2.6339 H   0  0  0  0  0  0  0  0  0  0  0  0
    5.0857   -3.1403    3.0318 H   0  0  0  0  0  0  0  0  0  0  0  0
    6.3382   -2.8171    5.1696 H   0  0  0  0  0  0  0  0  0  0  0  0
    2.9074   -0.8771    6.8685 H   0  0  0  0  0  0  0  0  0  0  0  0
    1.0255   -0.5317    3.8218 H   0  0  0  0  0  0  0  0  0  0  0  0
    1.0121   -0.3725    5.5929 H   0  0  0  0  0  0  0  0  0  0  0  0
   -0.5038   -3.9655    6.5060 H   0  0  0  0  0  0  0  0  0  0  0  0
    0.0442   -2.4217    7.2235 H   0  0  0  0  0  0  0  0  0  0  0  0
    1.2372   -3.5558    6.4938 H   0  0  0  0  0  0  0  0  0  0  0  0
  1  2  1  0
  1 29  1  0
  1 30  1  0
  1 31  1  0
  2  3  2  0
  3  4  1  0
  3 17  1  0
  4  5  1  0
  4 32  1  0
  5  6  1  0
  5 33  1  0
  5 34  1  0
  6  7  1  0
  6 35  1  0
  6 36  1  0
  7  8  2  0
  7 15  1  0
  8  9  1  0
  8 37  1  0
  9 10  2  0
  9 14  1  0
 10 11  1  0
 10 38  1  0
 11 12  2  0
 11 39  1  0
 12 13  1  0
 12 40  1  0
 13 14  2  0
 13 41  1  0
 14 15  1  0
 15 16  1  0
 17 18  1  0
 17 42  1  0
 18 19  1  0
 18 43  1  0
 18 44  1  0
 19 20  2  0
 19 25  1  0
 20 21  1  0
 20 45  1  0
 21 22  2  0
 21 46  1  0
 22 23  1  0
 22 24  1  0
 24 25  2  0
 24 47  1  0
 25 26  1  0
 26 27  1  0
 26 48  1  0
 26 49  1  0
 27 28  1  0
 28 50  1  0
 28 51  1  0
 28 52  1  0
M  END

