
     RDKit          3D

 23 24  0  0  0  0  0  0  0  0999 V2000
    1.5158    0.7088   -0.7585 O   0  0  0  0  0  0  0  0  0  0  0  0
    2.3117   -0.1597    0.0119 C   0  0  0  0  0  0  0  0  0  0  0  0
    2.8390    0.5675    1.2253 C   0  0  0  0  0  0  0  0  0  0  0  0
    2.5328    1.9136    1.4574 C   0  0  0  0  0  0  0  0  0  0  0  0
    3.0140    2.5943    2.5759 C   0  0  0  0  0  0  0  0  0  0  0  0
    3.8269    1.9287    3.5027 C   0  0  0  0  0  0  0  0  0  0  0  0
    4.3323    2.5918    4.6524 N   0  0  0  0  0  0  0  0  0  0  0  0
    4.1390    3.8929    5.0365 C   0  0  0  0  0  0  0  0  0  0  0  0
    4.8288    4.0706    6.2182 C   0  0  0  0  0  0  0  0  0  0  0  0
    5.4146    2.8047    6.4753 C   0  0  0  0  0  0  0  0  0  0  0  0
    5.1098    1.9264    5.5322 N   0  0  0  0  0  0  0  0  0  0  0  0
    4.1503    0.5804    3.2974 C   0  0  0  0  0  0  0  0  0  0  0  0
    3.6551   -0.0720    2.1716 C   0  0  0  0  0  0  0  0  0  0  0  0
    4.0759   -1.7641    1.9411 Cl  0  0  0  0  0  0  0  0  0  0  0  0
    1.2147    0.2343   -1.5419 H   0  0  0  0  0  0  0  0  0  0  0  0
    3.1743   -0.5553   -0.5634 H   0  0  0  0  0  0  0  0  0  0  0  0
    1.7438   -1.0500    0.3531 H   0  0  0  0  0  0  0  0  0  0  0  0
    1.8996    2.4261    0.7327 H   0  0  0  0  0  0  0  0  0  0  0  0
    2.7481    3.6424    2.7129 H   0  0  0  0  0  0  0  0  0  0  0  0
    3.5394    4.5868    4.4555 H   0  0  0  0  0  0  0  0  0  0  0  0
    4.8993    4.9805    6.8090 H   0  0  0  0  0  0  0  0  0  0  0  0
    6.0448    2.5059    7.3128 H   0  0  0  0  0  0  0  0  0  0  0  0
    4.7806    0.0642    4.0183 H   0  0  0  0  0  0  0  0  0  0  0  0
  1  2  1  0
  1 15  1  0
  2  3  1  0
  2 16  1  0
  2 17  1  0
  3  4  2  0
  3 13  1  0
  4  5  1  0
  4 18  1  0
  5  6  2  0
  5 19  1  0
  6  7  1  0
  6 12  1  0
  7  8  1  0
  7 11  1  0
  8  9  2  0
  8 20  1  0
  9 10  1  0
  9 21  1  0
 10 11  2  0
 10 22  1  0
 12 13  2  0
 12 23  1  0
 13 14  1  0
M  END

