
     RDKit          3D

 45 46  0  0  0  0  0  0  0  0999 V2000
    6.6688   -1.2314   -2.5294 C   0  0  0  0  0  0  0  0  0  0  0  0
    5.6743   -1.6765   -1.4567 C   0  0  0  0  0  0  0  0  0  0  0  0
    5.5302   -0.6873   -0.2827 C   0  0  1  0  0  0  0  0  0  0  0  0
    5.0501    0.6446   -0.6537 N   0  0  0  0  0  0  0  0  0  0  0  0
    4.6006   -1.2314    0.8286 C   0  0  0  0  0  0  0  0  0  0  0  0
    5.1131   -2.4565    1.5430 C   0  0  0  0  0  0  0  0  0  0  0  0
    6.0801   -2.3604    2.5523 C   0  0  0  0  0  0  0  0  0  0  0  0
    6.5165   -3.5446    3.1564 C   0  0  0  0  0  0  0  0  0  0  0  0
    7.5523   -3.5614    4.2473 C   0  0  0  0  0  0  0  0  0  0  0  0
    6.0128   -4.7267    2.7774 N   0  0  0  0  0  0  0  0  0  0  0  0
    5.0903   -4.7393    1.8137 C   0  0  0  0  0  0  0  0  0  0  0  0
    4.4494   -6.1007    1.4625 C   0  0  1  0  0  0  0  0  0  0  0  0
    3.3857   -6.3303    2.3970 O   0  0  0  0  0  0  0  0  0  0  0  0
    2.2220   -5.5411    2.3096 C   0  0  0  0  0  0  0  0  0  0  0  0
    3.9698   -6.1586    0.0004 C   0  0  0  0  0  0  0  0  0  0  0  0
    5.1471   -6.2828   -0.9711 C   0  0  0  0  0  0  0  0  0  0  0  0
    5.9746   -7.3881   -0.6788 O   0  0  0  0  0  0  0  0  0  0  0  0
    6.5139   -7.3211    0.6277 C   0  0  0  0  0  0  0  0  0  0  0  0
    5.4235   -7.2648    1.6953 C   0  0  0  0  0  0  0  0  0  0  0  0
    4.6276   -3.6531    1.1810 N   0  0  0  0  0  0  0  0  0  0  0  0
    6.7361   -1.9695   -3.3438 H   0  0  0  0  0  0  0  0  0  0  0  0
    7.6822   -1.1058   -2.1115 H   0  0  0  0  0  0  0  0  0  0  0  0
    6.3750   -0.2708   -2.9839 H   0  0  0  0  0  0  0  0  0  0  0  0
    5.9738   -2.6635   -1.0665 H   0  0  0  0  0  0  0  0  0  0  0  0
    4.6756   -1.8254   -1.9085 H   0  0  0  0  0  0  0  0  0  0  0  0
    6.5322   -0.5434    0.1647 H   0  0  0  0  0  0  0  0  0  0  0  0
    4.1622    0.5709   -1.1551 H   0  0  0  0  0  0  0  0  0  0  0  0
    5.7013    1.1003   -1.2918 H   0  0  0  0  0  0  0  0  0  0  0  0
    3.6178   -1.4741    0.3932 H   0  0  0  0  0  0  0  0  0  0  0  0
    4.4592   -0.4127    1.5505 H   0  0  0  0  0  0  0  0  0  0  0  0
    6.4777   -1.3903    2.8589 H   0  0  0  0  0  0  0  0  0  0  0  0
    7.9239   -2.5544    4.4830 H   0  0  0  0  0  0  0  0  0  0  0  0
    8.4011   -4.1973    3.9492 H   0  0  0  0  0  0  0  0  0  0  0  0
    7.1277   -4.0094    5.1599 H   0  0  0  0  0  0  0  0  0  0  0  0
    1.5782   -5.8428    3.1494 H   0  0  0  0  0  0  0  0  0  0  0  0
    1.6621   -5.7074    1.3705 H   0  0  0  0  0  0  0  0  0  0  0  0
    2.4263   -4.4585    2.3959 H   0  0  0  0  0  0  0  0  0  0  0  0
    3.3821   -5.2670   -0.2577 H   0  0  0  0  0  0  0  0  0  0  0  0
    3.3247   -7.0469   -0.1001 H   0  0  0  0  0  0  0  0  0  0  0  0
    5.7424   -5.3451   -0.9627 H   0  0  0  0  0  0  0  0  0  0  0  0
    4.7803   -6.4267   -1.9992 H   0  0  0  0  0  0  0  0  0  0  0  0
    7.1853   -6.4416    0.7193 H   0  0  0  0  0  0  0  0  0  0  0  0
    7.1339   -8.2212    0.7581 H   0  0  0  0  0  0  0  0  0  0  0  0
    5.8666   -7.1750    2.6960 H   0  0  0  0  0  0  0  0  0  0  0  0
    4.8273   -8.1898    1.6618 H   0  0  0  0  0  0  0  0  0  0  0  0
  1  2  1  0
  1 21  1  0
  1 22  1  0
  1 23  1  0
  2  3  1  0
  2 24  1  0
  2 25  1  0
  3  4  1  0
  3  5  1  0
  3 26  1  1
  4 27  1  0
  4 28  1  0
  5  6  1  0
  5 29  1  0
  5 30  1  0
  6  7  2  0
  6 20  1  0
  7  8  1  0
  7 31  1  0
  8  9  1  0
  8 10  2  0
  9 32  1  0
  9 33  1  0
  9 34  1  0
 10 11  1  0
 11 12  1  0
 11 20  2  0
 12 13  1  1
 12 15  1  0
 12 19  1  0
 13 14  1  0
 14 35  1  0
 14 36  1  0
 14 37  1  0
 15 16  1  0
 15 38  1  0
 15 39  1  0
 16 17  1  0
 16 40  1  0
 16 41  1  0
 17 18  1  0
 18 19  1  0
 18 42  1  0
 18 43  1  0
 19 44  1  0
 19 45  1  0
M  END

