
     RDKit          3D

 36 37  0  0  0  0  0  0  0  0999 V2000
    3.1225    1.0564    0.9416 C   0  0  0  0  0  0  0  0  0  0  0  0
    2.6197   -0.1727    0.1553 C   0  0  1  0  0  0  0  0  0  0  0  0
    3.3830   -0.2393   -1.1814 C   0  0  0  0  0  0  0  0  0  0  0  0
    2.9253   -1.4938    0.9306 C   0  0  0  0  0  0  0  0  0  0  0  0
    2.3207   -1.6117    2.3291 C   0  0  0  0  0  0  0  0  0  0  0  0
    2.7612   -3.2586    3.0311 S   0  0  0  0  0  0  0  0  0  0  0  0
    2.2367   -3.0056    4.6788 C   0  0  0  0  0  0  0  0  0  0  0  0
    1.7565   -1.9007    5.2221 N   0  0  0  0  0  0  0  0  0  0  0  0
    1.5035   -2.2048    6.5184 N   0  0  0  0  0  0  0  0  0  0  0  0
    1.7962   -3.4232    6.7830 N   0  0  0  0  0  0  0  0  0  0  0  0
    2.2742   -3.9697    5.6346 N   0  0  0  0  0  0  0  0  0  0  0  0
    2.6602   -5.3474    5.5210 C   0  0  1  0  0  0  0  0  0  0  0  0
    4.1277   -5.6883    5.3999 C   0  0  0  0  0  0  0  0  0  0  0  0
    3.3827   -5.9815    6.6732 C   0  0  0  0  0  0  0  0  0  0  0  0
    1.1127   -0.0691   -0.1131 C   0  0  0  0  0  0  0  0  0  0  0  0
    0.2818    0.3746    0.8880 N   0  0  0  0  0  0  0  0  0  0  0  0
    0.6713   -0.4913   -1.2492 N   0  0  0  0  0  0  0  0  0  0  0  0
   -0.7342   -0.3712   -1.3053 O   0  0  0  0  0  0  0  0  0  0  0  0
    4.2094    0.9791    1.1025 H   0  0  0  0  0  0  0  0  0  0  0  0
    2.6633    1.1596    1.9373 H   0  0  0  0  0  0  0  0  0  0  0  0
    2.9328    1.9857    0.3817 H   0  0  0  0  0  0  0  0  0  0  0  0
    4.4649   -0.3209   -0.9910 H   0  0  0  0  0  0  0  0  0  0  0  0
    3.2022    0.6639   -1.7825 H   0  0  0  0  0  0  0  0  0  0  0  0
    3.0618   -1.1013   -1.7802 H   0  0  0  0  0  0  0  0  0  0  0  0
    4.0223   -1.5922    1.0049 H   0  0  0  0  0  0  0  0  0  0  0  0
    2.5731   -2.3313    0.3059 H   0  0  0  0  0  0  0  0  0  0  0  0
    1.2265   -1.5285    2.3149 H   0  0  0  0  0  0  0  0  0  0  0  0
    2.7090   -0.8561    3.0247 H   0  0  0  0  0  0  0  0  0  0  0  0
    1.9404   -5.9512    4.9581 H   0  0  0  0  0  0  0  0  0  0  0  0
    4.8348   -4.8546    5.4001 H   0  0  0  0  0  0  0  0  0  0  0  0
    4.3950   -6.5133    4.7345 H   0  0  0  0  0  0  0  0  0  0  0  0
    3.5716   -5.3473    7.5418 H   0  0  0  0  0  0  0  0  0  0  0  0
    3.1249   -7.0165    6.9108 H   0  0  0  0  0  0  0  0  0  0  0  0
    0.6533    0.9925    1.5957 H   0  0  0  0  0  0  0  0  0  0  0  0
   -0.6790    0.5384    0.6060 H   0  0  0  0  0  0  0  0  0  0  0  0
   -0.9344   -0.6650   -2.2015 H   0  0  0  0  0  0  0  0  0  0  0  0
  1  2  1  0
  1 19  1  0
  1 20  1  0
  1 21  1  0
  2  3  1  0
  2  4  1  0
  2 15  1  6
  3 22  1  0
  3 23  1  0
  3 24  1  0
  4  5  1  0
  4 25  1  0
  4 26  1  0
  5  6  1  0
  5 27  1  0
  5 28  1  0
  6  7  1  0
  7  8  2  0
  7 11  1  0
  8  9  1  0
  9 10  2  0
 10 11  1  0
 11 12  1  0
 12 13  1  0
 12 14  1  0
 12 29  1  6
 13 14  1  0
 13 30  1  0
 13 31  1  0
 14 32  1  0
 14 33  1  0
 15 16  1  0
 15 17  2  0
 16 34  1  0
 16 35  1  0
 17 18  1  0
 18 36  1  0
M  END

