
     RDKit          3D

 29 30  0  0  0  0  0  0  0  0999 V2000
    2.9001    1.2600    0.0572 O   0  0  0  0  0  0  0  0  0  0  0  0
    2.3175    0.2165    0.2709 C   0  0  0  0  0  0  0  0  0  0  0  0
    0.8628    0.0191    0.0987 C   0  0  0  0  0  0  0  0  0  0  0  0
    0.0937    1.0467   -0.3277 C   0  0  0  0  0  0  0  0  0  0  0  0
   -1.3215    1.0148   -0.5465 C   0  0  0  0  0  0  0  0  0  0  0  0
   -2.2123    1.9813   -0.9675 C   0  0  0  0  0  0  0  0  0  0  0  0
   -3.5018    1.3768   -1.0001 C   0  0  0  0  0  0  0  0  0  0  0  0
   -3.3023    0.0812   -0.5937 C   0  0  0  0  0  0  0  0  0  0  0  0
   -4.4936   -1.3344   -0.3766 Br  0  0  0  0  0  0  0  0  0  0  0  0
   -2.0069   -0.1540   -0.3178 O   0  0  0  0  0  0  0  0  0  0  0  0
    2.9932   -0.9285    0.7567 N   0  0  0  0  0  0  0  0  0  0  0  0
    4.4017   -1.0653    0.6351 C   0  0  0  0  0  0  0  0  0  0  0  0
    4.7989   -2.1019   -0.1003 N   0  0  0  0  0  0  0  0  0  0  0  0
    6.1043   -2.2783   -0.3070 C   0  0  0  0  0  0  0  0  0  0  0  0
    7.0764   -1.4005    0.1812 C   0  0  0  0  0  0  0  0  0  0  0  0
    6.6564   -0.3392    0.9795 C   0  0  0  0  0  0  0  0  0  0  0  0
    5.2945   -0.1698    1.2606 C   0  0  0  0  0  0  0  0  0  0  0  0
    4.9292    0.8908    2.2724 C   0  0  0  0  0  0  0  0  0  0  0  0
    5.6795    1.7881    2.5534 O   0  0  0  0  0  0  0  0  0  0  0  0
    3.7664    0.7272    2.9252 O   0  0  0  0  0  0  0  0  0  0  0  0
    0.4209   -0.9560    0.3207 H   0  0  0  0  0  0  0  0  0  0  0  0
    0.5887    2.0023   -0.5274 H   0  0  0  0  0  0  0  0  0  0  0  0
   -1.9596    3.0085   -1.2228 H   0  0  0  0  0  0  0  0  0  0  0  0
   -4.4497    1.8271   -1.2820 H   0  0  0  0  0  0  0  0  0  0  0  0
    2.5215   -1.8108    0.5672 H   0  0  0  0  0  0  0  0  0  0  0  0
    6.3894   -3.1556   -0.8986 H   0  0  0  0  0  0  0  0  0  0  0  0
    8.1331   -1.5607   -0.0414 H   0  0  0  0  0  0  0  0  0  0  0  0
    7.3613    0.3655    1.4256 H   0  0  0  0  0  0  0  0  0  0  0  0
    3.2741   -0.0260    2.5528 H   0  0  0  0  0  0  0  0  0  0  0  0
  1  2  2  0
  2  3  1  0
  2 11  1  0
  3  4  2  0
  3 21  1  0
  4  5  1  0
  4 22  1  0
  5  6  2  0
  5 10  1  0
  6  7  1  0
  6 23  1  0
  7  8  2  0
  7 24  1  0
  8  9  1  0
  8 10  1  0
 11 12  1  0
 11 25  1  0
 12 13  2  0
 12 17  1  0
 13 14  1  0
 14 15  2  0
 14 26  1  0
 15 16  1  0
 15 27  1  0
 16 17  2  0
 16 28  1  0
 17 18  1  0
 18 19  2  0
 18 20  1  0
 20 29  1  0
M  END

