
     RDKit          3D

 48 50  0  0  0  0  0  0  0  0999 V2000
    7.9184   -0.4296    1.6997 C   0  0  0  0  0  0  0  0  0  0  0  0
    6.9770   -0.4296    0.4943 C   0  0  0  0  0  0  0  0  0  0  0  0
    5.5751   -0.9562    0.8270 C   0  0  0  0  0  0  0  0  0  0  0  0
    4.5707   -0.9095   -0.3344 C   0  0  0  0  0  0  0  0  0  0  0  0
    4.8131   -1.9091   -1.4841 C   0  0  1  0  0  0  0  0  0  0  0  0
    5.8717   -1.8468   -1.7761 H   0  0  0  0  0  0  0  0  0  0  0  0
    4.5092   -3.3731   -1.0325 C   0  0  2  0  0  0  0  0  0  0  0  0
    5.5960   -4.4239   -1.4940 C   0  0  2  0  0  0  0  0  0  0  0  0
    6.9822   -3.9804   -1.3859 C   0  0  0  0  0  0  0  0  0  0  0  0
    8.0774   -3.6087   -1.2926 N   0  0  0  0  0  0  0  0  0  0  0  0
    5.1333   -4.7907   -2.9334 C   0  0  0  0  0  0  0  0  0  0  0  0
    3.7524   -4.0774   -3.0630 C   0  0  2  0  0  0  0  0  0  0  0  0
    3.8416   -2.6907   -3.7656 C   0  0  2  0  0  0  0  0  0  0  0  0
    4.9126   -2.7214   -4.6860 O   0  0  0  0  0  0  0  0  0  0  0  0
    3.9372   -1.5426   -2.7114 C   0  0  2  0  0  0  0  0  0  0  0  0
    2.9112   -1.4408   -2.3293 H   0  0  0  0  0  0  0  0  0  0  0  0
    4.3060   -0.2257   -3.3732 C   0  0  0  0  0  0  0  0  0  0  0  0
    3.3083    0.7226   -3.6592 C   0  0  0  0  0  0  0  0  0  0  0  0
    3.6118    1.9245   -4.3046 C   0  0  0  0  0  0  0  0  0  0  0  0
    4.9283    2.2051   -4.6816 C   0  0  0  0  0  0  0  0  0  0  0  0
    5.9338    1.2742   -4.4066 C   0  0  0  0  0  0  0  0  0  0  0  0
    5.6270    0.0718   -3.7608 C   0  0  0  0  0  0  0  0  0  0  0  0
    3.2910   -3.8479   -1.6883 N   0  0  0  0  0  0  0  0  0  0  0  0
    2.6270   -4.9736   -1.0561 C   0  0  0  0  0  0  0  0  0  0  0  0
    8.9125   -0.0363    1.4344 H   0  0  0  0  0  0  0  0  0  0  0  0
    8.0626   -1.4502    2.0918 H   0  0  0  0  0  0  0  0  0  0  0  0
    7.5224    0.1895    2.5229 H   0  0  0  0  0  0  0  0  0  0  0  0
    7.4284   -1.0366   -0.3082 H   0  0  0  0  0  0  0  0  0  0  0  0
    6.8876    0.5967    0.0932 H   0  0  0  0  0  0  0  0  0  0  0  0
    5.1638   -0.3603    1.6618 H   0  0  0  0  0  0  0  0  0  0  0  0
    5.6600   -1.9864    1.2211 H   0  0  0  0  0  0  0  0  0  0  0  0
    4.5642    0.1129   -0.7484 H   0  0  0  0  0  0  0  0  0  0  0  0
    3.5505   -1.0828    0.0546 H   0  0  0  0  0  0  0  0  0  0  0  0
    4.3864   -3.4094    0.0591 H   0  0  0  0  0  0  0  0  0  0  0  0
    5.5035   -5.3052   -0.8390 H   0  0  0  0  0  0  0  0  0  0  0  0
    5.0212   -5.8794   -3.0331 H   0  0  0  0  0  0  0  0  0  0  0  0
    5.8347   -4.4516   -3.7026 H   0  0  0  0  0  0  0  0  0  0  0  0
    3.0329   -4.7069   -3.6054 H   0  0  0  0  0  0  0  0  0  0  0  0
    2.8916   -2.5320   -4.3113 H   0  0  0  0  0  0  0  0  0  0  0  0
    4.9433   -1.8698   -5.1434 H   0  0  0  0  0  0  0  0  0  0  0  0
    2.2759    0.5146   -3.3634 H   0  0  0  0  0  0  0  0  0  0  0  0
    2.8167    2.6461   -4.5100 H   0  0  0  0  0  0  0  0  0  0  0  0
    5.1699    3.1455   -5.1835 H   0  0  0  0  0  0  0  0  0  0  0  0
    6.9678    1.4841   -4.6927 H   0  0  0  0  0  0  0  0  0  0  0  0
    6.4284   -0.6405   -3.5527 H   0  0  0  0  0  0  0  0  0  0  0  0
    1.7044   -5.2135   -1.6075 H   0  0  0  0  0  0  0  0  0  0  0  0
    2.3373   -4.7027   -0.0290 H   0  0  0  0  0  0  0  0  0  0  0  0
    3.2316   -5.9056   -1.0008 H   0  0  0  0  0  0  0  0  0  0  0  0
  1  2  1  0
  1 25  1  0
  1 26  1  0
  1 27  1  0
  2  3  1  0
  2 28  1  0
  2 29  1  0
  3  4  1  0
  3 30  1  0
  3 31  1  0
  4  5  1  0
  4 32  1  0
  4 33  1  0
  5  6  1  6
  5  7  1  0
  5 15  1  0
  7  8  1  0
  7 23  1  0
  7 34  1  1
  8  9  1  0
  8 11  1  0
  8 35  1  1
  9 10  3  0
 11 12  1  0
 11 36  1  0
 11 37  1  0
 12 13  1  0
 12 23  1  0
 12 38  1  6
 13 14  1  0
 13 15  1  0
 13 39  1  6
 14 40  1  0
 15 16  1  1
 15 17  1  0
 17 18  2  0
 17 22  1  0
 18 19  1  0
 18 41  1  0
 19 20  2  0
 19 42  1  0
 20 21  1  0
 20 43  1  0
 21 22  2  0
 21 44  1  0
 22 45  1  0
 23 24  1  0
 24 46  1  0
 24 47  1  0
 24 48  1  0
M  END

