
     RDKit          3D

 44 45  0  0  0  0  0  0  0  0999 V2000
    2.3495    0.9400   -0.6362 N   0  0  0  0  0  0  0  0  0  0  0  0
    2.5095    0.4936    0.4207 C   0  0  0  0  0  0  0  0  0  0  0  0
    2.6658   -0.1219    1.7596 C   0  0  2  0  0  0  0  0  0  0  0  0
    1.6841   -0.5374    2.0412 H   0  0  0  0  0  0  0  0  0  0  0  0
    3.1081    0.9017    2.8204 C   0  0  0  0  0  0  0  0  0  0  0  0
    4.9222    1.0028    2.6289 S   0  0  0  0  0  0  0  0  0  0  0  0
    4.9870   -0.8007    2.3347 C   0  0  0  0  0  0  0  0  0  0  0  0
    3.6821   -1.1739    1.7743 N   0  0  0  0  0  0  0  0  0  0  0  0
    3.5181   -2.4664    1.3257 C   0  0  0  0  0  0  0  0  0  0  0  0
    4.4331   -3.2675    1.4280 O   0  0  0  0  0  0  0  0  0  0  0  0
    2.1440   -2.8272    0.7571 C   0  0  0  0  0  0  0  0  0  0  0  0
    2.1509   -4.0522   -0.0130 N   0  0  0  0  0  0  0  0  0  0  0  0
    2.2972   -5.1549    0.9396 N   0  0  0  0  0  0  0  0  0  0  0  0
    0.8972   -4.2016   -0.7866 C   0  0  1  0  0  0  0  0  0  0  0  0
    0.8674   -3.2092   -1.9700 C   0  0  0  0  0  0  0  0  0  0  0  0
    1.9182   -3.5623   -3.0369 C   0  0  0  0  0  0  0  0  0  0  0  0
    1.7929   -4.9320   -3.5517 N   0  0  0  0  0  0  0  0  0  0  0  0
    0.7353   -5.1013   -4.5381 C   0  0  0  0  0  0  0  0  0  0  0  0
    1.1285   -4.6753   -5.9635 C   0  0  0  0  0  0  0  0  0  0  0  0
    2.4680   -4.6196   -6.1730 N   0  0  0  0  0  0  0  0  0  0  0  0
    0.2845   -4.4535   -6.8126 O   0  0  0  0  0  0  0  0  0  0  0  0
    1.8036   -5.9055   -2.4583 C   0  0  0  0  0  0  0  0  0  0  0  0
    0.7513   -5.6193   -1.3735 C   0  0  0  0  0  0  0  0  0  0  0  0
    2.8333    0.5370    3.8225 H   0  0  0  0  0  0  0  0  0  0  0  0
    2.6609    1.8916    2.6610 H   0  0  0  0  0  0  0  0  0  0  0  0
    5.1753   -1.3609    3.2650 H   0  0  0  0  0  0  0  0  0  0  0  0
    5.8006   -1.0262    1.6305 H   0  0  0  0  0  0  0  0  0  0  0  0
    1.7990   -2.0091    0.1137 H   0  0  0  0  0  0  0  0  0  0  0  0
    1.4300   -2.8915    1.6154 H   0  0  0  0  0  0  0  0  0  0  0  0
    3.1720   -4.9246    1.4218 H   0  0  0  0  0  0  0  0  0  0  0  0
    2.5758   -5.9605    0.3744 H   0  0  0  0  0  0  0  0  0  0  0  0
    0.0248   -4.0184   -0.1204 H   0  0  0  0  0  0  0  0  0  0  0  0
    1.0149   -2.1665   -1.6475 H   0  0  0  0  0  0  0  0  0  0  0  0
   -0.1442   -3.2399   -2.4082 H   0  0  0  0  0  0  0  0  0  0  0  0
    2.9207   -3.4541   -2.5917 H   0  0  0  0  0  0  0  0  0  0  0  0
    1.8596   -2.8584   -3.8816 H   0  0  0  0  0  0  0  0  0  0  0  0
   -0.2107   -4.5709   -4.3139 H   0  0  0  0  0  0  0  0  0  0  0  0
    0.4743   -6.1709   -4.6064 H   0  0  0  0  0  0  0  0  0  0  0  0
    3.0868   -4.8164   -5.3937 H   0  0  0  0  0  0  0  0  0  0  0  0
    2.8206   -4.3659   -7.0871 H   0  0  0  0  0  0  0  0  0  0  0  0
    2.8107   -5.8922   -2.0056 H   0  0  0  0  0  0  0  0  0  0  0  0
    1.6572   -6.9134   -2.8787 H   0  0  0  0  0  0  0  0  0  0  0  0
    0.7845   -6.3775   -0.5772 H   0  0  0  0  0  0  0  0  0  0  0  0
   -0.2573   -5.6906   -1.8141 H   0  0  0  0  0  0  0  0  0  0  0  0
  1  2  3  0
  2  3  1  0
  3  4  1  1
  3  5  1  0
  3  8  1  0
  5  6  1  0
  5 24  1  0
  5 25  1  0
  6  7  1  0
  7  8  1  0
  7 26  1  0
  7 27  1  0
  8  9  1  0
  9 10  2  0
  9 11  1  0
 11 12  1  0
 11 28  1  0
 11 29  1  0
 12 13  1  0
 12 14  1  0
 13 30  1  0
 13 31  1  0
 14 15  1  0
 14 23  1  0
 14 32  1  1
 15 16  1  0
 15 33  1  0
 15 34  1  0
 16 17  1  0
 16 35  1  0
 16 36  1  0
 17 18  1  0
 17 22  1  0
 18 19  1  0
 18 37  1  0
 18 38  1  0
 19 20  1  0
 19 21  2  0
 20 39  1  0
 20 40  1  0
 22 23  1  0
 22 41  1  0
 22 42  1  0
 23 43  1  0
 23 44  1  0
M  END

