
     RDKit          3D

 53 56  0  0  0  0  0  0  0  0999 V2000
    2.0817    0.0586    2.8890 O   0  0  0  0  0  0  0  0  0  0  0  0
    1.8133    0.1579    1.7016 C   0  0  0  0  0  0  0  0  0  0  0  0
    0.3718    0.0801    1.1894 C   0  0  0  0  0  0  0  0  0  0  0  0
   -0.0472   -1.3496    0.8945 C   0  0  0  0  0  0  0  0  0  0  0  0
    0.0197   -2.3336    1.8977 C   0  0  0  0  0  0  0  0  0  0  0  0
   -0.3736   -3.6437    1.6320 C   0  0  0  0  0  0  0  0  0  0  0  0
   -0.8337   -4.0058    0.3616 C   0  0  0  0  0  0  0  0  0  0  0  0
   -0.8829   -3.0340   -0.6558 C   0  0  0  0  0  0  0  0  0  0  0  0
   -0.4952   -1.7184   -0.3789 C   0  0  0  0  0  0  0  0  0  0  0  0
   -1.3057   -3.3407   -1.9206 O   0  0  0  0  0  0  0  0  0  0  0  0
   -1.3535   -4.7308   -2.2019 C   0  0  0  0  0  0  0  0  0  0  0  0
   -1.9873   -5.4823   -1.0427 C   0  0  0  0  0  0  0  0  0  0  0  0
   -1.2243   -5.2982    0.1385 O   0  0  0  0  0  0  0  0  0  0  0  0
    2.7665    0.3101    0.7361 N   0  0  0  0  0  0  0  0  0  0  0  0
    4.1974    0.3089    1.0421 C   0  0  1  0  0  0  0  0  0  0  0  0
    4.7873   -1.1178    1.0565 C   0  0  0  0  0  0  0  0  0  0  0  0
    4.9110   -1.6868   -0.3664 C   0  0  0  0  0  0  0  0  0  0  0  0
    5.6888   -0.8433   -1.2787 N   0  0  0  0  0  0  0  0  0  0  0  0
    7.1413   -0.8819   -1.1048 C   0  0  1  0  0  0  0  0  0  0  0  0
    7.7420   -2.2977   -1.1703 C   0  0  0  0  0  0  0  0  0  0  0  0
    9.2393   -2.0421   -1.3843 C   0  0  0  0  0  0  0  0  0  0  0  0
    9.3008   -0.8107   -2.3217 C   0  0  0  0  0  0  0  0  0  0  0  0
    7.9030   -0.1417   -2.2306 C   0  0  0  0  0  0  0  0  0  0  0  0
    5.1024    0.4952   -1.3379 C   0  0  0  0  0  0  0  0  0  0  0  0
    4.9646    1.1837    0.0352 C   0  0  0  0  0  0  0  0  0  0  0  0
    0.2403    0.7034    0.2911 H   0  0  0  0  0  0  0  0  0  0  0  0
   -0.2562    0.5043    1.9879 H   0  0  0  0  0  0  0  0  0  0  0  0
    0.3842   -2.0612    2.8905 H   0  0  0  0  0  0  0  0  0  0  0  0
   -0.3400   -4.4150    2.4047 H   0  0  0  0  0  0  0  0  0  0  0  0
   -0.5579   -0.9916   -1.1928 H   0  0  0  0  0  0  0  0  0  0  0  0
   -0.3321   -5.1162   -2.3826 H   0  0  0  0  0  0  0  0  0  0  0  0
   -1.9422   -4.8521   -3.1232 H   0  0  0  0  0  0  0  0  0  0  0  0
   -2.0181   -6.5639   -1.2411 H   0  0  0  0  0  0  0  0  0  0  0  0
   -3.0222   -5.1229   -0.8862 H   0  0  0  0  0  0  0  0  0  0  0  0
    2.4719    0.3143   -0.2327 H   0  0  0  0  0  0  0  0  0  0  0  0
    4.2766    0.7333    2.0535 H   0  0  0  0  0  0  0  0  0  0  0  0
    4.1573   -1.7668    1.6851 H   0  0  0  0  0  0  0  0  0  0  0  0
    5.7812   -1.0822    1.5356 H   0  0  0  0  0  0  0  0  0  0  0  0
    3.8984   -1.7980   -0.7964 H   0  0  0  0  0  0  0  0  0  0  0  0
    5.3383   -2.6989   -0.3428 H   0  0  0  0  0  0  0  0  0  0  0  0
    7.4623   -0.4400   -0.1324 H   0  0  0  0  0  0  0  0  0  0  0  0
    7.3022   -2.8221   -2.0372 H   0  0  0  0  0  0  0  0  0  0  0  0
    7.5443   -2.9064   -0.2748 H   0  0  0  0  0  0  0  0  0  0  0  0
    9.7667   -2.9194   -1.7897 H   0  0  0  0  0  0  0  0  0  0  0  0
    9.7138   -1.8070   -0.4167 H   0  0  0  0  0  0  0  0  0  0  0  0
    9.5133   -1.1140   -3.3588 H   0  0  0  0  0  0  0  0  0  0  0  0
   10.1093   -0.1229   -2.0295 H   0  0  0  0  0  0  0  0  0  0  0  0
    7.3395   -0.2873   -3.1668 H   0  0  0  0  0  0  0  0  0  0  0  0
    7.9723    0.9426   -2.0557 H   0  0  0  0  0  0  0  0  0  0  0  0
    4.1037    0.4014   -1.8076 H   0  0  0  0  0  0  0  0  0  0  0  0
    5.6875    1.1279   -2.0204 H   0  0  0  0  0  0  0  0  0  0  0  0
    4.4656    2.1616   -0.0723 H   0  0  0  0  0  0  0  0  0  0  0  0
    5.9682    1.3848    0.4454 H   0  0  0  0  0  0  0  0  0  0  0  0
  1  2  2  0
  2  3  1  0
  2 14  1  0
  3  4  1  0
  3 26  1  0
  3 27  1  0
  4  5  2  0
  4  9  1  0
  5  6  1  0
  5 28  1  0
  6  7  2  0
  6 29  1  0
  7  8  1  0
  7 13  1  0
  8  9  2  0
  8 10  1  0
  9 30  1  0
 10 11  1  0
 11 12  1  0
 11 31  1  0
 11 32  1  0
 12 13  1  0
 12 33  1  0
 12 34  1  0
 14 15  1  0
 14 35  1  0
 15 16  1  0
 15 25  1  0
 15 36  1  1
 16 17  1  0
 16 37  1  0
 16 38  1  0
 17 18  1  0
 17 39  1  0
 17 40  1  0
 18 19  1  0
 18 24  1  0
 19 20  1  0
 19 23  1  0
 19 41  1  1
 20 21  1  0
 20 42  1  0
 20 43  1  0
 21 22  1  0
 21 44  1  0
 21 45  1  0
 22 23  1  0
 22 46  1  0
 22 47  1  0
 23 48  1  0
 23 49  1  0
 24 25  1  0
 24 50  1  0
 24 51  1  0
 25 52  1  0
 25 53  1  0
M  END

