
     RDKit          3D

 36 39  0  0  0  0  0  0  0  0999 V2000
    1.7675    0.6719    1.1173 O   0  0  0  0  0  0  0  0  0  0  0  0
    2.1077    0.2543    0.0194 C   0  0  0  0  0  0  0  0  0  0  0  0
    1.9739   -1.0913   -0.2879 N   0  0  0  0  0  0  0  0  0  0  0  0
    1.4752   -2.0515    0.5657 C   0  0  0  0  0  0  0  0  0  0  0  0
    1.3829   -3.2999    0.1895 N   0  0  0  0  0  0  0  0  0  0  0  0
    0.8706   -4.1015    1.1607 N   0  0  0  0  0  0  0  0  0  0  0  0
    0.5848   -3.4554    2.2481 C   0  0  0  0  0  0  0  0  0  0  0  0
    0.9241   -1.7377    2.1954 S   0  0  0  0  0  0  0  0  0  0  0  0
    2.6720    1.1317   -1.0349 C   0  0  0  0  0  0  0  0  0  0  0  0
    2.7905    2.5106   -0.7560 C   0  0  0  0  0  0  0  0  0  0  0  0
    3.3091    3.3721   -1.7007 C   0  0  0  0  0  0  0  0  0  0  0  0
    3.7211    2.8380   -2.9573 C   0  0  0  0  0  0  0  0  0  0  0  0
    4.2479    3.6280   -3.9256 N   0  0  0  0  0  0  0  0  0  0  0  0
    4.3735    5.0874   -3.8668 C   0  0  0  0  0  0  0  0  0  0  0  0
    4.8571    5.4036   -5.2966 C   0  0  2  0  0  0  0  0  0  0  0  0
    3.6954    5.1191   -6.2840 C   0  0  0  0  0  0  0  0  0  0  0  0
    3.5931    3.5586   -6.2757 C   0  0  0  0  0  0  0  0  0  0  0  0
    4.6874    3.1678   -5.2563 C   0  0  1  0  0  0  0  0  0  0  0  0
    5.7878    4.1999   -5.5566 C   0  0  0  0  0  0  0  0  0  0  0  0
    3.6108    1.5195   -3.2278 N   0  0  0  0  0  0  0  0  0  0  0  0
    3.1111    0.7140   -2.3022 C   0  0  0  0  0  0  0  0  0  0  0  0
    2.2411   -1.4541   -1.1967 H   0  0  0  0  0  0  0  0  0  0  0  0
    0.1645   -3.9332    3.1350 H   0  0  0  0  0  0  0  0  0  0  0  0
    2.4635    2.8719    0.2212 H   0  0  0  0  0  0  0  0  0  0  0  0
    3.4049    4.4365   -1.4860 H   0  0  0  0  0  0  0  0  0  0  0  0
    5.1073    5.4017   -3.1008 H   0  0  0  0  0  0  0  0  0  0  0  0
    3.4108    5.5743   -3.6304 H   0  0  0  0  0  0  0  0  0  0  0  0
    5.3011    6.4044   -5.3895 H   0  0  0  0  0  0  0  0  0  0  0  0
    3.9408    5.5021   -7.2864 H   0  0  0  0  0  0  0  0  0  0  0  0
    2.7609    5.6098   -5.9703 H   0  0  0  0  0  0  0  0  0  0  0  0
    3.8135    3.1274   -7.2652 H   0  0  0  0  0  0  0  0  0  0  0  0
    2.6065    3.1873   -5.9643 H   0  0  0  0  0  0  0  0  0  0  0  0
    4.9552    2.1071   -5.2307 H   0  0  0  0  0  0  0  0  0  0  0  0
    6.1540    4.1484   -6.5931 H   0  0  0  0  0  0  0  0  0  0  0  0
    6.6413    4.1370   -4.8643 H   0  0  0  0  0  0  0  0  0  0  0  0
    3.0608   -0.3422   -2.5996 H   0  0  0  0  0  0  0  0  0  0  0  0
  1  2  2  0
  2  3  1  0
  2  9  1  0
  3  4  1  0
  3 22  1  0
  4  5  2  0
  4  8  1  0
  5  6  1  0
  6  7  2  0
  7  8  1  0
  7 23  1  0
  9 10  2  0
  9 21  1  0
 10 11  1  0
 10 24  1  0
 11 12  2  0
 11 25  1  0
 12 13  1  0
 12 20  1  0
 13 14  1  0
 13 18  1  0
 14 15  1  0
 14 26  1  0
 14 27  1  0
 15 16  1  0
 15 19  1  0
 15 28  1  1
 16 17  1  0
 16 29  1  0
 16 30  1  0
 17 18  1  0
 17 31  1  0
 17 32  1  0
 18 19  1  0
 18 33  1  1
 19 34  1  0
 19 35  1  0
 20 21  2  0
 21 36  1  0
M  END

