
     RDKit          3D

 35 38  0  0  0  0  0  0  0  0999 V2000
    5.7910    2.6847   -4.6180 C   0  0  0  0  0  0  0  0  0  0  0  0
    6.1815    2.1797   -3.2621 C   0  0  0  0  0  0  0  0  0  0  0  0
    6.1573    2.8846   -2.0922 C   0  0  0  0  0  0  0  0  0  0  0  0
    6.6862    1.9913   -0.6838 S   0  0  0  0  0  0  0  0  0  0  0  0
    6.9600    0.5827   -1.6724 C   0  0  0  0  0  0  0  0  0  0  0  0
    7.4293   -0.7030   -1.3476 C   0  0  0  0  0  0  0  0  0  0  0  0
    7.8267   -1.0815    0.3526 S   0  0  0  0  0  0  0  0  0  0  0  0
    8.6081   -2.6522    0.2060 C   0  0  0  0  0  0  0  0  0  0  0  0
    9.9026   -2.8374    0.3627 N   0  0  0  0  0  0  0  0  0  0  0  0
   10.1280   -4.1648    0.2841 N   0  0  0  0  0  0  0  0  0  0  0  0
    8.9688   -4.7775    0.0837 C   0  0  0  0  0  0  0  0  0  0  0  0
    8.8663   -6.2412   -0.0629 C   0  0  0  0  0  0  0  0  0  0  0  0
   10.0532   -6.9999   -0.0308 C   0  0  0  0  0  0  0  0  0  0  0  0
    9.9618   -8.3815   -0.1665 C   0  0  0  0  0  0  0  0  0  0  0  0
    8.7016   -8.9667   -0.3288 C   0  0  0  0  0  0  0  0  0  0  0  0
    7.5845   -8.1290   -0.3455 C   0  0  0  0  0  0  0  0  0  0  0  0
    7.6593   -6.8028   -0.2170 N   0  0  0  0  0  0  0  0  0  0  0  0
    7.9567   -3.8521    0.0426 N   0  0  0  0  0  0  0  0  0  0  0  0
    6.5301   -4.0282   -0.1984 C   0  0  0  0  0  0  0  0  0  0  0  0
    7.5630   -1.6220   -2.2916 N   0  0  0  0  0  0  0  0  0  0  0  0
    7.2506   -1.2845   -3.5570 C   0  0  0  0  0  0  0  0  0  0  0  0
    6.8006   -0.1148   -3.9808 N   0  0  0  0  0  0  0  0  0  0  0  0
    6.6507    0.8298   -3.0332 C   0  0  0  0  0  0  0  0  0  0  0  0
    5.4784    3.7379   -4.5831 H   0  0  0  0  0  0  0  0  0  0  0  0
    4.9642    2.0862   -5.0337 H   0  0  0  0  0  0  0  0  0  0  0  0
    6.6311    2.5895   -5.3246 H   0  0  0  0  0  0  0  0  0  0  0  0
    5.8502    3.9226   -1.9619 H   0  0  0  0  0  0  0  0  0  0  0  0
   11.0060   -6.4865    0.0993 H   0  0  0  0  0  0  0  0  0  0  0  0
   10.8644   -8.9976   -0.1467 H   0  0  0  0  0  0  0  0  0  0  0  0
    8.5845  -10.0469   -0.4399 H   0  0  0  0  0  0  0  0  0  0  0  0
    6.5796   -8.5494   -0.4689 H   0  0  0  0  0  0  0  0  0  0  0  0
    6.2193   -5.0050    0.1809 H   0  0  0  0  0  0  0  0  0  0  0  0
    6.3251   -3.9761   -1.2775 H   0  0  0  0  0  0  0  0  0  0  0  0
    5.9917   -3.2144    0.3054 H   0  0  0  0  0  0  0  0  0  0  0  0
    7.3845   -2.0721   -4.3077 H   0  0  0  0  0  0  0  0  0  0  0  0
  1  2  1  0
  1 24  1  0
  1 25  1  0
  1 26  1  0
  2  3  2  0
  2 23  1  0
  3  4  1  0
  3 27  1  0
  4  5  1  0
  5  6  1  0
  5 23  2  0
  6  7  1  0
  6 20  2  0
  7  8  1  0
  8  9  2  0
  8 18  1  0
  9 10  1  0
 10 11  2  0
 11 12  1  0
 11 18  1  0
 12 13  2  0
 12 17  1  0
 13 14  1  0
 13 28  1  0
 14 15  2  0
 14 29  1  0
 15 16  1  0
 15 30  1  0
 16 17  2  0
 16 31  1  0
 18 19  1  0
 19 32  1  0
 19 33  1  0
 19 34  1  0
 20 21  1  0
 21 22  2  0
 21 35  1  0
 22 23  1  0
M  END

