
     RDKit          3D

 56 58  0  0  0  0  0  0  0  0999 V2000
   12.8216   -0.9410    4.9263 C   0  0  0  0  0  0  0  0  0  0  0  0
   11.8277   -0.2129    4.0704 C   0  0  0  0  0  0  0  0  0  0  0  0
   11.0707   -0.7166    2.9856 C   0  0  0  0  0  0  0  0  0  0  0  0
   10.3229    0.3688    2.5458 C   0  0  0  0  0  0  0  0  0  0  0  0
    9.3760    0.4571    1.5144 N   0  0  0  0  0  0  0  0  0  0  0  0
    8.2295   -0.4604    1.4305 C   0  0  0  0  0  0  0  0  0  0  0  0
    7.7157   -0.2952   -0.0115 C   0  0  0  0  0  0  0  0  0  0  0  0
    8.2051    1.1029   -0.4199 C   0  0  2  0  0  0  0  0  0  0  0  0
    8.4364    1.3392   -1.8297 N   0  0  0  0  0  0  0  0  0  0  0  0
    9.5031    0.6895   -2.4451 C   0  0  0  0  0  0  0  0  0  0  0  0
   10.0578   -0.2631   -1.9063 O   0  0  0  0  0  0  0  0  0  0  0  0
    9.8601    1.1629   -3.6886 N   0  0  0  0  0  0  0  0  0  0  0  0
    9.1719    2.2634   -4.3349 C   0  0  0  0  0  0  0  0  0  0  0  0
   11.0879    0.6547   -4.2938 C   0  0  0  0  0  0  0  0  0  0  0  0
   12.2926    1.6191   -4.2024 C   0  0  1  0  0  0  0  0  0  0  0  0
   12.6563    2.0233   -2.7565 C   0  0  0  0  0  0  0  0  0  0  0  0
   13.3663    0.8883   -1.9954 C   0  0  0  0  0  0  0  0  0  0  0  0
   14.5435    0.3622   -2.6869 N   0  0  0  0  0  0  0  0  0  0  0  0
   15.7336    1.1820   -2.5848 C   0  0  0  0  0  0  0  0  0  0  0  0
   14.2103   -0.0743   -4.0366 C   0  0  0  0  0  0  0  0  0  0  0  0
   13.5308    1.0106   -4.8986 C   0  0  0  0  0  0  0  0  0  0  0  0
    9.4594    1.3261    0.4514 C   0  0  0  0  0  0  0  0  0  0  0  0
   10.3198    2.1601    0.2569 O   0  0  0  0  0  0  0  0  0  0  0  0
   10.6408    1.4195    3.3578 N   0  0  0  0  0  0  0  0  0  0  0  0
   10.1505    2.7817    3.2944 C   0  0  0  0  0  0  0  0  0  0  0  0
   11.5627    1.0789    4.2734 N   0  0  0  0  0  0  0  0  0  0  0  0
   12.9066   -1.9937    4.6208 H   0  0  0  0  0  0  0  0  0  0  0  0
   12.5286   -0.9139    5.9883 H   0  0  0  0  0  0  0  0  0  0  0  0
   13.8205   -0.4816    4.8526 H   0  0  0  0  0  0  0  0  0  0  0  0
   11.0791   -1.7198    2.5661 H   0  0  0  0  0  0  0  0  0  0  0  0
    7.4689   -0.1842    2.1837 H   0  0  0  0  0  0  0  0  0  0  0  0
    8.5472   -1.4912    1.6462 H   0  0  0  0  0  0  0  0  0  0  0  0
    6.6242   -0.4051   -0.0801 H   0  0  0  0  0  0  0  0  0  0  0  0
    8.1927   -1.0346   -0.6656 H   0  0  0  0  0  0  0  0  0  0  0  0
    7.4728    1.8628   -0.0936 H   0  0  0  0  0  0  0  0  0  0  0  0
    8.2542    2.2895   -2.1253 H   0  0  0  0  0  0  0  0  0  0  0  0
    9.4558    3.2579   -3.9378 H   0  0  0  0  0  0  0  0  0  0  0  0
    8.0797    2.1491   -4.2467 H   0  0  0  0  0  0  0  0  0  0  0  0
    9.4131    2.2575   -5.4079 H   0  0  0  0  0  0  0  0  0  0  0  0
   10.8865    0.4381   -5.3584 H   0  0  0  0  0  0  0  0  0  0  0  0
   11.3058   -0.3003   -3.8010 H   0  0  0  0  0  0  0  0  0  0  0  0
   12.0133    2.5357   -4.7545 H   0  0  0  0  0  0  0  0  0  0  0  0
   11.7647    2.3387   -2.1908 H   0  0  0  0  0  0  0  0  0  0  0  0
   13.3176    2.9067   -2.8015 H   0  0  0  0  0  0  0  0  0  0  0  0
   12.6533    0.0622   -1.8333 H   0  0  0  0  0  0  0  0  0  0  0  0
   13.6642    1.2371   -0.9938 H   0  0  0  0  0  0  0  0  0  0  0  0
   15.9704    1.3585   -1.5227 H   0  0  0  0  0  0  0  0  0  0  0  0
   15.6773    2.1805   -3.0758 H   0  0  0  0  0  0  0  0  0  0  0  0
   16.5914    0.6505   -3.0300 H   0  0  0  0  0  0  0  0  0  0  0  0
   13.5419   -0.9514   -3.9565 H   0  0  0  0  0  0  0  0  0  0  0  0
   15.1271   -0.4311   -4.5354 H   0  0  0  0  0  0  0  0  0  0  0  0
   13.2551    0.5884   -5.8818 H   0  0  0  0  0  0  0  0  0  0  0  0
   14.2544    1.8181   -5.1039 H   0  0  0  0  0  0  0  0  0  0  0  0
    9.0521    2.7883    3.2175 H   0  0  0  0  0  0  0  0  0  0  0  0
   10.5678    3.3059    2.4224 H   0  0  0  0  0  0  0  0  0  0  0  0
   10.4541    3.2771    4.2241 H   0  0  0  0  0  0  0  0  0  0  0  0
  1  2  1  0
  1 27  1  0
  1 28  1  0
  1 29  1  0
  2  3  1  0
  2 26  2  0
  3  4  2  0
  3 30  1  0
  4  5  1  0
  4 24  1  0
  5  6  1  0
  5 22  1  0
  6  7  1  0
  6 31  1  0
  6 32  1  0
  7  8  1  0
  7 33  1  0
  7 34  1  0
  8  9  1  0
  8 22  1  0
  8 35  1  1
  9 10  1  0
  9 36  1  0
 10 11  2  0
 10 12  1  0
 12 13  1  0
 12 14  1  0
 13 37  1  0
 13 38  1  0
 13 39  1  0
 14 15  1  0
 14 40  1  0
 14 41  1  0
 15 16  1  0
 15 21  1  0
 15 42  1  6
 16 17  1  0
 16 43  1  0
 16 44  1  0
 17 18  1  0
 17 45  1  0
 17 46  1  0
 18 19  1  0
 18 20  1  0
 19 47  1  0
 19 48  1  0
 19 49  1  0
 20 21  1  0
 20 50  1  0
 20 51  1  0
 21 52  1  0
 21 53  1  0
 22 23  2  0
 24 25  1  0
 24 26  1  0
 25 54  1  0
 25 55  1  0
 25 56  1  0
M  END

