
     RDKit          3D

 39 40  0  0  0  0  0  0  0  0999 V2000
    5.7341   -0.5752    0.1880 C   0  0  0  0  0  0  0  0  0  0  0  0
    4.3578    0.1090    0.2006 C   0  0  0  0  0  0  0  0  0  0  0  0
    4.0677    0.8953   -1.0591 C   0  0  0  0  0  0  0  0  0  0  0  0
    3.4680    0.2864   -2.1746 C   0  0  0  0  0  0  0  0  0  0  0  0
    3.2347    0.9947   -3.3510 C   0  0  0  0  0  0  0  0  0  0  0  0
    3.5942    2.3525   -3.4599 C   0  0  0  0  0  0  0  0  0  0  0  0
    3.3467    3.0984   -4.6902 C   0  0  0  0  0  0  0  0  0  0  0  0
    2.7604    2.7767   -5.8924 C   0  0  0  0  0  0  0  0  0  0  0  0
    2.8216    3.9518   -6.7057 C   0  0  0  0  0  0  0  0  0  0  0  0
    3.4328    4.9197   -5.9532 C   0  0  0  0  0  0  0  0  0  0  0  0
    3.8235    6.3476   -6.1994 C   0  0  0  0  0  0  0  0  0  0  0  0
    5.2548    6.6384   -6.1744 N   0  0  0  0  0  0  0  0  0  0  0  0
    6.0911    5.9744   -7.1800 C   0  0  1  0  0  0  0  0  0  0  0  0
    5.8423    6.5687   -8.5700 C   0  0  0  0  0  0  0  0  0  0  0  0
    7.5568    6.1302   -6.7712 C   0  0  0  0  0  0  0  0  0  0  0  0
    3.7530    4.4030   -4.7319 O   0  0  0  0  0  0  0  0  0  0  0  0
    4.1938    2.9673   -2.3441 C   0  0  0  0  0  0  0  0  0  0  0  0
    4.4235    2.2485   -1.1716 C   0  0  0  0  0  0  0  0  0  0  0  0
    5.9065   -1.1365    1.1208 H   0  0  0  0  0  0  0  0  0  0  0  0
    6.5442    0.1642    0.0819 H   0  0  0  0  0  0  0  0  0  0  0  0
    5.8195   -1.2811   -0.6537 H   0  0  0  0  0  0  0  0  0  0  0  0
    4.2954    0.7816    1.0728 H   0  0  0  0  0  0  0  0  0  0  0  0
    3.5747   -0.6551    0.3425 H   0  0  0  0  0  0  0  0  0  0  0  0
    3.1735   -0.7659   -2.1184 H   0  0  0  0  0  0  0  0  0  0  0  0
    2.7645    0.4871   -4.1963 H   0  0  0  0  0  0  0  0  0  0  0  0
    2.3347    1.8141   -6.1658 H   0  0  0  0  0  0  0  0  0  0  0  0
    2.4549    4.0684   -7.7236 H   0  0  0  0  0  0  0  0  0  0  0  0
    3.3432    6.9870   -5.4378 H   0  0  0  0  0  0  0  0  0  0  0  0
    3.3979    6.6516   -7.1677 H   0  0  0  0  0  0  0  0  0  0  0  0
    5.6143    6.4272   -5.2444 H   0  0  0  0  0  0  0  0  0  0  0  0
    5.8701    4.8850   -7.2356 H   0  0  0  0  0  0  0  0  0  0  0  0
    6.0554    7.6500   -8.5672 H   0  0  0  0  0  0  0  0  0  0  0  0
    4.8006    6.4296   -8.8996 H   0  0  0  0  0  0  0  0  0  0  0  0
    6.4871    6.0837   -9.3201 H   0  0  0  0  0  0  0  0  0  0  0  0
    7.8262    7.1967   -6.7000 H   0  0  0  0  0  0  0  0  0  0  0  0
    8.2242    5.6500   -7.5032 H   0  0  0  0  0  0  0  0  0  0  0  0
    7.7481    5.6637   -5.7900 H   0  0  0  0  0  0  0  0  0  0  0  0
    4.4741    4.0202   -2.4024 H   0  0  0  0  0  0  0  0  0  0  0  0
    4.8864    2.7542   -0.3186 H   0  0  0  0  0  0  0  0  0  0  0  0
  1  2  1  0
  1 19  1  0
  1 20  1  0
  1 21  1  0
  2  3  1  0
  2 22  1  0
  2 23  1  0
  3  4  2  0
  3 18  1  0
  4  5  1  0
  4 24  1  0
  5  6  2  0
  5 25  1  0
  6  7  1  0
  6 17  1  0
  7  8  2  0
  7 16  1  0
  8  9  1  0
  8 26  1  0
  9 10  2  0
  9 27  1  0
 10 11  1  0
 10 16  1  0
 11 12  1  0
 11 28  1  0
 11 29  1  0
 12 13  1  0
 12 30  1  0
 13 14  1  0
 13 15  1  0
 13 31  1  6
 14 32  1  0
 14 33  1  0
 14 34  1  0
 15 35  1  0
 15 36  1  0
 15 37  1  0
 17 18  2  0
 17 38  1  0
 18 39  1  0
M  END

