
     RDKit          3D

 70 71  0  0  0  0  0  0  0  0999 V2000
   12.7314   -2.8597    1.5504 C   0  0  0  0  0  0  0  0  0  0  0  0
   11.7383   -1.9933    2.0855 O   0  0  0  0  0  0  0  0  0  0  0  0
   10.4463   -2.4392    2.1146 C   0  0  0  0  0  0  0  0  0  0  0  0
    9.4763   -1.7200    1.4171 C   0  0  0  0  0  0  0  0  0  0  0  0
    8.1110   -2.0540    1.4852 C   0  0  0  0  0  0  0  0  0  0  0  0
    7.0890   -1.2322    0.7325 C   0  0  0  0  0  0  0  0  0  0  0  0
    7.0642    0.2725    1.0397 C   0  0  0  0  0  0  0  0  0  0  0  0
    6.7215    1.0878    0.2060 O   0  0  0  0  0  0  0  0  0  0  0  0
    7.4080    0.6200    2.3240 N   0  0  0  0  0  0  0  0  0  0  0  0
    7.6711    1.9822    2.7070 C   0  0  1  0  0  0  0  0  0  0  0  0
    6.6920    2.5130    3.7491 C   0  0  0  0  0  0  0  0  0  0  0  0
    6.9004    3.9946    4.1055 C   0  0  0  0  0  0  0  0  0  0  0  0
    5.8830    4.5113    5.0987 C   0  0  0  0  0  0  0  0  0  0  0  0
    6.1317    4.4895    6.4763 C   0  0  0  0  0  0  0  0  0  0  0  0
    5.1768    4.9335    7.3978 C   0  0  0  0  0  0  0  0  0  0  0  0
    3.9277    5.4203    6.9828 C   0  0  0  0  0  0  0  0  0  0  0  0
    2.8503    5.9212    7.9648 C   0  0  1  0  0  0  0  0  0  0  0  0
    3.3054    5.8161    9.4316 C   0  0  0  0  0  0  0  0  0  0  0  0
    2.5291    7.4037    7.6645 C   0  0  0  0  0  0  0  0  0  0  0  0
    1.5674    5.0743    7.7960 C   0  0  0  0  0  0  0  0  0  0  0  0
    3.6845    5.4414    5.5962 C   0  0  0  0  0  0  0  0  0  0  0  0
    4.6354    4.9989    4.6773 C   0  0  0  0  0  0  0  0  0  0  0  0
    8.9911    2.0745    3.2870 O   0  0  0  0  0  0  0  0  0  0  0  0
   10.0654    1.9908    2.4604 C   0  0  0  0  0  0  0  0  0  0  0  0
    9.9600    1.8521    1.2674 O   0  0  0  0  0  0  0  0  0  0  0  0
   11.3891    2.1014    3.2302 C   0  0  1  0  0  0  0  0  0  0  0  0
   11.4582    0.9899    4.2999 C   0  0  0  0  0  0  0  0  0  0  0  0
   12.5475    1.9412    2.2346 C   0  0  0  0  0  0  0  0  0  0  0  0
   11.4492    3.4886    3.9062 C   0  0  0  0  0  0  0  0  0  0  0  0
    7.7430   -3.1574    2.2641 C   0  0  0  0  0  0  0  0  0  0  0  0
    8.7062   -3.8984    2.9583 C   0  0  0  0  0  0  0  0  0  0  0  0
   10.0575   -3.5466    2.9053 C   0  0  0  0  0  0  0  0  0  0  0  0
   11.0225   -4.2098    3.5982 O   0  0  0  0  0  0  0  0  0  0  0  0
   13.6719   -2.2916    1.5477 H   0  0  0  0  0  0  0  0  0  0  0  0
   12.4857   -3.1470    0.5122 H   0  0  0  0  0  0  0  0  0  0  0  0
   12.8550   -3.7674    2.1606 H   0  0  0  0  0  0  0  0  0  0  0  0
    9.8125   -0.8583    0.8351 H   0  0  0  0  0  0  0  0  0  0  0  0
    6.0741   -1.6220    0.9198 H   0  0  0  0  0  0  0  0  0  0  0  0
    7.2438   -1.2923   -0.3560 H   0  0  0  0  0  0  0  0  0  0  0  0
    7.6977   -0.1101    2.9666 H   0  0  0  0  0  0  0  0  0  0  0  0
    7.6320    2.5745    1.7808 H   0  0  0  0  0  0  0  0  0  0  0  0
    6.7624    1.8922    4.6592 H   0  0  0  0  0  0  0  0  0  0  0  0
    5.6787    2.3653    3.3424 H   0  0  0  0  0  0  0  0  0  0  0  0
    6.8506    4.5928    3.1792 H   0  0  0  0  0  0  0  0  0  0  0  0
    7.9155    4.1257    4.5111 H   0  0  0  0  0  0  0  0  0  0  0  0
    7.0954    4.1229    6.8433 H   0  0  0  0  0  0  0  0  0  0  0  0
    5.4289    4.8965    8.4580 H   0  0  0  0  0  0  0  0  0  0  0  0
    4.2028    6.4234    9.6282 H   0  0  0  0  0  0  0  0  0  0  0  0
    3.5258    4.7763    9.7202 H   0  0  0  0  0  0  0  0  0  0  0  0
    2.5072    6.1814   10.0970 H   0  0  0  0  0  0  0  0  0  0  0  0
    3.4256    8.0332    7.7814 H   0  0  0  0  0  0  0  0  0  0  0  0
    1.7563    7.7790    8.3558 H   0  0  0  0  0  0  0  0  0  0  0  0
    2.1543    7.5433    6.6391 H   0  0  0  0  0  0  0  0  0  0  0  0
    1.7649    4.0118    8.0102 H   0  0  0  0  0  0  0  0  0  0  0  0
    1.1635    5.1397    6.7742 H   0  0  0  0  0  0  0  0  0  0  0  0
    0.7820    5.4213    8.4878 H   0  0  0  0  0  0  0  0  0  0  0  0
    2.7307    5.8160    5.2166 H   0  0  0  0  0  0  0  0  0  0  0  0
    4.4053    5.0388    3.6081 H   0  0  0  0  0  0  0  0  0  0  0  0
   11.4620   -0.0083    3.8351 H   0  0  0  0  0  0  0  0  0  0  0  0
   10.6140    1.0547    5.0015 H   0  0  0  0  0  0  0  0  0  0  0  0
   12.3918    1.0926    4.8766 H   0  0  0  0  0  0  0  0  0  0  0  0
   12.5159    0.9522    1.7546 H   0  0  0  0  0  0  0  0  0  0  0  0
   13.5096    2.0409    2.7619 H   0  0  0  0  0  0  0  0  0  0  0  0
   12.5036    2.7024    1.4419 H   0  0  0  0  0  0  0  0  0  0  0  0
   10.6389    3.6145    4.6391 H   0  0  0  0  0  0  0  0  0  0  0  0
   11.3729    4.3001    3.1645 H   0  0  0  0  0  0  0  0  0  0  0  0
   12.4098    3.6042    4.4334 H   0  0  0  0  0  0  0  0  0  0  0  0
    6.6919   -3.4500    2.3349 H   0  0  0  0  0  0  0  0  0  0  0  0
    8.4025   -4.7553    3.5688 H   0  0  0  0  0  0  0  0  0  0  0  0
   10.6189   -4.9325    4.0967 H   0  0  0  0  0  0  0  0  0  0  0  0
  1  2  1  0
  1 34  1  0
  1 35  1  0
  1 36  1  0
  2  3  1  0
  3  4  2  0
  3 32  1  0
  4  5  1  0
  4 37  1  0
  5  6  1  0
  5 30  2  0
  6  7  1  0
  6 38  1  0
  6 39  1  0
  7  8  2  0
  7  9  1  0
  9 10  1  0
  9 40  1  0
 10 11  1  0
 10 23  1  0
 10 41  1  6
 11 12  1  0
 11 42  1  0
 11 43  1  0
 12 13  1  0
 12 44  1  0
 12 45  1  0
 13 14  2  0
 13 22  1  0
 14 15  1  0
 14 46  1  0
 15 16  2  0
 15 47  1  0
 16 17  1  0
 16 21  1  0
 17 18  1  1
 17 19  1  0
 17 20  1  0
 18 48  1  0
 18 49  1  0
 18 50  1  0
 19 51  1  0
 19 52  1  0
 19 53  1  0
 20 54  1  0
 20 55  1  0
 20 56  1  0
 21 22  2  0
 21 57  1  0
 22 58  1  0
 23 24  1  0
 24 25  2  0
 26 24  1  6
 26 27  1  0
 26 28  1  0
 26 29  1  0
 27 59  1  0
 27 60  1  0
 27 61  1  0
 28 62  1  0
 28 63  1  0
 28 64  1  0
 29 65  1  0
 29 66  1  0
 29 67  1  0
 30 31  1  0
 30 68  1  0
 31 32  2  0
 31 69  1  0
 32 33  1  0
 33 70  1  0
M  END

