
     RDKit          3D

 41 43  0  0  0  0  0  0  0  0999 V2000
    1.1158    0.1459    0.0784 O   0  0  0  0  0  0  0  0  0  0  0  0
    2.3094    0.2265    0.1701 C   0  0  0  0  0  0  0  0  0  0  0  0
    2.9686   -0.1482    1.2826 O   0  0  0  0  0  0  0  0  0  0  0  0
    3.2051    0.8380   -0.9234 C   0  0  2  0  0  0  0  0  0  0  0  0
    2.6415    0.6802   -2.3442 C   0  0  0  0  0  0  0  0  0  0  0  0
    2.8159   -0.7339   -2.8994 C   0  0  0  0  0  0  0  0  0  0  0  0
    4.2523   -1.2620   -2.7507 C   0  0  2  0  0  0  0  0  0  0  0  0
    4.3511   -2.7336   -3.1900 C   0  0  0  0  0  0  0  0  0  0  0  0
    5.7089   -3.3701   -2.8790 C   0  0  0  0  0  0  0  0  0  0  0  0
    6.0482   -3.2289   -1.3909 C   0  0  0  0  0  0  0  0  0  0  0  0
    6.0593   -1.7530   -0.9757 C   0  0  0  0  0  0  0  0  0  0  0  0
    4.7068   -1.0959   -1.2846 C   0  0  1  0  0  0  0  0  0  0  0  0
    4.5919    0.3245   -0.8342 N   0  0  0  0  0  0  0  0  0  0  0  0
    5.6417    1.2166   -1.0028 C   0  0  0  0  0  0  0  0  0  0  0  0
    6.6659    0.9819   -1.6118 O   0  0  0  0  0  0  0  0  0  0  0  0
    5.5293    2.5789   -0.2779 C   0  0  0  0  0  0  0  0  0  0  0  0
    5.3701    3.6788   -1.2058 N   0  0  0  0  0  0  0  0  0  0  0  0
    6.3120    4.4552   -1.7945 C   0  0  0  0  0  0  0  0  0  0  0  0
    5.7453    5.2939   -2.6396 N   0  0  0  0  0  0  0  0  0  0  0  0
    4.4274    4.9782   -2.5438 C   0  0  0  0  0  0  0  0  0  0  0  0
    4.1516    4.0025   -1.6912 N   0  0  0  0  0  0  0  0  0  0  0  0
    3.9212   -0.0409    1.1068 H   0  0  0  0  0  0  0  0  0  0  0  0
    3.2095    1.9183   -0.7147 H   0  0  0  0  0  0  0  0  0  0  0  0
    3.1604    1.4120   -2.9842 H   0  0  0  0  0  0  0  0  0  0  0  0
    1.5791    0.9629   -2.3199 H   0  0  0  0  0  0  0  0  0  0  0  0
    2.5115   -0.7590   -3.9589 H   0  0  0  0  0  0  0  0  0  0  0  0
    2.1329   -1.4191   -2.3657 H   0  0  0  0  0  0  0  0  0  0  0  0
    4.9348   -0.6572   -3.3761 H   0  0  0  0  0  0  0  0  0  0  0  0
    4.1233   -2.8044   -4.2671 H   0  0  0  0  0  0  0  0  0  0  0  0
    3.5605   -3.3087   -2.6724 H   0  0  0  0  0  0  0  0  0  0  0  0
    6.4966   -2.8803   -3.4796 H   0  0  0  0  0  0  0  0  0  0  0  0
    5.7041   -4.4321   -3.1755 H   0  0  0  0  0  0  0  0  0  0  0  0
    7.0303   -3.6788   -1.1721 H   0  0  0  0  0  0  0  0  0  0  0  0
    5.3075   -3.7894   -0.7908 H   0  0  0  0  0  0  0  0  0  0  0  0
    6.8600   -1.2297   -1.5127 H   0  0  0  0  0  0  0  0  0  0  0  0
    6.2769   -1.6521    0.1021 H   0  0  0  0  0  0  0  0  0  0  0  0
    3.9600   -1.6313   -0.6684 H   0  0  0  0  0  0  0  0  0  0  0  0
    6.4913    2.7077    0.2373 H   0  0  0  0  0  0  0  0  0  0  0  0
    4.7268    2.6288    0.4682 H   0  0  0  0  0  0  0  0  0  0  0  0
    7.3748    4.3660   -1.5706 H   0  0  0  0  0  0  0  0  0  0  0  0
    3.6448    5.4817   -3.1112 H   0  0  0  0  0  0  0  0  0  0  0  0
  1  2  2  0
  2  3  1  0
  2  4  1  0
  3 22  1  0
  4  5  1  0
  4 13  1  0
  4 23  1  1
  5  6  1  0
  5 24  1  0
  5 25  1  0
  6  7  1  0
  6 26  1  0
  6 27  1  0
  7  8  1  0
  7 12  1  0
  7 28  1  6
  8  9  1  0
  8 29  1  0
  8 30  1  0
  9 10  1  0
  9 31  1  0
  9 32  1  0
 10 11  1  0
 10 33  1  0
 10 34  1  0
 11 12  1  0
 11 35  1  0
 11 36  1  0
 12 13  1  0
 12 37  1  1
 13 14  1  0
 14 15  2  0
 14 16  1  0
 16 17  1  0
 16 38  1  0
 16 39  1  0
 17 18  1  0
 17 21  1  0
 18 19  2  0
 18 40  1  0
 19 20  1  0
 20 21  2  0
 20 41  1  0
M  END

