
     RDKit          3D

 48 51  0  0  0  0  0  0  0  0999 V2000
    3.6861   -2.3700    3.2875 C   0  0  0  0  0  0  0  0  0  0  0  0
    3.1124   -3.0451    2.0368 C   0  0  1  0  0  0  0  0  0  0  0  0
    1.6307   -3.3922    2.2258 C   0  0  0  0  0  0  0  0  0  0  0  0
    3.3084   -2.1855    0.7633 C   0  0  0  0  0  0  0  0  0  0  0  0
    4.7485   -1.9331    0.3756 C   0  0  0  0  0  0  0  0  0  0  0  0
    5.5189   -2.9438   -0.2274 C   0  0  0  0  0  0  0  0  0  0  0  0
    6.8514   -2.7337   -0.5723 C   0  0  0  0  0  0  0  0  0  0  0  0
    7.4722   -1.4939   -0.3281 C   0  0  0  0  0  0  0  0  0  0  0  0
    8.8825   -1.2779   -0.6978 C   0  0  0  0  0  0  0  0  0  0  0  0
    9.6615   -0.1021   -0.5238 C   0  0  0  0  0  0  0  0  0  0  0  0
   10.9185   -0.4141   -1.0319 C   0  0  0  0  0  0  0  0  0  0  0  0
   12.0706    0.2739   -1.1577 N   0  0  0  0  0  0  0  0  0  0  0  0
   13.1112   -0.3374   -1.6965 C   0  0  0  0  0  0  0  0  0  0  0  0
   14.2948    0.3356   -1.8008 N   0  0  0  0  0  0  0  0  0  0  0  0
   14.4679    1.7325   -1.4443 C   0  0  0  0  0  0  0  0  0  0  0  0
   15.9064    2.0268   -1.0852 C   0  0  1  0  0  0  0  0  0  0  0  0
   16.9253    2.2949   -2.1719 C   0  0  0  0  0  0  0  0  0  0  0  0
   16.4633    3.4124   -1.2714 C   0  0  0  0  0  0  0  0  0  0  0  0
   13.0454   -1.7054   -2.1650 C   0  0  0  0  0  0  0  0  0  0  0  0
   11.8671   -2.3823   -2.0365 C   0  0  0  0  0  0  0  0  0  0  0  0
   10.8075   -1.7452   -1.4719 N   0  0  0  0  0  0  0  0  0  0  0  0
    9.5837   -2.2673   -1.2731 N   0  0  0  0  0  0  0  0  0  0  0  0
    6.7063   -0.4798    0.2696 C   0  0  0  0  0  0  0  0  0  0  0  0
    5.3709   -0.6984    0.6135 C   0  0  0  0  0  0  0  0  0  0  0  0
    3.5685   -3.0149    4.1736 H   0  0  0  0  0  0  0  0  0  0  0  0
    3.1637   -1.4199    3.4971 H   0  0  0  0  0  0  0  0  0  0  0  0
    4.7577   -2.1449    3.1751 H   0  0  0  0  0  0  0  0  0  0  0  0
    3.6643   -3.9909    1.8806 H   0  0  0  0  0  0  0  0  0  0  0  0
    1.0267   -2.4800    2.3737 H   0  0  0  0  0  0  0  0  0  0  0  0
    1.4798   -4.0357    3.1077 H   0  0  0  0  0  0  0  0  0  0  0  0
    1.2229   -3.9220    1.3493 H   0  0  0  0  0  0  0  0  0  0  0  0
    2.7900   -1.2209    0.9057 H   0  0  0  0  0  0  0  0  0  0  0  0
    2.7961   -2.6914   -0.0737 H   0  0  0  0  0  0  0  0  0  0  0  0
    5.0602   -3.9153   -0.4368 H   0  0  0  0  0  0  0  0  0  0  0  0
    7.4353   -3.5265   -1.0426 H   0  0  0  0  0  0  0  0  0  0  0  0
    9.3711    0.8503   -0.0925 H   0  0  0  0  0  0  0  0  0  0  0  0
   15.0365   -0.0990   -2.3349 H   0  0  0  0  0  0  0  0  0  0  0  0
   13.7957    1.9437   -0.5998 H   0  0  0  0  0  0  0  0  0  0  0  0
   14.1451    2.3990   -2.2697 H   0  0  0  0  0  0  0  0  0  0  0  0
   16.2679    1.4702   -0.2129 H   0  0  0  0  0  0  0  0  0  0  0  0
   16.5782    2.3051   -3.2106 H   0  0  0  0  0  0  0  0  0  0  0  0
   17.9399    1.9072   -2.0438 H   0  0  0  0  0  0  0  0  0  0  0  0
   15.8057    4.1753   -1.6994 H   0  0  0  0  0  0  0  0  0  0  0  0
   17.1566    3.7950   -0.5177 H   0  0  0  0  0  0  0  0  0  0  0  0
   13.9142   -2.1938   -2.6080 H   0  0  0  0  0  0  0  0  0  0  0  0
   11.6976   -3.4127   -2.3521 H   0  0  0  0  0  0  0  0  0  0  0  0
    7.1540    0.4961    0.4689 H   0  0  0  0  0  0  0  0  0  0  0  0
    4.7977    0.1115    1.0741 H   0  0  0  0  0  0  0  0  0  0  0  0
  1  2  1  0
  1 25  1  0
  1 26  1  0
  1 27  1  0
  2  3  1  0
  2  4  1  0
  2 28  1  6
  3 29  1  0
  3 30  1  0
  3 31  1  0
  4  5  1  0
  4 32  1  0
  4 33  1  0
  5  6  2  0
  5 24  1  0
  6  7  1  0
  6 34  1  0
  7  8  2  0
  7 35  1  0
  8  9  1  0
  8 23  1  0
  9 10  1  0
  9 22  2  0
 10 11  2  0
 10 36  1  0
 11 12  1  0
 11 21  1  0
 12 13  2  0
 13 14  1  0
 13 19  1  0
 14 15  1  0
 14 37  1  0
 15 16  1  0
 15 38  1  0
 15 39  1  0
 16 17  1  0
 16 18  1  0
 16 40  1  1
 17 18  1  0
 17 41  1  0
 17 42  1  0
 18 43  1  0
 18 44  1  0
 19 20  2  0
 19 45  1  0
 20 21  1  0
 20 46  1  0
 21 22  1  0
 23 24  2  0
 23 47  1  0
 24 48  1  0
M  END

