
     RDKit          3D

 37 39  0  0  0  0  0  0  0  0999 V2000
    0.4263    0.2293    0.3024 C   0  0  0  0  0  0  0  0  0  0  0  0
    1.9199    0.1213    0.6077 C   0  0  0  0  0  0  0  0  0  0  0  0
    2.7929    0.6022   -0.5557 C   0  0  0  0  0  0  0  0  0  0  0  0
    4.2175    0.4691   -0.3000 N   0  0  0  0  0  0  0  0  0  0  0  0
    5.0824    1.4451    0.1200 C   0  0  0  0  0  0  0  0  0  0  0  0
    6.3057    0.8104    0.3060 C   0  0  0  0  0  0  0  0  0  0  0  0
    7.5022    1.3078    0.7006 O   0  0  0  0  0  0  0  0  0  0  0  0
    7.5541    2.6915    0.9901 C   0  0  0  0  0  0  0  0  0  0  0  0
    8.9874    3.0475    1.3874 C   0  0  1  0  0  0  0  0  0  0  0  0
    9.9958    2.8908    0.2222 C   0  0  0  0  0  0  0  0  0  0  0  0
   10.2201    4.2102   -0.3166 O   0  0  0  0  0  0  0  0  0  0  0  0
    9.8297    5.1103    0.6216 C   0  0  0  0  0  0  0  0  0  0  0  0
   10.0713    6.4819    0.5614 C   0  0  0  0  0  0  0  0  0  0  0  0
    9.5939    7.2696    1.6179 C   0  0  0  0  0  0  0  0  0  0  0  0
    8.9018    6.7025    2.6951 C   0  0  0  0  0  0  0  0  0  0  0  0
    8.6638    5.3194    2.7319 C   0  0  0  0  0  0  0  0  0  0  0  0
    9.1348    4.5253    1.6900 C   0  0  0  0  0  0  0  0  0  0  0  0
    6.0669   -0.5470   -0.0224 C   0  0  0  0  0  0  0  0  0  0  0  0
    4.7984   -0.7300   -0.3815 N   0  0  0  0  0  0  0  0  0  0  0  0
   -0.1793   -0.1270    1.1499 H   0  0  0  0  0  0  0  0  0  0  0  0
    0.1509   -0.3740   -0.5787 H   0  0  0  0  0  0  0  0  0  0  0  0
    0.1273    1.2712    0.0966 H   0  0  0  0  0  0  0  0  0  0  0  0
    2.1929   -0.9235    0.8293 H   0  0  0  0  0  0  0  0  0  0  0  0
    2.1689    0.7084    1.5088 H   0  0  0  0  0  0  0  0  0  0  0  0
    2.5928    1.6620   -0.7814 H   0  0  0  0  0  0  0  0  0  0  0  0
    2.5673    0.0225   -1.4648 H   0  0  0  0  0  0  0  0  0  0  0  0
    4.7699    2.4789    0.2379 H   0  0  0  0  0  0  0  0  0  0  0  0
    6.8573    2.9376    1.8143 H   0  0  0  0  0  0  0  0  0  0  0  0
    7.2463    3.2818    0.1048 H   0  0  0  0  0  0  0  0  0  0  0  0
    9.2707    2.4048    2.2361 H   0  0  0  0  0  0  0  0  0  0  0  0
    9.6282    2.2412   -0.5839 H   0  0  0  0  0  0  0  0  0  0  0  0
   10.9610    2.4951    0.5826 H   0  0  0  0  0  0  0  0  0  0  0  0
   10.6172    6.9137   -0.2792 H   0  0  0  0  0  0  0  0  0  0  0  0
    9.7737    8.3478    1.6008 H   0  0  0  0  0  0  0  0  0  0  0  0
    8.5471    7.3381    3.5096 H   0  0  0  0  0  0  0  0  0  0  0  0
    8.1196    4.8756    3.5705 H   0  0  0  0  0  0  0  0  0  0  0  0
    6.7769   -1.3727   -0.0123 H   0  0  0  0  0  0  0  0  0  0  0  0
  1  2  1  0
  1 20  1  0
  1 21  1  0
  1 22  1  0
  2  3  1  0
  2 23  1  0
  2 24  1  0
  3  4  1  0
  3 25  1  0
  3 26  1  0
  4  5  1  0
  4 19  1  0
  5  6  2  0
  5 27  1  0
  6  7  1  0
  6 18  1  0
  7  8  1  0
  8  9  1  0
  8 28  1  0
  8 29  1  0
  9 10  1  0
  9 17  1  0
  9 30  1  1
 10 11  1  0
 10 31  1  0
 10 32  1  0
 11 12  1  0
 12 13  1  0
 12 17  2  0
 13 14  2  0
 13 33  1  0
 14 15  1  0
 14 34  1  0
 15 16  2  0
 15 35  1  0
 16 17  1  0
 16 36  1  0
 18 19  2  0
 18 37  1  0
M  END

