
     RDKit          3D

 29 30  0  0  0  0  0  0  0  0999 V2000
    2.1165    1.0867   -0.3857 C   0  0  0  0  0  0  0  0  0  0  0  0
    1.8772   -0.1551    0.2477 O   0  0  0  0  0  0  0  0  0  0  0  0
    2.5845   -0.3650    1.4208 C   0  0  1  0  0  0  0  0  0  0  0  0
    2.1465    0.2861    2.7751 C   0  0  1  0  0  0  0  0  0  0  0  0
    0.2456    0.7736    2.8232 Br  0  0  0  0  0  0  0  0  0  0  0  0
    2.4534   -1.0646    3.4579 C   0  0  0  0  0  0  0  0  0  0  0  0
    2.3911   -1.7443    2.0781 C   0  0  2  0  0  0  0  0  0  0  0  0
    3.3740   -2.7419    1.8924 O   0  0  0  0  0  0  0  0  0  0  0  0
    3.3336   -3.5661    0.8308 C   0  0  0  0  0  0  0  0  0  0  0  0
    2.6003   -3.2826   -0.3325 C   0  0  0  0  0  0  0  0  0  0  0  0
    2.6240   -4.1502   -1.4273 C   0  0  0  0  0  0  0  0  0  0  0  0
    1.6887   -3.7427   -2.8308 Cl  0  0  0  0  0  0  0  0  0  0  0  0
    3.4056   -5.3198   -1.3982 C   0  0  0  0  0  0  0  0  0  0  0  0
    3.4620   -6.4117   -2.7484 Cl  0  0  0  0  0  0  0  0  0  0  0  0
    4.1541   -5.5970   -0.2568 C   0  0  0  0  0  0  0  0  0  0  0  0
    4.1074   -4.7498    0.8491 C   0  0  0  0  0  0  0  0  0  0  0  0
    4.8910   -5.1549    2.0302 N   0  0  0  0  0  0  0  0  0  0  0  0
    4.4789   -4.8346    3.1300 O   0  0  0  0  0  0  0  0  0  0  0  0
    5.8968   -5.8180    1.8213 O   0  0  0  0  0  0  0  0  0  0  0  0
    1.5329    1.0963   -1.3163 H   0  0  0  0  0  0  0  0  0  0  0  0
    3.1882    1.2136   -0.6324 H   0  0  0  0  0  0  0  0  0  0  0  0
    1.7911    1.9330    0.2449 H   0  0  0  0  0  0  0  0  0  0  0  0
    3.6685   -0.1670    1.2880 H   0  0  0  0  0  0  0  0  0  0  0  0
    2.6902    1.1737    3.1161 H   0  0  0  0  0  0  0  0  0  0  0  0
    1.7574   -1.4168    4.2293 H   0  0  0  0  0  0  0  0  0  0  0  0
    3.4802   -1.0877    3.8539 H   0  0  0  0  0  0  0  0  0  0  0  0
    1.3866   -2.1379    1.8521 H   0  0  0  0  0  0  0  0  0  0  0  0
    2.0351   -2.3532   -0.4100 H   0  0  0  0  0  0  0  0  0  0  0  0
    4.7825   -6.4853   -0.2095 H   0  0  0  0  0  0  0  0  0  0  0  0
  1  2  1  0
  1 20  1  0
  1 21  1  0
  1 22  1  0
  2  3  1  0
  3  4  1  0
  3  7  1  0
  3 23  1  6
  4  5  1  0
  4  6  1  0
  4 24  1  1
  6  7  1  0
  6 25  1  0
  6 26  1  0
  7  8  1  0
  7 27  1  6
  8  9  1  0
  9 10  2  0
  9 16  1  0
 10 11  1  0
 10 28  1  0
 11 12  1  0
 11 13  2  0
 13 14  1  0
 13 15  1  0
 15 16  2  0
 15 29  1  0
 16 17  1  0
 17 18  2  0
 17 19  1  0
M  CHG  2  17   1  19  -1
M  END

