
     RDKit          3D

 31 33  0  0  0  0  0  0  0  0999 V2000
    1.1228    0.2006   -0.4863 O   0  0  0  0  0  0  0  0  0  0  0  0
    2.3114    0.0357   -0.2503 C   0  0  0  0  0  0  0  0  0  0  0  0
    3.0660   -1.0007   -0.6912 N   0  0  0  0  0  0  0  0  0  0  0  0
    2.5416   -2.0429   -1.5602 C   0  0  0  0  0  0  0  0  0  0  0  0
    2.9061   -1.8606   -3.0231 C   0  0  0  0  0  0  0  0  0  0  0  0
    3.8239   -2.7132   -3.6507 C   0  0  0  0  0  0  0  0  0  0  0  0
    4.1653   -2.5316   -4.9956 C   0  0  0  0  0  0  0  0  0  0  0  0
    3.5906   -1.4900   -5.7273 C   0  0  0  0  0  0  0  0  0  0  0  0
    2.6715   -0.6334   -5.1097 C   0  0  0  0  0  0  0  0  0  0  0  0
    2.3303   -0.8175   -3.7687 C   0  0  0  0  0  0  0  0  0  0  0  0
    3.0749    1.0108    0.5967 C   0  0  0  0  0  0  0  0  0  0  0  0
    4.3367    0.9283    0.8789 N   0  0  0  0  0  0  0  0  0  0  0  0
    4.7371    1.9814    1.6739 C   0  0  0  0  0  0  0  0  0  0  0  0
    6.0405    2.1947    2.1601 C   0  0  0  0  0  0  0  0  0  0  0  0
    6.2877    3.3076    2.9545 C   0  0  0  0  0  0  0  0  0  0  0  0
    5.2547    4.2137    3.2730 C   0  0  0  0  0  0  0  0  0  0  0  0
    3.9576    4.0230    2.8030 C   0  0  0  0  0  0  0  0  0  0  0  0
    3.7025    2.9021    2.0010 C   0  0  0  0  0  0  0  0  0  0  0  0
    2.2043    2.3869    1.2631 S   0  0  0  0  0  0  0  0  0  0  0  0
    4.0577   -0.9667   -0.4722 H   0  0  0  0  0  0  0  0  0  0  0  0
    1.4489   -2.0241   -1.4384 H   0  0  0  0  0  0  0  0  0  0  0  0
    2.9055   -3.0194   -1.2025 H   0  0  0  0  0  0  0  0  0  0  0  0
    4.2756   -3.5326   -3.0829 H   0  0  0  0  0  0  0  0  0  0  0  0
    4.8818   -3.2066   -5.4711 H   0  0  0  0  0  0  0  0  0  0  0  0
    3.8549   -1.3460   -6.7781 H   0  0  0  0  0  0  0  0  0  0  0  0
    2.2141    0.1799   -5.6794 H   0  0  0  0  0  0  0  0  0  0  0  0
    1.6072   -0.1532   -3.2875 H   0  0  0  0  0  0  0  0  0  0  0  0
    6.8285    1.4839    1.9042 H   0  0  0  0  0  0  0  0  0  0  0  0
    7.2947    3.4859    3.3389 H   0  0  0  0  0  0  0  0  0  0  0  0
    5.4750    5.0814    3.8996 H   0  0  0  0  0  0  0  0  0  0  0  0
    3.1632    4.7291    3.0538 H   0  0  0  0  0  0  0  0  0  0  0  0
  1  2  2  0
  2  3  1  0
  2 11  1  0
  3  4  1  0
  3 20  1  0
  4  5  1  0
  4 21  1  0
  4 22  1  0
  5  6  2  0
  5 10  1  0
  6  7  1  0
  6 23  1  0
  7  8  2  0
  7 24  1  0
  8  9  1  0
  8 25  1  0
  9 10  2  0
  9 26  1  0
 10 27  1  0
 11 12  2  0
 11 19  1  0
 12 13  1  0
 13 14  2  0
 13 18  1  0
 14 15  1  0
 14 28  1  0
 15 16  2  0
 15 29  1  0
 16 17  1  0
 16 30  1  0
 17 18  2  0
 17 31  1  0
 18 19  1  0
M  END

