
     RDKit          3D

 41 43  0  0  0  0  0  0  0  0999 V2000
    5.3118    1.0941    1.4395 C   0  0  0  0  0  0  0  0  0  0  0  0
    4.6844    0.2412    0.3700 C   0  0  0  0  0  0  0  0  0  0  0  0
    4.7005    0.6114   -0.9841 C   0  0  0  0  0  0  0  0  0  0  0  0
    4.0726   -0.2414   -1.9016 C   0  0  0  0  0  0  0  0  0  0  0  0
    4.0161    0.0606   -3.3736 C   0  0  0  0  0  0  0  0  0  0  0  0
    3.4900   -1.3757   -1.4963 N   0  0  0  0  0  0  0  0  0  0  0  0
    3.5602   -1.6514   -0.1918 C   0  0  0  0  0  0  0  0  0  0  0  0
    2.9604   -2.8174    0.2319 N   0  0  0  0  0  0  0  0  0  0  0  0
    2.4156   -3.7346   -0.6276 N   0  0  0  0  0  0  0  0  0  0  0  0
    3.5623   -4.8436   -1.3673 S   0  0  1  0  0  0  0  0  0  0  0  0
    2.9389   -5.1805   -2.6514 O   0  0  0  0  0  0  0  0  0  0  0  0
    4.9254   -4.3162   -1.2646 O   0  0  0  0  0  0  0  0  0  0  0  0
    3.4107   -6.2577   -0.2937 C   0  0  0  0  0  0  0  0  0  0  0  0
    4.4891   -6.6726    0.3965 C   0  0  0  0  0  0  0  0  0  0  0  0
    4.4434   -7.8981    1.1971 C   0  0  0  0  0  0  0  0  0  0  0  0
    5.6186   -8.4847    1.6954 C   0  0  0  0  0  0  0  0  0  0  0  0
    5.5651   -9.6718    2.4278 C   0  0  0  0  0  0  0  0  0  0  0  0
    4.3297  -10.2785    2.6715 C   0  0  0  0  0  0  0  0  0  0  0  0
    3.1525   -9.6935    2.1890 C   0  0  0  0  0  0  0  0  0  0  0  0
    3.1896   -8.5059    1.4545 C   0  0  0  0  0  0  0  0  0  0  0  0
    1.9307   -7.8001    0.9927 C   0  0  0  0  0  0  0  0  0  0  0  0
    2.1155   -7.0269   -0.3206 C   0  0  0  0  0  0  0  0  0  0  0  0
    4.1090   -0.8970    0.7672 N   0  0  0  0  0  0  0  0  0  0  0  0
    5.7330    2.0243    1.0336 H   0  0  0  0  0  0  0  0  0  0  0  0
    6.1123    0.5313    1.9461 H   0  0  0  0  0  0  0  0  0  0  0  0
    4.5638    1.3431    2.2090 H   0  0  0  0  0  0  0  0  0  0  0  0
    5.1780    1.5365   -1.3098 H   0  0  0  0  0  0  0  0  0  0  0  0
    4.4754    1.0289   -3.6161 H   0  0  0  0  0  0  0  0  0  0  0  0
    2.9700    0.0602   -3.7187 H   0  0  0  0  0  0  0  0  0  0  0  0
    4.5345   -0.7332   -3.9353 H   0  0  0  0  0  0  0  0  0  0  0  0
    2.9182   -3.0058    1.2258 H   0  0  0  0  0  0  0  0  0  0  0  0
    1.9629   -3.2696   -1.4226 H   0  0  0  0  0  0  0  0  0  0  0  0
    5.4252   -6.1125    0.3262 H   0  0  0  0  0  0  0  0  0  0  0  0
    6.5808   -8.0060    1.4937 H   0  0  0  0  0  0  0  0  0  0  0  0
    6.4851  -10.1241    2.8058 H   0  0  0  0  0  0  0  0  0  0  0  0
    4.2793  -11.2098    3.2413 H   0  0  0  0  0  0  0  0  0  0  0  0
    2.1885  -10.1691    2.3919 H   0  0  0  0  0  0  0  0  0  0  0  0
    1.6339   -7.0838    1.7833 H   0  0  0  0  0  0  0  0  0  0  0  0
    1.1006   -8.5172    0.8999 H   0  0  0  0  0  0  0  0  0  0  0  0
    1.2676   -6.3461   -0.4855 H   0  0  0  0  0  0  0  0  0  0  0  0
    2.1356   -7.7136   -1.1868 H   0  0  0  0  0  0  0  0  0  0  0  0
  1  2  1  0
  1 24  1  0
  1 25  1  0
  1 26  1  0
  2  3  2  0
  2 23  1  0
  3  4  1  0
  3 27  1  0
  4  5  1  0
  4  6  2  0
  5 28  1  0
  5 29  1  0
  5 30  1  0
  6  7  1  0
  7  8  1  0
  7 23  2  0
  8  9  1  0
  8 31  1  0
 10  9  1  1
  9 32  1  0
 10 11  2  0
 10 12  2  0
 10 13  1  0
 13 14  2  0
 13 22  1  0
 14 15  1  0
 14 33  1  0
 15 16  2  0
 15 20  1  0
 16 17  1  0
 16 34  1  0
 17 18  2  0
 17 35  1  0
 18 19  1  0
 18 36  1  0
 19 20  2  0
 19 37  1  0
 20 21  1  0
 21 22  1  0
 21 38  1  0
 21 39  1  0
 22 40  1  0
 22 41  1  0
M  END

