
     RDKit          3D

 62 62  0  0  0  0  0  0  0  0999 V2000
    3.2197   -5.1466   -1.1568 C   0  0  0  0  0  0  0  0  0  0  0  0
    3.3117   -3.6823   -0.7251 C   0  0  0  0  0  0  0  0  0  0  0  0
    4.5189   -3.3866    0.1710 C   0  0  0  0  0  0  0  0  0  0  0  0
    4.6317   -1.9115    0.5742 C   0  0  0  0  0  0  0  0  0  0  0  0
    5.7231   -1.5669    1.5986 C   0  0  0  0  0  0  0  0  0  0  0  0
    7.1664   -1.6918    1.1328 C   0  0  0  0  0  0  0  0  0  0  0  0
    7.5165   -3.0763    1.0214 O   0  0  0  0  0  0  0  0  0  0  0  0
    8.7612   -3.4425    0.6587 C   0  0  0  0  0  0  0  0  0  0  0  0
    9.7724   -2.5321    0.3532 C   0  0  0  0  0  0  0  0  0  0  0  0
   11.0652   -2.9526   -0.0223 C   0  0  0  0  0  0  0  0  0  0  0  0
   12.1507   -2.0500   -0.3488 C   0  0  0  0  0  0  0  0  0  0  0  0
   12.2069   -0.6790   -0.3737 C   0  0  0  0  0  0  0  0  0  0  0  0
   11.1221    0.2047   -0.0576 C   0  0  0  0  0  0  0  0  0  0  0  0
   10.2485    0.9275    0.1969 N   0  0  0  0  0  0  0  0  0  0  0  0
   13.4376   -0.0345   -0.7419 C   0  0  0  0  0  0  0  0  0  0  0  0
   14.4331    0.4841   -1.0396 N   0  0  0  0  0  0  0  0  0  0  0  0
   11.3332   -4.3570   -0.0888 C   0  0  0  0  0  0  0  0  0  0  0  0
   12.5777   -4.7248   -0.4495 O   0  0  0  0  0  0  0  0  0  0  0  0
   12.9297   -6.1082   -0.5414 C   0  0  0  0  0  0  0  0  0  0  0  0
   14.3836   -6.2031   -0.9716 C   0  0  0  0  0  0  0  0  0  0  0  0
   14.8662   -7.6512   -1.0990 C   0  0  0  0  0  0  0  0  0  0  0  0
   16.3307   -7.7671   -1.5323 C   0  0  0  0  0  0  0  0  0  0  0  0
   16.8227   -9.2119   -1.6616 C   0  0  0  0  0  0  0  0  0  0  0  0
   18.2852   -9.3217   -2.0945 C   0  0  0  0  0  0  0  0  0  0  0  0
   10.3210   -5.2674    0.2145 C   0  0  0  0  0  0  0  0  0  0  0  0
    9.0283   -4.8470    0.5893 C   0  0  0  0  0  0  0  0  0  0  0  0
    7.9406   -5.7483    0.9116 C   0  0  0  0  0  0  0  0  0  0  0  0
    7.8711   -7.1190    0.9061 C   0  0  0  0  0  0  0  0  0  0  0  0
    8.9432   -8.0060    0.5581 C   0  0  0  0  0  0  0  0  0  0  0  0
    9.8075   -8.7304    0.2778 N   0  0  0  0  0  0  0  0  0  0  0  0
    6.6341   -7.7555    1.2674 C   0  0  0  0  0  0  0  0  0  0  0  0
    5.6294   -8.2609    1.5571 N   0  0  0  0  0  0  0  0  0  0  0  0
    2.3314   -5.3291   -1.7822 H   0  0  0  0  0  0  0  0  0  0  0  0
    3.1588   -5.8209   -0.2863 H   0  0  0  0  0  0  0  0  0  0  0  0
    4.1046   -5.4479   -1.7424 H   0  0  0  0  0  0  0  0  0  0  0  0
    2.3865   -3.3936   -0.1937 H   0  0  0  0  0  0  0  0  0  0  0  0
    3.3562   -3.0348   -1.6202 H   0  0  0  0  0  0  0  0  0  0  0  0
    5.4403   -3.7050   -0.3454 H   0  0  0  0  0  0  0  0  0  0  0  0
    4.4534   -4.0095    1.0829 H   0  0  0  0  0  0  0  0  0  0  0  0
    3.6638   -1.5881    0.9967 H   0  0  0  0  0  0  0  0  0  0  0  0
    4.7795   -1.2937   -0.3313 H   0  0  0  0  0  0  0  0  0  0  0  0
    5.5987   -2.1749    2.5120 H   0  0  0  0  0  0  0  0  0  0  0  0
    5.5932   -0.5167    1.9112 H   0  0  0  0  0  0  0  0  0  0  0  0
    7.8445   -1.2086    1.8580 H   0  0  0  0  0  0  0  0  0  0  0  0
    7.3116   -1.1955    0.1559 H   0  0  0  0  0  0  0  0  0  0  0  0
    9.5583   -1.4696    0.4044 H   0  0  0  0  0  0  0  0  0  0  0  0
   13.0809   -2.5514   -0.6206 H   0  0  0  0  0  0  0  0  0  0  0  0
   12.2684   -6.6107   -1.2701 H   0  0  0  0  0  0  0  0  0  0  0  0
   12.7755   -6.5945    0.4387 H   0  0  0  0  0  0  0  0  0  0  0  0
   15.0048   -5.6589   -0.2394 H   0  0  0  0  0  0  0  0  0  0  0  0
   14.5021   -5.6772   -1.9347 H   0  0  0  0  0  0  0  0  0  0  0  0
   14.2279   -8.1903   -1.8230 H   0  0  0  0  0  0  0  0  0  0  0  0
   14.7294   -8.1717   -0.1334 H   0  0  0  0  0  0  0  0  0  0  0  0
   16.9690   -7.2269   -0.8085 H   0  0  0  0  0  0  0  0  0  0  0  0
   16.4675   -7.2465   -2.4984 H   0  0  0  0  0  0  0  0  0  0  0  0
   16.1820   -9.7497   -2.3840 H   0  0  0  0  0  0  0  0  0  0  0  0
   16.6833   -9.7301   -0.6954 H   0  0  0  0  0  0  0  0  0  0  0  0
   18.4501   -8.8460   -3.0758 H   0  0  0  0  0  0  0  0  0  0  0  0
   18.6044  -10.3728   -2.1771 H   0  0  0  0  0  0  0  0  0  0  0  0
   18.9559   -8.8264   -1.3724 H   0  0  0  0  0  0  0  0  0  0  0  0
   10.5344   -6.3302    0.1612 H   0  0  0  0  0  0  0  0  0  0  0  0
    7.0170   -5.2460    1.2021 H   0  0  0  0  0  0  0  0  0  0  0  0
  1  2  1  0
  1 33  1  0
  1 34  1  0
  1 35  1  0
  2  3  1  0
  2 36  1  0
  2 37  1  0
  3  4  1  0
  3 38  1  0
  3 39  1  0
  4  5  1  0
  4 40  1  0
  4 41  1  0
  5  6  1  0
  5 42  1  0
  5 43  1  0
  6  7  1  0
  6 44  1  0
  6 45  1  0
  7  8  1  0
  8  9  2  0
  8 26  1  0
  9 10  1  0
  9 46  1  0
 10 11  1  0
 10 17  2  0
 11 12  2  0
 11 47  1  0
 12 13  1  0
 12 15  1  0
 13 14  3  0
 15 16  3  0
 17 18  1  0
 17 25  1  0
 18 19  1  0
 19 20  1  0
 19 48  1  0
 19 49  1  0
 20 21  1  0
 20 50  1  0
 20 51  1  0
 21 22  1  0
 21 52  1  0
 21 53  1  0
 22 23  1  0
 22 54  1  0
 22 55  1  0
 23 24  1  0
 23 56  1  0
 23 57  1  0
 24 58  1  0
 24 59  1  0
 24 60  1  0
 25 26  2  0
 25 61  1  0
 26 27  1  0
 27 28  2  0
 27 62  1  0
 28 29  1  0
 28 31  1  0
 29 30  3  0
 31 32  3  0
M  END

