
     RDKit          3D

 25 25  0  0  0  0  0  0  0  0999 V2000
    3.2425    0.6465    1.3193 C   0  0  0  0  0  0  0  0  0  0  0  0
    2.6089   -0.0827    0.1275 C   0  0  1  0  0  0  0  0  0  0  0  0
    1.0815   -0.1254    0.2623 C   0  0  0  0  0  0  0  0  0  0  0  0
    3.0083    0.5366   -1.2253 C   0  0  0  0  0  0  0  0  0  0  0  0
    4.5048    0.5252   -1.5549 C   0  0  0  0  0  0  0  0  0  0  0  0
    5.0668   -0.8406   -1.5680 N   0  0  0  0  0  0  0  0  0  0  0  0
    4.7660   -1.6047   -2.7893 C   0  0  0  0  0  0  0  0  0  0  0  0
    5.8940   -1.3488   -3.7757 C   0  0  0  0  0  0  0  0  0  0  0  0
    5.6746   -1.6382   -5.6233 Br  0  0  0  0  0  0  0  0  0  0  0  0
    7.0346   -0.9770   -3.1702 C   0  0  0  0  0  0  0  0  0  0  0  0
    8.5799   -0.7130   -3.8732 Cl  0  0  0  0  0  0  0  0  0  0  0  0
    6.8116   -0.8582   -1.3952 S   0  0  0  0  0  0  0  0  0  0  0  0
    2.9188    0.1967    2.2718 H   0  0  0  0  0  0  0  0  0  0  0  0
    2.9476    1.7106    1.3385 H   0  0  0  0  0  0  0  0  0  0  0  0
    4.3425    0.6019    1.2979 H   0  0  0  0  0  0  0  0  0  0  0  0
    2.9834   -1.1215    0.1337 H   0  0  0  0  0  0  0  0  0  0  0  0
    0.6528    0.8920    0.2602 H   0  0  0  0  0  0  0  0  0  0  0  0
    0.7759   -0.6114    1.2029 H   0  0  0  0  0  0  0  0  0  0  0  0
    0.6167   -0.6823   -0.5679 H   0  0  0  0  0  0  0  0  0  0  0  0
    2.6732    1.5899   -1.2612 H   0  0  0  0  0  0  0  0  0  0  0  0
    2.4484    0.0263   -2.0293 H   0  0  0  0  0  0  0  0  0  0  0  0
    5.0568    1.0893   -0.7904 H   0  0  0  0  0  0  0  0  0  0  0  0
    4.6810    1.0470   -2.5176 H   0  0  0  0  0  0  0  0  0  0  0  0
    3.7867   -1.3042   -3.1882 H   0  0  0  0  0  0  0  0  0  0  0  0
    4.7159   -2.6866   -2.5591 H   0  0  0  0  0  0  0  0  0  0  0  0
  1  2  1  0
  1 13  1  0
  1 14  1  0
  1 15  1  0
  2  3  1  0
  2  4  1  0
  2 16  1  6
  3 17  1  0
  3 18  1  0
  3 19  1  0
  4  5  1  0
  4 20  1  0
  4 21  1  0
  5  6  1  0
  5 22  1  0
  5 23  1  0
  6  7  1  0
  6 12  1  0
  7  8  1  0
  7 24  1  0
  7 25  1  0
  8  9  1  0
  8 10  2  0
 10 11  1  0
 10 12  1  0
M  END

