
     RDKit          3D

 56 58  0  0  0  0  0  0  0  0999 V2000
    1.4467    0.2186    0.7449 C   0  0  0  0  0  0  0  0  0  0  0  0
    2.9308   -0.0835    0.7837 C   0  0  0  0  0  0  0  0  0  0  0  0
    3.5883    0.0743    1.8055 O   0  0  0  0  0  0  0  0  0  0  0  0
    3.4771   -0.5467   -0.3823 N   0  0  0  0  0  0  0  0  0  0  0  0
    4.8616   -0.8104   -0.5577 C   0  0  0  0  0  0  0  0  0  0  0  0
    5.5693   -1.5769    0.3892 C   0  0  0  0  0  0  0  0  0  0  0  0
    6.9413   -1.7249    0.2967 C   0  0  0  0  0  0  0  0  0  0  0  0
    7.6839   -1.1076   -0.7418 C   0  0  0  0  0  0  0  0  0  0  0  0
    6.9456   -0.4619   -1.7660 C   0  0  0  0  0  0  0  0  0  0  0  0
    5.5523   -0.3085   -1.6502 C   0  0  0  0  0  0  0  0  0  0  0  0
    7.6098    0.1041   -2.9567 C   0  0  0  0  0  0  0  0  0  0  0  0
    6.9822    0.6459   -3.8594 O   0  0  0  0  0  0  0  0  0  0  0  0
    9.0805   -0.0344   -2.9698 C   0  0  0  0  0  0  0  0  0  0  0  0
    9.7707    0.4479   -4.0966 C   0  0  0  0  0  0  0  0  0  0  0  0
   11.1614    0.3827   -4.1644 C   0  0  0  0  0  0  0  0  0  0  0  0
   11.9260    0.8403   -5.2534 N   0  0  0  0  0  0  0  0  0  0  0  0
   11.4902    1.4158   -6.4305 C   0  0  0  0  0  0  0  0  0  0  0  0
   12.6027    1.7816   -7.4029 C   0  0  0  0  0  0  0  0  0  0  0  0
   10.3212    1.6182   -6.6923 O   0  0  0  0  0  0  0  0  0  0  0  0
   11.8502   -0.1740   -3.0651 C   0  0  0  0  0  0  0  0  0  0  0  0
   11.1822   -0.6512   -1.9495 C   0  0  0  0  0  0  0  0  0  0  0  0
    9.7691   -0.6078   -1.8699 C   0  0  0  0  0  0  0  0  0  0  0  0
    9.0784   -1.1144   -0.7617 N   0  0  0  0  0  0  0  0  0  0  0  0
    9.8278   -1.4225    0.4676 C   0  0  0  0  0  0  0  0  0  0  0  0
   10.1997   -0.1807    1.3032 C   0  0  0  0  0  0  0  0  0  0  0  0
    9.0200    0.6526    1.8325 C   0  0  0  0  0  0  0  0  0  0  0  0
    8.2383    0.0092    2.9869 C   0  0  0  0  0  0  0  0  0  0  0  0
    6.8540    0.6288    3.2069 C   0  0  0  0  0  0  0  0  0  0  0  0
    6.1309    0.0073    4.4012 C   0  0  0  0  0  0  0  0  0  0  0  0
    6.7043   -0.2930    5.4191 O   0  0  0  0  0  0  0  0  0  0  0  0
    4.8110   -0.1800    4.2757 O   0  0  0  0  0  0  0  0  0  0  0  0
    1.2930    1.2580    1.0715 H   0  0  0  0  0  0  0  0  0  0  0  0
    0.9386   -0.4275    1.4773 H   0  0  0  0  0  0  0  0  0  0  0  0
    0.9866    0.0729   -0.2427 H   0  0  0  0  0  0  0  0  0  0  0  0
    2.8995   -0.5225   -1.2149 H   0  0  0  0  0  0  0  0  0  0  0  0
    5.0377   -2.0369    1.2221 H   0  0  0  0  0  0  0  0  0  0  0  0
    7.4338   -2.3232    1.0584 H   0  0  0  0  0  0  0  0  0  0  0  0
    5.0560    0.2530   -2.4454 H   0  0  0  0  0  0  0  0  0  0  0  0
    9.1874    0.8774   -4.9077 H   0  0  0  0  0  0  0  0  0  0  0  0
   12.9269    0.7252   -5.1541 H   0  0  0  0  0  0  0  0  0  0  0  0
   13.6190    1.5998   -7.0232 H   0  0  0  0  0  0  0  0  0  0  0  0
   12.5004    2.8454   -7.6643 H   0  0  0  0  0  0  0  0  0  0  0  0
   12.4590    1.2069   -8.3309 H   0  0  0  0  0  0  0  0  0  0  0  0
   12.9428   -0.2345   -3.0856 H   0  0  0  0  0  0  0  0  0  0  0  0
   11.7793   -1.0659   -1.1403 H   0  0  0  0  0  0  0  0  0  0  0  0
   10.7365   -1.9751    0.1954 H   0  0  0  0  0  0  0  0  0  0  0  0
    9.2461   -2.1283    1.0670 H   0  0  0  0  0  0  0  0  0  0  0  0
   10.8517    0.4661    0.6935 H   0  0  0  0  0  0  0  0  0  0  0  0
   10.8192   -0.5292    2.1493 H   0  0  0  0  0  0  0  0  0  0  0  0
    8.3374    0.8820    0.9964 H   0  0  0  0  0  0  0  0  0  0  0  0
    9.4070    1.6313    2.1650 H   0  0  0  0  0  0  0  0  0  0  0  0
    8.8101    0.0782    3.9259 H   0  0  0  0  0  0  0  0  0  0  0  0
    8.1065   -1.0702    2.8051 H   0  0  0  0  0  0  0  0  0  0  0  0
    6.2389    0.5475    2.2975 H   0  0  0  0  0  0  0  0  0  0  0  0
    6.9554    1.7087    3.4216 H   0  0  0  0  0  0  0  0  0  0  0  0
    4.4669    0.0323    3.3840 H   0  0  0  0  0  0  0  0  0  0  0  0
  1  2  1  0
  1 32  1  0
  1 33  1  0
  1 34  1  0
  2  3  2  0
  2  4  1  0
  4  5  1  0
  4 35  1  0
  5  6  2  0
  5 10  1  0
  6  7  1  0
  6 36  1  0
  7  8  2  0
  7 37  1  0
  8  9  1  0
  8 23  1  0
  9 10  2  0
  9 11  1  0
 10 38  1  0
 11 12  2  0
 11 13  1  0
 13 14  2  0
 13 22  1  0
 14 15  1  0
 14 39  1  0
 15 16  1  0
 15 20  2  0
 16 17  1  0
 16 40  1  0
 17 18  1  0
 17 19  2  0
 18 41  1  0
 18 42  1  0
 18 43  1  0
 20 21  1  0
 20 44  1  0
 21 22  2  0
 21 45  1  0
 22 23  1  0
 23 24  1  0
 24 25  1  0
 24 46  1  0
 24 47  1  0
 25 26  1  0
 25 48  1  0
 25 49  1  0
 26 27  1  0
 26 50  1  0
 26 51  1  0
 27 28  1  0
 27 52  1  0
 27 53  1  0
 28 29  1  0
 28 54  1  0
 28 55  1  0
 29 30  2  0
 29 31  1  0
 31 56  1  0
M  END

