
     RDKit          3D

 59 62  0  0  0  0  0  0  0  0999 V2000
    4.9284   -3.1811    0.6500 C   0  0  0  0  0  0  0  0  0  0  0  0
    4.9707   -1.6795    0.3675 C   0  0  0  0  0  0  0  0  0  0  0  0
    4.9556   -0.8418    1.6362 C   0  0  0  0  0  0  0  0  0  0  0  0
    5.0011    0.5328    1.2752 O   0  0  0  0  0  0  0  0  0  0  0  0
    4.9151    1.4336    2.3146 C   0  0  2  0  0  0  0  0  0  0  0  0
    4.7823    2.8380    1.7533 C   0  0  0  0  0  0  0  0  0  0  0  0
    4.7957    3.9181    2.8535 C   0  0  1  0  0  0  0  0  0  0  0  0
    3.3743    4.2517    3.3827 C   0  0  0  0  0  0  0  0  0  0  0  0
    2.6114    3.1479    4.1169 C   0  0  0  0  0  0  0  0  0  0  0  0
    5.8794    3.5947    3.8848 C   0  0  0  0  0  0  0  0  0  0  0  0
    6.4888    2.3797    3.8753 C   0  0  0  0  0  0  0  0  0  0  0  0
    7.7305    2.0221    4.6574 C   0  0  0  0  0  0  0  0  0  0  0  0
    8.5564    3.2553    5.0505 C   0  0  1  0  0  0  0  0  0  0  0  0
    9.3995    3.8545    3.9174 C   0  0  0  0  0  0  0  0  0  0  0  0
   10.5311    4.2259    4.0762 O   0  0  0  0  0  0  0  0  0  0  0  0
    8.7978    3.9901    2.7139 O   0  0  0  0  0  0  0  0  0  0  0  0
    7.6072    4.2974    5.6671 C   0  0  0  0  0  0  0  0  0  0  0  0
    6.4504    4.7397    4.7367 C   0  0  2  0  0  0  0  0  0  0  0  0
    5.4165    5.4994    5.5724 C   0  0  0  0  0  0  0  0  0  0  0  0
    4.6848    4.8233    6.5332 C   0  0  0  0  0  0  0  0  0  0  0  0
    3.7405    5.4622    7.3640 C   0  0  0  0  0  0  0  0  0  0  0  0
    3.5088    6.8224    7.2557 C   0  0  0  0  0  0  0  0  0  0  0  0
    2.6197    7.4867    8.0207 O   0  0  0  0  0  0  0  0  0  0  0  0
    4.2466    7.5846    6.2873 C   0  0  0  0  0  0  0  0  0  0  0  0
    3.9986    8.9162    6.2168 N   0  0  0  0  0  0  0  0  0  0  0  0
    4.6629    9.6399    5.3456 C   0  0  0  0  0  0  0  0  0  0  0  0
    5.6337    9.0993    4.4664 C   0  0  0  0  0  0  0  0  0  0  0  0
    5.8979    7.7490    4.5203 C   0  0  0  0  0  0  0  0  0  0  0  0
    5.2075    6.9151    5.4474 C   0  0  0  0  0  0  0  0  0  0  0  0
    6.1084    1.3256    3.1048 O   0  0  0  0  0  0  0  0  0  0  0  0
    4.9466   -3.7613   -0.2853 H   0  0  0  0  0  0  0  0  0  0  0  0
    4.0143   -3.4657    1.1979 H   0  0  0  0  0  0  0  0  0  0  0  0
    5.7916   -3.5031    1.2562 H   0  0  0  0  0  0  0  0  0  0  0  0
    4.1136   -1.3805   -0.2597 H   0  0  0  0  0  0  0  0  0  0  0  0
    5.8777   -1.4218   -0.2051 H   0  0  0  0  0  0  0  0  0  0  0  0
    5.8186   -1.0932    2.2790 H   0  0  0  0  0  0  0  0  0  0  0  0
    4.0372   -1.0424    2.2262 H   0  0  0  0  0  0  0  0  0  0  0  0
    4.0721    1.1757    2.9854 H   0  0  0  0  0  0  0  0  0  0  0  0
    3.8617    2.8919    1.1529 H   0  0  0  0  0  0  0  0  0  0  0  0
    5.6272    2.9767    1.0586 H   0  0  0  0  0  0  0  0  0  0  0  0
    5.1297    4.8516    2.3631 H   0  0  0  0  0  0  0  0  0  0  0  0
    2.7806    4.5766    2.5097 H   0  0  0  0  0  0  0  0  0  0  0  0
    3.4412    5.1314    4.0365 H   0  0  0  0  0  0  0  0  0  0  0  0
    2.3289    2.3161    3.4522 H   0  0  0  0  0  0  0  0  0  0  0  0
    1.6770    3.5487    4.5409 H   0  0  0  0  0  0  0  0  0  0  0  0
    3.1972    2.7285    4.9501 H   0  0  0  0  0  0  0  0  0  0  0  0
    8.3152    1.3141    4.0483 H   0  0  0  0  0  0  0  0  0  0  0  0
    7.4463    1.4694    5.5704 H   0  0  0  0  0  0  0  0  0  0  0  0
    9.2986    2.9725    5.8100 H   0  0  0  0  0  0  0  0  0  0  0  0
    7.8821    3.6572    2.7544 H   0  0  0  0  0  0  0  0  0  0  0  0
    8.1679    5.1883    5.9904 H   0  0  0  0  0  0  0  0  0  0  0  0
    7.1845    3.8506    6.5807 H   0  0  0  0  0  0  0  0  0  0  0  0
    6.8764    5.4511    4.0115 H   0  0  0  0  0  0  0  0  0  0  0  0
    4.8284    3.7460    6.6518 H   0  0  0  0  0  0  0  0  0  0  0  0
    3.1854    4.8755    8.1029 H   0  0  0  0  0  0  0  0  0  0  0  0
    2.2001    6.8643    8.6298 H   0  0  0  0  0  0  0  0  0  0  0  0
    4.4375   10.7136    5.3164 H   0  0  0  0  0  0  0  0  0  0  0  0
    6.1593    9.7479    3.7618 H   0  0  0  0  0  0  0  0  0  0  0  0
    6.6443    7.3228    3.8487 H   0  0  0  0  0  0  0  0  0  0  0  0
  1  2  1  0
  1 31  1  0
  1 32  1  0
  1 33  1  0
  2  3  1  0
  2 34  1  0
  2 35  1  0
  3  4  1  0
  3 36  1  0
  3 37  1  0
  4  5  1  0
  5  6  1  0
  5 30  1  0
  5 38  1  1
  6  7  1  0
  6 39  1  0
  6 40  1  0
  7  8  1  0
  7 10  1  0
  7 41  1  6
  8  9  1  0
  8 42  1  0
  8 43  1  0
  9 44  1  0
  9 45  1  0
  9 46  1  0
 10 11  2  0
 10 18  1  0
 11 12  1  0
 11 30  1  0
 12 13  1  0
 12 47  1  0
 12 48  1  0
 13 14  1  0
 13 17  1  0
 13 49  1  1
 14 15  2  0
 14 16  1  0
 16 50  1  0
 17 18  1  0
 17 51  1  0
 17 52  1  0
 18 19  1  0
 18 53  1  6
 19 20  2  0
 19 29  1  0
 20 21  1  0
 20 54  1  0
 21 22  2  0
 21 55  1  0
 22 23  1  0
 22 24  1  0
 23 56  1  0
 24 25  1  0
 24 29  2  0
 25 26  2  0
 26 27  1  0
 26 57  1  0
 27 28  2  0
 27 58  1  0
 28 29  1  0
 28 59  1  0
M  END

