
     RDKit          3D

 37 39  0  0  0  0  0  0  0  0999 V2000
    1.5445    0.1936   -0.9480 C   0  0  0  0  0  0  0  0  0  0  0  0
    2.4136   -0.0795    0.1258 O   0  0  0  0  0  0  0  0  0  0  0  0
    3.1249    0.9252    0.6935 C   0  0  0  0  0  0  0  0  0  0  0  0
    3.0522    2.2680    0.2553 C   0  0  0  0  0  0  0  0  0  0  0  0
    3.7867    3.2725    0.8774 C   0  0  0  0  0  0  0  0  0  0  0  0
    4.6185    2.9336    1.9475 C   0  0  0  0  0  0  0  0  0  0  0  0
    5.4221    3.7451    2.7219 N   0  0  0  0  0  0  0  0  0  0  0  0
    5.9939    2.9582    3.5907 C   0  0  0  0  0  0  0  0  0  0  0  0
    6.9021    3.4349    4.6984 C   0  0  1  0  0  0  0  0  0  0  0  0
    7.7109    4.6617    4.2594 C   0  0  0  0  0  0  0  0  0  0  0  0
    6.0731    3.6427    5.8957 N   0  0  0  0  0  0  0  0  0  0  0  0
    5.6158    1.6207    3.4493 N   0  0  0  0  0  0  0  0  0  0  0  0
    6.1559    0.5312    4.2083 C   0  0  0  0  0  0  0  0  0  0  0  0
    5.7663    0.3475    5.5400 C   0  0  0  0  0  0  0  0  0  0  0  0
    6.3106   -0.7069    6.2778 C   0  0  0  0  0  0  0  0  0  0  0  0
    7.2374   -1.5742    5.6917 C   0  0  0  0  0  0  0  0  0  0  0  0
    7.6309   -1.3804    4.3636 C   0  0  0  0  0  0  0  0  0  0  0  0
    7.0950   -0.3265    3.6213 C   0  0  0  0  0  0  0  0  0  0  0  0
    4.7151    1.5821    2.3874 C   0  0  0  0  0  0  0  0  0  0  0  0
    3.9586    0.5720    1.7751 C   0  0  0  0  0  0  0  0  0  0  0  0
    3.9616   -1.2398    2.3596 Br  0  0  0  0  0  0  0  0  0  0  0  0
    1.0862   -0.7652   -1.2255 H   0  0  0  0  0  0  0  0  0  0  0  0
    2.0830    0.5981   -1.8242 H   0  0  0  0  0  0  0  0  0  0  0  0
    0.7454    0.9021   -0.6639 H   0  0  0  0  0  0  0  0  0  0  0  0
    2.4021    2.5242   -0.5806 H   0  0  0  0  0  0  0  0  0  0  0  0
    3.7197    4.3104    0.5464 H   0  0  0  0  0  0  0  0  0  0  0  0
    7.6008    2.6161    4.9385 H   0  0  0  0  0  0  0  0  0  0  0  0
    7.0368    5.4730    3.9464 H   0  0  0  0  0  0  0  0  0  0  0  0
    8.3692    4.4290    3.4074 H   0  0  0  0  0  0  0  0  0  0  0  0
    8.3378    5.0171    5.0932 H   0  0  0  0  0  0  0  0  0  0  0  0
    5.4253    4.4146    5.7257 H   0  0  0  0  0  0  0  0  0  0  0  0
    6.6613    3.9229    6.6819 H   0  0  0  0  0  0  0  0  0  0  0  0
    5.0637    1.0504    5.9888 H   0  0  0  0  0  0  0  0  0  0  0  0
    6.0057   -0.8516    7.3173 H   0  0  0  0  0  0  0  0  0  0  0  0
    7.6572   -2.4002    6.2713 H   0  0  0  0  0  0  0  0  0  0  0  0
    8.3582   -2.0528    3.9020 H   0  0  0  0  0  0  0  0  0  0  0  0
    7.3922   -0.1675    2.5827 H   0  0  0  0  0  0  0  0  0  0  0  0
  1  2  1  0
  1 22  1  0
  1 23  1  0
  1 24  1  0
  2  3  1  0
  3  4  2  0
  3 20  1  0
  4  5  1  0
  4 25  1  0
  5  6  2  0
  5 26  1  0
  6  7  1  0
  6 19  1  0
  7  8  2  0
  8  9  1  0
  8 12  1  0
  9 10  1  0
  9 11  1  0
  9 27  1  1
 10 28  1  0
 10 29  1  0
 10 30  1  0
 11 31  1  0
 11 32  1  0
 12 13  1  0
 12 19  1  0
 13 14  2  0
 13 18  1  0
 14 15  1  0
 14 33  1  0
 15 16  2  0
 15 34  1  0
 16 17  1  0
 16 35  1  0
 17 18  2  0
 17 36  1  0
 18 37  1  0
 19 20  2  0
 20 21  1  0
M  END

