
     RDKit          3D

 57 60  0  0  0  0  0  0  0  0999 V2000
    1.1881   -0.2401    0.7694 C   0  0  0  0  0  0  0  0  0  0  0  0
    2.0976   -0.0806   -0.2934 O   0  0  0  0  0  0  0  0  0  0  0  0
    2.6917   -1.1859   -0.8240 C   0  0  0  0  0  0  0  0  0  0  0  0
    3.5913   -0.9662   -1.8766 C   0  0  0  0  0  0  0  0  0  0  0  0
    4.2416   -2.0419   -2.4749 C   0  0  0  0  0  0  0  0  0  0  0  0
    4.0131   -3.3582   -2.0410 C   0  0  0  0  0  0  0  0  0  0  0  0
    4.6292   -4.4405   -2.6039 O   0  0  0  0  0  0  0  0  0  0  0  0
    5.5375   -4.2506   -3.6617 C   0  0  0  0  0  0  0  0  0  0  0  0
    3.1094   -3.5956   -0.9794 C   0  0  0  0  0  0  0  0  0  0  0  0
    2.8071   -4.9440   -0.4594 C   0  0  0  0  0  0  0  0  0  0  0  0
    3.3254   -6.2140   -0.8135 C   0  0  0  0  0  0  0  0  0  0  0  0
    2.6811   -7.1225    0.0222 C   0  0  0  0  0  0  0  0  0  0  0  0
    2.8310   -8.6009    0.1208 C   0  0  0  0  0  0  0  0  0  0  0  0
    2.4116   -9.2649    1.0632 O   0  0  0  0  0  0  0  0  0  0  0  0
    3.4841   -9.1676   -0.9351 N   0  0  0  0  0  0  0  0  0  0  0  0
    3.7840  -10.5764   -1.0041 C   0  0  0  0  0  0  0  0  0  0  0  0
    5.1365  -10.8140   -1.7144 C   0  0  1  0  0  0  0  0  0  0  0  0
    5.3725  -12.3172   -1.9200 C   0  0  0  0  0  0  0  0  0  0  0  0
    5.1341  -10.1247   -2.9655 O   0  0  0  0  0  0  0  0  0  0  0  0
    6.2706  -10.2062   -0.9316 C   0  0  0  0  0  0  0  0  0  0  0  0
    7.2459   -9.3199   -1.2727 C   0  0  0  0  0  0  0  0  0  0  0  0
    8.0572   -9.1435   -0.0893 C   0  0  0  0  0  0  0  0  0  0  0  0
    9.1943   -8.3912    0.2529 C   0  0  0  0  0  0  0  0  0  0  0  0
    9.6967   -8.4975    1.5495 C   0  0  0  0  0  0  0  0  0  0  0  0
    9.0878   -9.3354    2.5056 C   0  0  0  0  0  0  0  0  0  0  0  0
    7.9570  -10.0925    2.1902 C   0  0  0  0  0  0  0  0  0  0  0  0
    7.4727   -9.9727    0.8910 C   0  0  0  0  0  0  0  0  0  0  0  0
    6.3871  -10.6176    0.3696 O   0  0  0  0  0  0  0  0  0  0  0  0
    1.8432   -6.3814    0.8141 N   0  0  0  0  0  0  0  0  0  0  0  0
    0.8953   -6.8288    1.8236 C   0  0  0  0  0  0  0  0  0  0  0  0
    1.9058   -5.0851    0.5277 N   0  0  0  0  0  0  0  0  0  0  0  0
    2.4615   -2.4930   -0.3883 C   0  0  0  0  0  0  0  0  0  0  0  0
    0.8377    0.7664    1.0369 H   0  0  0  0  0  0  0  0  0  0  0  0
    1.6629   -0.7002    1.6553 H   0  0  0  0  0  0  0  0  0  0  0  0
    0.3171   -0.8564    0.4804 H   0  0  0  0  0  0  0  0  0  0  0  0
    3.7698    0.0568   -2.2135 H   0  0  0  0  0  0  0  0  0  0  0  0
    4.9359   -1.8446   -3.2912 H   0  0  0  0  0  0  0  0  0  0  0  0
    5.9005   -5.2480   -3.9464 H   0  0  0  0  0  0  0  0  0  0  0  0
    6.4018   -3.6312   -3.3600 H   0  0  0  0  0  0  0  0  0  0  0  0
    5.0578   -3.7830   -4.5410 H   0  0  0  0  0  0  0  0  0  0  0  0
    4.0916   -6.4154   -1.5523 H   0  0  0  0  0  0  0  0  0  0  0  0
    3.7584   -8.6046   -1.7319 H   0  0  0  0  0  0  0  0  0  0  0  0
    3.0020  -11.1269   -1.5649 H   0  0  0  0  0  0  0  0  0  0  0  0
    3.7944  -10.9808    0.0174 H   0  0  0  0  0  0  0  0  0  0  0  0
    4.5364  -12.7687   -2.4808 H   0  0  0  0  0  0  0  0  0  0  0  0
    5.4541  -12.8359   -0.9538 H   0  0  0  0  0  0  0  0  0  0  0  0
    6.3046  -12.4745   -2.4821 H   0  0  0  0  0  0  0  0  0  0  0  0
    4.6034  -10.6405   -3.5875 H   0  0  0  0  0  0  0  0  0  0  0  0
    7.3632   -8.8568   -2.2481 H   0  0  0  0  0  0  0  0  0  0  0  0
    9.6736   -7.7371   -0.4796 H   0  0  0  0  0  0  0  0  0  0  0  0
   10.5795   -7.9195    1.8339 H   0  0  0  0  0  0  0  0  0  0  0  0
    9.5065   -9.3929    3.5132 H   0  0  0  0  0  0  0  0  0  0  0  0
    7.4707  -10.7437    2.9185 H   0  0  0  0  0  0  0  0  0  0  0  0
    1.1643   -7.8434    2.1328 H   0  0  0  0  0  0  0  0  0  0  0  0
   -0.1281   -6.8196    1.4149 H   0  0  0  0  0  0  0  0  0  0  0  0
    0.9427   -6.1336    2.6725 H   0  0  0  0  0  0  0  0  0  0  0  0
    1.7719   -2.7076    0.4258 H   0  0  0  0  0  0  0  0  0  0  0  0
  1  2  1  0
  1 33  1  0
  1 34  1  0
  1 35  1  0
  2  3  1  0
  3  4  2  0
  3 32  1  0
  4  5  1  0
  4 36  1  0
  5  6  2  0
  5 37  1  0
  6  7  1  0
  6  9  1  0
  7  8  1  0
  8 38  1  0
  8 39  1  0
  8 40  1  0
  9 10  1  0
  9 32  2  0
 10 11  1  0
 10 31  2  0
 11 12  2  0
 11 41  1  0
 12 13  1  0
 12 29  1  0
 13 14  2  0
 13 15  1  0
 15 16  1  0
 15 42  1  0
 16 17  1  0
 16 43  1  0
 16 44  1  0
 17 18  1  0
 17 19  1  6
 17 20  1  0
 18 45  1  0
 18 46  1  0
 18 47  1  0
 19 48  1  0
 20 21  2  0
 20 28  1  0
 21 22  1  0
 21 49  1  0
 22 23  2  0
 22 27  1  0
 23 24  1  0
 23 50  1  0
 24 25  2  0
 24 51  1  0
 25 26  1  0
 25 52  1  0
 26 27  2  0
 26 53  1  0
 27 28  1  0
 29 30  1  0
 29 31  1  0
 30 54  1  0
 30 55  1  0
 30 56  1  0
 32 57  1  0
M  END

