
     RDKit          3D

 41 42  0  0  0  0  0  0  0  0999 V2000
    2.1641   -0.7339   -2.1893 C   0  0  0  0  0  0  0  0  0  0  0  0
    2.2908   -0.4195   -0.8105 O   0  0  0  0  0  0  0  0  0  0  0  0
    2.9343   -1.3398   -0.0364 C   0  0  0  0  0  0  0  0  0  0  0  0
    4.2941   -1.1584    0.2550 C   0  0  0  0  0  0  0  0  0  0  0  0
    4.9772   -2.0488    1.0874 C   0  0  0  0  0  0  0  0  0  0  0  0
    6.3300   -1.9257    1.4267 N   0  0  0  0  0  0  0  0  0  0  0  0
    7.2221   -0.9895    1.0371 C   0  0  0  0  0  0  0  0  0  0  0  0
    7.0297   -0.0364    0.2918 O   0  0  0  0  0  0  0  0  0  0  0  0
    8.6128   -1.2511    1.6625 C   0  0  0  0  0  0  0  0  0  0  0  0
    8.8109   -2.2026    2.4029 O   0  0  0  0  0  0  0  0  0  0  0  0
    9.4970   -0.3021    1.2657 N   0  0  0  0  0  0  0  0  0  0  0  0
   10.8569   -0.1523    1.5870 C   0  0  0  0  0  0  0  0  0  0  0  0
   11.5115   -1.0596    2.4364 C   0  0  0  0  0  0  0  0  0  0  0  0
   12.8625   -0.8675    2.7251 C   0  0  0  0  0  0  0  0  0  0  0  0
   13.6735   -2.0009    3.7840 Cl  0  0  0  0  0  0  0  0  0  0  0  0
   13.5755    0.2049    2.1887 C   0  0  0  0  0  0  0  0  0  0  0  0
   12.9066    1.0957    1.3462 C   0  0  0  0  0  0  0  0  0  0  0  0
   11.5529    0.9473    1.0256 C   0  0  0  0  0  0  0  0  0  0  0  0
   10.8587    1.9277    0.1123 C   0  0  0  0  0  0  0  0  0  0  0  0
    4.2849   -3.1564    1.6416 C   0  0  0  0  0  0  0  0  0  0  0  0
    5.0304   -3.9666    2.4392 O   0  0  0  0  0  0  0  0  0  0  0  0
    4.4297   -5.0892    3.0508 C   0  0  0  0  0  0  0  0  0  0  0  0
    2.9333   -3.3433    1.3546 C   0  0  0  0  0  0  0  0  0  0  0  0
    2.2647   -2.4397    0.5176 C   0  0  0  0  0  0  0  0  0  0  0  0
    0.5660   -2.6846    0.1919 Cl  0  0  0  0  0  0  0  0  0  0  0  0
    1.6434    0.1108   -2.6614 H   0  0  0  0  0  0  0  0  0  0  0  0
    1.5713   -1.6516   -2.3449 H   0  0  0  0  0  0  0  0  0  0  0  0
    3.1536   -0.8581   -2.6658 H   0  0  0  0  0  0  0  0  0  0  0  0
    4.8168   -0.3023   -0.1667 H   0  0  0  0  0  0  0  0  0  0  0  0
    6.7085   -2.6372    2.0533 H   0  0  0  0  0  0  0  0  0  0  0  0
    9.0691    0.3826    0.6433 H   0  0  0  0  0  0  0  0  0  0  0  0
   10.9633   -1.8980    2.8586 H   0  0  0  0  0  0  0  0  0  0  0  0
   14.6315    0.3384    2.4262 H   0  0  0  0  0  0  0  0  0  0  0  0
   13.4581    1.9389    0.9216 H   0  0  0  0  0  0  0  0  0  0  0  0
   11.5545    2.7085   -0.2248 H   0  0  0  0  0  0  0  0  0  0  0  0
   10.0151    2.4353    0.6123 H   0  0  0  0  0  0  0  0  0  0  0  0
   10.4540    1.4385   -0.7913 H   0  0  0  0  0  0  0  0  0  0  0  0
    5.2144   -5.5804    3.6406 H   0  0  0  0  0  0  0  0  0  0  0  0
    4.0431   -5.8009    2.3002 H   0  0  0  0  0  0  0  0  0  0  0  0
    3.6055   -4.7917    3.7227 H   0  0  0  0  0  0  0  0  0  0  0  0
    2.3766   -4.1808    1.7711 H   0  0  0  0  0  0  0  0  0  0  0  0
  1  2  1  0
  1 26  1  0
  1 27  1  0
  1 28  1  0
  2  3  1  0
  3  4  2  0
  3 24  1  0
  4  5  1  0
  4 29  1  0
  5  6  1  0
  5 20  2  0
  6  7  1  0
  6 30  1  0
  7  8  2  0
  7  9  1  0
  9 10  2  0
  9 11  1  0
 11 12  1  0
 11 31  1  0
 12 13  2  0
 12 18  1  0
 13 14  1  0
 13 32  1  0
 14 15  1  0
 14 16  2  0
 16 17  1  0
 16 33  1  0
 17 18  2  0
 17 34  1  0
 18 19  1  0
 19 35  1  0
 19 36  1  0
 19 37  1  0
 20 21  1  0
 20 23  1  0
 21 22  1  0
 22 38  1  0
 22 39  1  0
 22 40  1  0
 23 24  2  0
 23 41  1  0
 24 25  1  0
M  END

