
     RDKit          3D

 42 44  0  0  0  0  0  0  0  0999 V2000
    1.9837   -1.9445    0.7641 O   0  0  0  0  0  0  0  0  0  0  0  0
    2.5833   -0.9703    0.3473 C   0  0  0  0  0  0  0  0  0  0  0  0
    2.6890    0.2306    1.0095 N   0  0  0  0  0  0  0  0  0  0  0  0
    2.2137    0.5671    2.2833 C   0  0  0  0  0  0  0  0  0  0  0  0
    1.5969   -0.2767    3.1472 C   0  0  0  0  0  0  0  0  0  0  0  0
    1.1918    0.1843    4.4697 C   0  0  0  0  0  0  0  0  0  0  0  0
    1.2683    1.4767    4.8386 C   0  0  0  0  0  0  0  0  0  0  0  0
    1.7383    2.5411    3.8817 C   0  0  2  0  0  0  0  0  0  0  0  0
    0.5834    3.4804    3.4243 C   0  0  1  0  0  0  0  0  0  0  0  0
   -0.5584    2.7597    2.7254 C   0  0  0  0  0  0  0  0  0  0  0  0
   -1.7759    3.3218    2.6249 C   0  0  0  0  0  0  0  0  0  0  0  0
   -2.0475    4.6206    3.2486 C   0  0  0  0  0  0  0  0  0  0  0  0
   -1.1893    5.1434    4.1423 C   0  0  0  0  0  0  0  0  0  0  0  0
    0.0356    4.3658    4.5561 C   0  0  2  0  0  0  0  0  0  0  0  0
    1.3294    5.5126    5.1487 Cl  0  0  0  0  0  0  0  0  0  0  0  0
    2.5321    1.9864    2.6855 C   0  0  1  0  0  0  0  0  0  0  0  0
    3.9049    2.0412    2.9757 F   0  0  0  0  0  0  0  0  0  0  0  0
    3.3325   -0.9799   -0.9821 C   0  0  1  0  0  0  0  0  0  0  0  0
    2.8280   -1.9764   -2.0350 C   0  0  0  0  0  0  0  0  0  0  0  0
    3.5107   -1.4687   -3.3071 C   0  0  2  0  0  0  0  0  0  0  0  0
    4.7341   -2.1130   -3.4704 F   0  0  0  0  0  0  0  0  0  0  0  0
    3.7705    0.0403   -3.0343 C   0  0  0  0  0  0  0  0  0  0  0  0
    3.3259    0.3270   -1.6608 N   0  0  0  0  0  0  0  0  0  0  0  0
    3.2445    0.9309    0.5219 H   0  0  0  0  0  0  0  0  0  0  0  0
    1.4206   -1.3102    2.8554 H   0  0  0  0  0  0  0  0  0  0  0  0
    0.8200   -0.5659    5.1729 H   0  0  0  0  0  0  0  0  0  0  0  0
    0.9708    1.7839    5.8445 H   0  0  0  0  0  0  0  0  0  0  0  0
    2.4631    3.1920    4.3980 H   0  0  0  0  0  0  0  0  0  0  0  0
    1.0216    4.1816    2.6829 H   0  0  0  0  0  0  0  0  0  0  0  0
   -0.3469    1.8006    2.2462 H   0  0  0  0  0  0  0  0  0  0  0  0
   -2.5736    2.8257    2.0657 H   0  0  0  0  0  0  0  0  0  0  0  0
   -2.9719    5.1488    2.9990 H   0  0  0  0  0  0  0  0  0  0  0  0
   -1.3894    6.0875    4.6536 H   0  0  0  0  0  0  0  0  0  0  0  0
   -0.2125    3.7565    5.4420 H   0  0  0  0  0  0  0  0  0  0  0  0
    2.3900    2.6564    1.8174 H   0  0  0  0  0  0  0  0  0  0  0  0
    4.3868   -1.2285   -0.7499 H   0  0  0  0  0  0  0  0  0  0  0  0
    1.7313   -1.9023   -2.1223 H   0  0  0  0  0  0  0  0  0  0  0  0
    3.0817   -3.0254   -1.8323 H   0  0  0  0  0  0  0  0  0  0  0  0
    2.9249   -1.6561   -4.2213 H   0  0  0  0  0  0  0  0  0  0  0  0
    3.2680    0.7066   -3.7506 H   0  0  0  0  0  0  0  0  0  0  0  0
    4.8572    0.1985   -3.1324 H   0  0  0  0  0  0  0  0  0  0  0  0
    2.3575    0.6521   -1.6995 H   0  0  0  0  0  0  0  0  0  0  0  0
  1  2  2  0
  2  3  1  0
  2 18  1  0
  3  4  1  0
  3 24  1  0
  4  5  2  0
  4 16  1  0
  5  6  1  0
  5 25  1  0
  6  7  2  0
  6 26  1  0
  7  8  1  0
  7 27  1  0
  8  9  1  0
  8 16  1  0
  8 28  1  1
  9 10  1  0
  9 14  1  0
  9 29  1  6
 10 11  2  0
 10 30  1  0
 11 12  1  0
 11 31  1  0
 12 13  2  0
 12 32  1  0
 13 14  1  0
 13 33  1  0
 14 15  1  0
 14 34  1  1
 16 17  1  0
 16 35  1  6
 18 19  1  0
 18 23  1  0
 18 36  1  1
 19 20  1  0
 19 37  1  0
 19 38  1  0
 20 21  1  0
 20 22  1  0
 20 39  1  6
 22 23  1  0
 22 40  1  0
 22 41  1  0
 23 42  1  0
M  END

