
     RDKit          3D

 56 58  0  0  0  0  0  0  0  0999 V2000
    1.4503    4.1180   -1.2935 C   0  0  0  0  0  0  0  0  0  0  0  0
    2.9439    3.9055   -1.0110 C   0  0  1  0  0  0  0  0  0  0  0  0
    3.7557    5.2169   -1.0498 C   0  0  0  0  0  0  0  0  0  0  0  0
    3.4949    6.1221    0.1635 C   0  0  0  0  0  0  0  0  0  0  0  0
    3.7391    5.3751    1.4818 C   0  0  0  0  0  0  0  0  0  0  0  0
    2.9334    4.0686    1.5464 C   0  0  0  0  0  0  0  0  0  0  0  0
    3.1807    3.1571    0.3310 C   0  0  2  0  0  0  0  0  0  0  0  0
    4.5184    2.5796    0.3955 N   0  0  0  0  0  0  0  0  0  0  0  0
    4.8047    1.3300   -0.0486 C   0  0  0  0  0  0  0  0  0  0  0  0
    3.9885    0.5726   -0.5530 O   0  0  0  0  0  0  0  0  0  0  0  0
    6.2974    0.9312    0.0596 C   0  0  1  0  0  0  0  0  0  0  0  0
    6.9080    1.1020   -1.3372 C   0  0  0  0  0  0  0  0  0  0  0  0
    6.9754    1.6944    1.1165 N   0  0  0  0  0  0  0  0  0  0  0  0
    6.6303    1.2343    2.4693 C   0  0  0  0  0  0  0  0  0  0  0  0
    7.3976   -0.0263    2.9057 C   0  0  0  0  0  0  0  0  0  0  0  0
    8.9096    0.1601    2.7737 C   0  0  2  0  0  0  0  0  0  0  0  0
    9.2925    1.1166    3.7882 O   0  0  0  0  0  0  0  0  0  0  0  0
   10.5564    1.1270    4.2547 C   0  0  0  0  0  0  0  0  0  0  0  0
   10.8546    2.0636    5.2684 C   0  0  0  0  0  0  0  0  0  0  0  0
   12.1475    2.0855    5.7714 C   0  0  0  0  0  0  0  0  0  0  0  0
   13.1009    1.1884    5.2633 C   0  0  0  0  0  0  0  0  0  0  0  0
   12.6952    0.3091    4.2637 C   0  0  0  0  0  0  0  0  0  0  0  0
   11.4513    0.2784    3.7660 N   0  0  0  0  0  0  0  0  0  0  0  0
    9.2692    0.6872    1.3791 C   0  0  0  0  0  0  0  0  0  0  0  0
    8.4212    1.9163    1.0132 C   0  0  0  0  0  0  0  0  0  0  0  0
    1.3043    4.5785   -2.2841 H   0  0  0  0  0  0  0  0  0  0  0  0
    0.9623    4.7731   -0.5544 H   0  0  0  0  0  0  0  0  0  0  0  0
    0.9103    3.1575   -1.2909 H   0  0  0  0  0  0  0  0  0  0  0  0
    3.3268    3.2399   -1.8025 H   0  0  0  0  0  0  0  0  0  0  0  0
    3.5437    5.7601   -1.9865 H   0  0  0  0  0  0  0  0  0  0  0  0
    4.8312    4.9653   -1.0799 H   0  0  0  0  0  0  0  0  0  0  0  0
    2.4533    6.4893    0.1419 H   0  0  0  0  0  0  0  0  0  0  0  0
    4.1341    7.0194    0.1094 H   0  0  0  0  0  0  0  0  0  0  0  0
    3.4850    6.0157    2.3429 H   0  0  0  0  0  0  0  0  0  0  0  0
    4.8193    5.1572    1.5818 H   0  0  0  0  0  0  0  0  0  0  0  0
    1.8582    4.3109    1.5880 H   0  0  0  0  0  0  0  0  0  0  0  0
    3.1611    3.5129    2.4712 H   0  0  0  0  0  0  0  0  0  0  0  0
    2.4893    2.3007    0.3628 H   0  0  0  0  0  0  0  0  0  0  0  0
    5.3052    3.0815    0.8007 H   0  0  0  0  0  0  0  0  0  0  0  0
    6.2702   -0.1561    0.2733 H   0  0  0  0  0  0  0  0  0  0  0  0
    6.9633    2.1650   -1.6215 H   0  0  0  0  0  0  0  0  0  0  0  0
    6.2629    0.5855   -2.0616 H   0  0  0  0  0  0  0  0  0  0  0  0
    7.9151    0.6656   -1.4099 H   0  0  0  0  0  0  0  0  0  0  0  0
    5.5454    1.0587    2.5251 H   0  0  0  0  0  0  0  0  0  0  0  0
    6.8587    2.0486    3.1777 H   0  0  0  0  0  0  0  0  0  0  0  0
    7.1029   -0.8875    2.2829 H   0  0  0  0  0  0  0  0  0  0  0  0
    7.1454   -0.2830    3.9472 H   0  0  0  0  0  0  0  0  0  0  0  0
    9.4471   -0.7782    2.9719 H   0  0  0  0  0  0  0  0  0  0  0  0
   10.0729    2.7340    5.6288 H   0  0  0  0  0  0  0  0  0  0  0  0
   12.4168    2.7957    6.5578 H   0  0  0  0  0  0  0  0  0  0  0  0
   14.1276    1.1758    5.6337 H   0  0  0  0  0  0  0  0  0  0  0  0
   13.4037   -0.4090    3.8343 H   0  0  0  0  0  0  0  0  0  0  0  0
    9.0972   -0.1256    0.6520 H   0  0  0  0  0  0  0  0  0  0  0  0
   10.3438    0.9236    1.3400 H   0  0  0  0  0  0  0  0  0  0  0  0
    8.6754    2.2764    0.0077 H   0  0  0  0  0  0  0  0  0  0  0  0
    8.6750    2.7359    1.7071 H   0  0  0  0  0  0  0  0  0  0  0  0
  1  2  1  0
  1 26  1  0
  1 27  1  0
  1 28  1  0
  2  3  1  0
  2  7  1  0
  2 29  1  6
  3  4  1  0
  3 30  1  0
  3 31  1  0
  4  5  1  0
  4 32  1  0
  4 33  1  0
  5  6  1  0
  5 34  1  0
  5 35  1  0
  6  7  1  0
  6 36  1  0
  6 37  1  0
  7  8  1  0
  7 38  1  1
  8  9  1  0
  8 39  1  0
  9 10  2  0
  9 11  1  0
 11 12  1  0
 11 13  1  0
 11 40  1  1
 12 41  1  0
 12 42  1  0
 12 43  1  0
 13 14  1  0
 13 25  1  0
 14 15  1  0
 14 44  1  0
 14 45  1  0
 15 16  1  0
 15 46  1  0
 15 47  1  0
 16 17  1  0
 16 24  1  0
 16 48  1  1
 17 18  1  0
 18 19  2  0
 18 23  1  0
 19 20  1  0
 19 49  1  0
 20 21  2  0
 20 50  1  0
 21 22  1  0
 21 51  1  0
 22 23  2  0
 22 52  1  0
 24 25  1  0
 24 53  1  0
 24 54  1  0
 25 55  1  0
 25 56  1  0
M  END

