
     RDKit          3D

 37 39  0  0  0  0  0  0  0  0999 V2000
    1.2250    0.0318    0.2472 C   0  0  0  0  0  0  0  0  0  0  0  0
    2.6307    0.1558    0.5669 N   0  0  0  0  0  0  0  0  0  0  0  0
    3.3813   -0.8708    1.1663 C   0  0  0  0  0  0  0  0  0  0  0  0
    2.9593   -1.9607    1.4934 O   0  0  0  0  0  0  0  0  0  0  0  0
    4.7456   -0.2646    1.2668 C   0  0  0  0  0  0  0  0  0  0  0  0
    5.7976   -0.9410    1.8010 C   0  0  0  0  0  0  0  0  0  0  0  0
    7.1820   -0.5276    1.9779 C   0  0  0  0  0  0  0  0  0  0  0  0
    8.0809   -1.4347    2.5824 C   0  0  0  0  0  0  0  0  0  0  0  0
    9.4192   -1.0979    2.7794 C   0  0  0  0  0  0  0  0  0  0  0  0
    9.8900    0.1556    2.3749 C   0  0  0  0  0  0  0  0  0  0  0  0
    9.0123    1.0665    1.7729 C   0  0  0  0  0  0  0  0  0  0  0  0
    7.6736    0.7359    1.5738 C   0  0  0  0  0  0  0  0  0  0  0  0
    4.7075    1.0281    0.7380 N   0  0  0  0  0  0  0  0  0  0  0  0
    3.4825    1.2315    0.3483 C   0  0  0  0  0  0  0  0  0  0  0  0
    3.0007    2.5195   -0.2502 C   0  0  0  0  0  0  0  0  0  0  0  0
    2.1862    3.3744    0.7137 C   0  0  0  0  0  0  0  0  0  0  0  0
    2.6976    3.6962    1.9815 C   0  0  0  0  0  0  0  0  0  0  0  0
    1.9673    4.5004    2.8592 C   0  0  0  0  0  0  0  0  0  0  0  0
    0.7140    4.9964    2.4840 C   0  0  0  0  0  0  0  0  0  0  0  0
    0.1968    4.6822    1.2249 C   0  0  0  0  0  0  0  0  0  0  0  0
    0.9287    3.8750    0.3475 C   0  0  0  0  0  0  0  0  0  0  0  0
    0.9010   -0.9531    0.6120 H   0  0  0  0  0  0  0  0  0  0  0  0
    1.0495    0.0794   -0.8402 H   0  0  0  0  0  0  0  0  0  0  0  0
    0.6293    0.8149    0.7401 H   0  0  0  0  0  0  0  0  0  0  0  0
    5.5469   -1.9498    2.1463 H   0  0  0  0  0  0  0  0  0  0  0  0
    7.7142   -2.4151    2.8987 H   0  0  0  0  0  0  0  0  0  0  0  0
   10.0981   -1.8141    3.2492 H   0  0  0  0  0  0  0  0  0  0  0  0
   10.9390    0.4229    2.5275 H   0  0  0  0  0  0  0  0  0  0  0  0
    9.3789    2.0463    1.4553 H   0  0  0  0  0  0  0  0  0  0  0  0
    6.9845    1.4388    1.1053 H   0  0  0  0  0  0  0  0  0  0  0  0
    2.4040    2.3148   -1.1535 H   0  0  0  0  0  0  0  0  0  0  0  0
    3.9018    3.0662   -0.5670 H   0  0  0  0  0  0  0  0  0  0  0  0
    3.6770    3.3106    2.2774 H   0  0  0  0  0  0  0  0  0  0  0  0
    2.3797    4.7422    3.8422 H   0  0  0  0  0  0  0  0  0  0  0  0
    0.1432    5.6255    3.1716 H   0  0  0  0  0  0  0  0  0  0  0  0
   -0.7812    5.0652    0.9218 H   0  0  0  0  0  0  0  0  0  0  0  0
    0.5177    3.6358   -0.6379 H   0  0  0  0  0  0  0  0  0  0  0  0
  1  2  1  0
  1 22  1  0
  1 23  1  0
  1 24  1  0
  2  3  1  0
  2 14  1  0
  3  4  2  0
  3  5  1  0
  5  6  2  0
  5 13  1  0
  6  7  1  0
  6 25  1  0
  7  8  2  0
  7 12  1  0
  8  9  1  0
  8 26  1  0
  9 10  2  0
  9 27  1  0
 10 11  1  0
 10 28  1  0
 11 12  2  0
 11 29  1  0
 12 30  1  0
 13 14  2  0
 14 15  1  0
 15 16  1  0
 15 31  1  0
 15 32  1  0
 16 17  2  0
 16 21  1  0
 17 18  1  0
 17 33  1  0
 18 19  2  0
 18 34  1  0
 19 20  1  0
 19 35  1  0
 20 21  2  0
 20 36  1  0
 21 37  1  0
M  END

