
     RDKit          3D

 53 55  0  0  0  0  0  0  0  0999 V2000
   10.8288   -2.2155   -2.3102 C   0  0  0  0  0  0  0  0  0  0  0  0
   10.1388   -1.1737   -1.4749 C   0  0  0  0  0  0  0  0  0  0  0  0
    8.3831   -1.1117   -1.4864 S   0  0  0  0  0  0  0  0  0  0  0  0
    8.3853    0.2297   -0.3708 C   0  0  0  0  0  0  0  0  0  0  0  0
    7.2725    0.8086    0.0756 N   0  0  0  0  0  0  0  0  0  0  0  0
    7.4712    1.8108    0.9202 C   0  0  0  0  0  0  0  0  0  0  0  0
    8.6598    2.2708    1.3378 N   0  0  0  0  0  0  0  0  0  0  0  0
    9.7656    1.6935    0.8898 C   0  0  0  0  0  0  0  0  0  0  0  0
   11.3303    2.3319    1.4672 S   0  0  0  0  0  0  0  0  0  0  0  0
   10.7791    3.6574    2.5937 C   0  0  0  0  0  0  0  0  0  0  0  0
   10.3051    4.9919    2.0000 C   0  0  0  0  0  0  0  0  0  0  0  0
    9.7718    5.8060    2.7350 O   0  0  0  0  0  0  0  0  0  0  0  0
   10.5480    5.2092    0.6831 N   0  0  0  0  0  0  0  0  0  0  0  0
   10.1335    6.4329    0.0194 C   0  0  0  0  0  0  0  0  0  0  0  0
   11.0880    7.6305    0.2283 C   0  0  1  0  0  0  0  0  0  0  0  0
   12.5456    7.3191   -0.1631 C   0  0  0  0  0  0  0  0  0  0  0  0
   12.7130    7.2007   -1.6832 C   0  0  0  0  0  0  0  0  0  0  0  0
   12.0925    8.4119   -2.3781 C   0  0  0  0  0  0  0  0  0  0  0  0
   10.7518    8.6259   -1.9726 O   0  0  0  0  0  0  0  0  0  0  0  0
   10.5553    8.8430   -0.5709 C   0  0  2  0  0  0  0  0  0  0  0  0
   11.0702   10.2306   -0.1097 C   0  0  1  0  0  0  0  0  0  0  0  0
   10.5583   11.3307   -1.0494 C   0  0  0  0  0  0  0  0  0  0  0  0
   10.6638   10.5315    1.3400 C   0  0  0  0  0  0  0  0  0  0  0  0
    9.7106    0.6009   -0.0179 C   0  0  0  0  0  0  0  0  0  0  0  0
   10.7125   -0.2233   -0.6644 C   0  0  0  0  0  0  0  0  0  0  0  0
   12.2000   -0.0799   -0.4828 C   0  0  0  0  0  0  0  0  0  0  0  0
   10.1058   -2.8262   -2.8696 H   0  0  0  0  0  0  0  0  0  0  0  0
   11.4266   -2.9005   -1.6863 H   0  0  0  0  0  0  0  0  0  0  0  0
   11.5107   -1.7558   -3.0444 H   0  0  0  0  0  0  0  0  0  0  0  0
    6.5851    2.3187    1.3171 H   0  0  0  0  0  0  0  0  0  0  0  0
   11.6515    3.8600    3.2347 H   0  0  0  0  0  0  0  0  0  0  0  0
    9.9670    3.2795    3.2268 H   0  0  0  0  0  0  0  0  0  0  0  0
   10.9870    4.4656    0.1516 H   0  0  0  0  0  0  0  0  0  0  0  0
    9.1440    6.7107    0.4148 H   0  0  0  0  0  0  0  0  0  0  0  0
   10.0124    6.2233   -1.0535 H   0  0  0  0  0  0  0  0  0  0  0  0
   11.0509    7.8650    1.3022 H   0  0  0  0  0  0  0  0  0  0  0  0
   12.8777    6.3970    0.3411 H   0  0  0  0  0  0  0  0  0  0  0  0
   13.2016    8.1232    0.2133 H   0  0  0  0  0  0  0  0  0  0  0  0
   12.2233    6.2834   -2.0543 H   0  0  0  0  0  0  0  0  0  0  0  0
   13.7790    7.1192   -1.9561 H   0  0  0  0  0  0  0  0  0  0  0  0
   12.0586    8.2714   -3.4700 H   0  0  0  0  0  0  0  0  0  0  0  0
   12.7128    9.3110   -2.1865 H   0  0  0  0  0  0  0  0  0  0  0  0
    9.4559    8.8696   -0.4657 H   0  0  0  0  0  0  0  0  0  0  0  0
   12.1744   10.2338   -0.1525 H   0  0  0  0  0  0  0  0  0  0  0  0
    9.4567   11.3899   -1.0162 H   0  0  0  0  0  0  0  0  0  0  0  0
   10.8433   11.1412   -2.0936 H   0  0  0  0  0  0  0  0  0  0  0  0
   10.9546   12.3151   -0.7530 H   0  0  0  0  0  0  0  0  0  0  0  0
    9.5682   10.4787    1.4633 H   0  0  0  0  0  0  0  0  0  0  0  0
   10.9784   11.5480    1.6251 H   0  0  0  0  0  0  0  0  0  0  0  0
   11.1135    9.8349    2.0630 H   0  0  0  0  0  0  0  0  0  0  0  0
   12.4932   -0.2078    0.5715 H   0  0  0  0  0  0  0  0  0  0  0  0
   12.5537    0.9162   -0.7940 H   0  0  0  0  0  0  0  0  0  0  0  0
   12.7476   -0.8266   -1.0740 H   0  0  0  0  0  0  0  0  0  0  0  0
  1  2  1  0
  1 27  1  0
  1 28  1  0
  1 29  1  0
  2  3  1  0
  2 25  2  0
  3  4  1  0
  4  5  2  0
  4 24  1  0
  5  6  1  0
  6  7  2  0
  6 30  1  0
  7  8  1  0
  8  9  1  0
  8 24  2  0
  9 10  1  0
 10 11  1  0
 10 31  1  0
 10 32  1  0
 11 12  2  0
 11 13  1  0
 13 14  1  0
 13 33  1  0
 14 15  1  0
 14 34  1  0
 14 35  1  0
 15 16  1  0
 15 20  1  0
 15 36  1  1
 16 17  1  0
 16 37  1  0
 16 38  1  0
 17 18  1  0
 17 39  1  0
 17 40  1  0
 18 19  1  0
 18 41  1  0
 18 42  1  0
 19 20  1  0
 20 21  1  0
 20 43  1  6
 21 22  1  0
 21 23  1  0
 21 44  1  1
 22 45  1  0
 22 46  1  0
 22 47  1  0
 23 48  1  0
 23 49  1  0
 23 50  1  0
 24 25  1  0
 25 26  1  0
 26 51  1  0
 26 52  1  0
 26 53  1  0
M  END

