
     RDKit          3D

 56 59  0  0  0  0  0  0  0  0999 V2000
   -2.0722   -0.7311   -1.4677 C   0  0  0  0  0  0  0  0  0  0  0  0
   -0.7196   -1.0634   -1.2463 O   0  0  0  0  0  0  0  0  0  0  0  0
   -0.3042   -2.3355   -1.4551 C   0  0  0  0  0  0  0  0  0  0  0  0
    1.0602   -2.5908   -1.2096 C   0  0  0  0  0  0  0  0  0  0  0  0
    1.5834   -3.8603   -1.3939 C   0  0  0  0  0  0  0  0  0  0  0  0
    0.7729   -4.9357   -1.8318 C   0  0  0  0  0  0  0  0  0  0  0  0
    1.2752   -6.2897   -2.0419 C   0  0  0  0  0  0  0  0  0  0  0  0
    2.5453   -6.7428   -1.8794 C   0  0  0  0  0  0  0  0  0  0  0  0
    2.9275   -8.1131   -2.1105 C   0  0  0  0  0  0  0  0  0  0  0  0
    4.1920   -8.5829   -1.9664 C   0  0  0  0  0  0  0  0  0  0  0  0
    4.5329   -9.9933   -2.1491 C   0  0  0  0  0  0  0  0  0  0  0  0
    3.6401  -10.9304   -2.2686 N   0  0  0  0  0  0  0  0  0  0  0  0
    4.4033  -12.1301   -2.5311 C   0  0  2  0  0  0  0  0  0  0  0  0
    3.9577  -13.5102   -2.1088 C   0  0  0  0  0  0  0  0  0  0  0  0
    2.8567  -13.9173   -1.8382 O   0  0  0  0  0  0  0  0  0  0  0  0
    5.0765  -14.3730   -2.1388 N   0  0  0  0  0  0  0  0  0  0  0  0
    6.3917  -13.9730   -2.4519 C   0  0  0  0  0  0  0  0  0  0  0  0
    7.2303  -14.9903   -2.8409 N   0  0  0  0  0  0  0  0  0  0  0  0
    6.7894  -12.7511   -2.4118 N   0  0  0  0  0  0  0  0  0  0  0  0
    5.7727  -11.8732   -1.9174 C   0  0  1  0  0  0  0  0  0  0  0  0
    5.8731  -10.4410   -2.2002 N   0  0  0  0  0  0  0  0  0  0  0  0
    7.0527   -9.7157   -1.8516 C   0  0  1  0  0  0  0  0  0  0  0  0
    7.8622  -10.4666   -1.8371 H   0  0  0  0  0  0  0  0  0  0  0  0
    7.4480   -8.5523   -2.7964 C   0  0  0  0  0  0  0  0  0  0  0  0
    7.9417   -7.4282   -1.8602 C   0  0  2  0  0  0  0  0  0  0  0  0
    7.2427   -6.5733   -1.8844 H   0  0  0  0  0  0  0  0  0  0  0  0
    9.2681   -6.9905   -2.0866 O   0  0  0  0  0  0  0  0  0  0  0  0
    7.8890   -8.0701   -0.4580 C   0  0  1  0  0  0  0  0  0  0  0  0
    8.9057   -8.4581   -0.2411 H   0  0  0  0  0  0  0  0  0  0  0  0
    7.4490   -7.1308    0.6570 C   0  0  0  0  0  0  0  0  0  0  0  0
    6.1286   -6.6700    0.4654 O   0  0  0  0  0  0  0  0  0  0  0  0
    6.9468   -9.1248   -0.5464 O   0  0  0  0  0  0  0  0  0  0  0  0
   -0.5861   -4.6586   -2.0694 C   0  0  0  0  0  0  0  0  0  0  0  0
   -1.1289   -3.3845   -1.8886 C   0  0  0  0  0  0  0  0  0  0  0  0
   -2.1738    0.3376   -1.2364 H   0  0  0  0  0  0  0  0  0  0  0  0
   -2.7493   -1.3055   -0.8101 H   0  0  0  0  0  0  0  0  0  0  0  0
   -2.3701   -0.8998   -2.5183 H   0  0  0  0  0  0  0  0  0  0  0  0
    1.6867   -1.7633   -0.8706 H   0  0  0  0  0  0  0  0  0  0  0  0
    2.6439   -4.0249   -1.1920 H   0  0  0  0  0  0  0  0  0  0  0  0
    0.5236   -7.0174   -2.3707 H   0  0  0  0  0  0  0  0  0  0  0  0
    3.3371   -6.0615   -1.5477 H   0  0  0  0  0  0  0  0  0  0  0  0
    2.1502   -8.8243   -2.4110 H   0  0  0  0  0  0  0  0  0  0  0  0
    4.9852   -7.9020   -1.6590 H   0  0  0  0  0  0  0  0  0  0  0  0
    4.5648  -12.2207   -3.6321 H   0  0  0  0  0  0  0  0  0  0  0  0
    4.8542  -15.3569   -2.0169 H   0  0  0  0  0  0  0  0  0  0  0  0
    7.0052  -15.9459   -2.5970 H   0  0  0  0  0  0  0  0  0  0  0  0
    8.2154  -14.7531   -2.8388 H   0  0  0  0  0  0  0  0  0  0  0  0
    5.6994  -11.9998   -0.8090 H   0  0  0  0  0  0  0  0  0  0  0  0
    6.5939   -8.2431   -3.4138 H   0  0  0  0  0  0  0  0  0  0  0  0
    8.2607   -8.8623   -3.4687 H   0  0  0  0  0  0  0  0  0  0  0  0
    9.2681   -6.3890   -2.8413 H   0  0  0  0  0  0  0  0  0  0  0  0
    7.5633   -7.6417    1.6329 H   0  0  0  0  0  0  0  0  0  0  0  0
    8.1136   -6.2522    0.6611 H   0  0  0  0  0  0  0  0  0  0  0  0
    5.5639   -7.4567    0.4466 H   0  0  0  0  0  0  0  0  0  0  0  0
   -1.2407   -5.4671   -2.4071 H   0  0  0  0  0  0  0  0  0  0  0  0
   -2.1886   -3.2230   -2.0868 H   0  0  0  0  0  0  0  0  0  0  0  0
  1  2  1  0
  1 35  1  0
  1 36  1  0
  1 37  1  0
  2  3  1  0
  3  4  2  0
  3 34  1  0
  4  5  1  0
  4 38  1  0
  5  6  2  0
  5 39  1  0
  6  7  1  0
  6 33  1  0
  7  8  2  0
  7 40  1  0
  8  9  1  0
  8 41  1  0
  9 10  2  0
  9 42  1  0
 10 11  1  0
 10 43  1  0
 11 12  2  0
 11 21  1  0
 12 13  1  0
 13 14  1  0
 13 20  1  0
 13 44  1  6
 14 15  2  0
 14 16  1  0
 16 17  1  0
 16 45  1  0
 17 18  1  0
 17 19  2  0
 18 46  1  0
 18 47  1  0
 19 20  1  0
 20 21  1  0
 20 48  1  1
 21 22  1  0
 22 23  1  1
 22 24  1  0
 22 32  1  0
 24 25  1  0
 24 49  1  0
 24 50  1  0
 25 26  1  1
 25 27  1  0
 25 28  1  0
 27 51  1  0
 28 29  1  1
 28 30  1  0
 28 32  1  0
 30 31  1  0
 30 52  1  0
 30 53  1  0
 31 54  1  0
 33 34  2  0
 33 55  1  0
 34 56  1  0
M  END

