
     RDKit          3D

 71 78  0  0  0  0  0  0  0  0999 V2000
    0.5755    0.5385    0.5145 C   0  0  0  0  0  0  0  0  0  0  0  0
    1.8971    0.5036    0.2418 C   0  0  0  0  0  0  0  0  0  0  0  0
    2.5535    1.6047   -0.5168 C   0  0  0  0  0  0  0  0  0  0  0  0
    2.1454    2.9467   -0.3840 C   0  0  0  0  0  0  0  0  0  0  0  0
    2.7400    3.9608   -1.1290 C   0  0  0  0  0  0  0  0  0  0  0  0
    3.7816    3.6820   -2.0327 C   0  0  0  0  0  0  0  0  0  0  0  0
    4.4051    4.7888   -2.8067 C   0  0  0  0  0  0  0  0  0  0  0  0
    5.6181    4.6358   -3.4969 C   0  0  0  0  0  0  0  0  0  0  0  0
    6.1226    5.7413   -4.1975 C   0  0  0  0  0  0  0  0  0  0  0  0
    7.4007    5.6859   -4.9619 C   0  0  0  0  0  0  0  0  0  0  0  0
    7.6766    6.6736   -5.9250 C   0  0  0  0  0  0  0  0  0  0  0  0
    8.8610    6.6409   -6.6612 C   0  0  0  0  0  0  0  0  0  0  0  0
    9.7987    5.6262   -6.4429 C   0  0  0  0  0  0  0  0  0  0  0  0
    9.5416    4.6444   -5.4813 C   0  0  0  0  0  0  0  0  0  0  0  0
    8.3534    4.6729   -4.7491 C   0  0  0  0  0  0  0  0  0  0  0  0
    5.4492    6.8999   -4.2088 N   0  0  0  0  0  0  0  0  0  0  0  0
    4.3033    6.9737   -3.5205 C   0  0  0  0  0  0  0  0  0  0  0  0
    3.5733    8.2733   -3.5340 C   0  0  0  0  0  0  0  0  0  0  0  0
    4.1375    9.4031   -4.1518 C   0  0  0  0  0  0  0  0  0  0  0  0
    3.4541   10.6197   -4.1628 C   0  0  0  0  0  0  0  0  0  0  0  0
    2.1963   10.7260   -3.5598 C   0  0  0  0  0  0  0  0  0  0  0  0
    1.6267    9.6066   -2.9438 C   0  0  0  0  0  0  0  0  0  0  0  0
    2.3095    8.3897   -2.9291 C   0  0  0  0  0  0  0  0  0  0  0  0
    3.7660    5.9674   -2.8209 N   0  0  0  0  0  0  0  0  0  0  0  0
    4.1971    2.3443   -2.1623 C   0  0  0  0  0  0  0  0  0  0  0  0
    3.6007    1.3294   -1.4176 C   0  0  0  0  0  0  0  0  0  0  0  0
    2.7651   -0.6233    0.7045 C   0  0  0  0  0  0  0  0  0  0  0  0
    3.8676   -0.3028    1.5215 C   0  0  0  0  0  0  0  0  0  0  0  0
    4.7419   -1.2794    1.9915 C   0  0  0  0  0  0  0  0  0  0  0  0
    4.5424   -2.6138    1.6228 C   0  0  0  0  0  0  0  0  0  0  0  0
    3.4699   -2.9480    0.8013 C   0  0  0  0  0  0  0  0  0  0  0  0
    2.5549   -1.9772    0.3421 C   0  0  0  0  0  0  0  0  0  0  0  0
    1.4918   -2.4678   -0.5758 C   0  0  0  0  0  0  0  0  0  0  0  0
    1.8583   -3.3476   -1.5588 N   0  0  0  0  0  0  0  0  0  0  0  0
    0.7485   -3.6888   -2.1903 C   0  0  0  0  0  0  0  0  0  0  0  0
    0.5355   -4.5555   -3.2910 C   0  0  0  0  0  0  0  0  0  0  0  0
   -0.7420   -4.7550   -3.7627 C   0  0  0  0  0  0  0  0  0  0  0  0
   -1.8447   -4.0936   -3.1460 C   0  0  0  0  0  0  0  0  0  0  0  0
   -1.6434   -3.2523   -2.0838 C   0  0  0  0  0  0  0  0  0  0  0  0
   -0.3662   -3.0453   -1.6174 N   0  0  0  0  0  0  0  0  0  0  0  0
    0.1049   -2.2610   -0.5795 C   0  0  0  0  0  0  0  0  0  0  0  0
   -0.8561   -1.5119    0.2913 C   0  0  0  0  0  0  0  0  0  0  0  0
   -0.1844   -0.5209    1.2571 C   0  0  0  0  0  0  0  0  0  0  0  0
   -0.0161    1.3705    0.1168 H   0  0  0  0  0  0  0  0  0  0  0  0
    1.3632    3.2012    0.3347 H   0  0  0  0  0  0  0  0  0  0  0  0
    2.4183    4.9958   -1.0111 H   0  0  0  0  0  0  0  0  0  0  0  0
    6.1498    3.6873   -3.4915 H   0  0  0  0  0  0  0  0  0  0  0  0
    6.9401    7.4615   -6.0853 H   0  0  0  0  0  0  0  0  0  0  0  0
    9.0545    7.4126   -7.4107 H   0  0  0  0  0  0  0  0  0  0  0  0
   10.7282    5.6022   -7.0175 H   0  0  0  0  0  0  0  0  0  0  0  0
   10.2729    3.8537   -5.2956 H   0  0  0  0  0  0  0  0  0  0  0  0
    8.1834    3.9072   -3.9898 H   0  0  0  0  0  0  0  0  0  0  0  0
    5.1196    9.3095   -4.6161 H   0  0  0  0  0  0  0  0  0  0  0  0
    3.9055   11.4914   -4.6440 H   0  0  0  0  0  0  0  0  0  0  0  0
    1.6611   11.6793   -3.5698 H   0  0  0  0  0  0  0  0  0  0  0  0
    0.6433    9.6828   -2.4724 H   0  0  0  0  0  0  0  0  0  0  0  0
    1.8741    7.5102   -2.4540 H   0  0  0  0  0  0  0  0  0  0  0  0
    4.9845    2.0755   -2.8688 H   0  0  0  0  0  0  0  0  0  0  0  0
    3.9372    0.2990   -1.5494 H   0  0  0  0  0  0  0  0  0  0  0  0
    4.0329    0.7440    1.7880 H   0  0  0  0  0  0  0  0  0  0  0  0
    5.5800   -0.9997    2.6348 H   0  0  0  0  0  0  0  0  0  0  0  0
    5.2267   -3.3923    1.9699 H   0  0  0  0  0  0  0  0  0  0  0  0
    3.3213   -3.9815    0.4846 H   0  0  0  0  0  0  0  0  0  0  0  0
    1.4066   -5.0435   -3.7300 H   0  0  0  0  0  0  0  0  0  0  0  0
   -0.9187   -5.4220   -4.6092 H   0  0  0  0  0  0  0  0  0  0  0  0
   -2.8612   -4.2499   -3.5105 H   0  0  0  0  0  0  0  0  0  0  0  0
   -2.4485   -2.7239   -1.5738 H   0  0  0  0  0  0  0  0  0  0  0  0
   -1.4734   -2.2279    0.8690 H   0  0  0  0  0  0  0  0  0  0  0  0
   -1.5670   -0.9538   -0.3469 H   0  0  0  0  0  0  0  0  0  0  0  0
    0.4786   -1.0679    1.9446 H   0  0  0  0  0  0  0  0  0  0  0  0
   -0.9722   -0.0552    1.8721 H   0  0  0  0  0  0  0  0  0  0  0  0
  1  2  2  0
  1 43  1  0
  1 44  1  0
  2  3  1  0
  2 27  1  0
  3  4  2  0
  3 26  1  0
  4  5  1  0
  4 45  1  0
  5  6  2  0
  5 46  1  0
  6  7  1  0
  6 25  1  0
  7  8  2  0
  7 24  1  0
  8  9  1  0
  8 47  1  0
  9 10  1  0
  9 16  2  0
 10 11  2  0
 10 15  1  0
 11 12  1  0
 11 48  1  0
 12 13  2  0
 12 49  1  0
 13 14  1  0
 13 50  1  0
 14 15  2  0
 14 51  1  0
 15 52  1  0
 16 17  1  0
 17 18  1  0
 17 24  2  0
 18 19  2  0
 18 23  1  0
 19 20  1  0
 19 53  1  0
 20 21  2  0
 20 54  1  0
 21 22  1  0
 21 55  1  0
 22 23  2  0
 22 56  1  0
 23 57  1  0
 25 26  2  0
 25 58  1  0
 26 59  1  0
 27 28  1  0
 27 32  2  0
 28 29  2  0
 28 60  1  0
 29 30  1  0
 29 61  1  0
 30 31  2  0
 30 62  1  0
 31 32  1  0
 31 63  1  0
 32 33  1  0
 33 34  1  0
 33 41  2  0
 34 35  2  0
 35 36  1  0
 35 40  1  0
 36 37  2  0
 36 64  1  0
 37 38  1  0
 37 65  1  0
 38 39  2  0
 38 66  1  0
 39 40  1  0
 39 67  1  0
 40 41  1  0
 41 42  1  0
 42 43  1  0
 42 68  1  0
 42 69  1  0
 43 70  1  0
 43 71  1  0
M  END

