
     RDKit          3D

 46 47  0  0  0  0  0  0  0  0999 V2000
    3.5617    0.0125    2.5179 C   0  0  0  0  0  0  0  0  0  0  0  0
    3.8955   -0.1315    1.0650 C   0  0  0  0  0  0  0  0  0  0  0  0
    4.6001    0.8141    0.4521 N   0  0  0  0  0  0  0  0  0  0  0  0
    4.7432    0.4102   -0.8245 N   0  0  0  0  0  0  0  0  0  0  0  0
    5.4702    1.2392   -1.7619 C   0  0  0  0  0  0  0  0  0  0  0  0
    4.1499   -0.7924   -1.0598 C   0  0  0  0  0  0  0  0  0  0  0  0
    4.1496   -1.4311   -2.4118 C   0  0  0  0  0  0  0  0  0  0  0  0
    3.5820   -1.1868    0.1528 C   0  0  0  0  0  0  0  0  0  0  0  0
    2.7749   -2.4475    0.3518 C   0  0  1  0  0  0  0  0  0  0  0  0
    3.0701   -3.2152    1.5562 N   0  0  0  0  0  0  0  0  0  0  0  0
    2.4373   -3.1292    2.7767 C   0  0  0  0  0  0  0  0  0  0  0  0
    1.5058   -2.3819    3.0137 O   0  0  0  0  0  0  0  0  0  0  0  0
    2.9322   -3.9924    3.7480 N   0  0  0  0  0  0  0  0  0  0  0  0
    4.2163   -4.6614    3.7361 C   0  0  0  0  0  0  0  0  0  0  0  0
    4.2864   -5.9189    2.8764 C   0  0  0  0  0  0  0  0  0  0  0  0
    5.5222   -6.3565    2.3712 C   0  0  0  0  0  0  0  0  0  0  0  0
    5.6146   -7.5295    1.6254 C   0  0  0  0  0  0  0  0  0  0  0  0
    4.4656   -8.2853    1.3444 C   0  0  0  0  0  0  0  0  0  0  0  0
    4.6370   -9.5429    0.5363 C   0  0  0  0  0  0  0  0  0  0  0  0
    5.7035  -10.0727    0.3684 O   0  0  0  0  0  0  0  0  0  0  0  0
    3.5194  -10.0673   -0.0148 O   0  0  0  0  0  0  0  0  0  0  0  0
    3.2309   -7.8525    1.8528 C   0  0  0  0  0  0  0  0  0  0  0  0
    3.1420   -6.6824    2.6089 C   0  0  0  0  0  0  0  0  0  0  0  0
    1.2689   -2.2135    0.0762 C   0  0  1  0  0  0  0  0  0  0  0  0
    0.7495   -1.1431    0.6678 F   0  0  0  0  0  0  0  0  0  0  0  0
    1.1313   -2.0198   -1.2612 F   0  0  0  0  0  0  0  0  0  0  0  0
    0.5338   -3.2883    0.3899 F   0  0  0  0  0  0  0  0  0  0  0  0
    3.8010    1.0344    2.8431 H   0  0  0  0  0  0  0  0  0  0  0  0
    4.1497   -0.6868    3.1367 H   0  0  0  0  0  0  0  0  0  0  0  0
    2.5026   -0.2029    2.7137 H   0  0  0  0  0  0  0  0  0  0  0  0
    5.7274    2.1678   -1.2390 H   0  0  0  0  0  0  0  0  0  0  0  0
    4.8542    1.4790   -2.6431 H   0  0  0  0  0  0  0  0  0  0  0  0
    6.3982    0.7499   -2.1018 H   0  0  0  0  0  0  0  0  0  0  0  0
    3.4474   -0.9297   -3.0998 H   0  0  0  0  0  0  0  0  0  0  0  0
    3.8391   -2.4832   -2.3522 H   0  0  0  0  0  0  0  0  0  0  0  0
    5.1481   -1.4031   -2.8771 H   0  0  0  0  0  0  0  0  0  0  0  0
    3.0395   -3.1265   -0.4730 H   0  0  0  0  0  0  0  0  0  0  0  0
    3.7397   -3.9611    1.4187 H   0  0  0  0  0  0  0  0  0  0  0  0
    2.4853   -3.8344    4.6432 H   0  0  0  0  0  0  0  0  0  0  0  0
    4.4458   -4.9434    4.7774 H   0  0  0  0  0  0  0  0  0  0  0  0
    5.0267   -3.9727    3.4307 H   0  0  0  0  0  0  0  0  0  0  0  0
    6.4253   -5.7712    2.5690 H   0  0  0  0  0  0  0  0  0  0  0  0
    6.5736   -7.8818    1.2411 H   0  0  0  0  0  0  0  0  0  0  0  0
    2.7686   -9.4679    0.0955 H   0  0  0  0  0  0  0  0  0  0  0  0
    2.3197   -8.4369    1.6917 H   0  0  0  0  0  0  0  0  0  0  0  0
    2.1770   -6.3502    2.9973 H   0  0  0  0  0  0  0  0  0  0  0  0
  1  2  1  0
  1 28  1  0
  1 29  1  0
  1 30  1  0
  2  3  2  0
  2  8  1  0
  3  4  1  0
  4  5  1  0
  4  6  1  0
  5 31  1  0
  5 32  1  0
  5 33  1  0
  6  7  1  0
  6  8  2  0
  7 34  1  0
  7 35  1  0
  7 36  1  0
  8  9  1  0
  9 10  1  0
  9 24  1  0
  9 37  1  6
 10 11  1  0
 10 38  1  0
 11 12  2  0
 11 13  1  0
 13 14  1  0
 13 39  1  0
 14 15  1  0
 14 40  1  0
 14 41  1  0
 15 16  2  0
 15 23  1  0
 16 17  1  0
 16 42  1  0
 17 18  2  0
 17 43  1  0
 18 19  1  0
 18 22  1  0
 19 20  2  0
 19 21  1  0
 21 44  1  0
 22 23  2  0
 22 45  1  0
 23 46  1  0
 24 25  1  1
 24 26  1  0
 24 27  1  0
M  END

