
     RDKit          3D

 65 69  0  0  0  0  0  0  0  0999 V2000
    1.8972    3.4687   -0.0531 C   0  0  0  0  0  0  0  0  0  0  0  0
    2.8018    2.3161   -0.5033 C   0  0  0  0  0  0  0  0  0  0  0  0
    3.1801    1.3699    0.5501 N   0  0  0  0  0  0  0  0  0  0  0  0
    2.0811    0.6571    1.2094 C   0  0  0  0  0  0  0  0  0  0  0  0
    1.3110   -0.3003    0.2951 C   0  0  0  0  0  0  0  0  0  0  0  0
    4.8289    1.2208    1.0605 Si  0  0  1  0  0  4  0  0  0  0  0  0
    5.8396    0.9096   -0.3091 N   0  0  0  0  0  0  0  0  0  0  0  0
    5.3598    0.2158   -1.5110 C   0  0  0  0  0  0  0  0  0  0  0  0
    5.3346   -1.3150   -1.4410 C   0  0  0  0  0  0  0  0  0  0  0  0
    7.2452    1.3353   -0.3327 C   0  0  0  0  0  0  0  0  0  0  0  0
    8.2891    0.2179   -0.2434 C   0  0  0  0  0  0  0  0  0  0  0  0
    5.5008    2.5556    2.0365 N   0  0  0  0  0  0  0  0  0  0  0  0
    5.1418    3.8790    1.8689 C   0  0  0  0  0  0  0  0  0  0  0  0
    5.2071    4.8243    2.8346 C   0  0  0  0  0  0  0  0  0  0  0  0
    5.7378    4.4874    4.1478 C   0  0  0  0  0  0  0  0  0  0  0  0
    5.9169    5.4596    5.1494 C   0  0  0  0  0  0  0  0  0  0  0  0
    6.5216    5.1409    6.3659 C   0  0  0  0  0  0  0  0  0  0  0  0
    6.9808    3.8413    6.5929 C   0  0  0  0  0  0  0  0  0  0  0  0
    6.8009    2.8627    5.6082 C   0  0  0  0  0  0  0  0  0  0  0  0
    6.1562    3.1570    4.4014 C   0  0  0  0  0  0  0  0  0  0  0  0
    5.9601    2.0607    3.3680 C   0  0  1  0  0  0  0  0  0  0  0  0
    4.9202    0.9122    3.6876 C   0  0  2  0  0  0  0  0  0  0  0  0
    5.1169    0.0753    4.9340 C   0  0  0  0  0  0  0  0  0  0  0  0
    4.6431    0.5242    6.1708 C   0  0  0  0  0  0  0  0  0  0  0  0
    4.8753   -0.2079    7.3405 C   0  0  0  0  0  0  0  0  0  0  0  0
    5.5852   -1.4104    7.2713 C   0  0  0  0  0  0  0  0  0  0  0  0
    6.0301   -1.8886    6.0379 C   0  0  0  0  0  0  0  0  0  0  0  0
    5.7925   -1.1673    4.8528 C   0  0  0  0  0  0  0  0  0  0  0  0
    6.1325   -1.6884    3.5369 C   0  0  0  0  0  0  0  0  0  0  0  0
    5.6616   -1.0728    2.4254 C   0  0  0  0  0  0  0  0  0  0  0  0
    4.9284    0.1011    2.4370 N   0  0  0  0  0  0  0  0  0  0  0  0
    1.7314    4.1667   -0.8897 H   0  0  0  0  0  0  0  0  0  0  0  0
    2.3465    4.0288    0.7819 H   0  0  0  0  0  0  0  0  0  0  0  0
    0.9079    3.1133    0.2746 H   0  0  0  0  0  0  0  0  0  0  0  0
    3.7279    2.7330   -0.9338 H   0  0  0  0  0  0  0  0  0  0  0  0
    2.3060    1.7843   -1.3389 H   0  0  0  0  0  0  0  0  0  0  0  0
    1.3715    1.3755    1.6616 H   0  0  0  0  0  0  0  0  0  0  0  0
    2.5076    0.0821    2.0436 H   0  0  0  0  0  0  0  0  0  0  0  0
    0.8098    0.2220   -0.5356 H   0  0  0  0  0  0  0  0  0  0  0  0
    0.5299   -0.8254    0.8684 H   0  0  0  0  0  0  0  0  0  0  0  0
    1.9828   -1.0585   -0.1392 H   0  0  0  0  0  0  0  0  0  0  0  0
    5.9962    0.5320   -2.3567 H   0  0  0  0  0  0  0  0  0  0  0  0
    4.3434    0.5624   -1.7549 H   0  0  0  0  0  0  0  0  0  0  0  0
    6.3265   -1.7369   -1.2201 H   0  0  0  0  0  0  0  0  0  0  0  0
    4.9936   -1.7362   -2.4016 H   0  0  0  0  0  0  0  0  0  0  0  0
    4.6365   -1.6643   -0.6630 H   0  0  0  0  0  0  0  0  0  0  0  0
    7.3980    2.0369    0.5007 H   0  0  0  0  0  0  0  0  0  0  0  0
    7.4222    1.9179   -1.2583 H   0  0  0  0  0  0  0  0  0  0  0  0
    8.1601   -0.3792    0.6734 H   0  0  0  0  0  0  0  0  0  0  0  0
    9.3025    0.6519   -0.2261 H   0  0  0  0  0  0  0  0  0  0  0  0
    8.2413   -0.4653   -1.1060 H   0  0  0  0  0  0  0  0  0  0  0  0
    4.7911    4.1384    0.8658 H   0  0  0  0  0  0  0  0  0  0  0  0
    4.9232    5.8535    2.6112 H   0  0  0  0  0  0  0  0  0  0  0  0
    5.5888    6.4844    4.9531 H   0  0  0  0  0  0  0  0  0  0  0  0
    6.6526    5.9129    7.1290 H   0  0  0  0  0  0  0  0  0  0  0  0
    7.4820    3.5854    7.5295 H   0  0  0  0  0  0  0  0  0  0  0  0
    7.1733    1.8518    5.7857 H   0  0  0  0  0  0  0  0  0  0  0  0
    6.9300    1.5445    3.2371 H   0  0  0  0  0  0  0  0  0  0  0  0
    3.9422    1.4183    3.7660 H   0  0  0  0  0  0  0  0  0  0  0  0
    4.0956    1.4687    6.2244 H   0  0  0  0  0  0  0  0  0  0  0  0
    4.5055    0.1627    8.2996 H   0  0  0  0  0  0  0  0  0  0  0  0
    5.7780   -1.9870    8.1800 H   0  0  0  0  0  0  0  0  0  0  0  0
    6.5541   -2.8468    5.9786 H   0  0  0  0  0  0  0  0  0  0  0  0
    6.6765   -2.6297    3.4470 H   0  0  0  0  0  0  0  0  0  0  0  0
    5.8288   -1.5029    1.4353 H   0  0  0  0  0  0  0  0  0  0  0  0
  1  2  1  0
  1 32  1  0
  1 33  1  0
  1 34  1  0
  2  3  1  0
  2 35  1  0
  2 36  1  0
  3  4  1  0
  6  3  1  6
  4  5  1  0
  4 37  1  0
  4 38  1  0
  5 39  1  0
  5 40  1  0
  5 41  1  0
  6  7  1  0
  6 12  1  0
  6 31  1  0
  7  8  1  0
  7 10  1  0
  8  9  1  0
  8 42  1  0
  8 43  1  0
  9 44  1  0
  9 45  1  0
  9 46  1  0
 10 11  1  0
 10 47  1  0
 10 48  1  0
 11 49  1  0
 11 50  1  0
 11 51  1  0
 12 13  1  0
 12 21  1  0
 13 14  2  0
 13 52  1  0
 14 15  1  0
 14 53  1  0
 15 16  2  0
 15 20  1  0
 16 17  1  0
 16 54  1  0
 17 18  2  0
 17 55  1  0
 18 19  1  0
 18 56  1  0
 19 20  2  0
 19 57  1  0
 20 21  1  0
 21 22  1  0
 21 58  1  6
 22 23  1  0
 22 31  1  0
 22 59  1  1
 23 24  2  0
 23 28  1  0
 24 25  1  0
 24 60  1  0
 25 26  2  0
 25 61  1  0
 26 27  1  0
 26 62  1  0
 27 28  2  0
 27 63  1  0
 28 29  1  0
 29 30  2  0
 29 64  1  0
 30 31  1  0
 30 65  1  0
M  END

