
     RDKit          3D

 24 24  0  0  0  0  0  0  0  0999 V2000
    3.6071    1.1669   -0.0563 N   0  0  0  0  0  0  0  0  0  0  0  0
    2.7182    0.0111   -0.0107 C   0  0  1  0  0  0  0  0  0  0  0  0
    1.2272    0.4182   -0.1175 C   0  0  0  0  0  0  0  0  0  0  0  0
    0.8880    1.3645    0.8774 O   0  0  0  0  0  0  0  0  0  0  0  0
    3.0998   -1.0352   -1.0463 C   0  0  0  0  0  0  0  0  0  0  0  0
    4.0072   -0.7573   -2.0629 C   0  0  0  0  0  0  0  0  0  0  0  0
    4.3413   -1.7257   -3.0198 C   0  0  0  0  0  0  0  0  0  0  0  0
    5.2143   -1.4036   -3.9839 F   0  0  0  0  0  0  0  0  0  0  0  0
    3.8016   -2.9929   -2.9818 C   0  0  0  0  0  0  0  0  0  0  0  0
    2.9031   -3.2937   -1.9428 C   0  0  0  0  0  0  0  0  0  0  0  0
    2.3565   -4.6396   -1.8968 N   0  0  0  0  0  0  0  0  0  0  0  0
    2.6647   -5.4344   -2.7607 O   0  0  0  0  0  0  0  0  0  0  0  0
    1.5847   -4.9238   -0.9624 O   0  0  0  0  0  0  0  0  0  0  0  0
    2.5395   -2.3383   -0.9607 C   0  0  0  0  0  0  0  0  0  0  0  0
    1.7110   -2.6086    0.0508 O   0  0  0  0  0  0  0  0  0  0  0  0
    3.3784    1.7660    0.7371 H   0  0  0  0  0  0  0  0  0  0  0  0
    3.3803    1.7370   -0.8757 H   0  0  0  0  0  0  0  0  0  0  0  0
    2.8444   -0.4651    0.9797 H   0  0  0  0  0  0  0  0  0  0  0  0
    0.5740   -0.4696   -0.0800 H   0  0  0  0  0  0  0  0  0  0  0  0
    1.0674    0.9125   -1.0916 H   0  0  0  0  0  0  0  0  0  0  0  0
    0.7511    0.8911    1.7083 H   0  0  0  0  0  0  0  0  0  0  0  0
    4.4949    0.2168   -2.1042 H   0  0  0  0  0  0  0  0  0  0  0  0
    4.0576   -3.7515   -3.7192 H   0  0  0  0  0  0  0  0  0  0  0  0
    1.4450   -3.5587   -0.0525 H   0  0  0  0  0  0  0  0  0  0  0  0
  1  2  1  0
  1 16  1  0
  1 17  1  0
  2  3  1  0
  2  5  1  0
  2 18  1  1
  3  4  1  0
  3 19  1  0
  3 20  1  0
  4 21  1  0
  5  6  2  0
  5 14  1  0
  6  7  1  0
  6 22  1  0
  7  8  1  0
  7  9  2  0
  9 10  1  0
  9 23  1  0
 10 11  1  0
 10 14  2  0
 11 12  2  0
 11 13  1  0
 14 15  1  0
 15 24  1  0
M  CHG  2  11   1  13  -1
M  END

