
     RDKit          3D

 46 47  0  0  0  0  0  0  0  0999 V2000
    3.8228   -0.4051    0.3714 C   0  0  0  0  0  0  0  0  0  0  0  0
    2.6463    0.4287   -0.1426 C   0  0  2  0  0  0  0  0  0  0  0  0
    1.9121   -0.2368   -0.6203 H   0  0  0  0  0  0  0  0  0  0  0  0
    3.0923    1.3268   -1.2100 N   0  0  0  0  0  0  0  0  0  0  0  0
    2.4308    1.4546   -2.3993 C   0  0  0  0  0  0  0  0  0  0  0  0
    1.4423    0.7669   -2.6814 O   0  0  0  0  0  0  0  0  0  0  0  0
    2.9296    2.4026   -3.2624 N   0  0  0  0  0  0  0  0  0  0  0  0
    2.4293    2.4730   -4.6367 C   0  0  1  0  0  0  0  0  0  0  0  0
    0.9724    2.9865   -4.6716 C   0  0  0  0  0  0  0  0  0  0  0  0
    0.1515    2.4836   -5.8599 C   0  0  0  0  0  0  0  0  0  0  0  0
   -0.1049    0.9747   -5.9990 C   0  0  0  0  0  0  0  0  0  0  0  0
   -0.5446    0.5302   -7.0301 O   0  0  0  0  0  0  0  0  0  0  0  0
    0.1339    0.1710   -4.9583 O   0  0  0  0  0  0  0  0  0  0  0  0
    3.3676    3.3582   -5.4766 C   0  0  0  0  0  0  0  0  0  0  0  0
    4.8010    2.8722   -5.5405 C   0  0  0  0  0  0  0  0  0  0  0  0
    5.1260    1.6741   -6.2007 C   0  0  0  0  0  0  0  0  0  0  0  0
    6.4436    1.2149   -6.2448 C   0  0  0  0  0  0  0  0  0  0  0  0
    7.4663    1.9450   -5.6280 C   0  0  0  0  0  0  0  0  0  0  0  0
    7.1596    3.1378   -4.9700 C   0  0  0  0  0  0  0  0  0  0  0  0
    5.8371    3.5954   -4.9282 C   0  0  0  0  0  0  0  0  0  0  0  0
    1.9466    1.1839    0.9778 C   0  0  1  0  0  0  0  0  0  0  0  0
    0.5176    1.6331    0.8123 C   0  0  0  0  0  0  0  0  0  0  0  0
    0.8493    0.5124    1.7653 C   0  0  0  0  0  0  0  0  0  0  0  0
    4.5993    0.2374    0.8220 H   0  0  0  0  0  0  0  0  0  0  0  0
    4.2850   -0.9800   -0.4453 H   0  0  0  0  0  0  0  0  0  0  0  0
    3.4860   -1.1086    1.1479 H   0  0  0  0  0  0  0  0  0  0  0  0
    3.8073    2.0077   -0.9792 H   0  0  0  0  0  0  0  0  0  0  0  0
    3.8878    2.7045   -3.1176 H   0  0  0  0  0  0  0  0  0  0  0  0
    2.4467    1.4538   -5.0635 H   0  0  0  0  0  0  0  0  0  0  0  0
    0.9794    4.0899   -4.6737 H   0  0  0  0  0  0  0  0  0  0  0  0
    0.4720    2.6916   -3.7391 H   0  0  0  0  0  0  0  0  0  0  0  0
    0.5869    2.7953   -6.8231 H   0  0  0  0  0  0  0  0  0  0  0  0
   -0.8481    2.9498   -5.8358 H   0  0  0  0  0  0  0  0  0  0  0  0
    0.5627    0.5662   -4.1607 H   0  0  0  0  0  0  0  0  0  0  0  0
    3.3412    4.3835   -5.0709 H   0  0  0  0  0  0  0  0  0  0  0  0
    2.9471    3.4141   -6.4940 H   0  0  0  0  0  0  0  0  0  0  0  0
    4.3378    1.0956   -6.6914 H   0  0  0  0  0  0  0  0  0  0  0  0
    6.6752    0.2829   -6.7670 H   0  0  0  0  0  0  0  0  0  0  0  0
    8.4978    1.5859   -5.6653 H   0  0  0  0  0  0  0  0  0  0  0  0
    7.9513    3.7200   -4.4911 H   0  0  0  0  0  0  0  0  0  0  0  0
    5.6084    4.5391   -4.4230 H   0  0  0  0  0  0  0  0  0  0  0  0
    2.6072    1.8520    1.5466 H   0  0  0  0  0  0  0  0  0  0  0  0
    0.0204    1.3749   -0.1269 H   0  0  0  0  0  0  0  0  0  0  0  0
    0.2242    2.6010    1.2286 H   0  0  0  0  0  0  0  0  0  0  0  0
    0.5632   -0.5042    1.4772 H   0  0  0  0  0  0  0  0  0  0  0  0
    0.7905    0.7032    2.8405 H   0  0  0  0  0  0  0  0  0  0  0  0
  1  2  1  0
  1 24  1  0
  1 25  1  0
  1 26  1  0
  2  3  1  6
  2  4  1  0
  2 21  1  0
  4  5  1  0
  4 27  1  0
  5  6  2  0
  5  7  1  0
  7  8  1  0
  7 28  1  0
  8  9  1  0
  8 14  1  0
  8 29  1  6
  9 10  1  0
  9 30  1  0
  9 31  1  0
 10 11  1  0
 10 32  1  0
 10 33  1  0
 11 12  2  0
 11 13  1  0
 13 34  1  0
 14 15  1  0
 14 35  1  0
 14 36  1  0
 15 16  2  0
 15 20  1  0
 16 17  1  0
 16 37  1  0
 17 18  2  0
 17 38  1  0
 18 19  1  0
 18 39  1  0
 19 20  2  0
 19 40  1  0
 20 41  1  0
 21 22  1  0
 21 23  1  0
 21 42  1  1
 22 23  1  0
 22 43  1  0
 22 44  1  0
 23 45  1  0
 23 46  1  0
M  END

