
     RDKit          3D

 30 30  0  0  0  0  0  0  0  0999 V2000
    0.8619    0.0245    0.1597 C   0  0  0  0  0  0  0  0  0  0  0  0
    2.3981    0.0477    0.2060 C   0  0  1  0  0  0  0  0  0  0  0  0
    2.8671    0.7013    1.5130 C   0  0  0  0  0  0  0  0  0  0  0  0
    2.9996   -1.3747    0.0108 C   0  0  1  0  0  0  0  0  0  0  0  0
    2.7386   -1.9702    0.9079 H   0  0  0  0  0  0  0  0  0  0  0  0
    2.5380   -1.9699   -1.2443 N   0  0  0  0  0  0  0  0  0  0  0  0
    4.5413   -1.3164    0.0099 C   0  0  0  0  0  0  0  0  0  0  0  0
    5.1901   -1.3061    1.0428 O   0  0  0  0  0  0  0  0  0  0  0  0
    5.0704   -1.2407   -1.2517 N   0  0  0  0  0  0  0  0  0  0  0  0
    6.4098   -1.1285   -1.6270 C   0  0  0  0  0  0  0  0  0  0  0  0
    7.4850   -1.0440   -0.7250 C   0  0  0  0  0  0  0  0  0  0  0  0
    8.7853   -0.9290   -1.2052 C   0  0  0  0  0  0  0  0  0  0  0  0
    9.8063   -0.8491   -0.3466 F   0  0  0  0  0  0  0  0  0  0  0  0
    9.0499   -0.8959   -2.5768 C   0  0  0  0  0  0  0  0  0  0  0  0
   10.3087   -0.7850   -3.0098 F   0  0  0  0  0  0  0  0  0  0  0  0
    7.9987   -0.9794   -3.4867 C   0  0  0  0  0  0  0  0  0  0  0  0
    6.7031   -1.0947   -3.0023 C   0  0  0  0  0  0  0  0  0  0  0  0
    5.6755   -1.1779   -3.8704 F   0  0  0  0  0  0  0  0  0  0  0  0
    0.4621    1.0303    0.3630 H   0  0  0  0  0  0  0  0  0  0  0  0
    0.4514   -0.6551    0.9262 H   0  0  0  0  0  0  0  0  0  0  0  0
    0.4593   -0.2768   -0.8206 H   0  0  0  0  0  0  0  0  0  0  0  0
    2.7552    0.6619   -0.6414 H   0  0  0  0  0  0  0  0  0  0  0  0
    2.5079    0.1328    2.3872 H   0  0  0  0  0  0  0  0  0  0  0  0
    2.4628    1.7230    1.5894 H   0  0  0  0  0  0  0  0  0  0  0  0
    3.9610    0.7558    1.5879 H   0  0  0  0  0  0  0  0  0  0  0  0
    1.5426   -1.8170   -1.3858 H   0  0  0  0  0  0  0  0  0  0  0  0
    2.6825   -2.9797   -1.2419 H   0  0  0  0  0  0  0  0  0  0  0  0
    4.3705   -1.3282   -1.9914 H   0  0  0  0  0  0  0  0  0  0  0  0
    7.2976   -1.0714    0.3464 H   0  0  0  0  0  0  0  0  0  0  0  0
    8.1902   -0.9552   -4.5601 H   0  0  0  0  0  0  0  0  0  0  0  0
  1  2  1  0
  1 19  1  0
  1 20  1  0
  1 21  1  0
  2  3  1  0
  2  4  1  0
  2 22  1  6
  3 23  1  0
  3 24  1  0
  3 25  1  0
  4  5  1  1
  4  6  1  0
  4  7  1  0
  6 26  1  0
  6 27  1  0
  7  8  2  0
  7  9  1  0
  9 10  1  0
  9 28  1  0
 10 11  2  0
 10 17  1  0
 11 12  1  0
 11 29  1  0
 12 13  1  0
 12 14  2  0
 14 15  1  0
 14 16  1  0
 16 17  2  0
 16 30  1  0
 17 18  1  0
M  END

