
     RDKit          3D

 40 42  0  0  0  0  0  0  0  0999 V2000
    1.1116    0.2919    0.8027 C   0  0  0  0  0  0  0  0  0  0  0  0
    2.5058    0.1285    0.2507 C   0  0  0  0  0  0  0  0  0  0  0  0
    3.2473    1.2514   -0.1420 C   0  0  0  0  0  0  0  0  0  0  0  0
    4.5635    1.1685   -0.5893 C   0  0  0  0  0  0  0  0  0  0  0  0
    5.2061   -0.0818   -0.6427 C   0  0  0  0  0  0  0  0  0  0  0  0
    6.5261   -0.1591   -1.1005 N   0  0  0  0  0  0  0  0  0  0  0  0
    7.3089   -1.3396   -1.1601 C   0  0  0  0  0  0  0  0  0  0  0  0
    8.3857   -1.5030   -0.2910 C   0  0  0  0  0  0  0  0  0  0  0  0
    9.1731   -2.6575   -0.4109 C   0  0  0  0  0  0  0  0  0  0  0  0
   10.2765   -3.1093    0.2697 N   0  0  0  0  0  0  0  0  0  0  0  0
   10.7675   -2.6600    1.0309 H   0  0  0  0  0  0  0  0  0  0  0  0
   10.6986   -4.3092   -0.1718 N   0  0  0  0  0  0  0  0  0  0  0  0
    9.8788   -4.6572   -1.1482 C   0  0  0  0  0  0  0  0  0  0  0  0
    8.8735   -3.6594   -1.3678 C   0  0  0  0  0  0  0  0  0  0  0  0
    7.7831   -3.4872   -2.2421 C   0  0  0  0  0  0  0  0  0  0  0  0
    7.0083   -2.3271   -2.1668 C   0  0  0  0  0  0  0  0  0  0  0  0
    5.9966   -2.0770   -3.0834 N   0  0  0  0  0  0  0  0  0  0  0  0
    4.4808   -1.2223   -0.2557 C   0  0  0  0  0  0  0  0  0  0  0  0
    3.1432   -1.1372    0.1741 C   0  0  0  0  0  0  0  0  0  0  0  0
    2.4409   -2.3029    0.5825 N   0  0  0  0  0  0  0  0  0  0  0  0
    3.2196   -3.4217    1.0746 C   0  0  0  0  0  0  0  0  0  0  0  0
    1.3435   -2.7286   -0.2729 C   0  0  0  0  0  0  0  0  0  0  0  0
    0.9748    1.2995    1.2240 H   0  0  0  0  0  0  0  0  0  0  0  0
    0.9176   -0.4486    1.5940 H   0  0  0  0  0  0  0  0  0  0  0  0
    0.3265    0.1582    0.0363 H   0  0  0  0  0  0  0  0  0  0  0  0
    2.7783    2.2378   -0.0732 H   0  0  0  0  0  0  0  0  0  0  0  0
    5.1035    2.0729   -0.8834 H   0  0  0  0  0  0  0  0  0  0  0  0
    7.0472    0.7075   -1.0399 H   0  0  0  0  0  0  0  0  0  0  0  0
    8.5838   -0.7430    0.4682 H   0  0  0  0  0  0  0  0  0  0  0  0
   10.0233   -5.6030   -1.6702 H   0  0  0  0  0  0  0  0  0  0  0  0
    7.5594   -4.2369   -3.0059 H   0  0  0  0  0  0  0  0  0  0  0  0
    5.5939   -2.8861   -3.5402 H   0  0  0  0  0  0  0  0  0  0  0  0
    5.3161   -1.3711   -2.8327 H   0  0  0  0  0  0  0  0  0  0  0  0
    4.9757   -2.1918   -0.2853 H   0  0  0  0  0  0  0  0  0  0  0  0
    3.9853   -3.0732    1.7823 H   0  0  0  0  0  0  0  0  0  0  0  0
    3.7282   -4.0050    0.2756 H   0  0  0  0  0  0  0  0  0  0  0  0
    2.5525   -4.1183    1.6085 H   0  0  0  0  0  0  0  0  0  0  0  0
    0.7326   -1.8745   -0.5898 H   0  0  0  0  0  0  0  0  0  0  0  0
    0.6892   -3.4286    0.2729 H   0  0  0  0  0  0  0  0  0  0  0  0
    1.7002   -3.2457   -1.1912 H   0  0  0  0  0  0  0  0  0  0  0  0
  1  2  1  0
  1 23  1  0
  1 24  1  0
  1 25  1  0
  2  3  2  0
  2 19  1  0
  3  4  1  0
  3 26  1  0
  4  5  2  0
  4 27  1  0
  5  6  1  0
  5 18  1  0
  6  7  1  0
  6 28  1  0
  7  8  2  0
  7 16  1  0
  8  9  1  0
  8 29  1  0
  9 10  1  0
  9 14  2  0
 10 11  1  0
 10 12  1  0
 12 13  2  0
 13 14  1  0
 13 30  1  0
 14 15  1  0
 15 16  2  0
 15 31  1  0
 16 17  1  0
 17 32  1  0
 17 33  1  0
 18 19  2  0
 18 34  1  0
 19 20  1  0
 20 21  1  0
 20 22  1  0
 21 35  1  0
 21 36  1  0
 21 37  1  0
 22 38  1  0
 22 39  1  0
 22 40  1  0
M  END

