
     RDKit          3D

 23 24  0  0  0  0  0  0  0  0999 V2000
    1.0934    0.1102    0.3795 C   0  0  0  0  0  0  0  0  0  0  0  0
    2.4458   -0.1978   -0.0655 N   0  0  0  0  0  0  0  0  0  0  0  0
    3.1705    0.8627   -0.7394 C   0  0  0  0  0  0  0  0  0  0  0  0
    3.5437    2.0580    0.1156 C   0  0  0  0  0  0  0  0  0  0  0  0
    3.7412    2.1502    1.4710 C   0  0  0  0  0  0  0  0  0  0  0  0
    4.0883    3.3862    1.9596 N   0  0  0  0  0  0  0  0  0  0  0  0
    4.1651    4.2492    1.0070 C   0  0  0  0  0  0  0  0  0  0  0  0
    4.5850    5.9085    1.2195 Cl  0  0  0  0  0  0  0  0  0  0  0  0
    3.8099    3.6336   -0.5970 S   0  0  0  0  0  0  0  0  0  0  0  0
    3.1725   -1.1850    0.5807 C   0  0  0  0  0  0  0  0  0  0  0  0
    4.4626   -1.2547    0.9927 C   0  0  0  0  0  0  0  0  0  0  0  0
    4.7267   -2.5311    1.4661 O   0  0  0  0  0  0  0  0  0  0  0  0
    3.5863   -3.2856    1.3858 C   0  0  0  0  0  0  0  0  0  0  0  0
    3.4888   -4.4363    1.7140 O   0  0  0  0  0  0  0  0  0  0  0  0
    2.6207   -2.4429    0.8555 N   0  0  0  0  0  0  0  0  0  0  0  0
    1.7226   -2.7908    0.5481 H   0  0  0  0  0  0  0  0  0  0  0  0
    1.0643    0.8385    1.2121 H   0  0  0  0  0  0  0  0  0  0  0  0
    0.5831   -0.8024    0.7169 H   0  0  0  0  0  0  0  0  0  0  0  0
    0.5154    0.5265   -0.4608 H   0  0  0  0  0  0  0  0  0  0  0  0
    2.5548    1.2135   -1.5869 H   0  0  0  0  0  0  0  0  0  0  0  0
    4.0796    0.4185   -1.1796 H   0  0  0  0  0  0  0  0  0  0  0  0
    3.6394    1.3139    2.1642 H   0  0  0  0  0  0  0  0  0  0  0  0
    5.2745   -0.5365    1.0048 H   0  0  0  0  0  0  0  0  0  0  0  0
  1  2  1  0
  1 17  1  0
  1 18  1  0
  1 19  1  0
  2  3  1  0
  2 10  1  0
  3  4  1  0
  3 20  1  0
  3 21  1  0
  4  5  2  0
  4  9  1  0
  5  6  1  0
  5 22  1  0
  6  7  2  0
  7  8  1  0
  7  9  1  0
 10 11  2  0
 10 15  1  0
 11 12  1  0
 11 23  1  0
 12 13  1  0
 13 14  2  0
 13 15  1  0
 15 16  1  0
M  END

