
     RDKit          3D

106107  0  0  0  0  0  0  0  0999 V2000
   25.3857   -2.6154  -17.5983 C   0  0  0  0  0  0  0  0  0  0  0  0
   26.0705   -3.9611  -17.8761 C   0  0  0  0  0  0  0  0  0  0  0  0
   25.5025   -4.6833  -19.0669 C   0  0  0  0  0  0  0  0  0  0  0  0
   24.9596   -5.9070  -19.0564 C   0  0  0  0  0  0  0  0  0  0  0  0
   24.4028   -6.6250  -20.2616 C   0  0  0  0  0  0  0  0  0  0  0  0
   22.9284   -6.9360  -20.1555 C   0  0  0  0  0  0  0  0  0  0  0  0
   22.0025   -6.5594  -21.0461 C   0  0  0  0  0  0  0  0  0  0  0  0
   20.5341   -6.9017  -20.9782 C   0  0  0  0  0  0  0  0  0  0  0  0
   19.6223   -5.7207  -21.2021 C   0  0  0  0  0  0  0  0  0  0  0  0
   18.6779   -5.3021  -20.3512 C   0  0  0  0  0  0  0  0  0  0  0  0
   17.7468   -4.1377  -20.5910 C   0  0  0  0  0  0  0  0  0  0  0  0
   17.8991   -3.0444  -19.5620 C   0  0  0  0  0  0  0  0  0  0  0  0
   16.9402   -2.6239  -18.7272 C   0  0  0  0  0  0  0  0  0  0  0  0
   17.1107   -1.5422  -17.6864 C   0  0  0  0  0  0  0  0  0  0  0  0
   16.9183   -2.0577  -16.2796 C   0  0  0  0  0  0  0  0  0  0  0  0
   17.8938   -2.1774  -15.3709 C   0  0  0  0  0  0  0  0  0  0  0  0
   17.7481   -2.7380  -13.9836 C   0  0  0  0  0  0  0  0  0  0  0  0
   18.2710   -1.7962  -12.8854 C   0  0  0  0  0  0  0  0  0  0  0  0
   18.2604   -2.3933  -11.4748 C   0  0  0  0  0  0  0  0  0  0  0  0
   19.2976   -3.4494  -11.0767 C   0  0  0  0  0  0  0  0  0  0  0  0
   19.2557   -3.9569   -9.9687 O   0  0  0  0  0  0  0  0  0  0  0  0
   20.2744   -3.7629  -11.9855 N   0  0  0  0  0  0  0  0  0  0  0  0
   21.4039   -4.6009  -11.6236 C   0  0  0  0  0  0  0  0  0  0  0  0
   21.8993   -5.5037  -12.7474 C   0  0  0  0  0  0  0  0  0  0  0  0
   22.2982   -4.7383  -13.9334 N   0  0  0  0  0  0  0  0  0  0  0  0
   23.3174   -5.3730  -14.7610 C   0  0  0  0  0  0  0  0  0  0  0  0
   22.9163   -6.7077  -15.3945 C   0  0  0  0  0  0  0  0  0  0  0  0
   21.8229   -6.6277  -16.3578 N   0  0  0  0  0  0  0  0  0  0  0  0
   20.4475   -7.5288  -16.2590 P   0  0  1  0  0  0  0  0  0  0  0  0
   20.2053   -8.0522  -14.8769 O   0  0  0  0  0  0  0  0  0  0  0  0
   19.2658   -6.6322  -16.8921 O   0  0  0  0  0  0  0  0  0  0  0  0
   18.7448   -5.5216  -16.1435 C   0  0  0  0  0  0  0  0  0  0  0  0
   20.5785   -8.6668  -17.4011 O   0  0  0  0  0  0  0  0  0  0  0  0
   19.5095   -9.5214  -17.8353 C   0  0  0  0  0  0  0  0  0  0  0  0
   18.8229  -10.2885  -16.7052 C   0  0  1  0  0  0  0  0  0  0  0  0
   17.9287  -11.1961  -17.3462 O   0  0  0  0  0  0  0  0  0  0  0  0
   17.7504  -12.3591  -16.5375 C   0  0  2  0  0  0  0  0  0  0  0  0
   16.6457  -12.2904  -15.6226 N   0  0  0  0  0  0  0  0  0  0  0  0
   16.6881  -11.6435  -14.4003 C   0  0  0  0  0  0  0  0  0  0  0  0
   15.5742  -11.4602  -13.6460 C   0  0  0  0  0  0  0  0  0  0  0  0
   14.2980  -12.0964  -14.0067 C   0  0  0  0  0  0  0  0  0  0  0  0
   13.3009  -12.1250  -13.3033 O   0  0  0  0  0  0  0  0  0  0  0  0
   14.3520  -12.7619  -15.2284 N   0  0  0  0  0  0  0  0  0  0  0  0
   15.3188  -12.3756  -16.2273 C   0  0  0  0  0  0  0  0  0  0  0  0
   19.1596  -12.5728  -15.9072 C   0  0  2  0  0  0  0  0  0  0  0  0
   20.0092  -13.4601  -16.8081 C   0  0  0  0  0  0  0  0  0  0  0  0
   19.0755  -13.1835  -14.6776 F   0  0  0  0  0  0  0  0  0  0  0  0
   19.7522  -11.1291  -15.7856 C   0  0  2  0  0  0  0  0  0  0  0  0
   19.7402  -10.7136  -14.4538 O   0  0  0  0  0  0  0  0  0  0  0  0
   25.8527   -2.0984  -16.7446 H   0  0  0  0  0  0  0  0  0  0  0  0
   24.3153   -2.7510  -17.3718 H   0  0  0  0  0  0  0  0  0  0  0  0
   25.4535   -1.9443  -18.4705 H   0  0  0  0  0  0  0  0  0  0  0  0
   26.0080   -4.6089  -16.9846 H   0  0  0  0  0  0  0  0  0  0  0  0
   27.1482   -3.7787  -18.0468 H   0  0  0  0  0  0  0  0  0  0  0  0
   25.5467   -4.1392  -20.0213 H   0  0  0  0  0  0  0  0  0  0  0  0
   24.9141   -6.4562  -18.1048 H   0  0  0  0  0  0  0  0  0  0  0  0
   24.9540   -7.5789  -20.3833 H   0  0  0  0  0  0  0  0  0  0  0  0
   24.5950   -6.0340  -21.1720 H   0  0  0  0  0  0  0  0  0  0  0  0
   22.6149   -7.5302  -19.2856 H   0  0  0  0  0  0  0  0  0  0  0  0
   22.3195   -5.9715  -21.9190 H   0  0  0  0  0  0  0  0  0  0  0  0
   20.3053   -7.3825  -20.0141 H   0  0  0  0  0  0  0  0  0  0  0  0
   20.3204   -7.6535  -21.7656 H   0  0  0  0  0  0  0  0  0  0  0  0
   19.7515   -5.1871  -22.1546 H   0  0  0  0  0  0  0  0  0  0  0  0
   18.5581   -5.8260  -19.3938 H   0  0  0  0  0  0  0  0  0  0  0  0
   16.7000   -4.4922  -20.5847 H   0  0  0  0  0  0  0  0  0  0  0  0
   17.9374   -3.7274  -21.5992 H   0  0  0  0  0  0  0  0  0  0  0  0
   18.8926   -2.5789  -19.5077 H   0  0  0  0  0  0  0  0  0  0  0  0
   15.9495   -3.0967  -18.7775 H   0  0  0  0  0  0  0  0  0  0  0  0
   16.3719   -0.7405  -17.8790 H   0  0  0  0  0  0  0  0  0  0  0  0
   18.1096   -1.0870  -17.7848 H   0  0  0  0  0  0  0  0  0  0  0  0
   15.9035   -2.3859  -16.0154 H   0  0  0  0  0  0  0  0  0  0  0  0
   18.9065   -1.8505  -15.6494 H   0  0  0  0  0  0  0  0  0  0  0  0
   18.3017   -3.6932  -13.9207 H   0  0  0  0  0  0  0  0  0  0  0  0
   16.6923   -2.9879  -13.7836 H   0  0  0  0  0  0  0  0  0  0  0  0
   17.6551   -0.8815  -12.8852 H   0  0  0  0  0  0  0  0  0  0  0  0
   19.2906   -1.4510  -13.1415 H   0  0  0  0  0  0  0  0  0  0  0  0
   17.2773   -2.8378  -11.2464 H   0  0  0  0  0  0  0  0  0  0  0  0
   18.3894   -1.5911  -10.7287 H   0  0  0  0  0  0  0  0  0  0  0  0
   20.3004   -3.2981  -12.8839 H   0  0  0  0  0  0  0  0  0  0  0  0
   21.0899   -5.2050  -10.7613 H   0  0  0  0  0  0  0  0  0  0  0  0
   22.2479   -3.9709  -11.2722 H   0  0  0  0  0  0  0  0  0  0  0  0
   21.1181   -6.2304  -13.0266 H   0  0  0  0  0  0  0  0  0  0  0  0
   22.7486   -6.0893  -12.3311 H   0  0  0  0  0  0  0  0  0  0  0  0
   22.6738   -3.8374  -13.6361 H   0  0  0  0  0  0  0  0  0  0  0  0
   24.2492   -5.5857  -14.1868 H   0  0  0  0  0  0  0  0  0  0  0  0
   23.5984   -4.6660  -15.5608 H   0  0  0  0  0  0  0  0  0  0  0  0
   22.6144   -7.4204  -14.6144 H   0  0  0  0  0  0  0  0  0  0  0  0
   23.8165   -7.1311  -15.8751 H   0  0  0  0  0  0  0  0  0  0  0  0
   22.0052   -6.1339  -17.2282 H   0  0  0  0  0  0  0  0  0  0  0  0
   18.0731   -5.8806  -15.3494 H   0  0  0  0  0  0  0  0  0  0  0  0
   18.1920   -4.8882  -16.8473 H   0  0  0  0  0  0  0  0  0  0  0  0
   19.5664   -4.9412  -15.6952 H   0  0  0  0  0  0  0  0  0  0  0  0
   19.9704  -10.2384  -18.5295 H   0  0  0  0  0  0  0  0  0  0  0  0
   18.7631   -8.9328  -18.3915 H   0  0  0  0  0  0  0  0  0  0  0  0
   18.2590   -9.5900  -16.0607 H   0  0  0  0  0  0  0  0  0  0  0  0
   17.5148  -13.1652  -17.2481 H   0  0  0  0  0  0  0  0  0  0  0  0
   17.6716  -11.3085  -14.0637 H   0  0  0  0  0  0  0  0  0  0  0  0
   15.6292  -10.9589  -12.6807 H   0  0  0  0  0  0  0  0  0  0  0  0
   13.4650  -13.1404  -15.5446 H   0  0  0  0  0  0  0  0  0  0  0  0
   15.0702  -11.3947  -16.6953 H   0  0  0  0  0  0  0  0  0  0  0  0
   15.3382  -13.1289  -17.0305 H   0  0  0  0  0  0  0  0  0  0  0  0
   19.5714  -14.4681  -16.8679 H   0  0  0  0  0  0  0  0  0  0  0  0
   21.0270  -13.5432  -16.3991 H   0  0  0  0  0  0  0  0  0  0  0  0
   20.0695  -13.0414  -17.8242 H   0  0  0  0  0  0  0  0  0  0  0  0
   20.7833  -11.1283  -16.1900 H   0  0  0  0  0  0  0  0  0  0  0  0
   19.9531   -9.7541  -14.4421 H   0  0  0  0  0  0  0  0  0  0  0  0
  1  2  1  0
  1 50  1  0
  1 51  1  0
  1 52  1  0
  2  3  1  0
  2 53  1  0
  2 54  1  0
  3  4  2  0
  3 55  1  0
  4  5  1  0
  4 56  1  0
  5  6  1  0
  5 57  1  0
  5 58  1  0
  6  7  2  0
  6 59  1  0
  7  8  1  0
  7 60  1  0
  8  9  1  0
  8 61  1  0
  8 62  1  0
  9 10  2  0
  9 63  1  0
 10 11  1  0
 10 64  1  0
 11 12  1  0
 11 65  1  0
 11 66  1  0
 12 13  2  0
 12 67  1  0
 13 14  1  0
 13 68  1  0
 14 15  1  0
 14 69  1  0
 14 70  1  0
 15 16  2  0
 15 71  1  0
 16 17  1  0
 16 72  1  0
 17 18  1  0
 17 73  1  0
 17 74  1  0
 18 19  1  0
 18 75  1  0
 18 76  1  0
 19 20  1  0
 19 77  1  0
 19 78  1  0
 20 21  2  0
 20 22  1  0
 22 23  1  0
 22 79  1  0
 23 24  1  0
 23 80  1  0
 23 81  1  0
 24 25  1  0
 24 82  1  0
 24 83  1  0
 25 26  1  0
 25 84  1  0
 26 27  1  0
 26 85  1  0
 26 86  1  0
 27 28  1  0
 27 87  1  0
 27 88  1  0
 28 29  1  0
 28 89  1  0
 29 30  2  0
 29 31  1  6
 29 33  1  0
 31 32  1  0
 32 90  1  0
 32 91  1  0
 32 92  1  0
 33 34  1  0
 34 35  1  0
 34 93  1  0
 34 94  1  0
 35 36  1  0
 35 48  1  0
 35 95  1  1
 36 37  1  0
 37 38  1  0
 37 45  1  0
 37 96  1  6
 38 39  1  0
 38 44  1  0
 39 40  2  0
 39 97  1  0
 40 41  1  0
 40 98  1  0
 41 42  2  0
 41 43  1  0
 43 44  1  0
 43 99  1  0
 44100  1  0
 44101  1  0
 45 46  1  0
 45 47  1  1
 45 48  1  0
 46102  1  0
 46103  1  0
 46104  1  0
 48 49  1  0
 48105  1  6
 49106  1  0
M  END

