
     RDKit          3D

 20 20  0  0  0  0  0  0  0  0999 V2000
    1.1085   -0.2971    0.3830 C   0  0  0  0  0  0  0  0  0  0  0  0
    2.5295   -0.3470    0.4986 O   0  0  0  0  0  0  0  0  0  0  0  0
    3.1490    0.8253    0.6847 C   0  0  0  0  0  0  0  0  0  0  0  0
    2.5591    1.8808    0.7536 O   0  0  0  0  0  0  0  0  0  0  0  0
    4.6390    0.7127    0.7997 C   0  0  0  0  0  0  0  0  0  0  0  0
    5.3314    1.9245    0.9967 C   0  0  0  0  0  0  0  0  0  0  0  0
    6.7180    1.9396    1.1171 C   0  0  0  0  0  0  0  0  0  0  0  0
    7.4333    3.0782    1.3080 O   0  0  0  0  0  0  0  0  0  0  0  0
    7.4375    0.7356    1.0415 C   0  0  0  0  0  0  0  0  0  0  0  0
    6.7697   -0.4723    0.8467 C   0  0  0  0  0  0  0  0  0  0  0  0
    7.3971   -1.6687    0.7639 O   0  0  0  0  0  0  0  0  0  0  0  0
    5.3634   -0.4817    0.7257 C   0  0  0  0  0  0  0  0  0  0  0  0
    4.7823   -1.6678    0.5406 F   0  0  0  0  0  0  0  0  0  0  0  0
    0.7796   -1.3344    0.2449 H   0  0  0  0  0  0  0  0  0  0  0  0
    0.8068    0.3181   -0.4784 H   0  0  0  0  0  0  0  0  0  0  0  0
    0.6560    0.1311    1.2904 H   0  0  0  0  0  0  0  0  0  0  0  0
    4.7405    2.8413    1.0502 H   0  0  0  0  0  0  0  0  0  0  0  0
    6.8306    3.8328    1.3430 H   0  0  0  0  0  0  0  0  0  0  0  0
    8.5260    0.7618    1.1376 H   0  0  0  0  0  0  0  0  0  0  0  0
    8.3496   -1.5387    0.8590 H   0  0  0  0  0  0  0  0  0  0  0  0
  1  2  1  0
  1 14  1  0
  1 15  1  0
  1 16  1  0
  2  3  1  0
  3  4  2  0
  3  5  1  0
  5  6  2  0
  5 12  1  0
  6  7  1  0
  6 17  1  0
  7  8  1  0
  7  9  2  0
  8 18  1  0
  9 10  1  0
  9 19  1  0
 10 11  1  0
 10 12  2  0
 11 20  1  0
 12 13  1  0
M  END

