
     RDKit          3D

 42 44  0  0  0  0  0  0  0  0999 V2000
    1.2500    0.1400   -1.9714 C   0  0  0  0  0  0  0  0  0  0  0  0
    2.6688    0.2507   -1.8520 O   0  0  0  0  0  0  0  0  0  0  0  0
    3.1270    0.8633   -0.7531 C   0  0  0  0  0  0  0  0  0  0  0  0
    2.4087    1.3107    0.1129 O   0  0  0  0  0  0  0  0  0  0  0  0
    4.6199    0.9409   -0.7003 C   0  0  0  0  0  0  0  0  0  0  0  0
    5.4151    0.4279   -1.6931 C   0  0  0  0  0  0  0  0  0  0  0  0
    6.8719    0.4945   -1.6659 C   0  0  0  0  0  0  0  0  0  0  0  0
    7.5921    0.0425   -2.5465 O   0  0  0  0  0  0  0  0  0  0  0  0
    7.4229    1.1321   -0.5255 N   0  0  0  0  0  0  0  0  0  0  0  0
    8.8736    1.2316   -0.4375 C   0  0  0  0  0  0  0  0  0  0  0  0
    6.6378    1.6498    0.4821 C   0  0  0  0  0  0  0  0  0  0  0  0
    7.0999    2.3096    1.6587 C   0  0  0  0  0  0  0  0  0  0  0  0
    6.0669    2.7263    2.4760 C   0  0  0  0  0  0  0  0  0  0  0  0
    6.1652    3.4350    3.7626 C   0  0  0  0  0  0  0  0  0  0  0  0
    5.1322    4.2881    4.1989 C   0  0  0  0  0  0  0  0  0  0  0  0
    5.2723    4.9569    5.4125 C   0  0  0  0  0  0  0  0  0  0  0  0
    6.4086    4.7969    6.2057 C   0  0  0  0  0  0  0  0  0  0  0  0
    7.4648    3.9474    5.7942 C   0  0  0  0  0  0  0  0  0  0  0  0
    8.6130    3.8032    6.5677 N   0  0  0  0  0  0  0  0  0  0  0  0
    9.4297    2.6055    6.5358 C   0  0  0  0  0  0  0  0  0  0  0  0
    8.8047    4.6295    7.7394 C   0  0  0  0  0  0  0  0  0  0  0  0
    7.3100    3.2757    4.5600 C   0  0  0  0  0  0  0  0  0  0  0  0
    4.5016    2.3033    1.8168 S   0  0  0  0  0  0  0  0  0  0  0  0
    5.2407    1.5698    0.4178 C   0  0  0  0  0  0  0  0  0  0  0  0
    1.0642   -0.3822   -2.9176 H   0  0  0  0  0  0  0  0  0  0  0  0
    0.7814    1.1357   -1.9841 H   0  0  0  0  0  0  0  0  0  0  0  0
    0.8316   -0.4313   -1.1290 H   0  0  0  0  0  0  0  0  0  0  0  0
    4.9815   -0.0607   -2.5640 H   0  0  0  0  0  0  0  0  0  0  0  0
    9.2874    0.7518   -1.3315 H   0  0  0  0  0  0  0  0  0  0  0  0
    9.2449    0.7187    0.4640 H   0  0  0  0  0  0  0  0  0  0  0  0
    9.1910    2.2861   -0.4035 H   0  0  0  0  0  0  0  0  0  0  0  0
    8.1472    2.5045    1.8806 H   0  0  0  0  0  0  0  0  0  0  0  0
    4.2448    4.4419    3.5823 H   0  0  0  0  0  0  0  0  0  0  0  0
    4.4750    5.6203    5.7581 H   0  0  0  0  0  0  0  0  0  0  0  0
    6.4616    5.3228    7.1581 H   0  0  0  0  0  0  0  0  0  0  0  0
    9.1457    1.9479    5.7077 H   0  0  0  0  0  0  0  0  0  0  0  0
    9.3211    2.0179    7.4694 H   0  0  0  0  0  0  0  0  0  0  0  0
   10.5004    2.8524    6.4200 H   0  0  0  0  0  0  0  0  0  0  0  0
    8.5889    5.6859    7.5189 H   0  0  0  0  0  0  0  0  0  0  0  0
    9.8573    4.5671    8.0544 H   0  0  0  0  0  0  0  0  0  0  0  0
    8.1774    4.3238    8.6030 H   0  0  0  0  0  0  0  0  0  0  0  0
    8.0947    2.6093    4.2049 H   0  0  0  0  0  0  0  0  0  0  0  0
  1  2  1  0
  1 25  1  0
  1 26  1  0
  1 27  1  0
  2  3  1  0
  3  4  2  0
  3  5  1  0
  5  6  2  0
  5 24  1  0
  6  7  1  0
  6 28  1  0
  7  8  2  0
  7  9  1  0
  9 10  1  0
  9 11  1  0
 10 29  1  0
 10 30  1  0
 10 31  1  0
 11 12  1  0
 11 24  2  0
 12 13  2  0
 12 32  1  0
 13 14  1  0
 13 23  1  0
 14 15  2  0
 14 22  1  0
 15 16  1  0
 15 33  1  0
 16 17  2  0
 16 34  1  0
 17 18  1  0
 17 35  1  0
 18 19  1  0
 18 22  2  0
 19 20  1  0
 19 21  1  0
 20 36  1  0
 20 37  1  0
 20 38  1  0
 21 39  1  0
 21 40  1  0
 21 41  1  0
 22 42  1  0
 23 24  1  0
M  END

