
     RDKit          3D

 42 44  0  0  0  0  0  0  0  0999 V2000
    2.2027    1.2338   -0.8471 C   0  0  0  0  0  0  0  0  0  0  0  0
    2.4380    0.2803    0.0784 C   0  0  0  0  0  0  0  0  0  0  0  0
    1.7953   -1.0344   -0.0188 C   0  0  0  0  0  0  0  0  0  0  0  0
    2.0836   -2.2947    0.4946 C   0  0  0  0  0  0  0  0  0  0  0  0
    1.1854   -3.2278    0.0549 N   0  0  0  0  0  0  0  0  0  0  0  0
    0.3422   -2.5695   -0.7090 C   0  0  0  0  0  0  0  0  0  0  0  0
    0.6643   -1.2488   -0.7943 N   0  0  0  0  0  0  0  0  0  0  0  0
    0.1377   -0.5323   -1.2778 H   0  0  0  0  0  0  0  0  0  0  0  0
    3.4021    0.6098    1.2370 C   0  0  1  0  0  0  0  0  0  0  0  0
    2.9700    0.0485    2.6016 C   0  0  0  0  0  0  0  0  0  0  0  0
    3.6887   -0.9865    3.2182 C   0  0  0  0  0  0  0  0  0  0  0  0
    3.3086   -1.5080    4.4572 C   0  0  0  0  0  0  0  0  0  0  0  0
    2.1911   -0.9880    5.1098 C   0  0  0  0  0  0  0  0  0  0  0  0
    1.4755    0.0533    4.5157 C   0  0  0  0  0  0  0  0  0  0  0  0
    1.8438    0.5889    3.2717 C   0  0  0  0  0  0  0  0  0  0  0  0
    1.0425    1.7327    2.6961 C   0  0  0  0  0  0  0  0  0  0  0  0
    4.8724    0.3355    0.8964 C   0  0  0  0  0  0  0  0  0  0  0  0
    5.2412   -0.6435   -0.0380 C   0  0  0  0  0  0  0  0  0  0  0  0
    6.5813   -0.8973   -0.3429 C   0  0  0  0  0  0  0  0  0  0  0  0
    7.5838   -0.1595    0.2857 C   0  0  0  0  0  0  0  0  0  0  0  0
    7.2303    0.8262    1.2098 C   0  0  0  0  0  0  0  0  0  0  0  0
    5.8903    1.0927    1.5302 C   0  0  0  0  0  0  0  0  0  0  0  0
    5.5706    2.1794    2.5298 C   0  0  0  0  0  0  0  0  0  0  0  0
    1.5982    1.0526   -1.7399 H   0  0  0  0  0  0  0  0  0  0  0  0
    2.6447    2.2293   -0.7586 H   0  0  0  0  0  0  0  0  0  0  0  0
    2.9027   -2.5660    1.1550 H   0  0  0  0  0  0  0  0  0  0  0  0
   -0.5227   -2.9924   -1.2215 H   0  0  0  0  0  0  0  0  0  0  0  0
    3.3254    1.7034    1.3307 H   0  0  0  0  0  0  0  0  0  0  0  0
    4.5704   -1.3926    2.7186 H   0  0  0  0  0  0  0  0  0  0  0  0
    3.8879   -2.3179    4.9077 H   0  0  0  0  0  0  0  0  0  0  0  0
    1.8790   -1.3841    6.0795 H   0  0  0  0  0  0  0  0  0  0  0  0
    0.6053    0.4704    5.0309 H   0  0  0  0  0  0  0  0  0  0  0  0
    0.2269    2.0205    3.3751 H   0  0  0  0  0  0  0  0  0  0  0  0
    0.5999    1.4796    1.7203 H   0  0  0  0  0  0  0  0  0  0  0  0
    1.6675    2.6276    2.5314 H   0  0  0  0  0  0  0  0  0  0  0  0
    4.4668   -1.2218   -0.5438 H   0  0  0  0  0  0  0  0  0  0  0  0
    6.8352   -1.6697   -1.0734 H   0  0  0  0  0  0  0  0  0  0  0  0
    8.6367   -0.3443    0.0575 H   0  0  0  0  0  0  0  0  0  0  0  0
    8.0143    1.4120    1.6984 H   0  0  0  0  0  0  0  0  0  0  0  0
    6.4910    2.6342    2.9235 H   0  0  0  0  0  0  0  0  0  0  0  0
    4.9902    1.7951    3.3835 H   0  0  0  0  0  0  0  0  0  0  0  0
    4.9720    2.9887    2.0764 H   0  0  0  0  0  0  0  0  0  0  0  0
  1  2  2  0
  1 24  1  0
  1 25  1  0
  2  3  1  0
  2  9  1  0
  3  4  2  0
  3  7  1  0
  4  5  1  0
  4 26  1  0
  5  6  2  0
  6  7  1  0
  6 27  1  0
  7  8  1  0
  9 10  1  0
  9 17  1  0
  9 28  1  1
 10 11  2  0
 10 15  1  0
 11 12  1  0
 11 29  1  0
 12 13  2  0
 12 30  1  0
 13 14  1  0
 13 31  1  0
 14 15  2  0
 14 32  1  0
 15 16  1  0
 16 33  1  0
 16 34  1  0
 16 35  1  0
 17 18  2  0
 17 22  1  0
 18 19  1  0
 18 36  1  0
 19 20  2  0
 19 37  1  0
 20 21  1  0
 20 38  1  0
 21 22  2  0
 21 39  1  0
 22 23  1  0
 23 40  1  0
 23 41  1  0
 23 42  1  0
M  END

