
     RDKit          3D

 44 44  0  0  0  0  0  0  0  0999 V2000
    1.4643   -0.2195    0.8122 C   0  0  0  0  0  0  0  0  0  0  0  0
    2.8763    0.0008    0.2713 C   0  0  0  0  0  0  0  0  0  0  0  0
    3.1931   -0.8205   -0.8907 N   0  0  0  0  0  0  0  0  0  0  0  0
    2.3302   -0.6430   -2.0559 C   0  0  0  0  0  0  0  0  0  0  0  0
    2.2873    0.7643   -2.6745 C   0  0  0  0  0  0  0  0  0  0  0  0
    4.6114   -0.9298   -1.2033 C   0  0  0  0  0  0  0  0  0  0  0  0
    5.0247   -2.3605   -1.5858 C   0  0  0  0  0  0  0  0  0  0  0  0
    6.4461   -2.4357   -1.8130 N   0  0  0  0  0  0  0  0  0  0  0  0
    6.9301   -2.9134   -2.8808 C   0  0  0  0  0  0  0  0  0  0  0  0
    8.2819   -3.0615   -3.1122 N   0  0  0  0  0  0  0  0  0  0  0  0
    8.7311   -3.2385   -4.4947 C   0  0  2  0  0  0  0  0  0  0  0  0
   10.0569   -4.0339   -4.4733 C   0  0  0  0  0  0  0  0  0  0  0  0
   10.6505   -4.3869   -5.8379 C   0  0  0  0  0  0  0  0  0  0  0  0
    8.8546   -1.8800   -5.2388 C   0  0  0  0  0  0  0  0  0  0  0  0
    9.8417   -0.8815   -4.6333 C   0  0  0  0  0  0  0  0  0  0  0  0
    7.5905   -4.0772   -5.1211 C   0  0  0  0  0  0  0  0  0  0  0  0
    6.0237   -3.5257   -4.3384 S   0  0  0  0  0  0  0  0  0  0  0  0
    1.3332    0.3236    1.7618 H   0  0  0  0  0  0  0  0  0  0  0  0
    1.2848   -1.2910    0.9954 H   0  0  0  0  0  0  0  0  0  0  0  0
    0.6863    0.1418    0.1212 H   0  0  0  0  0  0  0  0  0  0  0  0
    3.5956   -0.2676    1.0622 H   0  0  0  0  0  0  0  0  0  0  0  0
    3.0268    1.0904    0.0864 H   0  0  0  0  0  0  0  0  0  0  0  0
    1.3039   -0.9495   -1.7909 H   0  0  0  0  0  0  0  0  0  0  0  0
    2.6576   -1.3622   -2.8242 H   0  0  0  0  0  0  0  0  0  0  0  0
    1.8667    1.5085   -1.9793 H   0  0  0  0  0  0  0  0  0  0  0  0
    1.6554    0.7640   -3.5777 H   0  0  0  0  0  0  0  0  0  0  0  0
    3.2897    1.1131   -2.9712 H   0  0  0  0  0  0  0  0  0  0  0  0
    5.2017   -0.6428   -0.3193 H   0  0  0  0  0  0  0  0  0  0  0  0
    4.9318   -0.2394   -2.0128 H   0  0  0  0  0  0  0  0  0  0  0  0
    4.4318   -2.7011   -2.4602 H   0  0  0  0  0  0  0  0  0  0  0  0
    4.7452   -3.0232   -0.7466 H   0  0  0  0  0  0  0  0  0  0  0  0
    8.8840   -2.5921   -2.4437 H   0  0  0  0  0  0  0  0  0  0  0  0
    9.8722   -4.9534   -3.8936 H   0  0  0  0  0  0  0  0  0  0  0  0
   10.7989   -3.4595   -3.8918 H   0  0  0  0  0  0  0  0  0  0  0  0
    9.9463   -4.9675   -6.4558 H   0  0  0  0  0  0  0  0  0  0  0  0
   11.5565   -5.0005   -5.7143 H   0  0  0  0  0  0  0  0  0  0  0  0
   10.9388   -3.4926   -6.4122 H   0  0  0  0  0  0  0  0  0  0  0  0
    7.8487   -1.4294   -5.2679 H   0  0  0  0  0  0  0  0  0  0  0  0
    9.1286   -2.0778   -6.2890 H   0  0  0  0  0  0  0  0  0  0  0  0
    9.5960   -0.6508   -3.5839 H   0  0  0  0  0  0  0  0  0  0  0  0
    9.8147    0.0709   -5.1854 H   0  0  0  0  0  0  0  0  0  0  0  0
   10.8812   -1.2461   -4.6643 H   0  0  0  0  0  0  0  0  0  0  0  0
    7.7319   -5.1484   -4.9123 H   0  0  0  0  0  0  0  0  0  0  0  0
    7.5155   -3.9342   -6.2075 H   0  0  0  0  0  0  0  0  0  0  0  0
  1  2  1  0
  1 18  1  0
  1 19  1  0
  1 20  1  0
  2  3  1  0
  2 21  1  0
  2 22  1  0
  3  4  1  0
  3  6  1  0
  4  5  1  0
  4 23  1  0
  4 24  1  0
  5 25  1  0
  5 26  1  0
  5 27  1  0
  6  7  1  0
  6 28  1  0
  6 29  1  0
  7  8  1  0
  7 30  1  0
  7 31  1  0
  8  9  2  0
  9 10  1  0
  9 17  1  0
 10 11  1  0
 10 32  1  0
 11 12  1  1
 11 14  1  0
 11 16  1  0
 12 13  1  0
 12 33  1  0
 12 34  1  0
 13 35  1  0
 13 36  1  0
 13 37  1  0
 14 15  1  0
 14 38  1  0
 14 39  1  0
 15 40  1  0
 15 41  1  0
 15 42  1  0
 16 17  1  0
 16 43  1  0
 16 44  1  0
M  END

