
     RDKit          3D

 55 57  0  0  0  0  0  0  0  0999 V2000
    1.4786    0.1412   -0.8420 C   0  0  0  0  0  0  0  0  0  0  0  0
    2.8522   -0.1095   -0.3089 C   0  0  0  0  0  0  0  0  0  0  0  0
    3.8007    0.8533   -0.3324 N   0  0  0  0  0  0  0  0  0  0  0  0
    3.6769    1.7948   -0.6846 H   0  0  0  0  0  0  0  0  0  0  0  0
    4.9911    0.3950    0.2200 C   0  0  0  0  0  0  0  0  0  0  0  0
    6.1645    1.2539    0.3174 C   0  0  0  0  0  0  0  0  0  0  0  0
    7.2305    0.9753    0.8112 O   0  0  0  0  0  0  0  0  0  0  0  0
    5.9030    2.4827   -0.2530 O   0  0  0  0  0  0  0  0  0  0  0  0
    6.9369    3.4753   -0.2245 C   0  0  1  0  0  0  0  0  0  0  0  0
    7.6541    3.5670   -1.5923 C   0  0  0  0  0  0  0  0  0  0  0  0
    8.6706    4.2260   -1.7132 O   0  0  0  0  0  0  0  0  0  0  0  0
    7.0768    2.8632   -2.6032 N   0  0  0  0  0  0  0  0  0  0  0  0
    7.5964    2.8631   -3.9389 C   0  0  1  0  0  0  0  0  0  0  0  0
    8.8423    2.0767   -4.2466 C   0  0  0  0  0  0  0  0  0  0  0  0
    7.5028    1.5878   -4.7347 C   0  0  0  0  0  0  0  0  0  0  0  0
    6.3603    4.8105    0.2357 C   0  0  0  0  0  0  0  0  0  0  0  0
    7.1717    5.9581    0.2430 C   0  0  0  0  0  0  0  0  0  0  0  0
    6.6620    7.1798    0.6871 C   0  0  0  0  0  0  0  0  0  0  0  0
    5.3412    7.2770    1.1366 C   0  0  0  0  0  0  0  0  0  0  0  0
    4.5333    6.1384    1.1398 C   0  0  0  0  0  0  0  0  0  0  0  0
    5.0392    4.9130    0.6935 C   0  0  0  0  0  0  0  0  0  0  0  0
    4.7954   -0.9285    0.6148 C   0  0  0  0  0  0  0  0  0  0  0  0
    5.8008   -1.8301    1.2598 C   0  0  0  0  0  0  0  0  0  0  0  0
    3.4393   -1.2479    0.2769 C   0  0  0  0  0  0  0  0  0  0  0  0
    2.8090   -2.5543    0.5203 C   0  0  0  0  0  0  0  0  0  0  0  0
    3.3653   -3.5034    1.0310 O   0  0  0  0  0  0  0  0  0  0  0  0
    1.5182   -2.5912    0.1066 O   0  0  0  0  0  0  0  0  0  0  0  0
    0.7842   -3.8275    0.2942 C   0  0  1  0  0  0  0  0  0  0  0  0
    0.2093   -3.8769    1.7053 C   0  0  0  0  0  0  0  0  0  0  0  0
   -0.2742   -3.8724   -0.7976 C   0  0  0  0  0  0  0  0  0  0  0  0
    1.3829    1.1752   -1.2072 H   0  0  0  0  0  0  0  0  0  0  0  0
    0.7171   -0.0306   -0.0671 H   0  0  0  0  0  0  0  0  0  0  0  0
    1.2422   -0.5468   -1.6675 H   0  0  0  0  0  0  0  0  0  0  0  0
    7.7133    3.1392    0.4805 H   0  0  0  0  0  0  0  0  0  0  0  0
    6.1902    2.4109   -2.4147 H   0  0  0  0  0  0  0  0  0  0  0  0
    7.4678    3.8087   -4.4800 H   0  0  0  0  0  0  0  0  0  0  0  0
    9.3091    1.5427   -3.4154 H   0  0  0  0  0  0  0  0  0  0  0  0
    9.5448    2.5037   -4.9668 H   0  0  0  0  0  0  0  0  0  0  0  0
    7.0713    0.7138   -4.2371 H   0  0  0  0  0  0  0  0  0  0  0  0
    7.2632    1.6652   -5.7986 H   0  0  0  0  0  0  0  0  0  0  0  0
    8.1992    5.8840   -0.1153 H   0  0  0  0  0  0  0  0  0  0  0  0
    7.3059    8.0631    0.6840 H   0  0  0  0  0  0  0  0  0  0  0  0
    4.9464    8.2344    1.4863 H   0  0  0  0  0  0  0  0  0  0  0  0
    3.5011    6.1985    1.4950 H   0  0  0  0  0  0  0  0  0  0  0  0
    4.4042    4.0269    0.7132 H   0  0  0  0  0  0  0  0  0  0  0  0
    6.7549   -1.3098    1.4039 H   0  0  0  0  0  0  0  0  0  0  0  0
    5.9596   -2.7329    0.6499 H   0  0  0  0  0  0  0  0  0  0  0  0
    5.4282   -2.1921    2.2304 H   0  0  0  0  0  0  0  0  0  0  0  0
    1.4994   -4.6548    0.1691 H   0  0  0  0  0  0  0  0  0  0  0  0
   -0.4687   -3.0260    1.8814 H   0  0  0  0  0  0  0  0  0  0  0  0
    1.0155   -3.8511    2.4522 H   0  0  0  0  0  0  0  0  0  0  0  0
   -0.3607   -4.8082    1.8513 H   0  0  0  0  0  0  0  0  0  0  0  0
   -0.9793   -3.0313   -0.6988 H   0  0  0  0  0  0  0  0  0  0  0  0
   -0.8479   -4.8098   -0.7319 H   0  0  0  0  0  0  0  0  0  0  0  0
    0.1890   -3.8215   -1.7947 H   0  0  0  0  0  0  0  0  0  0  0  0
  1  2  1  0
  1 31  1  0
  1 32  1  0
  1 33  1  0
  2  3  1  0
  2 24  2  0
  3  4  1  0
  3  5  1  0
  5  6  1  0
  5 22  2  0
  6  7  2  0
  6  8  1  0
  8  9  1  0
  9 10  1  0
  9 16  1  0
  9 34  1  1
 10 11  2  0
 10 12  1  0
 12 13  1  0
 12 35  1  0
 13 14  1  0
 13 15  1  0
 13 36  1  6
 14 15  1  0
 14 37  1  0
 14 38  1  0
 15 39  1  0
 15 40  1  0
 16 17  2  0
 16 21  1  0
 17 18  1  0
 17 41  1  0
 18 19  2  0
 18 42  1  0
 19 20  1  0
 19 43  1  0
 20 21  2  0
 20 44  1  0
 21 45  1  0
 22 23  1  0
 22 24  1  0
 23 46  1  0
 23 47  1  0
 23 48  1  0
 24 25  1  0
 25 26  2  0
 25 27  1  0
 27 28  1  0
 28 29  1  0
 28 30  1  0
 28 49  1  6
 29 50  1  0
 29 51  1  0
 29 52  1  0
 30 53  1  0
 30 54  1  0
 30 55  1  0
M  END

