
     RDKit          3D

 55 57  0  0  0  0  0  0  0  0999 V2000
    5.6392   -1.9112    0.5201 C   0  0  0  0  0  0  0  0  0  0  0  0
    4.7382   -0.7049    0.4286 C   0  0  0  0  0  0  0  0  0  0  0  0
    5.3254    0.4852    0.2817 N   0  0  0  0  0  0  0  0  0  0  0  0
    4.5044    1.5510    0.1952 C   0  0  0  0  0  0  0  0  0  0  0  0
    5.0929    2.7771    0.0530 N   0  0  0  0  0  0  0  0  0  0  0  0
    6.5236    2.9828   -0.0346 C   0  0  0  0  0  0  0  0  0  0  0  0
    7.0918    2.7111   -1.4402 C   0  0  0  0  0  0  0  0  0  0  0  0
    8.5286    2.9026   -1.5232 N   0  0  0  0  0  0  0  0  0  0  0  0
    9.0627    4.1679   -1.6384 C   0  0  0  0  0  0  0  0  0  0  0  0
    8.3663    5.1648   -1.7453 O   0  0  0  0  0  0  0  0  0  0  0  0
   10.4530    4.1813   -1.6431 N   0  0  0  0  0  0  0  0  0  0  0  0
   11.3141    5.2882   -1.7164 C   0  0  0  0  0  0  0  0  0  0  0  0
   10.8750    6.6219   -1.7923 C   0  0  0  0  0  0  0  0  0  0  0  0
   11.8149    7.6538   -1.8554 C   0  0  0  0  0  0  0  0  0  0  0  0
   13.1983    7.4293   -1.8491 C   0  0  0  0  0  0  0  0  0  0  0  0
   14.2205    8.5328   -1.9188 C   0  0  0  0  0  0  0  0  0  0  0  0
   13.5943    6.0896   -1.7744 C   0  0  0  0  0  0  0  0  0  0  0  0
   14.9118    5.8081   -1.7649 F   0  0  0  0  0  0  0  0  0  0  0  0
   12.6981    5.0316   -1.7081 C   0  0  0  0  0  0  0  0  0  0  0  0
    3.1052    1.4195    0.2523 C   0  0  0  0  0  0  0  0  0  0  0  0
    2.5884    0.1193    0.4186 C   0  0  0  0  0  0  0  0  0  0  0  0
    1.2426   -0.1561    0.5226 N   0  0  0  0  0  0  0  0  0  0  0  0
    0.7522   -1.5327    0.4511 C   0  0  0  0  0  0  0  0  0  0  0  0
   -0.3355   -1.7956    1.4948 C   0  0  0  0  0  0  0  0  0  0  0  0
   -1.4701   -0.7727    1.3783 C   0  0  0  0  0  0  0  0  0  0  0  0
   -0.9072    0.6505    1.4366 C   0  0  0  0  0  0  0  0  0  0  0  0
    0.2095    0.8625    0.4053 C   0  0  0  0  0  0  0  0  0  0  0  0
    3.4300   -0.9358    0.4964 N   0  0  0  0  0  0  0  0  0  0  0  0
    6.6936   -1.6079    0.5041 H   0  0  0  0  0  0  0  0  0  0  0  0
    5.4418   -2.5955   -0.3211 H   0  0  0  0  0  0  0  0  0  0  0  0
    5.4286   -2.4731    1.4436 H   0  0  0  0  0  0  0  0  0  0  0  0
    4.4853    3.5749   -0.0752 H   0  0  0  0  0  0  0  0  0  0  0  0
    7.0218    2.3201    0.6890 H   0  0  0  0  0  0  0  0  0  0  0  0
    6.7428    4.0252    0.2416 H   0  0  0  0  0  0  0  0  0  0  0  0
    6.6146    3.3868   -2.1650 H   0  0  0  0  0  0  0  0  0  0  0  0
    6.8597    1.6749   -1.7264 H   0  0  0  0  0  0  0  0  0  0  0  0
    9.1202    2.1347   -1.2289 H   0  0  0  0  0  0  0  0  0  0  0  0
   10.9190    3.2822   -1.6395 H   0  0  0  0  0  0  0  0  0  0  0  0
    9.8088    6.8313   -1.8060 H   0  0  0  0  0  0  0  0  0  0  0  0
   11.4539    8.6846   -1.9145 H   0  0  0  0  0  0  0  0  0  0  0  0
   13.7321    9.5166   -1.9706 H   0  0  0  0  0  0  0  0  0  0  0  0
   14.8705    8.4272   -2.8034 H   0  0  0  0  0  0  0  0  0  0  0  0
   14.8839    8.5265   -1.0379 H   0  0  0  0  0  0  0  0  0  0  0  0
   13.0936    4.0146   -1.6493 H   0  0  0  0  0  0  0  0  0  0  0  0
    2.4761    2.3035    0.1640 H   0  0  0  0  0  0  0  0  0  0  0  0
    1.6118   -2.1977    0.5836 H   0  0  0  0  0  0  0  0  0  0  0  0
    0.3379   -1.7180   -0.5628 H   0  0  0  0  0  0  0  0  0  0  0  0
    0.1134   -1.7413    2.5023 H   0  0  0  0  0  0  0  0  0  0  0  0
   -0.7184   -2.8220    1.3675 H   0  0  0  0  0  0  0  0  0  0  0  0
   -2.2208   -0.9241    2.1715 H   0  0  0  0  0  0  0  0  0  0  0  0
   -1.9964   -0.9190    0.4165 H   0  0  0  0  0  0  0  0  0  0  0  0
   -0.4969    0.8432    2.4436 H   0  0  0  0  0  0  0  0  0  0  0  0
   -1.7016    1.3960    1.2640 H   0  0  0  0  0  0  0  0  0  0  0  0
    0.6466    1.8570    0.5492 H   0  0  0  0  0  0  0  0  0  0  0  0
   -0.2238    0.8459   -0.6176 H   0  0  0  0  0  0  0  0  0  0  0  0
  1  2  1  0
  1 29  1  0
  1 30  1  0
  1 31  1  0
  2  3  2  0
  2 28  1  0
  3  4  1  0
  4  5  1  0
  4 20  2  0
  5  6  1  0
  5 32  1  0
  6  7  1  0
  6 33  1  0
  6 34  1  0
  7  8  1  0
  7 35  1  0
  7 36  1  0
  8  9  1  0
  8 37  1  0
  9 10  2  0
  9 11  1  0
 11 12  1  0
 11 38  1  0
 12 13  2  0
 12 19  1  0
 13 14  1  0
 13 39  1  0
 14 15  2  0
 14 40  1  0
 15 16  1  0
 15 17  1  0
 16 41  1  0
 16 42  1  0
 16 43  1  0
 17 18  1  0
 17 19  2  0
 19 44  1  0
 20 21  1  0
 20 45  1  0
 21 22  1  0
 21 28  2  0
 22 23  1  0
 22 27  1  0
 23 24  1  0
 23 46  1  0
 23 47  1  0
 24 25  1  0
 24 48  1  0
 24 49  1  0
 25 26  1  0
 25 50  1  0
 25 51  1  0
 26 27  1  0
 26 52  1  0
 26 53  1  0
 27 54  1  0
 27 55  1  0
M  END

