
     RDKit          3D

 31 33  0  0  0  0  0  0  0  0999 V2000
    1.6784   -0.8227    2.4294 F   0  0  0  0  0  0  0  0  0  0  0  0
    2.4772   -1.8934    2.5962 C   0  0  0  0  0  0  0  0  0  0  0  0
    2.8778   -2.2173    3.8869 C   0  0  0  0  0  0  0  0  0  0  0  0
    3.7261   -3.3113    4.0663 C   0  0  0  0  0  0  0  0  0  0  0  0
    4.1612   -4.0482    2.9650 C   0  0  0  0  0  0  0  0  0  0  0  0
    3.7324   -3.6905    1.6821 C   0  0  0  0  0  0  0  0  0  0  0  0
    4.3490   -4.6396    0.3374 Cl  0  0  0  0  0  0  0  0  0  0  0  0
    2.8620   -2.6085    1.4508 C   0  0  0  0  0  0  0  0  0  0  0  0
    2.3887   -2.1634    0.0812 C   0  0  0  0  0  0  0  0  0  0  0  0
    0.8638   -2.2004   -0.1117 C   0  0  1  0  0  0  0  0  0  0  0  0
    0.4702   -1.3275   -1.8986 Br  0  0  0  0  0  0  0  0  0  0  0  0
    0.1919   -3.5231   -0.0479 C   0  0  0  0  0  0  0  0  0  0  0  0
    0.7375   -4.7700   -0.1787 C   0  0  0  0  0  0  0  0  0  0  0  0
   -0.1892   -5.7588   -0.0556 O   0  0  0  0  0  0  0  0  0  0  0  0
   -1.3913   -5.1483    0.1562 C   0  0  0  0  0  0  0  0  0  0  0  0
   -2.6180   -5.7819    0.3378 C   0  0  0  0  0  0  0  0  0  0  0  0
   -3.7229   -4.9524    0.5385 C   0  0  0  0  0  0  0  0  0  0  0  0
   -3.5913   -3.5486    0.5521 C   0  0  0  0  0  0  0  0  0  0  0  0
   -2.3533   -2.9339    0.3678 C   0  0  0  0  0  0  0  0  0  0  0  0
   -1.2270   -3.7503    0.1701 C   0  0  0  0  0  0  0  0  0  0  0  0
    2.5256   -1.6092    4.7216 H   0  0  0  0  0  0  0  0  0  0  0  0
    4.0559   -3.5884    5.0699 H   0  0  0  0  0  0  0  0  0  0  0  0
    4.8334   -4.8980    3.0869 H   0  0  0  0  0  0  0  0  0  0  0  0
    2.8752   -2.7689   -0.6933 H   0  0  0  0  0  0  0  0  0  0  0  0
    2.7121   -1.1237   -0.0808 H   0  0  0  0  0  0  0  0  0  0  0  0
    0.3793   -1.5030    0.5792 H   0  0  0  0  0  0  0  0  0  0  0  0
    1.7586   -5.1044   -0.3428 H   0  0  0  0  0  0  0  0  0  0  0  0
   -2.7014   -6.8699    0.3207 H   0  0  0  0  0  0  0  0  0  0  0  0
   -4.7089   -5.4000    0.6847 H   0  0  0  0  0  0  0  0  0  0  0  0
   -4.4803   -2.9321    0.7061 H   0  0  0  0  0  0  0  0  0  0  0  0
   -2.2657   -1.8452    0.3660 H   0  0  0  0  0  0  0  0  0  0  0  0
  1  2  1  0
  2  3  2  0
  2  8  1  0
  3  4  1  0
  3 21  1  0
  4  5  2  0
  4 22  1  0
  5  6  1  0
  5 23  1  0
  6  7  1  0
  6  8  2  0
  8  9  1  0
  9 10  1  0
  9 24  1  0
  9 25  1  0
 10 11  1  0
 10 12  1  0
 10 26  1  1
 12 13  2  0
 12 20  1  0
 13 14  1  0
 13 27  1  0
 14 15  1  0
 15 16  1  0
 15 20  2  0
 16 17  2  0
 16 28  1  0
 17 18  1  0
 17 29  1  0
 18 19  2  0
 18 30  1  0
 19 20  1  0
 19 31  1  0
M  END

