
     RDKit          3D

 45 46  0  0  0  0  0  0  0  0999 V2000
    6.1276    8.0579   -1.8306 C   0  0  0  0  0  0  0  0  0  0  0  0
    5.5378    6.8531   -1.1439 C   0  0  0  0  0  0  0  0  0  0  0  0
    4.7562    6.0746   -1.6262 O   0  0  0  0  0  0  0  0  0  0  0  0
    6.0107    6.7415    0.1244 O   0  0  0  0  0  0  0  0  0  0  0  0
    5.5748    5.6194    0.8948 C   0  0  0  0  0  0  0  0  0  0  0  0
    4.2389    5.9000    1.5823 C   0  0  1  0  0  0  0  0  0  0  0  0
    3.4676    6.0975    0.8198 H   0  0  0  0  0  0  0  0  0  0  0  0
    3.8967    4.7311    2.3353 O   0  0  0  0  0  0  0  0  0  0  0  0
    3.4649    5.0966    3.6341 C   0  0  1  0  0  0  0  0  0  0  0  0
    2.3937    5.3726    3.6341 H   0  0  0  0  0  0  0  0  0  0  0  0
    3.6168    3.8820    4.5760 C   0  0  2  0  0  0  0  0  0  0  0  0
    3.2364    4.2159    5.5581 H   0  0  0  0  0  0  0  0  0  0  0  0
    5.0290    3.4110    4.7387 C   0  0  0  0  0  0  0  0  0  0  0  0
    5.4451    2.1886    4.3608 C   0  0  0  0  0  0  0  0  0  0  0  0
    7.1059    1.7263    4.5737 Cl  0  0  0  0  0  0  0  0  0  0  0  0
    4.5252    1.1925    3.7674 C   0  0  0  0  0  0  0  0  0  0  0  0
    4.9645   -0.2960    3.2222 S   0  0  0  0  0  0  0  0  0  0  0  0
    3.2038    1.5981    3.7183 N   0  0  0  0  0  0  0  0  0  0  0  0
    2.6443    2.8092    4.0948 C   0  0  0  0  0  0  0  0  0  0  0  0
    1.4500    2.9968    4.0215 O   0  0  0  0  0  0  0  0  0  0  0  0
    4.2953    6.3504    3.9362 C   0  0  2  0  0  0  0  0  0  0  0  0
    5.3298    6.0758    4.1840 H   0  0  0  0  0  0  0  0  0  0  0  0
    3.7583    7.1624    4.9677 O   0  0  0  0  0  0  0  0  0  0  0  0
    4.3426    7.1080    6.1933 C   0  0  0  0  0  0  0  0  0  0  0  0
    3.7561    8.1465    7.1095 C   0  0  0  0  0  0  0  0  0  0  0  0
    5.2142    6.3232    6.4723 O   0  0  0  0  0  0  0  0  0  0  0  0
    4.2721    7.0733    2.5781 C   0  0  2  0  0  0  0  0  0  0  0  0
    5.1298    7.7440    2.4412 H   0  0  0  0  0  0  0  0  0  0  0  0
    3.0641    7.8251    2.4383 O   0  0  0  0  0  0  0  0  0  0  0  0
    3.0955    9.1401    2.7812 C   0  0  0  0  0  0  0  0  0  0  0  0
    1.7260    9.7532    2.6470 C   0  0  0  0  0  0  0  0  0  0  0  0
    4.0944    9.7107    3.1358 O   0  0  0  0  0  0  0  0  0  0  0  0
    5.7114    8.1455   -2.8409 H   0  0  0  0  0  0  0  0  0  0  0  0
    7.2229    7.9588   -1.8808 H   0  0  0  0  0  0  0  0  0  0  0  0
    5.9113    8.9673   -1.2494 H   0  0  0  0  0  0  0  0  0  0  0  0
    6.3609    5.4406    1.6421 H   0  0  0  0  0  0  0  0  0  0  0  0
    5.4683    4.7310    0.2568 H   0  0  0  0  0  0  0  0  0  0  0  0
    5.7320    4.1005    5.2117 H   0  0  0  0  0  0  0  0  0  0  0  0
    2.5470    0.9130    3.3472 H   0  0  0  0  0  0  0  0  0  0  0  0
    3.9561    9.1471    6.6954 H   0  0  0  0  0  0  0  0  0  0  0  0
    4.1998    8.0534    8.1074 H   0  0  0  0  0  0  0  0  0  0  0  0
    2.6632    8.0288    7.1645 H   0  0  0  0  0  0  0  0  0  0  0  0
    1.3115    9.5480    1.6488 H   0  0  0  0  0  0  0  0  0  0  0  0
    1.7866   10.8337    2.8225 H   0  0  0  0  0  0  0  0  0  0  0  0
    1.0470    9.2927    3.3816 H   0  0  0  0  0  0  0  0  0  0  0  0
  1  2  1  0
  1 33  1  0
  1 34  1  0
  1 35  1  0
  2  3  2  0
  2  4  1  0
  4  5  1  0
  5  6  1  0
  5 36  1  0
  5 37  1  0
  6  7  1  6
  6  8  1  0
  6 27  1  0
  8  9  1  0
  9 10  1  6
  9 11  1  0
  9 21  1  0
 11 12  1  1
 11 13  1  0
 11 19  1  0
 13 14  2  0
 13 38  1  0
 14 15  1  0
 14 16  1  0
 16 17  2  0
 16 18  1  0
 18 19  1  0
 18 39  1  0
 19 20  2  0
 21 22  1  1
 21 23  1  0
 21 27  1  0
 23 24  1  0
 24 25  1  0
 24 26  2  0
 25 40  1  0
 25 41  1  0
 25 42  1  0
 27 28  1  6
 27 29  1  0
 29 30  1  0
 30 31  1  0
 30 32  2  0
 31 43  1  0
 31 44  1  0
 31 45  1  0
M  END

