
     RDKit          3D

 51 54  0  0  0  0  0  0  0  0999 V2000
    2.3917   -0.4134    1.4931 C   0  0  0  0  0  0  0  0  0  0  0  0
    2.5327   -0.1445    0.1766 C   0  0  0  0  0  0  0  0  0  0  0  0
    2.3664    1.2696   -0.3337 C   0  0  0  0  0  0  0  0  0  0  0  0
    2.7809   -1.1242   -0.8012 N   0  0  0  0  0  0  0  0  0  0  0  0
    2.8730   -2.5140   -0.3841 C   0  0  0  0  0  0  0  0  0  0  0  0
    2.6712   -3.4606   -1.5628 C   0  0  0  0  0  0  0  0  0  0  0  0
    3.5473   -3.1307   -2.6837 N   0  0  0  0  0  0  0  0  0  0  0  0
    4.0218   -4.1332   -3.5065 C   0  0  0  0  0  0  0  0  0  0  0  0
    4.6652   -3.8690   -4.7426 C   0  0  0  0  0  0  0  0  0  0  0  0
    5.1667   -4.9186   -5.5149 C   0  0  0  0  0  0  0  0  0  0  0  0
    5.7991   -4.5807   -6.8116 C   0  0  0  0  0  0  0  0  0  0  0  0
    5.2155   -3.8163   -7.7066 N   0  0  0  0  0  0  0  0  0  0  0  0
    6.1166   -3.7108   -8.7447 C   0  0  0  0  0  0  0  0  0  0  0  0
    6.0188   -3.0233   -9.9654 C   0  0  0  0  0  0  0  0  0  0  0  0
    7.1037   -3.0781  -10.8369 C   0  0  0  0  0  0  0  0  0  0  0  0
    8.2723   -3.8022  -10.5119 C   0  0  0  0  0  0  0  0  0  0  0  0
    8.3904   -4.4946   -9.3070 C   0  0  0  0  0  0  0  0  0  0  0  0
    7.2950   -4.4378   -8.4361 C   0  0  0  0  0  0  0  0  0  0  0  0
    7.0731   -4.9846   -7.1850 N   0  0  0  0  0  0  0  0  0  0  0  0
    8.0647   -5.7047   -6.4117 C   0  0  0  0  0  0  0  0  0  0  0  0
    4.9751   -6.2319   -5.0391 C   0  0  0  0  0  0  0  0  0  0  0  0
    5.4307   -7.6462   -5.9661 Cl  0  0  0  0  0  0  0  0  0  0  0  0
    4.3211   -6.4048   -3.8177 C   0  0  0  0  0  0  0  0  0  0  0  0
    3.8681   -5.4002   -3.0797 N   0  0  0  0  0  0  0  0  0  0  0  0
    3.5227   -1.7267   -3.1017 C   0  0  1  0  0  0  0  0  0  0  0  0
    4.4025   -1.5500   -3.7362 H   0  0  0  0  0  0  0  0  0  0  0  0
    2.2612   -1.3646   -3.9006 C   0  0  0  0  0  0  0  0  0  0  0  0
    3.7272   -0.8286   -1.8704 C   0  0  0  0  0  0  0  0  0  0  0  0
    2.1007    0.3831    2.1791 H   0  0  0  0  0  0  0  0  0  0  0  0
    2.5415   -1.4027    1.9248 H   0  0  0  0  0  0  0  0  0  0  0  0
    1.9333    1.9042    0.4508 H   0  0  0  0  0  0  0  0  0  0  0  0
    1.7024    1.3021   -1.2131 H   0  0  0  0  0  0  0  0  0  0  0  0
    3.3275    1.7250   -0.6266 H   0  0  0  0  0  0  0  0  0  0  0  0
    2.0853   -2.7190    0.3544 H   0  0  0  0  0  0  0  0  0  0  0  0
    3.8498   -2.7208    0.1053 H   0  0  0  0  0  0  0  0  0  0  0  0
    1.6111   -3.4224   -1.8811 H   0  0  0  0  0  0  0  0  0  0  0  0
    2.8817   -4.4921   -1.2599 H   0  0  0  0  0  0  0  0  0  0  0  0
    4.7736   -2.8618   -5.1383 H   0  0  0  0  0  0  0  0  0  0  0  0
    5.1123   -2.4654  -10.2091 H   0  0  0  0  0  0  0  0  0  0  0  0
    7.0546   -2.5524  -11.7938 H   0  0  0  0  0  0  0  0  0  0  0  0
    9.1018   -3.8232  -11.2233 H   0  0  0  0  0  0  0  0  0  0  0  0
    9.2946   -5.0576   -9.0655 H   0  0  0  0  0  0  0  0  0  0  0  0
    9.0193   -5.1554   -6.4295 H   0  0  0  0  0  0  0  0  0  0  0  0
    8.2262   -6.7184   -6.8100 H   0  0  0  0  0  0  0  0  0  0  0  0
    7.7327   -5.7920   -5.3703 H   0  0  0  0  0  0  0  0  0  0  0  0
    4.1524   -7.4199   -3.4404 H   0  0  0  0  0  0  0  0  0  0  0  0
    1.3610   -1.4240   -3.2710 H   0  0  0  0  0  0  0  0  0  0  0  0
    2.1330   -2.0407   -4.7597 H   0  0  0  0  0  0  0  0  0  0  0  0
    2.3331   -0.3357   -4.2878 H   0  0  0  0  0  0  0  0  0  0  0  0
    3.6226    0.2158   -2.1880 H   0  0  0  0  0  0  0  0  0  0  0  0
    4.7709   -0.9613   -1.5105 H   0  0  0  0  0  0  0  0  0  0  0  0
  1  2  2  0
  1 29  1  0
  1 30  1  0
  2  3  1  0
  2  4  1  0
  3 31  1  0
  3 32  1  0
  3 33  1  0
  4  5  1  0
  4 28  1  0
  5  6  1  0
  5 34  1  0
  5 35  1  0
  6  7  1  0
  6 36  1  0
  6 37  1  0
  7  8  1  0
  7 25  1  0
  8  9  2  0
  8 24  1  0
  9 10  1  0
  9 38  1  0
 10 11  1  0
 10 21  2  0
 11 12  2  0
 11 19  1  0
 12 13  1  0
 13 14  2  0
 13 18  1  0
 14 15  1  0
 14 39  1  0
 15 16  2  0
 15 40  1  0
 16 17  1  0
 16 41  1  0
 17 18  2  0
 17 42  1  0
 18 19  1  0
 19 20  1  0
 20 43  1  0
 20 44  1  0
 20 45  1  0
 21 22  1  0
 21 23  1  0
 23 24  2  0
 23 46  1  0
 25 26  1  6
 25 27  1  0
 25 28  1  0
 27 47  1  0
 27 48  1  0
 27 49  1  0
 28 50  1  0
 28 51  1  0
M  END

