
     RDKit          3D

 28 30  0  0  0  0  0  0  0  0999 V2000
    1.0637   -0.2963    0.0450 O   0  0  0  0  0  0  0  0  0  0  0  0
    2.2514   -0.1645    0.0284 C   0  0  0  0  0  0  0  0  0  0  0  0
    3.0089    0.9967    0.0793 N   0  0  0  0  0  0  0  0  0  0  0  0
    2.5785    1.9103    0.1389 H   0  0  0  0  0  0  0  0  0  0  0  0
    4.3634    0.6983    0.0340 C   0  0  0  0  0  0  0  0  0  0  0  0
    5.5270    1.4605    0.0596 C   0  0  0  0  0  0  0  0  0  0  0  0
    6.7473    0.7739    0.0019 C   0  0  0  0  0  0  0  0  0  0  0  0
    6.8103   -0.6273   -0.0817 C   0  0  0  0  0  0  0  0  0  0  0  0
    8.1391   -1.3478   -0.1828 C   0  0  1  0  0  0  0  0  0  0  0  0
    8.7123   -1.3365   -1.9263 Cl  0  0  0  0  0  0  0  0  0  0  0  0
    9.2085   -0.8229    0.7570 C   0  0  0  0  0  0  0  0  0  0  0  0
   10.2538    0.0263    0.3745 C   0  0  0  0  0  0  0  0  0  0  0  0
   11.1744    0.4835    1.3220 C   0  0  0  0  0  0  0  0  0  0  0  0
   12.5848    1.6419    0.7689 Br  0  0  0  0  0  0  0  0  0  0  0  0
   11.0818    0.1021    2.6625 C   0  0  0  0  0  0  0  0  0  0  0  0
   10.0478   -0.7510    3.0554 C   0  0  0  0  0  0  0  0  0  0  0  0
    9.1344   -1.1956    2.1064 C   0  0  0  0  0  0  0  0  0  0  0  0
    8.1417   -2.0152    2.4917 F   0  0  0  0  0  0  0  0  0  0  0  0
    5.6240   -1.3877   -0.1073 C   0  0  0  0  0  0  0  0  0  0  0  0
    4.4259   -0.7009   -0.0475 C   0  0  0  0  0  0  0  0  0  0  0  0
    3.1568   -1.2149   -0.0497 O   0  0  0  0  0  0  0  0  0  0  0  0
    5.4982    2.5496    0.1253 H   0  0  0  0  0  0  0  0  0  0  0  0
    7.6751    1.3487    0.0221 H   0  0  0  0  0  0  0  0  0  0  0  0
    7.9779   -2.4101    0.0365 H   0  0  0  0  0  0  0  0  0  0  0  0
   10.3503    0.3110   -0.6730 H   0  0  0  0  0  0  0  0  0  0  0  0
   11.8091    0.4606    3.3923 H   0  0  0  0  0  0  0  0  0  0  0  0
    9.9420   -1.0791    4.0911 H   0  0  0  0  0  0  0  0  0  0  0  0
    5.6406   -2.4770   -0.1721 H   0  0  0  0  0  0  0  0  0  0  0  0
  1  2  2  0
  2  3  1  0
  2 21  1  0
  3  4  1  0
  3  5  1  0
  5  6  2  0
  5 20  1  0
  6  7  1  0
  6 22  1  0
  7  8  2  0
  7 23  1  0
  8  9  1  0
  8 19  1  0
  9 10  1  0
  9 11  1  0
  9 24  1  1
 11 12  2  0
 11 17  1  0
 12 13  1  0
 12 25  1  0
 13 14  1  0
 13 15  2  0
 15 16  1  0
 15 26  1  0
 16 17  2  0
 16 27  1  0
 17 18  1  0
 19 20  2  0
 19 28  1  0
 20 21  1  0
M  END

