
     RDKit          3D

 43 45  0  0  0  0  0  0  0  0999 V2000
    4.9854    4.5982    0.8153 C   0  0  0  0  0  0  0  0  0  0  0  0
    4.4726    2.8903    0.5274 S   0  0  1  0  0  0  0  0  0  0  0  0
    4.9327    2.0929    1.6722 O   0  0  0  0  0  0  0  0  0  0  0  0
    3.0553    2.9253    0.1402 O   0  0  0  0  0  0  0  0  0  0  0  0
    5.4352    2.3773   -0.9153 C   0  0  0  0  0  0  0  0  0  0  0  0
    6.6850    1.7833   -0.7226 C   0  0  0  0  0  0  0  0  0  0  0  0
    7.4325    1.3926   -1.8384 C   0  0  0  0  0  0  0  0  0  0  0  0
    6.9215    1.5766   -3.1250 C   0  0  0  0  0  0  0  0  0  0  0  0
    5.6496    2.1357   -3.2849 C   0  0  0  0  0  0  0  0  0  0  0  0
    4.9908    2.3840   -4.9446 S   0  0  1  0  0  0  0  0  0  0  0  0
    3.7703    3.1857   -4.7987 O   0  0  0  0  0  0  0  0  0  0  0  0
    6.0996    2.8340   -5.7869 O   0  0  0  0  0  0  0  0  0  0  0  0
    4.5676    0.8082   -5.4796 N   0  0  0  0  0  0  0  0  0  0  0  0
    3.1856    0.3936   -5.1540 C   0  0  0  0  0  0  0  0  0  0  0  0
    2.9819    0.0343   -3.6952 C   0  0  0  0  0  0  0  0  0  0  0  0
    2.0143    0.6889   -2.9217 C   0  0  0  0  0  0  0  0  0  0  0  0
    1.8357    0.3553   -1.5743 C   0  0  0  0  0  0  0  0  0  0  0  0
    2.6130   -0.6409   -0.9823 C   0  0  0  0  0  0  0  0  0  0  0  0
    3.5657   -1.2913   -1.7659 C   0  0  0  0  0  0  0  0  0  0  0  0
    4.3212   -2.2534   -1.2121 F   0  0  0  0  0  0  0  0  0  0  0  0
    3.7639   -0.9700   -3.1040 C   0  0  0  0  0  0  0  0  0  0  0  0
    5.0383    0.4775   -6.8088 C   0  0  1  0  0  0  0  0  0  0  0  0
    6.4551    0.0201   -6.9998 C   0  0  0  0  0  0  0  0  0  0  0  0
    5.3328   -0.9754   -7.1009 C   0  0  0  0  0  0  0  0  0  0  0  0
    4.8945    2.5553   -2.1903 C   0  0  0  0  0  0  0  0  0  0  0  0
    4.4049    4.9244    1.6899 H   0  0  0  0  0  0  0  0  0  0  0  0
    4.7338    5.2055   -0.0638 H   0  0  0  0  0  0  0  0  0  0  0  0
    6.0607    4.6231    1.0335 H   0  0  0  0  0  0  0  0  0  0  0  0
    7.0547    1.6232    0.2922 H   0  0  0  0  0  0  0  0  0  0  0  0
    8.4173    0.9399   -1.7031 H   0  0  0  0  0  0  0  0  0  0  0  0
    7.5051    1.2944   -4.0032 H   0  0  0  0  0  0  0  0  0  0  0  0
    2.9979   -0.4954   -5.7744 H   0  0  0  0  0  0  0  0  0  0  0  0
    2.4592    1.1655   -5.4553 H   0  0  0  0  0  0  0  0  0  0  0  0
    1.4147    1.4841   -3.3705 H   0  0  0  0  0  0  0  0  0  0  0  0
    1.1049    0.8964   -0.9708 H   0  0  0  0  0  0  0  0  0  0  0  0
    2.5065   -0.9080    0.0706 H   0  0  0  0  0  0  0  0  0  0  0  0
    4.5365   -1.4965   -3.6679 H   0  0  0  0  0  0  0  0  0  0  0  0
    4.5981    1.0585   -7.6306 H   0  0  0  0  0  0  0  0  0  0  0  0
    7.0858   -0.0262   -6.1097 H   0  0  0  0  0  0  0  0  0  0  0  0
    6.9719    0.3452   -7.9059 H   0  0  0  0  0  0  0  0  0  0  0  0
    5.2137   -1.6890   -6.2810 H   0  0  0  0  0  0  0  0  0  0  0  0
    5.0458   -1.3607   -8.0832 H   0  0  0  0  0  0  0  0  0  0  0  0
    3.9065    2.9946   -2.3299 H   0  0  0  0  0  0  0  0  0  0  0  0
  2  1  1  1
  1 26  1  0
  1 27  1  0
  1 28  1  0
  2  3  2  0
  2  4  2  0
  2  5  1  0
  5  6  2  0
  5 25  1  0
  6  7  1  0
  6 29  1  0
  7  8  2  0
  7 30  1  0
  8  9  1  0
  8 31  1  0
  9 10  1  0
  9 25  2  0
 10 11  2  0
 10 12  2  0
 10 13  1  6
 13 14  1  0
 13 22  1  0
 14 15  1  0
 14 32  1  0
 14 33  1  0
 15 16  2  0
 15 21  1  0
 16 17  1  0
 16 34  1  0
 17 18  2  0
 17 35  1  0
 18 19  1  0
 18 36  1  0
 19 20  1  0
 19 21  2  0
 21 37  1  0
 22 23  1  0
 22 24  1  0
 22 38  1  6
 23 24  1  0
 23 39  1  0
 23 40  1  0
 24 41  1  0
 24 42  1  0
 25 43  1  0
M  END

