
     RDKit          3D

 38 38  0  0  0  0  0  0  0  0999 V2000
    2.1750    0.5938   -1.3483 C   0  0  0  0  0  0  0  0  0  0  0  0
    2.0526    0.0211   -0.0672 O   0  0  0  0  0  0  0  0  0  0  0  0
    2.9223    0.3863    0.9147 C   0  0  0  0  0  0  0  0  0  0  0  0
    3.9754    1.2905    0.7320 C   0  0  0  0  0  0  0  0  0  0  0  0
    4.8063    1.6055    1.8107 C   0  0  0  0  0  0  0  0  0  0  0  0
    4.6287    1.0388    3.0751 C   0  0  0  0  0  0  0  0  0  0  0  0
    5.5275    1.4284    4.2531 C   0  0  1  0  0  0  0  0  0  0  0  0
    6.9493    1.5615    3.9319 N   0  0  0  0  0  0  0  0  0  0  0  0
    5.0755    2.7401    4.9303 C   0  0  0  0  0  0  0  0  0  0  0  0
    3.6543    2.7199    5.4874 C   0  0  0  0  0  0  0  0  0  0  0  0
    3.2990    4.3011    6.3453 S   0  0  0  0  0  0  0  0  0  0  0  0
    1.5688    4.0039    6.8237 C   0  0  0  0  0  0  0  0  0  0  0  0
    3.5677    0.1187    3.2282 C   0  0  0  0  0  0  0  0  0  0  0  0
    3.3496   -0.4366    4.4742 O   0  0  0  0  0  0  0  0  0  0  0  0
    3.8974   -1.7282    4.6775 C   0  0  0  0  0  0  0  0  0  0  0  0
    2.6972   -0.2103    2.1756 C   0  0  0  0  0  0  0  0  0  0  0  0
    1.5293   -1.1429    2.3625 C   0  0  0  0  0  0  0  0  0  0  0  0
    1.3692    0.1673   -1.9610 H   0  0  0  0  0  0  0  0  0  0  0  0
    3.1459    0.3514   -1.8174 H   0  0  0  0  0  0  0  0  0  0  0  0
    2.0604    1.6927   -1.3215 H   0  0  0  0  0  0  0  0  0  0  0  0
    4.1561    1.7546   -0.2373 H   0  0  0  0  0  0  0  0  0  0  0  0
    5.6262    2.3109    1.6510 H   0  0  0  0  0  0  0  0  0  0  0  0
    5.4411    0.6324    5.0087 H   0  0  0  0  0  0  0  0  0  0  0  0
    7.1133    2.3787    3.3428 H   0  0  0  0  0  0  0  0  0  0  0  0
    7.2732    0.7539    3.3995 H   0  0  0  0  0  0  0  0  0  0  0  0
    5.1670    3.5670    4.2017 H   0  0  0  0  0  0  0  0  0  0  0  0
    5.7931    2.9515    5.7401 H   0  0  0  0  0  0  0  0  0  0  0  0
    3.5260    1.8847    6.1947 H   0  0  0  0  0  0  0  0  0  0  0  0
    2.9185    2.5830    4.6789 H   0  0  0  0  0  0  0  0  0  0  0  0
    1.2247    4.8993    7.3613 H   0  0  0  0  0  0  0  0  0  0  0  0
    1.4793    3.1341    7.4936 H   0  0  0  0  0  0  0  0  0  0  0  0
    0.9263    3.8525    5.9419 H   0  0  0  0  0  0  0  0  0  0  0  0
    3.6496   -2.0266    5.7063 H   0  0  0  0  0  0  0  0  0  0  0  0
    4.9965   -1.7273    4.5600 H   0  0  0  0  0  0  0  0  0  0  0  0
    3.4738   -2.4705    3.9780 H   0  0  0  0  0  0  0  0  0  0  0  0
    1.3149   -1.2914    3.4286 H   0  0  0  0  0  0  0  0  0  0  0  0
    1.7149   -2.1283    1.9006 H   0  0  0  0  0  0  0  0  0  0  0  0
    0.6320   -0.7376    1.8713 H   0  0  0  0  0  0  0  0  0  0  0  0
  1  2  1  0
  1 18  1  0
  1 19  1  0
  1 20  1  0
  2  3  1  0
  3  4  2  0
  3 16  1  0
  4  5  1  0
  4 21  1  0
  5  6  2  0
  5 22  1  0
  6  7  1  0
  6 13  1  0
  7  8  1  0
  7  9  1  0
  7 23  1  1
  8 24  1  0
  8 25  1  0
  9 10  1  0
  9 26  1  0
  9 27  1  0
 10 11  1  0
 10 28  1  0
 10 29  1  0
 11 12  1  0
 12 30  1  0
 12 31  1  0
 12 32  1  0
 13 14  1  0
 13 16  2  0
 14 15  1  0
 15 33  1  0
 15 34  1  0
 15 35  1  0
 16 17  1  0
 17 36  1  0
 17 37  1  0
 17 38  1  0
M  END

