
     RDKit          3D

 50 52  0  0  0  0  0  0  0  0999 V2000
    2.4702   -0.6168   -1.6996 O   0  0  0  0  0  0  0  0  0  0  0  0
    1.8907    0.3626   -2.1537 C   0  0  0  0  0  0  0  0  0  0  0  0
    0.4043    0.4919   -2.1816 C   0  0  0  0  0  0  0  0  0  0  0  0
   -0.3771   -0.4862   -1.6937 C   0  0  0  0  0  0  0  0  0  0  0  0
   -1.8460   -0.4548   -1.6755 C   0  0  0  0  0  0  0  0  0  0  0  0
   -2.5659   -1.5400   -1.1402 C   0  0  0  0  0  0  0  0  0  0  0  0
   -3.9601   -1.4943   -1.1307 C   0  0  0  0  0  0  0  0  0  0  0  0
   -4.5975   -0.3692   -1.6545 C   0  0  0  0  0  0  0  0  0  0  0  0
   -3.7981    0.6630   -2.1660 C   0  0  0  0  0  0  0  0  0  0  0  0
   -2.4701    0.6276   -2.1790 N   0  0  0  0  0  0  0  0  0  0  0  0
    2.5620    1.4285   -2.6878 N   0  0  0  0  0  0  0  0  0  0  0  0
    4.0117    1.4897   -2.7258 C   0  0  0  0  0  0  0  0  0  0  0  0
    4.6449    2.0102   -1.4290 C   0  0  0  0  0  0  0  0  0  0  0  0
    6.1714    2.1220   -1.5175 C   0  0  0  0  0  0  0  0  0  0  0  0
    6.6161    3.0710   -2.5390 N   0  0  0  0  0  0  0  0  0  0  0  0
    6.5512    4.4793   -2.1550 C   0  0  0  0  0  0  0  0  0  0  0  0
    7.7400    4.9405   -1.2956 C   0  0  0  0  0  0  0  0  0  0  0  0
    8.9969    4.5921   -1.9480 N   0  0  0  0  0  0  0  0  0  0  0  0
   10.0361    5.4762   -2.0538 C   0  0  0  0  0  0  0  0  0  0  0  0
    9.8395    6.7328   -1.5980 N   0  0  0  0  0  0  0  0  0  0  0  0
   10.8501    7.5843   -1.7233 C   0  0  0  0  0  0  0  0  0  0  0  0
   12.0774    7.2318   -2.2918 C   0  0  0  0  0  0  0  0  0  0  0  0
   12.1764    5.9063   -2.7245 C   0  0  0  0  0  0  0  0  0  0  0  0
   11.1835    5.0326   -2.6126 N   0  0  0  0  0  0  0  0  0  0  0  0
    9.1178    3.1929   -2.3421 C   0  0  0  0  0  0  0  0  0  0  0  0
    7.8959    2.7795   -3.1771 C   0  0  0  0  0  0  0  0  0  0  0  0
   -0.0618    1.3884   -2.6020 H   0  0  0  0  0  0  0  0  0  0  0  0
    0.1176   -1.3711   -1.2805 H   0  0  0  0  0  0  0  0  0  0  0  0
   -2.0289   -2.4028   -0.7398 H   0  0  0  0  0  0  0  0  0  0  0  0
   -4.5394   -2.3255   -0.7202 H   0  0  0  0  0  0  0  0  0  0  0  0
   -5.6864   -0.2852   -1.6702 H   0  0  0  0  0  0  0  0  0  0  0  0
   -4.2672    1.5618   -2.5853 H   0  0  0  0  0  0  0  0  0  0  0  0
    2.0289    2.2276   -3.0075 H   0  0  0  0  0  0  0  0  0  0  0  0
    4.3209    2.1278   -3.5669 H   0  0  0  0  0  0  0  0  0  0  0  0
    4.3800    0.4705   -2.9230 H   0  0  0  0  0  0  0  0  0  0  0  0
    4.3850    1.3258   -0.6051 H   0  0  0  0  0  0  0  0  0  0  0  0
    4.2033    2.9898   -1.1730 H   0  0  0  0  0  0  0  0  0  0  0  0
    6.5783    1.1320   -1.7835 H   0  0  0  0  0  0  0  0  0  0  0  0
    6.5724    2.3497   -0.5068 H   0  0  0  0  0  0  0  0  0  0  0  0
    5.6110    4.6743   -1.6161 H   0  0  0  0  0  0  0  0  0  0  0  0
    6.5285    5.0910   -3.0751 H   0  0  0  0  0  0  0  0  0  0  0  0
    7.6984    4.4599   -0.2976 H   0  0  0  0  0  0  0  0  0  0  0  0
    7.7179    6.0252   -1.1397 H   0  0  0  0  0  0  0  0  0  0  0  0
   10.6778    8.6021   -1.3501 H   0  0  0  0  0  0  0  0  0  0  0  0
   12.9011    7.9399   -2.3873 H   0  0  0  0  0  0  0  0  0  0  0  0
   13.1028    5.5342   -3.1809 H   0  0  0  0  0  0  0  0  0  0  0  0
    9.1909    2.5581   -1.4359 H   0  0  0  0  0  0  0  0  0  0  0  0
   10.0478    3.0705   -2.9093 H   0  0  0  0  0  0  0  0  0  0  0  0
    7.9504    1.7044   -3.4106 H   0  0  0  0  0  0  0  0  0  0  0  0
    7.9347    3.3251   -4.1378 H   0  0  0  0  0  0  0  0  0  0  0  0
  1  2  2  0
  2  3  1  0
  2 11  1  0
  3  4  2  0
  3 27  1  0
  4  5  1  0
  4 28  1  0
  5  6  2  0
  5 10  1  0
  6  7  1  0
  6 29  1  0
  7  8  2  0
  7 30  1  0
  8  9  1  0
  8 31  1  0
  9 10  2  0
  9 32  1  0
 11 12  1  0
 11 33  1  0
 12 13  1  0
 12 34  1  0
 12 35  1  0
 13 14  1  0
 13 36  1  0
 13 37  1  0
 14 15  1  0
 14 38  1  0
 14 39  1  0
 15 16  1  0
 15 26  1  0
 16 17  1  0
 16 40  1  0
 16 41  1  0
 17 18  1  0
 17 42  1  0
 17 43  1  0
 18 19  1  0
 18 25  1  0
 19 20  2  0
 19 24  1  0
 20 21  1  0
 21 22  2  0
 21 44  1  0
 22 23  1  0
 22 45  1  0
 23 24  2  0
 23 46  1  0
 25 26  1  0
 25 47  1  0
 25 48  1  0
 26 49  1  0
 26 50  1  0
M  END

