
     RDKit          3D

 43 44  0  0  0  0  0  0  0  0999 V2000
    1.3919    0.3646   -0.5886 C   0  0  0  0  0  0  0  0  0  0  0  0
    2.7076    0.3828    0.1897 C   0  0  0  0  0  0  0  0  0  0  0  0
    3.3286    1.7690    0.2430 C   0  0  0  0  0  0  0  0  0  0  0  0
    4.5398    1.6925    0.9826 O   0  0  0  0  0  0  0  0  0  0  0  0
    5.2908    2.8074    1.1714 C   0  0  0  0  0  0  0  0  0  0  0  0
    4.9684    4.0767    0.6883 C   0  0  0  0  0  0  0  0  0  0  0  0
    5.8153    5.1622    0.9409 C   0  0  0  0  0  0  0  0  0  0  0  0
    6.9825    4.9735    1.6760 C   0  0  0  0  0  0  0  0  0  0  0  0
    7.9074    6.1239    1.9763 C   0  0  1  0  0  0  0  0  0  0  0  0
    7.5135    7.2622    1.3756 F   0  0  0  0  0  0  0  0  0  0  0  0
    7.9763    6.3771    3.2980 F   0  0  0  0  0  0  0  0  0  0  0  0
    9.1658    5.8723    1.5683 F   0  0  0  0  0  0  0  0  0  0  0  0
    7.3203    3.7028    2.1673 C   0  0  0  0  0  0  0  0  0  0  0  0
    6.4830    2.6121    1.9224 C   0  0  0  0  0  0  0  0  0  0  0  0
    6.7350    1.3054    2.3708 N   0  0  0  0  0  0  0  0  0  0  0  0
    7.8027    0.8717    3.1029 C   0  0  0  0  0  0  0  0  0  0  0  0
    8.7288    1.5586    3.4941 O   0  0  0  0  0  0  0  0  0  0  0  0
    7.8095   -0.6136    3.4490 C   0  0  0  0  0  0  0  0  0  0  0  0
    6.6641   -1.2866    2.9208 O   0  0  0  0  0  0  0  0  0  0  0  0
    6.5804   -2.6014    3.1773 C   0  0  0  0  0  0  0  0  0  0  0  0
    7.4053   -3.2127    3.8122 O   0  0  0  0  0  0  0  0  0  0  0  0
    5.3537   -3.2451    2.5951 C   0  0  0  0  0  0  0  0  0  0  0  0
    5.1695   -4.6235    2.8019 C   0  0  0  0  0  0  0  0  0  0  0  0
    4.1071   -5.2667    2.3179 N   0  0  0  0  0  0  0  0  0  0  0  0
    3.2301   -4.5360    1.6289 C   0  0  0  0  0  0  0  0  0  0  0  0
    3.4131   -3.1614    1.4222 C   0  0  0  0  0  0  0  0  0  0  0  0
    4.4729   -2.5157    1.9040 N   0  0  0  0  0  0  0  0  0  0  0  0
    0.9600   -0.6478   -0.6149 H   0  0  0  0  0  0  0  0  0  0  0  0
    1.5331    0.6885   -1.6331 H   0  0  0  0  0  0  0  0  0  0  0  0
    0.6406    1.0305   -0.1325 H   0  0  0  0  0  0  0  0  0  0  0  0
    3.4383   -0.3075   -0.2638 H   0  0  0  0  0  0  0  0  0  0  0  0
    2.5537    0.0319    1.2237 H   0  0  0  0  0  0  0  0  0  0  0  0
    2.6398    2.4870    0.7269 H   0  0  0  0  0  0  0  0  0  0  0  0
    3.5364    2.1433   -0.7772 H   0  0  0  0  0  0  0  0  0  0  0  0
    4.0574    4.2329    0.1117 H   0  0  0  0  0  0  0  0  0  0  0  0
    5.5593    6.1515    0.5606 H   0  0  0  0  0  0  0  0  0  0  0  0
    8.2313    3.5446    2.7401 H   0  0  0  0  0  0  0  0  0  0  0  0
    6.0352    0.6121    2.1151 H   0  0  0  0  0  0  0  0  0  0  0  0
    7.8463   -0.7170    4.5449 H   0  0  0  0  0  0  0  0  0  0  0  0
    8.7357   -1.0600    3.0541 H   0  0  0  0  0  0  0  0  0  0  0  0
    5.9083   -5.1939    3.3721 H   0  0  0  0  0  0  0  0  0  0  0  0
    2.3506   -5.0494    1.2239 H   0  0  0  0  0  0  0  0  0  0  0  0
    2.6811   -2.5787    0.8531 H   0  0  0  0  0  0  0  0  0  0  0  0
  1  2  1  0
  1 28  1  0
  1 29  1  0
  1 30  1  0
  2  3  1  0
  2 31  1  0
  2 32  1  0
  3  4  1  0
  3 33  1  0
  3 34  1  0
  4  5  1  0
  5  6  2  0
  5 14  1  0
  6  7  1  0
  6 35  1  0
  7  8  2  0
  7 36  1  0
  8  9  1  0
  8 13  1  0
  9 10  1  6
  9 11  1  0
  9 12  1  0
 13 14  2  0
 13 37  1  0
 14 15  1  0
 15 16  1  0
 15 38  1  0
 16 17  2  0
 16 18  1  0
 18 19  1  0
 18 39  1  0
 18 40  1  0
 19 20  1  0
 20 21  2  0
 20 22  1  0
 22 23  2  0
 22 27  1  0
 23 24  1  0
 23 41  1  0
 24 25  2  0
 25 26  1  0
 25 42  1  0
 26 27  2  0
 26 43  1  0
M  END

