
     RDKit          3D

 41 42  0  0  0  0  0  0  0  0999 V2000
    2.4771   -1.2711   -0.7912 C   0  0  0  0  0  0  0  0  0  0  0  0
    2.2781   -0.1997    0.1032 O   0  0  0  0  0  0  0  0  0  0  0  0
    3.1581   -0.0004    1.1124 C   0  0  0  0  0  0  0  0  0  0  0  0
    4.2846   -0.7975    1.3368 C   0  0  0  0  0  0  0  0  0  0  0  0
    5.1292   -0.4961    2.4189 C   0  0  0  0  0  0  0  0  0  0  0  0
    6.2426   -1.2452    2.6422 O   0  0  0  0  0  0  0  0  0  0  0  0
    4.8852    0.5854    3.2811 C   0  0  0  0  0  0  0  0  0  0  0  0
    5.8342    0.9488    4.3919 C   0  0  0  0  0  0  0  0  0  0  0  0
    6.1880    2.1027    4.5682 O   0  0  0  0  0  0  0  0  0  0  0  0
    6.2900   -0.1447    5.2951 C   0  0  0  0  0  0  0  0  0  0  0  0
    7.1069    0.1172    6.3430 C   0  0  0  0  0  0  0  0  0  0  0  0
    7.5604   -0.8858    7.2732 C   0  0  0  0  0  0  0  0  0  0  0  0
    8.3932   -0.7068    8.3318 C   0  0  0  0  0  0  0  0  0  0  0  0
    9.0737    0.8863    8.6378 Cl  0  0  0  0  0  0  0  0  0  0  0  0
    8.7987   -1.7676    9.2765 C   0  0  0  0  0  0  0  0  0  0  0  0
   10.0196   -1.7073    9.9782 C   0  0  0  0  0  0  0  0  0  0  0  0
   10.4103   -2.7299   10.8414 C   0  0  0  0  0  0  0  0  0  0  0  0
    9.5694   -3.8262   11.0172 C   0  0  0  0  0  0  0  0  0  0  0  0
    9.9361   -4.8095   11.8490 F   0  0  0  0  0  0  0  0  0  0  0  0
    8.3467   -3.9155   10.3537 C   0  0  0  0  0  0  0  0  0  0  0  0
    7.9675   -2.8876    9.4932 C   0  0  0  0  0  0  0  0  0  0  0  0
    3.7297    1.3777    3.0248 C   0  0  0  0  0  0  0  0  0  0  0  0
    3.4939    2.3841    3.8886 O   0  0  0  0  0  0  0  0  0  0  0  0
    2.3824    3.2296    3.7006 C   0  0  0  0  0  0  0  0  0  0  0  0
    2.8757    1.0841    1.9588 C   0  0  0  0  0  0  0  0  0  0  0  0
    1.6490   -1.2354   -1.5116 H   0  0  0  0  0  0  0  0  0  0  0  0
    2.4584   -2.2471   -0.2735 H   0  0  0  0  0  0  0  0  0  0  0  0
    3.4312   -1.1764   -1.3403 H   0  0  0  0  0  0  0  0  0  0  0  0
    4.5317   -1.6384    0.6875 H   0  0  0  0  0  0  0  0  0  0  0  0
    6.3049   -1.9382    1.9724 H   0  0  0  0  0  0  0  0  0  0  0  0
    5.9391   -1.1602    5.0990 H   0  0  0  0  0  0  0  0  0  0  0  0
    7.4347    1.1511    6.4824 H   0  0  0  0  0  0  0  0  0  0  0  0
    7.2105   -1.9078    7.1006 H   0  0  0  0  0  0  0  0  0  0  0  0
   10.6740   -0.8464    9.8382 H   0  0  0  0  0  0  0  0  0  0  0  0
   11.3589   -2.6886   11.3801 H   0  0  0  0  0  0  0  0  0  0  0  0
    7.7015   -4.7781   10.5307 H   0  0  0  0  0  0  0  0  0  0  0  0
    6.9956   -2.9465    9.0006 H   0  0  0  0  0  0  0  0  0  0  0  0
    2.4238    3.9764    4.5045 H   0  0  0  0  0  0  0  0  0  0  0  0
    1.4279    2.6774    3.7708 H   0  0  0  0  0  0  0  0  0  0  0  0
    2.4235    3.7485    2.7267 H   0  0  0  0  0  0  0  0  0  0  0  0
    1.9798    1.6658    1.7535 H   0  0  0  0  0  0  0  0  0  0  0  0
  1  2  1  0
  1 26  1  0
  1 27  1  0
  1 28  1  0
  2  3  1  0
  3  4  2  0
  3 25  1  0
  4  5  1  0
  4 29  1  0
  5  6  1  0
  5  7  2  0
  6 30  1  0
  7  8  1  0
  7 22  1  0
  8  9  2  0
  8 10  1  0
 10 11  2  0
 10 31  1  0
 11 12  1  0
 11 32  1  0
 12 13  2  0
 12 33  1  0
 13 14  1  0
 13 15  1  0
 15 16  2  0
 15 21  1  0
 16 17  1  0
 16 34  1  0
 17 18  2  0
 17 35  1  0
 18 19  1  0
 18 20  1  0
 20 21  2  0
 20 36  1  0
 21 37  1  0
 22 23  1  0
 22 25  2  0
 23 24  1  0
 24 38  1  0
 24 39  1  0
 24 40  1  0
 25 41  1  0
M  END

