
     RDKit          3D

 27 27  0  0  0  0  0  0  0  0999 V2000
    1.2071    1.7384   -1.9706 C   0  0  0  0  0  0  0  0  0  0  0  0
    2.5670    1.8043   -1.6368 O   0  0  0  0  0  0  0  0  0  0  0  0
    2.8866    1.1959   -0.4057 C   0  0  0  0  0  0  0  0  0  0  0  0
    4.3866    1.2927   -0.1718 C   0  0  0  0  0  0  0  0  0  0  0  0
    4.9459    2.7229   -0.2734 C   0  0  1  0  0  0  0  0  0  0  0  0
    4.3307    3.7082    0.7245 C   0  0  0  0  0  0  0  0  0  0  0  0
    6.4031    2.6877   -0.1279 N   0  0  0  0  0  0  0  0  0  0  0  0
    6.9590    2.1780    0.9964 N   0  0  0  0  0  0  0  0  0  0  0  0
    8.2697    2.2659    0.8223 C   0  0  0  0  0  0  0  0  0  0  0  0
    8.5727    2.8615   -0.4231 C   0  0  0  0  0  0  0  0  0  0  0  0
   10.2563    3.2594   -1.1749 Br  0  0  0  0  0  0  0  0  0  0  0  0
    7.3400    3.1314   -1.0149 C   0  0  0  0  0  0  0  0  0  0  0  0
    7.0296    3.6460   -2.2661 N   0  0  0  0  0  0  0  0  0  0  0  0
    1.0708    2.2422   -2.9389 H   0  0  0  0  0  0  0  0  0  0  0  0
    0.5679    2.2434   -1.2173 H   0  0  0  0  0  0  0  0  0  0  0  0
    0.8535    0.6914   -2.0659 H   0  0  0  0  0  0  0  0  0  0  0  0
    2.5820    0.1284   -0.4084 H   0  0  0  0  0  0  0  0  0  0  0  0
    2.3229    1.6806    0.4194 H   0  0  0  0  0  0  0  0  0  0  0  0
    4.9068    0.6698   -0.9177 H   0  0  0  0  0  0  0  0  0  0  0  0
    4.6285    0.8777    0.8193 H   0  0  0  0  0  0  0  0  0  0  0  0
    4.7554    3.0740   -1.2976 H   0  0  0  0  0  0  0  0  0  0  0  0
    4.5022    3.3696    1.7576 H   0  0  0  0  0  0  0  0  0  0  0  0
    3.2486    3.8107    0.5554 H   0  0  0  0  0  0  0  0  0  0  0  0
    4.7847    4.7056    0.6152 H   0  0  0  0  0  0  0  0  0  0  0  0
    8.9615    1.9139    1.5867 H   0  0  0  0  0  0  0  0  0  0  0  0
    7.8677    3.8853   -2.7900 H   0  0  0  0  0  0  0  0  0  0  0  0
    6.3866    4.4349   -2.2544 H   0  0  0  0  0  0  0  0  0  0  0  0
  1  2  1  0
  1 14  1  0
  1 15  1  0
  1 16  1  0
  2  3  1  0
  3  4  1  0
  3 17  1  0
  3 18  1  0
  4  5  1  0
  4 19  1  0
  4 20  1  0
  5  6  1  0
  5  7  1  0
  5 21  1  6
  6 22  1  0
  6 23  1  0
  6 24  1  0
  7  8  1  0
  7 12  1  0
  8  9  2  0
  9 10  1  0
  9 25  1  0
 10 11  1  0
 10 12  2  0
 12 13  1  0
 13 26  1  0
 13 27  1  0
M  END

