
     RDKit          3D

 40 41  0  0  0  0  0  0  0  0999 V2000
    0.8719    0.1117    0.0611 C   0  0  0  0  0  0  0  0  0  0  0  0
    2.3092   -0.1085    0.0511 N   0  0  0  0  0  0  0  0  0  0  0  0
    2.8603   -0.6191    1.3004 C   0  0  1  0  0  0  0  0  0  0  0  0
    2.3782   -2.0401    1.5753 C   0  0  0  0  0  0  0  0  0  0  0  0
    2.3032   -2.9805    0.5366 C   0  0  0  0  0  0  0  0  0  0  0  0
    1.8968   -4.2926    0.7911 C   0  0  0  0  0  0  0  0  0  0  0  0
    1.5601   -4.6854    2.0906 C   0  0  0  0  0  0  0  0  0  0  0  0
    1.6312   -3.7556    3.1318 C   0  0  0  0  0  0  0  0  0  0  0  0
    2.0366   -2.4429    2.8732 C   0  0  0  0  0  0  0  0  0  0  0  0
    4.4052   -0.5664    1.2469 C   0  0  1  0  0  0  0  0  0  0  0  0
    4.9806    0.8188    0.9595 C   0  0  0  0  0  0  0  0  0  0  0  0
    4.8432   -0.9986    2.5478 O   0  0  0  0  0  0  0  0  0  0  0  0
    6.1078   -1.4722    2.7158 C   0  0  0  0  0  0  0  0  0  0  0  0
    6.9045   -0.9142    3.7265 C   0  0  0  0  0  0  0  0  0  0  0  0
    8.1896   -1.3921    4.0138 C   0  0  0  0  0  0  0  0  0  0  0  0
    9.0258   -0.7729    5.1087 C   0  0  0  0  0  0  0  0  0  0  0  0
    8.6878   -2.4584    3.2468 C   0  0  0  0  0  0  0  0  0  0  0  0
    7.9149   -3.0305    2.2354 C   0  0  0  0  0  0  0  0  0  0  0  0
    6.6352   -2.5469    1.9817 C   0  0  0  0  0  0  0  0  0  0  0  0
    5.8928   -3.1305    1.0224 F   0  0  0  0  0  0  0  0  0  0  0  0
    0.5626    0.5630   -0.8947 H   0  0  0  0  0  0  0  0  0  0  0  0
    0.5207    0.7732    0.8840 H   0  0  0  0  0  0  0  0  0  0  0  0
    0.3384   -0.8458    0.1627 H   0  0  0  0  0  0  0  0  0  0  0  0
    2.7776    0.7569   -0.2031 H   0  0  0  0  0  0  0  0  0  0  0  0
    2.5644    0.0068    2.1738 H   0  0  0  0  0  0  0  0  0  0  0  0
    2.5552   -2.6640   -0.4783 H   0  0  0  0  0  0  0  0  0  0  0  0
    1.8420   -5.0131   -0.0296 H   0  0  0  0  0  0  0  0  0  0  0  0
    1.2410   -5.7118    2.2903 H   0  0  0  0  0  0  0  0  0  0  0  0
    1.3687   -4.0526    4.1508 H   0  0  0  0  0  0  0  0  0  0  0  0
    2.0947   -1.7202    3.6914 H   0  0  0  0  0  0  0  0  0  0  0  0
    4.7471   -1.2776    0.4805 H   0  0  0  0  0  0  0  0  0  0  0  0
    4.5678    1.5713    1.6511 H   0  0  0  0  0  0  0  0  0  0  0  0
    4.7837    1.1334   -0.0772 H   0  0  0  0  0  0  0  0  0  0  0  0
    6.0744    0.8040    1.0847 H   0  0  0  0  0  0  0  0  0  0  0  0
    6.4747   -0.0869    4.2961 H   0  0  0  0  0  0  0  0  0  0  0  0
    8.4684    0.0026    5.6540 H   0  0  0  0  0  0  0  0  0  0  0  0
    9.9384   -0.3058    4.7011 H   0  0  0  0  0  0  0  0  0  0  0  0
    9.3522   -1.5304    5.8403 H   0  0  0  0  0  0  0  0  0  0  0  0
    9.6889   -2.8511    3.4438 H   0  0  0  0  0  0  0  0  0  0  0  0
    8.2807   -3.8685    1.6380 H   0  0  0  0  0  0  0  0  0  0  0  0
  1  2  1  0
  1 21  1  0
  1 22  1  0
  1 23  1  0
  2  3  1  0
  2 24  1  0
  3  4  1  0
  3 10  1  0
  3 25  1  1
  4  5  2  0
  4  9  1  0
  5  6  1  0
  5 26  1  0
  6  7  2  0
  6 27  1  0
  7  8  1  0
  7 28  1  0
  8  9  2  0
  8 29  1  0
  9 30  1  0
 10 11  1  0
 10 12  1  0
 10 31  1  6
 11 32  1  0
 11 33  1  0
 11 34  1  0
 12 13  1  0
 13 14  2  0
 13 19  1  0
 14 15  1  0
 14 35  1  0
 15 16  1  0
 15 17  2  0
 16 36  1  0
 16 37  1  0
 16 38  1  0
 17 18  1  0
 17 39  1  0
 18 19  2  0
 18 40  1  0
 19 20  1  0
M  END

