
     RDKit          3D

 55 57  0  0  0  0  0  0  0  0999 V2000
    3.8591    0.2197   -1.5355 C   0  0  0  0  0  0  0  0  0  0  0  0
    3.8082   -0.0361   -0.0285 C   0  0  0  0  0  0  0  0  0  0  0  0
    4.3333    1.1397    0.8004 C   0  0  0  0  0  0  0  0  0  0  0  0
    4.2887    0.9278    2.3167 C   0  0  0  0  0  0  0  0  0  0  0  0
    5.1384   -0.1792    2.7896 N   0  0  0  0  0  0  0  0  0  0  0  0
    4.5547   -1.0223    3.8448 C   0  0  0  0  0  0  0  0  0  0  0  0
    4.2221   -0.2590    5.1312 C   0  0  0  0  0  0  0  0  0  0  0  0
    6.5054   -0.0111    2.7417 C   0  0  0  0  0  0  0  0  0  0  0  0
    6.9615    1.2410    2.5972 N   0  0  0  0  0  0  0  0  0  0  0  0
    8.2615    1.4726    2.7111 C   0  0  0  0  0  0  0  0  0  0  0  0
    8.7597    3.1338    2.4850 Cl  0  0  0  0  0  0  0  0  0  0  0  0
    9.2156    0.6104    3.0000 N   0  0  0  0  0  0  0  0  0  0  0  0
    8.7939   -0.6561    3.0392 C   0  0  0  0  0  0  0  0  0  0  0  0
    9.8892   -1.9897    3.2576 S   0  0  0  0  0  0  0  0  0  0  0  0
    8.5811   -3.1273    2.9611 C   0  0  0  0  0  0  0  0  0  0  0  0
    8.8673   -4.5742    2.9373 C   0  0  0  0  0  0  0  0  0  0  0  0
    8.0425   -5.4408    2.7353 O   0  0  0  0  0  0  0  0  0  0  0  0
   10.1708   -4.8180    3.1761 O   0  0  0  0  0  0  0  0  0  0  0  0
   10.6233   -6.1992    3.1895 C   0  0  1  0  0  0  0  0  0  0  0  0
   10.9798   -6.6434    1.7665 C   0  0  0  0  0  0  0  0  0  0  0  0
   12.1944   -5.8898    1.2083 C   0  0  0  0  0  0  0  0  0  0  0  0
   13.4012   -5.9913    2.1517 C   0  0  0  0  0  0  0  0  0  0  0  0
   13.0480   -5.5132    3.5670 C   0  0  0  0  0  0  0  0  0  0  0  0
   11.8291   -6.2597    4.1276 C   0  0  0  0  0  0  0  0  0  0  0  0
    7.3571   -2.5266    2.7224 C   0  0  0  0  0  0  0  0  0  0  0  0
    6.1385   -3.2847    2.2643 C   0  0  0  0  0  0  0  0  0  0  0  0
    7.4547   -1.0880    2.8427 C   0  0  0  0  0  0  0  0  0  0  0  0
    3.4761   -0.6416   -2.1057 H   0  0  0  0  0  0  0  0  0  0  0  0
    4.8912    0.4107   -1.8737 H   0  0  0  0  0  0  0  0  0  0  0  0
    3.2546    1.0990   -1.8146 H   0  0  0  0  0  0  0  0  0  0  0  0
    4.3927   -0.9417    0.2099 H   0  0  0  0  0  0  0  0  0  0  0  0
    2.7680   -0.2599    0.2729 H   0  0  0  0  0  0  0  0  0  0  0  0
    3.7321    2.0405    0.5807 H   0  0  0  0  0  0  0  0  0  0  0  0
    5.3636    1.3900    0.4992 H   0  0  0  0  0  0  0  0  0  0  0  0
    3.2583    0.6764    2.6117 H   0  0  0  0  0  0  0  0  0  0  0  0
    4.5621    1.8649    2.8273 H   0  0  0  0  0  0  0  0  0  0  0  0
    5.2616   -1.8212    4.0885 H   0  0  0  0  0  0  0  0  0  0  0  0
    3.6510   -1.5108    3.4440 H   0  0  0  0  0  0  0  0  0  0  0  0
    5.1241    0.2049    5.5610 H   0  0  0  0  0  0  0  0  0  0  0  0
    3.8085   -0.9546    5.8790 H   0  0  0  0  0  0  0  0  0  0  0  0
    3.4771    0.5343    4.9677 H   0  0  0  0  0  0  0  0  0  0  0  0
    9.7931   -6.8100    3.5728 H   0  0  0  0  0  0  0  0  0  0  0  0
   10.0980   -6.5270    1.1172 H   0  0  0  0  0  0  0  0  0  0  0  0
   11.1970   -7.7260    1.8058 H   0  0  0  0  0  0  0  0  0  0  0  0
   11.9283   -4.8275    1.0696 H   0  0  0  0  0  0  0  0  0  0  0  0
   12.4504   -6.2806    0.2096 H   0  0  0  0  0  0  0  0  0  0  0  0
   14.2483   -5.4084    1.7530 H   0  0  0  0  0  0  0  0  0  0  0  0
   13.7415   -7.0431    2.1955 H   0  0  0  0  0  0  0  0  0  0  0  0
   12.8275   -4.4323    3.5434 H   0  0  0  0  0  0  0  0  0  0  0  0
   13.9085   -5.6424    4.2442 H   0  0  0  0  0  0  0  0  0  0  0  0
   11.5427   -5.8621    5.1148 H   0  0  0  0  0  0  0  0  0  0  0  0
   12.0785   -7.3257    4.2736 H   0  0  0  0  0  0  0  0  0  0  0  0
    6.4263   -4.0704    1.5544 H   0  0  0  0  0  0  0  0  0  0  0  0
    5.4157   -2.6089    1.7901 H   0  0  0  0  0  0  0  0  0  0  0  0
    5.6380   -3.8061    3.0960 H   0  0  0  0  0  0  0  0  0  0  0  0
  1  2  1  0
  1 28  1  0
  1 29  1  0
  1 30  1  0
  2  3  1  0
  2 31  1  0
  2 32  1  0
  3  4  1  0
  3 33  1  0
  3 34  1  0
  4  5  1  0
  4 35  1  0
  4 36  1  0
  5  6  1  0
  5  8  1  0
  6  7  1  0
  6 37  1  0
  6 38  1  0
  7 39  1  0
  7 40  1  0
  7 41  1  0
  8  9  2  0
  8 27  1  0
  9 10  1  0
 10 11  1  0
 10 12  2  0
 12 13  1  0
 13 14  2  0
 13 27  1  0
 14 15  1  0
 15 16  2  0
 15 25  1  0
 16 17  1  0
 16 18  1  0
 18 19  1  0
 19 20  1  0
 19 24  1  0
 19 42  1  1
 20 21  1  0
 20 43  1  0
 20 44  1  0
 21 22  1  0
 21 45  1  0
 21 46  1  0
 22 23  1  0
 22 47  1  0
 22 48  1  0
 23 24  1  0
 23 49  1  0
 23 50  1  0
 24 51  1  0
 24 52  1  0
 25 26  1  0
 25 27  2  0
 26 53  1  0
 26 54  1  0
 26 55  1  0
M  CHG  2  14   1  17  -1
M  END

