
     RDKit          3D

 43 46  0  0  0  0  0  0  0  0999 V2000
    0.8261   -0.0557   -0.1140 C   0  0  0  0  0  0  0  0  0  0  0  0
    2.2523    0.0925    0.1091 N   0  0  0  0  0  0  0  0  0  0  0  0
    2.8363   -1.0727    0.7757 C   0  0  0  0  0  0  0  0  0  0  0  0
    4.3475   -0.9208    0.9798 C   0  0  0  0  0  0  0  0  0  0  0  0
    4.6854    0.2794    1.6638 O   0  0  0  0  0  0  0  0  0  0  0  0
    4.1393    1.3647    0.9662 C   0  0  2  0  0  0  0  0  0  0  0  0
    4.3482    2.7301    1.6079 C   0  0  0  0  0  0  0  0  0  0  0  0
    3.2772    3.5151    0.9693 N   0  0  0  0  0  0  0  0  0  0  0  0
    3.2781    4.8497    0.6557 C   0  0  0  0  0  0  0  0  0  0  0  0
    2.4757    5.3030   -0.1512 O   0  0  0  0  0  0  0  0  0  0  0  0
    4.2805    5.7592    1.3184 C   0  0  0  0  0  0  0  0  0  0  0  0
    4.7385    6.8576    0.5721 C   0  0  0  0  0  0  0  0  0  0  0  0
    5.6258    7.7786    1.1210 C   0  0  0  0  0  0  0  0  0  0  0  0
    6.0424    7.6436    2.4550 C   0  0  0  0  0  0  0  0  0  0  0  0
    6.9384    8.5812    3.0247 N   0  0  0  0  0  0  0  0  0  0  0  0
    7.0042    9.9422    2.7666 C   0  0  0  0  0  0  0  0  0  0  0  0
    8.0349   10.4172    3.5420 C   0  0  0  0  0  0  0  0  0  0  0  0
    8.6121    9.3955    4.2574 N   0  0  0  0  0  0  0  0  0  0  0  0
    7.9414    8.3188    3.9347 C   0  0  0  0  0  0  0  0  0  0  0  0
    5.5588    6.5746    3.2229 C   0  0  0  0  0  0  0  0  0  0  0  0
    4.6983    5.6362    2.6519 C   0  0  0  0  0  0  0  0  0  0  0  0
    2.2757    2.6556    0.3038 C   0  0  0  0  0  0  0  0  0  0  0  0
    2.6174    1.2760    0.8617 C   0  0  1  0  0  0  0  0  0  0  0  0
    0.6351   -0.9549   -0.7208 H   0  0  0  0  0  0  0  0  0  0  0  0
    0.4324    0.8096   -0.6684 H   0  0  0  0  0  0  0  0  0  0  0  0
    0.2430   -0.1534    0.8305 H   0  0  0  0  0  0  0  0  0  0  0  0
    2.6505   -1.9709    0.1635 H   0  0  0  0  0  0  0  0  0  0  0  0
    2.3574   -1.2462    1.7677 H   0  0  0  0  0  0  0  0  0  0  0  0
    4.8535   -0.9415   -0.0059 H   0  0  0  0  0  0  0  0  0  0  0  0
    4.7315   -1.7546    1.5855 H   0  0  0  0  0  0  0  0  0  0  0  0
    4.5377    1.3842   -0.0703 H   0  0  0  0  0  0  0  0  0  0  0  0
    5.3398    3.1583    1.4078 H   0  0  0  0  0  0  0  0  0  0  0  0
    4.2214    2.6433    2.7018 H   0  0  0  0  0  0  0  0  0  0  0  0
    4.3852    6.9731   -0.4541 H   0  0  0  0  0  0  0  0  0  0  0  0
    6.0075    8.6009    0.5133 H   0  0  0  0  0  0  0  0  0  0  0  0
    6.3013   10.4369    2.1023 H   0  0  0  0  0  0  0  0  0  0  0  0
    8.3855   11.4456    3.6243 H   0  0  0  0  0  0  0  0  0  0  0  0
    8.1414    7.3074    4.2878 H   0  0  0  0  0  0  0  0  0  0  0  0
    5.8346    6.4923    4.2756 H   0  0  0  0  0  0  0  0  0  0  0  0
    4.3192    4.8263    3.2765 H   0  0  0  0  0  0  0  0  0  0  0  0
    2.3943    2.6920   -0.7933 H   0  0  0  0  0  0  0  0  0  0  0  0
    1.2596    3.0047    0.5364 H   0  0  0  0  0  0  0  0  0  0  0  0
    2.2237    1.2155    1.9059 H   0  0  0  0  0  0  0  0  0  0  0  0
  1  2  1  0
  1 24  1  0
  1 25  1  0
  1 26  1  0
  2  3  1  0
  2 23  1  0
  3  4  1  0
  3 27  1  0
  3 28  1  0
  4  5  1  0
  4 29  1  0
  4 30  1  0
  5  6  1  0
  6  7  1  0
  6 23  1  0
  6 31  1  6
  7  8  1  0
  7 32  1  0
  7 33  1  0
  8  9  1  0
  8 22  1  0
  9 10  2  0
  9 11  1  0
 11 12  2  0
 11 21  1  0
 12 13  1  0
 12 34  1  0
 13 14  2  0
 13 35  1  0
 14 15  1  0
 14 20  1  0
 15 16  1  0
 15 19  1  0
 16 17  2  0
 16 36  1  0
 17 18  1  0
 17 37  1  0
 18 19  2  0
 19 38  1  0
 20 21  2  0
 20 39  1  0
 21 40  1  0
 22 23  1  0
 22 41  1  0
 22 42  1  0
 23 43  1  1
M  END

