
     RDKit          3D

 43 43  0  0  0  0  0  0  0  0999 V2000
    3.5882    0.3708    1.8879 C   0  0  0  0  0  0  0  0  0  0  0  0
    2.7963    0.0992    0.1887 Si  0  0  1  0  0  4  0  0  0  0  0  0
    0.9177   -0.0332    0.3823 C   0  0  0  0  0  0  0  0  0  0  0  0
    3.2123    1.5604   -0.9429 C   0  0  0  0  0  0  0  0  0  0  0  0
    3.4356   -1.5235   -0.5780 C   0  0  0  0  0  0  0  0  0  0  0  0
    4.9495   -1.6203   -0.8212 C   0  0  0  0  0  0  0  0  0  0  0  0
    5.3948   -2.9526   -1.4376 C   0  0  0  0  0  0  0  0  0  0  0  0
    6.9047   -3.0401   -1.6760 C   0  0  0  0  0  0  0  0  0  0  0  0
    7.3324   -4.3657   -2.2850 C   0  0  0  0  0  0  0  0  0  0  0  0
    8.7434   -4.3405   -2.4609 O   0  0  0  0  0  0  0  0  0  0  0  0
    9.3829   -5.4042   -2.9894 C   0  0  0  0  0  0  0  0  0  0  0  0
   10.7819   -5.2860   -3.1205 C   0  0  0  0  0  0  0  0  0  0  0  0
   11.5263   -6.3278   -3.6503 C   0  0  0  0  0  0  0  0  0  0  0  0
   10.9040   -7.5146   -4.0847 C   0  0  0  0  0  0  0  0  0  0  0  0
   11.7740   -8.6019   -4.6369 C   0  0  0  0  0  0  0  0  0  0  0  0
   12.9682   -8.6345   -4.4886 O   0  0  0  0  0  0  0  0  0  0  0  0
   11.1513   -9.5799   -5.3397 O   0  0  0  0  0  0  0  0  0  0  0  0
    9.5152   -7.6288   -3.9379 C   0  0  0  0  0  0  0  0  0  0  0  0
    8.7509   -6.5910   -3.3979 C   0  0  0  0  0  0  0  0  0  0  0  0
    3.2049    1.2917    2.3586 H   0  0  0  0  0  0  0  0  0  0  0  0
    4.6842    0.4677    1.8174 H   0  0  0  0  0  0  0  0  0  0  0  0
    3.3692   -0.4673    2.5707 H   0  0  0  0  0  0  0  0  0  0  0  0
    0.4967    0.8853    0.8244 H   0  0  0  0  0  0  0  0  0  0  0  0
    0.6400   -0.8756    1.0378 H   0  0  0  0  0  0  0  0  0  0  0  0
    0.4239   -0.1906   -0.5912 H   0  0  0  0  0  0  0  0  0  0  0  0
    2.8209    2.5042   -0.5276 H   0  0  0  0  0  0  0  0  0  0  0  0
    2.7706    1.4298   -1.9451 H   0  0  0  0  0  0  0  0  0  0  0  0
    4.3008    1.6820   -1.0699 H   0  0  0  0  0  0  0  0  0  0  0  0
    2.8961   -1.6784   -1.5318 H   0  0  0  0  0  0  0  0  0  0  0  0
    3.1115   -2.3537    0.0781 H   0  0  0  0  0  0  0  0  0  0  0  0
    5.4929   -1.4709    0.1295 H   0  0  0  0  0  0  0  0  0  0  0  0
    5.2769   -0.7971   -1.4821 H   0  0  0  0  0  0  0  0  0  0  0  0
    4.8584   -3.1053   -2.3926 H   0  0  0  0  0  0  0  0  0  0  0  0
    5.0746   -3.7800   -0.7773 H   0  0  0  0  0  0  0  0  0  0  0  0
    7.4492   -2.9003   -0.7262 H   0  0  0  0  0  0  0  0  0  0  0  0
    7.2329   -2.2256   -2.3446 H   0  0  0  0  0  0  0  0  0  0  0  0
    6.8344   -4.5267   -3.2601 H   0  0  0  0  0  0  0  0  0  0  0  0
    7.0499   -5.2076   -1.6248 H   0  0  0  0  0  0  0  0  0  0  0  0
   11.2541   -4.3589   -2.7899 H   0  0  0  0  0  0  0  0  0  0  0  0
   12.6112   -6.2500   -3.7438 H   0  0  0  0  0  0  0  0  0  0  0  0
   10.2278   -9.3427   -5.5002 H   0  0  0  0  0  0  0  0  0  0  0  0
    8.9959   -8.5518   -4.2148 H   0  0  0  0  0  0  0  0  0  0  0  0
    7.6743   -6.7207   -3.2914 H   0  0  0  0  0  0  0  0  0  0  0  0
  2  1  1  1
  1 20  1  0
  1 21  1  0
  1 22  1  0
  2  3  1  0
  2  4  1  0
  2  5  1  0
  3 23  1  0
  3 24  1  0
  3 25  1  0
  4 26  1  0
  4 27  1  0
  4 28  1  0
  5  6  1  0
  5 29  1  0
  5 30  1  0
  6  7  1  0
  6 31  1  0
  6 32  1  0
  7  8  1  0
  7 33  1  0
  7 34  1  0
  8  9  1  0
  8 35  1  0
  8 36  1  0
  9 10  1  0
  9 37  1  0
  9 38  1  0
 10 11  1  0
 11 12  2  0
 11 19  1  0
 12 13  1  0
 12 39  1  0
 13 14  2  0
 13 40  1  0
 14 15  1  0
 14 18  1  0
 15 16  2  0
 15 17  1  0
 17 41  1  0
 18 19  2  0
 18 42  1  0
 19 43  1  0
M  END

