
     RDKit          3D

 15 14  0  0  0  0  0  0  0  0999 V2000
    1.0577   -0.1231    0.0738 C   0  0  0  0  0  0  0  0  0  0  0  0
    2.5782   -0.0720    0.0361 C   0  0  0  0  0  0  0  0  0  0  0  0
    3.3371   -1.1324    0.8079 C   0  0  0  0  0  0  0  0  0  0  0  0
    3.2031    0.8925   -0.6663 C   0  0  0  0  0  0  0  0  0  0  0  0
    2.5724    1.9935   -1.4679 C   0  0  0  0  0  0  0  0  0  0  0  0
    5.1301    0.9567   -0.7134 Br  0  0  0  0  0  0  0  0  0  0  0  0
    0.7138   -0.9670    0.6886 H   0  0  0  0  0  0  0  0  0  0  0  0
    0.6199   -0.2505   -0.9307 H   0  0  0  0  0  0  0  0  0  0  0  0
    0.6204    0.7941    0.5034 H   0  0  0  0  0  0  0  0  0  0  0  0
    2.6510   -1.8280    1.3134 H   0  0  0  0  0  0  0  0  0  0  0  0
    3.9919   -0.6830    1.5732 H   0  0  0  0  0  0  0  0  0  0  0  0
    3.9928   -1.7216    0.1452 H   0  0  0  0  0  0  0  0  0  0  0  0
    1.4756    1.9382   -1.4279 H   0  0  0  0  0  0  0  0  0  0  0  0
    2.8821    1.9412   -2.5256 H   0  0  0  0  0  0  0  0  0  0  0  0
    2.8819    2.9841   -1.0932 H   0  0  0  0  0  0  0  0  0  0  0  0
  1  2  1  0
  1  7  1  0
  1  8  1  0
  1  9  1  0
  2  3  1  0
  2  4  2  0
  3 10  1  0
  3 11  1  0
  3 12  1  0
  4  5  1  0
  4  6  1  0
  5 13  1  0
  5 14  1  0
  5 15  1  0
M  END

