
     RDKit          3D

 47 50  0  0  0  0  0  0  0  0999 V2000
    2.0543    1.2127   -1.4971 C   0  0  0  0  0  0  0  0  0  0  0  0
    2.8946    0.6617   -0.5147 O   0  0  0  0  0  0  0  0  0  0  0  0
    3.1924    1.4007    0.5926 C   0  0  0  0  0  0  0  0  0  0  0  0
    4.0407    0.7545    1.5293 C   0  0  0  0  0  0  0  0  0  0  0  0
    4.4212    1.3806    2.7065 C   0  0  0  0  0  0  0  0  0  0  0  0
    3.9466    2.6788    2.9469 C   0  0  0  0  0  0  0  0  0  0  0  0
    4.1382    3.5265    4.0175 N   0  0  0  0  0  0  0  0  0  0  0  0
    4.6918    3.3223    4.8377 H   0  0  0  0  0  0  0  0  0  0  0  0
    3.4505    4.6995    3.7955 C   0  0  0  0  0  0  0  0  0  0  0  0
    2.7992    4.6499    2.5781 C   0  0  0  0  0  0  0  0  0  0  0  0
    1.9087    5.6837    1.9249 C   0  0  1  0  0  0  0  0  0  0  0  0
    1.4433    6.8273    2.8529 C   0  0  0  0  0  0  0  0  0  0  0  0
    2.4956    7.9171    3.0964 C   0  0  0  0  0  0  0  0  0  0  0  0
    3.0320    8.4101    1.8291 N   0  0  0  0  0  0  0  0  0  0  0  0
    3.4082    9.7444    1.7719 C   0  0  0  0  0  0  0  0  0  0  0  0
    3.3810   10.4668    2.7583 O   0  0  0  0  0  0  0  0  0  0  0  0
    3.7968   10.3053    0.4546 C   0  0  0  0  0  0  0  0  0  0  0  0
    4.6344   11.3717    0.1854 C   0  0  0  0  0  0  0  0  0  0  0  0
    4.6725   11.6369   -1.1546 N   0  0  0  0  0  0  0  0  0  0  0  0
    3.8564   10.7689   -1.7237 C   0  0  0  0  0  0  0  0  0  0  0  0
    3.5442   10.6887   -3.1826 C   0  0  0  0  0  0  0  0  0  0  0  0
    3.3098    9.9304   -0.7903 N   0  0  0  0  0  0  0  0  0  0  0  0
    2.5940    9.2341   -0.9586 H   0  0  0  0  0  0  0  0  0  0  0  0
    3.6051    7.3503    0.9965 C   0  0  0  0  0  0  0  0  0  0  0  0
    2.5488    6.3000    0.6527 C   0  0  0  0  0  0  0  0  0  0  0  0
    3.1056    3.3501    2.0198 C   0  0  0  0  0  0  0  0  0  0  0  0
    2.7218    2.6926    0.8279 C   0  0  0  0  0  0  0  0  0  0  0  0
    1.9504    0.4553   -2.2863 H   0  0  0  0  0  0  0  0  0  0  0  0
    2.4816    2.1318   -1.9403 H   0  0  0  0  0  0  0  0  0  0  0  0
    1.0506    1.4511   -1.0980 H   0  0  0  0  0  0  0  0  0  0  0  0
    4.3804   -0.2555    1.2925 H   0  0  0  0  0  0  0  0  0  0  0  0
    5.0695    0.8693    3.4226 H   0  0  0  0  0  0  0  0  0  0  0  0
    3.4728    5.4904    4.5414 H   0  0  0  0  0  0  0  0  0  0  0  0
    1.0022    5.1440    1.5969 H   0  0  0  0  0  0  0  0  0  0  0  0
    1.1071    6.4204    3.8202 H   0  0  0  0  0  0  0  0  0  0  0  0
    0.5647    7.3082    2.3902 H   0  0  0  0  0  0  0  0  0  0  0  0
    3.3241    7.5436    3.7274 H   0  0  0  0  0  0  0  0  0  0  0  0
    2.0622    8.7704    3.6329 H   0  0  0  0  0  0  0  0  0  0  0  0
    5.2097   11.9429    0.9120 H   0  0  0  0  0  0  0  0  0  0  0  0
    4.1071   11.4753   -3.7009 H   0  0  0  0  0  0  0  0  0  0  0  0
    2.4698   10.8411   -3.3819 H   0  0  0  0  0  0  0  0  0  0  0  0
    3.8298    9.7139   -3.6128 H   0  0  0  0  0  0  0  0  0  0  0  0
    4.4344    6.8647    1.5480 H   0  0  0  0  0  0  0  0  0  0  0  0
    4.0460    7.7796    0.0892 H   0  0  0  0  0  0  0  0  0  0  0  0
    3.0039    5.5125    0.0320 H   0  0  0  0  0  0  0  0  0  0  0  0
    1.7543    6.7753    0.0490 H   0  0  0  0  0  0  0  0  0  0  0  0
    2.0650    3.1917    0.1157 H   0  0  0  0  0  0  0  0  0  0  0  0
  1  2  1  0
  1 28  1  0
  1 29  1  0
  1 30  1  0
  2  3  1  0
  3  4  2  0
  3 27  1  0
  4  5  1  0
  4 31  1  0
  5  6  2  0
  5 32  1  0
  6  7  1  0
  6 26  1  0
  7  8  1  0
  7  9  1  0
  9 10  2  0
  9 33  1  0
 10 11  1  0
 10 26  1  0
 11 12  1  0
 11 25  1  0
 11 34  1  6
 12 13  1  0
 12 35  1  0
 12 36  1  0
 13 14  1  0
 13 37  1  0
 13 38  1  0
 14 15  1  0
 14 24  1  0
 15 16  2  0
 15 17  1  0
 17 18  2  0
 17 22  1  0
 18 19  1  0
 18 39  1  0
 19 20  2  0
 20 21  1  0
 20 22  1  0
 21 40  1  0
 21 41  1  0
 21 42  1  0
 22 23  1  0
 24 25  1  0
 24 43  1  0
 24 44  1  0
 25 45  1  0
 25 46  1  0
 26 27  2  0
 27 47  1  0
M  END

