
     RDKit          3D

 29 29  0  0  0  0  0  0  0  0999 V2000
    2.8891    0.6186    1.6000 C   0  0  0  0  0  0  0  0  0  0  0  0
    2.7333    0.0502    0.1860 C   0  0  1  0  0  0  0  0  0  0  0  0
    3.3123   -1.3626    0.0582 C   0  0  0  0  0  0  0  0  0  0  0  0
    1.2693    0.0793   -0.2561 C   0  0  0  0  0  0  0  0  0  0  0  0
    3.3847    0.9409   -0.7857 O   0  0  0  0  0  0  0  0  0  0  0  0
    4.7078    1.1372   -0.8076 C   0  0  0  0  0  0  0  0  0  0  0  0
    5.4997    0.7407    0.0122 O   0  0  0  0  0  0  0  0  0  0  0  0
    5.0952    1.9421   -2.0350 C   0  0  0  0  0  0  0  0  0  0  0  0
    5.1180    1.0777   -3.2982 C   0  0  0  0  0  0  0  0  0  0  0  0
    4.8697   -0.1126   -3.2658 O   0  0  0  0  0  0  0  0  0  0  0  0
    5.4685    1.7607   -4.5574 C   0  0  0  0  0  0  0  0  0  0  0  0
    5.7870    3.1244   -4.8292 C   0  0  0  0  0  0  0  0  0  0  0  0
    6.0458    3.3214   -6.1135 N   0  0  0  0  0  0  0  0  0  0  0  0
    5.9008    2.1071   -6.6778 N   0  0  0  0  0  0  0  0  0  0  0  0
    6.0523    2.0071   -7.6754 H   0  0  0  0  0  0  0  0  0  0  0  0
    5.5589    1.1410   -5.8023 C   0  0  0  0  0  0  0  0  0  0  0  0
    2.3165    0.0030    2.3116 H   0  0  0  0  0  0  0  0  0  0  0  0
    2.4973    1.6470    1.6473 H   0  0  0  0  0  0  0  0  0  0  0  0
    3.9421    0.6256    1.9089 H   0  0  0  0  0  0  0  0  0  0  0  0
    2.7099   -2.0638    0.6568 H   0  0  0  0  0  0  0  0  0  0  0  0
    4.3512   -1.4016    0.4093 H   0  0  0  0  0  0  0  0  0  0  0  0
    3.2888   -1.6865   -0.9931 H   0  0  0  0  0  0  0  0  0  0  0  0
    0.6576   -0.5501    0.4080 H   0  0  0  0  0  0  0  0  0  0  0  0
    1.1700   -0.2966   -1.2855 H   0  0  0  0  0  0  0  0  0  0  0  0
    0.8755    1.1067   -0.2240 H   0  0  0  0  0  0  0  0  0  0  0  0
    6.0961    2.3714   -1.8733 H   0  0  0  0  0  0  0  0  0  0  0  0
    4.3857    2.7721   -2.1858 H   0  0  0  0  0  0  0  0  0  0  0  0
    5.8355    3.9626   -4.1345 H   0  0  0  0  0  0  0  0  0  0  0  0
    5.4021    0.1028   -6.0862 H   0  0  0  0  0  0  0  0  0  0  0  0
  1  2  1  0
  1 17  1  0
  1 18  1  0
  1 19  1  0
  2  3  1  0
  2  4  1  0
  2  5  1  6
  3 20  1  0
  3 21  1  0
  3 22  1  0
  4 23  1  0
  4 24  1  0
  4 25  1  0
  5  6  1  0
  6  7  2  0
  6  8  1  0
  8  9  1  0
  8 26  1  0
  8 27  1  0
  9 10  2  0
  9 11  1  0
 11 12  1  0
 11 16  2  0
 12 13  2  0
 12 28  1  0
 13 14  1  0
 14 15  1  0
 14 16  1  0
 16 29  1  0
M  END

