
     RDKit          3D

 62 66  0  0  0  0  0  0  0  0999 V2000
   -1.1417    3.7055   -5.0860 C   0  0  0  0  0  0  0  0  0  0  0  0
    0.0091    4.5083   -5.2217 O   0  0  0  0  0  0  0  0  0  0  0  0
    1.2350    3.9286   -5.1604 C   0  0  0  0  0  0  0  0  0  0  0  0
    1.4598    2.5538   -4.9845 C   0  0  0  0  0  0  0  0  0  0  0  0
    2.7681    2.0617   -4.9371 C   0  0  0  0  0  0  0  0  0  0  0  0
    3.8768    2.9100   -5.0627 C   0  0  0  0  0  0  0  0  0  0  0  0
    5.2898    2.3543   -4.9908 C   0  0  0  0  0  0  0  0  0  0  0  0
    5.4962    1.1360   -5.8967 C   0  0  0  0  0  0  0  0  0  0  0  0
    5.3951    0.0085   -5.4346 O   0  0  0  0  0  0  0  0  0  0  0  0
    5.7604    1.3510   -7.2303 N   0  0  0  0  0  0  0  0  0  0  0  0
    5.9401    0.2082   -8.1231 C   0  0  0  0  0  0  0  0  0  0  0  0
    4.9281    0.2563   -9.2685 C   0  0  0  0  0  0  0  0  0  0  0  0
    4.9621    1.5473   -9.9563 N   0  0  0  0  0  0  0  0  0  0  0  0
    5.3415    1.5812  -11.2826 C   0  0  0  0  0  0  0  0  0  0  0  0
    5.7533    0.5879  -11.8652 O   0  0  0  0  0  0  0  0  0  0  0  0
    5.2066    2.8677  -12.0470 C   0  0  0  0  0  0  0  0  0  0  0  0
    4.1433    3.7431  -12.0107 C   0  0  0  0  0  0  0  0  0  0  0  0
    4.2988    4.9850  -13.2006 S   0  0  0  0  0  0  0  0  0  0  0  0
    5.8186    4.3408  -13.7699 C   0  0  0  0  0  0  0  0  0  0  0  0
    6.5560    4.9908  -14.9178 C   0  0  0  0  0  0  0  0  0  0  0  0
    8.0502    5.1093  -14.6998 C   0  0  0  0  0  0  0  0  0  0  0  0
    8.7893    4.3013  -15.4002 N   0  0  0  0  0  0  0  0  0  0  0  0
   10.1225    4.3525  -15.2546 N   0  0  0  0  0  0  0  0  0  0  0  0
   10.6461    3.6952  -15.8278 H   0  0  0  0  0  0  0  0  0  0  0  0
   10.8733    5.1871  -14.4351 C   0  0  0  0  0  0  0  0  0  0  0  0
   12.0906    5.1235  -14.4118 O   0  0  0  0  0  0  0  0  0  0  0  0
   10.0392    6.1121  -13.6421 C   0  0  0  0  0  0  0  0  0  0  0  0
   10.6580    7.0252  -12.7734 C   0  0  0  0  0  0  0  0  0  0  0  0
    9.8835    7.9012  -12.0231 C   0  0  0  0  0  0  0  0  0  0  0  0
    8.4820    7.8679  -12.1347 C   0  0  0  0  0  0  0  0  0  0  0  0
    7.8595    6.9672  -12.9911 C   0  0  0  0  0  0  0  0  0  0  0  0
    8.6287    6.0710  -13.7660 C   0  0  0  0  0  0  0  0  0  0  0  0
    6.1528    3.2115  -13.0681 C   0  0  0  0  0  0  0  0  0  0  0  0
    4.8058    2.6934   -9.0696 C   0  0  0  0  0  0  0  0  0  0  0  0
    5.8155    2.6346   -7.9101 C   0  0  0  0  0  0  0  0  0  0  0  0
    3.6335    4.2834   -5.2357 C   0  0  0  0  0  0  0  0  0  0  0  0
    2.3374    4.7906   -5.2845 C   0  0  0  0  0  0  0  0  0  0  0  0
   -2.0050    4.3806   -5.1587 H   0  0  0  0  0  0  0  0  0  0  0  0
   -1.1723    3.1907   -4.1086 H   0  0  0  0  0  0  0  0  0  0  0  0
   -1.2132    2.9476   -5.8873 H   0  0  0  0  0  0  0  0  0  0  0  0
    0.6274    1.8574   -4.8802 H   0  0  0  0  0  0  0  0  0  0  0  0
    2.9315    0.9899   -4.7960 H   0  0  0  0  0  0  0  0  0  0  0  0
    5.4949    1.9787   -3.9770 H   0  0  0  0  0  0  0  0  0  0  0  0
    6.0214    3.1498   -5.1961 H   0  0  0  0  0  0  0  0  0  0  0  0
    5.8178   -0.7041   -7.5268 H   0  0  0  0  0  0  0  0  0  0  0  0
    6.9651    0.2266   -8.5373 H   0  0  0  0  0  0  0  0  0  0  0  0
    3.9119    0.0974   -8.8633 H   0  0  0  0  0  0  0  0  0  0  0  0
    5.1439   -0.5233  -10.0088 H   0  0  0  0  0  0  0  0  0  0  0  0
    3.2576    3.7039  -11.3787 H   0  0  0  0  0  0  0  0  0  0  0  0
    6.1251    5.9841  -15.1236 H   0  0  0  0  0  0  0  0  0  0  0  0
    6.4178    4.3909  -15.8309 H   0  0  0  0  0  0  0  0  0  0  0  0
   11.7481    7.0195  -12.7133 H   0  0  0  0  0  0  0  0  0  0  0  0
   10.3600    8.6147  -11.3464 H   0  0  0  0  0  0  0  0  0  0  0  0
    7.8739    8.5557  -11.5417 H   0  0  0  0  0  0  0  0  0  0  0  0
    6.7708    6.9479  -13.0525 H   0  0  0  0  0  0  0  0  0  0  0  0
    7.0445    2.6168  -13.2677 H   0  0  0  0  0  0  0  0  0  0  0  0
    3.7826    2.7068   -8.6500 H   0  0  0  0  0  0  0  0  0  0  0  0
    4.9586    3.6231   -9.6288 H   0  0  0  0  0  0  0  0  0  0  0  0
    5.5998    3.4517   -7.2135 H   0  0  0  0  0  0  0  0  0  0  0  0
    6.8334    2.7935   -8.3161 H   0  0  0  0  0  0  0  0  0  0  0  0
    4.4767    4.9755   -5.3245 H   0  0  0  0  0  0  0  0  0  0  0  0
    2.1495    5.8583   -5.4151 H   0  0  0  0  0  0  0  0  0  0  0  0
  1  2  1  0
  1 38  1  0
  1 39  1  0
  1 40  1  0
  2  3  1  0
  3  4  2  0
  3 37  1  0
  4  5  1  0
  4 41  1  0
  5  6  2  0
  5 42  1  0
  6  7  1  0
  6 36  1  0
  7  8  1  0
  7 43  1  0
  7 44  1  0
  8  9  2  0
  8 10  1  0
 10 11  1  0
 10 35  1  0
 11 12  1  0
 11 45  1  0
 11 46  1  0
 12 13  1  0
 12 47  1  0
 12 48  1  0
 13 14  1  0
 13 34  1  0
 14 15  2  0
 14 16  1  0
 16 17  2  0
 16 33  1  0
 17 18  1  0
 17 49  1  0
 18 19  1  0
 19 20  1  0
 19 33  2  0
 20 21  1  0
 20 50  1  0
 20 51  1  0
 21 22  2  0
 21 32  1  0
 22 23  1  0
 23 24  1  0
 23 25  1  0
 25 26  2  0
 25 27  1  0
 27 28  1  0
 27 32  2  0
 28 29  2  0
 28 52  1  0
 29 30  1  0
 29 53  1  0
 30 31  2  0
 30 54  1  0
 31 32  1  0
 31 55  1  0
 33 56  1  0
 34 35  1  0
 34 57  1  0
 34 58  1  0
 35 59  1  0
 35 60  1  0
 36 37  2  0
 36 61  1  0
 37 62  1  0
M  END

