
     RDKit          3D

 39 43  0  0  0  0  0  0  0  0999 V2000
    7.1432    1.5456    1.5456 C   0  0  0  0  0  0  0  0  0  0  0  0
    7.3087    2.8290    2.0965 C   0  0  0  0  0  0  0  0  0  0  0  0
    6.8811    3.9003    1.3320 C   0  0  0  0  0  0  0  0  0  0  0  0
    6.3109    3.7211    0.0653 C   0  0  0  0  0  0  0  0  0  0  0  0
    6.1420    2.4720   -0.4925 C   0  0  0  0  0  0  0  0  0  0  0  0
    6.5724    1.3615    0.2779 C   0  0  0  0  0  0  0  0  0  0  0  0
    6.4190    0.0017   -0.2552 C   0  0  0  0  0  0  0  0  0  0  0  0
    5.9000   -0.2520   -1.4370 N   0  0  0  0  0  0  0  0  0  0  0  0
    5.9497   -1.6352   -1.5294 O   0  0  0  0  0  0  0  0  0  0  0  0
    6.4962   -2.0865   -0.3926 C   0  0  0  0  0  0  0  0  0  0  0  0
    6.6242   -3.5666   -0.1948 C   0  0  0  0  0  0  0  0  0  0  0  0
    5.5192   -4.0746    0.5846 N   0  0  0  0  0  0  0  0  0  0  0  0
    5.4690   -3.8986    2.0420 C   0  0  0  0  0  0  0  0  0  0  0  0
    4.7446   -5.2603    2.1372 C   0  0  0  0  0  0  0  0  0  0  0  0
    5.2250   -5.5103    0.6828 C   0  0  2  0  0  0  0  0  0  0  0  0
    6.2998   -6.6254    0.4827 C   0  0  0  0  0  0  0  0  0  0  0  0
    5.1801   -7.5200   -0.1089 C   0  0  0  0  0  0  0  0  0  0  0  0
    4.3290   -6.2441   -0.3371 C   0  0  0  0  0  0  0  0  0  0  0  0
    6.8097   -1.1322    0.4286 N   0  0  0  0  0  0  0  0  0  0  0  0
    5.9996    4.9428   -0.4640 O   0  0  0  0  0  0  0  0  0  0  0  0
    6.2938    5.9082    0.5395 C   0  0  0  0  0  0  0  0  0  0  0  0
    6.9355    5.2317    1.6199 O   0  0  0  0  0  0  0  0  0  0  0  0
    7.4606    0.6653    2.1057 H   0  0  0  0  0  0  0  0  0  0  0  0
    7.7538    2.9787    3.0811 H   0  0  0  0  0  0  0  0  0  0  0  0
    5.7002    2.3348   -1.4793 H   0  0  0  0  0  0  0  0  0  0  0  0
    7.6160   -3.7611    0.2682 H   0  0  0  0  0  0  0  0  0  0  0  0
    6.6118   -4.0445   -1.1861 H   0  0  0  0  0  0  0  0  0  0  0  0
    4.9299   -3.0021    2.3887 H   0  0  0  0  0  0  0  0  0  0  0  0
    6.4703   -3.9081    2.5200 H   0  0  0  0  0  0  0  0  0  0  0  0
    3.6519   -5.1602    2.2089 H   0  0  0  0  0  0  0  0  0  0  0  0
    5.1015   -5.9637    2.9027 H   0  0  0  0  0  0  0  0  0  0  0  0
    6.8429   -6.9815    1.3726 H   0  0  0  0  0  0  0  0  0  0  0  0
    7.0369   -6.3484   -0.2880 H   0  0  0  0  0  0  0  0  0  0  0  0
    4.7370   -8.1822    0.6508 H   0  0  0  0  0  0  0  0  0  0  0  0
    5.4337   -8.1253   -0.9917 H   0  0  0  0  0  0  0  0  0  0  0  0
    3.2488   -6.2793   -0.1239 H   0  0  0  0  0  0  0  0  0  0  0  0
    4.4716   -5.8319   -1.3493 H   0  0  0  0  0  0  0  0  0  0  0  0
    5.3564    6.3745    0.8989 H   0  0  0  0  0  0  0  0  0  0  0  0
    6.9700    6.6786    0.1309 H   0  0  0  0  0  0  0  0  0  0  0  0
  1  2  2  0
  1  6  1  0
  1 23  1  0
  2  3  1  0
  2 24  1  0
  3  4  2  0
  3 22  1  0
  4  5  1  0
  4 20  1  0
  5  6  2  0
  5 25  1  0
  6  7  1  0
  7  8  2  0
  7 19  1  0
  8  9  1  0
  9 10  1  0
 10 11  1  0
 10 19  2  0
 11 12  1  0
 11 26  1  0
 11 27  1  0
 12 13  1  0
 15 12  1  6
 13 14  1  0
 13 28  1  0
 13 29  1  0
 14 15  1  0
 14 30  1  0
 14 31  1  0
 15 16  1  0
 15 18  1  0
 16 17  1  0
 16 32  1  0
 16 33  1  0
 17 18  1  0
 17 34  1  0
 17 35  1  0
 18 36  1  0
 18 37  1  0
 20 21  1  0
 21 22  1  0
 21 38  1  0
 21 39  1  0
M  END

