
     RDKit          3D

 50 51  0  0  0  0  0  0  0  0999 V2000
   11.7711   -2.8451   -8.9113 C   0  0  0  0  0  0  0  0  0  0  0  0
   11.5463   -1.5082   -8.5244 O   0  0  0  0  0  0  0  0  0  0  0  0
   10.4327   -1.2032   -7.8062 C   0  0  0  0  0  0  0  0  0  0  0  0
    9.4488   -2.1276   -7.4384 C   0  0  0  0  0  0  0  0  0  0  0  0
    8.3497   -1.7323   -6.6638 C   0  0  0  0  0  0  0  0  0  0  0  0
    8.2061   -0.4112   -6.2306 C   0  0  0  0  0  0  0  0  0  0  0  0
    7.0467    0.0245   -5.3639 C   0  0  0  0  0  0  0  0  0  0  0  0
    6.1713    1.1800   -5.8800 C   0  0  0  0  0  0  0  0  0  0  0  0
    5.5468    1.8875   -5.1061 O   0  0  0  0  0  0  0  0  0  0  0  0
    6.1131    1.3263   -7.2330 N   0  0  0  0  0  0  0  0  0  0  0  0
    5.4354    2.4600   -7.8684 C   0  0  2  0  0  0  0  0  0  0  0  0
    5.3957    3.2358   -7.0885 H   0  0  0  0  0  0  0  0  0  0  0  0
    3.9943    2.1036   -8.2458 C   0  0  0  0  0  0  0  0  0  0  0  0
    6.2982    2.9825   -9.0101 C   0  0  0  0  0  0  0  0  0  0  0  0
    5.9738    2.7946  -10.3571 C   0  0  0  0  0  0  0  0  0  0  0  0
    6.7832    3.2564  -11.4089 C   0  0  0  0  0  0  0  0  0  0  0  0
    6.3988    3.0374  -12.8533 C   0  0  0  0  0  0  0  0  0  0  0  0
    7.9605    3.9312  -11.0690 C   0  0  0  0  0  0  0  0  0  0  0  0
    8.3195    4.1420   -9.7338 C   0  0  0  0  0  0  0  0  0  0  0  0
    7.4957    3.6731   -8.7012 C   0  0  0  0  0  0  0  0  0  0  0  0
    7.7665    3.8436   -7.3805 O   0  0  0  0  0  0  0  0  0  0  0  0
    8.9222    4.5519   -6.9872 C   0  0  0  0  0  0  0  0  0  0  0  0
    9.1918    0.5149   -6.6206 C   0  0  0  0  0  0  0  0  0  0  0  0
   10.2861    0.1501   -7.4020 C   0  0  0  0  0  0  0  0  0  0  0  0
   11.2190    1.1034   -7.6975 O   0  0  0  0  0  0  0  0  0  0  0  0
   11.4604    1.3956   -9.0683 C   0  0  0  0  0  0  0  0  0  0  0  0
   12.7269   -2.8578   -9.4521 H   0  0  0  0  0  0  0  0  0  0  0  0
   10.9762   -3.2207   -9.5810 H   0  0  0  0  0  0  0  0  0  0  0  0
   11.8452   -3.5168   -8.0373 H   0  0  0  0  0  0  0  0  0  0  0  0
    9.5349   -3.1710   -7.7421 H   0  0  0  0  0  0  0  0  0  0  0  0
    7.6014   -2.4798   -6.3864 H   0  0  0  0  0  0  0  0  0  0  0  0
    7.3943    0.3588   -4.3734 H   0  0  0  0  0  0  0  0  0  0  0  0
    6.3733   -0.8285   -5.1755 H   0  0  0  0  0  0  0  0  0  0  0  0
    6.7052    0.7396   -7.8100 H   0  0  0  0  0  0  0  0  0  0  0  0
    3.4790    2.9607   -8.7072 H   0  0  0  0  0  0  0  0  0  0  0  0
    3.4471    1.8232   -7.3339 H   0  0  0  0  0  0  0  0  0  0  0  0
    3.9477    1.2518   -8.9429 H   0  0  0  0  0  0  0  0  0  0  0  0
    5.0490    2.2701  -10.6067 H   0  0  0  0  0  0  0  0  0  0  0  0
    5.4447    2.4962  -12.9392 H   0  0  0  0  0  0  0  0  0  0  0  0
    7.1632    2.4522  -13.3923 H   0  0  0  0  0  0  0  0  0  0  0  0
    6.2887    3.9935  -13.3924 H   0  0  0  0  0  0  0  0  0  0  0  0
    8.6172    4.3089  -11.8587 H   0  0  0  0  0  0  0  0  0  0  0  0
    9.2417    4.6773   -9.5076 H   0  0  0  0  0  0  0  0  0  0  0  0
    8.8956    4.6022   -5.8905 H   0  0  0  0  0  0  0  0  0  0  0  0
    8.9314    5.5794   -7.3925 H   0  0  0  0  0  0  0  0  0  0  0  0
    9.8448    4.0304   -7.2987 H   0  0  0  0  0  0  0  0  0  0  0  0
    9.1166    1.5627   -6.3240 H   0  0  0  0  0  0  0  0  0  0  0  0
   12.1876    2.2198   -9.0866 H   0  0  0  0  0  0  0  0  0  0  0  0
   10.5344    1.7265   -9.5725 H   0  0  0  0  0  0  0  0  0  0  0  0
   11.8803    0.5317   -9.6048 H   0  0  0  0  0  0  0  0  0  0  0  0
  1  2  1  0
  1 27  1  0
  1 28  1  0
  1 29  1  0
  2  3  1  0
  3  4  2  0
  3 24  1  0
  4  5  1  0
  4 30  1  0
  5  6  2  0
  5 31  1  0
  6  7  1  0
  6 23  1  0
  7  8  1  0
  7 32  1  0
  7 33  1  0
  8  9  2  0
  8 10  1  0
 10 11  1  0
 10 34  1  0
 11 12  1  1
 11 13  1  0
 11 14  1  0
 13 35  1  0
 13 36  1  0
 13 37  1  0
 14 15  2  0
 14 20  1  0
 15 16  1  0
 15 38  1  0
 16 17  1  0
 16 18  2  0
 17 39  1  0
 17 40  1  0
 17 41  1  0
 18 19  1  0
 18 42  1  0
 19 20  2  0
 19 43  1  0
 20 21  1  0
 21 22  1  0
 22 44  1  0
 22 45  1  0
 22 46  1  0
 23 24  2  0
 23 47  1  0
 24 25  1  0
 25 26  1  0
 26 48  1  0
 26 49  1  0
 26 50  1  0
M  END

