
     RDKit          3D

 44 46  0  0  0  0  0  0  0  0999 V2000
    3.0688    1.7862    0.5583 C   0  0  0  0  0  0  0  0  0  0  0  0
    2.6518    0.3311    0.3022 C   0  0  1  0  0  0  0  0  0  0  0  0
    1.8646    0.1818   -1.0149 C   0  0  0  0  0  0  0  0  0  0  0  0
    2.7478    0.1053   -2.2345 C   0  0  0  0  0  0  0  0  0  0  0  0
    4.0656   -0.1599   -2.1999 C   0  0  0  0  0  0  0  0  0  0  0  0
    4.8791   -0.1821   -3.4546 C   0  0  0  0  0  0  0  0  0  0  0  0
    5.2057    1.0427   -4.0738 C   0  0  0  0  0  0  0  0  0  0  0  0
    5.9821    1.1335   -5.2361 C   0  0  0  0  0  0  0  0  0  0  0  0
    6.3129    2.4499   -5.9452 C   0  0  1  0  0  0  0  0  0  0  0  0
    5.6577    3.7211   -5.3620 C   0  0  0  0  0  0  0  0  0  0  0  0
    6.3716    4.2734   -4.1208 C   0  0  0  0  0  0  0  0  0  0  0  0
    7.7868    4.4719   -4.4069 N   0  0  0  0  0  0  0  0  0  0  0  0
    8.4543    3.2317   -4.7839 C   0  0  0  0  0  0  0  0  0  0  0  0
    7.8395    2.6948   -6.0768 C   0  0  0  0  0  0  0  0  0  0  0  0
    6.4346   -0.0729   -5.7991 C   0  0  0  0  0  0  0  0  0  0  0  0
    6.1289   -1.3042   -5.2230 C   0  0  0  0  0  0  0  0  0  0  0  0
    5.3602   -1.3565   -4.0557 C   0  0  0  0  0  0  0  0  0  0  0  0
    4.8794   -3.2860   -3.2747 I   0  0  0  0  0  0  0  0  0  0  0  0
    4.8021   -0.3661   -0.8899 C   0  0  0  0  0  0  0  0  0  0  0  0
    3.8528   -0.6325    0.2842 C   0  0  0  0  0  0  0  0  0  0  0  0
    2.1853    2.4362    0.6668 H   0  0  0  0  0  0  0  0  0  0  0  0
    3.6736    2.1920   -0.2686 H   0  0  0  0  0  0  0  0  0  0  0  0
    3.6630    1.8739    1.4830 H   0  0  0  0  0  0  0  0  0  0  0  0
    1.9881    0.0277    1.1307 H   0  0  0  0  0  0  0  0  0  0  0  0
    1.1494    1.0163   -1.1288 H   0  0  0  0  0  0  0  0  0  0  0  0
    1.2376   -0.7299   -0.9760 H   0  0  0  0  0  0  0  0  0  0  0  0
    2.2642    0.2481   -3.2075 H   0  0  0  0  0  0  0  0  0  0  0  0
    4.8195    1.9456   -3.6011 H   0  0  0  0  0  0  0  0  0  0  0  0
    5.9214    2.3290   -6.9711 H   0  0  0  0  0  0  0  0  0  0  0  0
    4.5911    3.5503   -5.1443 H   0  0  0  0  0  0  0  0  0  0  0  0
    5.6989    4.5009   -6.1403 H   0  0  0  0  0  0  0  0  0  0  0  0
    6.2081    3.5935   -3.2551 H   0  0  0  0  0  0  0  0  0  0  0  0
    5.9240    5.2435   -3.8475 H   0  0  0  0  0  0  0  0  0  0  0  0
    8.2529    4.9022   -3.6110 H   0  0  0  0  0  0  0  0  0  0  0  0
    8.3898    2.4479   -3.9936 H   0  0  0  0  0  0  0  0  0  0  0  0
    9.5257    3.4378   -4.9418 H   0  0  0  0  0  0  0  0  0  0  0  0
    8.3575    1.7743   -6.3879 H   0  0  0  0  0  0  0  0  0  0  0  0
    8.0033    3.4445   -6.8690 H   0  0  0  0  0  0  0  0  0  0  0  0
    7.0258   -0.0583   -6.7190 H   0  0  0  0  0  0  0  0  0  0  0  0
    6.4787   -2.2260   -5.6911 H   0  0  0  0  0  0  0  0  0  0  0  0
    5.4261    0.5278   -0.6974 H   0  0  0  0  0  0  0  0  0  0  0  0
    5.5179   -1.1981   -0.9934 H   0  0  0  0  0  0  0  0  0  0  0  0
    4.4063   -0.5721    1.2366 H   0  0  0  0  0  0  0  0  0  0  0  0
    3.4750   -1.6668    0.2054 H   0  0  0  0  0  0  0  0  0  0  0  0
  1  2  1  0
  1 21  1  0
  1 22  1  0
  1 23  1  0
  2  3  1  0
  2 20  1  0
  2 24  1  1
  3  4  1  0
  3 25  1  0
  3 26  1  0
  4  5  2  0
  4 27  1  0
  5  6  1  0
  5 19  1  0
  6  7  2  0
  6 17  1  0
  7  8  1  0
  7 28  1  0
  8  9  1  0
  8 15  2  0
  9 10  1  0
  9 14  1  0
  9 29  1  6
 10 11  1  0
 10 30  1  0
 10 31  1  0
 11 12  1  0
 11 32  1  0
 11 33  1  0
 12 13  1  0
 12 34  1  0
 13 14  1  0
 13 35  1  0
 13 36  1  0
 14 37  1  0
 14 38  1  0
 15 16  1  0
 15 39  1  0
 16 17  2  0
 16 40  1  0
 17 18  1  0
 19 20  1  0
 19 41  1  0
 19 42  1  0
 20 43  1  0
 20 44  1  0
M  END

