
     RDKit          3D

 30 31  0  0  0  0  0  0  0  0999 V2000
    1.0223   -0.0733   -0.0621 N   0  0  0  0  0  0  0  0  0  0  0  0
    2.4036   -0.0314    0.1414 N   0  0  0  0  0  0  0  0  0  0  0  0
    3.0247    1.0422    0.7086 C   0  0  0  0  0  0  0  0  0  0  0  0
    2.3936    2.0200    1.0777 O   0  0  0  0  0  0  0  0  0  0  0  0
    4.5711    0.9801    0.7686 C   0  0  1  0  0  0  0  0  0  0  0  0
    5.0865   -0.4553    0.9067 C   0  0  0  0  0  0  0  0  0  0  0  0
    4.7443   -1.2170    2.0397 C   0  0  0  0  0  0  0  0  0  0  0  0
    5.2175   -2.5196    2.1728 C   0  0  0  0  0  0  0  0  0  0  0  0
    6.0337   -3.0384    1.1607 C   0  0  0  0  0  0  0  0  0  0  0  0
    6.3713   -2.3410    0.0778 N   0  0  0  0  0  0  0  0  0  0  0  0
    5.9086   -1.0912   -0.0390 C   0  0  0  0  0  0  0  0  0  0  0  0
    5.1329    1.7519   -0.4625 C   0  0  0  0  0  0  0  0  0  0  0  0
    6.5346    2.2584   -0.0472 C   0  0  0  0  0  0  0  0  0  0  0  0
    6.5527    2.2097    1.5053 C   0  0  0  0  0  0  0  0  0  0  0  0
    5.1116    1.8701    1.9199 C   0  0  0  0  0  0  0  0  0  0  0  0
    0.7544    0.7602   -0.5920 H   0  0  0  0  0  0  0  0  0  0  0  0
    0.5615    0.0359    0.8451 H   0  0  0  0  0  0  0  0  0  0  0  0
    2.9253   -0.8446   -0.1627 H   0  0  0  0  0  0  0  0  0  0  0  0
    4.1012   -0.7891    2.8139 H   0  0  0  0  0  0  0  0  0  0  0  0
    4.9605   -3.1264    3.0443 H   0  0  0  0  0  0  0  0  0  0  0  0
    6.4261   -4.0600    1.2324 H   0  0  0  0  0  0  0  0  0  0  0  0
    6.2155   -0.5626   -0.9466 H   0  0  0  0  0  0  0  0  0  0  0  0
    4.4641    2.6089   -0.6334 H   0  0  0  0  0  0  0  0  0  0  0  0
    5.1289    1.1591   -1.3888 H   0  0  0  0  0  0  0  0  0  0  0  0
    6.7066    3.2756   -0.4311 H   0  0  0  0  0  0  0  0  0  0  0  0
    7.3329    1.6280   -0.4683 H   0  0  0  0  0  0  0  0  0  0  0  0
    6.8949    3.1539    1.9559 H   0  0  0  0  0  0  0  0  0  0  0  0
    7.2442    1.4255    1.8526 H   0  0  0  0  0  0  0  0  0  0  0  0
    4.4822    2.7714    1.9563 H   0  0  0  0  0  0  0  0  0  0  0  0
    5.0460    1.3866    2.9062 H   0  0  0  0  0  0  0  0  0  0  0  0
  1  2  1  0
  1 16  1  0
  1 17  1  0
  2  3  1  0
  2 18  1  0
  3  4  2  0
  5  3  1  6
  5  6  1  0
  5 12  1  0
  5 15  1  0
  6  7  2  0
  6 11  1  0
  7  8  1  0
  7 19  1  0
  8  9  2  0
  8 20  1  0
  9 10  1  0
  9 21  1  0
 10 11  2  0
 11 22  1  0
 12 13  1  0
 12 23  1  0
 12 24  1  0
 13 14  1  0
 13 25  1  0
 13 26  1  0
 14 15  1  0
 14 27  1  0
 14 28  1  0
 15 29  1  0
 15 30  1  0
M  END

