
     RDKit          3D

 63 63  0  0  0  0  0  0  0  0999 V2000
    7.5014    1.4147    0.4000 C   0  0  0  0  0  0  0  0  0  0  0  0
    8.9064    1.2923    0.1142 O   0  0  0  0  0  0  0  0  0  0  0  0
    9.2832    1.7037   -1.1101 C   0  0  0  0  0  0  0  0  0  0  0  0
    8.5541    2.1772   -1.9414 O   0  0  0  0  0  0  0  0  0  0  0  0
   10.6498    1.4798   -1.2567 N   0  0  0  0  0  0  0  0  0  0  0  0
   11.5522    1.7509   -2.6544 S   0  0  1  0  0  0  0  0  0  0  0  0
   11.0048    2.8793   -3.3739 O   0  0  0  0  0  0  0  0  0  0  0  0
   12.9292    1.7016   -2.2013 O   0  0  0  0  0  0  0  0  0  0  0  0
   11.3991    0.3758   -3.5085 O   0  0  0  0  0  0  0  0  0  0  0  0
   10.3779    0.0187   -4.4908 C   0  0  2  0  0  0  0  0  0  0  0  0
   10.8676   -0.8421   -4.9740 H   0  0  0  0  0  0  0  0  0  0  0  0
   10.1149    1.0954   -5.5331 C   0  0  0  0  0  0  0  0  0  0  0  0
    9.1078   -0.5033   -3.7854 C   0  0  2  0  0  0  0  0  0  0  0  0
    8.5417    0.3357   -3.3565 H   0  0  0  0  0  0  0  0  0  0  0  0
    9.4625   -1.4340   -2.7332 N   0  0  0  0  0  0  0  0  0  0  0  0
    8.5998   -1.7121   -1.7173 C   0  0  0  0  0  0  0  0  0  0  0  0
    7.4743   -1.2363   -1.6623 O   0  0  0  0  0  0  0  0  0  0  0  0
    9.2070   -2.5845   -0.5930 C   0  0  1  0  0  0  0  0  0  0  0  0
    9.7984   -3.3907   -1.0541 H   0  0  0  0  0  0  0  0  0  0  0  0
   10.1679   -1.7550    0.1323 N   0  0  0  0  0  0  0  0  0  0  0  0
   11.4716   -1.6891   -0.2590 C   0  0  0  0  0  0  0  0  0  0  0  0
   11.9981   -2.4215   -1.0732 O   0  0  0  0  0  0  0  0  0  0  0  0
   12.1101   -0.6714    0.3755 O   0  0  0  0  0  0  0  0  0  0  0  0
   13.5546   -0.6021    0.1925 C   0  0  0  0  0  0  0  0  0  0  0  0
   14.1129    0.3385    1.2252 C   0  0  0  0  0  0  0  0  0  0  0  0
   14.3924   -0.1188    2.5228 C   0  0  0  0  0  0  0  0  0  0  0  0
   14.8907    0.7537    3.4924 C   0  0  0  0  0  0  0  0  0  0  0  0
   15.1169    2.0972    3.1736 C   0  0  0  0  0  0  0  0  0  0  0  0
   14.8423    2.5615    1.8842 C   0  0  0  0  0  0  0  0  0  0  0  0
   14.3416    1.6877    0.9140 C   0  0  0  0  0  0  0  0  0  0  0  0
    8.1395   -3.2028    0.3283 C   0  0  1  0  0  0  0  0  0  0  0  0
    7.2364   -4.1614   -0.4600 C   0  0  0  0  0  0  0  0  0  0  0  0
    8.7758   -3.9148    1.5283 C   0  0  0  0  0  0  0  0  0  0  0  0
    8.1978   -1.1895   -4.8175 C   0  0  0  0  0  0  0  0  0  0  0  0
    8.3304   -2.3291   -5.1846 O   0  0  0  0  0  0  0  0  0  0  0  0
    7.2594   -0.3507   -5.2724 O   0  0  0  0  0  0  0  0  0  0  0  0
    6.3532   -0.8762   -6.2460 C   0  0  0  0  0  0  0  0  0  0  0  0
    7.3925    1.1566    1.4605 H   0  0  0  0  0  0  0  0  0  0  0  0
    6.9341    0.7168   -0.2317 H   0  0  0  0  0  0  0  0  0  0  0  0
    7.1625    2.4442    0.2198 H   0  0  0  0  0  0  0  0  0  0  0  0
   11.1607    0.9845   -0.5186 H   0  0  0  0  0  0  0  0  0  0  0  0
    9.5561    0.6566   -6.3722 H   0  0  0  0  0  0  0  0  0  0  0  0
   11.0678    1.4816   -5.9210 H   0  0  0  0  0  0  0  0  0  0  0  0
    9.5364    1.9323   -5.1232 H   0  0  0  0  0  0  0  0  0  0  0  0
   10.3801   -1.8734   -2.7381 H   0  0  0  0  0  0  0  0  0  0  0  0
    9.8117   -0.9847    0.6915 H   0  0  0  0  0  0  0  0  0  0  0  0
   13.7567   -0.2539   -0.8295 H   0  0  0  0  0  0  0  0  0  0  0  0
   13.9580   -1.6185    0.3023 H   0  0  0  0  0  0  0  0  0  0  0  0
   14.2203   -1.1698    2.7729 H   0  0  0  0  0  0  0  0  0  0  0  0
   15.1082    0.3849    4.4981 H   0  0  0  0  0  0  0  0  0  0  0  0
   15.5111    2.7805    3.9304 H   0  0  0  0  0  0  0  0  0  0  0  0
   15.0207    3.6095    1.6298 H   0  0  0  0  0  0  0  0  0  0  0  0
   14.1234    2.0484   -0.0942 H   0  0  0  0  0  0  0  0  0  0  0  0
    7.5083   -2.3739    0.6957 H   0  0  0  0  0  0  0  0  0  0  0  0
    7.8201   -5.0018   -0.8739 H   0  0  0  0  0  0  0  0  0  0  0  0
    6.7258   -3.6505   -1.2878 H   0  0  0  0  0  0  0  0  0  0  0  0
    6.4640   -4.5889    0.1984 H   0  0  0  0  0  0  0  0  0  0  0  0
    9.4197   -4.7480    1.1987 H   0  0  0  0  0  0  0  0  0  0  0  0
    7.9953   -4.3361    2.1812 H   0  0  0  0  0  0  0  0  0  0  0  0
    9.3949   -3.2372    2.1341 H   0  0  0  0  0  0  0  0  0  0  0  0
    5.6741   -0.0551   -6.5045 H   0  0  0  0  0  0  0  0  0  0  0  0
    5.7887   -1.7228   -5.8281 H   0  0  0  0  0  0  0  0  0  0  0  0
    6.8959   -1.2228   -7.1385 H   0  0  0  0  0  0  0  0  0  0  0  0
  1  2  1  0
  1 38  1  0
  1 39  1  0
  1 40  1  0
  2  3  1  0
  3  4  2  0
  3  5  1  0
  5  6  1  0
  5 41  1  0
  6  7  2  0
  6  8  2  0
  6  9  1  6
  9 10  1  0
 10 11  1  6
 10 12  1  0
 10 13  1  0
 12 42  1  0
 12 43  1  0
 12 44  1  0
 13 14  1  1
 13 15  1  0
 13 34  1  0
 15 16  1  0
 15 45  1  0
 16 17  2  0
 16 18  1  0
 18 19  1  6
 18 20  1  0
 18 31  1  0
 20 21  1  0
 20 46  1  0
 21 22  2  0
 21 23  1  0
 23 24  1  0
 24 25  1  0
 24 47  1  0
 24 48  1  0
 25 26  2  0
 25 30  1  0
 26 27  1  0
 26 49  1  0
 27 28  2  0
 27 50  1  0
 28 29  1  0
 28 51  1  0
 29 30  2  0
 29 52  1  0
 30 53  1  0
 31 32  1  0
 31 33  1  0
 31 54  1  1
 32 55  1  0
 32 56  1  0
 32 57  1  0
 33 58  1  0
 33 59  1  0
 33 60  1  0
 34 35  2  0
 34 36  1  0
 36 37  1  0
 37 61  1  0
 37 62  1  0
 37 63  1  0
M  END

