
     RDKit          3D

 53 54  0  0  0  0  0  0  0  0999 V2000
    0.8804    0.4176   -0.7216 C   0  0  0  0  0  0  0  0  0  0  0  0
    2.3945    0.4804   -0.5478 C   0  0  1  0  0  0  0  0  0  0  0  0
    3.1309   -0.6706   -0.9486 O   0  0  0  0  0  0  0  0  0  0  0  0
    2.6944   -1.4949   -2.0355 C   0  0  1  0  0  0  0  0  0  0  0  0
    2.9194   -0.8180   -3.3945 C   0  0  0  0  0  0  0  0  0  0  0  0
    2.5810   -1.6601   -4.6358 C   0  0  0  0  0  0  0  0  0  0  0  0
    3.5722   -2.8034   -4.9115 C   0  0  0  0  0  0  0  0  0  0  0  0
    3.3431   -4.1147   -4.1349 C   0  0  0  0  0  0  0  0  0  0  0  0
    2.8408   -3.9838   -2.6849 C   0  0  0  0  0  0  0  0  0  0  0  0
    3.4224   -2.8330   -1.8488 C   0  0  0  0  0  0  0  0  0  0  0  0
    2.9729    1.7915   -1.1329 C   0  0  0  0  0  0  0  0  0  0  0  0
    2.3385    2.8370   -1.0981 O   0  0  0  0  0  0  0  0  0  0  0  0
    4.2398    1.6768   -1.6012 N   0  0  0  0  0  0  0  0  0  0  0  0
    4.9747    2.7728   -2.1909 C   0  0  0  0  0  0  0  0  0  0  0  0
    6.3487    2.9767   -1.5487 C   0  0  0  0  0  0  0  0  0  0  0  0
    7.2635    1.7664   -1.7501 C   0  0  0  0  0  0  0  0  0  0  0  0
    6.8457    0.7484   -2.2929 O   0  0  0  0  0  0  0  0  0  0  0  0
    8.5547    1.8573   -1.2966 N   0  0  0  0  0  0  0  0  0  0  0  0
    9.1703    3.0208   -0.6680 C   0  0  0  0  0  0  0  0  0  0  0  0
    9.9122    2.5934    0.6022 C   0  0  0  0  0  0  0  0  0  0  0  0
   10.8324    1.5581    0.3408 O   0  0  0  0  0  0  0  0  0  0  0  0
   10.1970    0.4129   -0.1973 C   0  0  0  0  0  0  0  0  0  0  0  0
    9.4756    0.7401   -1.5019 C   0  0  0  0  0  0  0  0  0  0  0  0
    0.4592   -0.4508   -0.1932 H   0  0  0  0  0  0  0  0  0  0  0  0
    0.5772    0.3743   -1.7783 H   0  0  0  0  0  0  0  0  0  0  0  0
    0.4523    1.3363   -0.2992 H   0  0  0  0  0  0  0  0  0  0  0  0
    2.5966    0.5606    0.5370 H   0  0  0  0  0  0  0  0  0  0  0  0
    1.6127   -1.6983   -1.9230 H   0  0  0  0  0  0  0  0  0  0  0  0
    3.9768   -0.5073   -3.4574 H   0  0  0  0  0  0  0  0  0  0  0  0
    2.3250    0.1105   -3.4227 H   0  0  0  0  0  0  0  0  0  0  0  0
    2.5863   -0.9796   -5.5034 H   0  0  0  0  0  0  0  0  0  0  0  0
    1.5475   -2.0484   -4.5724 H   0  0  0  0  0  0  0  0  0  0  0  0
    4.5885   -2.4240   -4.7053 H   0  0  0  0  0  0  0  0  0  0  0  0
    3.5641   -3.0411   -5.9887 H   0  0  0  0  0  0  0  0  0  0  0  0
    4.2896   -4.6830   -4.1418 H   0  0  0  0  0  0  0  0  0  0  0  0
    2.6208   -4.7427   -4.6855 H   0  0  0  0  0  0  0  0  0  0  0  0
    3.0434   -4.9374   -2.1696 H   0  0  0  0  0  0  0  0  0  0  0  0
    1.7403   -3.8868   -2.6836 H   0  0  0  0  0  0  0  0  0  0  0  0
    4.5013   -2.6999   -2.0426 H   0  0  0  0  0  0  0  0  0  0  0  0
    3.3327   -3.0776   -0.7787 H   0  0  0  0  0  0  0  0  0  0  0  0
    4.6588    0.7520   -1.6272 H   0  0  0  0  0  0  0  0  0  0  0  0
    4.3621    3.6760   -2.0612 H   0  0  0  0  0  0  0  0  0  0  0  0
    5.1061    2.6048   -3.2742 H   0  0  0  0  0  0  0  0  0  0  0  0
    6.2290    3.1719   -0.4690 H   0  0  0  0  0  0  0  0  0  0  0  0
    6.8213    3.8753   -1.9810 H   0  0  0  0  0  0  0  0  0  0  0  0
    8.4145    3.7744   -0.4169 H   0  0  0  0  0  0  0  0  0  0  0  0
    9.8924    3.4844   -1.3677 H   0  0  0  0  0  0  0  0  0  0  0  0
    9.1717    2.2712    1.3642 H   0  0  0  0  0  0  0  0  0  0  0  0
   10.4835    3.4406    1.0118 H   0  0  0  0  0  0  0  0  0  0  0  0
    9.4729   -0.0024    0.5336 H   0  0  0  0  0  0  0  0  0  0  0  0
   10.9823   -0.3383   -0.3701 H   0  0  0  0  0  0  0  0  0  0  0  0
    8.8951   -0.1151   -1.8700 H   0  0  0  0  0  0  0  0  0  0  0  0
   10.2207    1.0155   -2.2722 H   0  0  0  0  0  0  0  0  0  0  0  0
  1  2  1  0
  1 24  1  0
  1 25  1  0
  1 26  1  0
  2  3  1  0
  2 11  1  0
  2 27  1  1
  3  4  1  0
  4  5  1  0
  4 10  1  0
  4 28  1  1
  5  6  1  0
  5 29  1  0
  5 30  1  0
  6  7  1  0
  6 31  1  0
  6 32  1  0
  7  8  1  0
  7 33  1  0
  7 34  1  0
  8  9  1  0
  8 35  1  0
  8 36  1  0
  9 10  1  0
  9 37  1  0
  9 38  1  0
 10 39  1  0
 10 40  1  0
 11 12  2  0
 11 13  1  0
 13 14  1  0
 13 41  1  0
 14 15  1  0
 14 42  1  0
 14 43  1  0
 15 16  1  0
 15 44  1  0
 15 45  1  0
 16 17  2  0
 16 18  1  0
 18 19  1  0
 18 23  1  0
 19 20  1  0
 19 46  1  0
 19 47  1  0
 20 21  1  0
 20 48  1  0
 20 49  1  0
 21 22  1  0
 22 23  1  0
 22 50  1  0
 22 51  1  0
 23 52  1  0
 23 53  1  0
M  END

