
     RDKit          3D

 41 42  0  0  0  0  0  0  0  0999 V2000
    4.0916   -7.1159   -2.8931 C   0  0  0  0  0  0  0  0  0  0  0  0
    4.0098   -5.5971   -2.7418 C   0  0  0  0  0  0  0  0  0  0  0  0
    4.6546   -5.0826   -1.4560 C   0  0  0  0  0  0  0  0  0  0  0  0
    4.5795   -3.6297   -1.3588 N   0  0  0  0  0  0  0  0  0  0  0  0
    5.2135   -3.0578   -0.1746 C   0  0  0  0  0  0  0  0  0  0  0  0
    6.7053   -3.0074   -0.3190 C   0  0  0  0  0  0  0  0  0  0  0  0
    7.7587   -3.1524    0.5606 C   0  0  0  0  0  0  0  0  0  0  0  0
    8.9553   -2.9303   -0.0788 N   0  0  0  0  0  0  0  0  0  0  0  0
    8.6517   -2.6652   -1.3338 C   0  0  0  0  0  0  0  0  0  0  0  0
    9.5953   -2.3935   -2.4906 C   0  0  1  0  0  0  0  0  0  0  0  0
    9.0000   -1.3929   -3.3305 O   0  0  0  0  0  0  0  0  0  0  0  0
    8.9017   -0.0868   -2.8081 C   0  0  0  0  0  0  0  0  0  0  0  0
   11.0054   -1.9974   -2.0068 C   0  0  0  0  0  0  0  0  0  0  0  0
   11.8182   -3.1976   -1.5037 C   0  0  0  0  0  0  0  0  0  0  0  0
   11.8727   -4.2405   -2.4597 O   0  0  0  0  0  0  0  0  0  0  0  0
   10.5879   -4.7249   -2.7852 C   0  0  0  0  0  0  0  0  0  0  0  0
    9.7235   -3.6293   -3.4089 C   0  0  0  0  0  0  0  0  0  0  0  0
    7.2974   -2.6990   -1.5230 N   0  0  0  0  0  0  0  0  0  0  0  0
    6.7985   -2.5386   -2.3911 H   0  0  0  0  0  0  0  0  0  0  0  0
    3.6161   -7.4518   -3.8278 H   0  0  0  0  0  0  0  0  0  0  0  0
    3.5875   -7.6330   -2.0596 H   0  0  0  0  0  0  0  0  0  0  0  0
    5.1387   -7.4615   -2.9104 H   0  0  0  0  0  0  0  0  0  0  0  0
    2.9498   -5.2807   -2.7651 H   0  0  0  0  0  0  0  0  0  0  0  0
    4.4934   -5.0987   -3.5994 H   0  0  0  0  0  0  0  0  0  0  0  0
    5.7198   -5.3730   -1.4372 H   0  0  0  0  0  0  0  0  0  0  0  0
    4.1893   -5.5882   -0.5786 H   0  0  0  0  0  0  0  0  0  0  0  0
    3.6068   -3.3310   -1.4046 H   0  0  0  0  0  0  0  0  0  0  0  0
    4.9709   -3.5960    0.7668 H   0  0  0  0  0  0  0  0  0  0  0  0
    4.8194   -2.0321   -0.0544 H   0  0  0  0  0  0  0  0  0  0  0  0
    7.7114   -3.3986    1.6210 H   0  0  0  0  0  0  0  0  0  0  0  0
    8.3197    0.5025   -3.5323 H   0  0  0  0  0  0  0  0  0  0  0  0
    9.8877    0.3964   -2.6851 H   0  0  0  0  0  0  0  0  0  0  0  0
    8.3797   -0.0581   -1.8326 H   0  0  0  0  0  0  0  0  0  0  0  0
   10.9475   -1.2458   -1.2051 H   0  0  0  0  0  0  0  0  0  0  0  0
   11.5236   -1.5457   -2.8692 H   0  0  0  0  0  0  0  0  0  0  0  0
   11.3844   -3.5611   -0.5552 H   0  0  0  0  0  0  0  0  0  0  0  0
   12.8592   -2.8922   -1.3162 H   0  0  0  0  0  0  0  0  0  0  0  0
   10.0918   -5.1418   -1.8848 H   0  0  0  0  0  0  0  0  0  0  0  0
   10.7296   -5.5500   -3.5004 H   0  0  0  0  0  0  0  0  0  0  0  0
    8.7223   -4.0178   -3.6577 H   0  0  0  0  0  0  0  0  0  0  0  0
   10.1875   -3.2863   -4.3473 H   0  0  0  0  0  0  0  0  0  0  0  0
  1  2  1  0
  1 20  1  0
  1 21  1  0
  1 22  1  0
  2  3  1  0
  2 23  1  0
  2 24  1  0
  3  4  1  0
  3 25  1  0
  3 26  1  0
  4  5  1  0
  4 27  1  0
  5  6  1  0
  5 28  1  0
  5 29  1  0
  6  7  2  0
  6 18  1  0
  7  8  1  0
  7 30  1  0
  8  9  2  0
  9 10  1  0
  9 18  1  0
 10 11  1  6
 10 13  1  0
 10 17  1  0
 11 12  1  0
 12 31  1  0
 12 32  1  0
 12 33  1  0
 13 14  1  0
 13 34  1  0
 13 35  1  0
 14 15  1  0
 14 36  1  0
 14 37  1  0
 15 16  1  0
 16 17  1  0
 16 38  1  0
 16 39  1  0
 17 40  1  0
 17 41  1  0
 18 19  1  0
M  END

