
     RDKit          3D

 54 53  0  0  0  0  0  0  0  0999 V2000
    1.8600    4.5153   -0.0111 C   0  0  0  0  0  0  0  0  0  0  0  0
    2.0626    3.0169    0.2398 C   0  0  1  0  0  0  0  0  0  0  0  0
    2.6112    2.7375    1.6432 C   0  0  0  0  0  0  0  0  0  0  0  0
    0.7607    2.2482    0.0041 C   0  0  0  0  0  0  0  0  0  0  0  0
    2.9605    2.4549   -0.7705 O   0  0  0  0  0  0  0  0  0  0  0  0
    4.2388    2.8723   -0.9021 C   0  0  0  0  0  0  0  0  0  0  0  0
    4.7848    3.7308   -0.2360 O   0  0  0  0  0  0  0  0  0  0  0  0
    4.8512    2.1687   -1.9015 N   0  0  0  0  0  0  0  0  0  0  0  0
    6.1905    2.4899   -2.3493 C   0  0  0  0  0  0  0  0  0  0  0  0
    6.2317    3.5156   -3.4910 C   0  0  0  0  0  0  0  0  0  0  0  0
    7.6670    3.8532   -3.8996 C   0  0  0  0  0  0  0  0  0  0  0  0
    7.8287    4.7741   -5.1432 C   0  0  1  0  0  0  0  0  0  0  0  0
    7.0610    6.0910   -4.9849 C   0  0  0  0  0  0  0  0  0  0  0  0
    9.2822    4.9782   -5.2975 N   0  0  0  0  0  0  0  0  0  0  0  0
    9.8064    5.8176   -6.2665 C   0  0  0  0  0  0  0  0  0  0  0  0
    9.1990    6.1696   -7.2539 O   0  0  0  0  0  0  0  0  0  0  0  0
   11.0749    6.1286   -5.9490 O   0  0  0  0  0  0  0  0  0  0  0  0
   11.9303    6.9268   -6.8422 C   0  0  1  0  0  0  0  0  0  0  0  0
   11.3346    8.3266   -7.0192 C   0  0  0  0  0  0  0  0  0  0  0  0
   13.2521    6.9895   -6.0758 C   0  0  0  0  0  0  0  0  0  0  0  0
   12.1068    6.1994   -8.1785 C   0  0  0  0  0  0  0  0  0  0  0  0
    7.2931    3.9819   -6.3673 C   0  0  0  0  0  0  0  0  0  0  0  0
    6.1503    4.0352   -6.7332 O   0  0  0  0  0  0  0  0  0  0  0  0
    8.1770    3.1348   -6.9175 O   0  0  0  0  0  0  0  0  0  0  0  0
    1.0997    4.9092    0.6815 H   0  0  0  0  0  0  0  0  0  0  0  0
    1.5051    4.6865   -1.0397 H   0  0  0  0  0  0  0  0  0  0  0  0
    2.7953    5.0694    0.1378 H   0  0  0  0  0  0  0  0  0  0  0  0
    1.8823    3.0663    2.4006 H   0  0  0  0  0  0  0  0  0  0  0  0
    3.5572    3.2685    1.8083 H   0  0  0  0  0  0  0  0  0  0  0  0
    2.7811    1.6578    1.7795 H   0  0  0  0  0  0  0  0  0  0  0  0
   -0.0130    2.5803    0.7128 H   0  0  0  0  0  0  0  0  0  0  0  0
    0.9190    1.1676    0.1408 H   0  0  0  0  0  0  0  0  0  0  0  0
    0.3919    2.4157   -1.0193 H   0  0  0  0  0  0  0  0  0  0  0  0
    4.2685    1.5530   -2.4563 H   0  0  0  0  0  0  0  0  0  0  0  0
    6.6909    1.5563   -2.6597 H   0  0  0  0  0  0  0  0  0  0  0  0
    6.7366    2.8793   -1.4768 H   0  0  0  0  0  0  0  0  0  0  0  0
    5.7099    4.4249   -3.1539 H   0  0  0  0  0  0  0  0  0  0  0  0
    5.6694    3.1295   -4.3567 H   0  0  0  0  0  0  0  0  0  0  0  0
    8.2275    2.9205   -4.0911 H   0  0  0  0  0  0  0  0  0  0  0  0
    8.1738    4.3523   -3.0527 H   0  0  0  0  0  0  0  0  0  0  0  0
    7.3493    6.5881   -4.0450 H   0  0  0  0  0  0  0  0  0  0  0  0
    5.9807    5.9014   -4.9740 H   0  0  0  0  0  0  0  0  0  0  0  0
    7.2736    6.7594   -5.8292 H   0  0  0  0  0  0  0  0  0  0  0  0
    9.8417    4.9108   -4.4524 H   0  0  0  0  0  0  0  0  0  0  0  0
   11.1724    8.8017   -6.0390 H   0  0  0  0  0  0  0  0  0  0  0  0
   10.3790    8.2862   -7.5571 H   0  0  0  0  0  0  0  0  0  0  0  0
   12.0347    8.9558   -7.5904 H   0  0  0  0  0  0  0  0  0  0  0  0
   13.1106    7.4711   -5.0964 H   0  0  0  0  0  0  0  0  0  0  0  0
   13.9940    7.5694   -6.6451 H   0  0  0  0  0  0  0  0  0  0  0  0
   13.6533    5.9783   -5.9094 H   0  0  0  0  0  0  0  0  0  0  0  0
   11.1561    6.1307   -8.7225 H   0  0  0  0  0  0  0  0  0  0  0  0
   12.4990    5.1833   -8.0147 H   0  0  0  0  0  0  0  0  0  0  0  0
   12.8303    6.7456   -8.8034 H   0  0  0  0  0  0  0  0  0  0  0  0
    9.0456    3.3188   -6.5171 H   0  0  0  0  0  0  0  0  0  0  0  0
  1  2  1  0
  1 25  1  0
  1 26  1  0
  1 27  1  0
  2  3  1  0
  2  4  1  0
  2  5  1  6
  3 28  1  0
  3 29  1  0
  3 30  1  0
  4 31  1  0
  4 32  1  0
  4 33  1  0
  5  6  1  0
  6  7  2  0
  6  8  1  0
  8  9  1  0
  8 34  1  0
  9 10  1  0
  9 35  1  0
  9 36  1  0
 10 11  1  0
 10 37  1  0
 10 38  1  0
 11 12  1  0
 11 39  1  0
 11 40  1  0
 12 13  1  0
 12 14  1  0
 12 22  1  6
 13 41  1  0
 13 42  1  0
 13 43  1  0
 14 15  1  0
 14 44  1  0
 15 16  2  0
 15 17  1  0
 18 17  1  1
 18 19  1  0
 18 20  1  0
 18 21  1  0
 19 45  1  0
 19 46  1  0
 19 47  1  0
 20 48  1  0
 20 49  1  0
 20 50  1  0
 21 51  1  0
 21 52  1  0
 21 53  1  0
 22 23  2  0
 22 24  1  0
 24 54  1  0
M  END

