
     RDKit          3D

 35 37  0  0  0  0  0  0  0  0999 V2000
    1.5205   -0.0786    0.3455 C   0  0  0  0  0  0  0  0  0  0  0  0
    2.9536   -0.1383    0.4773 N   0  0  0  0  0  0  0  0  0  0  0  0
    3.6734   -1.2840   -0.0873 C   0  0  0  0  0  0  0  0  0  0  0  0
    5.1621   -0.8935    0.0385 C   0  0  0  0  0  0  0  0  0  0  0  0
    5.0918    0.6190    0.0756 C   0  0  0  0  0  0  0  0  0  0  0  0
    6.0745    1.5865   -0.0679 C   0  0  0  0  0  0  0  0  0  0  0  0
    5.7469    2.9525    0.0508 C   0  0  0  0  0  0  0  0  0  0  0  0
    6.8278    4.0146   -0.1548 C   0  0  1  0  0  0  0  0  0  0  0  0
    6.6856    4.7606   -1.3336 O   0  0  0  0  0  0  0  0  0  0  0  0
    6.9962    4.8908    1.0901 C   0  0  0  0  0  0  0  0  0  0  0  0
    7.9553    4.2617    2.3936 S   0  0  0  0  0  0  0  0  0  0  0  0
    7.7127    5.6661    3.3720 C   0  0  0  0  0  0  0  0  0  0  0  0
    6.9411    6.5876    2.7240 C   0  0  0  0  0  0  0  0  0  0  0  0
    6.5233    6.1581    1.4131 C   0  0  0  0  0  0  0  0  0  0  0  0
    5.6657    7.0000    0.5355 C   0  0  0  0  0  0  0  0  0  0  0  0
    4.9347    6.5824   -0.3371 O   0  0  0  0  0  0  0  0  0  0  0  0
    5.7057    8.3264    0.7735 O   0  0  0  0  0  0  0  0  0  0  0  0
    4.4146    3.3061    0.3141 C   0  0  0  0  0  0  0  0  0  0  0  0
    3.4099    2.3417    0.4576 C   0  0  0  0  0  0  0  0  0  0  0  0
    3.7577    0.9889    0.3491 C   0  0  0  0  0  0  0  0  0  0  0  0
    1.0803   -1.0402    0.6523 H   0  0  0  0  0  0  0  0  0  0  0  0
    1.1853    0.1367   -0.6924 H   0  0  0  0  0  0  0  0  0  0  0  0
    1.1049    0.6983    1.0051 H   0  0  0  0  0  0  0  0  0  0  0  0
    3.3980   -1.4265   -1.1551 H   0  0  0  0  0  0  0  0  0  0  0  0
    3.4187   -2.2131    0.4478 H   0  0  0  0  0  0  0  0  0  0  0  0
    5.7726   -1.2920   -0.7856 H   0  0  0  0  0  0  0  0  0  0  0  0
    5.5886   -1.2818    0.9814 H   0  0  0  0  0  0  0  0  0  0  0  0
    7.1063    1.2923   -0.2859 H   0  0  0  0  0  0  0  0  0  0  0  0
    7.7809    3.4719   -0.2705 H   0  0  0  0  0  0  0  0  0  0  0  0
    5.8624    5.2778   -1.2624 H   0  0  0  0  0  0  0  0  0  0  0  0
    8.1399    5.7273    4.3718 H   0  0  0  0  0  0  0  0  0  0  0  0
    6.6371    7.5288    3.1877 H   0  0  0  0  0  0  0  0  0  0  0  0
    6.4192    8.5360    1.3928 H   0  0  0  0  0  0  0  0  0  0  0  0
    4.1462    4.3626    0.3845 H   0  0  0  0  0  0  0  0  0  0  0  0
    2.3799    2.6513    0.6446 H   0  0  0  0  0  0  0  0  0  0  0  0
  1  2  1  0
  1 21  1  0
  1 22  1  0
  1 23  1  0
  2  3  1  0
  2 20  1  0
  3  4  1  0
  3 24  1  0
  3 25  1  0
  4  5  1  0
  4 26  1  0
  4 27  1  0
  5  6  2  0
  5 20  1  0
  6  7  1  0
  6 28  1  0
  7  8  1  0
  7 18  2  0
  8  9  1  0
  8 10  1  0
  8 29  1  6
  9 30  1  0
 10 11  2  0
 10 14  1  0
 11 12  1  0
 12 13  2  0
 12 31  1  0
 13 14  1  0
 13 32  1  0
 14 15  2  0
 15 16  1  0
 15 17  1  0
 17 33  1  0
 18 19  1  0
 18 34  1  0
 19 20  2  0
 19 35  1  0
M  CHG  2  11   1  16  -1
M  END

