
     RDKit          3D

 43 45  0  0  0  0  0  0  0  0999 V2000
    1.4291   -0.4845   -0.7543 C   0  0  0  0  0  0  0  0  0  0  0  0
    1.2689    0.8515   -0.2214 N   0  0  0  0  0  0  0  0  0  0  0  0
   -0.0103    1.1832    0.3825 C   0  0  0  0  0  0  0  0  0  0  0  0
    2.2246    1.8124   -0.4411 C   0  0  0  0  0  0  0  0  0  0  0  0
    3.4098    1.5367   -1.1785 C   0  0  0  0  0  0  0  0  0  0  0  0
    4.3548    2.5407   -1.3281 C   0  0  0  0  0  0  0  0  0  0  0  0
    4.1344    3.8143   -0.7725 C   0  0  0  0  0  0  0  0  0  0  0  0
    5.0085    5.0171   -0.9435 C   0  0  0  0  0  0  0  0  0  0  0  0
    4.5025    6.1275   -1.0643 O   0  0  0  0  0  0  0  0  0  0  0  0
    6.3864    4.8643   -0.9809 N   0  0  0  0  0  0  0  0  0  0  0  0
    7.1135    3.7342   -0.4270 C   0  0  0  0  0  0  0  0  0  0  0  0
    7.8917    2.9682   -1.4573 C   0  0  0  0  0  0  0  0  0  0  0  0
    7.8848    2.9353   -2.8262 C   0  0  0  0  0  0  0  0  0  0  0  0
    8.8761    1.9678   -3.2098 C   0  0  0  0  0  0  0  0  0  0  0  0
    9.4033    1.4876   -2.0474 C   0  0  0  0  0  0  0  0  0  0  0  0
    8.8145    2.0911   -0.9799 O   0  0  0  0  0  0  0  0  0  0  0  0
    7.1768    6.0767   -1.2460 C   0  0  0  0  0  0  0  0  0  0  0  0
    7.5203    6.8854   -0.0196 C   0  0  0  0  0  0  0  0  0  0  0  0
    6.7092    7.7404    0.6918 C   0  0  0  0  0  0  0  0  0  0  0  0
    7.3622    8.3282    1.8168 C   0  0  0  0  0  0  0  0  0  0  0  0
    8.6642    7.9149    1.9542 C   0  0  0  0  0  0  0  0  0  0  0  0
    9.1063    6.8034    0.7064 S   0  0  0  0  0  0  0  0  0  0  0  0
    2.9078    3.9926   -0.1079 C   0  0  0  0  0  0  0  0  0  0  0  0
    2.0016    3.0417    0.0646 N   0  0  0  0  0  0  0  0  0  0  0  0
    0.6481   -1.1331   -0.3346 H   0  0  0  0  0  0  0  0  0  0  0  0
    2.4041   -0.9181   -0.4770 H   0  0  0  0  0  0  0  0  0  0  0  0
    1.3424   -0.5208   -1.8579 H   0  0  0  0  0  0  0  0  0  0  0  0
   -0.2420    0.4849    1.2049 H   0  0  0  0  0  0  0  0  0  0  0  0
   -0.8322    1.1287   -0.3563 H   0  0  0  0  0  0  0  0  0  0  0  0
    0.0403    2.2031    0.7776 H   0  0  0  0  0  0  0  0  0  0  0  0
    3.5803    0.5657   -1.6406 H   0  0  0  0  0  0  0  0  0  0  0  0
    5.2544    2.3334   -1.9118 H   0  0  0  0  0  0  0  0  0  0  0  0
    6.4141    3.0666    0.0978 H   0  0  0  0  0  0  0  0  0  0  0  0
    7.8163    4.0939    0.3474 H   0  0  0  0  0  0  0  0  0  0  0  0
    7.2552    3.5355   -3.4790 H   0  0  0  0  0  0  0  0  0  0  0  0
    9.1561    1.6744   -4.2194 H   0  0  0  0  0  0  0  0  0  0  0  0
   10.1711    0.7533   -1.8188 H   0  0  0  0  0  0  0  0  0  0  0  0
    6.5876    6.7015   -1.9288 H   0  0  0  0  0  0  0  0  0  0  0  0
    8.0948    5.7685   -1.7687 H   0  0  0  0  0  0  0  0  0  0  0  0
    5.6736    7.9225    0.4027 H   0  0  0  0  0  0  0  0  0  0  0  0
    6.8850    9.0361    2.4968 H   0  0  0  0  0  0  0  0  0  0  0  0
    9.3897    8.2071    2.7122 H   0  0  0  0  0  0  0  0  0  0  0  0
    2.6707    4.9811    0.3000 H   0  0  0  0  0  0  0  0  0  0  0  0
  1  2  1  0
  1 25  1  0
  1 26  1  0
  1 27  1  0
  2  3  1  0
  2  4  1  0
  3 28  1  0
  3 29  1  0
  3 30  1  0
  4  5  2  0
  4 24  1  0
  5  6  1  0
  5 31  1  0
  6  7  2  0
  6 32  1  0
  7  8  1  0
  7 23  1  0
  8  9  2  0
  8 10  1  0
 10 11  1  0
 10 17  1  0
 11 12  1  0
 11 33  1  0
 11 34  1  0
 12 13  2  0
 12 16  1  0
 13 14  1  0
 13 35  1  0
 14 15  2  0
 14 36  1  0
 15 16  1  0
 15 37  1  0
 17 18  1  0
 17 38  1  0
 17 39  1  0
 18 19  2  0
 18 22  1  0
 19 20  1  0
 19 40  1  0
 20 21  2  0
 20 41  1  0
 21 22  1  0
 21 42  1  0
 23 24  2  0
 23 43  1  0
M  END

