
     RDKit          3D

 43 45  0  0  0  0  0  0  0  0999 V2000
    5.6759    1.1172    0.8523 C   0  0  0  0  0  0  0  0  0  0  0  0
    6.8708    0.7942    0.1584 O   0  0  0  0  0  0  0  0  0  0  0  0
    7.1963   -0.5434    0.1476 C   0  0  0  0  0  0  0  0  0  0  0  0
    6.2652   -1.3585   -0.5612 O   0  0  0  0  0  0  0  0  0  0  0  0
    6.1531   -1.2660   -1.9196 C   0  0  0  0  0  0  0  0  0  0  0  0
    6.8117   -0.2861   -2.6716 C   0  0  0  0  0  0  0  0  0  0  0  0
    6.6709   -0.2689   -4.0601 C   0  0  0  0  0  0  0  0  0  0  0  0
    7.5011    0.9602   -4.9709 Cl  0  0  0  0  0  0  0  0  0  0  0  0
    5.8690   -1.2201   -4.7156 C   0  0  0  0  0  0  0  0  0  0  0  0
    5.7122   -1.2298   -6.1395 C   0  0  0  0  0  0  0  0  0  0  0  0
    5.5576   -1.2735   -7.2897 N   0  0  0  0  0  0  0  0  0  0  0  0
    5.2087   -2.1861   -3.9274 C   0  0  0  0  0  0  0  0  0  0  0  0
    5.3246   -2.2269   -2.5435 C   0  0  0  0  0  0  0  0  0  0  0  0
    4.5918   -3.2961   -1.7468 C   0  0  1  0  0  0  0  0  0  0  0  0
    5.4500   -3.9751   -0.8458 O   0  0  0  0  0  0  0  0  0  0  0  0
    3.3313   -2.7634   -1.0441 C   0  0  0  0  0  0  0  0  0  0  0  0
    3.1447   -1.4405   -1.0733 N   0  0  0  0  0  0  0  0  0  0  0  0
    2.0673   -0.9008   -0.5001 C   0  0  0  0  0  0  0  0  0  0  0  0
    1.0946   -1.6606    0.1454 C   0  0  0  0  0  0  0  0  0  0  0  0
    1.2758   -3.0431    0.1780 C   0  0  0  0  0  0  0  0  0  0  0  0
    2.3999   -3.6283   -0.4126 C   0  0  0  0  0  0  0  0  0  0  0  0
    2.5233   -5.1381   -0.2895 C   0  0  1  0  0  0  0  0  0  0  0  0
    3.0321   -5.7395   -1.4491 O   0  0  0  0  0  0  0  0  0  0  0  0
    3.6639   -6.9376   -1.0252 C   0  0  0  0  0  0  0  0  0  0  0  0
    4.2312   -6.5576    0.3482 C   0  0  0  0  0  0  0  0  0  0  0  0
    3.3702   -5.5113    0.7844 O   0  0  0  0  0  0  0  0  0  0  0  0
    5.5689    2.2095    0.8172 H   0  0  0  0  0  0  0  0  0  0  0  0
    5.7317    0.7946    1.9096 H   0  0  0  0  0  0  0  0  0  0  0  0
    4.7976    0.6457    0.3815 H   0  0  0  0  0  0  0  0  0  0  0  0
    7.2010   -0.9793    1.1636 H   0  0  0  0  0  0  0  0  0  0  0  0
    8.1946   -0.6307   -0.3111 H   0  0  0  0  0  0  0  0  0  0  0  0
    7.3994    0.4922   -2.1902 H   0  0  0  0  0  0  0  0  0  0  0  0
    4.5832   -2.9254   -4.4324 H   0  0  0  0  0  0  0  0  0  0  0  0
    4.2543   -4.0674   -2.4513 H   0  0  0  0  0  0  0  0  0  0  0  0
    5.7897   -3.3055   -0.2334 H   0  0  0  0  0  0  0  0  0  0  0  0
    1.9742    0.1900   -0.5632 H   0  0  0  0  0  0  0  0  0  0  0  0
    0.2210   -1.1884    0.5995 H   0  0  0  0  0  0  0  0  0  0  0  0
    0.5328   -3.6834    0.6624 H   0  0  0  0  0  0  0  0  0  0  0  0
    1.5073   -5.5434   -0.0805 H   0  0  0  0  0  0  0  0  0  0  0  0
    4.4297   -7.2116   -1.7643 H   0  0  0  0  0  0  0  0  0  0  0  0
    2.9239   -7.7584   -0.9496 H   0  0  0  0  0  0  0  0  0  0  0  0
    5.2602   -6.1766    0.2651 H   0  0  0  0  0  0  0  0  0  0  0  0
    4.1967   -7.3933    1.0669 H   0  0  0  0  0  0  0  0  0  0  0  0
  1  2  1  0
  1 27  1  0
  1 28  1  0
  1 29  1  0
  2  3  1  0
  3  4  1  0
  3 30  1  0
  3 31  1  0
  4  5  1  0
  5  6  2  0
  5 13  1  0
  6  7  1  0
  6 32  1  0
  7  8  1  0
  7  9  2  0
  9 10  1  0
  9 12  1  0
 10 11  3  0
 12 13  2  0
 12 33  1  0
 13 14  1  0
 14 15  1  0
 14 16  1  0
 14 34  1  6
 15 35  1  0
 16 17  2  0
 16 21  1  0
 17 18  1  0
 18 19  2  0
 18 36  1  0
 19 20  1  0
 19 37  1  0
 20 21  2  0
 20 38  1  0
 21 22  1  0
 22 23  1  0
 22 26  1  0
 22 39  1  1
 23 24  1  0
 24 25  1  0
 24 40  1  0
 24 41  1  0
 25 26  1  0
 25 42  1  0
 25 43  1  0
M  END

