
     RDKit          3D

 48 50  0  0  0  0  0  0  0  0999 V2000
    0.8795   -0.3729    1.0939 O   0  0  0  0  0  0  0  0  0  0  0  0
    1.8043   -0.5674    1.8359 C   0  0  0  0  0  0  0  0  0  0  0  0
    2.1066    0.3468    2.7877 O   0  0  0  0  0  0  0  0  0  0  0  0
    2.6992   -1.8137    1.8130 C   0  0  1  0  0  0  0  0  0  0  0  0
    2.2524   -2.8095    0.7294 C   0  0  0  0  0  0  0  0  0  0  0  0
    2.6166   -2.3434   -0.6896 C   0  0  0  0  0  0  0  0  0  0  0  0
    4.1034   -1.9835   -0.8529 C   0  0  2  0  0  0  0  0  0  0  0  0
    4.9208   -3.1883   -0.8096 N   0  0  0  0  0  0  0  0  0  0  0  0
    6.1790   -3.3286   -1.3632 C   0  0  0  0  0  0  0  0  0  0  0  0
    6.8823   -2.2536   -1.9504 C   0  0  0  0  0  0  0  0  0  0  0  0
    8.1667   -2.4478   -2.4652 C   0  0  0  0  0  0  0  0  0  0  0  0
    8.7881   -3.6949   -2.4170 C   0  0  0  0  0  0  0  0  0  0  0  0
    8.0894   -4.7820   -1.8675 C   0  0  0  0  0  0  0  0  0  0  0  0
    8.8077   -6.1037   -1.7390 C   0  0  0  0  0  0  0  0  0  0  0  0
    9.9265   -6.1396   -1.2480 O   0  0  0  0  0  0  0  0  0  0  0  0
    8.1499   -7.2522   -2.1424 N   0  0  0  0  0  0  0  0  0  0  0  0
    7.0666   -7.2897   -3.1217 C   0  0  0  0  0  0  0  0  0  0  0  0
    7.5423   -7.7634   -4.5002 C   0  0  0  0  0  0  0  0  0  0  0  0
    8.2754   -9.4409   -4.4661 S   0  0  0  0  0  0  0  0  0  0  0  0
    9.4689   -9.1342   -3.1079 C   0  0  0  0  0  0  0  0  0  0  0  0
    8.7965   -8.5362   -1.8716 C   0  0  0  0  0  0  0  0  0  0  0  0
    6.8067   -4.5957   -1.3452 C   0  0  0  0  0  0  0  0  0  0  0  0
    4.5156   -0.9582    0.2294 C   0  0  0  0  0  0  0  0  0  0  0  0
    4.1967   -1.4623    1.6408 C   0  0  0  0  0  0  0  0  0  0  0  0
    2.8617    0.0518    3.3161 H   0  0  0  0  0  0  0  0  0  0  0  0
    2.5683   -2.2868    2.8047 H   0  0  0  0  0  0  0  0  0  0  0  0
    1.1653   -2.9640    0.7942 H   0  0  0  0  0  0  0  0  0  0  0  0
    2.7218   -3.7843    0.9501 H   0  0  0  0  0  0  0  0  0  0  0  0
    2.0168   -1.4526   -0.9267 H   0  0  0  0  0  0  0  0  0  0  0  0
    2.3408   -3.1166   -1.4264 H   0  0  0  0  0  0  0  0  0  0  0  0
    4.2284   -1.5093   -1.8436 H   0  0  0  0  0  0  0  0  0  0  0  0
    4.4522   -4.0500   -0.5624 H   0  0  0  0  0  0  0  0  0  0  0  0
    6.4347   -1.2608   -1.9985 H   0  0  0  0  0  0  0  0  0  0  0  0
    8.6933   -1.5969   -2.9057 H   0  0  0  0  0  0  0  0  0  0  0  0
    9.8046   -3.8366   -2.7869 H   0  0  0  0  0  0  0  0  0  0  0  0
    6.6326   -6.2869   -3.2182 H   0  0  0  0  0  0  0  0  0  0  0  0
    6.2746   -7.9688   -2.7582 H   0  0  0  0  0  0  0  0  0  0  0  0
    8.2729   -7.0480   -4.9140 H   0  0  0  0  0  0  0  0  0  0  0  0
    6.6909   -7.8176   -5.1961 H   0  0  0  0  0  0  0  0  0  0  0  0
   10.2758   -8.4717   -3.4606 H   0  0  0  0  0  0  0  0  0  0  0  0
    9.9129  -10.1127   -2.8689 H   0  0  0  0  0  0  0  0  0  0  0  0
    9.5472   -8.3642   -1.0890 H   0  0  0  0  0  0  0  0  0  0  0  0
    8.0332   -9.2390   -1.4941 H   0  0  0  0  0  0  0  0  0  0  0  0
    6.2813   -5.4405   -0.8893 H   0  0  0  0  0  0  0  0  0  0  0  0
    3.9857   -0.0090    0.0339 H   0  0  0  0  0  0  0  0  0  0  0  0
    5.5916   -0.7395    0.1497 H   0  0  0  0  0  0  0  0  0  0  0  0
    4.5273   -0.7219    2.3898 H   0  0  0  0  0  0  0  0  0  0  0  0
    4.7879   -2.3715    1.8382 H   0  0  0  0  0  0  0  0  0  0  0  0
  1  2  2  0
  2  3  1  0
  2  4  1  0
  3 25  1  0
  4  5  1  0
  4 24  1  0
  4 26  1  1
  5  6  1  0
  5 27  1  0
  5 28  1  0
  6  7  1  0
  6 29  1  0
  6 30  1  0
  7  8  1  0
  7 23  1  0
  7 31  1  6
  8  9  1  0
  8 32  1  0
  9 10  2  0
  9 22  1  0
 10 11  1  0
 10 33  1  0
 11 12  2  0
 11 34  1  0
 12 13  1  0
 12 35  1  0
 13 14  1  0
 13 22  2  0
 14 15  2  0
 14 16  1  0
 16 17  1  0
 16 21  1  0
 17 18  1  0
 17 36  1  0
 17 37  1  0
 18 19  1  0
 18 38  1  0
 18 39  1  0
 19 20  1  0
 20 21  1  0
 20 40  1  0
 20 41  1  0
 21 42  1  0
 21 43  1  0
 22 44  1  0
 23 24  1  0
 23 45  1  0
 23 46  1  0
 24 47  1  0
 24 48  1  0
M  END

