
     RDKit          3D

 51 52  0  0  0  0  0  0  0  0999 V2000
    2.6614   -0.3189   -1.5276 C   0  0  0  0  0  0  0  0  0  0  0  0
    2.5748    1.0415   -1.1564 O   0  0  0  0  0  0  0  0  0  0  0  0
    2.5368    2.0201   -2.2049 C   0  0  1  0  0  0  0  0  0  0  0  0
    1.5841    1.6537   -3.3452 C   0  0  0  0  0  0  0  0  0  0  0  0
    2.0854    3.3161   -1.5180 C   0  0  0  0  0  0  0  0  0  0  0  0
    3.9665    2.2596   -2.7776 C   0  0  0  0  0  0  0  0  0  0  0  0
    4.1341    2.7381   -3.8876 O   0  0  0  0  0  0  0  0  0  0  0  0
    4.9576    1.9420   -1.8930 N   0  0  0  0  0  0  0  0  0  0  0  0
    6.3537    2.0863   -2.0247 C   0  0  0  0  0  0  0  0  0  0  0  0
    6.9727    2.6089   -3.1695 C   0  0  0  0  0  0  0  0  0  0  0  0
    8.3664    2.7228   -3.2312 C   0  0  0  0  0  0  0  0  0  0  0  0
    9.1670    2.3194   -2.1536 C   0  0  0  0  0  0  0  0  0  0  0  0
   10.5238    2.3933   -2.1250 O   0  0  0  0  0  0  0  0  0  0  0  0
   11.2235    2.9232   -3.2357 C   0  0  0  0  0  0  0  0  0  0  0  0
   12.7153    2.8812   -2.9104 C   0  0  0  0  0  0  0  0  0  0  0  0
   13.4993    3.4556   -3.9936 N   0  0  0  0  0  0  0  0  0  0  0  0
   13.7399    4.8944   -3.8954 C   0  0  0  0  0  0  0  0  0  0  0  0
   14.9111    5.2593   -2.9652 C   0  0  0  0  0  0  0  0  0  0  0  0
   16.1840    4.5040   -3.3728 C   0  0  0  0  0  0  0  0  0  0  0  0
   15.9141    2.9962   -3.4757 C   0  0  0  0  0  0  0  0  0  0  0  0
   14.7035    2.7301   -4.3872 C   0  0  0  0  0  0  0  0  0  0  0  0
    8.5462    1.7957   -1.0064 C   0  0  0  0  0  0  0  0  0  0  0  0
    7.1632    1.6816   -0.9455 C   0  0  0  0  0  0  0  0  0  0  0  0
    2.8240   -0.8901   -0.6016 H   0  0  0  0  0  0  0  0  0  0  0  0
    3.5055   -0.5197   -2.2146 H   0  0  0  0  0  0  0  0  0  0  0  0
    1.7332   -0.6857   -1.9993 H   0  0  0  0  0  0  0  0  0  0  0  0
    0.5680    1.4941   -2.9527 H   0  0  0  0  0  0  0  0  0  0  0  0
    1.9059    0.7515   -3.8849 H   0  0  0  0  0  0  0  0  0  0  0  0
    1.5643    2.4729   -4.0751 H   0  0  0  0  0  0  0  0  0  0  0  0
    1.0591    3.1974   -1.1387 H   0  0  0  0  0  0  0  0  0  0  0  0
    2.1149    4.1562   -2.2265 H   0  0  0  0  0  0  0  0  0  0  0  0
    2.7429    3.5490   -0.6671 H   0  0  0  0  0  0  0  0  0  0  0  0
    4.6159    1.5537   -1.0183 H   0  0  0  0  0  0  0  0  0  0  0  0
    6.3559    2.9237   -4.0086 H   0  0  0  0  0  0  0  0  0  0  0  0
    8.8145    3.1316   -4.1371 H   0  0  0  0  0  0  0  0  0  0  0  0
   10.9008    3.9625   -3.4362 H   0  0  0  0  0  0  0  0  0  0  0  0
   11.0260    2.3336   -4.1496 H   0  0  0  0  0  0  0  0  0  0  0  0
   13.0019    1.8279   -2.7627 H   0  0  0  0  0  0  0  0  0  0  0  0
   12.8732    3.3795   -1.9322 H   0  0  0  0  0  0  0  0  0  0  0  0
   12.8142    5.3945   -3.5682 H   0  0  0  0  0  0  0  0  0  0  0  0
   13.9557    5.2782   -4.9106 H   0  0  0  0  0  0  0  0  0  0  0  0
   14.6480    5.0026   -1.9230 H   0  0  0  0  0  0  0  0  0  0  0  0
   15.0788    6.3498   -2.9846 H   0  0  0  0  0  0  0  0  0  0  0  0
   17.0028    4.7079   -2.6625 H   0  0  0  0  0  0  0  0  0  0  0  0
   16.5265    4.8765   -4.3568 H   0  0  0  0  0  0  0  0  0  0  0  0
   15.7142    2.5843   -2.4694 H   0  0  0  0  0  0  0  0  0  0  0  0
   16.8010    2.4652   -3.8625 H   0  0  0  0  0  0  0  0  0  0  0  0
   14.4733    1.6536   -4.4323 H   0  0  0  0  0  0  0  0  0  0  0  0
   14.9636    3.0367   -5.4187 H   0  0  0  0  0  0  0  0  0  0  0  0
    9.1742    1.4833   -0.1696 H   0  0  0  0  0  0  0  0  0  0  0  0
    6.6975    1.2724   -0.0438 H   0  0  0  0  0  0  0  0  0  0  0  0
  1  2  1  0
  1 24  1  0
  1 25  1  0
  1 26  1  0
  3  2  1  1
  3  4  1  0
  3  5  1  0
  3  6  1  0
  4 27  1  0
  4 28  1  0
  4 29  1  0
  5 30  1  0
  5 31  1  0
  5 32  1  0
  6  7  2  0
  6  8  1  0
  8  9  1  0
  8 33  1  0
  9 10  2  0
  9 23  1  0
 10 11  1  0
 10 34  1  0
 11 12  2  0
 11 35  1  0
 12 13  1  0
 12 22  1  0
 13 14  1  0
 14 15  1  0
 14 36  1  0
 14 37  1  0
 15 16  1  0
 15 38  1  0
 15 39  1  0
 16 17  1  0
 16 21  1  0
 17 18  1  0
 17 40  1  0
 17 41  1  0
 18 19  1  0
 18 42  1  0
 18 43  1  0
 19 20  1  0
 19 44  1  0
 19 45  1  0
 20 21  1  0
 20 46  1  0
 20 47  1  0
 21 48  1  0
 21 49  1  0
 22 23  2  0
 22 50  1  0
 23 51  1  0
M  END

