
     RDKit          3D

 30 30  0  0  0  0  0  0  0  0999 V2000
    1.3890   -0.5676    0.7522 C   0  0  0  0  0  0  0  0  0  0  0  0
    2.5953    0.0225    0.0089 C   0  0  1  0  0  0  0  0  0  0  0  0
    3.9027   -0.0794    0.8065 C   0  0  0  0  0  0  0  0  0  0  0  0
    3.8822    0.9575    2.4909 Br  0  0  0  0  0  0  0  0  0  0  0  0
    2.8183   -0.6134   -1.3603 C   0  0  0  0  0  0  0  0  0  0  0  0
    2.8970    0.1810   -2.5126 C   0  0  0  0  0  0  0  0  0  0  0  0
    3.1148   -0.3874   -3.7706 C   0  0  0  0  0  0  0  0  0  0  0  0
    3.2699   -1.7710   -3.9244 C   0  0  0  0  0  0  0  0  0  0  0  0
    3.5232   -2.3785   -5.2974 C   0  0  1  0  0  0  0  0  0  0  0  0
    4.8921   -3.0859   -5.3696 C   0  0  0  0  0  0  0  0  0  0  0  0
    2.4308   -3.3570   -5.7407 C   0  0  0  0  0  0  0  0  0  0  0  0
    0.6666   -2.5096   -5.9679 Br  0  0  0  0  0  0  0  0  0  0  0  0
    3.1964   -2.5675   -2.7701 C   0  0  0  0  0  0  0  0  0  0  0  0
    2.9738   -2.0016   -1.5142 C   0  0  0  0  0  0  0  0  0  0  0  0
    1.2270   -0.0448    1.7064 H   0  0  0  0  0  0  0  0  0  0  0  0
    1.5335   -1.6369    0.9768 H   0  0  0  0  0  0  0  0  0  0  0  0
    0.4765   -0.4722    0.1444 H   0  0  0  0  0  0  0  0  0  0  0  0
    2.4031    1.0952   -0.1583 H   0  0  0  0  0  0  0  0  0  0  0  0
    4.7497    0.3214    0.2370 H   0  0  0  0  0  0  0  0  0  0  0  0
    4.1269   -1.1131    1.1024 H   0  0  0  0  0  0  0  0  0  0  0  0
    2.7775    1.2651   -2.4274 H   0  0  0  0  0  0  0  0  0  0  0  0
    3.1581    0.2594   -4.6513 H   0  0  0  0  0  0  0  0  0  0  0  0
    3.5349   -1.5530   -6.0279 H   0  0  0  0  0  0  0  0  0  0  0  0
    4.9406   -3.9488   -4.6860 H   0  0  0  0  0  0  0  0  0  0  0  0
    5.6986   -2.3922   -5.0876 H   0  0  0  0  0  0  0  0  0  0  0  0
    5.0970   -3.4514   -6.3889 H   0  0  0  0  0  0  0  0  0  0  0  0
    2.2794   -4.1670   -5.0150 H   0  0  0  0  0  0  0  0  0  0  0  0
    2.6680   -3.7967   -6.7181 H   0  0  0  0  0  0  0  0  0  0  0  0
    3.3118   -3.6527   -2.8444 H   0  0  0  0  0  0  0  0  0  0  0  0
    2.9164   -2.6588   -0.6424 H   0  0  0  0  0  0  0  0  0  0  0  0
  1  2  1  0
  1 15  1  0
  1 16  1  0
  1 17  1  0
  2  3  1  0
  2  5  1  0
  2 18  1  6
  3  4  1  0
  3 19  1  0
  3 20  1  0
  5  6  2  0
  5 14  1  0
  6  7  1  0
  6 21  1  0
  7  8  2  0
  7 22  1  0
  8  9  1  0
  8 13  1  0
  9 10  1  0
  9 11  1  0
  9 23  1  6
 10 24  1  0
 10 25  1  0
 10 26  1  0
 11 12  1  0
 11 27  1  0
 11 28  1  0
 13 14  2  0
 13 29  1  0
 14 30  1  0
M  END

