
     RDKit          3D

 19 19  0  0  0  0  0  0  0  0999 V2000
    1.0560    0.0189    0.1587 C   0  0  0  0  0  0  0  0  0  0  0  0
    2.5528   -0.0533   -0.0139 C   0  0  0  0  0  0  0  0  0  0  0  0
    3.2896    1.1408   -0.0126 C   0  0  0  0  0  0  0  0  0  0  0  0
    4.6760    1.1413   -0.1793 C   0  0  0  0  0  0  0  0  0  0  0  0
    5.6207    2.7972   -0.1826 Br  0  0  0  0  0  0  0  0  0  0  0  0
    5.3753   -0.0542   -0.3401 C   0  0  0  0  0  0  0  0  0  0  0  0
    4.6564   -1.2489   -0.3227 C   0  0  0  0  0  0  0  0  0  0  0  0
    3.2573   -1.2739   -0.1701 C   0  0  0  0  0  0  0  0  0  0  0  0
    2.5837   -2.6113   -0.1972 C   0  0  0  0  0  0  0  0  0  0  0  0
    3.1294   -3.5249    0.6366 N   0  0  0  0  0  0  0  0  0  0  0  0
    1.3374   -2.9952   -1.2242 S   0  0  0  0  0  0  0  0  0  0  0  0
    0.7526    1.0221    0.4915 H   0  0  0  0  0  0  0  0  0  0  0  0
    0.6890   -0.7179    0.8892 H   0  0  0  0  0  0  0  0  0  0  0  0
    0.5456   -0.2101   -0.7891 H   0  0  0  0  0  0  0  0  0  0  0  0
    2.7661    2.0891    0.1218 H   0  0  0  0  0  0  0  0  0  0  0  0
    6.4575   -0.0552   -0.4777 H   0  0  0  0  0  0  0  0  0  0  0  0
    5.1943   -2.1902   -0.4598 H   0  0  0  0  0  0  0  0  0  0  0  0
    3.8193   -3.2639    1.3317 H   0  0  0  0  0  0  0  0  0  0  0  0
    2.7472   -4.4646    0.6426 H   0  0  0  0  0  0  0  0  0  0  0  0
  1  2  1  0
  1 12  1  0
  1 13  1  0
  1 14  1  0
  2  3  2  0
  2  8  1  0
  3  4  1  0
  3 15  1  0
  4  5  1  0
  4  6  2  0
  6  7  1  0
  6 16  1  0
  7  8  2  0
  7 17  1  0
  8  9  1  0
  9 10  1  0
  9 11  2  0
 10 18  1  0
 10 19  1  0
M  END

