
     RDKit          3D

 32 33  0  0  0  0  0  0  0  0999 V2000
    0.9636   -0.3819    0.3228 C   0  0  0  0  0  0  0  0  0  0  0  0
    2.4447   -0.0220    0.1350 C   0  0  1  0  0  0  0  0  0  0  0  0
    3.3196   -1.2423   -0.2133 C   0  0  0  0  0  0  0  0  0  0  0  0
    3.0991   -1.7117   -1.6508 C   0  0  0  0  0  0  0  0  0  0  0  0
    3.3237   -0.6189   -2.5936 N   0  0  0  0  0  0  0  0  0  0  0  0
    2.4963    0.5717   -2.3747 C   0  0  2  0  0  0  0  0  0  0  0  0
    2.9862    1.6549   -3.3701 C   0  0  1  0  0  0  0  0  0  0  0  0
    4.3953    1.7127   -3.3573 O   0  0  0  0  0  0  0  0  0  0  0  0
    2.4893    1.4398   -4.7987 C   0  0  0  0  0  0  0  0  0  0  0  0
    2.0342    2.5089   -5.5803 C   0  0  0  0  0  0  0  0  0  0  0  0
    1.6546    2.2269   -6.8928 C   0  0  0  0  0  0  0  0  0  0  0  0
    1.7121    0.9944   -7.4032 N   0  0  0  0  0  0  0  0  0  0  0  0
    2.1551    0.0427   -6.5812 C   0  0  0  0  0  0  0  0  0  0  0  0
    2.5428    0.2018   -5.3159 N   0  0  0  0  0  0  0  0  0  0  0  0
    2.6654    1.0700   -0.9298 C   0  0  0  0  0  0  0  0  0  0  0  0
    0.8388   -1.1335    1.1195 H   0  0  0  0  0  0  0  0  0  0  0  0
    0.5068   -0.7949   -0.5906 H   0  0  0  0  0  0  0  0  0  0  0  0
    0.3767    0.5064    0.6086 H   0  0  0  0  0  0  0  0  0  0  0  0
    2.8018    0.3822    1.0986 H   0  0  0  0  0  0  0  0  0  0  0  0
    3.1219   -2.0726    0.4856 H   0  0  0  0  0  0  0  0  0  0  0  0
    4.3817   -0.9663   -0.0966 H   0  0  0  0  0  0  0  0  0  0  0  0
    2.0784   -2.1421   -1.7497 H   0  0  0  0  0  0  0  0  0  0  0  0
    3.8028   -2.5255   -1.8916 H   0  0  0  0  0  0  0  0  0  0  0  0
    3.1749   -0.9308   -3.5553 H   0  0  0  0  0  0  0  0  0  0  0  0
    1.4202    0.3754   -2.5728 H   0  0  0  0  0  0  0  0  0  0  0  0
    2.6056    2.6362   -3.0369 H   0  0  0  0  0  0  0  0  0  0  0  0
    4.6614    0.7983   -3.1275 H   0  0  0  0  0  0  0  0  0  0  0  0
    1.9836    3.5234   -5.1793 H   0  0  0  0  0  0  0  0  0  0  0  0
    1.2912    3.0218   -7.5555 H   0  0  0  0  0  0  0  0  0  0  0  0
    2.2034   -0.9760   -6.9857 H   0  0  0  0  0  0  0  0  0  0  0  0
    1.9789    1.9162   -0.7566 H   0  0  0  0  0  0  0  0  0  0  0  0
    3.6906    1.4648   -0.8380 H   0  0  0  0  0  0  0  0  0  0  0  0
  1  2  1  0
  1 16  1  0
  1 17  1  0
  1 18  1  0
  2  3  1  0
  2 15  1  0
  2 19  1  1
  3  4  1  0
  3 20  1  0
  3 21  1  0
  4  5  1  0
  4 22  1  0
  4 23  1  0
  5  6  1  0
  5 24  1  0
  6  7  1  0
  6 15  1  0
  6 25  1  6
  7  8  1  0
  7  9  1  0
  7 26  1  1
  8 27  1  0
  9 10  2  0
  9 14  1  0
 10 11  1  0
 10 28  1  0
 11 12  2  0
 11 29  1  0
 12 13  1  0
 13 14  2  0
 13 30  1  0
 15 31  1  0
 15 32  1  0
M  END

