
     RDKit          3D

 49 54  0  0  0  0  0  0  0  0999 V2000
    1.1689   -0.6329   -0.8242 C   0  0  0  0  0  0  0  0  0  0  0  0
    2.6688   -0.2656   -0.8463 C   0  0  2  0  0  0  0  0  0  0  0  0
    3.4102   -1.0017    0.2910 C   0  0  0  0  0  0  0  0  0  0  0  0
    2.8707    1.2476   -0.7499 C   0  0  0  0  0  0  0  0  0  0  0  0
    2.5012    2.1140    0.2767 C   0  0  0  0  0  0  0  0  0  0  0  0
    2.7876    3.4814    0.1568 C   0  0  0  0  0  0  0  0  0  0  0  0
    3.4383    3.9742   -0.9818 C   0  0  0  0  0  0  0  0  0  0  0  0
    3.8120    3.1102   -2.0162 C   0  0  0  0  0  0  0  0  0  0  0  0
    3.5261    1.7452   -1.8971 C   0  0  0  0  0  0  0  0  0  0  0  0
    3.7959    0.6249   -2.8078 C   0  0  0  0  0  0  0  0  0  0  0  0
    4.4177    0.6180   -4.0582 C   0  0  0  0  0  0  0  0  0  0  0  0
    4.5360   -0.6206   -4.7008 C   0  0  0  0  0  0  0  0  0  0  0  0
    4.0325   -1.8204   -4.1211 C   0  0  0  0  0  0  0  0  0  0  0  0
    3.4100   -1.7854   -2.8606 C   0  0  0  0  0  0  0  0  0  0  0  0
    3.2983   -0.5644   -2.2095 C   0  0  0  0  0  0  0  0  0  0  0  0
    4.2974   -2.8838   -5.0682 C   0  0  0  0  0  0  0  0  0  0  0  0
    4.0557   -4.2659   -5.0650 C   0  0  0  0  0  0  0  0  0  0  0  0
    4.4638   -5.0307   -6.1569 C   0  0  0  0  0  0  0  0  0  0  0  0
    5.1170   -4.4280   -7.2485 C   0  0  0  0  0  0  0  0  0  0  0  0
    5.3696   -3.0555   -7.2779 C   0  0  0  0  0  0  0  0  0  0  0  0
    4.9477   -2.2889   -6.1843 C   0  0  0  0  0  0  0  0  0  0  0  0
    5.0889   -0.9180   -5.9511 N   0  0  0  0  0  0  0  0  0  0  0  0
    5.6945    0.0163   -6.8335 C   0  0  0  0  0  0  0  0  0  0  0  0
    5.1938    0.1867   -8.1334 C   0  0  0  0  0  0  0  0  0  0  0  0
    5.7978    1.0992   -9.0015 C   0  0  0  0  0  0  0  0  0  0  0  0
    6.8910    1.8605   -8.5767 C   0  0  0  0  0  0  0  0  0  0  0  0
    7.3852    1.6978   -7.2788 C   0  0  0  0  0  0  0  0  0  0  0  0
    6.7980    0.7738   -6.4113 C   0  0  0  0  0  0  0  0  0  0  0  0
    0.7106   -0.3538    0.1384 H   0  0  0  0  0  0  0  0  0  0  0  0
    1.0310   -1.7179   -0.9596 H   0  0  0  0  0  0  0  0  0  0  0  0
    0.6223   -0.1159   -1.6273 H   0  0  0  0  0  0  0  0  0  0  0  0
    2.9908   -0.7303    1.2734 H   0  0  0  0  0  0  0  0  0  0  0  0
    4.4815   -0.7499    0.2942 H   0  0  0  0  0  0  0  0  0  0  0  0
    3.3158   -2.0936    0.1756 H   0  0  0  0  0  0  0  0  0  0  0  0
    1.9923    1.7403    1.1697 H   0  0  0  0  0  0  0  0  0  0  0  0
    2.5010    4.1680    0.9577 H   0  0  0  0  0  0  0  0  0  0  0  0
    3.6553    5.0425   -1.0623 H   0  0  0  0  0  0  0  0  0  0  0  0
    4.3189    3.5001   -2.9028 H   0  0  0  0  0  0  0  0  0  0  0  0
    4.7911    1.5355   -4.5155 H   0  0  0  0  0  0  0  0  0  0  0  0
    3.0223   -2.7050   -2.4135 H   0  0  0  0  0  0  0  0  0  0  0  0
    3.5562   -4.7371   -4.2146 H   0  0  0  0  0  0  0  0  0  0  0  0
    4.2802   -6.1077   -6.1660 H   0  0  0  0  0  0  0  0  0  0  0  0
    5.4367   -5.0458   -8.0916 H   0  0  0  0  0  0  0  0  0  0  0  0
    5.8832   -2.5988   -8.1254 H   0  0  0  0  0  0  0  0  0  0  0  0
    4.3261   -0.3937   -8.4532 H   0  0  0  0  0  0  0  0  0  0  0  0
    5.4023    1.2245  -10.0126 H   0  0  0  0  0  0  0  0  0  0  0  0
    7.3569    2.5788   -9.2556 H   0  0  0  0  0  0  0  0  0  0  0  0
    8.2433    2.2845   -6.9412 H   0  0  0  0  0  0  0  0  0  0  0  0
    7.1947    0.6269   -5.4047 H   0  0  0  0  0  0  0  0  0  0  0  0
  2  1  1  6
  1 29  1  0
  1 30  1  0
  1 31  1  0
  2  3  1  0
  2  4  1  0
  2 15  1  0
  3 32  1  0
  3 33  1  0
  3 34  1  0
  4  5  2  0
  4  9  1  0
  5  6  1  0
  5 35  1  0
  6  7  2  0
  6 36  1  0
  7  8  1  0
  7 37  1  0
  8  9  2  0
  8 38  1  0
  9 10  1  0
 10 11  2  0
 10 15  1  0
 11 12  1  0
 11 39  1  0
 12 13  2  0
 12 22  1  0
 13 14  1  0
 13 16  1  0
 14 15  2  0
 14 40  1  0
 16 17  2  0
 16 21  1  0
 17 18  1  0
 17 41  1  0
 18 19  2  0
 18 42  1  0
 19 20  1  0
 19 43  1  0
 20 21  2  0
 20 44  1  0
 21 22  1  0
 22 23  1  0
 23 24  2  0
 23 28  1  0
 24 25  1  0
 24 45  1  0
 25 26  2  0
 25 46  1  0
 26 27  1  0
 26 47  1  0
 27 28  2  0
 27 48  1  0
 28 49  1  0
M  END

