
     RDKit          3D

 50 53  0  0  0  0  0  0  0  0999 V2000
    1.8200   -1.6442    0.7850 C   0  0  0  0  0  0  0  0  0  0  0  0
    2.2227   -0.1881    0.5345 C   0  0  1  0  0  0  0  0  0  0  0  0
    1.0921    0.6222   -0.0629 C   0  0  0  0  0  0  0  0  0  0  0  0
    0.0207    0.1248   -0.5822 N   0  0  0  0  0  0  0  0  0  0  0  0
   -0.8007    1.1061   -1.1075 C   0  0  0  0  0  0  0  0  0  0  0  0
   -2.0350    0.8846   -1.7414 C   0  0  0  0  0  0  0  0  0  0  0  0
   -2.7563    1.9757   -2.2168 C   0  0  0  0  0  0  0  0  0  0  0  0
   -2.2644    3.2869   -2.0680 C   0  0  0  0  0  0  0  0  0  0  0  0
   -1.0426    3.5301   -1.4415 C   0  0  0  0  0  0  0  0  0  0  0  0
   -0.3149    2.4329   -0.9649 C   0  0  0  0  0  0  0  0  0  0  0  0
    1.2280    2.3965   -0.1408 S   0  0  0  0  0  0  0  0  0  0  0  0
    2.7721    0.4762    1.7235 N   0  0  0  0  0  0  0  0  0  0  0  0
    1.9195    0.6130    2.8973 C   0  0  0  0  0  0  0  0  0  0  0  0
    4.1241    0.7473    1.7466 C   0  0  0  0  0  0  0  0  0  0  0  0
    4.8504    0.5294    0.7867 O   0  0  0  0  0  0  0  0  0  0  0  0
    4.6878    1.3345    3.0355 C   0  0  0  0  0  0  0  0  0  0  0  0
    6.1677    1.6963    2.8819 C   0  0  0  0  0  0  0  0  0  0  0  0
    6.7590    2.1502    4.1282 N   0  0  0  0  0  0  0  0  0  0  0  0
    6.5007    3.4170    4.6510 C   0  0  0  0  0  0  0  0  0  0  0  0
    5.7811    4.2714    4.1668 O   0  0  0  0  0  0  0  0  0  0  0  0
    7.2272    3.4970    5.8411 N   0  0  0  0  0  0  0  0  0  0  0  0
    7.2294    4.6677    6.6851 C   0  0  0  0  0  0  0  0  0  0  0  0
    7.9112    2.3082    6.0601 C   0  0  0  0  0  0  0  0  0  0  0  0
    8.7550    1.9034    7.0906 C   0  0  0  0  0  0  0  0  0  0  0  0
    9.2996    0.6112    7.0198 C   0  0  0  0  0  0  0  0  0  0  0  0
    9.0035   -0.2396    5.9484 C   0  0  0  0  0  0  0  0  0  0  0  0
    8.1527    0.1679    4.9081 C   0  0  0  0  0  0  0  0  0  0  0  0
    7.6111    1.4488    4.9756 C   0  0  0  0  0  0  0  0  0  0  0  0
    1.4633   -2.1006   -0.1481 H   0  0  0  0  0  0  0  0  0  0  0  0
    1.0036   -1.7232    1.5188 H   0  0  0  0  0  0  0  0  0  0  0  0
    2.6888   -2.2112    1.1515 H   0  0  0  0  0  0  0  0  0  0  0  0
    3.0536   -0.1744   -0.1889 H   0  0  0  0  0  0  0  0  0  0  0  0
   -2.4018   -0.1381   -1.8490 H   0  0  0  0  0  0  0  0  0  0  0  0
   -3.7166    1.8153   -2.7129 H   0  0  0  0  0  0  0  0  0  0  0  0
   -2.8477    4.1285   -2.4497 H   0  0  0  0  0  0  0  0  0  0  0  0
   -0.6656    4.5489   -1.3294 H   0  0  0  0  0  0  0  0  0  0  0  0
    0.8673    0.5739    2.5840 H   0  0  0  0  0  0  0  0  0  0  0  0
    2.0738    1.5810    3.3933 H   0  0  0  0  0  0  0  0  0  0  0  0
    2.0842   -0.1888    3.6390 H   0  0  0  0  0  0  0  0  0  0  0  0
    4.5556    0.6077    3.8564 H   0  0  0  0  0  0  0  0  0  0  0  0
    4.1275    2.2374    3.3264 H   0  0  0  0  0  0  0  0  0  0  0  0
    6.2729    2.4945    2.1332 H   0  0  0  0  0  0  0  0  0  0  0  0
    6.7387    0.8356    2.5112 H   0  0  0  0  0  0  0  0  0  0  0  0
    6.5858    5.4199    6.2097 H   0  0  0  0  0  0  0  0  0  0  0  0
    8.2467    5.0797    6.7926 H   0  0  0  0  0  0  0  0  0  0  0  0
    6.8344    4.4374    7.6888 H   0  0  0  0  0  0  0  0  0  0  0  0
    8.9868    2.5672    7.9258 H   0  0  0  0  0  0  0  0  0  0  0  0
    9.9650    0.2672    7.8150 H   0  0  0  0  0  0  0  0  0  0  0  0
    9.4407   -1.2403    5.9170 H   0  0  0  0  0  0  0  0  0  0  0  0
    7.9275   -0.5012    4.0756 H   0  0  0  0  0  0  0  0  0  0  0  0
  1  2  1  0
  1 29  1  0
  1 30  1  0
  1 31  1  0
  2  3  1  0
  2 12  1  0
  2 32  1  6
  3  4  2  0
  3 11  1  0
  4  5  1  0
  5  6  2  0
  5 10  1  0
  6  7  1  0
  6 33  1  0
  7  8  2  0
  7 34  1  0
  8  9  1  0
  8 35  1  0
  9 10  2  0
  9 36  1  0
 10 11  1  0
 12 13  1  0
 12 14  1  0
 13 37  1  0
 13 38  1  0
 13 39  1  0
 14 15  2  0
 14 16  1  0
 16 17  1  0
 16 40  1  0
 16 41  1  0
 17 18  1  0
 17 42  1  0
 17 43  1  0
 18 19  1  0
 18 28  1  0
 19 20  2  0
 19 21  1  0
 21 22  1  0
 21 23  1  0
 22 44  1  0
 22 45  1  0
 22 46  1  0
 23 24  1  0
 23 28  2  0
 24 25  2  0
 24 47  1  0
 25 26  1  0
 25 48  1  0
 26 27  2  0
 26 49  1  0
 27 28  1  0
 27 50  1  0
M  END

