
     RDKit          3D

 50 52  0  0  0  0  0  0  0  0999 V2000
    2.4879   -3.8806    2.5564 C   0  0  0  0  0  0  0  0  0  0  0  0
    2.4529   -2.4336    2.0676 C   0  0  0  0  0  0  0  0  0  0  0  0
    1.8807   -2.2667    0.7228 N   0  0  0  0  0  0  0  0  0  0  0  0
    0.8576   -1.4053    0.3878 C   0  0  0  0  0  0  0  0  0  0  0  0
    0.6424   -1.0471   -0.7536 O   0  0  0  0  0  0  0  0  0  0  0  0
   -0.0477   -0.8509    1.5042 C   0  0  0  0  0  0  0  0  0  0  0  0
   -0.4095   -1.7691    2.5435 O   0  0  0  0  0  0  0  0  0  0  0  0
   -1.1992   -2.8024    2.1795 C   0  0  0  0  0  0  0  0  0  0  0  0
   -1.6005   -2.9656    1.0535 O   0  0  0  0  0  0  0  0  0  0  0  0
   -1.5242   -3.7039    3.3265 C   0  0  0  0  0  0  0  0  0  0  0  0
   -1.6000   -3.2089    4.6356 C   0  0  0  0  0  0  0  0  0  0  0  0
   -1.9957   -4.0408    5.6851 C   0  0  0  0  0  0  0  0  0  0  0  0
   -2.3146   -5.3763    5.4290 C   0  0  0  0  0  0  0  0  0  0  0  0
   -2.2328   -5.8791    4.1265 C   0  0  0  0  0  0  0  0  0  0  0  0
   -1.8327   -5.0561    3.0662 C   0  0  0  0  0  0  0  0  0  0  0  0
   -1.5715   -5.6799    1.7078 C   0  0  0  0  0  0  0  0  0  0  0  0
   -0.4234   -5.7410    1.3046 O   0  0  0  0  0  0  0  0  0  0  0  0
   -2.7094   -6.2751    0.9459 C   0  0  0  0  0  0  0  0  0  0  0  0
   -2.4169   -7.0806   -0.1695 C   0  0  0  0  0  0  0  0  0  0  0  0
   -3.4464   -7.6418   -0.9215 C   0  0  0  0  0  0  0  0  0  0  0  0
   -4.7811   -7.3959   -0.5742 C   0  0  0  0  0  0  0  0  0  0  0  0
   -5.0816   -6.5881    0.5266 C   0  0  0  0  0  0  0  0  0  0  0  0
   -4.0506   -6.0315    1.2868 C   0  0  0  0  0  0  0  0  0  0  0  0
    2.5943   -2.8781   -0.3659 C   0  0  0  0  0  0  0  0  0  0  0  0
    3.7104   -2.2479   -0.9297 C   0  0  0  0  0  0  0  0  0  0  0  0
    4.4117   -2.8520   -1.9746 C   0  0  0  0  0  0  0  0  0  0  0  0
    3.9770   -4.0886   -2.4475 C   0  0  0  0  0  0  0  0  0  0  0  0
    4.6467   -4.6744   -3.4522 F   0  0  0  0  0  0  0  0  0  0  0  0
    2.8671   -4.7322   -1.9050 C   0  0  0  0  0  0  0  0  0  0  0  0
    2.1740   -4.1208   -0.8578 C   0  0  0  0  0  0  0  0  0  0  0  0
    2.8655   -3.9131    3.5910 H   0  0  0  0  0  0  0  0  0  0  0  0
    3.1562   -4.4977    1.9369 H   0  0  0  0  0  0  0  0  0  0  0  0
    1.4904   -4.3434    2.5284 H   0  0  0  0  0  0  0  0  0  0  0  0
    3.4798   -2.0227    2.0588 H   0  0  0  0  0  0  0  0  0  0  0  0
    1.8754   -1.8218    2.7699 H   0  0  0  0  0  0  0  0  0  0  0  0
   -0.9435   -0.4847    0.9867 H   0  0  0  0  0  0  0  0  0  0  0  0
    0.4458   -0.0138    2.0193 H   0  0  0  0  0  0  0  0  0  0  0  0
   -1.3588   -2.1609    4.8201 H   0  0  0  0  0  0  0  0  0  0  0  0
   -2.0590   -3.6445    6.7013 H   0  0  0  0  0  0  0  0  0  0  0  0
   -2.6235   -6.0339    6.2454 H   0  0  0  0  0  0  0  0  0  0  0  0
   -2.4658   -6.9293    3.9334 H   0  0  0  0  0  0  0  0  0  0  0  0
   -1.3697   -7.2503   -0.4264 H   0  0  0  0  0  0  0  0  0  0  0  0
   -3.2129   -8.2702   -1.7846 H   0  0  0  0  0  0  0  0  0  0  0  0
   -5.5890   -7.8329   -1.1670 H   0  0  0  0  0  0  0  0  0  0  0  0
   -6.1227   -6.3879    0.7915 H   0  0  0  0  0  0  0  0  0  0  0  0
   -4.2882   -5.3919    2.1390 H   0  0  0  0  0  0  0  0  0  0  0  0
    4.0246   -1.2714   -0.5546 H   0  0  0  0  0  0  0  0  0  0  0  0
    5.2814   -2.3772   -2.4327 H   0  0  0  0  0  0  0  0  0  0  0  0
    2.5590   -5.6997   -2.3057 H   0  0  0  0  0  0  0  0  0  0  0  0
    1.3023   -4.6063   -0.4132 H   0  0  0  0  0  0  0  0  0  0  0  0
  1  2  1  0
  1 31  1  0
  1 32  1  0
  1 33  1  0
  2  3  1  0
  2 34  1  0
  2 35  1  0
  3  4  1  0
  3 24  1  0
  4  5  2  0
  4  6  1  0
  6  7  1  0
  6 36  1  0
  6 37  1  0
  7  8  1  0
  8  9  2  0
  8 10  1  0
 10 11  2  0
 10 15  1  0
 11 12  1  0
 11 38  1  0
 12 13  2  0
 12 39  1  0
 13 14  1  0
 13 40  1  0
 14 15  2  0
 14 41  1  0
 15 16  1  0
 16 17  2  0
 16 18  1  0
 18 19  2  0
 18 23  1  0
 19 20  1  0
 19 42  1  0
 20 21  2  0
 20 43  1  0
 21 22  1  0
 21 44  1  0
 22 23  2  0
 22 45  1  0
 23 46  1  0
 24 25  2  0
 24 30  1  0
 25 26  1  0
 25 47  1  0
 26 27  2  0
 26 48  1  0
 27 28  1  0
 27 29  1  0
 29 30  2  0
 29 49  1  0
 30 50  1  0
M  END

