
     RDKit          3D

 36 38  0  0  0  0  0  0  0  0999 V2000
    9.4858    3.0347   -0.5347 C   0  0  0  0  0  0  0  0  0  0  0  0
    9.2055    2.2865    0.6289 O   0  0  0  0  0  0  0  0  0  0  0  0
    7.9223    1.9790    0.9271 C   0  0  0  0  0  0  0  0  0  0  0  0
    6.8086    2.3640    0.1680 C   0  0  0  0  0  0  0  0  0  0  0  0
    5.5243    1.9882    0.5754 C   0  0  0  0  0  0  0  0  0  0  0  0
    5.3250    1.2332    1.7321 C   0  0  0  0  0  0  0  0  0  0  0  0
    3.3324    0.7246    2.2635 I   0  0  0  0  0  0  0  0  0  0  0  0
    6.4438    0.8383    2.4941 C   0  0  0  0  0  0  0  0  0  0  0  0
    6.3043   -0.0701    4.0317 S   0  0  0  0  0  0  0  0  0  0  0  0
    6.2303   -1.7317    3.4247 C   0  0  0  0  0  0  0  0  0  0  0  0
    6.4525   -2.1188    2.1950 N   0  0  0  0  0  0  0  0  0  0  0  0
    6.2803   -3.4871    2.2299 C   0  0  0  0  0  0  0  0  0  0  0  0
    6.3617   -4.5062    1.2777 C   0  0  0  0  0  0  0  0  0  0  0  0
    6.1348   -5.7733    1.6400 N   0  0  0  0  0  0  0  0  0  0  0  0
    5.8310   -6.0349    2.9185 C   0  0  0  0  0  0  0  0  0  0  0  0
    5.7232   -5.1556    3.9232 N   0  0  0  0  0  0  0  0  0  0  0  0
    5.9512   -3.9090    3.5416 C   0  0  0  0  0  0  0  0  0  0  0  0
    5.9147   -2.7587    4.3052 N   0  0  0  0  0  0  0  0  0  0  0  0
    5.6132   -2.6876    5.7278 C   0  0  0  0  0  0  0  0  0  0  0  0
    6.8611   -2.7678    6.6172 C   0  0  0  0  0  0  0  0  0  0  0  0
    6.4666   -2.6720    8.0146 N   0  0  0  0  0  0  0  0  0  0  0  0
    7.7249    1.2163    2.0900 C   0  0  0  0  0  0  0  0  0  0  0  0
   10.5767    3.1524   -0.5743 H   0  0  0  0  0  0  0  0  0  0  0  0
    9.0190    4.0356   -0.5012 H   0  0  0  0  0  0  0  0  0  0  0  0
    9.1485    2.5131   -1.4482 H   0  0  0  0  0  0  0  0  0  0  0  0
    6.9200    2.9556   -0.7407 H   0  0  0  0  0  0  0  0  0  0  0  0
    4.6670    2.2963   -0.0254 H   0  0  0  0  0  0  0  0  0  0  0  0
    6.6080   -4.3024    0.2294 H   0  0  0  0  0  0  0  0  0  0  0  0
    5.6511   -7.0860    3.1716 H   0  0  0  0  0  0  0  0  0  0  0  0
    4.9434   -3.5248    5.9687 H   0  0  0  0  0  0  0  0  0  0  0  0
    5.0634   -1.7512    5.9170 H   0  0  0  0  0  0  0  0  0  0  0  0
    7.5901   -1.9986    6.2836 H   0  0  0  0  0  0  0  0  0  0  0  0
    7.3372   -3.7475    6.4501 H   0  0  0  0  0  0  0  0  0  0  0  0
    6.2566   -1.7060    8.2681 H   0  0  0  0  0  0  0  0  0  0  0  0
    7.2230   -2.9726    8.6270 H   0  0  0  0  0  0  0  0  0  0  0  0
    8.5971    0.9145    2.6708 H   0  0  0  0  0  0  0  0  0  0  0  0
  1  2  1  0
  1 23  1  0
  1 24  1  0
  1 25  1  0
  2  3  1  0
  3  4  2  0
  3 22  1  0
  4  5  1  0
  4 26  1  0
  5  6  2  0
  5 27  1  0
  6  7  1  0
  6  8  1  0
  8  9  1  0
  8 22  2  0
  9 10  1  0
 10 11  2  0
 10 18  1  0
 11 12  1  0
 12 13  2  0
 12 17  1  0
 13 14  1  0
 13 28  1  0
 14 15  2  0
 15 16  1  0
 15 29  1  0
 16 17  2  0
 17 18  1  0
 18 19  1  0
 19 20  1  0
 19 30  1  0
 19 31  1  0
 20 21  1  0
 20 32  1  0
 20 33  1  0
 21 34  1  0
 21 35  1  0
 22 36  1  0
M  END

