
     RDKit          3D

 53 56  0  0  0  0  0  0  0  0999 V2000
    1.4111    0.1974    1.4403 C   0  0  0  0  0  0  0  0  0  0  0  0
    2.7637    0.1805    0.8903 N   0  0  0  0  0  0  0  0  0  0  0  0
    3.3838   -1.0598    0.6573 C   0  0  0  0  0  0  0  0  0  0  0  0
    2.8238   -2.1079    0.9005 O   0  0  0  0  0  0  0  0  0  0  0  0
    4.6788   -1.0138    0.1268 N   0  0  0  0  0  0  0  0  0  0  0  0
    5.3350   -2.3042   -0.0796 C   0  0  0  0  0  0  0  0  0  0  0  0
    5.0216   -2.9773   -1.4081 C   0  0  0  0  0  0  0  0  0  0  0  0
    4.3095   -2.3144   -2.4128 C   0  0  0  0  0  0  0  0  0  0  0  0
    4.0362   -2.9202   -3.6396 C   0  0  0  0  0  0  0  0  0  0  0  0
    4.4806   -4.2194   -3.8876 C   0  0  0  0  0  0  0  0  0  0  0  0
    4.2396   -4.8697   -5.2276 C   0  0  1  0  0  0  0  0  0  0  0  0
    3.1221   -4.4039   -5.8118 F   0  0  0  0  0  0  0  0  0  0  0  0
    5.2554   -4.6362   -6.0801 F   0  0  0  0  0  0  0  0  0  0  0  0
    4.1178   -6.2037   -5.1190 F   0  0  0  0  0  0  0  0  0  0  0  0
    5.1943   -4.9023   -2.8993 C   0  0  0  0  0  0  0  0  0  0  0  0
    5.4662   -4.2931   -1.6729 C   0  0  0  0  0  0  0  0  0  0  0  0
    6.2425   -5.0775   -0.6350 C   0  0  1  0  0  0  0  0  0  0  0  0
    5.5164   -5.2875    0.4816 F   0  0  0  0  0  0  0  0  0  0  0  0
    6.6211   -6.2807   -1.0890 F   0  0  0  0  0  0  0  0  0  0  0  0
    7.3609   -4.4277   -0.2543 F   0  0  0  0  0  0  0  0  0  0  0  0
    5.4334    0.1553   -0.1681 C   0  0  0  0  0  0  0  0  0  0  0  0
    6.5639    0.0790   -0.6050 O   0  0  0  0  0  0  0  0  0  0  0  0
    4.7132    1.3927    0.1003 C   0  0  0  0  0  0  0  0  0  0  0  0
    5.1738    2.7241   -0.0970 C   0  0  0  0  0  0  0  0  0  0  0  0
    4.2393    3.6625    0.2622 C   0  0  0  0  0  0  0  0  0  0  0  0
    4.2953    5.1320    0.2235 C   0  0  0  0  0  0  0  0  0  0  0  0
    3.3808    5.8455    0.5785 O   0  0  0  0  0  0  0  0  0  0  0  0
    5.4707    5.5700   -0.2553 O   0  0  0  0  0  0  0  0  0  0  0  0
    5.6713    7.0029   -0.3333 C   0  0  0  0  0  0  0  0  0  0  0  0
    6.2943    7.5572    0.9246 C   0  0  0  0  0  0  0  0  0  0  0  0
    7.6901    7.6177    1.0559 C   0  0  0  0  0  0  0  0  0  0  0  0
    8.2749    8.1133    2.2240 C   0  0  0  0  0  0  0  0  0  0  0  0
    7.4671    8.5549    3.2764 C   0  0  0  0  0  0  0  0  0  0  0  0
    6.0750    8.4984    3.1553 C   0  0  0  0  0  0  0  0  0  0  0  0
    5.4909    8.0021    1.9872 C   0  0  0  0  0  0  0  0  0  0  0  0
    2.7532    2.9292    0.8602 S   0  0  0  0  0  0  0  0  0  0  0  0
    3.4225    1.3484    0.6136 C   0  0  0  0  0  0  0  0  0  0  0  0
    1.0899   -0.8404    1.5767 H   0  0  0  0  0  0  0  0  0  0  0  0
    0.7243    0.7105    0.7483 H   0  0  0  0  0  0  0  0  0  0  0  0
    1.4000    0.7191    2.4106 H   0  0  0  0  0  0  0  0  0  0  0  0
    5.0422   -2.9679    0.7420 H   0  0  0  0  0  0  0  0  0  0  0  0
    6.4153   -2.1202   -0.0214 H   0  0  0  0  0  0  0  0  0  0  0  0
    3.9551   -1.2983   -2.2352 H   0  0  0  0  0  0  0  0  0  0  0  0
    3.4716   -2.3805   -4.4019 H   0  0  0  0  0  0  0  0  0  0  0  0
    5.5368   -5.9204   -3.0821 H   0  0  0  0  0  0  0  0  0  0  0  0
    6.1597    2.9723   -0.4880 H   0  0  0  0  0  0  0  0  0  0  0  0
    4.7043    7.4801   -0.5413 H   0  0  0  0  0  0  0  0  0  0  0  0
    6.3408    7.1366   -1.1934 H   0  0  0  0  0  0  0  0  0  0  0  0
    8.3249    7.2759    0.2332 H   0  0  0  0  0  0  0  0  0  0  0  0
    9.3635    8.1576    2.3120 H   0  0  0  0  0  0  0  0  0  0  0  0
    7.9228    8.9454    4.1900 H   0  0  0  0  0  0  0  0  0  0  0  0
    5.4400    8.8443    3.9751 H   0  0  0  0  0  0  0  0  0  0  0  0
    4.4039    7.9458    1.8941 H   0  0  0  0  0  0  0  0  0  0  0  0
  1  2  1  0
  1 38  1  0
  1 39  1  0
  1 40  1  0
  2  3  1  0
  2 37  1  0
  3  4  2  0
  3  5  1  0
  5  6  1  0
  5 21  1  0
  6  7  1  0
  6 41  1  0
  6 42  1  0
  7  8  2  0
  7 16  1  0
  8  9  1  0
  8 43  1  0
  9 10  2  0
  9 44  1  0
 10 11  1  0
 10 15  1  0
 11 12  1  6
 11 13  1  0
 11 14  1  0
 15 16  2  0
 15 45  1  0
 16 17  1  0
 17 18  1  1
 17 19  1  0
 17 20  1  0
 21 22  2  0
 21 23  1  0
 23 24  1  0
 23 37  2  0
 24 25  2  0
 24 46  1  0
 25 26  1  0
 25 36  1  0
 26 27  2  0
 26 28  1  0
 28 29  1  0
 29 30  1  0
 29 47  1  0
 29 48  1  0
 30 31  2  0
 30 35  1  0
 31 32  1  0
 31 49  1  0
 32 33  2  0
 32 50  1  0
 33 34  1  0
 33 51  1  0
 34 35  2  0
 34 52  1  0
 35 53  1  0
 36 37  1  0
M  END

