
     RDKit          3D

 40 41  0  0  0  0  0  0  0  0999 V2000
    8.0597   -2.7956    0.4425 C   0  0  0  0  0  0  0  0  0  0  0  0
    7.6313   -1.5926   -0.2021 O   0  0  0  0  0  0  0  0  0  0  0  0
    6.4731   -1.0643    0.2157 C   0  0  0  0  0  0  0  0  0  0  0  0
    5.8017   -1.5400    1.1010 O   0  0  0  0  0  0  0  0  0  0  0  0
    6.1186    0.1774   -0.5967 C   0  0  1  0  0  0  0  0  0  0  0  0
    5.5598   -0.1989   -1.9859 C   0  0  0  0  0  0  0  0  0  0  0  0
    4.7385    1.0423   -2.3541 C   0  0  0  0  0  0  0  0  0  0  0  0
    4.1390    1.4891   -1.0102 C   0  0  0  0  0  0  0  0  0  0  0  0
    5.0442    0.9391    0.0087 N   0  0  0  0  0  0  0  0  0  0  0  0
    5.3136    1.7458    1.1746 C   0  0  0  0  0  0  0  0  0  0  0  0
    4.2274    1.6902    2.2662 C   0  0  0  0  0  0  0  0  0  0  0  0
    4.0529    2.6359    3.0137 O   0  0  0  0  0  0  0  0  0  0  0  0
    3.5605    0.4944    2.3045 N   0  0  0  0  0  0  0  0  0  0  0  0
    2.5593    0.0677    3.1942 C   0  0  0  0  0  0  0  0  0  0  0  0
    2.1078    0.8887    4.2428 C   0  0  0  0  0  0  0  0  0  0  0  0
    1.1126    0.4199    5.0999 C   0  0  0  0  0  0  0  0  0  0  0  0
    0.5597    1.4537    6.4036 Cl  0  0  0  0  0  0  0  0  0  0  0  0
    0.5512   -0.8469    4.9445 C   0  0  0  0  0  0  0  0  0  0  0  0
    1.0094   -1.6481    3.8962 C   0  0  0  0  0  0  0  0  0  0  0  0
    2.0035   -1.2248    3.0074 C   0  0  0  0  0  0  0  0  0  0  0  0
    2.4578   -2.1181    1.8792 C   0  0  0  0  0  0  0  0  0  0  0  0
    9.0128   -3.0700   -0.0253 H   0  0  0  0  0  0  0  0  0  0  0  0
    7.3197   -3.5979    0.3025 H   0  0  0  0  0  0  0  0  0  0  0  0
    8.1962   -2.6305    1.5216 H   0  0  0  0  0  0  0  0  0  0  0  0
    7.0563    0.7597   -0.7256 H   0  0  0  0  0  0  0  0  0  0  0  0
    4.9049   -1.0810   -1.8925 H   0  0  0  0  0  0  0  0  0  0  0  0
    6.3564   -0.4398   -2.7035 H   0  0  0  0  0  0  0  0  0  0  0  0
    3.9751    0.8421   -3.1206 H   0  0  0  0  0  0  0  0  0  0  0  0
    5.4074    1.8245   -2.7486 H   0  0  0  0  0  0  0  0  0  0  0  0
    3.1096    1.1079   -0.8742 H   0  0  0  0  0  0  0  0  0  0  0  0
    4.0808    2.5904   -0.9338 H   0  0  0  0  0  0  0  0  0  0  0  0
    5.4521    2.8207    0.9441 H   0  0  0  0  0  0  0  0  0  0  0  0
    6.2470    1.4022    1.6520 H   0  0  0  0  0  0  0  0  0  0  0  0
    3.8996   -0.1760    1.6154 H   0  0  0  0  0  0  0  0  0  0  0  0
    2.5391    1.8776    4.3727 H   0  0  0  0  0  0  0  0  0  0  0  0
   -0.2255   -1.1956    5.6261 H   0  0  0  0  0  0  0  0  0  0  0  0
    0.5755   -2.6430    3.7616 H   0  0  0  0  0  0  0  0  0  0  0  0
    1.9352   -3.0846    1.9140 H   0  0  0  0  0  0  0  0  0  0  0  0
    3.5414   -2.3180    1.9127 H   0  0  0  0  0  0  0  0  0  0  0  0
    2.2487   -1.6670    0.8924 H   0  0  0  0  0  0  0  0  0  0  0  0
  1  2  1  0
  1 22  1  0
  1 23  1  0
  1 24  1  0
  2  3  1  0
  3  4  2  0
  3  5  1  0
  5  6  1  0
  5  9  1  0
  5 25  1  6
  6  7  1  0
  6 26  1  0
  6 27  1  0
  7  8  1  0
  7 28  1  0
  7 29  1  0
  8  9  1  0
  8 30  1  0
  8 31  1  0
  9 10  1  0
 10 11  1  0
 10 32  1  0
 10 33  1  0
 11 12  2  0
 11 13  1  0
 13 14  1  0
 13 34  1  0
 14 15  2  0
 14 20  1  0
 15 16  1  0
 15 35  1  0
 16 17  1  0
 16 18  2  0
 18 19  1  0
 18 36  1  0
 19 20  2  0
 19 37  1  0
 20 21  1  0
 21 38  1  0
 21 39  1  0
 21 40  1  0
M  END

