
     RDKit          3D

 55 57  0  0  0  0  0  0  0  0999 V2000
    1.1577   -0.4980    0.4858 C   0  0  0  0  0  0  0  0  0  0  0  0
    2.4472   -0.6974   -0.3220 C   0  0  1  0  0  0  0  0  0  0  0  0
    2.1794   -1.4578   -1.6302 C   0  0  0  0  0  0  0  0  0  0  0  0
    1.4089   -0.6569   -2.5722 N   0  0  0  0  0  0  0  0  0  0  0  0
    0.9269   -1.4188   -3.7035 C   0  0  0  0  0  0  0  0  0  0  0  0
    2.1275    0.5432   -2.9726 C   0  0  0  0  0  0  0  0  0  0  0  0
    2.4945    1.4076   -1.7594 C   0  0  0  0  0  0  0  0  0  0  0  0
    3.1610    0.6588   -0.5901 C   0  0  2  0  0  0  0  0  0  0  0  0
    4.6339    0.5205   -0.7036 N   0  0  0  0  0  0  0  0  0  0  0  0
    5.2932    0.4104   -1.9943 C   0  0  0  0  0  0  0  0  0  0  0  0
    5.3103    0.4184    0.4905 C   0  0  0  0  0  0  0  0  0  0  0  0
    4.7194    0.4493    1.5648 O   0  0  0  0  0  0  0  0  0  0  0  0
    6.8318    0.2618    0.4531 C   0  0  0  0  0  0  0  0  0  0  0  0
    7.4162    0.2060    1.8603 C   0  0  0  0  0  0  0  0  0  0  0  0
    8.9232   -0.0294    1.8324 C   0  0  0  0  0  0  0  0  0  0  0  0
    9.5236   -0.1561    0.7800 O   0  0  0  0  0  0  0  0  0  0  0  0
    9.5787   -0.1033    3.0607 N   0  0  0  0  0  0  0  0  0  0  0  0
    8.9010    0.0501    4.3465 C   0  0  0  0  0  0  0  0  0  0  0  0
    9.5550    1.1151    5.2245 C   0  0  0  0  0  0  0  0  0  0  0  0
    8.9352    1.8046    6.0071 O   0  0  0  0  0  0  0  0  0  0  0  0
   10.9162    1.1835    5.0700 N   0  0  0  0  0  0  0  0  0  0  0  0
   11.6561    0.3637    4.2048 C   0  0  0  0  0  0  0  0  0  0  0  0
   13.0396    0.2160    4.3641 C   0  0  0  0  0  0  0  0  0  0  0  0
   13.7660   -0.5809    3.4798 C   0  0  0  0  0  0  0  0  0  0  0  0
   13.1070   -1.2474    2.4430 C   0  0  0  0  0  0  0  0  0  0  0  0
   11.7262   -1.1139    2.2821 C   0  0  0  0  0  0  0  0  0  0  0  0
   10.9861   -0.3028    3.1537 C   0  0  0  0  0  0  0  0  0  0  0  0
    0.7066   -1.4709    0.7401 H   0  0  0  0  0  0  0  0  0  0  0  0
    0.4065    0.0705   -0.0828 H   0  0  0  0  0  0  0  0  0  0  0  0
    1.3664    0.0313    1.4285 H   0  0  0  0  0  0  0  0  0  0  0  0
    3.1315   -1.3039    0.2913 H   0  0  0  0  0  0  0  0  0  0  0  0
    1.6094   -2.3751   -1.4070 H   0  0  0  0  0  0  0  0  0  0  0  0
    3.1443   -1.7959   -2.0800 H   0  0  0  0  0  0  0  0  0  0  0  0
    0.3242   -2.2736   -3.3575 H   0  0  0  0  0  0  0  0  0  0  0  0
    1.7460   -1.8216   -4.3458 H   0  0  0  0  0  0  0  0  0  0  0  0
    0.2853   -0.7890   -4.3410 H   0  0  0  0  0  0  0  0  0  0  0  0
    1.4813    1.1311   -3.6462 H   0  0  0  0  0  0  0  0  0  0  0  0
    3.0339    0.2841   -3.5685 H   0  0  0  0  0  0  0  0  0  0  0  0
    1.5596    1.8342   -1.3636 H   0  0  0  0  0  0  0  0  0  0  0  0
    3.1092    2.2673   -2.0720 H   0  0  0  0  0  0  0  0  0  0  0  0
    3.0253    1.2650    0.3147 H   0  0  0  0  0  0  0  0  0  0  0  0
    4.9361    1.1860   -2.6868 H   0  0  0  0  0  0  0  0  0  0  0  0
    5.1275   -0.5707   -2.4738 H   0  0  0  0  0  0  0  0  0  0  0  0
    6.3736    0.5522   -1.8894 H   0  0  0  0  0  0  0  0  0  0  0  0
    7.2947    1.0892   -0.1076 H   0  0  0  0  0  0  0  0  0  0  0  0
    7.1086   -0.6487   -0.1019 H   0  0  0  0  0  0  0  0  0  0  0  0
    6.9154   -0.5862    2.4393 H   0  0  0  0  0  0  0  0  0  0  0  0
    7.1803    1.1389    2.3969 H   0  0  0  0  0  0  0  0  0  0  0  0
    8.9130   -0.9056    4.9067 H   0  0  0  0  0  0  0  0  0  0  0  0
    7.8571    0.3427    4.2179 H   0  0  0  0  0  0  0  0  0  0  0  0
   11.4050    1.8198    5.6929 H   0  0  0  0  0  0  0  0  0  0  0  0
   13.5406    0.7365    5.1847 H   0  0  0  0  0  0  0  0  0  0  0  0
   14.8463   -0.6840    3.6061 H   0  0  0  0  0  0  0  0  0  0  0  0
   13.6686   -1.8783    1.7504 H   0  0  0  0  0  0  0  0  0  0  0  0
   11.2164   -1.6164    1.4639 H   0  0  0  0  0  0  0  0  0  0  0  0
  1  2  1  0
  1 28  1  0
  1 29  1  0
  1 30  1  0
  2  3  1  0
  2  8  1  0
  2 31  1  1
  3  4  1  0
  3 32  1  0
  3 33  1  0
  4  5  1  0
  4  6  1  0
  5 34  1  0
  5 35  1  0
  5 36  1  0
  6  7  1  0
  6 37  1  0
  6 38  1  0
  7  8  1  0
  7 39  1  0
  7 40  1  0
  8  9  1  0
  8 41  1  1
  9 10  1  0
  9 11  1  0
 10 42  1  0
 10 43  1  0
 10 44  1  0
 11 12  2  0
 11 13  1  0
 13 14  1  0
 13 45  1  0
 13 46  1  0
 14 15  1  0
 14 47  1  0
 14 48  1  0
 15 16  2  0
 15 17  1  0
 17 18  1  0
 17 27  1  0
 18 19  1  0
 18 49  1  0
 18 50  1  0
 19 20  2  0
 19 21  1  0
 21 22  1  0
 21 51  1  0
 22 23  2  0
 22 27  1  0
 23 24  1  0
 23 52  1  0
 24 25  2  0
 24 53  1  0
 25 26  1  0
 25 54  1  0
 26 27  2  0
 26 55  1  0
M  END

