
     RDKit          3D

 50 53  0  0  0  0  0  0  0  0999 V2000
   11.3981   -1.6561    0.5688 C   0  0  0  0  0  0  0  0  0  0  0  0
   11.8975   -3.0605    0.2253 C   0  0  0  0  0  0  0  0  0  0  0  0
   11.4755   -4.0839    1.1730 N   0  0  0  0  0  0  0  0  0  0  0  0
   10.2870   -4.7311    1.1060 C   0  0  0  0  0  0  0  0  0  0  0  0
    9.4820   -4.4581    0.0869 N   0  0  0  0  0  0  0  0  0  0  0  0
    8.3068   -5.1146    0.0260 C   0  0  0  0  0  0  0  0  0  0  0  0
    7.3398   -4.6355   -1.4012 S   0  0  0  0  0  0  0  0  0  0  0  0
    5.8456   -5.6933   -1.2053 C   0  0  1  0  0  0  0  0  0  0  0  0
    4.7060   -5.1056   -2.0479 C   0  0  0  0  0  0  0  0  0  0  0  0
    6.0199   -7.1941   -1.5231 C   0  0  0  0  0  0  0  0  0  0  0  0
    5.1404   -7.9659   -1.1853 O   0  0  0  0  0  0  0  0  0  0  0  0
    7.1466   -7.5337   -2.2231 N   0  0  0  0  0  0  0  0  0  0  0  0
    7.5653   -8.7957   -2.6721 C   0  0  0  0  0  0  0  0  0  0  0  0
    6.7833   -9.9355   -2.5349 C   0  0  0  0  0  0  0  0  0  0  0  0
    7.2435  -11.1827   -3.0178 C   0  0  0  0  0  0  0  0  0  0  0  0
    8.4671  -11.3096   -3.6363 C   0  0  0  0  0  0  0  0  0  0  0  0
    9.3009  -10.1696   -3.7919 C   0  0  0  0  0  0  0  0  0  0  0  0
   10.5063  -10.3356   -4.4055 N   0  0  0  0  0  0  0  0  0  0  0  0
   11.2938   -9.2945   -4.5493 C   0  0  0  0  0  0  0  0  0  0  0  0
   10.9643   -7.9933   -4.0943 C   0  0  0  0  0  0  0  0  0  0  0  0
    9.7501   -7.7983   -3.4717 C   0  0  0  0  0  0  0  0  0  0  0  0
    8.8582   -8.8918   -3.3013 C   0  0  0  0  0  0  0  0  0  0  0  0
    7.8343   -6.0041    0.8581 N   0  0  0  0  0  0  0  0  0  0  0  0
    8.6326   -6.3211    1.9228 C   0  0  0  0  0  0  0  0  0  0  0  0
    8.1876   -7.2863    2.8624 C   0  0  0  0  0  0  0  0  0  0  0  0
    8.9787   -7.6296    3.9423 C   0  0  0  0  0  0  0  0  0  0  0  0
   10.2437   -7.0276    4.1275 C   0  0  0  0  0  0  0  0  0  0  0  0
   10.6991   -6.0834    3.2234 C   0  0  0  0  0  0  0  0  0  0  0  0
    9.9074   -5.7095    2.1124 C   0  0  0  0  0  0  0  0  0  0  0  0
   11.7676   -0.9279   -0.1709 H   0  0  0  0  0  0  0  0  0  0  0  0
   11.7472   -1.3357    1.5641 H   0  0  0  0  0  0  0  0  0  0  0  0
   10.2983   -1.6256    0.5589 H   0  0  0  0  0  0  0  0  0  0  0  0
   12.9990   -3.0802    0.1881 H   0  0  0  0  0  0  0  0  0  0  0  0
   11.5260   -3.3554   -0.7659 H   0  0  0  0  0  0  0  0  0  0  0  0
   12.0448   -4.2281    1.9952 H   0  0  0  0  0  0  0  0  0  0  0  0
    5.5834   -5.6633   -0.1395 H   0  0  0  0  0  0  0  0  0  0  0  0
    4.9613   -5.0847   -3.1197 H   0  0  0  0  0  0  0  0  0  0  0  0
    4.4674   -4.0809   -1.7272 H   0  0  0  0  0  0  0  0  0  0  0  0
    3.8134   -5.7351   -1.9201 H   0  0  0  0  0  0  0  0  0  0  0  0
    7.7617   -6.7477   -2.4108 H   0  0  0  0  0  0  0  0  0  0  0  0
    5.8140   -9.8505   -2.0498 H   0  0  0  0  0  0  0  0  0  0  0  0
    6.6005  -12.0581   -2.8935 H   0  0  0  0  0  0  0  0  0  0  0  0
    8.8359  -12.2624   -4.0188 H   0  0  0  0  0  0  0  0  0  0  0  0
   12.2558   -9.4659   -5.0499 H   0  0  0  0  0  0  0  0  0  0  0  0
   11.6650   -7.1674   -4.2354 H   0  0  0  0  0  0  0  0  0  0  0  0
    9.5001   -6.7971   -3.1113 H   0  0  0  0  0  0  0  0  0  0  0  0
    7.2101   -7.7422    2.6950 H   0  0  0  0  0  0  0  0  0  0  0  0
    8.6265   -8.3759    4.6590 H   0  0  0  0  0  0  0  0  0  0  0  0
   10.8629   -7.3100    4.9819 H   0  0  0  0  0  0  0  0  0  0  0  0
   11.6844   -5.6367    3.3819 H   0  0  0  0  0  0  0  0  0  0  0  0
  1  2  1  0
  1 30  1  0
  1 31  1  0
  1 32  1  0
  2  3  1  0
  2 33  1  0
  2 34  1  0
  3  4  1  0
  3 35  1  0
  4  5  2  0
  4 29  1  0
  5  6  1  0
  6  7  1  0
  6 23  2  0
  7  8  1  0
  8  9  1  0
  8 10  1  0
  8 36  1  1
  9 37  1  0
  9 38  1  0
  9 39  1  0
 10 11  2  0
 10 12  1  0
 12 13  1  0
 12 40  1  0
 13 14  2  0
 13 22  1  0
 14 15  1  0
 14 41  1  0
 15 16  2  0
 15 42  1  0
 16 17  1  0
 16 43  1  0
 17 18  1  0
 17 22  2  0
 18 19  2  0
 19 20  1  0
 19 44  1  0
 20 21  2  0
 20 45  1  0
 21 22  1  0
 21 46  1  0
 23 24  1  0
 24 25  1  0
 24 29  2  0
 25 26  2  0
 25 47  1  0
 26 27  1  0
 26 48  1  0
 27 28  2  0
 27 49  1  0
 28 29  1  0
 28 50  1  0
M  END

