
     RDKit          3D

 53 58  0  0  0  0  0  0  0  0999 V2000
    2.0528    2.0662    0.0939 C   0  0  0  0  0  0  0  0  0  0  0  0
    2.9882    0.8879    0.1231 C   0  0  0  0  0  0  0  0  0  0  0  0
    4.3475    1.0457    0.0066 C   0  0  0  0  0  0  0  0  0  0  0  0
    5.1404   -0.0788    0.0418 N   0  0  0  0  0  0  0  0  0  0  0  0
    6.4936   -0.2556   -0.0459 C   0  0  0  0  0  0  0  0  0  0  0  0
    6.6979   -1.6368    0.0561 C   0  0  0  0  0  0  0  0  0  0  0  0
    7.9651   -2.3713    0.0226 C   0  0  0  0  0  0  0  0  0  0  0  0
    7.9944   -3.7377    0.1365 C   0  0  0  0  0  0  0  0  0  0  0  0
    9.2189   -4.4689    0.1057 C   0  0  0  0  0  0  0  0  0  0  0  0
    9.3300   -5.8735    0.2140 C   0  0  0  0  0  0  0  0  0  0  0  0
   10.5567   -6.5090    0.1778 C   0  0  0  0  0  0  0  0  0  0  0  0
   11.7643   -5.7619    0.0272 C   0  0  0  0  0  0  0  0  0  0  0  0
   12.9868   -6.3870   -0.0051 N   0  0  0  0  0  0  0  0  0  0  0  0
   14.2262   -5.6620   -0.2840 C   0  0  0  0  0  0  0  0  0  0  0  0
   15.3183   -6.7269   -0.1602 C   0  0  0  0  0  0  0  0  0  0  0  0
   14.6266   -8.0370   -0.5806 C   0  0  1  0  0  0  0  0  0  0  0  0
   14.6758   -8.1537   -1.6736 H   0  0  0  0  0  0  0  0  0  0  0  0
   15.0931   -9.3231    0.1443 C   0  0  0  0  0  0  0  0  0  0  0  0
   13.8779   -9.8258    0.7854 N   0  0  0  0  0  0  0  0  0  0  0  0
   13.0720   -8.6769    1.1607 C   0  0  0  0  0  0  0  0  0  0  0  0
   13.1549   -7.8308   -0.1283 C   0  0  1  0  0  0  0  0  0  0  0  0
   12.4508   -8.2446   -0.8690 H   0  0  0  0  0  0  0  0  0  0  0  0
   11.6652   -4.3566   -0.0899 C   0  0  0  0  0  0  0  0  0  0  0  0
   10.4186   -3.7389   -0.0455 C   0  0  0  0  0  0  0  0  0  0  0  0
   10.3852   -2.3867   -0.1594 O   0  0  0  0  0  0  0  0  0  0  0  0
    9.2218   -1.6285   -0.1361 C   0  0  0  0  0  0  0  0  0  0  0  0
    9.3450   -0.4328   -0.2477 O   0  0  0  0  0  0  0  0  0  0  0  0
    5.5095   -2.2912    0.2018 N   0  0  0  0  0  0  0  0  0  0  0  0
    4.5731   -1.3507    0.1930 C   0  0  0  0  0  0  0  0  0  0  0  0
    3.1519   -1.4280    0.3075 C   0  0  0  0  0  0  0  0  0  0  0  0
    2.4949   -2.7706    0.4723 C   0  0  0  0  0  0  0  0  0  0  0  0
    2.4082   -0.3435    0.2717 N   0  0  0  0  0  0  0  0  0  0  0  0
    2.5891    3.0186   -0.0274 H   0  0  0  0  0  0  0  0  0  0  0  0
    1.4645    2.1079    1.0249 H   0  0  0  0  0  0  0  0  0  0  0  0
    1.3318    1.9590   -0.7327 H   0  0  0  0  0  0  0  0  0  0  0  0
    4.8492    2.0061   -0.1131 H   0  0  0  0  0  0  0  0  0  0  0  0
    7.1990    0.5584   -0.1686 H   0  0  0  0  0  0  0  0  0  0  0  0
    7.0448   -4.2661    0.2530 H   0  0  0  0  0  0  0  0  0  0  0  0
    8.4181   -6.4649    0.3314 H   0  0  0  0  0  0  0  0  0  0  0  0
   10.5964   -7.5928    0.2753 H   0  0  0  0  0  0  0  0  0  0  0  0
   14.3739   -4.8344    0.4288 H   0  0  0  0  0  0  0  0  0  0  0  0
   14.1999   -5.2145   -1.2980 H   0  0  0  0  0  0  0  0  0  0  0  0
   15.6517   -6.7982    0.8879 H   0  0  0  0  0  0  0  0  0  0  0  0
   16.2031   -6.4886   -0.7690 H   0  0  0  0  0  0  0  0  0  0  0  0
   15.8996   -9.0709    0.8659 H   0  0  0  0  0  0  0  0  0  0  0  0
   15.5053  -10.0739   -0.5498 H   0  0  0  0  0  0  0  0  0  0  0  0
   14.0529  -10.4774    1.5463 H   0  0  0  0  0  0  0  0  0  0  0  0
   13.4716   -8.0808    2.0121 H   0  0  0  0  0  0  0  0  0  0  0  0
   12.0466   -8.9826    1.4227 H   0  0  0  0  0  0  0  0  0  0  0  0
   12.5402   -3.7222   -0.2164 H   0  0  0  0  0  0  0  0  0  0  0  0
    3.2371   -3.5786    0.4738 H   0  0  0  0  0  0  0  0  0  0  0  0
    1.7731   -2.9376   -0.3429 H   0  0  0  0  0  0  0  0  0  0  0  0
    1.9253   -2.7964    1.4150 H   0  0  0  0  0  0  0  0  0  0  0  0
  1  2  1  0
  1 33  1  0
  1 34  1  0
  1 35  1  0
  2  3  2  0
  2 32  1  0
  3  4  1  0
  3 36  1  0
  4  5  1  0
  4 29  1  0
  5  6  2  0
  5 37  1  0
  6  7  1  0
  6 28  1  0
  7  8  2  0
  7 26  1  0
  8  9  1  0
  8 38  1  0
  9 10  2  0
  9 24  1  0
 10 11  1  0
 10 39  1  0
 11 12  2  0
 11 40  1  0
 12 13  1  0
 12 23  1  0
 13 14  1  0
 13 21  1  0
 14 15  1  0
 14 41  1  0
 14 42  1  0
 15 16  1  0
 15 43  1  0
 15 44  1  0
 16 17  1  6
 16 18  1  0
 16 21  1  0
 18 19  1  0
 18 45  1  0
 18 46  1  0
 19 20  1  0
 19 47  1  0
 20 21  1  0
 20 48  1  0
 20 49  1  0
 21 22  1  6
 23 24  2  0
 23 50  1  0
 24 25  1  0
 25 26  1  0
 26 27  2  0
 28 29  2  0
 29 30  1  0
 30 31  1  0
 30 32  2  0
 31 51  1  0
 31 52  1  0
 31 53  1  0
M  END

