
     RDKit          3D

 75 80  0  0  0  0  0  0  0  0999 V2000
    2.7357   -4.4250   -1.4351 C   0  0  0  0  0  0  0  0  0  0  0  0
    3.9021   -4.2223   -2.2738 N   0  0  0  0  0  0  0  0  0  0  0  0
    3.7302   -3.2548   -3.3563 C   0  0  0  0  0  0  0  0  0  0  0  0
    3.8819   -1.7934   -2.8927 C   0  0  0  0  0  0  0  0  0  0  0  0
    5.1383   -1.5574   -2.1713 N   0  0  0  0  0  0  0  0  0  0  0  0
    6.3061   -1.3504   -3.0186 C   0  0  0  0  0  0  0  0  0  0  0  0
    6.2875   -0.0088   -3.7245 C   0  0  0  0  0  0  0  0  0  0  0  0
    5.8809    1.1636   -3.0736 C   0  0  0  0  0  0  0  0  0  0  0  0
    5.9181    2.3878   -3.7349 C   0  0  0  0  0  0  0  0  0  0  0  0
    6.3678    2.4096   -5.0709 C   0  0  0  0  0  0  0  0  0  0  0  0
    6.4784    3.5500   -5.8629 N   0  0  0  0  0  0  0  0  0  0  0  0
    6.0535    4.8367   -5.7378 C   0  0  0  0  0  0  0  0  0  0  0  0
    5.2775    5.4302   -4.7664 C   0  0  0  0  0  0  0  0  0  0  0  0
    4.9595    6.8224   -4.8719 C   0  0  0  0  0  0  0  0  0  0  0  0
    4.1554    7.4873   -3.8000 C   0  0  0  0  0  0  0  0  0  0  0  0
    4.5050    7.2029   -2.4686 C   0  0  0  0  0  0  0  0  0  0  0  0
    3.8061    7.7735   -1.4091 C   0  0  0  0  0  0  0  0  0  0  0  0
    2.7334    8.6200   -1.6797 C   0  0  0  0  0  0  0  0  0  0  0  0
    2.3538    8.9202   -2.9965 C   0  0  0  0  0  0  0  0  0  0  0  0
    1.1472    9.8214   -3.1769 C   0  0  2  0  0  0  0  0  0  0  0  0
    0.0613    9.1062   -3.9680 N   0  0  0  0  0  0  0  0  0  0  0  0
   -0.9675    9.7228   -4.2423 N   0  0  0  0  0  0  0  0  0  0  0  0
   -1.0887   11.1461   -3.8012 C   0  0  0  0  0  0  0  0  0  0  0  0
    0.1812   11.9089   -4.0205 C   0  0  0  0  0  0  0  0  0  0  0  0
    0.2392   13.2052   -4.5456 C   0  0  0  0  0  0  0  0  0  0  0  0
    1.4781   13.8211   -4.7333 C   0  0  0  0  0  0  0  0  0  0  0  0
    2.6571   13.1312   -4.4266 C   0  0  0  0  0  0  0  0  0  0  0  0
    2.6056   11.8265   -3.9315 C   0  0  0  0  0  0  0  0  0  0  0  0
    1.3645   11.2159   -3.7169 C   0  0  0  0  0  0  0  0  0  0  0  0
    3.0686    8.3585   -4.0812 C   0  0  0  0  0  0  0  0  0  0  0  0
    2.7134    8.7023   -5.5233 C   0  0  0  0  0  0  0  0  0  0  0  0
    3.5938    9.6541   -6.0817 O   0  0  0  0  0  0  0  0  0  0  0  0
    5.3750    7.5576   -5.8760 N   0  0  0  0  0  0  0  0  0  0  0  0
    6.0944    6.9764   -6.8573 N   0  0  0  0  0  0  0  0  0  0  0  0
    6.4739    7.8651   -7.9524 C   0  0  0  0  0  0  0  0  0  0  0  0
    6.5072    5.6597   -6.8868 C   0  0  0  0  0  0  0  0  0  0  0  0
    7.1806    5.1900   -7.8004 O   0  0  0  0  0  0  0  0  0  0  0  0
    6.7646    1.2965   -5.6996 N   0  0  0  0  0  0  0  0  0  0  0  0
    6.7216    0.1371   -5.0487 C   0  0  0  0  0  0  0  0  0  0  0  0
    5.3067   -2.5268   -1.0862 C   0  0  0  0  0  0  0  0  0  0  0  0
    5.1522   -3.9861   -1.5551 C   0  0  0  0  0  0  0  0  0  0  0  0
    1.8769   -4.7151   -2.0625 H   0  0  0  0  0  0  0  0  0  0  0  0
    2.4163   -3.5485   -0.8280 H   0  0  0  0  0  0  0  0  0  0  0  0
    2.9255   -5.2540   -0.7336 H   0  0  0  0  0  0  0  0  0  0  0  0
    2.7440   -3.4072   -3.8257 H   0  0  0  0  0  0  0  0  0  0  0  0
    4.4851   -3.4724   -4.1349 H   0  0  0  0  0  0  0  0  0  0  0  0
    3.0464   -1.5306   -2.2188 H   0  0  0  0  0  0  0  0  0  0  0  0
    3.8220   -1.1049   -3.7509 H   0  0  0  0  0  0  0  0  0  0  0  0
    6.4696   -2.1438   -3.7799 H   0  0  0  0  0  0  0  0  0  0  0  0
    7.1931   -1.3876   -2.3608 H   0  0  0  0  0  0  0  0  0  0  0  0
    5.5274    1.1026   -2.0415 H   0  0  0  0  0  0  0  0  0  0  0  0
    5.6301    3.2946   -3.2095 H   0  0  0  0  0  0  0  0  0  0  0  0
    6.9596    3.3855   -6.7509 H   0  0  0  0  0  0  0  0  0  0  0  0
    4.8585    4.8694   -3.9364 H   0  0  0  0  0  0  0  0  0  0  0  0
    5.3526    6.5442   -2.2656 H   0  0  0  0  0  0  0  0  0  0  0  0
    4.0931    7.5569   -0.3774 H   0  0  0  0  0  0  0  0  0  0  0  0
    2.1702    9.0571   -0.8503 H   0  0  0  0  0  0  0  0  0  0  0  0
    0.6796    9.9330   -2.1791 H   0  0  0  0  0  0  0  0  0  0  0  0
   -1.3415   11.0932   -2.7230 H   0  0  0  0  0  0  0  0  0  0  0  0
   -1.9520   11.5841   -4.3197 H   0  0  0  0  0  0  0  0  0  0  0  0
   -0.6847   13.7322   -4.8001 H   0  0  0  0  0  0  0  0  0  0  0  0
    1.5265   14.8388   -5.1289 H   0  0  0  0  0  0  0  0  0  0  0  0
    3.6264   13.6093   -4.5874 H   0  0  0  0  0  0  0  0  0  0  0  0
    3.5270   11.2807   -3.7282 H   0  0  0  0  0  0  0  0  0  0  0  0
    1.7018    9.1184   -5.5788 H   0  0  0  0  0  0  0  0  0  0  0  0
    2.6935    7.7687   -6.1186 H   0  0  0  0  0  0  0  0  0  0  0  0
    4.4632    9.2100   -6.0875 H   0  0  0  0  0  0  0  0  0  0  0  0
    5.6303    8.5364   -8.1600 H   0  0  0  0  0  0  0  0  0  0  0  0
    6.7162    7.2549   -8.8293 H   0  0  0  0  0  0  0  0  0  0  0  0
    7.3570    8.4641   -7.6766 H   0  0  0  0  0  0  0  0  0  0  0  0
    7.0536   -0.7437   -5.6138 H   0  0  0  0  0  0  0  0  0  0  0  0
    4.5457   -2.3079   -0.3148 H   0  0  0  0  0  0  0  0  0  0  0  0
    6.2907   -2.3727   -0.6126 H   0  0  0  0  0  0  0  0  0  0  0  0
    5.2129   -4.6755   -0.6962 H   0  0  0  0  0  0  0  0  0  0  0  0
    5.9925   -4.2431   -2.2275 H   0  0  0  0  0  0  0  0  0  0  0  0
  1  2  1  0
  1 42  1  0
  1 43  1  0
  1 44  1  0
  2  3  1  0
  2 41  1  0
  3  4  1  0
  3 45  1  0
  3 46  1  0
  4  5  1  0
  4 47  1  0
  4 48  1  0
  5  6  1  0
  5 40  1  0
  6  7  1  0
  6 49  1  0
  6 50  1  0
  7  8  2  0
  7 39  1  0
  8  9  1  0
  8 51  1  0
  9 10  2  0
  9 52  1  0
 10 11  1  0
 10 38  1  0
 11 12  1  0
 11 53  1  0
 12 13  2  0
 12 36  1  0
 13 14  1  0
 13 54  1  0
 14 15  1  0
 14 33  2  0
 15 16  2  0
 15 30  1  0
 16 17  1  0
 16 55  1  0
 17 18  2  0
 17 56  1  0
 18 19  1  0
 18 57  1  0
 19 20  1  0
 19 30  2  0
 20 21  1  0
 20 29  1  0
 20 58  1  1
 21 22  2  0
 22 23  1  0
 23 24  1  0
 23 59  1  0
 23 60  1  0
 24 25  2  0
 24 29  1  0
 25 26  1  0
 25 61  1  0
 26 27  2  0
 26 62  1  0
 27 28  1  0
 27 63  1  0
 28 29  2  0
 28 64  1  0
 30 31  1  0
 31 32  1  0
 31 65  1  0
 31 66  1  0
 32 67  1  0
 33 34  1  0
 34 35  1  0
 34 36  1  0
 35 68  1  0
 35 69  1  0
 35 70  1  0
 36 37  2  0
 38 39  2  0
 39 71  1  0
 40 41  1  0
 40 72  1  0
 40 73  1  0
 41 74  1  0
 41 75  1  0
M  END

