
     RDKit          3D

 48 49  0  0  0  0  0  0  0  0999 V2000
    2.5234   -1.5805    0.6025 C   0  0  0  0  0  0  0  0  0  0  0  0
    2.4379   -0.5163   -0.4910 C   0  0  0  0  0  0  0  0  0  0  0  0
    3.2551   -0.8328   -1.7548 C   0  0  1  0  0  0  0  0  0  0  0  0
    3.0142    0.1900   -2.8708 C   0  0  0  0  0  0  0  0  0  0  0  0
    4.6820   -0.9359   -1.4451 N   0  0  0  0  0  0  0  0  0  0  0  0
    5.4567   -1.9972   -1.7870 C   0  0  0  0  0  0  0  0  0  0  0  0
    5.0276   -2.9910   -2.3602 O   0  0  0  0  0  0  0  0  0  0  0  0
    6.9420   -1.8879   -1.3866 C   0  0  1  0  0  0  0  0  0  0  0  0
    7.1345   -1.8447    0.1391 C   0  0  0  0  0  0  0  0  0  0  0  0
    7.6185   -3.0131   -1.9925 N   0  0  0  0  0  0  0  0  0  0  0  0
    8.9507   -2.9388   -2.3175 C   0  0  0  0  0  0  0  0  0  0  0  0
    9.6503   -1.9849   -2.0069 O   0  0  0  0  0  0  0  0  0  0  0  0
    9.4093   -4.0542   -3.0053 N   0  0  0  0  0  0  0  0  0  0  0  0
   10.7027   -4.3248   -3.4886 C   0  0  0  0  0  0  0  0  0  0  0  0
   11.7917   -3.4073   -3.3457 C   0  0  0  0  0  0  0  0  0  0  0  0
   13.0168   -3.6456   -3.7994 N   0  0  0  0  0  0  0  0  0  0  0  0
   13.1981   -4.8127   -4.4132 C   0  0  0  0  0  0  0  0  0  0  0  0
   12.2121   -5.8096   -4.6220 C   0  0  0  0  0  0  0  0  0  0  0  0
   10.9228   -5.5438   -4.1382 C   0  0  0  0  0  0  0  0  0  0  0  0
   12.9041   -6.8561   -5.3191 C   0  0  0  0  0  0  0  0  0  0  0  0
   12.3722   -8.1671   -5.8052 C   0  0  0  0  0  0  0  0  0  0  0  0
   14.1715   -6.5130   -5.5039 N   0  0  0  0  0  0  0  0  0  0  0  0
   14.3582   -5.2903   -4.9648 N   0  0  0  0  0  0  0  0  0  0  0  0
   15.6446   -4.6363   -5.0042 C   0  0  0  0  0  0  0  0  0  0  0  0
    1.9162   -1.3001    1.4774 H   0  0  0  0  0  0  0  0  0  0  0  0
    3.5598   -1.7230    0.9468 H   0  0  0  0  0  0  0  0  0  0  0  0
    2.1593   -2.5554    0.2394 H   0  0  0  0  0  0  0  0  0  0  0  0
    2.7605    0.4646   -0.0925 H   0  0  0  0  0  0  0  0  0  0  0  0
    1.3862   -0.3804   -0.7962 H   0  0  0  0  0  0  0  0  0  0  0  0
    2.9748   -1.8316   -2.1223 H   0  0  0  0  0  0  0  0  0  0  0  0
    3.3159    1.2035   -2.5551 H   0  0  0  0  0  0  0  0  0  0  0  0
    1.9473    0.2290   -3.1415 H   0  0  0  0  0  0  0  0  0  0  0  0
    3.5870   -0.0725   -3.7731 H   0  0  0  0  0  0  0  0  0  0  0  0
    5.1318   -0.1287   -1.0262 H   0  0  0  0  0  0  0  0  0  0  0  0
    7.3533   -0.9533   -1.8097 H   0  0  0  0  0  0  0  0  0  0  0  0
    6.7147   -2.7483    0.6079 H   0  0  0  0  0  0  0  0  0  0  0  0
    6.6541   -0.9613    0.5887 H   0  0  0  0  0  0  0  0  0  0  0  0
    8.2102   -1.7956    0.3597 H   0  0  0  0  0  0  0  0  0  0  0  0
    6.9812   -3.6755   -2.4323 H   0  0  0  0  0  0  0  0  0  0  0  0
    8.7374   -4.7973   -3.1563 H   0  0  0  0  0  0  0  0  0  0  0  0
   11.6121   -2.4609   -2.8359 H   0  0  0  0  0  0  0  0  0  0  0  0
   10.1080   -6.2642   -4.2625 H   0  0  0  0  0  0  0  0  0  0  0  0
   11.5488   -8.0290   -6.5265 H   0  0  0  0  0  0  0  0  0  0  0  0
   11.9794   -8.7788   -4.9751 H   0  0  0  0  0  0  0  0  0  0  0  0
   13.1744   -8.7314   -6.3005 H   0  0  0  0  0  0  0  0  0  0  0  0
   16.4037   -5.2390   -4.4811 H   0  0  0  0  0  0  0  0  0  0  0  0
   15.5394   -3.6644   -4.5045 H   0  0  0  0  0  0  0  0  0  0  0  0
   15.9708   -4.4817   -6.0448 H   0  0  0  0  0  0  0  0  0  0  0  0
  1  2  1  0
  1 25  1  0
  1 26  1  0
  1 27  1  0
  2  3  1  0
  2 28  1  0
  2 29  1  0
  3  4  1  0
  3  5  1  0
  3 30  1  6
  4 31  1  0
  4 32  1  0
  4 33  1  0
  5  6  1  0
  5 34  1  0
  6  7  2  0
  6  8  1  0
  8  9  1  0
  8 10  1  0
  8 35  1  6
  9 36  1  0
  9 37  1  0
  9 38  1  0
 10 11  1  0
 10 39  1  0
 11 12  2  0
 11 13  1  0
 13 14  1  0
 13 40  1  0
 14 15  2  0
 14 19  1  0
 15 16  1  0
 15 41  1  0
 16 17  2  0
 17 18  1  0
 17 23  1  0
 18 19  2  0
 18 20  1  0
 19 42  1  0
 20 21  1  0
 20 22  2  0
 21 43  1  0
 21 44  1  0
 21 45  1  0
 22 23  1  0
 23 24  1  0
 24 46  1  0
 24 47  1  0
 24 48  1  0
M  END

