
     RDKit          3D

 33 33  0  0  0  0  0  0  0  0999 V2000
    0.7845   -0.0143   -0.2191 C   0  0  0  0  0  0  0  0  0  0  0  0
    2.3100   -0.0319   -0.3198 C   0  0  0  0  0  0  0  0  0  0  0  0
    2.9385    1.3633   -0.2463 C   0  0  0  0  0  0  0  0  0  0  0  0
    4.4696    1.3570   -0.3490 C   0  0  1  0  0  0  0  0  0  0  0  0
    4.9464    0.7168   -1.5266 O   0  0  0  0  0  0  0  0  0  0  0  0
    4.5402    1.2250   -2.7730 C   0  0  0  0  0  0  0  0  0  0  0  0
    5.0946    2.7755   -0.1472 C   0  0  1  0  0  0  0  0  0  0  0  0
    4.8145    3.3755    1.1569 N   0  0  0  0  0  0  0  0  0  0  0  0
    6.5982    2.7608   -0.3957 C   0  0  0  0  0  0  0  0  0  0  0  0
    7.1818    3.4693   -1.4564 C   0  0  0  0  0  0  0  0  0  0  0  0
    8.5628    3.4615   -1.6689 C   0  0  0  0  0  0  0  0  0  0  0  0
    9.4032    2.7421   -0.8158 C   0  0  0  0  0  0  0  0  0  0  0  0
    8.8394    2.0409    0.2451 C   0  0  0  0  0  0  0  0  0  0  0  0
    9.6108    1.3460    1.0874 F   0  0  0  0  0  0  0  0  0  0  0  0
    7.4581    2.0540    0.4490 C   0  0  0  0  0  0  0  0  0  0  0  0
    6.9658    1.3667    1.4984 F   0  0  0  0  0  0  0  0  0  0  0  0
    0.3652   -1.0318   -0.2670 H   0  0  0  0  0  0  0  0  0  0  0  0
    0.3335    0.5688   -1.0398 H   0  0  0  0  0  0  0  0  0  0  0  0
    0.4479    0.4394    0.7286 H   0  0  0  0  0  0  0  0  0  0  0  0
    2.6207   -0.5220   -1.2573 H   0  0  0  0  0  0  0  0  0  0  0  0
    2.7301   -0.6545    0.4903 H   0  0  0  0  0  0  0  0  0  0  0  0
    2.6645    1.8321    0.7137 H   0  0  0  0  0  0  0  0  0  0  0  0
    2.5077    2.0133   -1.0305 H   0  0  0  0  0  0  0  0  0  0  0  0
    4.8605    0.7210    0.4622 H   0  0  0  0  0  0  0  0  0  0  0  0
    5.0604    0.6338   -3.5413 H   0  0  0  0  0  0  0  0  0  0  0  0
    4.8144    2.2862   -2.9223 H   0  0  0  0  0  0  0  0  0  0  0  0
    3.4516    1.1254   -2.9462 H   0  0  0  0  0  0  0  0  0  0  0  0
    4.6580    3.4513   -0.9011 H   0  0  0  0  0  0  0  0  0  0  0  0
    5.0739    2.7411    1.9123 H   0  0  0  0  0  0  0  0  0  0  0  0
    3.8255    3.5925    1.2606 H   0  0  0  0  0  0  0  0  0  0  0  0
    6.5357    4.0447   -2.1240 H   0  0  0  0  0  0  0  0  0  0  0  0
    8.9908    4.0229   -2.5024 H   0  0  0  0  0  0  0  0  0  0  0  0
   10.4862    2.7147   -0.9501 H   0  0  0  0  0  0  0  0  0  0  0  0
  1  2  1  0
  1 17  1  0
  1 18  1  0
  1 19  1  0
  2  3  1  0
  2 20  1  0
  2 21  1  0
  3  4  1  0
  3 22  1  0
  3 23  1  0
  4  5  1  0
  4  7  1  0
  4 24  1  1
  5  6  1  0
  6 25  1  0
  6 26  1  0
  6 27  1  0
  7  8  1  0
  7  9  1  0
  7 28  1  6
  8 29  1  0
  8 30  1  0
  9 10  2  0
  9 15  1  0
 10 11  1  0
 10 31  1  0
 11 12  2  0
 11 32  1  0
 12 13  1  0
 12 33  1  0
 13 14  1  0
 13 15  2  0
 15 16  1  0
M  END

