
     RDKit          3D

 43 44  0  0  0  0  0  0  0  0999 V2000
    5.6196   -0.4249    4.8968 C   0  0  0  0  0  0  0  0  0  0  0  0
    6.8534    0.4145    4.5562 C   0  0  0  0  0  0  0  0  0  0  0  0
    8.0403   -0.3692    4.2558 N   0  0  0  0  0  0  0  0  0  0  0  0
    8.3236   -0.8904    3.0248 C   0  0  0  0  0  0  0  0  0  0  0  0
    9.4768   -1.6956    2.8236 C   0  0  0  0  0  0  0  0  0  0  0  0
    9.7228   -2.1986    1.5579 C   0  0  0  0  0  0  0  0  0  0  0  0
    8.8465   -1.8994    0.4948 C   0  0  0  0  0  0  0  0  0  0  0  0
    9.0800   -2.2577   -0.9472 C   0  0  0  0  0  0  0  0  0  0  0  0
    8.9073   -1.3984   -1.8031 O   0  0  0  0  0  0  0  0  0  0  0  0
    9.4970   -3.5414   -1.2568 N   0  0  0  0  0  0  0  0  0  0  0  0
    9.4202   -4.6392   -0.3043 C   0  0  0  0  0  0  0  0  0  0  0  0
    8.8952   -5.8987   -0.9722 C   0  0  0  0  0  0  0  0  0  0  0  0
    9.7756   -6.2791   -2.0592 N   0  0  0  0  0  0  0  0  0  0  0  0
    9.9466   -7.6896   -2.3565 C   0  0  0  0  0  0  0  0  0  0  0  0
   10.4259   -5.3348   -2.8095 C   0  0  0  0  0  0  0  0  0  0  0  0
   11.2252   -5.6317   -3.6822 O   0  0  0  0  0  0  0  0  0  0  0  0
   10.0075   -3.8437   -2.6313 C   0  0  1  0  0  0  0  0  0  0  0  0
    8.9002   -3.6435   -3.6985 C   0  0  0  0  0  0  0  0  0  0  0  0
   11.2328   -2.9674   -2.9376 C   0  0  0  0  0  0  0  0  0  0  0  0
    7.7627   -1.0630    0.7999 C   0  0  0  0  0  0  0  0  0  0  0  0
    7.4895   -0.5944    2.0142 N   0  0  0  0  0  0  0  0  0  0  0  0
    4.7638    0.2271    5.1366 H   0  0  0  0  0  0  0  0  0  0  0  0
    5.8033   -1.0772    5.7667 H   0  0  0  0  0  0  0  0  0  0  0  0
    5.3381   -1.0578    4.0417 H   0  0  0  0  0  0  0  0  0  0  0  0
    7.1010    1.0874    5.3942 H   0  0  0  0  0  0  0  0  0  0  0  0
    6.6414    1.0442    3.6804 H   0  0  0  0  0  0  0  0  0  0  0  0
    8.6183   -0.6727    5.0284 H   0  0  0  0  0  0  0  0  0  0  0  0
   10.1614   -1.8986    3.6510 H   0  0  0  0  0  0  0  0  0  0  0  0
   10.6172   -2.8026    1.3879 H   0  0  0  0  0  0  0  0  0  0  0  0
    8.7502   -4.3600    0.5173 H   0  0  0  0  0  0  0  0  0  0  0  0
   10.4111   -4.8705    0.1333 H   0  0  0  0  0  0  0  0  0  0  0  0
    7.8525   -5.7505   -1.3157 H   0  0  0  0  0  0  0  0  0  0  0  0
    8.8806   -6.7152   -0.2319 H   0  0  0  0  0  0  0  0  0  0  0  0
   10.3671   -8.2297   -1.4899 H   0  0  0  0  0  0  0  0  0  0  0  0
   10.6343   -7.7813   -3.2054 H   0  0  0  0  0  0  0  0  0  0  0  0
    8.9802   -8.1559   -2.6180 H   0  0  0  0  0  0  0  0  0  0  0  0
    8.0265   -4.2795   -3.4835 H   0  0  0  0  0  0  0  0  0  0  0  0
    9.2967   -3.9249   -4.6847 H   0  0  0  0  0  0  0  0  0  0  0  0
    8.5783   -2.5964   -3.7107 H   0  0  0  0  0  0  0  0  0  0  0  0
   12.0178   -3.1267   -2.1816 H   0  0  0  0  0  0  0  0  0  0  0  0
   10.9470   -1.9087   -2.9405 H   0  0  0  0  0  0  0  0  0  0  0  0
   11.6460   -3.2440   -3.9153 H   0  0  0  0  0  0  0  0  0  0  0  0
    7.0802   -0.7684   -0.0050 H   0  0  0  0  0  0  0  0  0  0  0  0
  1  2  1  0
  1 22  1  0
  1 23  1  0
  1 24  1  0
  2  3  1  0
  2 25  1  0
  2 26  1  0
  3  4  1  0
  3 27  1  0
  4  5  2  0
  4 21  1  0
  5  6  1  0
  5 28  1  0
  6  7  2  0
  6 29  1  0
  7  8  1  0
  7 20  1  0
  8  9  2  0
  8 10  1  0
 10 11  1  0
 10 17  1  0
 11 12  1  0
 11 30  1  0
 11 31  1  0
 12 13  1  0
 12 32  1  0
 12 33  1  0
 13 14  1  0
 13 15  1  0
 14 34  1  0
 14 35  1  0
 14 36  1  0
 15 16  2  0
 15 17  1  0
 17 18  1  6
 17 19  1  0
 18 37  1  0
 18 38  1  0
 18 39  1  0
 19 40  1  0
 19 41  1  0
 19 42  1  0
 20 21  2  0
 20 43  1  0
M  END

