
     RDKit          3D

 19 19  0  0  0  0  0  0  0  0999 V2000
    2.6190    2.2760    0.9764 N   0  0  0  0  0  0  0  0  0  0  0  0
    3.0721    1.2740    0.6132 C   0  0  0  0  0  0  0  0  0  0  0  0
    3.6382    0.0027    0.1594 C   0  0  1  0  0  0  0  0  0  0  0  0
    5.0419    0.3609   -0.9643 Cl  0  0  0  0  0  0  0  0  0  0  0  0
    4.0784   -0.9094    1.2843 C   0  0  0  0  0  0  0  0  0  0  0  0
    4.6559   -0.3878    2.4515 C   0  0  0  0  0  0  0  0  0  0  0  0
    5.0883   -1.2580    3.4520 C   0  0  0  0  0  0  0  0  0  0  0  0
    5.8666   -0.5532    5.0364 Br  0  0  0  0  0  0  0  0  0  0  0  0
    4.9549   -2.6433    3.3111 C   0  0  0  0  0  0  0  0  0  0  0  0
    4.3783   -3.1523    2.1459 C   0  0  0  0  0  0  0  0  0  0  0  0
    4.2193   -4.6435    1.9520 C   0  0  1  0  0  0  0  0  0  0  0  0
    4.6108   -5.3390    3.0293 F   0  0  0  0  0  0  0  0  0  0  0  0
    2.9377   -4.9654    1.7020 F   0  0  0  0  0  0  0  0  0  0  0  0
    4.9418   -5.0764    0.9040 F   0  0  0  0  0  0  0  0  0  0  0  0
    3.9400   -2.2921    1.1332 C   0  0  0  0  0  0  0  0  0  0  0  0
    2.8937   -0.5042   -0.4697 H   0  0  0  0  0  0  0  0  0  0  0  0
    4.7626    0.6907    2.5805 H   0  0  0  0  0  0  0  0  0  0  0  0
    5.2917   -3.3159    4.0994 H   0  0  0  0  0  0  0  0  0  0  0  0
    3.4927   -2.7042    0.2258 H   0  0  0  0  0  0  0  0  0  0  0  0
  1  2  3  0
  2  3  1  0
  3  4  1  0
  3  5  1  0
  3 16  1  6
  5  6  2  0
  5 15  1  0
  6  7  1  0
  6 17  1  0
  7  8  1  0
  7  9  2  0
  9 10  1  0
  9 18  1  0
 10 11  1  0
 10 15  2  0
 11 12  1  1
 11 13  1  0
 11 14  1  0
 15 19  1  0
M  END

