
     RDKit          3D

 56 59  0  0  0  0  0  0  0  0999 V2000
    2.0986    2.3799   -2.6830 C   0  0  0  0  0  0  0  0  0  0  0  0
    2.0586    2.6766   -1.1838 C   0  0  0  0  0  0  0  0  0  0  0  0
    2.9305    1.7552   -0.3365 C   0  0  0  0  0  0  0  0  0  0  0  0
    4.3206    1.8154   -0.6990 O   0  0  0  0  0  0  0  0  0  0  0  0
    5.0711    2.8007   -0.1556 C   0  0  0  0  0  0  0  0  0  0  0  0
    4.5868    3.6224    0.6239 O   0  0  0  0  0  0  0  0  0  0  0  0
    6.4567    2.7502   -0.5875 C   0  0  0  0  0  0  0  0  0  0  0  0
    7.3470    3.6765   -0.0691 C   0  0  0  0  0  0  0  0  0  0  0  0
    7.0122    4.6343    0.8289 N   0  0  0  0  0  0  0  0  0  0  0  0
    8.6840    3.6265   -0.4355 N   0  0  0  0  0  0  0  0  0  0  0  0
    9.2362    2.5415   -1.1031 C   0  0  0  0  0  0  0  0  0  0  0  0
   10.7353    2.5274   -1.1597 C   0  0  0  0  0  0  0  0  0  0  0  0
    8.4209    1.5909   -1.6344 C   0  0  0  0  0  0  0  0  0  0  0  0
    8.9868    0.4454   -2.2694 C   0  0  0  0  0  0  0  0  0  0  0  0
    9.4217   -0.5060   -2.7795 N   0  0  0  0  0  0  0  0  0  0  0  0
    6.8943    1.7197   -1.6195 C   0  0  2  0  0  0  0  0  0  0  0  0
    6.3729    2.0170   -3.0380 C   0  0  0  0  0  0  0  0  0  0  0  0
    6.4508    3.3071   -3.5347 C   0  0  0  0  0  0  0  0  0  0  0  0
    6.0094    3.6396   -4.8373 C   0  0  0  0  0  0  0  0  0  0  0  0
    5.4738    2.6712   -5.6571 C   0  0  0  0  0  0  0  0  0  0  0  0
    5.3680    1.3314   -5.1986 C   0  0  0  0  0  0  0  0  0  0  0  0
    4.8244    0.4096   -6.0418 N   0  0  0  0  0  0  0  0  0  0  0  0
    4.7209   -0.8330   -5.6409 C   0  0  0  0  0  0  0  0  0  0  0  0
    5.1467   -1.3081   -4.3616 C   0  0  0  0  0  0  0  0  0  0  0  0
    4.9908   -2.7368   -3.9905 C   0  0  0  0  0  0  0  0  0  0  0  0
    5.1833   -3.7575   -4.9414 C   0  0  0  0  0  0  0  0  0  0  0  0
    5.0385   -5.1015   -4.5913 C   0  0  0  0  0  0  0  0  0  0  0  0
    4.6970   -5.4567   -3.2831 C   0  0  0  0  0  0  0  0  0  0  0  0
    4.5016   -4.4548   -2.3275 C   0  0  0  0  0  0  0  0  0  0  0  0
    4.6451   -3.1112   -2.6778 C   0  0  0  0  0  0  0  0  0  0  0  0
    5.6988   -0.3749   -3.4993 C   0  0  0  0  0  0  0  0  0  0  0  0
    5.8265    0.9884   -3.8791 C   0  0  0  0  0  0  0  0  0  0  0  0
    1.4446    3.0691   -3.2401 H   0  0  0  0  0  0  0  0  0  0  0  0
    1.7612    1.3523   -2.8994 H   0  0  0  0  0  0  0  0  0  0  0  0
    3.1172    2.4851   -3.0858 H   0  0  0  0  0  0  0  0  0  0  0  0
    1.0253    2.5771   -0.8048 H   0  0  0  0  0  0  0  0  0  0  0  0
    2.3576    3.7188   -0.9854 H   0  0  0  0  0  0  0  0  0  0  0  0
    2.6512    0.7015   -0.4914 H   0  0  0  0  0  0  0  0  0  0  0  0
    2.8289    2.0039    0.7299 H   0  0  0  0  0  0  0  0  0  0  0  0
    6.0120    4.6886    1.0446 H   0  0  0  0  0  0  0  0  0  0  0  0
    7.6407    5.3968    1.0385 H   0  0  0  0  0  0  0  0  0  0  0  0
    9.3249    4.2465    0.0441 H   0  0  0  0  0  0  0  0  0  0  0  0
   11.1667    2.5145   -0.1438 H   0  0  0  0  0  0  0  0  0  0  0  0
   11.1095    3.4319   -1.6693 H   0  0  0  0  0  0  0  0  0  0  0  0
   11.1050    1.6496   -1.7027 H   0  0  0  0  0  0  0  0  0  0  0  0
    6.4793    0.7520   -1.3105 H   0  0  0  0  0  0  0  0  0  0  0  0
    6.8558    4.0972   -2.8981 H   0  0  0  0  0  0  0  0  0  0  0  0
    6.0921    4.6727   -5.1850 H   0  0  0  0  0  0  0  0  0  0  0  0
    5.1166    2.8890   -6.6652 H   0  0  0  0  0  0  0  0  0  0  0  0
    4.2556   -1.5375   -6.3418 H   0  0  0  0  0  0  0  0  0  0  0  0
    5.4766   -3.4978   -5.9611 H   0  0  0  0  0  0  0  0  0  0  0  0
    5.2026   -5.8767   -5.3443 H   0  0  0  0  0  0  0  0  0  0  0  0
    4.5839   -6.5087   -3.0094 H   0  0  0  0  0  0  0  0  0  0  0  0
    4.2274   -4.7206   -1.3032 H   0  0  0  0  0  0  0  0  0  0  0  0
    4.4654   -2.3371   -1.9278 H   0  0  0  0  0  0  0  0  0  0  0  0
    6.0653   -0.7075   -2.5283 H   0  0  0  0  0  0  0  0  0  0  0  0
  1  2  1  0
  1 33  1  0
  1 34  1  0
  1 35  1  0
  2  3  1  0
  2 36  1  0
  2 37  1  0
  3  4  1  0
  3 38  1  0
  3 39  1  0
  4  5  1  0
  5  6  2  0
  5  7  1  0
  7  8  2  0
  7 16  1  0
  8  9  1  0
  8 10  1  0
  9 40  1  0
  9 41  1  0
 10 11  1  0
 10 42  1  0
 11 12  1  0
 11 13  2  0
 12 43  1  0
 12 44  1  0
 12 45  1  0
 13 14  1  0
 13 16  1  0
 14 15  3  0
 16 17  1  0
 16 46  1  1
 17 18  2  0
 17 32  1  0
 18 19  1  0
 18 47  1  0
 19 20  2  0
 19 48  1  0
 20 21  1  0
 20 49  1  0
 21 22  1  0
 21 32  2  0
 22 23  2  0
 23 24  1  0
 23 50  1  0
 24 25  1  0
 24 31  2  0
 25 26  2  0
 25 30  1  0
 26 27  1  0
 26 51  1  0
 27 28  2  0
 27 52  1  0
 28 29  1  0
 28 53  1  0
 29 30  2  0
 29 54  1  0
 30 55  1  0
 31 32  1  0
 31 56  1  0
M  END

