
     RDKit          3D

 34 36  0  0  0  0  0  0  0  0999 V2000
    2.9452    1.0457    0.6558 C   0  0  0  0  0  0  0  0  0  0  0  0
    2.2690   -0.1607    0.3351 O   0  0  0  0  0  0  0  0  0  0  0  0
    2.9724   -1.3098    0.4084 C   0  0  0  0  0  0  0  0  0  0  0  0
    2.2590   -2.4962    0.0744 C   0  0  0  0  0  0  0  0  0  0  0  0
    2.9100   -3.7210    0.1253 C   0  0  0  0  0  0  0  0  0  0  0  0
    4.2535   -3.6895    0.5151 C   0  0  0  0  0  0  0  0  0  0  0  0
    5.2468   -4.6353    0.6897 N   0  0  0  0  0  0  0  0  0  0  0  0
    5.1647   -5.6316    0.5371 H   0  0  0  0  0  0  0  0  0  0  0  0
    6.3869   -3.9611    1.0783 C   0  0  0  0  0  0  0  0  0  0  0  0
    7.6705   -4.6663    1.5040 C   0  0  1  0  0  0  0  0  0  0  0  0
    7.6459   -4.9194    2.9538 N   0  0  0  0  0  0  0  0  0  0  0  0
    7.8766   -6.0085    0.7724 C   0  0  0  0  0  0  0  0  0  0  0  0
    8.2222   -5.8149   -0.7069 C   0  0  0  0  0  0  0  0  0  0  0  0
    9.3515   -4.9907   -0.8729 O   0  0  0  0  0  0  0  0  0  0  0  0
    9.1710   -3.7016   -0.3111 C   0  0  0  0  0  0  0  0  0  0  0  0
    8.8833   -3.7660    1.1874 C   0  0  0  0  0  0  0  0  0  0  0  0
    6.1922   -2.6636    1.1687 N   0  0  0  0  0  0  0  0  0  0  0  0
    4.8758   -2.4551    0.8255 C   0  0  0  0  0  0  0  0  0  0  0  0
    4.2413   -1.2758    0.7731 N   0  0  0  0  0  0  0  0  0  0  0  0
    2.2059    1.8486    0.5339 H   0  0  0  0  0  0  0  0  0  0  0  0
    3.8034    1.2151   -0.0138 H   0  0  0  0  0  0  0  0  0  0  0  0
    3.3230    1.0315    1.6906 H   0  0  0  0  0  0  0  0  0  0  0  0
    1.2113   -2.4128   -0.2164 H   0  0  0  0  0  0  0  0  0  0  0  0
    2.3890   -4.6478   -0.1272 H   0  0  0  0  0  0  0  0  0  0  0  0
    6.8302   -5.4833    3.2004 H   0  0  0  0  0  0  0  0  0  0  0  0
    7.5319   -4.0315    3.4468 H   0  0  0  0  0  0  0  0  0  0  0  0
    6.9965   -6.6701    0.8788 H   0  0  0  0  0  0  0  0  0  0  0  0
    8.7075   -6.5229    1.2789 H   0  0  0  0  0  0  0  0  0  0  0  0
    7.3516   -5.3910   -1.2528 H   0  0  0  0  0  0  0  0  0  0  0  0
    8.4627   -6.7825   -1.1742 H   0  0  0  0  0  0  0  0  0  0  0  0
    8.3516   -3.1677   -0.8337 H   0  0  0  0  0  0  0  0  0  0  0  0
   10.1019   -3.1466   -0.5007 H   0  0  0  0  0  0  0  0  0  0  0  0
    8.6973   -2.7520    1.5730 H   0  0  0  0  0  0  0  0  0  0  0  0
    9.7505   -4.1895    1.7176 H   0  0  0  0  0  0  0  0  0  0  0  0
  1  2  1  0
  1 20  1  0
  1 21  1  0
  1 22  1  0
  2  3  1  0
  3  4  2  0
  3 19  1  0
  4  5  1  0
  4 23  1  0
  5  6  2  0
  5 24  1  0
  6  7  1  0
  6 18  1  0
  7  8  1  0
  7  9  1  0
  9 10  1  0
  9 17  2  0
 10 11  1  1
 10 12  1  0
 10 16  1  0
 11 25  1  0
 11 26  1  0
 12 13  1  0
 12 27  1  0
 12 28  1  0
 13 14  1  0
 13 29  1  0
 13 30  1  0
 14 15  1  0
 15 16  1  0
 15 31  1  0
 15 32  1  0
 16 33  1  0
 16 34  1  0
 17 18  1  0
 18 19  2  0
M  END

