
     RDKit          3D

 33 35  0  0  0  0  0  0  0  0999 V2000
    5.4533    2.5756    0.1227 O   0  0  0  0  0  0  0  0  0  0  0  0
    5.2507    1.3838    0.0407 C   0  0  0  0  0  0  0  0  0  0  0  0
    5.7570    0.2872    0.9897 C   0  0  0  0  0  0  0  0  0  0  0  0
    5.6083   -1.0071    0.1775 C   0  0  0  0  0  0  0  0  0  0  0  0
    4.4432   -0.6904   -0.7975 C   0  0  2  0  0  0  0  0  0  0  0  0
    4.5137   -1.3514   -2.1803 C   0  0  0  0  0  0  0  0  0  0  0  0
    4.3368   -0.7131   -3.2072 O   0  0  0  0  0  0  0  0  0  0  0  0
    4.7372   -2.6879   -2.1733 N   0  0  0  0  0  0  0  0  0  0  0  0
    4.7747   -3.4533   -3.3988 C   0  0  0  0  0  0  0  0  0  0  0  0
    5.0286   -4.8885   -3.0522 C   0  0  0  0  0  0  0  0  0  0  0  0
    5.1905   -5.3529   -1.8250 N   0  0  0  0  0  0  0  0  0  0  0  0
    5.3995   -6.6929   -1.9188 C   0  0  0  0  0  0  0  0  0  0  0  0
    5.3683   -7.0887   -3.2538 C   0  0  0  0  0  0  0  0  0  0  0  0
    5.5112   -8.2986   -3.9847 C   0  0  0  0  0  0  0  0  0  0  0  0
    5.4124   -8.2846   -5.3533 C   0  0  0  0  0  0  0  0  0  0  0  0
    5.1656   -7.0525   -6.0444 C   0  0  0  0  0  0  0  0  0  0  0  0
    5.0264   -5.8842   -5.3547 C   0  0  0  0  0  0  0  0  0  0  0  0
    5.1256   -5.8966   -3.9754 N   0  0  0  0  0  0  0  0  0  0  0  0
    4.5043    0.7471   -0.9149 N   0  0  0  0  0  0  0  0  0  0  0  0
    5.1179    0.2893    1.8896 H   0  0  0  0  0  0  0  0  0  0  0  0
    6.7830    0.5093    1.3138 H   0  0  0  0  0  0  0  0  0  0  0  0
    5.4118   -1.8970    0.7933 H   0  0  0  0  0  0  0  0  0  0  0  0
    6.5263   -1.1956   -0.4017 H   0  0  0  0  0  0  0  0  0  0  0  0
    3.4806   -1.0153   -0.3473 H   0  0  0  0  0  0  0  0  0  0  0  0
    4.8895   -3.2169   -1.3171 H   0  0  0  0  0  0  0  0  0  0  0  0
    5.5593   -3.0626   -4.0759 H   0  0  0  0  0  0  0  0  0  0  0  0
    3.8237   -3.3389   -3.9551 H   0  0  0  0  0  0  0  0  0  0  0  0
    5.5627   -7.3209   -1.0447 H   0  0  0  0  0  0  0  0  0  0  0  0
    5.6987   -9.2234   -3.4357 H   0  0  0  0  0  0  0  0  0  0  0  0
    5.5206   -9.2083   -5.9249 H   0  0  0  0  0  0  0  0  0  0  0  0
    5.0863   -7.0356   -7.1325 H   0  0  0  0  0  0  0  0  0  0  0  0
    4.8381   -4.9186   -5.8250 H   0  0  0  0  0  0  0  0  0  0  0  0
    4.1190    1.2252   -1.7228 H   0  0  0  0  0  0  0  0  0  0  0  0
  1  2  2  0
  2  3  1  0
  2 19  1  0
  3  4  1  0
  3 20  1  0
  3 21  1  0
  4  5  1  0
  4 22  1  0
  4 23  1  0
  5  6  1  0
  5 19  1  0
  5 24  1  1
  6  7  2  0
  6  8  1  0
  8  9  1  0
  8 25  1  0
  9 10  1  0
  9 26  1  0
  9 27  1  0
 10 11  2  0
 10 18  1  0
 11 12  1  0
 12 13  2  0
 12 28  1  0
 13 14  1  0
 13 18  1  0
 14 15  2  0
 14 29  1  0
 15 16  1  0
 15 30  1  0
 16 17  2  0
 16 31  1  0
 17 18  1  0
 17 32  1  0
 19 33  1  0
M  END

