
     RDKit          3D

 23 24  0  0  0  0  0  0  0  0999 V2000
    1.0940    0.2280    0.0058 C   0  0  0  0  0  0  0  0  0  0  0  0
    2.6197    0.1802   -0.1697 C   0  0  0  0  0  0  0  0  0  0  0  0
    3.0611   -0.6153   -1.3491 C   0  0  0  0  0  0  0  0  0  0  0  0
    3.6871   -0.2285   -2.4065 N   0  0  0  0  0  0  0  0  0  0  0  0
    3.8366   -1.3702   -3.1921 C   0  0  0  0  0  0  0  0  0  0  0  0
    4.4323   -1.5717   -4.4413 C   0  0  0  0  0  0  0  0  0  0  0  0
    4.4108   -2.8700   -4.9628 C   0  0  0  0  0  0  0  0  0  0  0  0
    3.8176   -3.9350   -4.2660 C   0  0  0  0  0  0  0  0  0  0  0  0
    3.2142   -3.7581   -3.0097 C   0  0  0  0  0  0  0  0  0  0  0  0
    2.5945   -4.9331   -2.3068 C   0  0  0  0  0  0  0  0  0  0  0  0
    2.5818   -6.0384   -2.7819 O   0  0  0  0  0  0  0  0  0  0  0  0
    2.0447   -4.6932   -1.1002 O   0  0  0  0  0  0  0  0  0  0  0  0
    3.2507   -2.4517   -2.5182 C   0  0  0  0  0  0  0  0  0  0  0  0
    2.7528   -1.9716   -1.3370 O   0  0  0  0  0  0  0  0  0  0  0  0
    0.8312    0.8278    0.8900 H   0  0  0  0  0  0  0  0  0  0  0  0
    0.6735   -0.7798    0.1442 H   0  0  0  0  0  0  0  0  0  0  0  0
    0.6082    0.6826   -0.8714 H   0  0  0  0  0  0  0  0  0  0  0  0
    3.0856   -0.2480    0.7352 H   0  0  0  0  0  0  0  0  0  0  0  0
    3.0322    1.1901   -0.3026 H   0  0  0  0  0  0  0  0  0  0  0  0
    4.8927   -0.7414   -4.9795 H   0  0  0  0  0  0  0  0  0  0  0  0
    4.8664   -3.0641   -5.9364 H   0  0  0  0  0  0  0  0  0  0  0  0
    3.8086   -4.9429   -4.6852 H   0  0  0  0  0  0  0  0  0  0  0  0
    2.1298   -3.7610   -0.8423 H   0  0  0  0  0  0  0  0  0  0  0  0
  1  2  1  0
  1 15  1  0
  1 16  1  0
  1 17  1  0
  2  3  1  0
  2 18  1  0
  2 19  1  0
  3  4  2  0
  3 14  1  0
  4  5  1  0
  5  6  2  0
  5 13  1  0
  6  7  1  0
  6 20  1  0
  7  8  2  0
  7 21  1  0
  8  9  1  0
  8 22  1  0
  9 10  1  0
  9 13  2  0
 10 11  2  0
 10 12  1  0
 12 23  1  0
 13 14  1  0
M  END

