
     RDKit          3D

 37 38  0  0  0  0  0  0  0  0999 V2000
    1.0541    0.2878   -0.4940 C   0  0  0  0  0  0  0  0  0  0  0  0
    2.4659    0.1351    0.1032 C   0  0  1  0  0  0  0  0  0  0  0  0
    2.3918    0.6830    1.5485 C   0  0  0  0  0  0  0  0  0  0  0  0
    2.7597   -1.3167    0.1198 N   0  0  0  0  0  0  0  0  0  0  0  0
    4.1065   -1.8530   -0.0698 C   0  0  0  0  0  0  0  0  0  0  0  0
    5.1089   -1.5852    1.0682 C   0  0  0  0  0  0  0  0  0  0  0  0
    6.0424   -0.3772    0.9021 C   0  0  0  0  0  0  0  0  0  0  0  0
    5.3961    1.0090    0.7890 C   0  0  0  0  0  0  0  0  0  0  0  0
    4.7100    1.2791   -0.4855 N   0  0  0  0  0  0  0  0  0  0  0  0
    5.5174    1.9172   -1.4941 C   0  0  0  0  0  0  0  0  0  0  0  0
    5.8045    3.2839   -1.3851 C   0  0  0  0  0  0  0  0  0  0  0  0
    6.6170    3.9212   -2.3256 C   0  0  0  0  0  0  0  0  0  0  0  0
    7.1287    3.1764   -3.3850 C   0  0  0  0  0  0  0  0  0  0  0  0
    7.9077    3.7804   -4.2946 F   0  0  0  0  0  0  0  0  0  0  0  0
    6.8487    1.8183   -3.5239 C   0  0  0  0  0  0  0  0  0  0  0  0
    6.0424    1.1923   -2.5726 C   0  0  0  0  0  0  0  0  0  0  0  0
    3.4363    0.8899   -0.8739 C   0  0  0  0  0  0  0  0  0  0  0  0
    3.0751    1.0946   -2.0227 O   0  0  0  0  0  0  0  0  0  0  0  0
    0.3550   -0.3397    0.0801 H   0  0  0  0  0  0  0  0  0  0  0  0
    1.0418   -0.0074   -1.5508 H   0  0  0  0  0  0  0  0  0  0  0  0
    0.7136    1.3319   -0.4380 H   0  0  0  0  0  0  0  0  0  0  0  0
    1.4421    0.3536    1.9961 H   0  0  0  0  0  0  0  0  0  0  0  0
    2.4116    1.7851    1.5702 H   0  0  0  0  0  0  0  0  0  0  0  0
    3.1828    0.2985    2.2003 H   0  0  0  0  0  0  0  0  0  0  0  0
    2.1493   -1.7698   -0.5554 H   0  0  0  0  0  0  0  0  0  0  0  0
    4.5718   -1.5501   -1.0342 H   0  0  0  0  0  0  0  0  0  0  0  0
    3.9653   -2.9433   -0.1434 H   0  0  0  0  0  0  0  0  0  0  0  0
    5.7566   -2.4734    1.1587 H   0  0  0  0  0  0  0  0  0  0  0  0
    4.5515   -1.5272    2.0184 H   0  0  0  0  0  0  0  0  0  0  0  0
    6.6868   -0.5323    0.0185 H   0  0  0  0  0  0  0  0  0  0  0  0
    6.7262   -0.3472    1.7688 H   0  0  0  0  0  0  0  0  0  0  0  0
    6.1888    1.7660    0.8730 H   0  0  0  0  0  0  0  0  0  0  0  0
    4.7207    1.1923    1.6297 H   0  0  0  0  0  0  0  0  0  0  0  0
    5.3804    3.8556   -0.5564 H   0  0  0  0  0  0  0  0  0  0  0  0
    6.8499    4.9854   -2.2541 H   0  0  0  0  0  0  0  0  0  0  0  0
    7.2625    1.2698   -4.3722 H   0  0  0  0  0  0  0  0  0  0  0  0
    5.8045    0.1327   -2.6750 H   0  0  0  0  0  0  0  0  0  0  0  0
  2  1  1  6
  1 19  1  0
  1 20  1  0
  1 21  1  0
  2  3  1  0
  2  4  1  0
  2 17  1  0
  3 22  1  0
  3 23  1  0
  3 24  1  0
  4  5  1  0
  4 25  1  0
  5  6  1  0
  5 26  1  0
  5 27  1  0
  6  7  1  0
  6 28  1  0
  6 29  1  0
  7  8  1  0
  7 30  1  0
  7 31  1  0
  8  9  1  0
  8 32  1  0
  8 33  1  0
  9 10  1  0
  9 17  1  0
 10 11  2  0
 10 16  1  0
 11 12  1  0
 11 34  1  0
 12 13  2  0
 12 35  1  0
 13 14  1  0
 13 15  1  0
 15 16  2  0
 15 36  1  0
 16 37  1  0
 17 18  2  0
M  END

