
     RDKit          3D

 31 33  0  0  0  0  0  0  0  0999 V2000
    1.0358    0.1938    0.4485 C   0  0  0  0  0  0  0  0  0  0  0  0
    2.5031   -0.0265    0.2625 C   0  0  0  0  0  0  0  0  0  0  0  0
    3.3246    1.0032    0.2903 N   0  0  0  0  0  0  0  0  0  0  0  0
    4.6033    0.5192    0.1178 N   0  0  0  0  0  0  0  0  0  0  0  0
    5.6609    1.4534   -0.0153 C   0  0  0  0  0  0  0  0  0  0  0  0
    5.4196    2.6838   -0.6483 C   0  0  0  0  0  0  0  0  0  0  0  0
    6.4352    3.6309   -0.7689 C   0  0  0  0  0  0  0  0  0  0  0  0
    7.7137    3.3660   -0.2657 C   0  0  0  0  0  0  0  0  0  0  0  0
    7.9687    2.1517    0.3732 C   0  0  0  0  0  0  0  0  0  0  0  0
    6.9426    1.2221    0.5021 C   0  0  0  0  0  0  0  0  0  0  0  0
    7.1974    0.0627    1.1452 F   0  0  0  0  0  0  0  0  0  0  0  0
    4.5769   -0.8356   -0.0307 C   0  0  0  0  0  0  0  0  0  0  0  0
    5.6043   -1.6940   -0.2634 N   0  0  0  0  0  0  0  0  0  0  0  0
    6.5720   -1.3867   -0.2288 H   0  0  0  0  0  0  0  0  0  0  0  0
    5.4152   -3.0854   -0.4059 C   0  0  0  0  0  0  0  0  0  0  0  0
    6.3706   -3.8194   -0.5828 O   0  0  0  0  0  0  0  0  0  0  0  0
    4.0184   -3.5135   -0.3101 C   0  0  0  0  0  0  0  0  0  0  0  0
    2.9717   -2.6520   -0.0879 C   0  0  0  0  0  0  0  0  0  0  0  0
    1.5597   -3.1885   -0.0771 C   0  0  0  0  0  0  0  0  0  0  0  0
    0.6263   -2.6090   -0.5626 O   0  0  0  0  0  0  0  0  0  0  0  0
    1.4026   -4.3975    0.4968 O   0  0  0  0  0  0  0  0  0  0  0  0
    3.2391   -1.2495    0.0534 C   0  0  0  0  0  0  0  0  0  0  0  0
    0.8510    1.2641    0.6110 H   0  0  0  0  0  0  0  0  0  0  0  0
    0.6535   -0.3692    1.3144 H   0  0  0  0  0  0  0  0  0  0  0  0
    0.4711   -0.1578   -0.4260 H   0  0  0  0  0  0  0  0  0  0  0  0
    4.4152    2.8749   -1.0254 H   0  0  0  0  0  0  0  0  0  0  0  0
    6.2265    4.5811   -1.2651 H   0  0  0  0  0  0  0  0  0  0  0  0
    8.5124    4.1041   -0.3651 H   0  0  0  0  0  0  0  0  0  0  0  0
    8.9472    1.9100    0.7927 H   0  0  0  0  0  0  0  0  0  0  0  0
    3.8661   -4.5833   -0.4654 H   0  0  0  0  0  0  0  0  0  0  0  0
    2.2325   -4.6815    0.9084 H   0  0  0  0  0  0  0  0  0  0  0  0
  1  2  1  0
  1 23  1  0
  1 24  1  0
  1 25  1  0
  2  3  2  0
  2 22  1  0
  3  4  1  0
  4  5  1  0
  4 12  1  0
  5  6  2  0
  5 10  1  0
  6  7  1  0
  6 26  1  0
  7  8  2  0
  7 27  1  0
  8  9  1  0
  8 28  1  0
  9 10  2  0
  9 29  1  0
 10 11  1  0
 12 13  1  0
 12 22  2  0
 13 14  1  0
 13 15  1  0
 15 16  2  0
 15 17  1  0
 17 18  2  0
 17 30  1  0
 18 19  1  0
 18 22  1  0
 19 20  2  0
 19 21  1  0
 21 31  1  0
M  END

