
     RDKit          3D

 43 46  0  0  0  0  0  0  0  0999 V2000
    5.9978    3.0007    1.7595 C   0  0  0  0  0  0  0  0  0  0  0  0
    5.2496    4.2364    1.9154 N   0  0  0  0  0  0  0  0  0  0  0  0
    3.9787    4.4788    1.4506 C   0  0  0  0  0  0  0  0  0  0  0  0
    3.1182    3.3400    0.4168 S   0  0  0  0  0  0  0  0  0  0  0  0
    1.3925    3.8986    0.6720 C   0  0  0  0  0  0  0  0  0  0  0  0
    1.0546    5.2011   -0.0646 C   0  0  0  0  0  0  0  0  0  0  0  0
   -0.3768    5.4835   -0.0303 N   0  0  0  0  0  0  0  0  0  0  0  0
   -1.2692    5.0628   -1.0067 C   0  0  0  0  0  0  0  0  0  0  0  0
   -0.9625    4.4270   -1.9923 O   0  0  0  0  0  0  0  0  0  0  0  0
   -2.6457    5.5253   -0.6443 C   0  0  0  0  0  0  0  0  0  0  0  0
   -3.8056    5.3166   -1.3895 C   0  0  0  0  0  0  0  0  0  0  0  0
   -5.0132    5.8251   -0.8991 C   0  0  0  0  0  0  0  0  0  0  0  0
   -5.0575    6.5286    0.3135 C   0  0  0  0  0  0  0  0  0  0  0  0
   -3.8952    6.7410    1.0664 C   0  0  0  0  0  0  0  0  0  0  0  0
   -2.7075    6.2265    0.5593 C   0  0  0  0  0  0  0  0  0  0  0  0
   -1.0829    6.3371    1.3007 S   0  0  2  0  0  0  0  0  0  0  0  0
   -0.5924    7.7096    1.3201 O   0  0  0  0  0  0  0  0  0  0  0  0
   -0.9932    5.5125    2.5034 O   0  0  0  0  0  0  0  0  0  0  0  0
    3.5410    5.6397    1.8806 N   0  0  0  0  0  0  0  0  0  0  0  0
    4.5218    6.1869    2.6524 N   0  0  0  0  0  0  0  0  0  0  0  0
    5.5484    5.3630    2.6676 C   0  0  0  0  0  0  0  0  0  0  0  0
    6.7980    5.6257    3.3984 C   0  0  0  0  0  0  0  0  0  0  0  0
    6.7290    6.4073    4.5685 C   0  0  0  0  0  0  0  0  0  0  0  0
    7.8855    6.7163    5.2826 C   0  0  0  0  0  0  0  0  0  0  0  0
    9.1317    6.2530    4.8451 C   0  0  0  0  0  0  0  0  0  0  0  0
    9.2130    5.4887    3.6785 C   0  0  0  0  0  0  0  0  0  0  0  0
    8.0573    5.1797    2.9562 C   0  0  0  0  0  0  0  0  0  0  0  0
    5.2883    2.1680    1.6509 H   0  0  0  0  0  0  0  0  0  0  0  0
    6.6156    2.8270    2.6498 H   0  0  0  0  0  0  0  0  0  0  0  0
    6.6484    3.0253    0.8706 H   0  0  0  0  0  0  0  0  0  0  0  0
    1.2005    3.9939    1.7494 H   0  0  0  0  0  0  0  0  0  0  0  0
    0.7904    3.0678    0.2742 H   0  0  0  0  0  0  0  0  0  0  0  0
    1.3371    5.1260   -1.1246 H   0  0  0  0  0  0  0  0  0  0  0  0
    1.5981    6.0402    0.3933 H   0  0  0  0  0  0  0  0  0  0  0  0
   -3.7487    4.7677   -2.3317 H   0  0  0  0  0  0  0  0  0  0  0  0
   -5.9346    5.6742   -1.4665 H   0  0  0  0  0  0  0  0  0  0  0  0
   -6.0109    6.9182    0.6782 H   0  0  0  0  0  0  0  0  0  0  0  0
   -3.9224    7.2887    2.0105 H   0  0  0  0  0  0  0  0  0  0  0  0
    5.7531    6.7679    4.8973 H   0  0  0  0  0  0  0  0  0  0  0  0
    7.8144    7.3217    6.1898 H   0  0  0  0  0  0  0  0  0  0  0  0
   10.0368    6.4931    5.4085 H   0  0  0  0  0  0  0  0  0  0  0  0
   10.1839    5.1388    3.3187 H   0  0  0  0  0  0  0  0  0  0  0  0
    8.1492    4.6165    2.0262 H   0  0  0  0  0  0  0  0  0  0  0  0
  1  2  1  0
  1 28  1  0
  1 29  1  0
  1 30  1  0
  2  3  1  0
  2 21  1  0
  3  4  1  0
  3 19  2  0
  4  5  1  0
  5  6  1  0
  5 31  1  0
  5 32  1  0
  6  7  1  0
  6 33  1  0
  6 34  1  0
  7  8  1  0
 16  7  1  6
  8  9  2  0
  8 10  1  0
 10 11  1  0
 10 15  2  0
 11 12  2  0
 11 35  1  0
 12 13  1  0
 12 36  1  0
 13 14  2  0
 13 37  1  0
 14 15  1  0
 14 38  1  0
 15 16  1  0
 16 17  2  0
 16 18  2  0
 19 20  1  0
 20 21  2  0
 21 22  1  0
 22 23  2  0
 22 27  1  0
 23 24  1  0
 23 39  1  0
 24 25  2  0
 24 40  1  0
 25 26  1  0
 25 41  1  0
 26 27  2  0
 26 42  1  0
 27 43  1  0
M  END

