
     RDKit          3D

 47 49  0  0  0  0  0  0  0  0999 V2000
    2.9596   -0.3762   -0.0898 C   0  0  0  0  0  0  0  0  0  0  0  0
    3.9135   -0.2440    1.0954 C   0  0  0  0  0  0  0  0  0  0  0  0
    3.2180   -0.2980    2.4778 C   0  0  1  0  0  0  0  0  0  0  0  0
    2.4874    0.5223    2.5501 H   0  0  0  0  0  0  0  0  0  0  0  0
    2.5166   -1.5448    2.7056 N   0  0  0  0  0  0  0  0  0  0  0  0
    1.1654   -1.6808    2.8034 C   0  0  0  0  0  0  0  0  0  0  0  0
    0.6104   -2.9091    3.2729 C   0  0  0  0  0  0  0  0  0  0  0  0
   -0.6934   -3.0595    3.3576 N   0  0  0  0  0  0  0  0  0  0  0  0
   -1.5100   -2.0580    3.0046 C   0  0  0  0  0  0  0  0  0  0  0  0
   -2.9796   -2.2905    3.1303 C   0  0  0  0  0  0  0  0  0  0  0  0
   -3.3207   -3.5165    3.5857 N   0  0  0  0  0  0  0  0  0  0  0  0
   -3.8214   -1.4305    2.8422 O   0  0  0  0  0  0  0  0  0  0  0  0
   -0.9554   -0.8229    2.5347 C   0  0  0  0  0  0  0  0  0  0  0  0
   -1.8089    0.1887    2.1891 N   0  0  0  0  0  0  0  0  0  0  0  0
   -1.5916    1.4748    1.7108 C   0  0  0  0  0  0  0  0  0  0  0  0
   -2.7285    2.2883    1.5131 C   0  0  0  0  0  0  0  0  0  0  0  0
   -2.5533    3.5813    1.0332 C   0  0  0  0  0  0  0  0  0  0  0  0
   -1.3657    4.1163    0.7393 N   0  0  0  0  0  0  0  0  0  0  0  0
   -0.2787    3.3528    0.9188 C   0  0  0  0  0  0  0  0  0  0  0  0
    1.0424    3.9600    0.5798 C   0  0  1  0  0  0  0  0  0  0  0  0
    1.1421    4.9416   -0.5721 C   0  0  0  0  0  0  0  0  0  0  0  0
    1.2761    5.4380    0.8328 C   0  0  0  0  0  0  0  0  0  0  0  0
   -0.3403    2.0362    1.4007 C   0  0  0  0  0  0  0  0  0  0  0  0
    0.3727   -0.6677    2.4436 N   0  0  0  0  0  0  0  0  0  0  0  0
    4.2769   -0.1617    3.5899 C   0  0  0  0  0  0  0  0  0  0  0  0
    4.7130    1.1004    3.8352 N   0  0  0  0  0  0  0  0  0  0  0  0
    4.7161   -1.1439    4.1646 O   0  0  0  0  0  0  0  0  0  0  0  0
    3.5163   -0.3529   -1.0397 H   0  0  0  0  0  0  0  0  0  0  0  0
    2.2209    0.4403   -0.1118 H   0  0  0  0  0  0  0  0  0  0  0  0
    2.4047   -1.3256   -0.0487 H   0  0  0  0  0  0  0  0  0  0  0  0
    4.4733    0.7049    1.0284 H   0  0  0  0  0  0  0  0  0  0  0  0
    4.6693   -1.0481    1.0666 H   0  0  0  0  0  0  0  0  0  0  0  0
    3.0921   -2.2427    3.1734 H   0  0  0  0  0  0  0  0  0  0  0  0
    1.2577   -3.7416    3.5696 H   0  0  0  0  0  0  0  0  0  0  0  0
   -2.5873   -4.1780    3.8111 H   0  0  0  0  0  0  0  0  0  0  0  0
   -4.2997   -3.7412    3.7010 H   0  0  0  0  0  0  0  0  0  0  0  0
   -2.7913   -0.0956    2.3306 H   0  0  0  0  0  0  0  0  0  0  0  0
   -3.7288    1.9088    1.7348 H   0  0  0  0  0  0  0  0  0  0  0  0
   -3.4297    4.2224    0.8781 H   0  0  0  0  0  0  0  0  0  0  0  0
    1.8965    3.2931    0.7300 H   0  0  0  0  0  0  0  0  0  0  0  0
    0.2054    5.1600   -1.0913 H   0  0  0  0  0  0  0  0  0  0  0  0
    2.0330    4.8944   -1.2052 H   0  0  0  0  0  0  0  0  0  0  0  0
    0.4291    5.9879    1.2511 H   0  0  0  0  0  0  0  0  0  0  0  0
    2.2621    5.7448    1.1946 H   0  0  0  0  0  0  0  0  0  0  0  0
    0.5618    1.4482    1.5329 H   0  0  0  0  0  0  0  0  0  0  0  0
    4.2870    1.9127    3.4093 H   0  0  0  0  0  0  0  0  0  0  0  0
    5.4280    1.2368    4.5409 H   0  0  0  0  0  0  0  0  0  0  0  0
  1  2  1  0
  1 28  1  0
  1 29  1  0
  1 30  1  0
  2  3  1  0
  2 31  1  0
  2 32  1  0
  3  4  1  6
  3  5  1  0
  3 25  1  0
  5  6  1  0
  5 33  1  0
  6  7  2  0
  6 24  1  0
  7  8  1  0
  7 34  1  0
  8  9  2  0
  9 10  1  0
  9 13  1  0
 10 11  1  0
 10 12  2  0
 11 35  1  0
 11 36  1  0
 13 14  1  0
 13 24  2  0
 14 15  1  0
 14 37  1  0
 15 16  2  0
 15 23  1  0
 16 17  1  0
 16 38  1  0
 17 18  2  0
 17 39  1  0
 18 19  1  0
 19 20  1  0
 19 23  2  0
 20 21  1  0
 20 22  1  0
 20 40  1  6
 21 22  1  0
 21 41  1  0
 21 42  1  0
 22 43  1  0
 22 44  1  0
 23 45  1  0
 25 26  1  0
 25 27  2  0
 26 46  1  0
 26 47  1  0
M  END

