
     RDKit          3D

102110  0  0  0  0  0  0  0  0999 V2000
    0.9075   -3.5021   -1.7081 C   0  0  0  0  0  0  0  0  0  0  0  0
    1.1648   -4.2495   -0.3950 C   0  0  0  0  0  0  0  0  0  0  0  0
    2.2120   -3.6685    0.4404 N   0  0  0  0  0  0  0  0  0  0  0  0
    1.8774   -2.5942    1.3816 C   0  0  0  0  0  0  0  0  0  0  0  0
    0.4245   -2.5415    1.8419 C   0  0  0  0  0  0  0  0  0  0  0  0
    3.5453   -3.8829    0.1393 C   0  0  0  0  0  0  0  0  0  0  0  0
    3.9508   -4.8695   -0.8142 C   0  0  0  0  0  0  0  0  0  0  0  0
    5.2866   -5.1034   -1.0819 C   0  0  0  0  0  0  0  0  0  0  0  0
    6.3118   -4.3744   -0.4417 C   0  0  0  0  0  0  0  0  0  0  0  0
    7.7136   -4.5458   -0.6630 C   0  0  0  0  0  0  0  0  0  0  0  0
    8.6610   -3.7984   -0.0120 C   0  0  0  0  0  0  0  0  0  0  0  0
   10.1113   -3.9602   -0.2810 C   0  0  0  0  0  0  0  0  0  0  0  0
   10.5587   -4.3055   -1.5719 C   0  0  0  0  0  0  0  0  0  0  0  0
   11.9116   -4.5078   -1.8427 C   0  0  0  0  0  0  0  0  0  0  0  0
   12.8788   -4.3658   -0.8342 C   0  0  0  0  0  0  0  0  0  0  0  0
   14.3330   -4.5759   -1.1254 C   0  0  0  0  0  0  0  0  0  0  0  0
   15.1554   -3.4733   -1.4562 C   0  0  0  0  0  0  0  0  0  0  0  0
   14.6348   -2.1375   -1.5252 C   0  0  0  0  0  0  0  0  0  0  0  0
   15.4376   -1.0719   -1.8449 C   0  0  0  0  0  0  0  0  0  0  0  0
   16.8208   -1.2715   -2.1191 C   0  0  0  0  0  0  0  0  0  0  0  0
   17.3615   -2.5314   -2.0679 C   0  0  0  0  0  0  0  0  0  0  0  0
   16.5614   -3.6769   -1.7398 C   0  0  0  0  0  0  0  0  0  0  0  0
   17.1126   -4.9787   -1.6887 C   0  0  0  0  0  0  0  0  0  0  0  0
   18.5670   -5.1890   -1.9790 C   0  0  0  0  0  0  0  0  0  0  0  0
   19.5182   -5.1849   -0.9455 C   0  0  0  0  0  0  0  0  0  0  0  0
   20.8728   -5.3740   -1.2175 C   0  0  0  0  0  0  0  0  0  0  0  0
   21.3362   -5.5835   -2.5318 C   0  0  0  0  0  0  0  0  0  0  0  0
   22.7774   -5.8301   -2.7846 C   0  0  0  0  0  0  0  0  0  0  0  0
   23.5692   -6.4963   -1.8849 C   0  0  0  0  0  0  0  0  0  0  0  0
   24.9668   -6.7078   -2.0970 C   0  0  0  0  0  0  0  0  0  0  0  0
   25.8363   -7.3793   -1.2118 C   0  0  0  0  0  0  0  0  0  0  0  0
   27.1823   -7.5338   -1.4901 C   0  0  0  0  0  0  0  0  0  0  0  0
   27.7521   -7.0273   -2.7000 C   0  0  0  0  0  0  0  0  0  0  0  0
   29.0879   -7.2097   -2.9980 N   0  0  0  0  0  0  0  0  0  0  0  0
   29.6625   -6.6731   -4.2293 C   0  0  0  0  0  0  0  0  0  0  0  0
   30.0454   -5.1894   -4.1826 C   0  0  0  0  0  0  0  0  0  0  0  0
   29.9867   -7.8892   -2.0689 C   0  0  0  0  0  0  0  0  0  0  0  0
   30.5313   -7.0206   -0.9291 C   0  0  0  0  0  0  0  0  0  0  0  0
   26.8848   -6.3458   -3.5874 C   0  0  0  0  0  0  0  0  0  0  0  0
   25.5341   -6.2027   -3.2848 C   0  0  0  0  0  0  0  0  0  0  0  0
   24.7559   -5.5496   -4.1830 O   0  0  0  0  0  0  0  0  0  0  0  0
   23.3893   -5.3316   -4.0327 C   0  0  0  0  0  0  0  0  0  0  0  0
   22.8325   -4.7561   -4.9324 O   0  0  0  0  0  0  0  0  0  0  0  0
   20.3810   -5.5733   -3.5675 C   0  0  0  0  0  0  0  0  0  0  0  0
   19.0263   -5.3846   -3.2916 C   0  0  0  0  0  0  0  0  0  0  0  0
   16.2898   -6.0813   -1.3603 C   0  0  0  0  0  0  0  0  0  0  0  0
   16.8077   -7.4187   -1.3027 C   0  0  0  0  0  0  0  0  0  0  0  0
   16.0066   -8.4844   -0.9785 C   0  0  0  0  0  0  0  0  0  0  0  0
   14.6272   -8.2827   -0.6870 C   0  0  0  0  0  0  0  0  0  0  0  0
   14.0879   -7.0219   -0.7334 C   0  0  0  0  0  0  0  0  0  0  0  0
   14.8848   -5.8773   -1.0725 C   0  0  0  0  0  0  0  0  0  0  0  0
   12.4382   -4.0092    0.4507 C   0  0  0  0  0  0  0  0  0  0  0  0
   11.0855   -3.8049    0.7251 C   0  0  0  0  0  0  0  0  0  0  0  0
    8.2152   -2.7920    0.9725 C   0  0  0  0  0  0  0  0  0  0  0  0
    8.9144   -2.0774    1.6443 O   0  0  0  0  0  0  0  0  0  0  0  0
    6.8403   -2.6555    1.1392 O   0  0  0  0  0  0  0  0  0  0  0  0
    5.9091   -3.3944    0.4866 C   0  0  0  0  0  0  0  0  0  0  0  0
    4.5701   -3.1390    0.7721 C   0  0  0  0  0  0  0  0  0  0  0  0
    0.1099   -3.9986   -2.2844 H   0  0  0  0  0  0  0  0  0  0  0  0
    1.8112   -3.4689   -2.3361 H   0  0  0  0  0  0  0  0  0  0  0  0
    0.5912   -2.4634   -1.5205 H   0  0  0  0  0  0  0  0  0  0  0  0
    1.4138   -5.3013   -0.5990 H   0  0  0  0  0  0  0  0  0  0  0  0
    0.2392   -4.2908    0.1930 H   0  0  0  0  0  0  0  0  0  0  0  0
    2.1586   -1.6099    0.9552 H   0  0  0  0  0  0  0  0  0  0  0  0
    2.5061   -2.7250    2.2770 H   0  0  0  0  0  0  0  0  0  0  0  0
   -0.2778   -2.3003    1.0296 H   0  0  0  0  0  0  0  0  0  0  0  0
    0.3290   -1.7485    2.5994 H   0  0  0  0  0  0  0  0  0  0  0  0
    0.1061   -3.4862    2.3100 H   0  0  0  0  0  0  0  0  0  0  0  0
    3.2083   -5.4599   -1.3466 H   0  0  0  0  0  0  0  0  0  0  0  0
    5.5605   -5.8694   -1.8127 H   0  0  0  0  0  0  0  0  0  0  0  0
    8.0304   -5.3176   -1.3699 H   0  0  0  0  0  0  0  0  0  0  0  0
    9.8383   -4.3924   -2.3889 H   0  0  0  0  0  0  0  0  0  0  0  0
   12.2272   -4.7666   -2.8566 H   0  0  0  0  0  0  0  0  0  0  0  0
   13.5764   -1.9779   -1.3159 H   0  0  0  0  0  0  0  0  0  0  0  0
   15.0157   -0.0646   -1.8900 H   0  0  0  0  0  0  0  0  0  0  0  0
   17.4523   -0.4161   -2.3724 H   0  0  0  0  0  0  0  0  0  0  0  0
   18.4211   -2.6780   -2.2809 H   0  0  0  0  0  0  0  0  0  0  0  0
   19.1917   -5.0168    0.0839 H   0  0  0  0  0  0  0  0  0  0  0  0
   21.5877   -5.3315   -0.3922 H   0  0  0  0  0  0  0  0  0  0  0  0
   23.1225   -6.9011   -0.9726 H   0  0  0  0  0  0  0  0  0  0  0  0
   25.4324   -7.7819   -0.2788 H   0  0  0  0  0  0  0  0  0  0  0  0
   27.8043   -8.0517   -0.7632 H   0  0  0  0  0  0  0  0  0  0  0  0
   28.9619   -6.8526   -5.0610 H   0  0  0  0  0  0  0  0  0  0  0  0
   30.5560   -7.2738   -4.4604 H   0  0  0  0  0  0  0  0  0  0  0  0
   29.1779   -4.5546   -3.9468 H   0  0  0  0  0  0  0  0  0  0  0  0
   30.4432   -4.8696   -5.1594 H   0  0  0  0  0  0  0  0  0  0  0  0
   30.8193   -4.9978   -3.4236 H   0  0  0  0  0  0  0  0  0  0  0  0
   30.8278   -8.2831   -2.6604 H   0  0  0  0  0  0  0  0  0  0  0  0
   29.4782   -8.7751   -1.6547 H   0  0  0  0  0  0  0  0  0  0  0  0
   31.1275   -6.1795   -1.3147 H   0  0  0  0  0  0  0  0  0  0  0  0
   31.1797   -7.6206   -0.2699 H   0  0  0  0  0  0  0  0  0  0  0  0
   29.7185   -6.6020   -0.3160 H   0  0  0  0  0  0  0  0  0  0  0  0
   27.2286   -5.9130   -4.5237 H   0  0  0  0  0  0  0  0  0  0  0  0
   20.7055   -5.7104   -4.5979 H   0  0  0  0  0  0  0  0  0  0  0  0
   18.3067   -5.3880   -4.1144 H   0  0  0  0  0  0  0  0  0  0  0  0
   17.8635   -7.5786   -1.5249 H   0  0  0  0  0  0  0  0  0  0  0  0
   16.4265   -9.4930   -0.9426 H   0  0  0  0  0  0  0  0  0  0  0  0
   13.9979   -9.1372   -0.4251 H   0  0  0  0  0  0  0  0  0  0  0  0
   13.0312   -6.8729   -0.5081 H   0  0  0  0  0  0  0  0  0  0  0  0
   13.1712   -3.8886    1.2525 H   0  0  0  0  0  0  0  0  0  0  0  0
   10.7783   -3.5176    1.7294 H   0  0  0  0  0  0  0  0  0  0  0  0
    4.3649   -2.3521    1.4928 H   0  0  0  0  0  0  0  0  0  0  0  0
  1  2  1  0
  1 59  1  0
  1 60  1  0
  1 61  1  0
  2  3  1  0
  2 62  1  0
  2 63  1  0
  3  4  1  0
  3  6  1  0
  4  5  1  0
  4 64  1  0
  4 65  1  0
  5 66  1  0
  5 67  1  0
  5 68  1  0
  6  7  2  0
  6 58  1  0
  7  8  1  0
  7 69  1  0
  8  9  2  0
  8 70  1  0
  9 10  1  0
  9 57  1  0
 10 11  2  0
 10 71  1  0
 11 12  1  0
 11 54  1  0
 12 13  2  0
 12 53  1  0
 13 14  1  0
 13 72  1  0
 14 15  2  0
 14 73  1  0
 15 16  1  0
 15 52  1  0
 16 17  1  0
 16 51  2  0
 17 18  2  0
 17 22  1  0
 18 19  1  0
 18 74  1  0
 19 20  2  0
 19 75  1  0
 20 21  1  0
 20 76  1  0
 21 22  2  0
 21 77  1  0
 22 23  1  0
 23 24  1  0
 23 46  2  0
 24 25  2  0
 24 45  1  0
 25 26  1  0
 25 78  1  0
 26 27  2  0
 26 79  1  0
 27 28  1  0
 27 44  1  0
 28 29  2  0
 28 42  1  0
 29 30  1  0
 29 80  1  0
 30 31  2  0
 30 40  1  0
 31 32  1  0
 31 81  1  0
 32 33  2  0
 32 82  1  0
 33 34  1  0
 33 39  1  0
 34 35  1  0
 34 37  1  0
 35 36  1  0
 35 83  1  0
 35 84  1  0
 36 85  1  0
 36 86  1  0
 36 87  1  0
 37 38  1  0
 37 88  1  0
 37 89  1  0
 38 90  1  0
 38 91  1  0
 38 92  1  0
 39 40  2  0
 39 93  1  0
 40 41  1  0
 41 42  1  0
 42 43  2  0
 44 45  2  0
 44 94  1  0
 45 95  1  0
 46 47  1  0
 46 51  1  0
 47 48  2  0
 47 96  1  0
 48 49  1  0
 48 97  1  0
 49 50  2  0
 49 98  1  0
 50 51  1  0
 50 99  1  0
 52 53  2  0
 52100  1  0
 53101  1  0
 54 55  2  0
 54 56  1  0
 56 57  1  0
 57 58  2  0
 58102  1  0
M  END

