
     RDKit          3D

 44 46  0  0  0  0  0  0  0  0999 V2000
    6.0918    1.2066   -5.4565 C   0  0  0  0  0  0  0  0  0  0  0  0
    5.8485    0.5029   -4.2730 C   0  0  0  0  0  0  0  0  0  0  0  0
    4.5685   -0.0177   -4.0397 C   0  0  0  0  0  0  0  0  0  0  0  0
    4.2427   -0.8201   -2.7984 C   0  0  0  0  0  0  0  0  0  0  0  0
    5.0719   -0.4685   -1.6600 N   0  0  0  0  0  0  0  0  0  0  0  0
    4.8415   -1.2745   -0.4665 C   0  0  0  0  0  0  0  0  0  0  0  0
    5.3879   -2.6857   -0.5793 C   0  0  0  0  0  0  0  0  0  0  0  0
    6.6651   -2.9320   -1.0984 C   0  0  0  0  0  0  0  0  0  0  0  0
    7.1887   -4.2237   -1.1727 C   0  0  0  0  0  0  0  0  0  0  0  0
    6.4566   -5.3394   -0.7081 C   0  0  0  0  0  0  0  0  0  0  0  0
    6.9776   -6.6442   -0.7302 N   0  0  0  0  0  0  0  0  0  0  0  0
    8.3881   -6.8374   -1.0399 C   0  0  0  0  0  0  0  0  0  0  0  0
    8.8995   -8.1802   -0.5058 C   0  0  0  0  0  0  0  0  0  0  0  0
    8.0419   -9.3501   -0.9939 C   0  0  0  0  0  0  0  0  0  0  0  0
    6.5693   -9.0899   -0.6658 C   0  0  0  0  0  0  0  0  0  0  0  0
    6.1223   -7.7320   -1.2090 C   0  0  0  0  0  0  0  0  0  0  0  0
    5.1684   -5.0856   -0.1856 C   0  0  0  0  0  0  0  0  0  0  0  0
    4.6515   -3.7931   -0.1335 C   0  0  0  0  0  0  0  0  0  0  0  0
    3.5997    0.2114   -5.0270 C   0  0  0  0  0  0  0  0  0  0  0  0
    3.9488    0.9242   -6.1769 C   0  0  0  0  0  0  0  0  0  0  0  0
    5.1696    1.4191   -6.3988 N   0  0  0  0  0  0  0  0  0  0  0  0
    7.0899    1.6194   -5.6489 H   0  0  0  0  0  0  0  0  0  0  0  0
    6.6380    0.3596   -3.5334 H   0  0  0  0  0  0  0  0  0  0  0  0
    4.4135   -1.8899   -3.0198 H   0  0  0  0  0  0  0  0  0  0  0  0
    3.1521   -0.7327   -2.5903 H   0  0  0  0  0  0  0  0  0  0  0  0
    4.9633    0.5204   -1.4406 H   0  0  0  0  0  0  0  0  0  0  0  0
    3.7648   -1.3351   -0.1915 H   0  0  0  0  0  0  0  0  0  0  0  0
    5.3418   -0.7568    0.3714 H   0  0  0  0  0  0  0  0  0  0  0  0
    7.2541   -2.0914   -1.4739 H   0  0  0  0  0  0  0  0  0  0  0  0
    8.1763   -4.3585   -1.6134 H   0  0  0  0  0  0  0  0  0  0  0  0
    8.9655   -6.0246   -0.5773 H   0  0  0  0  0  0  0  0  0  0  0  0
    8.5736   -6.7811   -2.1373 H   0  0  0  0  0  0  0  0  0  0  0  0
    8.8832   -8.1483    0.5976 H   0  0  0  0  0  0  0  0  0  0  0  0
    9.9517   -8.3095   -0.8097 H   0  0  0  0  0  0  0  0  0  0  0  0
    8.3831  -10.2975   -0.5449 H   0  0  0  0  0  0  0  0  0  0  0  0
    8.1581   -9.4606   -2.0881 H   0  0  0  0  0  0  0  0  0  0  0  0
    6.4245   -9.1026    0.4287 H   0  0  0  0  0  0  0  0  0  0  0  0
    5.9257   -9.8794   -1.0888 H   0  0  0  0  0  0  0  0  0  0  0  0
    5.0832   -7.5360   -0.9183 H   0  0  0  0  0  0  0  0  0  0  0  0
    6.1369   -7.7628   -2.3226 H   0  0  0  0  0  0  0  0  0  0  0  0
    4.5691   -5.9088    0.2071 H   0  0  0  0  0  0  0  0  0  0  0  0
    3.6495   -3.6419    0.2805 H   0  0  0  0  0  0  0  0  0  0  0  0
    2.5780   -0.1590   -4.9029 H   0  0  0  0  0  0  0  0  0  0  0  0
    3.1975    1.1075   -6.9549 H   0  0  0  0  0  0  0  0  0  0  0  0
  1  2  2  0
  1 21  1  0
  1 22  1  0
  2  3  1  0
  2 23  1  0
  3  4  1  0
  3 19  2  0
  4  5  1  0
  4 24  1  0
  4 25  1  0
  5  6  1  0
  5 26  1  0
  6  7  1  0
  6 27  1  0
  6 28  1  0
  7  8  2  0
  7 18  1  0
  8  9  1  0
  8 29  1  0
  9 10  2  0
  9 30  1  0
 10 11  1  0
 10 17  1  0
 11 12  1  0
 11 16  1  0
 12 13  1  0
 12 31  1  0
 12 32  1  0
 13 14  1  0
 13 33  1  0
 13 34  1  0
 14 15  1  0
 14 35  1  0
 14 36  1  0
 15 16  1  0
 15 37  1  0
 15 38  1  0
 16 39  1  0
 16 40  1  0
 17 18  2  0
 17 41  1  0
 18 42  1  0
 19 20  1  0
 19 43  1  0
 20 21  2  0
 20 44  1  0
M  END

