
     RDKit          3D

 39 40  0  0  0  0  0  0  0  0999 V2000
    2.8201   -0.2058   -1.4187 C   0  0  0  0  0  0  0  0  0  0  0  0
    2.6335   -0.1459   -0.0251 O   0  0  0  0  0  0  0  0  0  0  0  0
    3.0465    1.0285    0.7159 C   0  0  1  0  0  0  0  0  0  0  0  0
    2.4840    0.7117    2.1315 C   0  0  1  0  0  0  0  0  0  0  0  0
    1.0775    0.5602    2.0296 O   0  0  0  0  0  0  0  0  0  0  0  0
    3.1191   -0.5237    2.8021 C   0  0  0  0  0  0  0  0  0  0  0  0
    2.6672   -0.7437    4.2188 C   0  0  0  0  0  0  0  0  0  0  0  0
    1.3213   -0.8794    4.7206 C   0  0  0  0  0  0  0  0  0  0  0  0
    1.4319   -1.0758    6.0660 C   0  0  0  0  0  0  0  0  0  0  0  0
    2.7356   -1.0729    6.4424 O   0  0  0  0  0  0  0  0  0  0  0  0
    3.4719   -0.8699    5.3196 C   0  0  0  0  0  0  0  0  0  0  0  0
    4.5819    1.1528    0.6538 C   0  0  0  0  0  0  0  0  0  0  0  0
    5.2445    2.2440    1.5067 C   0  0  0  0  0  0  0  0  0  0  0  0
    4.8033    3.6924    1.2391 C   0  0  0  0  0  0  0  0  0  0  0  0
    3.4166    4.0516    1.7934 C   0  0  0  0  0  0  0  0  0  0  0  0
    2.1854    3.5198    1.0207 C   0  0  0  0  0  0  0  0  0  0  0  0
    2.3611    2.2836    0.1205 C   0  0  0  0  0  0  0  0  0  0  0  0
    2.4544   -1.1914   -1.7436 H   0  0  0  0  0  0  0  0  0  0  0  0
    3.8825   -0.1252   -1.7130 H   0  0  0  0  0  0  0  0  0  0  0  0
    2.2496    0.5680   -1.9642 H   0  0  0  0  0  0  0  0  0  0  0  0
    2.6503    1.5797    2.7848 H   0  0  0  0  0  0  0  0  0  0  0  0
    0.9493   -0.0440    1.2800 H   0  0  0  0  0  0  0  0  0  0  0  0
    4.2157   -0.4292    2.7994 H   0  0  0  0  0  0  0  0  0  0  0  0
    2.8829   -1.4015    2.1770 H   0  0  0  0  0  0  0  0  0  0  0  0
    0.4083   -0.8109    4.1363 H   0  0  0  0  0  0  0  0  0  0  0  0
    0.7048   -1.2224    6.8610 H   0  0  0  0  0  0  0  0  0  0  0  0
    4.5512   -0.8462    5.4519 H   0  0  0  0  0  0  0  0  0  0  0  0
    4.8564    1.3370   -0.3990 H   0  0  0  0  0  0  0  0  0  0  0  0
    5.0209    0.1755    0.9101 H   0  0  0  0  0  0  0  0  0  0  0  0
    6.3316    2.1714    1.3315 H   0  0  0  0  0  0  0  0  0  0  0  0
    5.1056    2.0258    2.5810 H   0  0  0  0  0  0  0  0  0  0  0  0
    4.8589    3.9103    0.1565 H   0  0  0  0  0  0  0  0  0  0  0  0
    5.5415    4.3611    1.7135 H   0  0  0  0  0  0  0  0  0  0  0  0
    3.3330    5.1494    1.8561 H   0  0  0  0  0  0  0  0  0  0  0  0
    3.3788    3.7032    2.8405 H   0  0  0  0  0  0  0  0  0  0  0  0
    1.8050    4.3219    0.3657 H   0  0  0  0  0  0  0  0  0  0  0  0
    1.3742    3.3166    1.7372 H   0  0  0  0  0  0  0  0  0  0  0  0
    2.9132    2.5730   -0.7891 H   0  0  0  0  0  0  0  0  0  0  0  0
    1.3554    1.9838   -0.2117 H   0  0  0  0  0  0  0  0  0  0  0  0
  1  2  1  0
  1 18  1  0
  1 19  1  0
  1 20  1  0
  3  2  1  6
  3  4  1  0
  3 12  1  0
  3 17  1  0
  4  5  1  0
  4  6  1  0
  4 21  1  1
  5 22  1  0
  6  7  1  0
  6 23  1  0
  6 24  1  0
  7  8  1  0
  7 11  2  0
  8  9  2  0
  8 25  1  0
  9 10  1  0
  9 26  1  0
 10 11  1  0
 11 27  1  0
 12 13  1  0
 12 28  1  0
 12 29  1  0
 13 14  1  0
 13 30  1  0
 13 31  1  0
 14 15  1  0
 14 32  1  0
 14 33  1  0
 15 16  1  0
 15 34  1  0
 15 35  1  0
 16 17  1  0
 16 36  1  0
 16 37  1  0
 17 38  1  0
 17 39  1  0
M  END

