
     RDKit          3D

 65 67  0  0  0  0  0  0  0  0999 V2000
    7.5874   -3.0769   -1.0613 C   0  0  0  0  0  0  0  0  0  0  0  0
    7.3850   -3.8262    0.2584 C   0  0  1  0  0  0  0  0  0  0  0  0
    6.3667   -4.9628    0.1344 C   0  0  0  0  0  0  0  0  0  0  0  0
    8.7168   -4.3427    0.8034 C   0  0  0  0  0  0  0  0  0  0  0  0
    6.9528   -2.8816    1.3061 O   0  0  0  0  0  0  0  0  0  0  0  0
    5.8141   -2.1970    1.2228 C   0  0  0  0  0  0  0  0  0  0  0  0
    5.0049   -2.2486    0.3161 O   0  0  0  0  0  0  0  0  0  0  0  0
    5.6480   -1.3862    2.3410 N   0  0  0  0  0  0  0  0  0  0  0  0
    6.4756   -1.2894    3.4856 C   0  0  0  0  0  0  0  0  0  0  0  0
    5.8493   -0.4095    4.3176 C   0  0  0  0  0  0  0  0  0  0  0  0
    6.2855    0.0724    5.6669 C   0  0  0  0  0  0  0  0  0  0  0  0
    6.5381    1.5879    5.7187 C   0  0  0  0  0  0  0  0  0  0  0  0
    6.8947    2.0998    7.1163 C   0  0  0  0  0  0  0  0  0  0  0  0
    7.1610    3.6063    7.1656 C   0  0  0  0  0  0  0  0  0  0  0  0
    7.5062    4.1205    8.5734 C   0  0  0  0  0  0  0  0  0  0  0  0
    7.8317    5.5830    8.6100 C   0  0  0  0  0  0  0  0  0  0  0  0
    7.1376    6.6454    9.1625 C   0  0  0  0  0  0  0  0  0  0  0  0
    7.9026    7.7353    8.8796 N   0  0  0  0  0  0  0  0  0  0  0  0
    7.6500    9.1372    9.1570 C   0  0  0  0  0  0  0  0  0  0  0  0
    7.0808    9.8663    7.9269 C   0  0  0  0  0  0  0  0  0  0  0  0
    6.8591   11.2777    8.1702 N   0  0  0  0  0  0  0  0  0  0  0  0
    5.7788   11.7143    8.8805 C   0  0  0  0  0  0  0  0  0  0  0  0
    4.9566   10.9414    9.3684 O   0  0  0  0  0  0  0  0  0  0  0  0
    5.6251   13.1742    9.0458 C   0  0  0  0  0  0  0  0  0  0  0  0
    6.3326   14.2989    8.6248 C   0  0  0  0  0  0  0  0  0  0  0  0
    5.6348   15.4225    9.1319 C   0  0  0  0  0  0  0  0  0  0  0  0
    6.1088   17.2324    8.8933 Br  0  0  0  0  0  0  0  0  0  0  0  0
    4.5300   14.9654    9.8412 C   0  0  0  0  0  0  0  0  0  0  0  0
    4.5476   13.6071    9.7744 N   0  0  0  0  0  0  0  0  0  0  0  0
    3.8862   12.9497   10.1767 H   0  0  0  0  0  0  0  0  0  0  0  0
    8.9947    7.3757    8.1861 N   0  0  0  0  0  0  0  0  0  0  0  0
    8.9579    6.0886    8.0246 N   0  0  0  0  0  0  0  0  0  0  0  0
    4.6671    0.0578    3.7487 N   0  0  0  0  0  0  0  0  0  0  0  0
    4.5656   -0.5246    2.5840 C   0  0  0  0  0  0  0  0  0  0  0  0
    3.5833   -0.3254    1.6675 N   0  0  0  0  0  0  0  0  0  0  0  0
    8.0204   -3.7603   -1.8081 H   0  0  0  0  0  0  0  0  0  0  0  0
    8.2856   -2.2368   -0.9232 H   0  0  0  0  0  0  0  0  0  0  0  0
    6.6374   -2.6890   -1.4504 H   0  0  0  0  0  0  0  0  0  0  0  0
    6.7504   -5.7243   -0.5622 H   0  0  0  0  0  0  0  0  0  0  0  0
    5.4033   -4.5969   -0.2425 H   0  0  0  0  0  0  0  0  0  0  0  0
    6.2077   -5.4449    1.1116 H   0  0  0  0  0  0  0  0  0  0  0  0
    9.1554   -5.0693    0.1031 H   0  0  0  0  0  0  0  0  0  0  0  0
    8.5731   -4.8381    1.7754 H   0  0  0  0  0  0  0  0  0  0  0  0
    9.4287   -3.5146    0.9382 H   0  0  0  0  0  0  0  0  0  0  0  0
    7.3932   -1.8601    3.5644 H   0  0  0  0  0  0  0  0  0  0  0  0
    7.1922   -0.4748    5.9748 H   0  0  0  0  0  0  0  0  0  0  0  0
    5.4983   -0.1807    6.4009 H   0  0  0  0  0  0  0  0  0  0  0  0
    5.6360    2.1031    5.3475 H   0  0  0  0  0  0  0  0  0  0  0  0
    7.3482    1.8432    5.0123 H   0  0  0  0  0  0  0  0  0  0  0  0
    7.7853    1.5610    7.4912 H   0  0  0  0  0  0  0  0  0  0  0  0
    6.0764    1.8474    7.8168 H   0  0  0  0  0  0  0  0  0  0  0  0
    6.2780    4.1515    6.7865 H   0  0  0  0  0  0  0  0  0  0  0  0
    7.9922    3.8632    6.4869 H   0  0  0  0  0  0  0  0  0  0  0  0
    8.3750    3.5580    8.9574 H   0  0  0  0  0  0  0  0  0  0  0  0
    6.6704    3.9168    9.2635 H   0  0  0  0  0  0  0  0  0  0  0  0
    6.2065    6.7108    9.7192 H   0  0  0  0  0  0  0  0  0  0  0  0
    8.6003    9.5962    9.4666 H   0  0  0  0  0  0  0  0  0  0  0  0
    6.9353    9.2062    9.9880 H   0  0  0  0  0  0  0  0  0  0  0  0
    6.1249    9.3974    7.6466 H   0  0  0  0  0  0  0  0  0  0  0  0
    7.7785    9.7542    7.0847 H   0  0  0  0  0  0  0  0  0  0  0  0
    7.5298   11.9494    7.8199 H   0  0  0  0  0  0  0  0  0  0  0  0
    7.2389   14.3277    8.0239 H   0  0  0  0  0  0  0  0  0  0  0  0
    3.7581   15.5166   10.3717 H   0  0  0  0  0  0  0  0  0  0  0  0
    2.7640    0.1698    1.9923 H   0  0  0  0  0  0  0  0  0  0  0  0
    3.5218   -0.9711    0.8883 H   0  0  0  0  0  0  0  0  0  0  0  0
  1  2  1  0
  1 36  1  0
  1 37  1  0
  1 38  1  0
  2  3  1  0
  2  4  1  0
  2  5  1  1
  3 39  1  0
  3 40  1  0
  3 41  1  0
  4 42  1  0
  4 43  1  0
  4 44  1  0
  5  6  1  0
  6  7  2  0
  6  8  1  0
  8  9  1  0
  8 34  1  0
  9 10  2  0
  9 45  1  0
 10 11  1  0
 10 33  1  0
 11 12  1  0
 11 46  1  0
 11 47  1  0
 12 13  1  0
 12 48  1  0
 12 49  1  0
 13 14  1  0
 13 50  1  0
 13 51  1  0
 14 15  1  0
 14 52  1  0
 14 53  1  0
 15 16  1  0
 15 54  1  0
 15 55  1  0
 16 17  2  0
 16 32  1  0
 17 18  1  0
 17 56  1  0
 18 19  1  0
 18 31  1  0
 19 20  1  0
 19 57  1  0
 19 58  1  0
 20 21  1  0
 20 59  1  0
 20 60  1  0
 21 22  1  0
 21 61  1  0
 22 23  2  0
 22 24  1  0
 24 25  2  0
 24 29  1  0
 25 26  1  0
 25 62  1  0
 26 27  1  0
 26 28  2  0
 28 29  1  0
 28 63  1  0
 29 30  1  0
 31 32  2  0
 33 34  2  0
 34 35  1  0
 35 64  1  0
 35 65  1  0
M  END

