
     RDKit          3D

 41 44  0  0  0  0  0  0  0  0999 V2000
    1.8758    0.5366    1.5508 O   0  0  0  0  0  0  0  0  0  0  0  0
    2.8841    0.4060    0.6473 C   0  0  0  0  0  0  0  0  0  0  0  0
    3.3332    1.4799   -0.1375 C   0  0  0  0  0  0  0  0  0  0  0  0
    4.3838    1.2724   -1.0324 C   0  0  0  0  0  0  0  0  0  0  0  0
    4.9857    0.0195   -1.1555 C   0  0  0  0  0  0  0  0  0  0  0  0
    4.5397   -1.0745   -0.3783 C   0  0  0  0  0  0  0  0  0  0  0  0
    5.1520   -2.4096   -0.5232 C   0  0  0  0  0  0  0  0  0  0  0  0
    4.5056   -3.5657   -0.1999 C   0  0  0  0  0  0  0  0  0  0  0  0
    5.1624   -4.8438   -0.3333 C   0  0  0  0  0  0  0  0  0  0  0  0
    4.7906   -6.2230   -0.0946 C   0  0  0  0  0  0  0  0  0  0  0  0
    3.4474   -6.7653    0.1567 C   0  0  0  0  0  0  0  0  0  0  0  0
    2.2998   -6.1716   -0.4041 C   0  0  0  0  0  0  0  0  0  0  0  0
    1.0278   -6.6983   -0.1766 C   0  0  0  0  0  0  0  0  0  0  0  0
    0.8703   -7.8393    0.6154 C   0  0  0  0  0  0  0  0  0  0  0  0
   -0.4872   -8.4442    0.8549 C   0  0  1  0  0  0  0  0  0  0  0  0
   -1.4833   -7.6616    0.4051 F   0  0  0  0  0  0  0  0  0  0  0  0
   -0.6158   -9.6394    0.2419 F   0  0  0  0  0  0  0  0  0  0  0  0
   -0.7103   -8.6643    2.1660 F   0  0  0  0  0  0  0  0  0  0  0  0
    2.0007   -8.4454    1.1824 C   0  0  0  0  0  0  0  0  0  0  0  0
    3.2660   -7.9118    0.9601 C   0  0  0  0  0  0  0  0  0  0  0  0
    5.9545   -6.9684   -0.1777 C   0  0  0  0  0  0  0  0  0  0  0  0
    7.0127   -6.1078   -0.4553 N   0  0  0  0  0  0  0  0  0  0  0  0
    7.9738   -6.3957   -0.5828 H   0  0  0  0  0  0  0  0  0  0  0  0
    6.5396   -4.8339   -0.5514 C   0  0  0  0  0  0  0  0  0  0  0  0
    7.2691   -3.6782   -0.6837 N   0  0  0  0  0  0  0  0  0  0  0  0
    6.5345   -2.5038   -1.1659 C   0  0  0  0  0  0  0  0  0  0  0  0
    3.4856   -0.8498    0.5292 C   0  0  0  0  0  0  0  0  0  0  0  0
    1.5572    1.4484    1.5460 H   0  0  0  0  0  0  0  0  0  0  0  0
    2.8676    2.4657   -0.0405 H   0  0  0  0  0  0  0  0  0  0  0  0
    4.7362    2.1044   -1.6479 H   0  0  0  0  0  0  0  0  0  0  0  0
    5.7901   -0.1088   -1.8813 H   0  0  0  0  0  0  0  0  0  0  0  0
    3.4863   -3.5296    0.1895 H   0  0  0  0  0  0  0  0  0  0  0  0
    2.4076   -5.2984   -1.0498 H   0  0  0  0  0  0  0  0  0  0  0  0
    0.1526   -6.2234   -0.6229 H   0  0  0  0  0  0  0  0  0  0  0  0
    1.8855   -9.3293    1.8141 H   0  0  0  0  0  0  0  0  0  0  0  0
    4.1343   -8.3735    1.4354 H   0  0  0  0  0  0  0  0  0  0  0  0
    6.1089   -8.0431   -0.1374 H   0  0  0  0  0  0  0  0  0  0  0  0
    8.2207   -3.7599   -1.0230 H   0  0  0  0  0  0  0  0  0  0  0  0
    6.4333   -2.5189   -2.2778 H   0  0  0  0  0  0  0  0  0  0  0  0
    7.1294   -1.6126   -0.9158 H   0  0  0  0  0  0  0  0  0  0  0  0
    3.1283   -1.6447    1.1851 H   0  0  0  0  0  0  0  0  0  0  0  0
  1  2  1  0
  1 28  1  0
  2  3  2  0
  2 27  1  0
  3  4  1  0
  3 29  1  0
  4  5  2  0
  4 30  1  0
  5  6  1  0
  5 31  1  0
  6  7  1  0
  6 27  2  0
  7  8  2  0
  7 26  1  0
  8  9  1  0
  8 32  1  0
  9 10  1  0
  9 24  2  0
 10 11  1  0
 10 21  2  0
 11 12  2  0
 11 20  1  0
 12 13  1  0
 12 33  1  0
 13 14  2  0
 13 34  1  0
 14 15  1  0
 14 19  1  0
 15 16  1  6
 15 17  1  0
 15 18  1  0
 19 20  2  0
 19 35  1  0
 20 36  1  0
 21 22  1  0
 21 37  1  0
 22 23  1  0
 22 24  1  0
 24 25  1  0
 25 26  1  0
 25 38  1  0
 26 39  1  0
 26 40  1  0
 27 41  1  0
M  END

