
     RDKit          3D

 56 58  0  0  0  0  0  0  0  0999 V2000
    8.5848   -5.5352    1.5781 C   0  0  0  0  0  0  0  0  0  0  0  0
    7.2867   -5.1828    0.8497 C   0  0  0  0  0  0  0  0  0  0  0  0
    6.3237   -6.3676    0.7299 C   0  0  0  0  0  0  0  0  0  0  0  0
    4.9769   -6.0563    0.0637 C   0  0  0  0  0  0  0  0  0  0  0  0
    5.0627   -5.6286   -1.3257 N   0  0  0  0  0  0  0  0  0  0  0  0
    5.0140   -4.2414   -1.7686 C   0  0  0  0  0  0  0  0  0  0  0  0
    4.6824   -4.3511   -3.2836 C   0  0  2  0  0  0  0  0  0  0  0  0
    3.1726   -4.1502   -3.5065 C   0  0  0  0  0  0  0  0  0  0  0  0
    2.7247   -3.0180   -3.5903 O   0  0  0  0  0  0  0  0  0  0  0  0
    2.4069   -5.2857   -3.5477 N   0  0  0  0  0  0  0  0  0  0  0  0
    1.0040   -5.4041   -3.6852 C   0  0  0  0  0  0  0  0  0  0  0  0
    0.1356   -4.3150   -3.8413 C   0  0  0  0  0  0  0  0  0  0  0  0
   -1.2404   -4.5233   -3.9660 C   0  0  0  0  0  0  0  0  0  0  0  0
   -1.8093   -5.8135   -3.9581 C   0  0  0  0  0  0  0  0  0  0  0  0
   -3.1875   -6.0343   -4.1299 N   0  0  0  0  0  0  0  0  0  0  0  0
   -4.0394   -4.9028   -4.4737 C   0  0  0  0  0  0  0  0  0  0  0  0
   -5.3806   -5.3928   -5.0451 C   0  0  0  0  0  0  0  0  0  0  0  0
   -6.0777   -6.3465   -4.1956 N   0  0  0  0  0  0  0  0  0  0  0  0
   -6.8048   -5.7736   -3.0782 C   0  0  0  0  0  0  0  0  0  0  0  0
   -5.1916   -7.4529   -3.8646 C   0  0  0  0  0  0  0  0  0  0  0  0
   -3.8518   -7.0093   -3.2615 C   0  0  0  0  0  0  0  0  0  0  0  0
   -0.9169   -6.8989   -3.8027 C   0  0  0  0  0  0  0  0  0  0  0  0
    0.4509   -6.6970   -3.6662 C   0  0  0  0  0  0  0  0  0  0  0  0
    5.2672   -5.7224   -3.6506 C   0  0  0  0  0  0  0  0  0  0  0  0
    5.1780   -6.5296   -2.3514 C   0  0  0  0  0  0  0  0  0  0  0  0
    5.2013   -7.7409   -2.2351 O   0  0  0  0  0  0  0  0  0  0  0  0
    9.2612   -4.6681    1.6432 H   0  0  0  0  0  0  0  0  0  0  0  0
    9.1269   -6.3433    1.0593 H   0  0  0  0  0  0  0  0  0  0  0  0
    8.3861   -5.8807    2.6065 H   0  0  0  0  0  0  0  0  0  0  0  0
    7.5293   -4.8030   -0.1585 H   0  0  0  0  0  0  0  0  0  0  0  0
    6.7822   -4.3507    1.3751 H   0  0  0  0  0  0  0  0  0  0  0  0
    6.1090   -6.7673    1.7378 H   0  0  0  0  0  0  0  0  0  0  0  0
    6.8039   -7.1897    0.1721 H   0  0  0  0  0  0  0  0  0  0  0  0
    4.4409   -5.2721    0.6243 H   0  0  0  0  0  0  0  0  0  0  0  0
    4.3560   -6.9660    0.0842 H   0  0  0  0  0  0  0  0  0  0  0  0
    5.9811   -3.7270   -1.6163 H   0  0  0  0  0  0  0  0  0  0  0  0
    4.2496   -3.6702   -1.2176 H   0  0  0  0  0  0  0  0  0  0  0  0
    5.1497   -3.5223   -3.8314 H   0  0  0  0  0  0  0  0  0  0  0  0
    2.8892   -6.1722   -3.4597 H   0  0  0  0  0  0  0  0  0  0  0  0
    0.5428   -3.3066   -3.8511 H   0  0  0  0  0  0  0  0  0  0  0  0
   -1.8757   -3.6432   -4.0619 H   0  0  0  0  0  0  0  0  0  0  0  0
   -3.5366   -4.2945   -5.2402 H   0  0  0  0  0  0  0  0  0  0  0  0
   -4.2132   -4.2390   -3.5973 H   0  0  0  0  0  0  0  0  0  0  0  0
   -5.1786   -5.8795   -6.0165 H   0  0  0  0  0  0  0  0  0  0  0  0
   -6.0350   -4.5278   -5.2403 H   0  0  0  0  0  0  0  0  0  0  0  0
   -7.5220   -5.0243   -3.4514 H   0  0  0  0  0  0  0  0  0  0  0  0
   -6.1823   -5.2756   -2.3025 H   0  0  0  0  0  0  0  0  0  0  0  0
   -7.3855   -6.5629   -2.5732 H   0  0  0  0  0  0  0  0  0  0  0  0
   -4.9821   -8.0181   -4.7912 H   0  0  0  0  0  0  0  0  0  0  0  0
   -5.7029   -8.1375   -3.1683 H   0  0  0  0  0  0  0  0  0  0  0  0
   -3.2120   -7.8913   -3.1294 H   0  0  0  0  0  0  0  0  0  0  0  0
   -4.0119   -6.5792   -2.2480 H   0  0  0  0  0  0  0  0  0  0  0  0
   -1.2924   -7.9230   -3.8140 H   0  0  0  0  0  0  0  0  0  0  0  0
    1.1072   -7.5659   -3.5536 H   0  0  0  0  0  0  0  0  0  0  0  0
    6.3338   -5.6346   -3.9195 H   0  0  0  0  0  0  0  0  0  0  0  0
    4.7757   -6.2418   -4.4856 H   0  0  0  0  0  0  0  0  0  0  0  0
  1  2  1  0
  1 27  1  0
  1 28  1  0
  1 29  1  0
  2  3  1  0
  2 30  1  0
  2 31  1  0
  3  4  1  0
  3 32  1  0
  3 33  1  0
  4  5  1  0
  4 34  1  0
  4 35  1  0
  5  6  1  0
  5 25  1  0
  6  7  1  0
  6 36  1  0
  6 37  1  0
  7  8  1  0
  7 24  1  0
  7 38  1  6
  8  9  2  0
  8 10  1  0
 10 11  1  0
 10 39  1  0
 11 12  2  0
 11 23  1  0
 12 13  1  0
 12 40  1  0
 13 14  2  0
 13 41  1  0
 14 15  1  0
 14 22  1  0
 15 16  1  0
 15 21  1  0
 16 17  1  0
 16 42  1  0
 16 43  1  0
 17 18  1  0
 17 44  1  0
 17 45  1  0
 18 19  1  0
 18 20  1  0
 19 46  1  0
 19 47  1  0
 19 48  1  0
 20 21  1  0
 20 49  1  0
 20 50  1  0
 21 51  1  0
 21 52  1  0
 22 23  2  0
 22 53  1  0
 23 54  1  0
 24 25  1  0
 24 55  1  0
 24 56  1  0
 25 26  2  0
M  END

