
     RDKit          3D

 63 69  0  0  0  0  0  0  0  0999 V2000
    2.8910    5.4334    3.7385 C   0  0  0  0  0  0  0  0  0  0  0  0
    4.1858    5.5211    4.2965 O   0  0  0  0  0  0  0  0  0  0  0  0
    4.8229    4.3964    4.6875 C   0  0  0  0  0  0  0  0  0  0  0  0
    4.2895    3.1001    4.5865 C   0  0  0  0  0  0  0  0  0  0  0  0
    5.0350    2.0059    5.0249 C   0  0  0  0  0  0  0  0  0  0  0  0
    6.3166    2.1660    5.5834 C   0  0  0  0  0  0  0  0  0  0  0  0
    7.0833    0.9972    6.0064 C   0  0  0  0  0  0  0  0  0  0  0  0
    6.8828   -0.1271    5.2290 O   0  0  0  0  0  0  0  0  0  0  0  0
    7.6915   -1.1165    5.7021 C   0  0  0  0  0  0  0  0  0  0  0  0
    7.8195   -2.4269    5.2636 C   0  0  0  0  0  0  0  0  0  0  0  0
    8.7314   -3.2189    5.9812 C   0  0  0  0  0  0  0  0  0  0  0  0
    9.4858   -2.7290    7.0603 C   0  0  0  0  0  0  0  0  0  0  0  0
    9.3614   -1.3894    7.4925 C   0  0  0  0  0  0  0  0  0  0  0  0
   10.0391   -0.6895    8.6031 C   0  0  0  0  0  0  0  0  0  0  0  0
   11.0970   -1.2094    9.3404 C   0  0  0  0  0  0  0  0  0  0  0  0
   11.8367   -2.4603    9.0052 C   0  0  0  0  0  0  0  0  0  0  0  0
   12.6864   -2.4997    7.8932 C   0  0  0  0  0  0  0  0  0  0  0  0
   13.4047   -3.6533    7.5625 C   0  0  0  0  0  0  0  0  0  0  0  0
   13.2790   -4.8022    8.3584 C   0  0  0  0  0  0  0  0  0  0  0  0
   13.9233   -5.9717    8.1279 O   0  0  0  0  0  0  0  0  0  0  0  0
   14.8149   -6.0687    7.0400 C   0  0  0  0  0  0  0  0  0  0  0  0
   12.4372   -4.7696    9.4855 C   0  0  0  0  0  0  0  0  0  0  0  0
   11.7387   -3.6128    9.8075 C   0  0  0  0  0  0  0  0  0  0  0  0
   11.5810   -0.4977   10.5087 C   0  0  0  0  0  0  0  0  0  0  0  0
   12.5547   -0.9589   11.2338 N   0  0  0  0  0  0  0  0  0  0  0  0
   12.9770   -0.2866   12.6905 S   0  0  1  0  0  0  0  0  0  0  0  0
   11.8254   -0.1417   13.5789 O   0  0  0  0  0  0  0  0  0  0  0  0
   14.1946   -0.9520   13.1259 O   0  0  0  0  0  0  0  0  0  0  0  0
   13.5397    1.4936   12.2719 C   0  0  1  0  0  0  0  0  0  0  0  0
   13.8385    1.6056   10.9750 F   0  0  0  0  0  0  0  0  0  0  0  0
   12.5862    2.3747   12.5689 F   0  0  0  0  0  0  0  0  0  0  0  0
   14.6195    1.7752   12.9885 F   0  0  0  0  0  0  0  0  0  0  0  0
   10.9980    0.6689   10.8517 O   0  0  0  0  0  0  0  0  0  0  0  0
   10.0313    1.2707   10.1050 C   0  0  0  0  0  0  0  0  0  0  0  0
    9.5938    2.5104   10.5708 C   0  0  0  0  0  0  0  0  0  0  0  0
    8.5995    3.1712    9.8572 C   0  0  0  0  0  0  0  0  0  0  0  0
    8.0770    2.6117    8.6891 C   0  0  0  0  0  0  0  0  0  0  0  0
    8.5265    1.3736    8.2065 C   0  0  0  0  0  0  0  0  0  0  0  0
    8.0083    0.7234    7.0090 C   0  0  0  0  0  0  0  0  0  0  0  0
    8.4244   -0.6230    6.7826 C   0  0  0  0  0  0  0  0  0  0  0  0
    9.5216    0.6478    8.9501 C   0  0  0  0  0  0  0  0  0  0  0  0
    6.8470    3.4731    5.6560 C   0  0  0  0  0  0  0  0  0  0  0  0
    6.1150    4.5681    5.2206 C   0  0  0  0  0  0  0  0  0  0  0  0
    2.5846    6.4605    3.5008 H   0  0  0  0  0  0  0  0  0  0  0  0
    2.1673    4.9991    4.4507 H   0  0  0  0  0  0  0  0  0  0  0  0
    2.8851    4.8336    2.8111 H   0  0  0  0  0  0  0  0  0  0  0  0
    3.2962    2.9327    4.1703 H   0  0  0  0  0  0  0  0  0  0  0  0
    4.6129    1.0032    4.9383 H   0  0  0  0  0  0  0  0  0  0  0  0
    7.2443   -2.8203    4.4241 H   0  0  0  0  0  0  0  0  0  0  0  0
    8.8642   -4.2631    5.6890 H   0  0  0  0  0  0  0  0  0  0  0  0
   10.1643   -3.4128    7.5620 H   0  0  0  0  0  0  0  0  0  0  0  0
   12.7928   -1.6115    7.2654 H   0  0  0  0  0  0  0  0  0  0  0  0
   14.0595   -3.6402    6.6912 H   0  0  0  0  0  0  0  0  0  0  0  0
   15.2236   -7.0879    7.0603 H   0  0  0  0  0  0  0  0  0  0  0  0
   15.6477   -5.3478    7.1258 H   0  0  0  0  0  0  0  0  0  0  0  0
   14.3042   -5.9081    6.0730 H   0  0  0  0  0  0  0  0  0  0  0  0
   12.3620   -5.6671   10.1024 H   0  0  0  0  0  0  0  0  0  0  0  0
   11.1040   -3.5997   10.6961 H   0  0  0  0  0  0  0  0  0  0  0  0
   10.0414    2.9155   11.4787 H   0  0  0  0  0  0  0  0  0  0  0  0
    8.2263    4.1350   10.2110 H   0  0  0  0  0  0  0  0  0  0  0  0
    7.2919    3.1406    8.1514 H   0  0  0  0  0  0  0  0  0  0  0  0
    7.8613    3.6260    6.0284 H   0  0  0  0  0  0  0  0  0  0  0  0
    6.5263    5.5783    5.2655 H   0  0  0  0  0  0  0  0  0  0  0  0
  1  2  1  0
  1 44  1  0
  1 45  1  0
  1 46  1  0
  2  3  1  0
  3  4  2  0
  3 43  1  0
  4  5  1  0
  4 47  1  0
  5  6  2  0
  5 48  1  0
  6  7  1  0
  6 42  1  0
  7  8  1  0
  7 39  2  0
  8  9  1  0
  9 10  2  0
  9 40  1  0
 10 11  1  0
 10 49  1  0
 11 12  2  0
 11 50  1  0
 12 13  1  0
 12 51  1  0
 13 14  1  0
 13 40  2  0
 14 15  2  0
 14 41  1  0
 15 16  1  0
 15 24  1  0
 16 17  2  0
 16 23  1  0
 17 18  1  0
 17 52  1  0
 18 19  2  0
 18 53  1  0
 19 20  1  0
 19 22  1  0
 20 21  1  0
 21 54  1  0
 21 55  1  0
 21 56  1  0
 22 23  2  0
 22 57  1  0
 23 58  1  0
 24 25  2  0
 24 33  1  0
 26 25  1  6
 26 27  2  0
 26 28  2  0
 26 29  1  0
 29 30  1  6
 29 31  1  0
 29 32  1  0
 33 34  1  0
 34 35  1  0
 34 41  2  0
 35 36  2  0
 35 59  1  0
 36 37  1  0
 36 60  1  0
 37 38  2  0
 37 61  1  0
 38 39  1  0
 38 41  1  0
 39 40  1  0
 42 43  2  0
 42 62  1  0
 43 63  1  0
M  END

