
     RDKit          3D

 37 39  0  0  0  0  0  0  0  0999 V2000
    3.6137    1.0606    0.2248 O   0  0  0  0  0  0  0  0  0  0  0  0
    2.9540   -0.1759    0.0371 C   0  0  0  0  0  0  0  0  0  0  0  0
    3.1442   -1.0585    1.2504 C   0  0  0  0  0  0  0  0  0  0  0  0
    2.8274   -2.4378    1.1721 C   0  0  0  0  0  0  0  0  0  0  0  0
    2.9658   -3.2780    2.2697 C   0  0  0  0  0  0  0  0  0  0  0  0
    3.4469   -2.7520    3.4855 C   0  0  0  0  0  0  0  0  0  0  0  0
    3.7274   -3.2997    4.7836 C   0  0  0  0  0  0  0  0  0  0  0  0
    4.1967   -2.2651    5.5567 C   0  0  0  0  0  0  0  0  0  0  0  0
    4.2272   -1.0911    4.8242 N   0  0  0  0  0  0  0  0  0  0  0  0
    4.7259    0.1863    5.3111 C   0  0  0  0  0  0  0  0  0  0  0  0
    6.2533    0.2727    5.4351 C   0  0  0  0  0  0  0  0  0  0  0  0
    7.0413    0.1447    4.1327 C   0  0  1  0  0  0  0  0  0  0  0  0
    6.9280    1.3089    3.1363 C   0  0  0  0  0  0  0  0  0  0  0  0
    8.2808    1.2387    2.4175 C   0  0  0  0  0  0  0  0  0  0  0  0
    9.2221    0.8199    3.5529 C   0  0  0  0  0  0  0  0  0  0  0  0
    8.4317    0.0753    4.4720 O   0  0  0  0  0  0  0  0  0  0  0  0
    3.7696   -1.3651    3.5473 C   0  0  0  0  0  0  0  0  0  0  0  0
    3.6093   -0.5138    2.4441 C   0  0  0  0  0  0  0  0  0  0  0  0
    3.4023    1.6342   -0.5211 H   0  0  0  0  0  0  0  0  0  0  0  0
    3.3380   -0.7083   -0.8576 H   0  0  0  0  0  0  0  0  0  0  0  0
    1.8669   -0.0224   -0.1335 H   0  0  0  0  0  0  0  0  0  0  0  0
    2.4688   -2.8483    0.2231 H   0  0  0  0  0  0  0  0  0  0  0  0
    2.7138   -4.3387    2.1881 H   0  0  0  0  0  0  0  0  0  0  0  0
    3.5938   -4.3302    5.1063 H   0  0  0  0  0  0  0  0  0  0  0  0
    4.5173   -2.2663    6.5976 H   0  0  0  0  0  0  0  0  0  0  0  0
    4.2771    0.3789    6.2998 H   0  0  0  0  0  0  0  0  0  0  0  0
    4.3442    0.9712    4.6417 H   0  0  0  0  0  0  0  0  0  0  0  0
    6.6094   -0.5154    6.1188 H   0  0  0  0  0  0  0  0  0  0  0  0
    6.5119    1.2350    5.9107 H   0  0  0  0  0  0  0  0  0  0  0  0
    6.7505   -0.7974    3.6266 H   0  0  0  0  0  0  0  0  0  0  0  0
    6.8296    2.2653    3.6803 H   0  0  0  0  0  0  0  0  0  0  0  0
    6.0751    1.2133    2.4495 H   0  0  0  0  0  0  0  0  0  0  0  0
    8.5758    2.1860    1.9412 H   0  0  0  0  0  0  0  0  0  0  0  0
    8.2516    0.4640    1.6338 H   0  0  0  0  0  0  0  0  0  0  0  0
    9.6517    1.7039    4.0639 H   0  0  0  0  0  0  0  0  0  0  0  0
   10.0643    0.1977    3.2033 H   0  0  0  0  0  0  0  0  0  0  0  0
    3.8409    0.5496    2.4872 H   0  0  0  0  0  0  0  0  0  0  0  0
  1  2  1  0
  1 19  1  0
  2  3  1  0
  2 20  1  0
  2 21  1  0
  3  4  2  0
  3 18  1  0
  4  5  1  0
  4 22  1  0
  5  6  2  0
  5 23  1  0
  6  7  1  0
  6 17  1  0
  7  8  2  0
  7 24  1  0
  8  9  1  0
  8 25  1  0
  9 10  1  0
  9 17  1  0
 10 11  1  0
 10 26  1  0
 10 27  1  0
 11 12  1  0
 11 28  1  0
 11 29  1  0
 12 13  1  0
 12 16  1  0
 12 30  1  6
 13 14  1  0
 13 31  1  0
 13 32  1  0
 14 15  1  0
 14 33  1  0
 14 34  1  0
 15 16  1  0
 15 35  1  0
 15 36  1  0
 17 18  2  0
 18 37  1  0
M  END

