
     RDKit          3D

 31 32  0  0  0  0  0  0  0  0999 V2000
    1.4190    0.7385    1.2282 O   0  0  0  0  0  0  0  0  0  0  0  0
    2.5144    0.4517    0.7519 C   0  0  0  0  0  0  0  0  0  0  0  0
    3.1038    1.2000   -0.2535 N   0  0  0  0  0  0  0  0  0  0  0  0
    2.4560    2.2228   -0.9184 N   0  0  0  0  0  0  0  0  0  0  0  0
    2.1512    3.4365   -0.1456 C   0  0  2  0  0  0  0  0  0  0  0  0
    0.8439    3.4308    0.4896 N   0  0  0  0  0  0  0  0  0  0  0  0
   -0.2296    4.0611   -0.0749 C   0  0  0  0  0  0  0  0  0  0  0  0
   -0.0634    4.9918   -1.0530 C   0  0  0  0  0  0  0  0  0  0  0  0
    1.2156    5.3199   -1.4833 N   0  0  0  0  0  0  0  0  0  0  0  0
    2.2069    4.6634   -1.0451 C   0  0  0  0  0  0  0  0  0  0  0  0
    3.8433    5.0987   -1.5397 Cl  0  0  0  0  0  0  0  0  0  0  0  0
    3.2621   -0.6137    1.1757 N   0  0  0  0  0  0  0  0  0  0  0  0
    2.8496   -1.4870    2.2651 C   0  0  1  0  0  0  0  0  0  0  0  0
    2.7389   -2.9659    1.7964 C   0  0  0  0  0  0  0  0  0  0  0  0
    4.0647   -3.5630    2.2081 C   0  0  0  0  0  0  0  0  0  0  0  0
    4.7092   -2.7772    3.0816 C   0  0  0  0  0  0  0  0  0  0  0  0
    3.9184   -1.5280    3.3943 C   0  0  0  0  0  0  0  0  0  0  0  0
    4.0153    0.9466   -0.6203 H   0  0  0  0  0  0  0  0  0  0  0  0
    1.6388    1.8885   -1.4305 H   0  0  0  0  0  0  0  0  0  0  0  0
    2.9494    3.4897    0.6139 H   0  0  0  0  0  0  0  0  0  0  0  0
    0.6939    2.6096    1.0769 H   0  0  0  0  0  0  0  0  0  0  0  0
   -1.2109    3.8077    0.3335 H   0  0  0  0  0  0  0  0  0  0  0  0
   -0.8984    5.5412   -1.4878 H   0  0  0  0  0  0  0  0  0  0  0  0
    4.1386   -0.8255    0.7121 H   0  0  0  0  0  0  0  0  0  0  0  0
    1.8890   -1.0859    2.6100 H   0  0  0  0  0  0  0  0  0  0  0  0
    2.5290   -3.0332    0.7161 H   0  0  0  0  0  0  0  0  0  0  0  0
    1.9048   -3.4817    2.3083 H   0  0  0  0  0  0  0  0  0  0  0  0
    4.4157   -4.5386    1.8620 H   0  0  0  0  0  0  0  0  0  0  0  0
    5.6652   -3.0153    3.5551 H   0  0  0  0  0  0  0  0  0  0  0  0
    4.5214   -0.6052    3.4145 H   0  0  0  0  0  0  0  0  0  0  0  0
    3.4404   -1.6095    4.3886 H   0  0  0  0  0  0  0  0  0  0  0  0
  1  2  2  0
  2  3  1  0
  2 12  1  0
  3  4  1  0
  3 18  1  0
  4  5  1  0
  4 19  1  0
  5  6  1  0
  5 10  1  0
  5 20  1  1
  6  7  1  0
  6 21  1  0
  7  8  2  0
  7 22  1  0
  8  9  1  0
  8 23  1  0
  9 10  2  0
 10 11  1  0
 12 13  1  0
 12 24  1  0
 13 14  1  0
 13 17  1  0
 13 25  1  1
 14 15  1  0
 14 26  1  0
 14 27  1  0
 15 16  2  0
 15 28  1  0
 16 17  1  0
 16 29  1  0
 17 30  1  0
 17 31  1  0
M  END

