
     RDKit          3D

 47 50  0  0  0  0  0  0  0  0999 V2000
    8.4176    1.6284   -3.2083 C   0  0  0  0  0  0  0  0  0  0  0  0
    7.3665    1.3138   -2.1427 C   0  0  0  0  0  0  0  0  0  0  0  0
    7.8939    1.4290   -0.7091 C   0  0  0  0  0  0  0  0  0  0  0  0
    6.8469    1.1151    0.3637 C   0  0  0  0  0  0  0  0  0  0  0  0
    7.3817    1.2337    1.7934 C   0  0  0  0  0  0  0  0  0  0  0  0
    6.3136    0.9139    2.8430 C   0  0  0  0  0  0  0  0  0  0  0  0
    6.8103    1.0237    4.2236 N   0  0  0  0  0  0  0  0  0  0  0  0
    7.3754   -0.1219    4.8018 C   0  0  0  0  0  0  0  0  0  0  0  0
    7.4504   -1.1640    4.1757 O   0  0  0  0  0  0  0  0  0  0  0  0
    7.8665    0.0009    6.2027 C   0  0  0  0  0  0  0  0  0  0  0  0
    8.3873   -1.1188    6.8309 C   0  0  0  0  0  0  0  0  0  0  0  0
    8.8322   -1.0348    8.1656 C   0  0  0  0  0  0  0  0  0  0  0  0
    8.7816    0.1659    8.8504 C   0  0  0  0  0  0  0  0  0  0  0  0
    8.2867    1.3486    8.2334 C   0  0  0  0  0  0  0  0  0  0  0  0
    8.2218    2.6289    8.8943 C   0  0  0  0  0  0  0  0  0  0  0  0
    8.7712    2.8363   10.2454 C   0  0  0  0  0  0  0  0  0  0  0  0
    9.9961    2.4705   10.7681 C   0  0  0  0  0  0  0  0  0  0  0  0
   10.2100    2.9092   12.1063 C   0  0  0  0  0  0  0  0  0  0  0  0
    9.1351    3.6081   12.5970 C   0  0  0  0  0  0  0  0  0  0  0  0
    8.9730    4.3023   14.1664 Cl  0  0  0  0  0  0  0  0  0  0  0  0
    7.8505    3.7405   11.4337 S   0  0  0  0  0  0  0  0  0  0  0  0
    7.6274    3.6999    8.2264 C   0  0  0  0  0  0  0  0  0  0  0  0
    7.1292    3.5755    6.9180 C   0  0  0  0  0  0  0  0  0  0  0  0
    7.2220    2.3694    6.2434 C   0  0  0  0  0  0  0  0  0  0  0  0
    7.7951    1.2432    6.8898 C   0  0  0  0  0  0  0  0  0  0  0  0
    6.7117    2.2746    4.8497 C   0  0  0  0  0  0  0  0  0  0  0  0
    6.2281    3.2287    4.2665 O   0  0  0  0  0  0  0  0  0  0  0  0
    8.0044    1.5357   -4.2255 H   0  0  0  0  0  0  0  0  0  0  0  0
    9.2794    0.9436   -3.1359 H   0  0  0  0  0  0  0  0  0  0  0  0
    8.8046    2.6555   -3.0989 H   0  0  0  0  0  0  0  0  0  0  0  0
    6.9724    0.2936   -2.3031 H   0  0  0  0  0  0  0  0  0  0  0  0
    6.5018    1.9911   -2.2663 H   0  0  0  0  0  0  0  0  0  0  0  0
    8.2875    2.4497   -0.5463 H   0  0  0  0  0  0  0  0  0  0  0  0
    8.7588    0.7511   -0.5832 H   0  0  0  0  0  0  0  0  0  0  0  0
    6.4551    0.0936    0.2026 H   0  0  0  0  0  0  0  0  0  0  0  0
    5.9824    1.7933    0.2386 H   0  0  0  0  0  0  0  0  0  0  0  0
    7.7574    2.2568    1.9653 H   0  0  0  0  0  0  0  0  0  0  0  0
    8.2339    0.5460    1.9292 H   0  0  0  0  0  0  0  0  0  0  0  0
    5.9523   -0.1143    2.7136 H   0  0  0  0  0  0  0  0  0  0  0  0
    5.4713    1.6114    2.7497 H   0  0  0  0  0  0  0  0  0  0  0  0
    8.4259   -2.0572    6.2746 H   0  0  0  0  0  0  0  0  0  0  0  0
    9.2117   -1.9285    8.6665 H   0  0  0  0  0  0  0  0  0  0  0  0
    9.1087    0.2056    9.8891 H   0  0  0  0  0  0  0  0  0  0  0  0
   10.7479    1.9326   10.1895 H   0  0  0  0  0  0  0  0  0  0  0  0
   11.1166    2.7265   12.6830 H   0  0  0  0  0  0  0  0  0  0  0  0
    7.5793    4.6723    8.7212 H   0  0  0  0  0  0  0  0  0  0  0  0
    6.6812    4.4280    6.4042 H   0  0  0  0  0  0  0  0  0  0  0  0
  1  2  1  0
  1 28  1  0
  1 29  1  0
  1 30  1  0
  2  3  1  0
  2 31  1  0
  2 32  1  0
  3  4  1  0
  3 33  1  0
  3 34  1  0
  4  5  1  0
  4 35  1  0
  4 36  1  0
  5  6  1  0
  5 37  1  0
  5 38  1  0
  6  7  1  0
  6 39  1  0
  6 40  1  0
  7  8  1  0
  7 26  1  0
  8  9  2  0
  8 10  1  0
 10 11  2  0
 10 25  1  0
 11 12  1  0
 11 41  1  0
 12 13  2  0
 12 42  1  0
 13 14  1  0
 13 43  1  0
 14 15  1  0
 14 25  2  0
 15 16  2  0
 15 22  1  0
 16 17  1  0
 16 21  1  0
 17 18  2  0
 17 44  1  0
 18 19  1  0
 18 45  1  0
 19 20  1  0
 19 21  2  0
 22 23  2  0
 22 46  1  0
 23 24  1  0
 23 47  1  0
 24 25  1  0
 24 26  2  0
 26 27  1  0
M  CHG  2  21   1  27  -1
M  END

