
     RDKit          3D

 34 37  0  0  0  0  0  0  0  0999 V2000
    1.1737   -0.2813    0.1502 O   0  0  0  0  0  0  0  0  0  0  0  0
    2.3381    0.0265    0.1461 C   0  0  0  0  0  0  0  0  0  0  0  0
    3.2590   -1.0122    0.1889 O   0  0  0  0  0  0  0  0  0  0  0  0
    4.6045   -0.8574    0.1899 C   0  0  0  0  0  0  0  0  0  0  0  0
    5.3844   -2.0292    0.2364 C   0  0  0  0  0  0  0  0  0  0  0  0
    6.7529   -1.8468    0.2404 C   0  0  0  0  0  0  0  0  0  0  0  0
    7.3446   -0.5703    0.1986 C   0  0  0  0  0  0  0  0  0  0  0  0
    6.5913    0.5775    0.1514 C   0  0  0  0  0  0  0  0  0  0  0  0
    5.1734    0.4338    0.1477 C   0  0  0  0  0  0  0  0  0  0  0  0
    4.2677    1.5400    0.1035 C   0  0  0  0  0  0  0  0  0  0  0  0
    2.9004    1.3933    0.1006 C   0  0  0  0  0  0  0  0  0  0  0  0
    2.0380    2.5668    0.0534 C   0  0  0  0  0  0  0  0  0  0  0  0
    0.6836    2.6069    0.0436 C   0  0  0  0  0  0  0  0  0  0  0  0
   -0.1496    3.8125   -0.0047 C   0  0  0  0  0  0  0  0  0  0  0  0
   -1.5519    3.6587   -0.0077 C   0  0  0  0  0  0  0  0  0  0  0  0
   -2.4035    4.7635   -0.0527 C   0  0  0  0  0  0  0  0  0  0  0  0
   -1.8731    6.0558   -0.0962 C   0  0  0  0  0  0  0  0  0  0  0  0
   -0.4831    6.2297   -0.0939 C   0  0  0  0  0  0  0  0  0  0  0  0
    0.3662    5.1262   -0.0489 C   0  0  0  0  0  0  0  0  0  0  0  0
    8.7044   -0.7101    0.1931 O   0  0  0  0  0  0  0  0  0  0  0  0
    8.9729   -2.0982    0.3489 C   0  0  0  0  0  0  0  0  0  0  0  0
    7.7271   -2.7926    0.2662 O   0  0  0  0  0  0  0  0  0  0  0  0
    4.9151   -3.0118    0.2666 H   0  0  0  0  0  0  0  0  0  0  0  0
    7.0536    1.5649    0.1159 H   0  0  0  0  0  0  0  0  0  0  0  0
    4.6893    2.5494    0.0705 H   0  0  0  0  0  0  0  0  0  0  0  0
    2.5949    3.5097    0.0233 H   0  0  0  0  0  0  0  0  0  0  0  0
    0.1454    1.6583    0.0743 H   0  0  0  0  0  0  0  0  0  0  0  0
   -1.9718    2.6497    0.0261 H   0  0  0  0  0  0  0  0  0  0  0  0
   -3.4864    4.6146   -0.0540 H   0  0  0  0  0  0  0  0  0  0  0  0
   -2.5362    6.9239   -0.1316 H   0  0  0  0  0  0  0  0  0  0  0  0
   -0.0594    7.2369   -0.1277 H   0  0  0  0  0  0  0  0  0  0  0  0
    1.4462    5.2893   -0.0480 H   0  0  0  0  0  0  0  0  0  0  0  0
    9.4332   -2.2856    1.3376 H   0  0  0  0  0  0  0  0  0  0  0  0
    9.6415   -2.4439   -0.4571 H   0  0  0  0  0  0  0  0  0  0  0  0
  1  2  2  0
  2  3  1  0
  2 11  1  0
  3  4  1  0
  4  5  2  0
  4  9  1  0
  5  6  1  0
  5 23  1  0
  6  7  2  0
  6 22  1  0
  7  8  1  0
  7 20  1  0
  8  9  2  0
  8 24  1  0
  9 10  1  0
 10 11  2  0
 10 25  1  0
 11 12  1  0
 12 13  2  0
 12 26  1  0
 13 14  1  0
 13 27  1  0
 14 15  2  0
 14 19  1  0
 15 16  1  0
 15 28  1  0
 16 17  2  0
 16 29  1  0
 17 18  1  0
 17 30  1  0
 18 19  2  0
 18 31  1  0
 19 32  1  0
 20 21  1  0
 21 22  1  0
 21 33  1  0
 21 34  1  0
M  END

