
     RDKit          3D

 52 54  0  0  0  0  0  0  0  0999 V2000
    0.9032    0.3670    0.1602 C   0  0  0  0  0  0  0  0  0  0  0  0
    2.4224    0.1219    0.1417 C   0  0  1  0  0  0  0  0  0  0  0  0
    3.0561    0.4864    1.5057 C   0  0  0  0  0  0  0  0  0  0  0  0
    4.5626    0.6228    1.4951 C   0  0  0  0  0  0  0  0  0  0  0  0
    5.4047   -0.4973    1.5724 C   0  0  0  0  0  0  0  0  0  0  0  0
    6.7921   -0.3449    1.5286 C   0  0  0  0  0  0  0  0  0  0  0  0
    7.3681    0.9205    1.4114 C   0  0  0  0  0  0  0  0  0  0  0  0
    6.5441    2.0659    1.3381 C   0  0  0  0  0  0  0  0  0  0  0  0
    5.1519    1.8902    1.3795 C   0  0  0  0  0  0  0  0  0  0  0  0
    7.1378    3.3225    1.2045 N   0  0  0  0  0  0  0  0  0  0  0  0
    8.5375    3.4299    1.5574 C   0  0  0  0  0  0  0  0  0  0  0  0
    9.2895    2.2509    0.9345 C   0  0  1  0  0  0  0  0  0  0  0  0
   10.7698    2.2309    1.2704 C   0  0  0  0  0  0  0  0  0  0  0  0
    8.7358    1.0205    1.4010 O   0  0  0  0  0  0  0  0  0  0  0  0
    2.7942   -1.2400   -0.2315 N   0  0  0  0  0  0  0  0  0  0  0  0
    2.6324   -1.6200   -1.6231 C   0  0  0  0  0  0  0  0  0  0  0  0
    3.2624   -2.9932   -1.8895 C   0  0  0  0  0  0  0  0  0  0  0  0
    3.1502   -3.3847   -3.2900 N   0  0  0  0  0  0  0  0  0  0  0  0
    4.1866   -2.8522   -4.1747 C   0  0  0  0  0  0  0  0  0  0  0  0
    5.4564   -3.7104   -4.1698 C   0  0  0  0  0  0  0  0  0  0  0  0
    5.1580   -5.0607   -4.4787 O   0  0  0  0  0  0  0  0  0  0  0  0
    4.2209   -5.6177   -3.5749 C   0  0  0  0  0  0  0  0  0  0  0  0
    2.9253   -4.8003   -3.5679 C   0  0  0  0  0  0  0  0  0  0  0  0
    0.6648    1.4246    0.3595 H   0  0  0  0  0  0  0  0  0  0  0  0
    0.4209   -0.2376    0.9484 H   0  0  0  0  0  0  0  0  0  0  0  0
    0.4409    0.0967   -0.8021 H   0  0  0  0  0  0  0  0  0  0  0  0
    2.8698    0.7873   -0.6183 H   0  0  0  0  0  0  0  0  0  0  0  0
    2.7502   -0.2818    2.2392 H   0  0  0  0  0  0  0  0  0  0  0  0
    2.6090    1.4330    1.8512 H   0  0  0  0  0  0  0  0  0  0  0  0
    4.9709   -1.4950    1.6522 H   0  0  0  0  0  0  0  0  0  0  0  0
    7.4602   -1.2071    1.5891 H   0  0  0  0  0  0  0  0  0  0  0  0
    4.5150    2.7799    1.3260 H   0  0  0  0  0  0  0  0  0  0  0  0
    6.5512    4.1075    1.4626 H   0  0  0  0  0  0  0  0  0  0  0  0
    8.7155    3.4180    2.6542 H   0  0  0  0  0  0  0  0  0  0  0  0
    8.9458    4.3748    1.1635 H   0  0  0  0  0  0  0  0  0  0  0  0
    9.1510    2.3048   -0.1630 H   0  0  0  0  0  0  0  0  0  0  0  0
   10.9203    2.1971    2.3609 H   0  0  0  0  0  0  0  0  0  0  0  0
   11.2730    3.1247    0.8701 H   0  0  0  0  0  0  0  0  0  0  0  0
   11.2426    1.3392    0.8332 H   0  0  0  0  0  0  0  0  0  0  0  0
    2.3227   -1.9075    0.3805 H   0  0  0  0  0  0  0  0  0  0  0  0
    3.1418   -0.8605   -2.2414 H   0  0  0  0  0  0  0  0  0  0  0  0
    1.5806   -1.6515   -1.9819 H   0  0  0  0  0  0  0  0  0  0  0  0
    2.7304   -3.7439   -1.2796 H   0  0  0  0  0  0  0  0  0  0  0  0
    4.3036   -2.9743   -1.5069 H   0  0  0  0  0  0  0  0  0  0  0  0
    4.4252   -1.8149   -3.8910 H   0  0  0  0  0  0  0  0  0  0  0  0
    3.7894   -2.8237   -5.2061 H   0  0  0  0  0  0  0  0  0  0  0  0
    5.9578   -3.6482   -3.1807 H   0  0  0  0  0  0  0  0  0  0  0  0
    6.1720   -3.3591   -4.9303 H   0  0  0  0  0  0  0  0  0  0  0  0
    4.6532   -5.6600   -2.5518 H   0  0  0  0  0  0  0  0  0  0  0  0
    4.0346   -6.6526   -3.9047 H   0  0  0  0  0  0  0  0  0  0  0  0
    2.2098   -5.2128   -2.8378 H   0  0  0  0  0  0  0  0  0  0  0  0
    2.4606   -4.8889   -4.5678 H   0  0  0  0  0  0  0  0  0  0  0  0
  1  2  1  0
  1 24  1  0
  1 25  1  0
  1 26  1  0
  2  3  1  0
  2 15  1  0
  2 27  1  6
  3  4  1  0
  3 28  1  0
  3 29  1  0
  4  5  2  0
  4  9  1  0
  5  6  1  0
  5 30  1  0
  6  7  2  0
  6 31  1  0
  7  8  1  0
  7 14  1  0
  8  9  2  0
  8 10  1  0
  9 32  1  0
 10 11  1  0
 10 33  1  0
 11 12  1  0
 11 34  1  0
 11 35  1  0
 12 13  1  0
 12 14  1  0
 12 36  1  6
 13 37  1  0
 13 38  1  0
 13 39  1  0
 15 16  1  0
 15 40  1  0
 16 17  1  0
 16 41  1  0
 16 42  1  0
 17 18  1  0
 17 43  1  0
 17 44  1  0
 18 19  1  0
 18 23  1  0
 19 20  1  0
 19 45  1  0
 19 46  1  0
 20 21  1  0
 20 47  1  0
 20 48  1  0
 21 22  1  0
 22 23  1  0
 22 49  1  0
 22 50  1  0
 23 51  1  0
 23 52  1  0
M  END

