
     RDKit          3D

 27 27  0  0  0  0  0  0  0  0999 V2000
    0.9001   -0.0912   -2.2603 C   0  0  0  0  0  0  0  0  0  0  0  0
    2.4101   -0.1032   -2.2468 C   0  0  0  0  0  0  0  0  0  0  0  0
    3.1676   -0.1005   -1.1427 C   0  0  0  0  0  0  0  0  0  0  0  0
    4.6606   -0.1114   -1.1384 C   0  0  0  0  0  0  0  0  0  0  0  0
    5.3725    1.0877   -1.1275 C   0  0  0  0  0  0  0  0  0  0  0  0
    6.7809    1.0740   -1.1031 C   0  0  0  0  0  0  0  0  0  0  0  0
    7.3851    2.2899   -1.0985 O   0  0  0  0  0  0  0  0  0  0  0  0
    8.7922    2.3585   -1.0792 C   0  0  0  0  0  0  0  0  0  0  0  0
    7.4720   -0.1391   -1.0875 C   0  0  0  0  0  0  0  0  0  0  0  0
    6.7500   -1.3471   -1.0969 C   0  0  0  0  0  0  0  0  0  0  0  0
    7.5099   -2.4742   -1.0846 O   0  0  0  0  0  0  0  0  0  0  0  0
    6.8761   -3.7325   -1.0894 C   0  0  0  0  0  0  0  0  0  0  0  0
    5.3512   -1.3413   -1.1209 C   0  0  0  0  0  0  0  0  0  0  0  0
    0.5050   -0.0903   -3.2868 H   0  0  0  0  0  0  0  0  0  0  0  0
    0.4961    0.8000   -1.7508 H   0  0  0  0  0  0  0  0  0  0  0  0
    0.4811   -0.9730   -1.7465 H   0  0  0  0  0  0  0  0  0  0  0  0
    2.9191   -0.1120   -3.2188 H   0  0  0  0  0  0  0  0  0  0  0  0
    2.6771   -0.0898   -0.1578 H   0  0  0  0  0  0  0  0  0  0  0  0
    4.8596    2.0505   -1.1398 H   0  0  0  0  0  0  0  0  0  0  0  0
    9.0540    3.4254   -1.0802 H   0  0  0  0  0  0  0  0  0  0  0  0
    9.2404    1.8788   -1.9683 H   0  0  0  0  0  0  0  0  0  0  0  0
    9.2155    1.8866   -0.1739 H   0  0  0  0  0  0  0  0  0  0  0  0
    8.5591   -0.1991   -1.0690 H   0  0  0  0  0  0  0  0  0  0  0  0
    7.6761   -4.4853   -1.0756 H   0  0  0  0  0  0  0  0  0  0  0  0
    6.2604   -3.8808   -1.9950 H   0  0  0  0  0  0  0  0  0  0  0  0
    6.2350   -3.8749   -0.2005 H   0  0  0  0  0  0  0  0  0  0  0  0
    4.7793   -2.2681   -1.1305 H   0  0  0  0  0  0  0  0  0  0  0  0
  1  2  1  0
  1 14  1  0
  1 15  1  0
  1 16  1  0
  2  3  2  0
  2 17  1  0
  3  4  1  0
  3 18  1  0
  4  5  2  0
  4 13  1  0
  5  6  1  0
  5 19  1  0
  6  7  1  0
  6  9  2  0
  7  8  1  0
  8 20  1  0
  8 21  1  0
  8 22  1  0
  9 10  1  0
  9 23  1  0
 10 11  1  0
 10 13  2  0
 11 12  1  0
 12 24  1  0
 12 25  1  0
 12 26  1  0
 13 27  1  0
M  END

