
     RDKit          3D

 41 41  0  0  0  0  0  0  0  0999 V2000
    7.4993    1.4018    4.2478 C   0  0  0  0  0  0  0  0  0  0  0  0
    7.5603    1.9383    2.8421 C   0  0  0  0  0  0  0  0  0  0  0  0
    6.4111    2.0082    2.0401 C   0  0  0  0  0  0  0  0  0  0  0  0
    6.4326    2.4999    0.7270 C   0  0  0  0  0  0  0  0  0  0  0  0
    5.1571    2.5913   -0.0951 C   0  0  1  0  0  0  0  0  0  0  0  0
    4.1742    1.6554    0.3162 O   0  0  0  0  0  0  0  0  0  0  0  0
    4.4650    3.9934   -0.0428 C   0  0  1  0  0  0  0  0  0  0  0  0
    4.0222    4.3773    1.3691 C   0  0  0  0  0  0  0  0  0  0  0  0
    5.2357    5.0737   -0.6312 N   0  0  0  0  0  0  0  0  0  0  0  0
    5.4939    5.0522   -2.0581 C   0  0  0  0  0  0  0  0  0  0  0  0
    5.9597    6.4327   -2.5352 C   0  0  0  0  0  0  0  0  0  0  0  0
    6.3600    6.4630   -3.9337 N   0  0  0  0  0  0  0  0  0  0  0  0
    5.2503    6.3288   -4.8582 C   0  0  0  0  0  0  0  0  0  0  0  0
    7.1883    7.6090   -4.2533 C   0  0  0  0  0  0  0  0  0  0  0  0
    7.6588    2.9291    0.1969 C   0  0  0  0  0  0  0  0  0  0  0  0
    8.8214    2.8803    0.9678 C   0  0  0  0  0  0  0  0  0  0  0  0
    8.7649    2.3922    2.2747 C   0  0  0  0  0  0  0  0  0  0  0  0
   10.2457    2.3381    3.2159 Cl  0  0  0  0  0  0  0  0  0  0  0  0
    6.4773    1.0910    4.5067 H   0  0  0  0  0  0  0  0  0  0  0  0
    7.8282    2.1592    4.9781 H   0  0  0  0  0  0  0  0  0  0  0  0
    8.1705    0.5368    4.3745 H   0  0  0  0  0  0  0  0  0  0  0  0
    5.4601    1.6605    2.4497 H   0  0  0  0  0  0  0  0  0  0  0  0
    5.4274    2.4166   -1.1549 H   0  0  0  0  0  0  0  0  0  0  0  0
    4.5443    0.7669    0.2305 H   0  0  0  0  0  0  0  0  0  0  0  0
    3.5580    3.8647   -0.6604 H   0  0  0  0  0  0  0  0  0  0  0  0
    4.8888    4.5559    2.0267 H   0  0  0  0  0  0  0  0  0  0  0  0
    3.4105    3.5816    1.8170 H   0  0  0  0  0  0  0  0  0  0  0  0
    3.4323    5.3047    1.3292 H   0  0  0  0  0  0  0  0  0  0  0  0
    6.0813    5.2614   -0.0940 H   0  0  0  0  0  0  0  0  0  0  0  0
    4.5525    4.7733   -2.5610 H   0  0  0  0  0  0  0  0  0  0  0  0
    6.2527    4.3098   -2.3916 H   0  0  0  0  0  0  0  0  0  0  0  0
    6.8381    6.7186   -1.9307 H   0  0  0  0  0  0  0  0  0  0  0  0
    5.1669    7.1793   -2.2977 H   0  0  0  0  0  0  0  0  0  0  0  0
    4.6908    5.4002   -4.6715 H   0  0  0  0  0  0  0  0  0  0  0  0
    5.6266    6.2815   -5.8926 H   0  0  0  0  0  0  0  0  0  0  0  0
    4.5265    7.1762   -4.8007 H   0  0  0  0  0  0  0  0  0  0  0  0
    8.0733    7.6358   -3.5977 H   0  0  0  0  0  0  0  0  0  0  0  0
    6.6586    8.5850   -4.1452 H   0  0  0  0  0  0  0  0  0  0  0  0
    7.5435    7.5402   -5.2943 H   0  0  0  0  0  0  0  0  0  0  0  0
    7.7168    3.2859   -0.8348 H   0  0  0  0  0  0  0  0  0  0  0  0
    9.7785    3.2088    0.5589 H   0  0  0  0  0  0  0  0  0  0  0  0
  1  2  1  0
  1 19  1  0
  1 20  1  0
  1 21  1  0
  2  3  2  0
  2 17  1  0
  3  4  1  0
  3 22  1  0
  4  5  1  0
  4 15  2  0
  5  6  1  0
  5  7  1  0
  5 23  1  6
  6 24  1  0
  7  8  1  0
  7  9  1  0
  7 25  1  6
  8 26  1  0
  8 27  1  0
  8 28  1  0
  9 10  1  0
  9 29  1  0
 10 11  1  0
 10 30  1  0
 10 31  1  0
 11 12  1  0
 11 32  1  0
 11 33  1  0
 12 13  1  0
 12 14  1  0
 13 34  1  0
 13 35  1  0
 13 36  1  0
 14 37  1  0
 14 38  1  0
 14 39  1  0
 15 16  1  0
 15 40  1  0
 16 17  2  0
 16 41  1  0
 17 18  1  0
M  END

