
     RDKit          3D

 41 43  0  0  0  0  0  0  0  0999 V2000
    1.6199    0.2141    0.9072 C   0  0  0  0  0  0  0  0  0  0  0  0
    2.9532    0.0441    0.4801 O   0  0  0  0  0  0  0  0  0  0  0  0
    3.3952   -1.1961    0.1588 C   0  0  0  0  0  0  0  0  0  0  0  0
    4.7342   -1.2922   -0.2602 C   0  0  0  0  0  0  0  0  0  0  0  0
    5.2785   -2.5208   -0.6074 C   0  0  0  0  0  0  0  0  0  0  0  0
    4.5041   -3.6952   -0.5520 C   0  0  0  0  0  0  0  0  0  0  0  0
    5.1138   -4.9131   -0.9163 N   0  0  0  0  0  0  0  0  0  0  0  0
    4.6048   -6.1550   -0.8205 C   0  0  0  0  0  0  0  0  0  0  0  0
    5.2443   -7.3114   -1.2191 C   0  0  0  0  0  0  0  0  0  0  0  0
    6.5465   -7.2234   -1.7927 C   0  0  0  0  0  0  0  0  0  0  0  0
    7.6068   -7.0786   -2.2519 N   0  0  0  0  0  0  0  0  0  0  0  0
    4.5923   -8.6078   -1.0498 C   0  0  0  0  0  0  0  0  0  0  0  0
    3.4094   -8.7827   -0.5243 N   0  0  0  0  0  0  0  0  0  0  0  0
    3.0421  -10.1074   -0.4929 C   0  0  0  0  0  0  0  0  0  0  0  0
    1.7299  -10.4870    0.0722 C   0  0  0  0  0  0  0  0  0  0  0  0
    0.8701   -9.4986    0.5888 C   0  0  0  0  0  0  0  0  0  0  0  0
   -0.3742   -9.8332    1.1284 C   0  0  0  0  0  0  0  0  0  0  0  0
   -0.7974  -11.1619    1.1686 C   0  0  0  0  0  0  0  0  0  0  0  0
    0.0614  -12.1350    0.6541 C   0  0  0  0  0  0  0  0  0  0  0  0
   -0.3635  -13.5528    0.6841 N   0  0  0  0  0  0  0  0  0  0  0  0
   -1.4576  -13.8028    1.1626 O   0  0  0  0  0  0  0  0  0  0  0  0
    0.4053  -14.3845    0.2289 O   0  0  0  0  0  0  0  0  0  0  0  0
    1.3050  -11.8250    0.1119 C   0  0  0  0  0  0  0  0  0  0  0  0
    3.9815  -10.9725   -1.0132 C   0  0  0  0  0  0  0  0  0  0  0  0
    5.3687  -10.1035   -1.5607 S   0  0  0  0  0  0  0  0  0  0  0  0
    3.1686   -3.5986   -0.1425 C   0  0  0  0  0  0  0  0  0  0  0  0
    2.6183   -2.3629    0.2135 C   0  0  0  0  0  0  0  0  0  0  0  0
    1.4909    1.2853    1.1111 H   0  0  0  0  0  0  0  0  0  0  0  0
    1.4088   -0.3534    1.8317 H   0  0  0  0  0  0  0  0  0  0  0  0
    0.8968   -0.0910    0.1291 H   0  0  0  0  0  0  0  0  0  0  0  0
    5.3332   -0.3806   -0.3027 H   0  0  0  0  0  0  0  0  0  0  0  0
    6.3237   -2.5757   -0.9251 H   0  0  0  0  0  0  0  0  0  0  0  0
    6.0558   -4.8352   -1.2944 H   0  0  0  0  0  0  0  0  0  0  0  0
    3.6089   -6.2602   -0.3884 H   0  0  0  0  0  0  0  0  0  0  0  0
    1.2007   -8.4601    0.5580 H   0  0  0  0  0  0  0  0  0  0  0  0
   -1.0227   -9.0476    1.5233 H   0  0  0  0  0  0  0  0  0  0  0  0
   -1.7607  -11.4578    1.5819 H   0  0  0  0  0  0  0  0  0  0  0  0
    1.9164  -12.6410   -0.2700 H   0  0  0  0  0  0  0  0  0  0  0  0
    3.9369  -12.0552   -1.1018 H   0  0  0  0  0  0  0  0  0  0  0  0
    2.5298   -4.4819   -0.1012 H   0  0  0  0  0  0  0  0  0  0  0  0
    1.5749   -2.3277    0.5264 H   0  0  0  0  0  0  0  0  0  0  0  0
  1  2  1  0
  1 28  1  0
  1 29  1  0
  1 30  1  0
  2  3  1  0
  3  4  2  0
  3 27  1  0
  4  5  1  0
  4 31  1  0
  5  6  2  0
  5 32  1  0
  6  7  1  0
  6 26  1  0
  7  8  1  0
  7 33  1  0
  8  9  2  0
  8 34  1  0
  9 10  1  0
  9 12  1  0
 10 11  3  0
 12 13  2  0
 12 25  1  0
 13 14  1  0
 14 15  1  0
 14 24  2  0
 15 16  2  0
 15 23  1  0
 16 17  1  0
 16 35  1  0
 17 18  2  0
 17 36  1  0
 18 19  1  0
 18 37  1  0
 19 20  1  0
 19 23  2  0
 20 21  2  0
 20 22  1  0
 23 38  1  0
 24 25  1  0
 24 39  1  0
 26 27  2  0
 26 40  1  0
 27 41  1  0
M  CHG  2  20   1  22  -1
M  END

