
     RDKit          3D

111118  0  0  0  0  0  0  0  0999 V2000
    6.8338    0.3976    2.4055 C   0  0  0  0  0  0  0  0  0  0  0  0
    5.3953    0.1567    2.9194 C   0  0  1  0  0  0  0  0  0  0  0  0
    4.4518   -0.0723    1.7157 C   0  0  0  0  0  0  0  0  0  0  0  0
    5.4003   -1.1238    3.7736 C   0  0  0  0  0  0  0  0  0  0  0  0
    4.9223    1.3873    3.7198 C   0  0  0  0  0  0  0  0  0  0  0  0
    4.8525    2.6500    3.0806 C   0  0  0  0  0  0  0  0  0  0  0  0
    4.4418    3.8104    3.7340 C   0  0  0  0  0  0  0  0  0  0  0  0
    4.0899    3.7148    5.0851 C   0  0  0  0  0  0  0  0  0  0  0  0
    4.1293    2.4671    5.7523 C   0  0  0  0  0  0  0  0  0  0  0  0
    4.5478    1.3168    5.0663 C   0  0  0  0  0  0  0  0  0  0  0  0
    3.6680    2.7000    7.1088 C   0  0  0  0  0  0  0  0  0  0  0  0
    3.5124    1.8638    8.2250 C   0  0  0  0  0  0  0  0  0  0  0  0
    3.0632    2.3814    9.4449 C   0  0  0  0  0  0  0  0  0  0  0  0
    2.8701    1.5085   10.7015 C   0  0  1  0  0  0  0  0  0  0  0  0
    3.7815    2.0280   11.8378 C   0  0  0  0  0  0  0  0  0  0  0  0
    1.3935    1.5774   11.1557 C   0  0  0  0  0  0  0  0  0  0  0  0
    3.2227    0.0327   10.4422 C   0  0  0  0  0  0  0  0  0  0  0  0
    2.7849    3.7694    9.5105 C   0  0  0  0  0  0  0  0  0  0  0  0
    2.9283    4.6256    8.4206 C   0  0  0  0  0  0  0  0  0  0  0  0
    3.3621    4.0783    7.2079 C   0  0  0  0  0  0  0  0  0  0  0  0
    3.6201    4.6961    5.9728 N   0  0  0  0  0  0  0  0  0  0  0  0
    3.4459    6.0612    5.6782 C   0  0  0  0  0  0  0  0  0  0  0  0
    4.4659    6.8171    5.0787 C   0  0  0  0  0  0  0  0  0  0  0  0
    4.2377    8.1640    4.7985 C   0  0  0  0  0  0  0  0  0  0  0  0
    2.9979    8.6888    5.1608 C   0  0  0  0  0  0  0  0  0  0  0  0
    2.6803   10.4626    4.9025 S   0  0  1  0  0  0  0  0  0  0  0  0
    2.3286   11.0724    6.1917 O   0  0  0  0  0  0  0  0  0  0  0  0
    3.7954   10.9804    4.0988 O   0  0  0  0  0  0  0  0  0  0  0  0
    1.1692   10.4737    3.8872 C   0  0  0  0  0  0  0  0  0  0  0  0
    0.0662   11.2052    4.3259 C   0  0  0  0  0  0  0  0  0  0  0  0
   -1.0480   11.2410    3.4884 C   0  0  0  0  0  0  0  0  0  0  0  0
   -1.0054   10.5560    2.2635 C   0  0  0  0  0  0  0  0  0  0  0  0
   -2.1022   10.5630    1.3816 N   0  0  0  0  0  0  0  0  0  0  0  0
   -2.7052    9.4340    0.8034 C   0  0  0  0  0  0  0  0  0  0  0  0
   -2.4205    8.0734    0.9641 C   0  0  0  0  0  0  0  0  0  0  0  0
   -3.2138    7.1535    0.2815 C   0  0  0  0  0  0  0  0  0  0  0  0
   -4.2913    7.5343   -0.5565 C   0  0  0  0  0  0  0  0  0  0  0  0
   -5.1122    6.4466   -1.2787 C   0  0  1  0  0  0  0  0  0  0  0  0
   -5.7504    5.5006   -0.2350 C   0  0  0  0  0  0  0  0  0  0  0  0
   -6.2421    7.0458   -2.1353 C   0  0  0  0  0  0  0  0  0  0  0  0
   -4.1833    5.6324   -2.2093 C   0  0  0  0  0  0  0  0  0  0  0  0
   -4.5652    8.9004   -0.6856 C   0  0  0  0  0  0  0  0  0  0  0  0
   -3.7853    9.8519   -0.0105 C   0  0  0  0  0  0  0  0  0  0  0  0
   -3.8401   11.3000    0.0727 C   0  0  0  0  0  0  0  0  0  0  0  0
   -4.6687   12.2640   -0.5217 C   0  0  0  0  0  0  0  0  0  0  0  0
   -4.4679   13.6264   -0.2730 C   0  0  0  0  0  0  0  0  0  0  0  0
   -5.3500   14.7277   -0.8957 C   0  0  1  0  0  0  0  0  0  0  0  0
   -6.0279   15.5435    0.2298 C   0  0  0  0  0  0  0  0  0  0  0  0
   -4.4734   15.6684   -1.7548 C   0  0  0  0  0  0  0  0  0  0  0  0
   -6.4541   14.1464   -1.7969 C   0  0  0  0  0  0  0  0  0  0  0  0
   -3.4000   13.9905    0.5843 C   0  0  0  0  0  0  0  0  0  0  0  0
   -2.5604   13.0578    1.1901 C   0  0  0  0  0  0  0  0  0  0  0  0
   -2.7946   11.7014    0.9382 C   0  0  0  0  0  0  0  0  0  0  0  0
    0.1733    9.8527    1.9384 C   0  0  0  0  0  0  0  0  0  0  0  0
    1.2331    9.8145    2.7404 N   0  0  0  0  0  0  0  0  0  0  0  0
    2.0211    7.9993    5.7305 N   0  0  0  0  0  0  0  0  0  0  0  0
    2.2283    6.7089    5.9742 C   0  0  0  0  0  0  0  0  0  0  0  0
    7.1883   -0.4719    1.8274 H   0  0  0  0  0  0  0  0  0  0  0  0
    7.5307    0.5562    3.2439 H   0  0  0  0  0  0  0  0  0  0  0  0
    6.8942    1.2794    1.7494 H   0  0  0  0  0  0  0  0  0  0  0  0
    4.7782   -0.9481    1.1307 H   0  0  0  0  0  0  0  0  0  0  0  0
    4.4342    0.7928    1.0353 H   0  0  0  0  0  0  0  0  0  0  0  0
    3.4189   -0.2536    2.0529 H   0  0  0  0  0  0  0  0  0  0  0  0
    5.7445   -1.9760    3.1666 H   0  0  0  0  0  0  0  0  0  0  0  0
    4.3952   -1.3715    4.1493 H   0  0  0  0  0  0  0  0  0  0  0  0
    6.0782   -1.0392    4.6373 H   0  0  0  0  0  0  0  0  0  0  0  0
    5.1276    2.7323    2.0268 H   0  0  0  0  0  0  0  0  0  0  0  0
    4.3924    4.7561    3.1921 H   0  0  0  0  0  0  0  0  0  0  0  0
    4.5702    0.3679    5.6023 H   0  0  0  0  0  0  0  0  0  0  0  0
    3.7537    0.8058    8.1230 H   0  0  0  0  0  0  0  0  0  0  0  0
    3.5522    3.0705   12.1060 H   0  0  0  0  0  0  0  0  0  0  0  0
    4.8423    1.9838   11.5440 H   0  0  0  0  0  0  0  0  0  0  0  0
    3.6533    1.4156   12.7458 H   0  0  0  0  0  0  0  0  0  0  0  0
    1.0855    2.6055   11.4001 H   0  0  0  0  0  0  0  0  0  0  0  0
    1.2372    0.9607   12.0563 H   0  0  0  0  0  0  0  0  0  0  0  0
    0.7203    1.2053   10.3670 H   0  0  0  0  0  0  0  0  0  0  0  0
    4.2752   -0.0923   10.1432 H   0  0  0  0  0  0  0  0  0  0  0  0
    2.5884   -0.4100    9.6582 H   0  0  0  0  0  0  0  0  0  0  0  0
    3.0693   -0.5546   11.3612 H   0  0  0  0  0  0  0  0  0  0  0  0
    2.4440    4.2030   10.4532 H   0  0  0  0  0  0  0  0  0  0  0  0
    2.7121    5.6896    8.5277 H   0  0  0  0  0  0  0  0  0  0  0  0
    5.4262    6.3531    4.8465 H   0  0  0  0  0  0  0  0  0  0  0  0
    4.9855    8.8013    4.3248 H   0  0  0  0  0  0  0  0  0  0  0  0
    0.0887   11.7016    5.2968 H   0  0  0  0  0  0  0  0  0  0  0  0
   -1.9524   11.7761    3.7840 H   0  0  0  0  0  0  0  0  0  0  0  0
   -1.6098    7.7273    1.6070 H   0  0  0  0  0  0  0  0  0  0  0  0
   -2.9845    6.0934    0.4098 H   0  0  0  0  0  0  0  0  0  0  0  0
   -6.4238    6.0537    0.4389 H   0  0  0  0  0  0  0  0  0  0  0  0
   -4.9918    5.0011    0.3868 H   0  0  0  0  0  0  0  0  0  0  0  0
   -6.3394    4.7144   -0.7357 H   0  0  0  0  0  0  0  0  0  0  0  0
   -6.9605    7.6172   -1.5269 H   0  0  0  0  0  0  0  0  0  0  0  0
   -6.8011    6.2382   -2.6336 H   0  0  0  0  0  0  0  0  0  0  0  0
   -5.8530    7.7113   -2.9218 H   0  0  0  0  0  0  0  0  0  0  0  0
   -3.3724    5.1390   -1.6520 H   0  0  0  0  0  0  0  0  0  0  0  0
   -3.7198    6.2811   -2.9696 H   0  0  0  0  0  0  0  0  0  0  0  0
   -4.7531    4.8468   -2.7328 H   0  0  0  0  0  0  0  0  0  0  0  0
   -5.3907    9.2475   -1.3070 H   0  0  0  0  0  0  0  0  0  0  0  0
   -5.4673   11.9298   -1.1840 H   0  0  0  0  0  0  0  0  0  0  0  0
   -5.2907   16.0244    0.8908 H   0  0  0  0  0  0  0  0  0  0  0  0
   -6.6667   14.8989    0.8544 H   0  0  0  0  0  0  0  0  0  0  0  0
   -6.6605   16.3392   -0.1972 H   0  0  0  0  0  0  0  0  0  0  0  0
   -3.6854   16.1548   -1.1598 H   0  0  0  0  0  0  0  0  0  0  0  0
   -5.0886   16.4647   -2.2054 H   0  0  0  0  0  0  0  0  0  0  0  0
   -3.9823   15.1143   -2.5705 H   0  0  0  0  0  0  0  0  0  0  0  0
   -7.1347   13.4847   -1.2385 H   0  0  0  0  0  0  0  0  0  0  0  0
   -6.0375   13.5759   -2.6418 H   0  0  0  0  0  0  0  0  0  0  0  0
   -7.0605   14.9635   -2.2183 H   0  0  0  0  0  0  0  0  0  0  0  0
   -3.2121   15.0473    0.7858 H   0  0  0  0  0  0  0  0  0  0  0  0
   -1.7428   13.3911    1.8311 H   0  0  0  0  0  0  0  0  0  0  0  0
    0.2438    9.3161    0.9871 H   0  0  0  0  0  0  0  0  0  0  0  0
    1.4037    6.1432    6.4194 H   0  0  0  0  0  0  0  0  0  0  0  0
  2  1  1  6
  1 58  1  0
  1 59  1  0
  1 60  1  0
  2  3  1  0
  2  4  1  0
  2  5  1  0
  3 61  1  0
  3 62  1  0
  3 63  1  0
  4 64  1  0
  4 65  1  0
  4 66  1  0
  5  6  2  0
  5 10  1  0
  6  7  1  0
  6 67  1  0
  7  8  2  0
  7 68  1  0
  8  9  1  0
  8 21  1  0
  9 10  2  0
  9 11  1  0
 10 69  1  0
 11 12  2  0
 11 20  1  0
 12 13  1  0
 12 70  1  0
 13 14  1  0
 13 18  2  0
 14 15  1  1
 14 16  1  0
 14 17  1  0
 15 71  1  0
 15 72  1  0
 15 73  1  0
 16 74  1  0
 16 75  1  0
 16 76  1  0
 17 77  1  0
 17 78  1  0
 17 79  1  0
 18 19  1  0
 18 80  1  0
 19 20  2  0
 19 81  1  0
 20 21  1  0
 21 22  1  0
 22 23  2  0
 22 57  1  0
 23 24  1  0
 23 82  1  0
 24 25  2  0
 24 83  1  0
 26 25  1  1
 25 56  1  0
 26 27  2  0
 26 28  2  0
 26 29  1  0
 29 30  2  0
 29 55  1  0
 30 31  1  0
 30 84  1  0
 31 32  2  0
 31 85  1  0
 32 33  1  0
 32 54  1  0
 33 34  1  0
 33 53  1  0
 34 35  2  0
 34 43  1  0
 35 36  1  0
 35 86  1  0
 36 37  2  0
 36 87  1  0
 37 38  1  0
 37 42  1  0
 38 39  1  1
 38 40  1  0
 38 41  1  0
 39 88  1  0
 39 89  1  0
 39 90  1  0
 40 91  1  0
 40 92  1  0
 40 93  1  0
 41 94  1  0
 41 95  1  0
 41 96  1  0
 42 43  2  0
 42 97  1  0
 43 44  1  0
 44 45  1  0
 44 53  2  0
 45 46  2  0
 45 98  1  0
 46 47  1  0
 46 51  1  0
 47 48  1  1
 47 49  1  0
 47 50  1  0
 48 99  1  0
 48100  1  0
 48101  1  0
 49102  1  0
 49103  1  0
 49104  1  0
 50105  1  0
 50106  1  0
 50107  1  0
 51 52  2  0
 51108  1  0
 52 53  1  0
 52109  1  0
 54 55  2  0
 54110  1  0
 56 57  2  0
 57111  1  0
M  END

