
     RDKit          3D

 36 39  0  0  0  0  0  0  0  0999 V2000
    1.2228   -0.1259   -0.7968 O   0  0  0  0  0  0  0  0  0  0  0  0
    2.2673   -0.1573   -0.1549 C   0  0  0  0  0  0  0  0  0  0  0  0
    2.9131   -1.3138    0.1489 N   0  0  0  0  0  0  0  0  0  0  0  0
    2.4088   -2.5850   -0.2964 C   0  0  2  0  0  0  0  0  0  0  0  0
    1.3142   -2.5828   -0.1778 H   0  0  0  0  0  0  0  0  0  0  0  0
    3.0773   -3.8431    0.3163 C   0  0  0  0  0  0  0  0  0  0  0  0
    3.1458   -4.4685   -1.0890 C   0  0  1  0  0  0  0  0  0  0  0  0
    4.0958   -4.9528   -1.3869 H   0  0  0  0  0  0  0  0  0  0  0  0
    2.0346   -5.2939   -1.3777 O   0  0  0  0  0  0  0  0  0  0  0  0
    1.5760   -4.9324   -2.6748 C   0  0  0  0  0  0  0  0  0  0  0  0
    1.6658   -3.3913   -2.7347 C   0  0  0  0  0  0  0  0  0  0  0  0
    2.7908   -3.0939   -1.7295 C   0  0  1  0  0  0  0  0  0  0  0  0
    3.6472   -2.5449   -2.1478 H   0  0  0  0  0  0  0  0  0  0  0  0
    2.8960    1.1134    0.3558 C   0  0  0  0  0  0  0  0  0  0  0  0
    2.2378    2.3087    0.0865 C   0  0  0  0  0  0  0  0  0  0  0  0
    2.6492    3.5240    0.4686 N   0  0  0  0  0  0  0  0  0  0  0  0
    3.7750    3.6042    1.1613 C   0  0  0  0  0  0  0  0  0  0  0  0
    4.2655    4.8694    1.6062 C   0  0  0  0  0  0  0  0  0  0  0  0
    5.4279    4.9732    2.3234 C   0  0  0  0  0  0  0  0  0  0  0  0
    6.1680    3.7961    2.6342 C   0  0  0  0  0  0  0  0  0  0  0  0
    5.7062    2.5842    2.2108 C   0  0  0  0  0  0  0  0  0  0  0  0
    4.5340    2.4771    1.4891 N   0  0  0  0  0  0  0  0  0  0  0  0
    4.1281    1.1374    1.0882 C   0  0  0  0  0  0  0  0  0  0  0  0
    4.8579    0.1996    1.3934 O   0  0  0  0  0  0  0  0  0  0  0  0
    3.7951   -1.2451    0.6550 H   0  0  0  0  0  0  0  0  0  0  0  0
    2.4956   -4.4062    1.0606 H   0  0  0  0  0  0  0  0  0  0  0  0
    4.0790   -3.6297    0.7222 H   0  0  0  0  0  0  0  0  0  0  0  0
    0.5602   -5.3361   -2.8044 H   0  0  0  0  0  0  0  0  0  0  0  0
    2.2279   -5.3865   -3.4507 H   0  0  0  0  0  0  0  0  0  0  0  0
    0.7231   -2.9295   -2.4023 H   0  0  0  0  0  0  0  0  0  0  0  0
    1.8699   -3.0198   -3.7506 H   0  0  0  0  0  0  0  0  0  0  0  0
    1.3075    2.2512   -0.4870 H   0  0  0  0  0  0  0  0  0  0  0  0
    3.6533    5.7304    1.3349 H   0  0  0  0  0  0  0  0  0  0  0  0
    5.7887    5.9487    2.6583 H   0  0  0  0  0  0  0  0  0  0  0  0
    7.0973    3.8476    3.2033 H   0  0  0  0  0  0  0  0  0  0  0  0
    6.1934    1.6265    2.3900 H   0  0  0  0  0  0  0  0  0  0  0  0
  1  2  2  0
  2  3  1  0
  2 14  1  0
  3  4  1  0
  3 25  1  0
  4  5  1  6
  4  6  1  0
  4 12  1  0
  6  7  1  0
  6 26  1  0
  6 27  1  0
  7  8  1  6
  7  9  1  0
  7 12  1  0
  9 10  1  0
 10 11  1  0
 10 28  1  0
 10 29  1  0
 11 12  1  0
 11 30  1  0
 11 31  1  0
 12 13  1  6
 14 15  2  0
 14 23  1  0
 15 16  1  0
 15 32  1  0
 16 17  2  0
 17 18  1  0
 17 22  1  0
 18 19  2  0
 18 33  1  0
 19 20  1  0
 19 34  1  0
 20 21  2  0
 20 35  1  0
 21 22  1  0
 21 36  1  0
 22 23  1  0
 23 24  2  0
M  END

