
     RDKit          3D

 54 56  0  0  0  0  0  0  0  0999 V2000
    1.3078   -1.5392   -1.0772 O   0  0  0  0  0  0  0  0  0  0  0  0
    2.0567   -0.7020   -0.5873 C   0  0  0  0  0  0  0  0  0  0  0  0
    2.1953    0.5514   -1.1440 N   0  0  0  0  0  0  0  0  0  0  0  0
    1.4421    0.9157   -2.3318 C   0  0  0  0  0  0  0  0  0  0  0  0
   -0.0468    1.2455   -2.0915 C   0  0  1  0  0  0  0  0  0  0  0  0
   -0.2804    2.3732   -1.0664 C   0  0  0  0  0  0  0  0  0  0  0  0
    0.0774    3.7524   -1.6407 C   0  0  0  0  0  0  0  0  0  0  0  0
   -0.5832    3.9482   -3.0068 C   0  0  0  0  0  0  0  0  0  0  0  0
   -0.2751    2.8907   -3.8933 O   0  0  0  0  0  0  0  0  0  0  0  0
   -0.7204    1.6332   -3.4153 C   0  0  0  0  0  0  0  0  0  0  0  0
    2.8290   -0.9739    0.5357 N   0  0  0  0  0  0  0  0  0  0  0  0
    2.4912   -2.1556    1.3263 C   0  0  0  0  0  0  0  0  0  0  0  0
    3.7580   -2.8474    1.8414 C   0  0  0  0  0  0  0  0  0  0  0  0
    4.6611   -1.9413    2.5505 N   0  0  0  0  0  0  0  0  0  0  0  0
    4.3174   -1.6534    3.9395 C   0  0  0  0  0  0  0  0  0  0  0  0
    4.7091   -2.7888    4.9113 C   0  0  1  0  0  0  0  0  0  0  0  0
    6.2181   -3.1053    4.8907 C   0  0  0  0  0  0  0  0  0  0  0  0
    7.0330   -2.0793    5.6796 C   0  0  0  0  0  0  0  0  0  0  0  0
    6.5592   -1.9295    7.0052 O   0  0  0  0  0  0  0  0  0  0  0  0
    5.2161   -1.4942    7.0523 C   0  0  0  0  0  0  0  0  0  0  0  0
    4.2724   -2.4813    6.3594 C   0  0  0  0  0  0  0  0  0  0  0  0
    4.9817   -0.8005    1.7087 C   0  0  0  0  0  0  0  0  0  0  0  0
    3.7525   -0.0433    1.1675 C   0  0  0  0  0  0  0  0  0  0  0  0
    2.6351    1.2915   -0.6162 H   0  0  0  0  0  0  0  0  0  0  0  0
    1.4952    0.0696   -3.0332 H   0  0  0  0  0  0  0  0  0  0  0  0
    1.9486    1.7670   -2.8117 H   0  0  0  0  0  0  0  0  0  0  0  0
   -0.5187    0.3198   -1.7233 H   0  0  0  0  0  0  0  0  0  0  0  0
    0.2812    2.1741   -0.1385 H   0  0  0  0  0  0  0  0  0  0  0  0
   -1.3479    2.3705   -0.7813 H   0  0  0  0  0  0  0  0  0  0  0  0
    1.1709    3.8517   -1.7579 H   0  0  0  0  0  0  0  0  0  0  0  0
   -0.2395    4.5561   -0.9540 H   0  0  0  0  0  0  0  0  0  0  0  0
   -0.2393    4.8759   -3.4902 H   0  0  0  0  0  0  0  0  0  0  0  0
   -1.6852    4.0263   -2.8794 H   0  0  0  0  0  0  0  0  0  0  0  0
   -0.4926    0.9012   -4.2063 H   0  0  0  0  0  0  0  0  0  0  0  0
   -1.8227    1.6483   -3.2810 H   0  0  0  0  0  0  0  0  0  0  0  0
    1.9063   -2.8264    0.6849 H   0  0  0  0  0  0  0  0  0  0  0  0
    1.8444   -1.8647    2.1798 H   0  0  0  0  0  0  0  0  0  0  0  0
    4.3024   -3.2767    0.9815 H   0  0  0  0  0  0  0  0  0  0  0  0
    3.4815   -3.6862    2.4981 H   0  0  0  0  0  0  0  0  0  0  0  0
    3.2364   -1.4372    4.0839 H   0  0  0  0  0  0  0  0  0  0  0  0
    4.8428   -0.7275    4.2230 H   0  0  0  0  0  0  0  0  0  0  0  0
    4.1679   -3.6936    4.5848 H   0  0  0  0  0  0  0  0  0  0  0  0
    6.5728   -3.1506    3.8488 H   0  0  0  0  0  0  0  0  0  0  0  0
    6.3838   -4.0981    5.3428 H   0  0  0  0  0  0  0  0  0  0  0  0
    7.0261   -1.0947    5.1637 H   0  0  0  0  0  0  0  0  0  0  0  0
    8.0851   -2.3944    5.7574 H   0  0  0  0  0  0  0  0  0  0  0  0
    5.1278   -0.4839    6.5968 H   0  0  0  0  0  0  0  0  0  0  0  0
    4.9557   -1.3911    8.1173 H   0  0  0  0  0  0  0  0  0  0  0  0
    3.2396   -2.0913    6.3860 H   0  0  0  0  0  0  0  0  0  0  0  0
    4.2746   -3.4194    6.9398 H   0  0  0  0  0  0  0  0  0  0  0  0
    5.5583   -1.1653    0.8390 H   0  0  0  0  0  0  0  0  0  0  0  0
    5.6295   -0.1023    2.2625 H   0  0  0  0  0  0  0  0  0  0  0  0
    4.1119    0.6890    0.4303 H   0  0  0  0  0  0  0  0  0  0  0  0
    3.2580    0.5187    1.9884 H   0  0  0  0  0  0  0  0  0  0  0  0
  1  2  2  0
  2  3  1  0
  2 11  1  0
  3  4  1  0
  3 24  1  0
  4  5  1  0
  4 25  1  0
  4 26  1  0
  5  6  1  0
  5 10  1  0
  5 27  1  1
  6  7  1  0
  6 28  1  0
  6 29  1  0
  7  8  1  0
  7 30  1  0
  7 31  1  0
  8  9  1  0
  8 32  1  0
  8 33  1  0
  9 10  1  0
 10 34  1  0
 10 35  1  0
 11 12  1  0
 11 23  1  0
 12 13  1  0
 12 36  1  0
 12 37  1  0
 13 14  1  0
 13 38  1  0
 13 39  1  0
 14 15  1  0
 14 22  1  0
 15 16  1  0
 15 40  1  0
 15 41  1  0
 16 17  1  0
 16 21  1  0
 16 42  1  6
 17 18  1  0
 17 43  1  0
 17 44  1  0
 18 19  1  0
 18 45  1  0
 18 46  1  0
 19 20  1  0
 20 21  1  0
 20 47  1  0
 20 48  1  0
 21 49  1  0
 21 50  1  0
 22 23  1  0
 22 51  1  0
 22 52  1  0
 23 53  1  0
 23 54  1  0
M  END

