
     RDKit          3D

 22 22  0  0  0  0  0  0  0  0999 V2000
    2.5855    1.4349   -1.4118 O   0  0  0  0  0  0  0  0  0  0  0  0
    2.2532    0.3747   -0.5501 C   0  0  0  0  0  0  0  0  0  0  0  0
    2.7598   -0.9221   -1.1367 C   0  0  0  0  0  0  0  0  0  0  0  0
    3.6396   -0.9159   -2.2214 C   0  0  0  0  0  0  0  0  0  0  0  0
    4.0422   -2.1497   -2.7453 C   0  0  0  0  0  0  0  0  0  0  0  0
    5.4315   -2.1678   -4.3762 I   0  0  0  0  0  0  0  0  0  0  0  0
    3.6118   -3.3110   -2.3115 N   0  0  0  0  0  0  0  0  0  0  0  0
    2.7543   -3.3559   -1.2818 C   0  0  0  0  0  0  0  0  0  0  0  0
    2.2372   -4.7110   -0.9024 C   0  0  0  0  0  0  0  0  0  0  0  0
    0.4855   -5.0681   -1.7587 Br  0  0  0  0  0  0  0  0  0  0  0  0
    2.3452   -2.1720   -0.6480 C   0  0  0  0  0  0  0  0  0  0  0  0
    1.4115   -2.2258    0.3905 O   0  0  0  0  0  0  0  0  0  0  0  0
    1.8278   -2.2916    1.6782 C   0  0  1  0  0  0  0  0  0  0  0  0
    2.6106   -1.2533    2.0181 F   0  0  0  0  0  0  0  0  0  0  0  0
    0.7554   -2.2850    2.4515 F   0  0  0  0  0  0  0  0  0  0  0  0
    2.5371   -3.4022    1.9324 F   0  0  0  0  0  0  0  0  0  0  0  0
    2.3133    2.2633   -0.9998 H   0  0  0  0  0  0  0  0  0  0  0  0
    1.1593    0.2799   -0.3980 H   0  0  0  0  0  0  0  0  0  0  0  0
    2.7000    0.5049    0.4537 H   0  0  0  0  0  0  0  0  0  0  0  0
    3.9740    0.0328   -2.6370 H   0  0  0  0  0  0  0  0  0  0  0  0
    2.0695   -4.8336    0.1696 H   0  0  0  0  0  0  0  0  0  0  0  0
    2.9169   -5.4780   -1.2855 H   0  0  0  0  0  0  0  0  0  0  0  0
  1  2  1  0
  1 17  1  0
  2  3  1  0
  2 18  1  0
  2 19  1  0
  3  4  2  0
  3 11  1  0
  4  5  1  0
  4 20  1  0
  5  6  1  0
  5  7  2  0
  7  8  1  0
  8  9  1  0
  8 11  2  0
  9 10  1  0
  9 21  1  0
  9 22  1  0
 11 12  1  0
 12 13  1  0
 13 14  1  1
 13 15  1  0
 13 16  1  0
M  END

