
     RDKit          3D

 56 58  0  0  0  0  0  0  0  0999 V2000
    0.9716   -0.7450    0.4490 C   0  0  0  0  0  0  0  0  0  0  0  0
    2.3508   -0.5385    0.0940 N   0  0  0  0  0  0  0  0  0  0  0  0
    2.7544   -0.8393   -1.0878 C   0  0  0  0  0  0  0  0  0  0  0  0
    1.9391   -1.2772   -2.1293 N   0  0  0  0  0  0  0  0  0  0  0  0
    2.3789   -2.0660   -3.2652 C   0  0  0  0  0  0  0  0  0  0  0  0
    2.3794   -1.3373   -4.6243 C   0  0  1  0  0  0  0  0  0  0  0  0
    2.8747   -2.2235   -5.7383 C   0  0  0  0  0  0  0  0  0  0  0  0
    1.9875   -3.0416   -6.4573 C   0  0  0  0  0  0  0  0  0  0  0  0
    2.4434   -3.9108   -7.4514 C   0  0  0  0  0  0  0  0  0  0  0  0
    3.8083   -3.9625   -7.7243 C   0  0  0  0  0  0  0  0  0  0  0  0
    4.2549   -4.7913   -8.6797 F   0  0  0  0  0  0  0  0  0  0  0  0
    4.7196   -3.1699   -7.0301 C   0  0  0  0  0  0  0  0  0  0  0  0
    4.2443   -2.3074   -6.0397 C   0  0  0  0  0  0  0  0  0  0  0  0
    1.2815   -0.3448   -4.9164 C   0  0  0  0  0  0  0  0  0  0  0  0
    2.6895    0.1413   -4.6729 C   0  0  0  0  0  0  0  0  0  0  0  0
    4.1052   -0.7502   -1.3994 N   0  0  0  0  0  0  0  0  0  0  0  0
    5.0270   -0.2088   -0.4091 C   0  0  1  0  0  0  0  0  0  0  0  0
    5.3617   -1.1898    0.7416 C   0  0  0  0  0  0  0  0  0  0  0  0
    6.8287   -1.2719    0.7855 N   0  0  0  0  0  0  0  0  0  0  0  0
    7.3983   -1.6395    2.0785 C   0  0  1  0  0  0  0  0  0  0  0  0
    6.8527   -2.9955    2.5422 C   0  0  0  0  0  0  0  0  0  0  0  0
    8.9295   -1.6822    2.0256 C   0  0  0  0  0  0  0  0  0  0  0  0
    7.3417   -0.0684    0.1486 C   0  0  0  0  0  0  0  0  0  0  0  0
    6.3937    0.1339   -1.0350 C   0  0  2  0  0  0  0  0  0  0  0  0
    6.4731    1.5034   -1.7045 C   0  0  0  0  0  0  0  0  0  0  0  0
    0.8381   -0.6170    1.5349 H   0  0  0  0  0  0  0  0  0  0  0  0
    0.5902   -1.7608    0.2005 H   0  0  0  0  0  0  0  0  0  0  0  0
    0.2855   -0.0190   -0.0383 H   0  0  0  0  0  0  0  0  0  0  0  0
    0.9671   -1.3802   -1.8710 H   0  0  0  0  0  0  0  0  0  0  0  0
    1.7319   -2.9560   -3.3603 H   0  0  0  0  0  0  0  0  0  0  0  0
    3.3928   -2.4459   -3.0644 H   0  0  0  0  0  0  0  0  0  0  0  0
    0.9171   -2.9922   -6.2408 H   0  0  0  0  0  0  0  0  0  0  0  0
    1.7588   -4.5448   -8.0185 H   0  0  0  0  0  0  0  0  0  0  0  0
    5.7819   -3.2353   -7.2736 H   0  0  0  0  0  0  0  0  0  0  0  0
    4.9540   -1.6795   -5.4943 H   0  0  0  0  0  0  0  0  0  0  0  0
    0.5460   -0.1506   -4.1307 H   0  0  0  0  0  0  0  0  0  0  0  0
    0.8871   -0.2946   -5.9350 H   0  0  0  0  0  0  0  0  0  0  0  0
    2.8749    0.6629   -3.7296 H   0  0  0  0  0  0  0  0  0  0  0  0
    3.2596    0.5190   -5.5262 H   0  0  0  0  0  0  0  0  0  0  0  0
    4.3083   -0.4871   -2.3577 H   0  0  0  0  0  0  0  0  0  0  0  0
    4.5875    0.7028    0.0330 H   0  0  0  0  0  0  0  0  0  0  0  0
    4.9079   -2.1752    0.5556 H   0  0  0  0  0  0  0  0  0  0  0  0
    4.9355   -0.8084    1.6917 H   0  0  0  0  0  0  0  0  0  0  0  0
    7.1080   -0.8796    2.8476 H   0  0  0  0  0  0  0  0  0  0  0  0
    7.0999   -3.7772    1.8050 H   0  0  0  0  0  0  0  0  0  0  0  0
    5.7605   -2.9822    2.6711 H   0  0  0  0  0  0  0  0  0  0  0  0
    7.2965   -3.2765    3.5101 H   0  0  0  0  0  0  0  0  0  0  0  0
    9.2667   -2.3781    1.2395 H   0  0  0  0  0  0  0  0  0  0  0  0
    9.3324   -2.0297    2.9895 H   0  0  0  0  0  0  0  0  0  0  0  0
    9.3714   -0.6952    1.8235 H   0  0  0  0  0  0  0  0  0  0  0  0
    8.3862   -0.1892   -0.1779 H   0  0  0  0  0  0  0  0  0  0  0  0
    7.3081    0.8268    0.8185 H   0  0  0  0  0  0  0  0  0  0  0  0
    6.6287   -0.6551   -1.7723 H   0  0  0  0  0  0  0  0  0  0  0  0
    6.2532    2.3106   -0.9862 H   0  0  0  0  0  0  0  0  0  0  0  0
    5.7511    1.5940   -2.5332 H   0  0  0  0  0  0  0  0  0  0  0  0
    7.4755    1.6885   -2.1239 H   0  0  0  0  0  0  0  0  0  0  0  0
  1  2  1  0
  1 26  1  0
  1 27  1  0
  1 28  1  0
  2  3  2  0
  3  4  1  0
  3 16  1  0
  4  5  1  0
  4 29  1  0
  6  5  1  1
  5 30  1  0
  5 31  1  0
  6  7  1  0
  6 14  1  0
  6 15  1  0
  7  8  2  0
  7 13  1  0
  8  9  1  0
  8 32  1  0
  9 10  2  0
  9 33  1  0
 10 11  1  0
 10 12  1  0
 12 13  2  0
 12 34  1  0
 13 35  1  0
 14 15  1  0
 14 36  1  0
 14 37  1  0
 15 38  1  0
 15 39  1  0
 16 17  1  0
 16 40  1  0
 17 18  1  0
 17 24  1  0
 17 41  1  1
 18 19  1  0
 18 42  1  0
 18 43  1  0
 19 20  1  0
 19 23  1  0
 20 21  1  0
 20 22  1  0
 20 44  1  1
 21 45  1  0
 21 46  1  0
 21 47  1  0
 22 48  1  0
 22 49  1  0
 22 50  1  0
 23 24  1  0
 23 51  1  0
 23 52  1  0
 24 25  1  0
 24 53  1  6
 25 54  1  0
 25 55  1  0
 25 56  1  0
M  END

