
     RDKit          3D

 55 58  0  0  0  0  0  0  0  0999 V2000
    0.8031    0.3725    0.1700 N   0  0  0  0  0  0  0  0  0  0  0  0
    2.0680    0.1752    0.0616 C   0  0  0  0  0  0  0  0  0  0  0  0
    2.8428   -1.0569    0.0247 C   0  0  0  0  0  0  0  0  0  0  0  0
    2.5201   -2.4607    0.0916 C   0  0  0  0  0  0  0  0  0  0  0  0
    1.2040   -3.1337    0.0846 C   0  0  0  0  0  0  0  0  0  0  0  0
    0.1879   -2.7535   -0.8150 C   0  0  0  0  0  0  0  0  0  0  0  0
   -1.0388   -3.4214   -0.8361 C   0  0  0  0  0  0  0  0  0  0  0  0
   -1.2760   -4.4917    0.0321 C   0  0  0  0  0  0  0  0  0  0  0  0
   -0.2745   -4.8863    0.9243 C   0  0  0  0  0  0  0  0  0  0  0  0
    0.9486   -4.2127    0.9532 C   0  0  0  0  0  0  0  0  0  0  0  0
    3.7375   -3.1259    0.1219 C   0  0  0  0  0  0  0  0  0  0  0  0
    4.7748   -2.2215    0.0608 N   0  0  0  0  0  0  0  0  0  0  0  0
    6.2025   -2.5282    0.0889 C   0  0  0  0  0  0  0  0  0  0  0  0
    6.7477   -2.7832    1.4825 C   0  0  0  0  0  0  0  0  0  0  0  0
    7.1174   -4.0733    1.8855 C   0  0  0  0  0  0  0  0  0  0  0  0
    7.6117   -4.3046    3.1738 C   0  0  0  0  0  0  0  0  0  0  0  0
    7.7393   -3.2438    4.0736 C   0  0  0  0  0  0  0  0  0  0  0  0
    7.3744   -1.9513    3.6791 C   0  0  0  0  0  0  0  0  0  0  0  0
    6.8838   -1.7217    2.3923 C   0  0  0  0  0  0  0  0  0  0  0  0
    4.2399   -0.9613    0.0072 C   0  0  0  0  0  0  0  0  0  0  0  0
    4.9821    0.1775   -0.0537 N   0  0  0  0  0  0  0  0  0  0  0  0
    4.2697    1.2623   -0.0785 C   0  0  0  0  0  0  0  0  0  0  0  0
    2.9058    1.3329   -0.0304 N   0  0  0  0  0  0  0  0  0  0  0  0
    2.2539    2.6504   -0.0179 C   0  0  0  0  0  0  0  0  0  0  0  0
    1.8528    3.1386    1.3790 C   0  0  0  0  0  0  0  0  0  0  0  0
    3.0185    3.3604    2.3445 C   0  0  0  0  0  0  0  0  0  0  0  0
    2.5773    3.8239    3.7355 C   0  0  0  0  0  0  0  0  0  0  0  0
    3.7264    3.9270    4.7391 C   0  0  0  0  0  0  0  0  0  0  0  0
    4.4247    2.7094    4.9190 O   0  0  0  0  0  0  0  0  0  0  0  0
    0.3059   -0.5143    0.2384 H   0  0  0  0  0  0  0  0  0  0  0  0
    0.3695   -1.9355   -1.5157 H   0  0  0  0  0  0  0  0  0  0  0  0
   -1.8113   -3.1088   -1.5438 H   0  0  0  0  0  0  0  0  0  0  0  0
   -2.2358   -5.0140    0.0138 H   0  0  0  0  0  0  0  0  0  0  0  0
   -0.4503   -5.7183    1.6115 H   0  0  0  0  0  0  0  0  0  0  0  0
    1.7167   -4.5105    1.6713 H   0  0  0  0  0  0  0  0  0  0  0  0
    3.9331   -4.1958    0.1426 H   0  0  0  0  0  0  0  0  0  0  0  0
    6.7104   -1.6660   -0.3652 H   0  0  0  0  0  0  0  0  0  0  0  0
    6.3772   -3.4045   -0.5534 H   0  0  0  0  0  0  0  0  0  0  0  0
    7.0232   -4.9076    1.1837 H   0  0  0  0  0  0  0  0  0  0  0  0
    7.8979   -5.3162    3.4732 H   0  0  0  0  0  0  0  0  0  0  0  0
    8.1254   -3.4218    5.0807 H   0  0  0  0  0  0  0  0  0  0  0  0
    7.4768   -1.1161    4.3769 H   0  0  0  0  0  0  0  0  0  0  0  0
    6.6028   -0.7118    2.0816 H   0  0  0  0  0  0  0  0  0  0  0  0
    4.7783    2.2298   -0.1430 H   0  0  0  0  0  0  0  0  0  0  0  0
    1.3553    2.5682   -0.6431 H   0  0  0  0  0  0  0  0  0  0  0  0
    2.9483    3.3625   -0.4916 H   0  0  0  0  0  0  0  0  0  0  0  0
    1.1361    2.4146    1.7976 H   0  0  0  0  0  0  0  0  0  0  0  0
    1.2951    4.0835    1.2457 H   0  0  0  0  0  0  0  0  0  0  0  0
    3.7212    4.1044    1.9226 H   0  0  0  0  0  0  0  0  0  0  0  0
    3.5990    2.4308    2.4653 H   0  0  0  0  0  0  0  0  0  0  0  0
    1.8181    3.1216    4.1316 H   0  0  0  0  0  0  0  0  0  0  0  0
    2.0716    4.8049    3.6733 H   0  0  0  0  0  0  0  0  0  0  0  0
    3.3440    4.3203    5.7032 H   0  0  0  0  0  0  0  0  0  0  0  0
    4.4760    4.6512    4.3771 H   0  0  0  0  0  0  0  0  0  0  0  0
    3.8022    2.0558    5.2653 H   0  0  0  0  0  0  0  0  0  0  0  0
  1  2  2  0
  1 30  1  0
  2  3  1  0
  2 23  1  0
  3  4  1  0
  3 20  2  0
  4  5  1  0
  4 11  2  0
  5  6  2  0
  5 10  1  0
  6  7  1  0
  6 31  1  0
  7  8  2  0
  7 32  1  0
  8  9  1  0
  8 33  1  0
  9 10  2  0
  9 34  1  0
 10 35  1  0
 11 12  1  0
 11 36  1  0
 12 13  1  0
 12 20  1  0
 13 14  1  0
 13 37  1  0
 13 38  1  0
 14 15  2  0
 14 19  1  0
 15 16  1  0
 15 39  1  0
 16 17  2  0
 16 40  1  0
 17 18  1  0
 17 41  1  0
 18 19  2  0
 18 42  1  0
 19 43  1  0
 20 21  1  0
 21 22  2  0
 22 23  1  0
 22 44  1  0
 23 24  1  0
 24 25  1  0
 24 45  1  0
 24 46  1  0
 25 26  1  0
 25 47  1  0
 25 48  1  0
 26 27  1  0
 26 49  1  0
 26 50  1  0
 27 28  1  0
 27 51  1  0
 27 52  1  0
 28 29  1  0
 28 53  1  0
 28 54  1  0
 29 55  1  0
M  END

