
     RDKit          3D

 48 49  0  0  0  0  0  0  0  0999 V2000
    3.7570   -0.7002    4.3969 C   0  0  0  0  0  0  0  0  0  0  0  0
    5.1937   -0.2081    4.4072 C   0  0  0  0  0  0  0  0  0  0  0  0
    6.0271   -0.7369    5.1190 O   0  0  0  0  0  0  0  0  0  0  0  0
    5.5660    0.9440    3.5223 C   0  0  0  0  0  0  0  0  0  0  0  0
    4.6556    1.6029    2.6800 C   0  0  0  0  0  0  0  0  0  0  0  0
    5.0450    2.6723    1.8735 C   0  0  0  0  0  0  0  0  0  0  0  0
    6.3824    3.1075    1.8989 C   0  0  0  0  0  0  0  0  0  0  0  0
    6.8548    4.1769    1.1234 N   0  0  0  0  0  0  0  0  0  0  0  0
    6.1834    4.9536    0.2120 C   0  0  0  0  0  0  0  0  0  0  0  0
    5.0117    4.8371   -0.0890 O   0  0  0  0  0  0  0  0  0  0  0  0
    7.0285    6.0690   -0.4224 C   0  0  0  0  0  0  0  0  0  0  0  0
    8.4702    5.9671   -0.2169 N   0  0  0  0  0  0  0  0  0  0  0  0
    9.2411    5.1402   -1.1658 C   0  0  0  0  0  0  0  0  0  0  0  0
    9.3727    5.7133   -2.5901 C   0  0  0  0  0  0  0  0  0  0  0  0
   10.1817    4.7986   -3.4830 C   0  0  0  0  0  0  0  0  0  0  0  0
    9.5606    3.8121   -4.2655 C   0  0  0  0  0  0  0  0  0  0  0  0
   10.3160    2.9432   -5.0583 C   0  0  0  0  0  0  0  0  0  0  0  0
   11.7099    3.0464   -5.0793 C   0  0  0  0  0  0  0  0  0  0  0  0
   12.3415    4.0240   -4.3041 C   0  0  0  0  0  0  0  0  0  0  0  0
   11.5833    4.8910   -3.5128 C   0  0  0  0  0  0  0  0  0  0  0  0
    9.2712    7.3181    0.4634 S   0  0  1  0  0  0  0  0  0  0  0  0
    9.5010    6.8488    2.1854 C   0  0  0  0  0  0  0  0  0  0  0  0
   10.6013    7.3943   -0.1446 O   0  0  0  0  0  0  0  0  0  0  0  0
    8.3537    8.4585    0.4505 O   0  0  0  0  0  0  0  0  0  0  0  0
    7.3042    2.4508    2.7404 C   0  0  0  0  0  0  0  0  0  0  0  0
    6.9003    1.3891    3.5368 C   0  0  0  0  0  0  0  0  0  0  0  0
    3.6685   -1.5421    5.0949 H   0  0  0  0  0  0  0  0  0  0  0  0
    3.4572   -1.0279    3.3883 H   0  0  0  0  0  0  0  0  0  0  0  0
    3.0623    0.1001    4.6996 H   0  0  0  0  0  0  0  0  0  0  0  0
    3.6119    1.2849    2.6417 H   0  0  0  0  0  0  0  0  0  0  0  0
    4.3332    3.1757    1.2235 H   0  0  0  0  0  0  0  0  0  0  0  0
    7.8388    4.4108    1.2200 H   0  0  0  0  0  0  0  0  0  0  0  0
    6.6682    7.0242   -0.0122 H   0  0  0  0  0  0  0  0  0  0  0  0
    6.7656    6.0882   -1.4924 H   0  0  0  0  0  0  0  0  0  0  0  0
    8.7489    4.1537   -1.2002 H   0  0  0  0  0  0  0  0  0  0  0  0
   10.2441    4.9792   -0.7476 H   0  0  0  0  0  0  0  0  0  0  0  0
    9.8567    6.6983   -2.5174 H   0  0  0  0  0  0  0  0  0  0  0  0
    8.3715    5.8655   -3.0249 H   0  0  0  0  0  0  0  0  0  0  0  0
    8.4693    3.7287   -4.2615 H   0  0  0  0  0  0  0  0  0  0  0  0
    9.8131    2.1858   -5.6652 H   0  0  0  0  0  0  0  0  0  0  0  0
   12.3020    2.3702   -5.7013 H   0  0  0  0  0  0  0  0  0  0  0  0
   13.4308    4.1155   -4.3191 H   0  0  0  0  0  0  0  0  0  0  0  0
   12.0826    5.6578   -2.9130 H   0  0  0  0  0  0  0  0  0  0  0  0
   10.1353    5.9542    2.2312 H   0  0  0  0  0  0  0  0  0  0  0  0
    8.5191    6.6760    2.6447 H   0  0  0  0  0  0  0  0  0  0  0  0
   10.0034    7.6985    2.6681 H   0  0  0  0  0  0  0  0  0  0  0  0
    8.3469    2.7823    2.7619 H   0  0  0  0  0  0  0  0  0  0  0  0
    7.6070    0.8750    4.1911 H   0  0  0  0  0  0  0  0  0  0  0  0
  1  2  1  0
  1 27  1  0
  1 28  1  0
  1 29  1  0
  2  3  2  0
  2  4  1  0
  4  5  2  0
  4 26  1  0
  5  6  1  0
  5 30  1  0
  6  7  2  0
  6 31  1  0
  7  8  1  0
  7 25  1  0
  8  9  1  0
  8 32  1  0
  9 10  2  0
  9 11  1  0
 11 12  1  0
 11 33  1  0
 11 34  1  0
 12 13  1  0
 21 12  1  6
 13 14  1  0
 13 35  1  0
 13 36  1  0
 14 15  1  0
 14 37  1  0
 14 38  1  0
 15 16  2  0
 15 20  1  0
 16 17  1  0
 16 39  1  0
 17 18  2  0
 17 40  1  0
 18 19  1  0
 18 41  1  0
 19 20  2  0
 19 42  1  0
 20 43  1  0
 21 22  1  0
 21 23  2  0
 21 24  2  0
 22 44  1  0
 22 45  1  0
 22 46  1  0
 25 26  2  0
 25 47  1  0
 26 48  1  0
M  END

