
     RDKit          3D

 41 43  0  0  0  0  0  0  0  0999 V2000
    8.9658    0.5237    5.3119 C   0  0  0  0  0  0  0  0  0  0  0  0
    7.8610    0.3001    4.3298 C   0  0  0  0  0  0  0  0  0  0  0  0
    8.0488   -0.3931    3.2070 N   0  0  0  0  0  0  0  0  0  0  0  0
    6.8631   -0.4137    2.5557 N   0  0  0  0  0  0  0  0  0  0  0  0
    6.7830   -1.0833    1.2602 C   0  0  0  0  0  0  0  0  0  0  0  0
    7.2135   -0.2122    0.0713 C   0  0  0  0  0  0  0  0  0  0  0  0
    8.6654    0.3006    0.1115 C   0  0  0  0  0  0  0  0  0  0  0  0
    9.7047   -0.8170   -0.0174 C   0  0  0  0  0  0  0  0  0  0  0  0
   10.1196   -1.1673   -1.1112 O   0  0  0  0  0  0  0  0  0  0  0  0
   10.0747   -1.3774    1.1792 N   0  0  0  0  0  0  0  0  0  0  0  0
   10.9636   -2.4473    1.4126 C   0  0  0  0  0  0  0  0  0  0  0  0
   11.7402   -3.0415    0.4043 C   0  0  0  0  0  0  0  0  0  0  0  0
   12.6209   -4.1014    0.7005 C   0  0  0  0  0  0  0  0  0  0  0  0
   12.6959   -4.5368    2.0094 C   0  0  0  0  0  0  0  0  0  0  0  0
   11.9222   -3.9489    3.0112 C   0  0  0  0  0  0  0  0  0  0  0  0
   11.0491   -2.9118    2.7521 C   0  0  0  0  0  0  0  0  0  0  0  0
   12.1805   -4.5622    4.2061 O   0  0  0  0  0  0  0  0  0  0  0  0
   13.1482   -5.5770    3.9407 C   0  0  0  0  0  0  0  0  0  0  0  0
   13.4630   -5.5357    2.5542 O   0  0  0  0  0  0  0  0  0  0  0  0
    5.8940    0.2684    3.2320 C   0  0  0  0  0  0  0  0  0  0  0  0
    4.4807    0.4326    2.7742 C   0  0  0  0  0  0  0  0  0  0  0  0
    6.5147    0.7371    4.3880 C   0  0  0  0  0  0  0  0  0  0  0  0
    5.6081    1.8551    5.9123 I   0  0  0  0  0  0  0  0  0  0  0  0
    9.9005    0.0802    4.9421 H   0  0  0  0  0  0  0  0  0  0  0  0
    8.7279    0.0722    6.2889 H   0  0  0  0  0  0  0  0  0  0  0  0
    9.1330    1.5990    5.4850 H   0  0  0  0  0  0  0  0  0  0  0  0
    5.7485   -1.4250    1.1169 H   0  0  0  0  0  0  0  0  0  0  0  0
    7.4084   -1.9843    1.3332 H   0  0  0  0  0  0  0  0  0  0  0  0
    6.5324    0.6525   -0.0050 H   0  0  0  0  0  0  0  0  0  0  0  0
    7.0693   -0.8080   -0.8461 H   0  0  0  0  0  0  0  0  0  0  0  0
    8.8333    0.8899    1.0261 H   0  0  0  0  0  0  0  0  0  0  0  0
    8.8272    0.9619   -0.7515 H   0  0  0  0  0  0  0  0  0  0  0  0
    9.5884   -1.0190    2.0075 H   0  0  0  0  0  0  0  0  0  0  0  0
   11.6470   -2.6732   -0.6140 H   0  0  0  0  0  0  0  0  0  0  0  0
   13.2243   -4.5624   -0.0831 H   0  0  0  0  0  0  0  0  0  0  0  0
   10.4433   -2.4706    3.5451 H   0  0  0  0  0  0  0  0  0  0  0  0
   12.7278   -6.5665    4.2013 H   0  0  0  0  0  0  0  0  0  0  0  0
   14.0589   -5.3856    4.5383 H   0  0  0  0  0  0  0  0  0  0  0  0
    4.3012   -0.0303    1.7952 H   0  0  0  0  0  0  0  0  0  0  0  0
    4.2204    1.5002    2.6960 H   0  0  0  0  0  0  0  0  0  0  0  0
    3.7808   -0.0164    3.4975 H   0  0  0  0  0  0  0  0  0  0  0  0
  1  2  1  0
  1 24  1  0
  1 25  1  0
  1 26  1  0
  2  3  2  0
  2 22  1  0
  3  4  1  0
  4  5  1  0
  4 20  1  0
  5  6  1  0
  5 27  1  0
  5 28  1  0
  6  7  1  0
  6 29  1  0
  6 30  1  0
  7  8  1  0
  7 31  1  0
  7 32  1  0
  8  9  2  0
  8 10  1  0
 10 11  1  0
 10 33  1  0
 11 12  2  0
 11 16  1  0
 12 13  1  0
 12 34  1  0
 13 14  2  0
 13 35  1  0
 14 15  1  0
 14 19  1  0
 15 16  2  0
 15 17  1  0
 16 36  1  0
 17 18  1  0
 18 19  1  0
 18 37  1  0
 18 38  1  0
 20 21  1  0
 20 22  2  0
 21 39  1  0
 21 40  1  0
 21 41  1  0
 22 23  1  0
M  END

