
     RDKit          3D

 29 30  0  0  0  0  0  0  0  0999 V2000
    1.3581    0.6684   -0.3221 O   0  0  0  0  0  0  0  0  0  0  0  0
    2.4642    0.2003   -0.0922 C   0  0  0  0  0  0  0  0  0  0  0  0
    3.0103   -0.7661   -0.8953 N   0  0  0  0  0  0  0  0  0  0  0  0
    2.3221   -1.2050   -2.0886 C   0  0  1  0  0  0  0  0  0  0  0  0
    2.9621   -2.3854   -2.8558 C   0  0  0  0  0  0  0  0  0  0  0  0
    1.5567   -3.0065   -3.0257 C   0  0  2  0  0  0  0  0  0  0  0  0
    0.9443   -2.7821   -4.4007 C   0  0  0  0  0  0  0  0  0  0  0  0
    1.5295   -2.3414   -5.3519 O   0  0  0  0  0  0  0  0  0  0  0  0
   -0.3629   -3.1212   -4.4981 O   0  0  0  0  0  0  0  0  0  0  0  0
    1.0249   -2.0360   -1.9184 C   0  0  0  0  0  0  0  0  0  0  0  0
    3.2921    0.6488    1.0835 C   0  0  0  0  0  0  0  0  0  0  0  0
    4.3390   -0.1113    1.6299 C   0  0  0  0  0  0  0  0  0  0  0  0
    5.0592    0.3633    2.7291 C   0  0  0  0  0  0  0  0  0  0  0  0
    4.7391    1.6017    3.2935 C   0  0  0  0  0  0  0  0  0  0  0  0
    3.6887    2.3588    2.7627 C   0  0  0  0  0  0  0  0  0  0  0  0
    2.9650    1.8815    1.6696 C   0  0  0  0  0  0  0  0  0  0  0  0
    3.9971   -0.9785   -0.8123 H   0  0  0  0  0  0  0  0  0  0  0  0
    2.1299   -0.3476   -2.7558 H   0  0  0  0  0  0  0  0  0  0  0  0
    3.5997   -3.0008   -2.2028 H   0  0  0  0  0  0  0  0  0  0  0  0
    3.4925   -2.1508   -3.7885 H   0  0  0  0  0  0  0  0  0  0  0  0
    1.4718   -4.0802   -2.7852 H   0  0  0  0  0  0  0  0  0  0  0  0
   -0.6943   -3.4362   -3.6447 H   0  0  0  0  0  0  0  0  0  0  0  0
    0.9838   -2.5235   -0.9340 H   0  0  0  0  0  0  0  0  0  0  0  0
    0.0778   -1.5074   -2.0985 H   0  0  0  0  0  0  0  0  0  0  0  0
    4.5806   -1.0958    1.2209 H   0  0  0  0  0  0  0  0  0  0  0  0
    5.8669   -0.2398    3.1513 H   0  0  0  0  0  0  0  0  0  0  0  0
    5.3040    1.9736    4.1522 H   0  0  0  0  0  0  0  0  0  0  0  0
    3.4316    3.3239    3.2065 H   0  0  0  0  0  0  0  0  0  0  0  0
    2.1327    2.4476    1.2471 H   0  0  0  0  0  0  0  0  0  0  0  0
  1  2  2  0
  2  3  1  0
  2 11  1  0
  3  4  1  0
  3 17  1  0
  4  5  1  0
  4 10  1  0
  4 18  1  6
  5  6  1  0
  5 19  1  0
  5 20  1  0
  6  7  1  0
  6 10  1  0
  6 21  1  1
  7  8  2  0
  7  9  1  0
  9 22  1  0
 10 23  1  0
 10 24  1  0
 11 12  2  0
 11 16  1  0
 12 13  1  0
 12 25  1  0
 13 14  2  0
 13 26  1  0
 14 15  1  0
 14 27  1  0
 15 16  2  0
 15 28  1  0
 16 29  1  0
M  END

