
     RDKit          3D

 42 44  0  0  0  0  0  0  0  0999 V2000
    4.9993   -5.0708   -0.2264 C   0  0  0  0  0  0  0  0  0  0  0  0
    3.7967   -4.3289   -0.2344 O   0  0  0  0  0  0  0  0  0  0  0  0
    3.7866   -3.0480    0.2182 C   0  0  0  0  0  0  0  0  0  0  0  0
    4.9142   -2.4155    0.7624 C   0  0  0  0  0  0  0  0  0  0  0  0
    4.8420   -1.0848    1.1833 C   0  0  0  0  0  0  0  0  0  0  0  0
    3.6495   -0.3700    1.0650 C   0  0  0  0  0  0  0  0  0  0  0  0
    2.5271   -1.0003    0.5262 C   0  0  0  0  0  0  0  0  0  0  0  0
    2.5639   -2.3374    0.0992 C   0  0  0  0  0  0  0  0  0  0  0  0
    1.3441   -2.9535   -0.4867 C   0  0  0  0  0  0  0  0  0  0  0  0
    0.9477   -4.3173   -0.2358 C   0  0  0  0  0  0  0  0  0  0  0  0
   -0.2076   -4.7860   -0.7725 C   0  0  0  0  0  0  0  0  0  0  0  0
   -1.0598   -3.9460   -1.6046 C   0  0  0  0  0  0  0  0  0  0  0  0
   -2.1071   -4.2873   -2.1254 O   0  0  0  0  0  0  0  0  0  0  0  0
   -0.5494   -2.6295   -1.7540 N   0  0  0  0  0  0  0  0  0  0  0  0
   -1.3205   -1.6647   -2.5384 C   0  0  0  0  0  0  0  0  0  0  0  0
   -0.6878   -1.1887   -3.8625 C   0  0  0  0  0  0  0  0  0  0  0  0
   -1.3901   -1.0234   -4.8412 O   0  0  0  0  0  0  0  0  0  0  0  0
    0.6544   -0.9234   -3.7908 N   0  0  0  0  0  0  0  0  0  0  0  0
    1.5148   -0.4608   -4.8009 C   0  0  0  0  0  0  0  0  0  0  0  0
    1.0909   -0.1821   -6.1134 C   0  0  0  0  0  0  0  0  0  0  0  0
    2.0219    0.2719   -7.0498 C   0  0  0  0  0  0  0  0  0  0  0  0
    3.3664    0.4597   -6.7204 C   0  0  0  0  0  0  0  0  0  0  0  0
    3.7709    0.1796   -5.4127 C   0  0  0  0  0  0  0  0  0  0  0  0
    5.4487    0.4019   -4.9585 Cl  0  0  0  0  0  0  0  0  0  0  0  0
    2.8668   -0.2759   -4.4550 C   0  0  0  0  0  0  0  0  0  0  0  0
    0.5882   -2.1711   -1.2203 N   0  0  0  0  0  0  0  0  0  0  0  0
    4.7626   -6.0488   -0.6656 H   0  0  0  0  0  0  0  0  0  0  0  0
    5.3826   -5.2206    0.7983 H   0  0  0  0  0  0  0  0  0  0  0  0
    5.7811   -4.5836   -0.8348 H   0  0  0  0  0  0  0  0  0  0  0  0
    5.8573   -2.9537    0.8529 H   0  0  0  0  0  0  0  0  0  0  0  0
    5.7307   -0.6095    1.6059 H   0  0  0  0  0  0  0  0  0  0  0  0
    3.5894    0.6691    1.3954 H   0  0  0  0  0  0  0  0  0  0  0  0
    1.5844   -0.4579    0.4333 H   0  0  0  0  0  0  0  0  0  0  0  0
    1.5792   -4.9486    0.3874 H   0  0  0  0  0  0  0  0  0  0  0  0
   -0.5607   -5.8053   -0.6056 H   0  0  0  0  0  0  0  0  0  0  0  0
   -1.5185   -0.7800   -1.9106 H   0  0  0  0  0  0  0  0  0  0  0  0
   -2.2695   -2.1447   -2.7966 H   0  0  0  0  0  0  0  0  0  0  0  0
    1.0753   -1.0870   -2.8754 H   0  0  0  0  0  0  0  0  0  0  0  0
    0.0458   -0.3230   -6.3772 H   0  0  0  0  0  0  0  0  0  0  0  0
    1.6870    0.4865   -8.0680 H   0  0  0  0  0  0  0  0  0  0  0  0
    4.0899    0.8152   -7.4550 H   0  0  0  0  0  0  0  0  0  0  0  0
    3.2140   -0.4864   -3.4414 H   0  0  0  0  0  0  0  0  0  0  0  0
  1  2  1  0
  1 27  1  0
  1 28  1  0
  1 29  1  0
  2  3  1  0
  3  4  2  0
  3  8  1  0
  4  5  1  0
  4 30  1  0
  5  6  2  0
  5 31  1  0
  6  7  1  0
  6 32  1  0
  7  8  2  0
  7 33  1  0
  8  9  1  0
  9 10  1  0
  9 26  2  0
 10 11  2  0
 10 34  1  0
 11 12  1  0
 11 35  1  0
 12 13  2  0
 12 14  1  0
 14 15  1  0
 14 26  1  0
 15 16  1  0
 15 36  1  0
 15 37  1  0
 16 17  2  0
 16 18  1  0
 18 19  1  0
 18 38  1  0
 19 20  2  0
 19 25  1  0
 20 21  1  0
 20 39  1  0
 21 22  2  0
 21 40  1  0
 22 23  1  0
 22 41  1  0
 23 24  1  0
 23 25  2  0
 25 42  1  0
M  END

