
     RDKit          3D

 54 56  0  0  0  0  0  0  0  0999 V2000
    8.9164    3.2743   -5.5041 C   0  0  0  0  0  0  0  0  0  0  0  0
    8.4129    2.2502   -4.5062 C   0  0  0  0  0  0  0  0  0  0  0  0
    9.3194    2.2208   -3.4098 O   0  0  0  0  0  0  0  0  0  0  0  0
    9.0987    1.3920   -2.3677 C   0  0  0  0  0  0  0  0  0  0  0  0
    8.0111    0.5046   -2.2738 C   0  0  0  0  0  0  0  0  0  0  0  0
    7.8757   -0.3111   -1.1481 C   0  0  0  0  0  0  0  0  0  0  0  0
    8.8203   -0.2510   -0.1214 C   0  0  0  0  0  0  0  0  0  0  0  0
    8.6437   -1.3221    1.3071 S   0  0  1  0  0  0  0  0  0  0  0  0
    9.3728   -0.6987    2.4112 O   0  0  0  0  0  0  0  0  0  0  0  0
    7.2352   -1.7057    1.3936 O   0  0  0  0  0  0  0  0  0  0  0  0
    9.4554   -2.7490    0.9556 N   0  0  0  0  0  0  0  0  0  0  0  0
   10.9065   -2.7946    0.8657 C   0  0  0  0  0  0  0  0  0  0  0  0
   11.4060   -4.2270    1.1049 C   0  0  0  0  0  0  0  0  0  0  0  0
   12.8406   -4.3439    0.9484 N   0  0  0  0  0  0  0  0  0  0  0  0
   13.6847   -4.5503    2.0125 C   0  0  0  0  0  0  0  0  0  0  0  0
   13.2778   -4.6726    3.1566 O   0  0  0  0  0  0  0  0  0  0  0  0
   15.1518   -4.6371    1.6831 C   0  0  0  0  0  0  0  0  0  0  0  0
   15.7303   -4.1005    0.5223 C   0  0  0  0  0  0  0  0  0  0  0  0
   17.1021   -4.2073    0.2938 C   0  0  0  0  0  0  0  0  0  0  0  0
   17.9453   -4.8534    1.2170 C   0  0  0  0  0  0  0  0  0  0  0  0
   19.4066   -4.9733    0.9701 C   0  0  0  0  0  0  0  0  0  0  0  0
   20.1260   -3.9344    0.3489 C   0  0  0  0  0  0  0  0  0  0  0  0
   21.4983   -4.0480    0.1180 C   0  0  0  0  0  0  0  0  0  0  0  0
   22.1839   -5.2045    0.5015 C   0  0  0  0  0  0  0  0  0  0  0  0
   21.4842   -6.2454    1.1192 C   0  0  0  0  0  0  0  0  0  0  0  0
   20.1123   -6.1306    1.3516 C   0  0  0  0  0  0  0  0  0  0  0  0
   17.3579   -5.3759    2.3864 C   0  0  0  0  0  0  0  0  0  0  0  0
   15.9900   -5.2620    2.6190 C   0  0  0  0  0  0  0  0  0  0  0  0
    9.8982    0.6434   -0.1995 C   0  0  0  0  0  0  0  0  0  0  0  0
   10.0369    1.4552   -1.3181 C   0  0  0  0  0  0  0  0  0  0  0  0
    8.2383    3.3252   -6.3698 H   0  0  0  0  0  0  0  0  0  0  0  0
    9.9215    3.0063   -5.8637 H   0  0  0  0  0  0  0  0  0  0  0  0
    8.9697    4.2725   -5.0437 H   0  0  0  0  0  0  0  0  0  0  0  0
    8.3514    1.2471   -4.9684 H   0  0  0  0  0  0  0  0  0  0  0  0
    7.4005    2.5140   -4.1478 H   0  0  0  0  0  0  0  0  0  0  0  0
    7.2603    0.4504   -3.0618 H   0  0  0  0  0  0  0  0  0  0  0  0
    7.0206   -0.9836   -1.0542 H   0  0  0  0  0  0  0  0  0  0  0  0
    8.9333   -3.3111    0.2858 H   0  0  0  0  0  0  0  0  0  0  0  0
   11.3095   -2.1373    1.6494 H   0  0  0  0  0  0  0  0  0  0  0  0
   11.2840   -2.4247   -0.1103 H   0  0  0  0  0  0  0  0  0  0  0  0
   10.8996   -4.9201    0.4086 H   0  0  0  0  0  0  0  0  0  0  0  0
   11.1569   -4.5382    2.1283 H   0  0  0  0  0  0  0  0  0  0  0  0
   13.2243   -4.3755    0.0129 H   0  0  0  0  0  0  0  0  0  0  0  0
   15.1183   -3.5687   -0.2111 H   0  0  0  0  0  0  0  0  0  0  0  0
   17.5233   -3.7955   -0.6259 H   0  0  0  0  0  0  0  0  0  0  0  0
   19.6088   -3.0143    0.0670 H   0  0  0  0  0  0  0  0  0  0  0  0
   22.0369   -3.2238   -0.3568 H   0  0  0  0  0  0  0  0  0  0  0  0
   23.2581   -5.2937    0.3207 H   0  0  0  0  0  0  0  0  0  0  0  0
   22.0084   -7.1574    1.4164 H   0  0  0  0  0  0  0  0  0  0  0  0
   19.5746   -6.9614    1.8142 H   0  0  0  0  0  0  0  0  0  0  0  0
   17.9896   -5.8538    3.1384 H   0  0  0  0  0  0  0  0  0  0  0  0
   15.5409   -5.6461    3.5368 H   0  0  0  0  0  0  0  0  0  0  0  0
   10.6051    0.7113    0.6294 H   0  0  0  0  0  0  0  0  0  0  0  0
   10.8613    2.1658   -1.4042 H   0  0  0  0  0  0  0  0  0  0  0  0
  1  2  1  0
  1 31  1  0
  1 32  1  0
  1 33  1  0
  2  3  1  0
  2 34  1  0
  2 35  1  0
  3  4  1  0
  4  5  2  0
  4 30  1  0
  5  6  1  0
  5 36  1  0
  6  7  2  0
  6 37  1  0
  7  8  1  0
  7 29  1  0
  8  9  2  0
  8 10  2  0
  8 11  1  6
 11 12  1  0
 11 38  1  0
 12 13  1  0
 12 39  1  0
 12 40  1  0
 13 14  1  0
 13 41  1  0
 13 42  1  0
 14 15  1  0
 14 43  1  0
 15 16  2  0
 15 17  1  0
 17 18  2  0
 17 28  1  0
 18 19  1  0
 18 44  1  0
 19 20  2  0
 19 45  1  0
 20 21  1  0
 20 27  1  0
 21 22  2  0
 21 26  1  0
 22 23  1  0
 22 46  1  0
 23 24  2  0
 23 47  1  0
 24 25  1  0
 24 48  1  0
 25 26  2  0
 25 49  1  0
 26 50  1  0
 27 28  2  0
 27 51  1  0
 28 52  1  0
 29 30  2  0
 29 53  1  0
 30 54  1  0
M  END

