
     RDKit          3D

 41 42  0  0  0  0  0  0  0  0999 V2000
    2.2687    1.0623    2.9600 O   0  0  0  0  0  0  0  0  0  0  0  0
    2.0741    0.6816    1.8071 C   0  0  0  0  0  0  0  0  0  0  0  0
    0.8547    0.2352    1.3685 N   0  0  0  0  0  0  0  0  0  0  0  0
   -0.3240    0.2076    2.2259 C   0  0  0  0  0  0  0  0  0  0  0  0
   -0.5529   -1.1048    2.9865 C   0  0  0  0  0  0  0  0  0  0  0  0
    0.5650   -1.4490    3.9824 C   0  0  0  0  0  0  0  0  0  0  0  0
    0.8306   -0.4084    4.8853 O   0  0  0  0  0  0  0  0  0  0  0  0
    3.0532    0.6850    0.8318 N   0  0  0  0  0  0  0  0  0  0  0  0
    4.4190    0.9592    0.9557 C   0  0  0  0  0  0  0  0  0  0  0  0
    5.0702    1.1507    2.1829 C   0  0  0  0  0  0  0  0  0  0  0  0
    6.4540    1.3350    2.1992 C   0  0  0  0  0  0  0  0  0  0  0  0
    7.2590    1.5650    3.7358 Cl  0  0  0  0  0  0  0  0  0  0  0  0
    7.2066    1.3317    1.0249 C   0  0  0  0  0  0  0  0  0  0  0  0
    6.5445    1.1738   -0.1955 C   0  0  0  0  0  0  0  0  0  0  0  0
    5.1568    1.0005   -0.2632 C   0  0  0  0  0  0  0  0  0  0  0  0
    4.4232    0.8258   -1.4757 N   0  0  0  0  0  0  0  0  0  0  0  0
    3.7214    2.0069   -2.0105 C   0  0  0  0  0  0  0  0  0  0  0  0
    4.5649    2.7489   -3.0463 C   0  0  0  0  0  0  0  0  0  0  0  0
    4.9509    1.8756   -4.0911 O   0  0  0  0  0  0  0  0  0  0  0  0
    5.7318    0.7971   -3.6157 C   0  0  0  0  0  0  0  0  0  0  0  0
    4.9778   -0.0059   -2.5480 C   0  0  0  0  0  0  0  0  0  0  0  0
    0.7855   -0.1868    0.4505 H   0  0  0  0  0  0  0  0  0  0  0  0
   -1.2020    0.4393    1.6013 H   0  0  0  0  0  0  0  0  0  0  0  0
   -0.2179    1.0249    2.9534 H   0  0  0  0  0  0  0  0  0  0  0  0
   -0.6844   -1.9416    2.2755 H   0  0  0  0  0  0  0  0  0  0  0  0
   -1.5035   -1.0006    3.5383 H   0  0  0  0  0  0  0  0  0  0  0  0
    1.4767   -1.7502    3.4256 H   0  0  0  0  0  0  0  0  0  0  0  0
    0.2563   -2.3333    4.5667 H   0  0  0  0  0  0  0  0  0  0  0  0
    1.3814    0.2423    4.4104 H   0  0  0  0  0  0  0  0  0  0  0  0
    2.8206    0.3983   -0.1176 H   0  0  0  0  0  0  0  0  0  0  0  0
    4.4946    1.1407    3.1046 H   0  0  0  0  0  0  0  0  0  0  0  0
    8.2877    1.4698    1.0625 H   0  0  0  0  0  0  0  0  0  0  0  0
    7.1281    1.1976   -1.1164 H   0  0  0  0  0  0  0  0  0  0  0  0
    3.4444    2.6748   -1.1816 H   0  0  0  0  0  0  0  0  0  0  0  0
    2.7890    1.6728   -2.5042 H   0  0  0  0  0  0  0  0  0  0  0  0
    5.4587    3.1933   -2.5608 H   0  0  0  0  0  0  0  0  0  0  0  0
    3.9861    3.5651   -3.5065 H   0  0  0  0  0  0  0  0  0  0  0  0
    6.6961    1.1743   -3.2180 H   0  0  0  0  0  0  0  0  0  0  0  0
    5.9570    0.1571   -4.4832 H   0  0  0  0  0  0  0  0  0  0  0  0
    5.6259   -0.7798   -2.1102 H   0  0  0  0  0  0  0  0  0  0  0  0
    4.1365   -0.5218   -3.0483 H   0  0  0  0  0  0  0  0  0  0  0  0
  1  2  2  0
  2  3  1  0
  2  8  1  0
  3  4  1  0
  3 22  1  0
  4  5  1  0
  4 23  1  0
  4 24  1  0
  5  6  1  0
  5 25  1  0
  5 26  1  0
  6  7  1  0
  6 27  1  0
  6 28  1  0
  7 29  1  0
  8  9  1  0
  8 30  1  0
  9 10  2  0
  9 15  1  0
 10 11  1  0
 10 31  1  0
 11 12  1  0
 11 13  2  0
 13 14  1  0
 13 32  1  0
 14 15  2  0
 14 33  1  0
 15 16  1  0
 16 17  1  0
 16 21  1  0
 17 18  1  0
 17 34  1  0
 17 35  1  0
 18 19  1  0
 18 36  1  0
 18 37  1  0
 19 20  1  0
 20 21  1  0
 20 38  1  0
 20 39  1  0
 21 40  1  0
 21 41  1  0
M  END

