
     RDKit          3D

 42 42  0  0  0  0  0  0  0  0999 V2000
    0.9250    0.0820   -0.2227 C   0  0  0  0  0  0  0  0  0  0  0  0
    2.4488    0.1523   -0.1144 C   0  0  0  0  0  0  0  0  0  0  0  0
    3.0523   -0.9816    0.7193 C   0  0  0  0  0  0  0  0  0  0  0  0
    4.5752   -0.9202    0.8268 C   0  0  0  0  0  0  0  0  0  0  0  0
    5.0854   -1.9952    1.6726 N   0  0  0  0  0  0  0  0  0  0  0  0
    6.5400   -2.1524    1.7438 C   0  0  1  0  0  0  0  0  0  0  0  0
    7.2556   -0.8632    2.1672 C   0  0  0  0  0  0  0  0  0  0  0  0
    6.9203   -3.2650    2.7424 C   0  0  0  0  0  0  0  0  0  0  0  0
    8.0038   -3.8253    2.6785 O   0  0  0  0  0  0  0  0  0  0  0  0
    5.9859   -3.5092    3.6994 N   0  0  0  0  0  0  0  0  0  0  0  0
    6.1878   -4.4712    4.7783 C   0  0  1  0  0  0  0  0  0  0  0  0
    5.5916   -3.9435    6.0954 C   0  0  0  0  0  0  0  0  0  0  0  0
    4.0548   -3.9463    6.0947 C   0  0  0  0  0  0  0  0  0  0  0  0
    3.4918   -5.3305    5.7420 C   0  0  0  0  0  0  0  0  0  0  0  0
    4.0675   -5.8527    4.4180 C   0  0  0  0  0  0  0  0  0  0  0  0
    5.6013   -5.8574    4.4361 C   0  0  0  0  0  0  0  0  0  0  0  0
    0.5241    0.9122   -0.8256 H   0  0  0  0  0  0  0  0  0  0  0  0
    0.4498    0.1324    0.7713 H   0  0  0  0  0  0  0  0  0  0  0  0
    0.5992   -0.8598   -0.6956 H   0  0  0  0  0  0  0  0  0  0  0  0
    2.7424    1.1221    0.3268 H   0  0  0  0  0  0  0  0  0  0  0  0
    2.8914    0.1370   -1.1269 H   0  0  0  0  0  0  0  0  0  0  0  0
    2.7573   -1.9533    0.2781 H   0  0  0  0  0  0  0  0  0  0  0  0
    2.6277   -0.9682    1.7388 H   0  0  0  0  0  0  0  0  0  0  0  0
    4.8639    0.0488    1.2661 H   0  0  0  0  0  0  0  0  0  0  0  0
    5.0179   -0.9402   -0.1950 H   0  0  0  0  0  0  0  0  0  0  0  0
    4.6863   -2.8758    1.3446 H   0  0  0  0  0  0  0  0  0  0  0  0
    6.9788   -2.4766    0.7770 H   0  0  0  0  0  0  0  0  0  0  0  0
    6.8332   -0.4755    3.1084 H   0  0  0  0  0  0  0  0  0  0  0  0
    7.1786   -0.0792    1.3991 H   0  0  0  0  0  0  0  0  0  0  0  0
    8.3218   -1.0814    2.3226 H   0  0  0  0  0  0  0  0  0  0  0  0
    5.1361   -2.9545    3.6326 H   0  0  0  0  0  0  0  0  0  0  0  0
    7.2788   -4.5736    4.8779 H   0  0  0  0  0  0  0  0  0  0  0  0
    5.9822   -2.9329    6.3005 H   0  0  0  0  0  0  0  0  0  0  0  0
    5.9499   -4.5926    6.9136 H   0  0  0  0  0  0  0  0  0  0  0  0
    3.6764   -3.2025    5.3680 H   0  0  0  0  0  0  0  0  0  0  0  0
    3.6795   -3.6166    7.0779 H   0  0  0  0  0  0  0  0  0  0  0  0
    2.3901   -5.2957    5.6974 H   0  0  0  0  0  0  0  0  0  0  0  0
    3.7471   -6.0400    6.5512 H   0  0  0  0  0  0  0  0  0  0  0  0
    3.7140   -5.2129    3.5882 H   0  0  0  0  0  0  0  0  0  0  0  0
    3.6862   -6.8656    4.2060 H   0  0  0  0  0  0  0  0  0  0  0  0
    6.0105   -6.1925    3.4697 H   0  0  0  0  0  0  0  0  0  0  0  0
    5.9560   -6.5777    5.1955 H   0  0  0  0  0  0  0  0  0  0  0  0
  1  2  1  0
  1 17  1  0
  1 18  1  0
  1 19  1  0
  2  3  1  0
  2 20  1  0
  2 21  1  0
  3  4  1  0
  3 22  1  0
  3 23  1  0
  4  5  1  0
  4 24  1  0
  4 25  1  0
  5  6  1  0
  5 26  1  0
  6  7  1  0
  6  8  1  0
  6 27  1  6
  7 28  1  0
  7 29  1  0
  7 30  1  0
  8  9  2  0
  8 10  1  0
 10 11  1  0
 10 31  1  0
 11 12  1  0
 11 16  1  0
 11 32  1  1
 12 13  1  0
 12 33  1  0
 12 34  1  0
 13 14  1  0
 13 35  1  0
 13 36  1  0
 14 15  1  0
 14 37  1  0
 14 38  1  0
 15 16  1  0
 15 39  1  0
 15 40  1  0
 16 41  1  0
 16 42  1  0
M  END

