
     RDKit          3D

 43 47  0  0  0  0  0  0  0  0999 V2000
    6.4211    1.7008    0.0154 C   0  0  0  0  0  0  0  0  0  0  0  0
    5.7570    0.6061    0.6228 O   0  0  0  0  0  0  0  0  0  0  0  0
    4.7366    0.8331    1.5049 C   0  0  0  0  0  0  0  0  0  0  0  0
    4.3055    2.1207    1.8502 C   0  0  0  0  0  0  0  0  0  0  0  0
    3.2573    2.2921    2.7585 C   0  0  0  0  0  0  0  0  0  0  0  0
    2.6293    1.1839    3.3312 C   0  0  0  0  0  0  0  0  0  0  0  0
    3.0562   -0.0967    2.9896 C   0  0  0  0  0  0  0  0  0  0  0  0
    4.1082   -0.3030    2.0787 C   0  0  0  0  0  0  0  0  0  0  0  0
    4.4937   -1.6847    1.7761 C   0  0  0  0  0  0  0  0  0  0  0  0
    3.9201   -2.7594    2.3089 N   0  0  0  0  0  0  0  0  0  0  0  0
    4.5678   -3.8280    1.7718 C   0  0  0  0  0  0  0  0  0  0  0  0
    5.5757   -3.4054    0.8949 C   0  0  0  0  0  0  0  0  0  0  0  0
    5.4976   -2.0372    0.9069 N   0  0  0  0  0  0  0  0  0  0  0  0
    6.0678   -1.3541    0.4191 H   0  0  0  0  0  0  0  0  0  0  0  0
    6.4271   -4.3007    0.1630 C   0  0  0  0  0  0  0  0  0  0  0  0
    7.1690   -4.0726   -0.9449 C   0  0  0  0  0  0  0  0  0  0  0  0
    7.7870   -5.2621   -1.5536 C   0  0  0  0  0  0  0  0  0  0  0  0
    8.4774   -5.3093   -2.5379 O   0  0  0  0  0  0  0  0  0  0  0  0
    7.3042   -6.7361   -0.5830 S   0  0  0  0  0  0  0  0  0  0  0  0
    6.4475   -5.7330    0.7139 C   0  0  1  0  0  0  0  0  0  0  0  0
    7.3065   -5.7802    1.9963 C   0  0  0  0  0  0  0  0  0  0  0  0
    4.9616   -6.1849    0.9783 C   0  0  1  0  0  0  0  0  0  0  0  0
    4.1100   -6.1650   -0.3101 C   0  0  0  0  0  0  0  0  0  0  0  0
    4.8289   -7.8713    1.7243 S   0  0  0  0  0  0  0  0  0  0  0  0
    3.8040   -7.2810    3.1270 C   0  0  0  0  0  0  0  0  0  0  0  0
    3.3345   -8.0131    3.9567 O   0  0  0  0  0  0  0  0  0  0  0  0
    3.7086   -5.8121    3.0557 C   0  0  0  0  0  0  0  0  0  0  0  0
    4.3471   -5.2391    2.0156 C   0  0  0  0  0  0  0  0  0  0  0  0
    7.1882    1.2729   -0.6432 H   0  0  0  0  0  0  0  0  0  0  0  0
    6.9103    2.3441    0.7662 H   0  0  0  0  0  0  0  0  0  0  0  0
    5.7274    2.3097   -0.5887 H   0  0  0  0  0  0  0  0  0  0  0  0
    4.7823    2.9980    1.4146 H   0  0  0  0  0  0  0  0  0  0  0  0
    2.9349    3.3041    3.0153 H   0  0  0  0  0  0  0  0  0  0  0  0
    1.8101    1.3166    4.0408 H   0  0  0  0  0  0  0  0  0  0  0  0
    2.5854   -0.9821    3.4193 H   0  0  0  0  0  0  0  0  0  0  0  0
    7.2879   -3.1096   -1.4456 H   0  0  0  0  0  0  0  0  0  0  0  0
    8.3214   -5.4183    1.7806 H   0  0  0  0  0  0  0  0  0  0  0  0
    7.3727   -6.8112    2.3686 H   0  0  0  0  0  0  0  0  0  0  0  0
    6.8715   -5.1541    2.7900 H   0  0  0  0  0  0  0  0  0  0  0  0
    4.5101   -6.8797   -1.0418 H   0  0  0  0  0  0  0  0  0  0  0  0
    4.1050   -5.1651   -0.7703 H   0  0  0  0  0  0  0  0  0  0  0  0
    3.0738   -6.4445   -0.0755 H   0  0  0  0  0  0  0  0  0  0  0  0
    3.1921   -5.2643    3.8453 H   0  0  0  0  0  0  0  0  0  0  0  0
  1  2  1  0
  1 29  1  0
  1 30  1  0
  1 31  1  0
  2  3  1  0
  3  4  2  0
  3  8  1  0
  4  5  1  0
  4 32  1  0
  5  6  2  0
  5 33  1  0
  6  7  1  0
  6 34  1  0
  7  8  2  0
  7 35  1  0
  8  9  1  0
  9 10  2  0
  9 13  1  0
 10 11  1  0
 11 12  2  0
 11 28  1  0
 12 13  1  0
 12 15  1  0
 13 14  1  0
 15 16  2  0
 15 20  1  0
 16 17  1  0
 16 36  1  0
 17 18  2  0
 17 19  1  0
 19 20  1  0
 20 21  1  1
 20 22  1  0
 21 37  1  0
 21 38  1  0
 21 39  1  0
 22 23  1  6
 22 24  1  0
 22 28  1  0
 23 40  1  0
 23 41  1  0
 23 42  1  0
 24 25  2  0
 25 26  1  0
 25 27  1  0
 27 28  2  0
 27 43  1  0
M  CHG  2  24   1  26  -1
M  END

