
     RDKit          3D

 36 36  0  0  0  0  0  0  0  0999 V2000
    1.8878    1.3550   -0.7340 C   0  0  0  0  0  0  0  0  0  0  0  0
    3.3523    1.3255   -1.1766 C   0  0  0  0  0  0  0  0  0  0  0  0
    4.1291    2.5564   -0.7096 C   0  0  0  0  0  0  0  0  0  0  0  0
    5.8723    2.4538   -1.2781 S   0  0  0  0  0  0  0  0  0  0  0  0
    6.5393    4.0309   -0.6669 C   0  0  0  0  0  0  0  0  0  0  0  0
    6.7255    4.1581    0.8433 C   0  0  0  0  0  0  0  0  0  0  0  0
    6.0921    3.5177    1.6492 O   0  0  0  0  0  0  0  0  0  0  0  0
    7.7749    5.1865    1.2838 C   0  0  0  0  0  0  0  0  0  0  0  0
    9.1713    4.6693    1.0678 C   0  0  0  0  0  0  0  0  0  0  0  0
    9.9151    3.7863    1.8906 C   0  0  0  0  0  0  0  0  0  0  0  0
   11.1066    3.6031    1.2091 C   0  0  0  0  0  0  0  0  0  0  0  0
   11.0261    4.3355    0.0663 N   0  0  0  0  0  0  0  0  0  0  0  0
   12.0465    4.4820   -0.9794 C   0  0  1  0  0  0  0  0  0  0  0  0
   11.5283    3.9534   -2.3194 C   0  0  0  0  0  0  0  0  0  0  0  0
   12.5267    5.9335   -1.0635 C   0  0  0  0  0  0  0  0  0  0  0  0
    9.8582    4.9874   -0.0324 N   0  0  0  0  0  0  0  0  0  0  0  0
    1.3509    0.4554   -1.0746 H   0  0  0  0  0  0  0  0  0  0  0  0
    1.3608    2.2327   -1.1443 H   0  0  0  0  0  0  0  0  0  0  0  0
    1.8021    1.4000    0.3642 H   0  0  0  0  0  0  0  0  0  0  0  0
    3.4100    1.2516   -2.2769 H   0  0  0  0  0  0  0  0  0  0  0  0
    3.8426    0.4193   -0.7805 H   0  0  0  0  0  0  0  0  0  0  0  0
    4.1299    2.6302    0.3871 H   0  0  0  0  0  0  0  0  0  0  0  0
    3.6769    3.4758   -1.1211 H   0  0  0  0  0  0  0  0  0  0  0  0
    5.8946    4.8709   -0.9890 H   0  0  0  0  0  0  0  0  0  0  0  0
    7.5073    4.1830   -1.1689 H   0  0  0  0  0  0  0  0  0  0  0  0
    7.5972    5.3976    2.3475 H   0  0  0  0  0  0  0  0  0  0  0  0
    7.6517    6.1138    0.7020 H   0  0  0  0  0  0  0  0  0  0  0  0
    9.6185    3.3495    2.8411 H   0  0  0  0  0  0  0  0  0  0  0  0
   11.9915    3.0164    1.4481 H   0  0  0  0  0  0  0  0  0  0  0  0
   12.8837    3.8472   -0.6461 H   0  0  0  0  0  0  0  0  0  0  0  0
   10.6697    4.5503   -2.6611 H   0  0  0  0  0  0  0  0  0  0  0  0
   11.2067    2.9043   -2.2326 H   0  0  0  0  0  0  0  0  0  0  0  0
   12.3195    4.0110   -3.0829 H   0  0  0  0  0  0  0  0  0  0  0  0
   11.6932    6.5945   -1.3437 H   0  0  0  0  0  0  0  0  0  0  0  0
   13.3214    6.0296   -1.8194 H   0  0  0  0  0  0  0  0  0  0  0  0
   12.9260    6.2738   -0.0958 H   0  0  0  0  0  0  0  0  0  0  0  0
  1  2  1  0
  1 17  1  0
  1 18  1  0
  1 19  1  0
  2  3  1  0
  2 20  1  0
  2 21  1  0
  3  4  1  0
  3 22  1  0
  3 23  1  0
  4  5  1  0
  5  6  1  0
  5 24  1  0
  5 25  1  0
  6  7  2  0
  6  8  1  0
  8  9  1  0
  8 26  1  0
  8 27  1  0
  9 10  1  0
  9 16  2  0
 10 11  2  0
 10 28  1  0
 11 12  1  0
 11 29  1  0
 12 13  1  0
 12 16  1  0
 13 14  1  0
 13 15  1  0
 13 30  1  1
 14 31  1  0
 14 32  1  0
 14 33  1  0
 15 34  1  0
 15 35  1  0
 15 36  1  0
M  END

