
     RDKit          3D

 39 41  0  0  0  0  0  0  0  0999 V2000
    1.0350    0.1543   -0.3774 C   0  0  0  0  0  0  0  0  0  0  0  0
    2.5206   -0.0241   -0.2885 C   0  0  0  0  0  0  0  0  0  0  0  0
    3.5054    1.0012   -0.2198 C   0  0  0  0  0  0  0  0  0  0  0  0
    3.2012    2.3704   -0.2042 N   0  0  0  0  0  0  0  0  0  0  0  0
    4.0733    3.4611   -0.4030 C   0  0  0  0  0  0  0  0  0  0  0  0
    5.3980    3.3119   -0.8718 C   0  0  0  0  0  0  0  0  0  0  0  0
    6.2079    4.3393   -1.1157 N   0  0  0  0  0  0  0  0  0  0  0  0
    5.7566    5.5803   -0.9149 C   0  0  0  0  0  0  0  0  0  0  0  0
    4.4788    5.8427   -0.4267 C   0  0  0  0  0  0  0  0  0  0  0  0
    3.6199    4.7767   -0.1342 C   0  0  0  0  0  0  0  0  0  0  0  0
    2.2877    5.1336    0.4825 C   0  0  0  0  0  0  0  0  0  0  0  0
    1.7927    6.2242    0.3770 O   0  0  0  0  0  0  0  0  0  0  0  0
    1.6805    4.1705    1.2105 O   0  0  0  0  0  0  0  0  0  0  0  0
    4.7320    0.5116   -0.1029 N   0  0  0  0  0  0  0  0  0  0  0  0
    4.5796   -0.8271   -0.0879 N   0  0  0  0  0  0  0  0  0  0  0  0
    5.7690   -1.6523   -0.0262 C   0  0  0  0  0  0  0  0  0  0  0  0
    3.2662   -1.2016   -0.1961 C   0  0  0  0  0  0  0  0  0  0  0  0
    2.8035   -2.6042   -0.1832 C   0  0  0  0  0  0  0  0  0  0  0  0
    3.1702   -3.4873    0.8508 C   0  0  0  0  0  0  0  0  0  0  0  0
    2.7092   -4.8053    0.8603 C   0  0  0  0  0  0  0  0  0  0  0  0
    1.8669   -5.2638   -0.1574 C   0  0  0  0  0  0  0  0  0  0  0  0
    1.4891   -4.3956   -1.1859 C   0  0  0  0  0  0  0  0  0  0  0  0
    1.9543   -3.0786   -1.2006 C   0  0  0  0  0  0  0  0  0  0  0  0
    0.6712    0.9010    0.3502 H   0  0  0  0  0  0  0  0  0  0  0  0
    0.5076   -0.7866   -0.1655 H   0  0  0  0  0  0  0  0  0  0  0  0
    0.7089    0.4915   -1.3779 H   0  0  0  0  0  0  0  0  0  0  0  0
    2.2496    2.5464   -0.5104 H   0  0  0  0  0  0  0  0  0  0  0  0
    5.7942    2.3088   -1.0335 H   0  0  0  0  0  0  0  0  0  0  0  0
    6.4436    6.4017   -1.1469 H   0  0  0  0  0  0  0  0  0  0  0  0
    4.1295    6.8611   -0.2486 H   0  0  0  0  0  0  0  0  0  0  0  0
    2.2457    3.3762    1.2495 H   0  0  0  0  0  0  0  0  0  0  0  0
    6.5257   -1.2369   -0.7063 H   0  0  0  0  0  0  0  0  0  0  0  0
    5.5252   -2.6758   -0.3351 H   0  0  0  0  0  0  0  0  0  0  0  0
    6.1880   -1.6725    0.9933 H   0  0  0  0  0  0  0  0  0  0  0  0
    3.8056   -3.1307    1.6649 H   0  0  0  0  0  0  0  0  0  0  0  0
    3.0016   -5.4752    1.6729 H   0  0  0  0  0  0  0  0  0  0  0  0
    1.5046   -6.2948   -0.1476 H   0  0  0  0  0  0  0  0  0  0  0  0
    0.8337   -4.7473   -1.9866 H   0  0  0  0  0  0  0  0  0  0  0  0
    1.6719   -2.4101   -2.0169 H   0  0  0  0  0  0  0  0  0  0  0  0
  1  2  1  0
  1 24  1  0
  1 25  1  0
  1 26  1  0
  2  3  1  0
  2 17  2  0
  3  4  1  0
  3 14  2  0
  4  5  1  0
  4 27  1  0
  5  6  2  0
  5 10  1  0
  6  7  1  0
  6 28  1  0
  7  8  2  0
  8  9  1  0
  8 29  1  0
  9 10  2  0
  9 30  1  0
 10 11  1  0
 11 12  2  0
 11 13  1  0
 13 31  1  0
 14 15  1  0
 15 16  1  0
 15 17  1  0
 16 32  1  0
 16 33  1  0
 16 34  1  0
 17 18  1  0
 18 19  2  0
 18 23  1  0
 19 20  1  0
 19 35  1  0
 20 21  2  0
 20 36  1  0
 21 22  1  0
 21 37  1  0
 22 23  2  0
 22 38  1  0
 23 39  1  0
M  END

