
     RDKit          3D

 24 24  0  0  0  0  0  0  0  0999 V2000
    1.1935    0.7771    0.1944 C   0  0  0  0  0  0  0  0  0  0  0  0
    2.5857    0.4562    0.2261 O   0  0  0  0  0  0  0  0  0  0  0  0
    2.9737   -0.4200    1.1690 C   0  0  0  0  0  0  0  0  0  0  0  0
    2.2254   -0.9256    1.9649 O   0  0  0  0  0  0  0  0  0  0  0  0
    4.4777   -0.6569    1.0802 C   0  0  0  0  0  0  0  0  0  0  0  0
    4.9796   -1.6880    2.0553 C   0  0  0  0  0  0  0  0  0  0  0  0
    5.7108   -1.3516    3.1968 C   0  0  0  0  0  0  0  0  0  0  0  0
    6.1583   -2.3283    4.1004 C   0  0  0  0  0  0  0  0  0  0  0  0
    6.9409   -1.9423    5.3147 C   0  0  0  0  0  0  0  0  0  0  0  0
    8.9002   -1.8239    4.9555 Br  0  0  0  0  0  0  0  0  0  0  0  0
    5.8666   -3.6753    3.8446 C   0  0  0  0  0  0  0  0  0  0  0  0
    5.1360   -4.0337    2.7105 C   0  0  0  0  0  0  0  0  0  0  0  0
    4.7273   -5.8509    2.3529 Br  0  0  0  0  0  0  0  0  0  0  0  0
    4.6998   -3.0414    1.8300 C   0  0  0  0  0  0  0  0  0  0  0  0
    4.0022   -3.3748    0.7404 F   0  0  0  0  0  0  0  0  0  0  0  0
    1.0627    1.4899   -0.6289 H   0  0  0  0  0  0  0  0  0  0  0  0
    0.8745    1.2296    1.1456 H   0  0  0  0  0  0  0  0  0  0  0  0
    0.5890   -0.1254    0.0184 H   0  0  0  0  0  0  0  0  0  0  0  0
    4.9780    0.3104    1.2441 H   0  0  0  0  0  0  0  0  0  0  0  0
    4.7025   -0.9446    0.0406 H   0  0  0  0  0  0  0  0  0  0  0  0
    5.9405   -0.2996    3.3860 H   0  0  0  0  0  0  0  0  0  0  0  0
    6.8498   -2.6771    6.1223 H   0  0  0  0  0  0  0  0  0  0  0  0
    6.6689   -0.9487    5.6884 H   0  0  0  0  0  0  0  0  0  0  0  0
    6.2089   -4.4553    4.5274 H   0  0  0  0  0  0  0  0  0  0  0  0
  1  2  1  0
  1 16  1  0
  1 17  1  0
  1 18  1  0
  2  3  1  0
  3  4  2  0
  3  5  1  0
  5  6  1  0
  5 19  1  0
  5 20  1  0
  6  7  2  0
  6 14  1  0
  7  8  1  0
  7 21  1  0
  8  9  1  0
  8 11  2  0
  9 10  1  0
  9 22  1  0
  9 23  1  0
 11 12  1  0
 11 24  1  0
 12 13  1  0
 12 14  2  0
 14 15  1  0
M  END

