
     RDKit          3D

 53 54  0  0  0  0  0  0  0  0999 V2000
    1.1891    0.8462    2.8068 C   0  0  0  0  0  0  0  0  0  0  0  0
    2.3764    0.7824    1.8276 C   0  0  1  0  0  0  0  0  0  0  0  0
    3.1919   -0.4300    1.9151 N   0  0  0  0  0  0  0  0  0  0  0  0
    2.5413   -1.7077    1.7033 C   0  0  0  0  0  0  0  0  0  0  0  0
    3.5460   -2.8751    1.8205 C   0  0  1  0  0  0  0  0  0  0  0  0
    2.9152   -4.2373    1.4798 C   0  0  0  0  0  0  0  0  0  0  0  0
    2.7263   -4.4527   -0.0273 C   0  0  0  0  0  0  0  0  0  0  0  0
    4.0459   -4.2164   -0.7679 C   0  0  0  0  0  0  0  0  0  0  0  0
    4.6302   -2.8413   -0.4342 C   0  0  0  0  0  0  0  0  0  0  0  0
    4.7542   -2.6642    1.0129 N   0  0  0  0  0  0  0  0  0  0  0  0
    5.8152   -2.0381    1.6137 C   0  0  0  0  0  0  0  0  0  0  0  0
    5.8627   -1.7724    2.8052 O   0  0  0  0  0  0  0  0  0  0  0  0
    6.8065   -1.7755    0.7347 O   0  0  0  0  0  0  0  0  0  0  0  0
    8.0636   -1.1502    1.1471 C   0  0  1  0  0  0  0  0  0  0  0  0
    8.7963   -2.0495    2.1489 C   0  0  0  0  0  0  0  0  0  0  0  0
    8.8445   -1.0585   -0.1662 C   0  0  0  0  0  0  0  0  0  0  0  0
    7.7995    0.2490    1.7142 C   0  0  0  0  0  0  0  0  0  0  0  0
    1.9556    1.0296    0.3956 C   0  0  0  0  0  0  0  0  0  0  0  0
    2.7714    0.9340   -0.7636 C   0  0  0  0  0  0  0  0  0  0  0  0
    2.1045    1.2452   -1.8711 N   0  0  0  0  0  0  0  0  0  0  0  0
    0.8649    1.5492   -1.4606 N   0  0  0  0  0  0  0  0  0  0  0  0
   -0.1520    1.8880   -2.4324 C   0  0  0  0  0  0  0  0  0  0  0  0
    0.7252    1.4274   -0.1094 C   0  0  0  0  0  0  0  0  0  0  0  0
    1.5320    0.6514    3.8356 H   0  0  0  0  0  0  0  0  0  0  0  0
    0.4117    0.1053    2.5612 H   0  0  0  0  0  0  0  0  0  0  0  0
    0.7191    1.8428    2.7945 H   0  0  0  0  0  0  0  0  0  0  0  0
    3.0634    1.6021    2.1083 H   0  0  0  0  0  0  0  0  0  0  0  0
    3.7506   -0.4401    2.7666 H   0  0  0  0  0  0  0  0  0  0  0  0
    2.0707   -1.6936    0.7053 H   0  0  0  0  0  0  0  0  0  0  0  0
    1.7214   -1.9280    2.4225 H   0  0  0  0  0  0  0  0  0  0  0  0
    3.8906   -2.9028    2.8631 H   0  0  0  0  0  0  0  0  0  0  0  0
    1.9547   -4.3348    2.0125 H   0  0  0  0  0  0  0  0  0  0  0  0
    3.5764   -5.0283    1.8732 H   0  0  0  0  0  0  0  0  0  0  0  0
    1.9579   -3.7622   -0.4182 H   0  0  0  0  0  0  0  0  0  0  0  0
    2.3504   -5.4714   -0.2189 H   0  0  0  0  0  0  0  0  0  0  0  0
    3.9039   -4.2940   -1.8587 H   0  0  0  0  0  0  0  0  0  0  0  0
    4.7753   -4.9947   -0.4806 H   0  0  0  0  0  0  0  0  0  0  0  0
    3.9819   -2.0483   -0.8547 H   0  0  0  0  0  0  0  0  0  0  0  0
    5.6208   -2.7193   -0.8833 H   0  0  0  0  0  0  0  0  0  0  0  0
    8.9424   -3.0553    1.7242 H   0  0  0  0  0  0  0  0  0  0  0  0
    8.2289   -2.1387    3.0837 H   0  0  0  0  0  0  0  0  0  0  0  0
    9.7883   -1.6265    2.3728 H   0  0  0  0  0  0  0  0  0  0  0  0
    8.9980   -2.0597   -0.5971 H   0  0  0  0  0  0  0  0  0  0  0  0
    9.8295   -0.5989    0.0066 H   0  0  0  0  0  0  0  0  0  0  0  0
    8.2981   -0.4467   -0.9001 H   0  0  0  0  0  0  0  0  0  0  0  0
    7.2405    0.1924    2.6561 H   0  0  0  0  0  0  0  0  0  0  0  0
    7.2211    0.8492    0.9946 H   0  0  0  0  0  0  0  0  0  0  0  0
    8.7568    0.7621    1.8971 H   0  0  0  0  0  0  0  0  0  0  0  0
    3.8216    0.6481   -0.8122 H   0  0  0  0  0  0  0  0  0  0  0  0
    0.2464    2.6316   -3.1373 H   0  0  0  0  0  0  0  0  0  0  0  0
   -1.0236    2.3114   -1.9149 H   0  0  0  0  0  0  0  0  0  0  0  0
   -0.4691    0.9993   -3.0024 H   0  0  0  0  0  0  0  0  0  0  0  0
   -0.2225    1.6364    0.3820 H   0  0  0  0  0  0  0  0  0  0  0  0
  1  2  1  0
  1 24  1  0
  1 25  1  0
  1 26  1  0
  2  3  1  0
  2 18  1  0
  2 27  1  1
  3  4  1  0
  3 28  1  0
  4  5  1  0
  4 29  1  0
  4 30  1  0
  5  6  1  0
  5 10  1  0
  5 31  1  1
  6  7  1  0
  6 32  1  0
  6 33  1  0
  7  8  1  0
  7 34  1  0
  7 35  1  0
  8  9  1  0
  8 36  1  0
  8 37  1  0
  9 10  1  0
  9 38  1  0
  9 39  1  0
 10 11  1  0
 11 12  2  0
 11 13  1  0
 14 13  1  6
 14 15  1  0
 14 16  1  0
 14 17  1  0
 15 40  1  0
 15 41  1  0
 15 42  1  0
 16 43  1  0
 16 44  1  0
 16 45  1  0
 17 46  1  0
 17 47  1  0
 17 48  1  0
 18 19  1  0
 18 23  2  0
 19 20  2  0
 19 49  1  0
 20 21  1  0
 21 22  1  0
 21 23  1  0
 22 50  1  0
 22 51  1  0
 22 52  1  0
 23 53  1  0
M  END

