
     RDKit          3D

 56 58  0  0  0  0  0  0  0  0999 V2000
    0.6579    0.4912    0.0286 C   0  0  0  0  0  0  0  0  0  0  0  0
    2.1554    0.3412   -0.2376 C   0  0  0  0  0  0  0  0  0  0  0  0
    2.9533    0.3572    0.9870 N   0  0  0  0  0  0  0  0  0  0  0  0
    4.2481   -0.3006    0.9156 C   0  0  0  0  0  0  0  0  0  0  0  0
    5.3381    0.5420    0.2393 C   0  0  0  0  0  0  0  0  0  0  0  0
    5.4502    1.8640    0.8616 N   0  0  0  0  0  0  0  0  0  0  0  0
    6.6286    2.5947    0.7565 C   0  0  0  0  0  0  0  0  0  0  0  0
    6.6298    4.0122    0.7171 C   0  0  0  0  0  0  0  0  0  0  0  0
    7.8201    4.7274    0.6563 C   0  0  0  0  0  0  0  0  0  0  0  0
    9.0634    4.0761    0.6192 C   0  0  0  0  0  0  0  0  0  0  0  0
   10.2000    4.8896    0.5553 N   0  0  0  0  0  0  0  0  0  0  0  0
   11.3077    4.2976    0.5113 N   0  0  0  0  0  0  0  0  0  0  0  0
   12.4390    5.1444    0.4497 C   0  0  0  0  0  0  0  0  0  0  0  0
   12.3822    6.5489    0.4348 C   0  0  0  0  0  0  0  0  0  0  0  0
   13.5610    7.2986    0.3719 C   0  0  0  0  0  0  0  0  0  0  0  0
   13.4389    8.7902    0.3586 C   0  0  0  0  0  0  0  0  0  0  0  0
   12.3906    9.3911    0.3975 O   0  0  0  0  0  0  0  0  0  0  0  0
   14.6363    9.4028    0.2980 O   0  0  0  0  0  0  0  0  0  0  0  0
   14.6156   10.8286    0.2812 C   0  0  0  0  0  0  0  0  0  0  0  0
   14.8059    6.6525    0.3236 C   0  0  0  0  0  0  0  0  0  0  0  0
   14.8679    5.2531    0.3383 C   0  0  0  0  0  0  0  0  0  0  0  0
   16.2179    4.6134    0.2854 C   0  0  0  0  0  0  0  0  0  0  0  0
   17.2617    5.2217    0.2302 O   0  0  0  0  0  0  0  0  0  0  0  0
   16.1520    3.2682    0.3058 O   0  0  0  0  0  0  0  0  0  0  0  0
   17.3978    2.5759    0.2586 C   0  0  0  0  0  0  0  0  0  0  0  0
   13.6857    4.5032    0.4012 C   0  0  0  0  0  0  0  0  0  0  0  0
    9.0770    2.6644    0.6481 C   0  0  0  0  0  0  0  0  0  0  0  0
    7.8967    1.9466    0.7121 C   0  0  0  0  0  0  0  0  0  0  0  0
    4.1722    2.5584    0.9949 C   0  0  0  0  0  0  0  0  0  0  0  0
    3.1084    1.6500    1.6364 C   0  0  0  0  0  0  0  0  0  0  0  0
    0.0898    0.4023   -0.9113 H   0  0  0  0  0  0  0  0  0  0  0  0
    0.4094    1.4711    0.4667 H   0  0  0  0  0  0  0  0  0  0  0  0
    0.3110   -0.2873    0.7255 H   0  0  0  0  0  0  0  0  0  0  0  0
    2.4725    1.1074   -0.9798 H   0  0  0  0  0  0  0  0  0  0  0  0
    2.3301   -0.6330   -0.7236 H   0  0  0  0  0  0  0  0  0  0  0  0
    4.1472   -1.2599    0.3833 H   0  0  0  0  0  0  0  0  0  0  0  0
    4.5777   -0.5297    1.9456 H   0  0  0  0  0  0  0  0  0  0  0  0
    5.1163    0.6525   -0.8436 H   0  0  0  0  0  0  0  0  0  0  0  0
    6.2920    0.0072    0.3127 H   0  0  0  0  0  0  0  0  0  0  0  0
    5.6928    4.5665    0.7155 H   0  0  0  0  0  0  0  0  0  0  0  0
    7.8115    5.8191    0.6211 H   0  0  0  0  0  0  0  0  0  0  0  0
   11.4159    7.0513    0.4724 H   0  0  0  0  0  0  0  0  0  0  0  0
   15.6635   11.1493    0.2313 H   0  0  0  0  0  0  0  0  0  0  0  0
   14.1375   11.2240    1.1903 H   0  0  0  0  0  0  0  0  0  0  0  0
   14.0595   11.2018   -0.5923 H   0  0  0  0  0  0  0  0  0  0  0  0
   15.7311    7.2258    0.2745 H   0  0  0  0  0  0  0  0  0  0  0  0
   17.1550    1.5063    0.2836 H   0  0  0  0  0  0  0  0  0  0  0  0
   18.0285    2.8448    1.1197 H   0  0  0  0  0  0  0  0  0  0  0  0
   17.9479    2.8214   -0.6627 H   0  0  0  0  0  0  0  0  0  0  0  0
   13.7137    3.4138    0.4135 H   0  0  0  0  0  0  0  0  0  0  0  0
   10.0405    2.1532    0.6281 H   0  0  0  0  0  0  0  0  0  0  0  0
    7.9558    0.8592    0.7572 H   0  0  0  0  0  0  0  0  0  0  0  0
    3.8207    2.9356    0.0107 H   0  0  0  0  0  0  0  0  0  0  0  0
    4.3034    3.4338    1.6455 H   0  0  0  0  0  0  0  0  0  0  0  0
    2.1460    2.1834    1.6527 H   0  0  0  0  0  0  0  0  0  0  0  0
    3.3959    1.4753    2.6889 H   0  0  0  0  0  0  0  0  0  0  0  0
  1  2  1  0
  1 31  1  0
  1 32  1  0
  1 33  1  0
  2  3  1  0
  2 34  1  0
  2 35  1  0
  3  4  1  0
  3 30  1  0
  4  5  1  0
  4 36  1  0
  4 37  1  0
  5  6  1  0
  5 38  1  0
  5 39  1  0
  6  7  1  0
  6 29  1  0
  7  8  2  0
  7 28  1  0
  8  9  1  0
  8 40  1  0
  9 10  2  0
  9 41  1  0
 10 11  1  0
 10 27  1  0
 11 12  2  0
 12 13  1  0
 13 14  2  0
 13 26  1  0
 14 15  1  0
 14 42  1  0
 15 16  1  0
 15 20  2  0
 16 17  2  0
 16 18  1  0
 18 19  1  0
 19 43  1  0
 19 44  1  0
 19 45  1  0
 20 21  1  0
 20 46  1  0
 21 22  1  0
 21 26  2  0
 22 23  2  0
 22 24  1  0
 24 25  1  0
 25 47  1  0
 25 48  1  0
 25 49  1  0
 26 50  1  0
 27 28  2  0
 27 51  1  0
 28 52  1  0
 29 30  1  0
 29 53  1  0
 29 54  1  0
 30 55  1  0
 30 56  1  0
M  END

