
     RDKit          3D

 56 58  0  0  0  0  0  0  0  0999 V2000
    2.5511    4.7813    0.3127 C   0  0  0  0  0  0  0  0  0  0  0  0
    3.6020    3.6781    0.4420 C   0  0  0  0  0  0  0  0  0  0  0  0
    3.0109    2.3337    0.8772 C   0  0  0  0  0  0  0  0  0  0  0  0
    4.0271    1.1932    1.0084 C   0  0  0  0  0  0  0  0  0  0  0  0
    4.9891    1.3881    2.0844 N   0  0  0  0  0  0  0  0  0  0  0  0
    6.3359    1.4896    1.9128 C   0  0  0  0  0  0  0  0  0  0  0  0
    6.8810    1.3775    0.8210 O   0  0  0  0  0  0  0  0  0  0  0  0
    7.1192    1.7688    3.2051 C   0  0  1  0  0  0  0  0  0  0  0  0
    8.6151    1.4179    3.1016 C   0  0  0  0  0  0  0  0  0  0  0  0
    9.4214    2.4543    2.3063 C   0  0  0  0  0  0  0  0  0  0  0  0
    9.1378    3.8840    2.7748 C   0  0  0  0  0  0  0  0  0  0  0  0
    7.6867    4.1178    2.7246 N   0  0  0  0  0  0  0  0  0  0  0  0
    7.1695    5.7363    2.8074 S   0  0  1  0  0  0  0  0  0  0  0  0
    5.7054    5.6879    2.7208 O   0  0  0  0  0  0  0  0  0  0  0  0
    7.7902    6.4237    3.9478 O   0  0  0  0  0  0  0  0  0  0  0  0
    7.8476    6.4592    1.3499 C   0  0  0  0  0  0  0  0  0  0  0  0
    8.4068    7.7845    1.2868 C   0  0  0  0  0  0  0  0  0  0  0  0
    8.6859    8.7618    2.3829 C   0  0  0  0  0  0  0  0  0  0  0  0
    8.6822    8.1008    0.0452 N   0  0  0  0  0  0  0  0  0  0  0  0
    8.3180    7.0086   -0.7320 O   0  0  0  0  0  0  0  0  0  0  0  0
    7.8070    6.0269    0.0301 C   0  0  0  0  0  0  0  0  0  0  0  0
    7.3912    4.8072   -0.6172 C   0  0  0  0  0  0  0  0  0  0  0  0
    7.3944    4.6845   -1.9724 C   0  0  0  0  0  0  0  0  0  0  0  0
    7.0510    3.5094   -2.7367 C   0  0  0  0  0  0  0  0  0  0  0  0
    6.7756    2.2109   -2.3268 C   0  0  0  0  0  0  0  0  0  0  0  0
    6.4905    1.3398   -3.4101 C   0  0  0  0  0  0  0  0  0  0  0  0
    6.5489    1.9658   -4.6366 C   0  0  0  0  0  0  0  0  0  0  0  0
    6.9578    3.6303   -4.4838 S   0  0  0  0  0  0  0  0  0  0  0  0
    6.9476    3.2367    3.6397 C   0  0  0  0  0  0  0  0  0  0  0  0
    3.0104    5.7329    0.0036 H   0  0  0  0  0  0  0  0  0  0  0  0
    2.0400    4.9610    1.2734 H   0  0  0  0  0  0  0  0  0  0  0  0
    1.7786    4.5226   -0.4316 H   0  0  0  0  0  0  0  0  0  0  0  0
    4.3720    4.0039    1.1609 H   0  0  0  0  0  0  0  0  0  0  0  0
    4.1199    3.5437   -0.5246 H   0  0  0  0  0  0  0  0  0  0  0  0
    2.2443    2.0123    0.1491 H   0  0  0  0  0  0  0  0  0  0  0  0
    2.4733    2.4549    1.8375 H   0  0  0  0  0  0  0  0  0  0  0  0
    4.6107    1.0840    0.0836 H   0  0  0  0  0  0  0  0  0  0  0  0
    3.4942    0.2392    1.1713 H   0  0  0  0  0  0  0  0  0  0  0  0
    4.6209    1.4840    3.0240 H   0  0  0  0  0  0  0  0  0  0  0  0
    6.6668    1.1495    3.9997 H   0  0  0  0  0  0  0  0  0  0  0  0
    8.7384    0.4203    2.6536 H   0  0  0  0  0  0  0  0  0  0  0  0
    9.0127    1.3590    4.1304 H   0  0  0  0  0  0  0  0  0  0  0  0
    9.1672    2.3694    1.2405 H   0  0  0  0  0  0  0  0  0  0  0  0
   10.5000    2.2514    2.4113 H   0  0  0  0  0  0  0  0  0  0  0  0
    9.6399    4.6080    2.1167 H   0  0  0  0  0  0  0  0  0  0  0  0
    9.5177    4.0514    3.8027 H   0  0  0  0  0  0  0  0  0  0  0  0
    7.7679    9.0014    2.9389 H   0  0  0  0  0  0  0  0  0  0  0  0
    9.1046    9.6794    1.9484 H   0  0  0  0  0  0  0  0  0  0  0  0
    9.3899    8.3363    3.1118 H   0  0  0  0  0  0  0  0  0  0  0  0
    7.0900    3.9879    0.0377 H   0  0  0  0  0  0  0  0  0  0  0  0
    7.6880    5.5646   -2.5533 H   0  0  0  0  0  0  0  0  0  0  0  0
    6.8001    1.8946   -1.2816 H   0  0  0  0  0  0  0  0  0  0  0  0
    6.2562    0.2808   -3.2907 H   0  0  0  0  0  0  0  0  0  0  0  0
    6.3745    1.5319   -5.6205 H   0  0  0  0  0  0  0  0  0  0  0  0
    5.8924    3.5372    3.6325 H   0  0  0  0  0  0  0  0  0  0  0  0
    7.3242    3.3516    4.6762 H   0  0  0  0  0  0  0  0  0  0  0  0
  1  2  1  0
  1 30  1  0
  1 31  1  0
  1 32  1  0
  2  3  1  0
  2 33  1  0
  2 34  1  0
  3  4  1  0
  3 35  1  0
  3 36  1  0
  4  5  1  0
  4 37  1  0
  4 38  1  0
  5  6  1  0
  5 39  1  0
  6  7  2  0
  6  8  1  0
  8  9  1  0
  8 29  1  0
  8 40  1  1
  9 10  1  0
  9 41  1  0
  9 42  1  0
 10 11  1  0
 10 43  1  0
 10 44  1  0
 11 12  1  0
 11 45  1  0
 11 46  1  0
 12 13  1  0
 12 29  1  0
 13 14  2  0
 13 15  2  0
 13 16  1  6
 16 17  1  0
 16 21  2  0
 17 18  1  0
 17 19  2  0
 18 47  1  0
 18 48  1  0
 18 49  1  0
 19 20  1  0
 20 21  1  0
 21 22  1  0
 22 23  2  0
 22 50  1  0
 23 24  1  0
 23 51  1  0
 24 25  2  0
 24 28  1  0
 25 26  1  0
 25 52  1  0
 26 27  2  0
 26 53  1  0
 27 28  1  0
 27 54  1  0
 29 55  1  0
 29 56  1  0
M  END

