
     RDKit          3D

 63 65  0  0  0  0  0  0  0  0999 V2000
    8.3740    0.3157   -4.7616 C   0  0  0  0  0  0  0  0  0  0  0  0
    7.3157   -0.2142   -4.1432 C   0  0  0  0  0  0  0  0  0  0  0  0
    7.0951   -0.1608   -2.6531 C   0  0  0  0  0  0  0  0  0  0  0  0
    5.8061    0.4286   -2.2868 N   0  0  0  0  0  0  0  0  0  0  0  0
    5.4931    1.7618   -2.1191 C   0  0  0  0  0  0  0  0  0  0  0  0
    6.4424    2.8958   -2.3039 C   0  0  0  0  0  0  0  0  0  0  0  0
    7.5294    2.7537   -1.3982 O   0  0  0  0  0  0  0  0  0  0  0  0
    8.5043    3.7080   -1.3715 C   0  0  0  0  0  0  0  0  0  0  0  0
    9.5587    3.4819   -0.4689 C   0  0  0  0  0  0  0  0  0  0  0  0
   10.5931    4.4066   -0.3805 C   0  0  0  0  0  0  0  0  0  0  0  0
   10.5952    5.5580   -1.1796 C   0  0  0  0  0  0  0  0  0  0  0  0
    9.5505    5.7942   -2.0793 C   0  0  0  0  0  0  0  0  0  0  0  0
    9.5275    7.0276   -2.9504 C   0  0  0  0  0  0  0  0  0  0  0  0
    8.5022    4.8583   -2.1695 C   0  0  0  0  0  0  0  0  0  0  0  0
    4.2307    1.8945   -1.7989 N   0  0  0  0  0  0  0  0  0  0  0  0
    3.6706    0.6444   -1.7584 N   0  0  0  0  0  0  0  0  0  0  0  0
    4.6193   -0.2196   -2.0479 C   0  0  0  0  0  0  0  0  0  0  0  0
    4.4733   -1.9727   -2.1441 S   0  0  0  0  0  0  0  0  0  0  0  0
    2.7329   -2.0756   -1.5927 C   0  0  0  0  0  0  0  0  0  0  0  0
    2.3370   -3.5457   -1.5735 C   0  0  0  0  0  0  0  0  0  0  0  0
    3.0994   -4.4150   -1.9577 O   0  0  0  0  0  0  0  0  0  0  0  0
    1.0738   -3.8242   -1.0836 N   0  0  0  0  0  0  0  0  0  0  0  0
    0.6488   -5.2186   -1.0145 C   0  0  0  0  0  0  0  0  0  0  0  0
   -0.6178   -5.5236   -1.8386 C   0  0  0  0  0  0  0  0  0  0  0  0
   -0.4980   -5.1859   -3.2586 C   0  0  0  0  0  0  0  0  0  0  0  0
   -0.4048   -4.8902   -4.3750 N   0  0  0  0  0  0  0  0  0  0  0  0
    0.1874   -2.8134   -0.5739 C   0  0  0  0  0  0  0  0  0  0  0  0
   -0.5817   -2.0438   -1.4513 C   0  0  0  0  0  0  0  0  0  0  0  0
   -1.4572   -1.0612   -0.9586 C   0  0  0  0  0  0  0  0  0  0  0  0
   -2.2533   -0.2028   -1.9107 C   0  0  0  0  0  0  0  0  0  0  0  0
   -1.5522   -0.8904    0.4277 C   0  0  0  0  0  0  0  0  0  0  0  0
   -0.7957   -1.6581    1.3296 C   0  0  0  0  0  0  0  0  0  0  0  0
   -0.9116   -1.4254    2.8166 C   0  0  0  0  0  0  0  0  0  0  0  0
    0.0770   -2.6219    0.8115 C   0  0  0  0  0  0  0  0  0  0  0  0
    8.5024    0.2316   -5.8442 H   0  0  0  0  0  0  0  0  0  0  0  0
    9.1570    0.8454   -4.2084 H   0  0  0  0  0  0  0  0  0  0  0  0
    6.5461   -0.7412   -4.7200 H   0  0  0  0  0  0  0  0  0  0  0  0
    7.8843    0.4207   -2.1575 H   0  0  0  0  0  0  0  0  0  0  0  0
    7.1138   -1.1778   -2.2262 H   0  0  0  0  0  0  0  0  0  0  0  0
    5.8740    3.8207   -2.1120 H   0  0  0  0  0  0  0  0  0  0  0  0
    6.8225    2.9273   -3.3427 H   0  0  0  0  0  0  0  0  0  0  0  0
    9.5367    2.5826    0.1497 H   0  0  0  0  0  0  0  0  0  0  0  0
   11.4120    4.2318    0.3224 H   0  0  0  0  0  0  0  0  0  0  0  0
   11.4147    6.2767   -1.0991 H   0  0  0  0  0  0  0  0  0  0  0  0
   10.3955    7.6747   -2.7571 H   0  0  0  0  0  0  0  0  0  0  0  0
    8.6164    7.6241   -2.7761 H   0  0  0  0  0  0  0  0  0  0  0  0
    9.5372    6.7623   -4.0211 H   0  0  0  0  0  0  0  0  0  0  0  0
    7.6876    5.0495   -2.8694 H   0  0  0  0  0  0  0  0  0  0  0  0
    2.1010   -1.4906   -2.2753 H   0  0  0  0  0  0  0  0  0  0  0  0
    2.6256   -1.6065   -0.6044 H   0  0  0  0  0  0  0  0  0  0  0  0
    0.4419   -5.4998    0.0324 H   0  0  0  0  0  0  0  0  0  0  0  0
    1.4948   -5.8197   -1.3721 H   0  0  0  0  0  0  0  0  0  0  0  0
   -1.4839   -4.9752   -1.4323 H   0  0  0  0  0  0  0  0  0  0  0  0
   -0.8507   -6.5975   -1.7473 H   0  0  0  0  0  0  0  0  0  0  0  0
   -0.4949   -2.2146   -2.5275 H   0  0  0  0  0  0  0  0  0  0  0  0
   -2.6542   -0.7943   -2.7486 H   0  0  0  0  0  0  0  0  0  0  0  0
   -1.6185    0.5873   -2.3475 H   0  0  0  0  0  0  0  0  0  0  0  0
   -3.0952    0.2916   -1.4041 H   0  0  0  0  0  0  0  0  0  0  0  0
   -2.2362   -0.1325    0.8223 H   0  0  0  0  0  0  0  0  0  0  0  0
   -1.9641   -1.4366    3.1432 H   0  0  0  0  0  0  0  0  0  0  0  0
   -0.4987   -0.4413    3.0960 H   0  0  0  0  0  0  0  0  0  0  0  0
   -0.3688   -2.1898    3.3918 H   0  0  0  0  0  0  0  0  0  0  0  0
    0.6877   -3.2294    1.4847 H   0  0  0  0  0  0  0  0  0  0  0  0
  1  2  2  0
  1 35  1  0
  1 36  1  0
  2  3  1  0
  2 37  1  0
  3  4  1  0
  3 38  1  0
  3 39  1  0
  4  5  1  0
  4 17  1  0
  5  6  1  0
  5 15  2  0
  6  7  1  0
  6 40  1  0
  6 41  1  0
  7  8  1  0
  8  9  2  0
  8 14  1  0
  9 10  1  0
  9 42  1  0
 10 11  2  0
 10 43  1  0
 11 12  1  0
 11 44  1  0
 12 13  1  0
 12 14  2  0
 13 45  1  0
 13 46  1  0
 13 47  1  0
 14 48  1  0
 15 16  1  0
 16 17  2  0
 17 18  1  0
 18 19  1  0
 19 20  1  0
 19 49  1  0
 19 50  1  0
 20 21  2  0
 20 22  1  0
 22 23  1  0
 22 27  1  0
 23 24  1  0
 23 51  1  0
 23 52  1  0
 24 25  1  0
 24 53  1  0
 24 54  1  0
 25 26  3  0
 27 28  2  0
 27 34  1  0
 28 29  1  0
 28 55  1  0
 29 30  1  0
 29 31  2  0
 30 56  1  0
 30 57  1  0
 30 58  1  0
 31 32  1  0
 31 59  1  0
 32 33  1  0
 32 34  2  0
 33 60  1  0
 33 61  1  0
 33 62  1  0
 34 63  1  0
M  END

