
     RDKit          3D

 31 31  0  0  0  0  0  0  0  0999 V2000
    2.8223    0.7072    1.7098 C   0  0  0  0  0  0  0  0  0  0  0  0
    2.5519    0.3006    0.2617 C   0  0  0  0  0  0  0  0  0  0  0  0
    3.1491    1.2523   -0.7793 C   0  0  0  0  0  0  0  0  0  0  0  0
    4.6044    1.3047   -0.7431 N   0  0  0  0  0  0  0  0  0  0  0  0
    5.3940    2.3702   -0.4009 C   0  0  0  0  0  0  0  0  0  0  0  0
    6.7044    1.9170   -0.5068 C   0  0  0  0  0  0  0  0  0  0  0  0
    7.8772    2.5601   -0.2857 O   0  0  0  0  0  0  0  0  0  0  0  0
    7.7865    3.9043    0.1146 C   0  0  0  0  0  0  0  0  0  0  0  0
    9.1856    4.4644    0.2759 C   0  0  1  0  0  0  0  0  0  0  0  0
   10.1366    4.5320   -1.4616 Br  0  0  0  0  0  0  0  0  0  0  0  0
    9.1579    5.8732    0.8449 C   0  0  0  0  0  0  0  0  0  0  0  0
    8.1915    6.5951    0.8142 O   0  0  0  0  0  0  0  0  0  0  0  0
   10.3312    6.2036    1.3933 O   0  0  0  0  0  0  0  0  0  0  0  0
   10.4398    7.5325    1.9105 C   0  0  0  0  0  0  0  0  0  0  0  0
    6.5936    0.5664   -0.9167 C   0  0  0  0  0  0  0  0  0  0  0  0
    5.3157    0.2188   -1.0529 N   0  0  0  0  0  0  0  0  0  0  0  0
    2.3677   -0.0083    2.4127 H   0  0  0  0  0  0  0  0  0  0  0  0
    2.4066    1.7043    1.9350 H   0  0  0  0  0  0  0  0  0  0  0  0
    3.9028    0.7388    1.9221 H   0  0  0  0  0  0  0  0  0  0  0  0
    1.4644    0.2484    0.0781 H   0  0  0  0  0  0  0  0  0  0  0  0
    2.9525   -0.7078    0.0687 H   0  0  0  0  0  0  0  0  0  0  0  0
    2.7861    2.2805   -0.6237 H   0  0  0  0  0  0  0  0  0  0  0  0
    2.8448    0.9419   -1.7919 H   0  0  0  0  0  0  0  0  0  0  0  0
    4.9728    3.3331   -0.1258 H   0  0  0  0  0  0  0  0  0  0  0  0
    7.2671    3.9864    1.0910 H   0  0  0  0  0  0  0  0  0  0  0  0
    7.2165    4.5103   -0.6115 H   0  0  0  0  0  0  0  0  0  0  0  0
    9.8053    3.8098    0.9008 H   0  0  0  0  0  0  0  0  0  0  0  0
   11.4556    7.6193    2.3142 H   0  0  0  0  0  0  0  0  0  0  0  0
    9.6954    7.7043    2.7025 H   0  0  0  0  0  0  0  0  0  0  0  0
   10.2808    8.2726    1.1120 H   0  0  0  0  0  0  0  0  0  0  0  0
    7.3977   -0.1403   -1.1163 H   0  0  0  0  0  0  0  0  0  0  0  0
  1  2  1  0
  1 17  1  0
  1 18  1  0
  1 19  1  0
  2  3  1  0
  2 20  1  0
  2 21  1  0
  3  4  1  0
  3 22  1  0
  3 23  1  0
  4  5  1  0
  4 16  1  0
  5  6  2  0
  5 24  1  0
  6  7  1  0
  6 15  1  0
  7  8  1  0
  8  9  1  0
  8 25  1  0
  8 26  1  0
  9 10  1  0
  9 11  1  0
  9 27  1  1
 11 12  2  0
 11 13  1  0
 13 14  1  0
 14 28  1  0
 14 29  1  0
 14 30  1  0
 15 16  2  0
 15 31  1  0
M  END

