
     RDKit          3D

 42 42  0  0  0  0  0  0  0  0999 V2000
    2.5556    0.3444   -1.4153 C   0  0  0  0  0  0  0  0  0  0  0  0
    2.3575    1.2891   -0.2218 C   0  0  1  0  0  0  0  0  0  0  0  0
    0.9594    1.4565    0.1819 N   0  0  0  0  0  0  0  0  0  0  0  0
    3.1598    0.8616    1.0284 C   0  0  0  0  0  0  0  0  0  0  0  0
    4.6615    0.8437    0.8506 C   0  0  0  0  0  0  0  0  0  0  0  0
    5.3441    2.0662    0.7898 C   0  0  0  0  0  0  0  0  0  0  0  0
    6.7327    2.1458    0.6211 C   0  0  0  0  0  0  0  0  0  0  0  0
    7.2533    3.4073    0.5950 O   0  0  0  0  0  0  0  0  0  0  0  0
    8.6459    3.5874    0.4413 C   0  0  0  0  0  0  0  0  0  0  0  0
    9.0670    3.4573   -1.0316 C   0  0  0  0  0  0  0  0  0  0  0  0
   10.8617    3.1689   -1.0938 S   0  0  1  0  0  0  0  0  0  0  0  0
   11.5230    4.3509   -0.5133 O   0  0  0  0  0  0  0  0  0  0  0  0
   11.0827    1.8344   -0.5014 O   0  0  0  0  0  0  0  0  0  0  0  0
   11.3119    3.0685   -2.8786 C   0  0  1  0  0  0  0  0  0  0  0  0
   11.1345    4.4217   -3.5606 C   0  0  0  0  0  0  0  0  0  0  0  0
   12.7450    2.5364   -2.9385 C   0  0  0  0  0  0  0  0  0  0  0  0
    7.4838    0.9659    0.5045 C   0  0  0  0  0  0  0  0  0  0  0  0
    6.8228   -0.2635    0.5681 C   0  0  0  0  0  0  0  0  0  0  0  0
    5.4387   -0.3269    0.7364 C   0  0  0  0  0  0  0  0  0  0  0  0
    4.6463   -2.0733    0.8165 Br  0  0  0  0  0  0  0  0  0  0  0  0
    1.9824    0.7017   -2.2870 H   0  0  0  0  0  0  0  0  0  0  0  0
    2.2065   -0.6732   -1.1722 H   0  0  0  0  0  0  0  0  0  0  0  0
    3.6132    0.2711   -1.7161 H   0  0  0  0  0  0  0  0  0  0  0  0
    2.7200    2.2911   -0.5170 H   0  0  0  0  0  0  0  0  0  0  0  0
    0.5618    0.5472    0.4292 H   0  0  0  0  0  0  0  0  0  0  0  0
    0.4059    1.7943   -0.6065 H   0  0  0  0  0  0  0  0  0  0  0  0
    2.8086   -0.1293    1.3551 H   0  0  0  0  0  0  0  0  0  0  0  0
    2.8989    1.5719    1.8281 H   0  0  0  0  0  0  0  0  0  0  0  0
    4.7910    3.0033    0.8891 H   0  0  0  0  0  0  0  0  0  0  0  0
    9.2108    2.8758    1.0651 H   0  0  0  0  0  0  0  0  0  0  0  0
    8.8682    4.5993    0.8043 H   0  0  0  0  0  0  0  0  0  0  0  0
    8.8281    4.3644   -1.6033 H   0  0  0  0  0  0  0  0  0  0  0  0
    8.5956    2.5839   -1.5043 H   0  0  0  0  0  0  0  0  0  0  0  0
   10.6131    2.3169   -3.2826 H   0  0  0  0  0  0  0  0  0  0  0  0
   11.7489    5.1855   -3.0612 H   0  0  0  0  0  0  0  0  0  0  0  0
   10.0878    4.7624   -3.5591 H   0  0  0  0  0  0  0  0  0  0  0  0
   11.4550    4.3479   -4.6118 H   0  0  0  0  0  0  0  0  0  0  0  0
   13.4408    3.2461   -2.4649 H   0  0  0  0  0  0  0  0  0  0  0  0
   13.0438    2.4078   -3.9904 H   0  0  0  0  0  0  0  0  0  0  0  0
   12.8306    1.5689   -2.4255 H   0  0  0  0  0  0  0  0  0  0  0  0
    8.5658    0.9763    0.3652 H   0  0  0  0  0  0  0  0  0  0  0  0
    7.3996   -1.1860    0.4843 H   0  0  0  0  0  0  0  0  0  0  0  0
  1  2  1  0
  1 21  1  0
  1 22  1  0
  1 23  1  0
  2  3  1  0
  2  4  1  0
  2 24  1  6
  3 25  1  0
  3 26  1  0
  4  5  1  0
  4 27  1  0
  4 28  1  0
  5  6  2  0
  5 19  1  0
  6  7  1  0
  6 29  1  0
  7  8  1  0
  7 17  2  0
  8  9  1  0
  9 10  1  0
  9 30  1  0
  9 31  1  0
 11 10  1  6
 10 32  1  0
 10 33  1  0
 11 12  2  0
 11 13  2  0
 11 14  1  0
 14 15  1  0
 14 16  1  0
 14 34  1  6
 15 35  1  0
 15 36  1  0
 15 37  1  0
 16 38  1  0
 16 39  1  0
 16 40  1  0
 17 18  1  0
 17 41  1  0
 18 19  2  0
 18 42  1  0
 19 20  1  0
M  END

