
     RDKit          3D

 43 44  0  0  0  0  0  0  0  0999 V2000
    0.8007    0.2993   -0.2174 C   0  0  0  0  0  0  0  0  0  0  0  0
    2.3158    0.1798    0.0216 C   0  0  1  0  0  0  0  0  0  0  0  0
    2.9715    1.5781    0.1022 C   0  0  0  0  0  0  0  0  0  0  0  0
    4.4827    1.5791    0.0901 C   0  0  0  0  0  0  0  0  0  0  0  0
    5.1969    1.5935   -1.1181 C   0  0  0  0  0  0  0  0  0  0  0  0
    6.5910    1.5627   -1.1504 C   0  0  0  0  0  0  0  0  0  0  0  0
    7.3374    1.5193    0.0432 C   0  0  0  0  0  0  0  0  0  0  0  0
    8.7268    1.5451    0.0228 N   0  0  0  0  0  0  0  0  0  0  0  0
    6.6279    1.5093    1.2606 C   0  0  0  0  0  0  0  0  0  0  0  0
    5.2338    1.5375    1.2750 C   0  0  0  0  0  0  0  0  0  0  0  0
    2.6724   -0.6024    1.2021 N   0  0  0  0  0  0  0  0  0  0  0  0
    2.4199   -2.0297    1.1567 C   0  0  0  0  0  0  0  0  0  0  0  0
    3.0690   -2.7683    2.3129 C   0  0  0  0  0  0  0  0  0  0  0  0
    2.4192   -3.8503    2.9255 C   0  0  0  0  0  0  0  0  0  0  0  0
    3.0243   -4.5603    3.9647 C   0  0  0  0  0  0  0  0  0  0  0  0
    4.2964   -4.1766    4.3928 C   0  0  0  0  0  0  0  0  0  0  0  0
    5.0837   -5.0774    5.7273 S   0  0  1  0  0  0  0  0  0  0  0  0
    6.0001   -6.2562    4.9282 N   0  0  0  0  0  0  0  0  0  0  0  0
    6.0404   -4.1757    6.3749 O   0  0  0  0  0  0  0  0  0  0  0  0
    4.0338   -5.7773    6.4728 O   0  0  0  0  0  0  0  0  0  0  0  0
    4.9586   -3.0901    3.8131 C   0  0  0  0  0  0  0  0  0  0  0  0
    4.3421   -2.3929    2.7746 C   0  0  0  0  0  0  0  0  0  0  0  0
    0.5824    0.8400   -1.1526 H   0  0  0  0  0  0  0  0  0  0  0  0
    0.3180    0.8512    0.6079 H   0  0  0  0  0  0  0  0  0  0  0  0
    0.3206   -0.6894   -0.2874 H   0  0  0  0  0  0  0  0  0  0  0  0
    2.7618   -0.3449   -0.8434 H   0  0  0  0  0  0  0  0  0  0  0  0
    2.6012    2.0792    1.0153 H   0  0  0  0  0  0  0  0  0  0  0  0
    2.5969    2.1767   -0.7448 H   0  0  0  0  0  0  0  0  0  0  0  0
    4.6499    1.6331   -2.0656 H   0  0  0  0  0  0  0  0  0  0  0  0
    7.1135    1.5833   -2.1115 H   0  0  0  0  0  0  0  0  0  0  0  0
    9.1686    1.2336   -0.8345 H   0  0  0  0  0  0  0  0  0  0  0  0
    9.1937    1.1987    0.8530 H   0  0  0  0  0  0  0  0  0  0  0  0
    7.1807    1.4869    2.2046 H   0  0  0  0  0  0  0  0  0  0  0  0
    4.7156    1.5288    2.2376 H   0  0  0  0  0  0  0  0  0  0  0  0
    2.2665   -0.1914    2.0434 H   0  0  0  0  0  0  0  0  0  0  0  0
    2.8538   -2.4110    0.2128 H   0  0  0  0  0  0  0  0  0  0  0  0
    1.3443   -2.3092    1.1221 H   0  0  0  0  0  0  0  0  0  0  0  0
    1.4180   -4.1377    2.5918 H   0  0  0  0  0  0  0  0  0  0  0  0
    2.5131   -5.3894    4.4570 H   0  0  0  0  0  0  0  0  0  0  0  0
    6.9823   -6.1520    5.1830 H   0  0  0  0  0  0  0  0  0  0  0  0
    5.6460   -7.1846    5.1585 H   0  0  0  0  0  0  0  0  0  0  0  0
    5.9399   -2.7922    4.1871 H   0  0  0  0  0  0  0  0  0  0  0  0
    4.8354   -1.5344    2.3145 H   0  0  0  0  0  0  0  0  0  0  0  0
  1  2  1  0
  1 23  1  0
  1 24  1  0
  1 25  1  0
  2  3  1  0
  2 11  1  0
  2 26  1  6
  3  4  1  0
  3 27  1  0
  3 28  1  0
  4  5  2  0
  4 10  1  0
  5  6  1  0
  5 29  1  0
  6  7  2  0
  6 30  1  0
  7  8  1  0
  7  9  1  0
  8 31  1  0
  8 32  1  0
  9 10  2  0
  9 33  1  0
 10 34  1  0
 11 12  1  0
 11 35  1  0
 12 13  1  0
 12 36  1  0
 12 37  1  0
 13 14  2  0
 13 22  1  0
 14 15  1  0
 14 38  1  0
 15 16  2  0
 15 39  1  0
 16 17  1  0
 16 21  1  0
 17 18  1  6
 17 19  2  0
 17 20  2  0
 18 40  1  0
 18 41  1  0
 21 22  2  0
 21 42  1  0
 22 43  1  0
M  END

