
     RDKit          3D

 50 52  0  0  0  0  0  0  0  0999 V2000
    4.1786   -0.7962   -1.8521 C   0  0  0  0  0  0  0  0  0  0  0  0
    3.8179   -2.1846   -2.3357 C   0  0  0  0  0  0  0  0  0  0  0  0
    4.3403   -2.6388   -3.5582 C   0  0  0  0  0  0  0  0  0  0  0  0
    4.0229   -3.8977   -4.0706 C   0  0  0  0  0  0  0  0  0  0  0  0
    3.1594   -4.7313   -3.3580 C   0  0  0  0  0  0  0  0  0  0  0  0
    2.6337   -4.2987   -2.1393 C   0  0  0  0  0  0  0  0  0  0  0  0
    2.9548   -3.0391   -1.6064 C   0  0  0  0  0  0  0  0  0  0  0  0
    2.3686   -2.6011   -0.2716 C   0  0  2  0  0  0  0  0  0  0  0  0
    2.8477   -1.6660    0.0278 H   0  0  0  0  0  0  0  0  0  0  0  0
    2.6194   -3.6137    0.8796 C   0  0  0  0  0  0  0  0  0  0  0  0
    4.0965   -3.8319    1.2092 C   0  0  0  0  0  0  0  0  0  0  0  0
    4.7792   -2.6339    1.8565 C   0  0  0  0  0  0  0  0  0  0  0  0
    4.2466   -1.5818    2.0987 O   0  0  0  0  0  0  0  0  0  0  0  0
    6.0815   -2.8137    2.1675 O   0  0  0  0  0  0  0  0  0  0  0  0
    0.8476   -2.3500   -0.3514 C   0  0  0  0  0  0  0  0  0  0  0  0
    0.1334   -3.0576   -1.0336 O   0  0  0  0  0  0  0  0  0  0  0  0
    0.2542   -1.2349    0.4688 C   0  0  0  0  0  0  0  0  0  0  0  0
   -1.1197   -0.9619    0.3054 C   0  0  0  0  0  0  0  0  0  0  0  0
   -1.7138    0.0533    1.0449 C   0  0  0  0  0  0  0  0  0  0  0  0
   -0.9705    0.8080    1.9654 C   0  0  0  0  0  0  0  0  0  0  0  0
    0.3922    0.5310    2.1384 C   0  0  0  0  0  0  0  0  0  0  0  0
    1.2113    1.1844    3.0019 O   0  0  0  0  0  0  0  0  0  0  0  0
    0.6928    2.1910    3.8427 C   0  0  0  0  0  0  0  0  0  0  0  0
    1.8078    2.6819    4.7224 C   0  0  0  0  0  0  0  0  0  0  0  0
    3.0833    2.1869    4.8290 C   0  0  0  0  0  0  0  0  0  0  0  0
    3.8760    2.8994    5.7837 C   0  0  0  0  0  0  0  0  0  0  0  0
    3.1920    3.9207    6.3876 C   0  0  0  0  0  0  0  0  0  0  0  0
    1.5657    4.0333    5.7957 S   0  0  0  0  0  0  0  0  0  0  0  0
    1.0026   -0.4862    1.3847 C   0  0  0  0  0  0  0  0  0  0  0  0
    4.8587   -0.3027   -2.5612 H   0  0  0  0  0  0  0  0  0  0  0  0
    4.6761   -0.8049   -0.8684 H   0  0  0  0  0  0  0  0  0  0  0  0
    3.2884   -0.1537   -1.7485 H   0  0  0  0  0  0  0  0  0  0  0  0
    5.0094   -1.9819   -4.1215 H   0  0  0  0  0  0  0  0  0  0  0  0
    4.4446   -4.2218   -5.0257 H   0  0  0  0  0  0  0  0  0  0  0  0
    2.8886   -5.7148   -3.7508 H   0  0  0  0  0  0  0  0  0  0  0  0
    1.9410   -4.9451   -1.5990 H   0  0  0  0  0  0  0  0  0  0  0  0
    2.1664   -4.5820    0.6178 H   0  0  0  0  0  0  0  0  0  0  0  0
    2.1036   -3.2622    1.7870 H   0  0  0  0  0  0  0  0  0  0  0  0
    4.6624   -4.1032    0.2998 H   0  0  0  0  0  0  0  0  0  0  0  0
    4.2050   -4.6866    1.9018 H   0  0  0  0  0  0  0  0  0  0  0  0
    6.3744   -3.6998    1.9097 H   0  0  0  0  0  0  0  0  0  0  0  0
   -1.6885   -1.5601   -0.4076 H   0  0  0  0  0  0  0  0  0  0  0  0
   -2.7765    0.2737    0.9146 H   0  0  0  0  0  0  0  0  0  0  0  0
   -1.4625    1.5984    2.5329 H   0  0  0  0  0  0  0  0  0  0  0  0
   -0.1386    1.7883    4.4557 H   0  0  0  0  0  0  0  0  0  0  0  0
    0.2756    3.0234    3.2416 H   0  0  0  0  0  0  0  0  0  0  0  0
    3.4356    1.3420    4.2373 H   0  0  0  0  0  0  0  0  0  0  0  0
    4.9161    2.6582    6.0093 H   0  0  0  0  0  0  0  0  0  0  0  0
    3.5425    4.6198    7.1455 H   0  0  0  0  0  0  0  0  0  0  0  0
    2.0617   -0.6722    1.5695 H   0  0  0  0  0  0  0  0  0  0  0  0
  1  2  1  0
  1 30  1  0
  1 31  1  0
  1 32  1  0
  2  3  2  0
  2  7  1  0
  3  4  1  0
  3 33  1  0
  4  5  2  0
  4 34  1  0
  5  6  1  0
  5 35  1  0
  6  7  2  0
  6 36  1  0
  7  8  1  0
  8  9  1  1
  8 10  1  0
  8 15  1  0
 10 11  1  0
 10 37  1  0
 10 38  1  0
 11 12  1  0
 11 39  1  0
 11 40  1  0
 12 13  2  0
 12 14  1  0
 14 41  1  0
 15 16  2  0
 15 17  1  0
 17 18  2  0
 17 29  1  0
 18 19  1  0
 18 42  1  0
 19 20  2  0
 19 43  1  0
 20 21  1  0
 20 44  1  0
 21 22  1  0
 21 29  2  0
 22 23  1  0
 23 24  1  0
 23 45  1  0
 23 46  1  0
 24 25  2  0
 24 28  1  0
 25 26  1  0
 25 47  1  0
 26 27  2  0
 26 48  1  0
 27 28  1  0
 27 49  1  0
 29 50  1  0
M  END

