
     RDKit          3D

 64 67  0  0  0  0  0  0  0  0999 V2000
    2.1672   -0.7699   -1.1024 C   0  0  0  0  0  0  0  0  0  0  0  0
    3.0040   -0.0905   -0.0365 C   0  0  0  0  0  0  0  0  0  0  0  0
    3.4134    1.0448   -0.1853 O   0  0  0  0  0  0  0  0  0  0  0  0
    3.3204   -0.8529    1.2203 C   0  0  0  0  0  0  0  0  0  0  0  0
    2.8627   -2.1870    1.4640 C   0  0  0  0  0  0  0  0  0  0  0  0
    3.2055   -2.8353    2.6175 C   0  0  0  0  0  0  0  0  0  0  0  0
    3.9827   -2.1905    3.5488 N   0  0  0  0  0  0  0  0  0  0  0  0
    4.4669   -2.6446    4.7386 C   0  0  0  0  0  0  0  0  0  0  0  0
    5.2165   -1.6599    5.3486 C   0  0  0  0  0  0  0  0  0  0  0  0
    5.2125   -0.5029    4.5323 C   0  0  0  0  0  0  0  0  0  0  0  0
    5.8498    0.7871    4.8096 C   0  0  0  0  0  0  0  0  0  0  0  0
    5.3270    2.0121    4.3398 C   0  0  0  0  0  0  0  0  0  0  0  0
    5.9478    3.2230    4.6276 C   0  0  0  0  0  0  0  0  0  0  0  0
    7.1144    3.2703    5.4093 C   0  0  0  0  0  0  0  0  0  0  0  0
    7.7341    4.5300    5.6981 C   0  0  0  0  0  0  0  0  0  0  0  0
    8.2145    5.5641    5.9170 N   0  0  0  0  0  0  0  0  0  0  0  0
    7.6482    2.0517    5.9024 C   0  0  0  0  0  0  0  0  0  0  0  0
    8.8369    2.0349    6.7087 C   0  0  0  0  0  0  0  0  0  0  0  0
    9.7935    1.9865    7.3641 N   0  0  0  0  0  0  0  0  0  0  0  0
    7.0169    0.8398    5.5973 C   0  0  0  0  0  0  0  0  0  0  0  0
    4.4367   -0.8592    3.3825 C   0  0  0  0  0  0  0  0  0  0  0  0
    4.0982   -0.2173    2.1774 C   0  0  0  0  0  0  0  0  0  0  0  0
    5.6709   -2.1957    6.6815 C   0  0  0  0  0  0  0  0  0  0  0  0
    5.0960   -3.5466    6.6918 N   0  0  0  0  0  0  0  0  0  0  0  0
    5.2052   -4.4662    7.8152 C   0  0  0  0  0  0  0  0  0  0  0  0
    6.1944   -5.6198    7.6063 C   0  0  0  0  0  0  0  0  0  0  0  0
    7.6480   -5.1751    7.4027 C   0  0  0  0  0  0  0  0  0  0  0  0
    8.5809   -6.2740    7.2559 N   0  0  0  0  0  0  0  0  0  0  0  0
    9.1509   -6.8797    8.3411 C   0  0  0  0  0  0  0  0  0  0  0  0
    9.0064   -6.4994    9.4869 O   0  0  0  0  0  0  0  0  0  0  0  0
    9.8904   -7.9350    7.9372 O   0  0  0  0  0  0  0  0  0  0  0  0
   10.6435   -8.7607    8.8846 C   0  0  1  0  0  0  0  0  0  0  0  0
    9.6841   -9.4365    9.8702 C   0  0  0  0  0  0  0  0  0  0  0  0
   11.3082   -9.7985    7.9779 C   0  0  0  0  0  0  0  0  0  0  0  0
   11.6982   -7.9094    9.5993 C   0  0  0  0  0  0  0  0  0  0  0  0
    4.3481   -3.8527    5.5637 C   0  0  0  0  0  0  0  0  0  0  0  0
    3.7448   -4.8921    5.3507 O   0  0  0  0  0  0  0  0  0  0  0  0
    2.0365   -0.0787   -1.9443 H   0  0  0  0  0  0  0  0  0  0  0  0
    1.1785   -1.0542   -0.7064 H   0  0  0  0  0  0  0  0  0  0  0  0
    2.6540   -1.6925   -1.4586 H   0  0  0  0  0  0  0  0  0  0  0  0
    2.2437   -2.7142    0.7387 H   0  0  0  0  0  0  0  0  0  0  0  0
    2.9140   -3.8541    2.8767 H   0  0  0  0  0  0  0  0  0  0  0  0
    4.4005    2.0239    3.7657 H   0  0  0  0  0  0  0  0  0  0  0  0
    5.5214    4.1563    4.2557 H   0  0  0  0  0  0  0  0  0  0  0  0
    7.4647   -0.0822    5.9686 H   0  0  0  0  0  0  0  0  0  0  0  0
    4.4472    0.7924    1.9620 H   0  0  0  0  0  0  0  0  0  0  0  0
    5.2901   -1.5922    7.5268 H   0  0  0  0  0  0  0  0  0  0  0  0
    6.7708   -2.2323    6.7808 H   0  0  0  0  0  0  0  0  0  0  0  0
    4.2058   -4.8907    8.0032 H   0  0  0  0  0  0  0  0  0  0  0  0
    5.4839   -3.8770    8.7044 H   0  0  0  0  0  0  0  0  0  0  0  0
    5.8586   -6.2221    6.7460 H   0  0  0  0  0  0  0  0  0  0  0  0
    6.1503   -6.2714    8.4949 H   0  0  0  0  0  0  0  0  0  0  0  0
    7.9784   -4.5804    8.2690 H   0  0  0  0  0  0  0  0  0  0  0  0
    7.7307   -4.5354    6.5083 H   0  0  0  0  0  0  0  0  0  0  0  0
    8.6940   -6.7277    6.3575 H   0  0  0  0  0  0  0  0  0  0  0  0
    8.9146  -10.0063    9.3257 H   0  0  0  0  0  0  0  0  0  0  0  0
    9.1898   -8.6948   10.5101 H   0  0  0  0  0  0  0  0  0  0  0  0
   10.2413  -10.1403   10.5082 H   0  0  0  0  0  0  0  0  0  0  0  0
   10.5490  -10.3787    7.4315 H   0  0  0  0  0  0  0  0  0  0  0  0
   11.9160  -10.4945    8.5756 H   0  0  0  0  0  0  0  0  0  0  0  0
   11.9625   -9.3071    7.2418 H   0  0  0  0  0  0  0  0  0  0  0  0
   11.2262   -7.1487   10.2339 H   0  0  0  0  0  0  0  0  0  0  0  0
   12.3467   -7.4067    8.8645 H   0  0  0  0  0  0  0  0  0  0  0  0
   12.3320   -8.5534   10.2290 H   0  0  0  0  0  0  0  0  0  0  0  0
  1  2  1  0
  1 38  1  0
  1 39  1  0
  1 40  1  0
  2  3  2  0
  2  4  1  0
  4  5  1  0
  4 22  2  0
  5  6  2  0
  5 41  1  0
  6  7  1  0
  6 42  1  0
  7  8  1  0
  7 21  1  0
  8  9  2  0
  8 36  1  0
  9 10  1  0
  9 23  1  0
 10 11  1  0
 10 21  2  0
 11 12  2  0
 11 20  1  0
 12 13  1  0
 12 43  1  0
 13 14  2  0
 13 44  1  0
 14 15  1  0
 14 17  1  0
 15 16  3  0
 17 18  1  0
 17 20  2  0
 18 19  3  0
 20 45  1  0
 21 22  1  0
 22 46  1  0
 23 24  1  0
 23 47  1  0
 23 48  1  0
 24 25  1  0
 24 36  1  0
 25 26  1  0
 25 49  1  0
 25 50  1  0
 26 27  1  0
 26 51  1  0
 26 52  1  0
 27 28  1  0
 27 53  1  0
 27 54  1  0
 28 29  1  0
 28 55  1  0
 29 30  2  0
 29 31  1  0
 32 31  1  6
 32 33  1  0
 32 34  1  0
 32 35  1  0
 33 56  1  0
 33 57  1  0
 33 58  1  0
 34 59  1  0
 34 60  1  0
 34 61  1  0
 35 62  1  0
 35 63  1  0
 35 64  1  0
 36 37  2  0
M  END

