
     RDKit          3D

 42 43  0  0  0  0  0  0  0  0999 V2000
   -0.2658   -4.3456   -1.7031 C   0  0  0  0  0  0  0  0  0  0  0  0
    0.9740   -3.7560   -1.0332 C   0  0  1  0  0  0  0  0  0  0  0  0
    1.8548   -3.1800   -1.9794 O   0  0  0  0  0  0  0  0  0  0  0  0
    0.5931   -2.7482    0.0760 C   0  0  0  0  0  0  0  0  0  0  0  0
    1.7375   -2.1723    0.7728 C   0  0  0  0  0  0  0  0  0  0  0  0
    2.6795   -1.7001    1.3790 C   0  0  0  0  0  0  0  0  0  0  0  0
    3.8037   -1.1563    2.0416 C   0  0  0  0  0  0  0  0  0  0  0  0
    5.0481   -1.0692    1.4420 N   0  0  0  0  0  0  0  0  0  0  0  0
    5.2582   -1.3819    0.5009 H   0  0  0  0  0  0  0  0  0  0  0  0
    5.9080   -0.5028    2.3364 C   0  0  0  0  0  0  0  0  0  0  0  0
    5.3055   -0.2199    3.4670 N   0  0  0  0  0  0  0  0  0  0  0  0
    4.0001   -0.6155    3.3131 C   0  0  0  0  0  0  0  0  0  0  0  0
    2.9857   -0.4520    4.3906 C   0  0  0  0  0  0  0  0  0  0  0  0
    1.8088   -0.7464    4.2503 O   0  0  0  0  0  0  0  0  0  0  0  0
    3.5192    0.0443    5.5488 N   0  0  0  0  0  0  0  0  0  0  0  0
    2.7318    0.4997    6.6831 C   0  0  2  0  0  0  0  0  0  0  0  0
    2.0962    1.3588    6.4026 H   0  0  0  0  0  0  0  0  0  0  0  0
    3.6455    0.9178    7.6840 O   0  0  0  0  0  0  0  0  0  0  0  0
    3.6865   -0.0370    8.7547 C   0  0  2  0  0  0  0  0  0  0  0  0
    3.9043    0.5339    9.6726 H   0  0  0  0  0  0  0  0  0  0  0  0
    4.8197   -1.0377    8.5214 C   0  0  0  0  0  0  0  0  0  0  0  0
    6.0469   -0.3703    8.3644 O   0  0  0  0  0  0  0  0  0  0  0  0
    2.2840   -0.6398    8.7975 C   0  0  1  0  0  0  0  0  0  0  0  0
    2.2768   -1.6671    9.2038 H   0  0  0  0  0  0  0  0  0  0  0  0
    1.3764    0.1919    9.5066 O   0  0  0  0  0  0  0  0  0  0  0  0
    1.8246   -0.6097    7.3107 C   0  0  1  0  0  0  0  0  0  0  0  0
    2.0589   -1.5671    6.8229 H   0  0  0  0  0  0  0  0  0  0  0  0
    0.4565   -0.3810    7.1898 O   0  0  0  0  0  0  0  0  0  0  0  0
    0.0330   -5.0485   -2.4947 H   0  0  0  0  0  0  0  0  0  0  0  0
   -0.8780   -3.5502   -2.1640 H   0  0  0  0  0  0  0  0  0  0  0  0
   -0.9030   -4.8813   -0.9817 H   0  0  0  0  0  0  0  0  0  0  0  0
    1.5545   -4.5698   -0.5672 H   0  0  0  0  0  0  0  0  0  0  0  0
    1.3832   -2.4672   -2.4332 H   0  0  0  0  0  0  0  0  0  0  0  0
   -0.0664   -3.2428    0.8111 H   0  0  0  0  0  0  0  0  0  0  0  0
   -0.0135   -1.9376   -0.3733 H   0  0  0  0  0  0  0  0  0  0  0  0
    6.9579   -0.3227    2.1048 H   0  0  0  0  0  0  0  0  0  0  0  0
    4.4772    0.3804    5.4927 H   0  0  0  0  0  0  0  0  0  0  0  0
    4.5821   -1.6753    7.6451 H   0  0  0  0  0  0  0  0  0  0  0  0
    4.9111   -1.7030    9.3969 H   0  0  0  0  0  0  0  0  0  0  0  0
    5.8804    0.3657    7.7568 H   0  0  0  0  0  0  0  0  0  0  0  0
    1.4761    0.0478   10.4550 H   0  0  0  0  0  0  0  0  0  0  0  0
    0.1969    0.1061    7.9891 H   0  0  0  0  0  0  0  0  0  0  0  0
  1  2  1  0
  1 29  1  0
  1 30  1  0
  1 31  1  0
  2  3  1  0
  2  4  1  0
  2 32  1  1
  3 33  1  0
  4  5  1  0
  4 34  1  0
  4 35  1  0
  5  6  3  0
  6  7  1  0
  7  8  1  0
  7 12  2  0
  8  9  1  0
  8 10  1  0
 10 11  2  0
 10 36  1  0
 11 12  1  0
 12 13  1  0
 13 14  2  0
 13 15  1  0
 15 16  1  0
 15 37  1  0
 16 17  1  6
 16 18  1  0
 16 26  1  0
 18 19  1  0
 19 20  1  1
 19 21  1  0
 19 23  1  0
 21 22  1  0
 21 38  1  0
 21 39  1  0
 22 40  1  0
 23 24  1  1
 23 25  1  0
 23 26  1  0
 25 41  1  0
 26 27  1  6
 26 28  1  0
 28 42  1  0
M  END

