
     RDKit          3D

 62 66  0  0  0  0  0  0  0  0999 V2000
   -3.1107   -3.0939   -4.0339 O   0  0  0  0  0  0  0  0  0  0  0  0
   -1.9736   -3.4967   -4.2369 C   0  0  0  0  0  0  0  0  0  0  0  0
   -0.7665   -2.9195   -3.5010 C   0  0  0  0  0  0  0  0  0  0  0  0
   -0.4860   -3.5960   -2.1497 C   0  0  0  0  0  0  0  0  0  0  0  0
   -0.1826   -5.1152   -2.2032 C   0  0  2  0  0  0  0  0  0  0  0  0
    0.1209   -5.6339   -0.8807 N   0  0  0  0  0  0  0  0  0  0  0  0
    1.3242   -6.0672   -0.9015 C   0  0  0  0  0  0  0  0  0  0  0  0
    2.0708   -6.7347    0.1543 C   0  0  0  0  0  0  0  0  0  0  0  0
    1.5152   -6.9798    1.4187 C   0  0  0  0  0  0  0  0  0  0  0  0
    2.2571   -7.6644    2.3777 C   0  0  0  0  0  0  0  0  0  0  0  0
    3.5561   -8.1085    2.0780 C   0  0  0  0  0  0  0  0  0  0  0  0
    4.1172   -7.8632    0.8280 C   0  0  0  0  0  0  0  0  0  0  0  0
    3.3829   -7.1700   -0.1514 C   0  0  0  0  0  0  0  0  0  0  0  0
    3.9863   -6.8952   -1.3760 N   0  0  0  0  0  0  0  0  0  0  0  0
    3.3323   -6.3153   -2.3160 C   0  0  0  0  0  0  0  0  0  0  0  0
    4.2330   -6.0511   -3.8386 S   0  0  0  0  0  0  0  0  0  0  0  0
    3.8790   -4.3020   -4.2818 C   0  0  0  0  0  0  0  0  0  0  0  0
    3.8873   -3.2932   -3.1277 C   0  0  0  0  0  0  0  0  0  0  0  0
    3.0164   -2.4415   -3.0560 O   0  0  0  0  0  0  0  0  0  0  0  0
    4.9281   -3.4306   -2.2515 N   0  0  0  0  0  0  0  0  0  0  0  0
    5.2337   -2.6617   -1.1077 C   0  0  0  0  0  0  0  0  0  0  0  0
    4.5475   -1.4825   -0.7661 C   0  0  0  0  0  0  0  0  0  0  0  0
    4.9160   -0.7706    0.3774 C   0  0  0  0  0  0  0  0  0  0  0  0
    5.9612   -1.2295    1.1738 C   0  0  0  0  0  0  0  0  0  0  0  0
    6.3095   -0.5397    2.2705 F   0  0  0  0  0  0  0  0  0  0  0  0
    6.6536   -2.3949    0.8526 C   0  0  0  0  0  0  0  0  0  0  0  0
    6.2854   -3.1074   -0.2873 C   0  0  0  0  0  0  0  0  0  0  0  0
    1.9931   -5.9328   -2.1644 N   0  0  0  0  0  0  0  0  0  0  0  0
    1.0251   -5.4530   -3.0771 C   0  0  0  0  0  0  0  0  0  0  0  0
    1.1430   -5.3669   -4.2783 O   0  0  0  0  0  0  0  0  0  0  0  0
   -1.6890   -4.5136   -5.1033 N   0  0  0  0  0  0  0  0  0  0  0  0
   -2.7215   -5.1794   -5.8862 C   0  0  0  0  0  0  0  0  0  0  0  0
   -2.9078   -4.6076   -7.2805 C   0  0  0  0  0  0  0  0  0  0  0  0
   -2.4810   -5.3083   -8.4165 C   0  0  0  0  0  0  0  0  0  0  0  0
   -2.6404   -4.7750   -9.6997 C   0  0  0  0  0  0  0  0  0  0  0  0
   -3.2337   -3.5235   -9.8341 C   0  0  0  0  0  0  0  0  0  0  0  0
   -3.3919   -3.0014  -11.0608 F   0  0  0  0  0  0  0  0  0  0  0  0
   -3.6710   -2.7993   -8.7254 C   0  0  0  0  0  0  0  0  0  0  0  0
   -3.5069   -3.3468   -7.4526 C   0  0  0  0  0  0  0  0  0  0  0  0
   -0.9989   -1.8628   -3.3064 H   0  0  0  0  0  0  0  0  0  0  0  0
    0.1341   -2.9487   -4.1318 H   0  0  0  0  0  0  0  0  0  0  0  0
   -1.3507   -3.4763   -1.4790 H   0  0  0  0  0  0  0  0  0  0  0  0
    0.3700   -3.0922   -1.6735 H   0  0  0  0  0  0  0  0  0  0  0  0
   -1.0617   -5.6372   -2.6202 H   0  0  0  0  0  0  0  0  0  0  0  0
    0.5013   -6.6298    1.6221 H   0  0  0  0  0  0  0  0  0  0  0  0
    1.8280   -7.8580    3.3634 H   0  0  0  0  0  0  0  0  0  0  0  0
    4.1330   -8.6477    2.8335 H   0  0  0  0  0  0  0  0  0  0  0  0
    5.1278   -8.1912    0.5781 H   0  0  0  0  0  0  0  0  0  0  0  0
    2.9171   -4.2211   -4.7960 H   0  0  0  0  0  0  0  0  0  0  0  0
    4.6866   -4.0573   -4.9917 H   0  0  0  0  0  0  0  0  0  0  0  0
    5.5189   -4.2442   -2.4034 H   0  0  0  0  0  0  0  0  0  0  0  0
    3.7310   -1.1365   -1.3954 H   0  0  0  0  0  0  0  0  0  0  0  0
    4.3938    0.1465    0.6574 H   0  0  0  0  0  0  0  0  0  0  0  0
    7.4685   -2.7332    1.4952 H   0  0  0  0  0  0  0  0  0  0  0  0
    6.8203   -4.0266   -0.5425 H   0  0  0  0  0  0  0  0  0  0  0  0
   -0.7159   -4.7780   -5.2367 H   0  0  0  0  0  0  0  0  0  0  0  0
   -3.6579   -5.0820   -5.3175 H   0  0  0  0  0  0  0  0  0  0  0  0
   -2.4737   -6.2504   -5.9541 H   0  0  0  0  0  0  0  0  0  0  0  0
   -2.0168   -6.2926   -8.3033 H   0  0  0  0  0  0  0  0  0  0  0  0
   -2.3135   -5.3135  -10.5914 H   0  0  0  0  0  0  0  0  0  0  0  0
   -4.1367   -1.8229   -8.8739 H   0  0  0  0  0  0  0  0  0  0  0  0
   -3.8455   -2.7953   -6.5718 H   0  0  0  0  0  0  0  0  0  0  0  0
  1  2  2  0
  2  3  1  0
  2 31  1  0
  3  4  1  0
  3 40  1  0
  3 41  1  0
  4  5  1  0
  4 42  1  0
  4 43  1  0
  5  6  1  0
  5 29  1  0
  5 44  1  6
  6  7  2  0
  7  8  1  0
  7 28  1  0
  8  9  2  0
  8 13  1  0
  9 10  1  0
  9 45  1  0
 10 11  2  0
 10 46  1  0
 11 12  1  0
 11 47  1  0
 12 13  2  0
 12 48  1  0
 13 14  1  0
 14 15  2  0
 15 16  1  0
 15 28  1  0
 16 17  1  0
 17 18  1  0
 17 49  1  0
 17 50  1  0
 18 19  2  0
 18 20  1  0
 20 21  1  0
 20 51  1  0
 21 22  2  0
 21 27  1  0
 22 23  1  0
 22 52  1  0
 23 24  2  0
 23 53  1  0
 24 25  1  0
 24 26  1  0
 26 27  2  0
 26 54  1  0
 27 55  1  0
 28 29  1  0
 29 30  2  0
 31 32  1  0
 31 56  1  0
 32 33  1  0
 32 57  1  0
 32 58  1  0
 33 34  2  0
 33 39  1  0
 34 35  1  0
 34 59  1  0
 35 36  2  0
 35 60  1  0
 36 37  1  0
 36 38  1  0
 38 39  2  0
 38 61  1  0
 39 62  1  0
M  END

