
     RDKit          3D

 46 49  0  0  0  0  0  0  0  0999 V2000
    3.3109    0.0391   -1.5168 O   0  0  0  0  0  0  0  0  0  0  0  0
    2.6418    0.1408   -0.2225 S   0  0  1  0  0  0  0  0  0  0  0  0
    1.6526    1.1998   -0.0106 O   0  0  0  0  0  0  0  0  0  0  0  0
    1.8088   -1.4593    0.1253 C   0  0  0  0  0  0  0  0  0  0  0  0
    1.0073   -1.5842    1.2853 C   0  0  0  0  0  0  0  0  0  0  0  0
    0.8766   -0.3266    2.4890 Cl  0  0  0  0  0  0  0  0  0  0  0  0
    0.2821   -2.7462    1.5559 C   0  0  0  0  0  0  0  0  0  0  0  0
    0.3415   -3.8204    0.6714 C   0  0  0  0  0  0  0  0  0  0  0  0
    1.1362   -3.7393   -0.4659 C   0  0  0  0  0  0  0  0  0  0  0  0
    1.8700   -2.5765   -0.7405 C   0  0  0  0  0  0  0  0  0  0  0  0
    2.8582   -2.6635   -2.1745 Cl  0  0  0  0  0  0  0  0  0  0  0  0
    3.7606    0.2245    1.0205 N   0  0  0  0  0  0  0  0  0  0  0  0
    4.9693   -0.6155    0.8901 C   0  0  0  0  0  0  0  0  0  0  0  0
    6.1483    0.1588    0.2953 C   0  0  0  0  0  0  0  0  0  0  0  0
    6.4003    1.4529    1.0799 C   0  0  0  0  0  0  0  0  0  0  0  0
    5.1252    2.3014    1.1471 C   0  0  0  0  0  0  0  0  0  0  0  0
    3.9190    1.5167    1.7176 C   0  0  2  0  0  0  0  0  0  0  0  0
    3.9897    1.3199    3.2115 C   0  0  0  0  0  0  0  0  0  0  0  0
    4.7894    0.5061    3.8627 N   0  0  0  0  0  0  0  0  0  0  0  0
    4.5314    0.6291    5.2015 N   0  0  0  0  0  0  0  0  0  0  0  0
    3.5865    1.5269    5.3401 C   0  0  0  0  0  0  0  0  0  0  0  0
    3.2084    2.0113    4.1094 N   0  0  0  0  0  0  0  0  0  0  0  0
    2.1269    2.9664    3.8656 C   0  0  0  0  0  0  0  0  0  0  0  0
    1.7408    3.6812    5.1641 C   0  0  0  0  0  0  0  0  0  0  0  0
    1.6214    2.7009    6.3372 C   0  0  0  0  0  0  0  0  0  0  0  0
    2.9752    2.0293    6.6116 C   0  0  0  0  0  0  0  0  0  0  0  0
   -0.3198   -2.7927    2.4639 H   0  0  0  0  0  0  0  0  0  0  0  0
   -0.2272   -4.7300    0.8772 H   0  0  0  0  0  0  0  0  0  0  0  0
    1.2109   -4.5755   -1.1616 H   0  0  0  0  0  0  0  0  0  0  0  0
    4.7197   -1.4894    0.2709 H   0  0  0  0  0  0  0  0  0  0  0  0
    5.2118   -0.9733    1.9024 H   0  0  0  0  0  0  0  0  0  0  0  0
    5.9262    0.3901   -0.7600 H   0  0  0  0  0  0  0  0  0  0  0  0
    7.0443   -0.4838    0.3100 H   0  0  0  0  0  0  0  0  0  0  0  0
    7.2082    2.0360    0.6080 H   0  0  0  0  0  0  0  0  0  0  0  0
    6.7314    1.2063    2.1022 H   0  0  0  0  0  0  0  0  0  0  0  0
    4.8490    2.6363    0.1320 H   0  0  0  0  0  0  0  0  0  0  0  0
    5.2869    3.2079    1.7540 H   0  0  0  0  0  0  0  0  0  0  0  0
    3.0068    2.0864    1.5042 H   0  0  0  0  0  0  0  0  0  0  0  0
    1.2604    2.4258    3.4483 H   0  0  0  0  0  0  0  0  0  0  0  0
    2.4488    3.6939    3.1051 H   0  0  0  0  0  0  0  0  0  0  0  0
    0.7934    4.2169    4.9962 H   0  0  0  0  0  0  0  0  0  0  0  0
    2.4998    4.4467    5.4043 H   0  0  0  0  0  0  0  0  0  0  0  0
    0.8620    1.9343    6.1010 H   0  0  0  0  0  0  0  0  0  0  0  0
    1.2705    3.2259    7.2390 H   0  0  0  0  0  0  0  0  0  0  0  0
    2.8865    1.1913    7.3190 H   0  0  0  0  0  0  0  0  0  0  0  0
    3.6626    2.7576    7.0794 H   0  0  0  0  0  0  0  0  0  0  0  0
  1  2  2  0
  2  3  2  0
  2  4  1  1
  2 12  1  0
  4  5  2  0
  4 10  1  0
  5  6  1  0
  5  7  1  0
  7  8  2  0
  7 27  1  0
  8  9  1  0
  8 28  1  0
  9 10  2  0
  9 29  1  0
 10 11  1  0
 12 13  1  0
 12 17  1  0
 13 14  1  0
 13 30  1  0
 13 31  1  0
 14 15  1  0
 14 32  1  0
 14 33  1  0
 15 16  1  0
 15 34  1  0
 15 35  1  0
 16 17  1  0
 16 36  1  0
 16 37  1  0
 17 18  1  0
 17 38  1  1
 18 19  2  0
 18 22  1  0
 19 20  1  0
 20 21  2  0
 21 22  1  0
 21 26  1  0
 22 23  1  0
 23 24  1  0
 23 39  1  0
 23 40  1  0
 24 25  1  0
 24 41  1  0
 24 42  1  0
 25 26  1  0
 25 43  1  0
 25 44  1  0
 26 45  1  0
 26 46  1  0
M  END

