
     RDKit          3D

 45 47  0  0  0  0  0  0  0  0999 V2000
    1.0312   -0.1938    0.0541 C   0  0  0  0  0  0  0  0  0  0  0  0
    2.4835   -0.2832    0.1031 N   0  0  0  0  0  0  0  0  0  0  0  0
    2.9241   -1.2505    1.1024 C   0  0  0  0  0  0  0  0  0  0  0  0
    2.8960   -0.6667    2.5242 C   0  0  0  0  0  0  0  0  0  0  0  0
    3.3329   -1.6133    3.5361 N   0  0  0  0  0  0  0  0  0  0  0  0
    2.4305   -2.3577    4.2537 C   0  0  0  0  0  0  0  0  0  0  0  0
    1.2215   -2.2046    4.1433 O   0  0  0  0  0  0  0  0  0  0  0  0
    2.9670   -3.3045    5.1303 N   0  0  0  0  0  0  0  0  0  0  0  0
    2.0646   -3.9273    6.0877 C   0  0  0  0  0  0  0  0  0  0  0  0
    2.2457   -5.4432    6.0879 C   0  0  0  0  0  0  0  0  0  0  0  0
    3.6681   -5.7328    6.2274 N   0  0  0  0  0  0  0  0  0  0  0  0
    4.3306   -6.8565    6.6470 C   0  0  0  0  0  0  0  0  0  0  0  0
    5.6262   -6.6765    6.5781 N   0  0  0  0  0  0  0  0  0  0  0  0
    5.8434   -5.4103    6.0978 N   0  0  0  0  0  0  0  0  0  0  0  0
    4.6694   -4.8642    5.8918 C   0  0  0  0  0  0  0  0  0  0  0  0
    4.3913   -3.4809    5.3763 C   0  0  0  0  0  0  0  0  0  0  0  0
    3.0895   -0.4737   -1.2148 C   0  0  1  0  0  0  0  0  0  0  0  0
    2.6618    0.5720   -2.2616 C   0  0  0  0  0  0  0  0  0  0  0  0
    3.7209    0.4276   -3.3586 C   0  0  0  0  0  0  0  0  0  0  0  0
    5.0417    0.2501   -2.5808 C   0  0  0  0  0  0  0  0  0  0  0  0
    4.6382   -0.3576   -1.2086 C   0  0  0  0  0  0  0  0  0  0  0  0
    0.6218   -0.0944    1.0695 H   0  0  0  0  0  0  0  0  0  0  0  0
    0.5583   -1.0917   -0.4064 H   0  0  0  0  0  0  0  0  0  0  0  0
    0.7076    0.6899   -0.5139 H   0  0  0  0  0  0  0  0  0  0  0  0
    3.9579   -1.5540    0.8811 H   0  0  0  0  0  0  0  0  0  0  0  0
    2.3141   -2.1813    1.0839 H   0  0  0  0  0  0  0  0  0  0  0  0
    1.8784   -0.3569    2.7950 H   0  0  0  0  0  0  0  0  0  0  0  0
    3.5388    0.2276    2.5579 H   0  0  0  0  0  0  0  0  0  0  0  0
    4.3257   -1.7590    3.6503 H   0  0  0  0  0  0  0  0  0  0  0  0
    1.0421   -3.6594    5.7967 H   0  0  0  0  0  0  0  0  0  0  0  0
    2.2491   -3.5341    7.1073 H   0  0  0  0  0  0  0  0  0  0  0  0
    1.8687   -5.8741    5.1454 H   0  0  0  0  0  0  0  0  0  0  0  0
    1.6964   -5.9025    6.9240 H   0  0  0  0  0  0  0  0  0  0  0  0
    3.8260   -7.7595    6.9885 H   0  0  0  0  0  0  0  0  0  0  0  0
    4.9615   -3.3676    4.4417 H   0  0  0  0  0  0  0  0  0  0  0  0
    4.7918   -2.7356    6.0946 H   0  0  0  0  0  0  0  0  0  0  0  0
    2.8143   -1.4767   -1.6239 H   0  0  0  0  0  0  0  0  0  0  0  0
    2.7149    1.5745   -1.7999 H   0  0  0  0  0  0  0  0  0  0  0  0
    1.6372    0.4274   -2.6361 H   0  0  0  0  0  0  0  0  0  0  0  0
    3.7398    1.2796   -4.0558 H   0  0  0  0  0  0  0  0  0  0  0  0
    3.5073   -0.4734   -3.9592 H   0  0  0  0  0  0  0  0  0  0  0  0
    5.5291    1.2270   -2.4333 H   0  0  0  0  0  0  0  0  0  0  0  0
    5.7625   -0.3790   -3.1251 H   0  0  0  0  0  0  0  0  0  0  0  0
    4.9323    0.3116   -0.3844 H   0  0  0  0  0  0  0  0  0  0  0  0
    5.1255   -1.3281   -1.0313 H   0  0  0  0  0  0  0  0  0  0  0  0
  1  2  1  0
  1 22  1  0
  1 23  1  0
  1 24  1  0
  2  3  1  0
  2 17  1  0
  3  4  1  0
  3 25  1  0
  3 26  1  0
  4  5  1  0
  4 27  1  0
  4 28  1  0
  5  6  1  0
  5 29  1  0
  6  7  2  0
  6  8  1  0
  8  9  1  0
  8 16  1  0
  9 10  1  0
  9 30  1  0
  9 31  1  0
 10 11  1  0
 10 32  1  0
 10 33  1  0
 11 12  1  0
 11 15  1  0
 12 13  2  0
 12 34  1  0
 13 14  1  0
 14 15  2  0
 15 16  1  0
 16 35  1  0
 16 36  1  0
 17 18  1  0
 17 21  1  0
 17 37  1  6
 18 19  1  0
 18 38  1  0
 18 39  1  0
 19 20  1  0
 19 40  1  0
 19 41  1  0
 20 21  1  0
 20 42  1  0
 20 43  1  0
 21 44  1  0
 21 45  1  0
M  END

