
     RDKit          3D

 30 31  0  0  0  0  0  0  0  0999 V2000
    0.6399   -0.1984    0.2239 C   0  0  0  0  0  0  0  0  0  0  0  0
    2.1535   -0.0707   -0.0337 C   0  0  1  0  0  0  0  0  0  0  0  0
    2.9337   -0.1422    1.1974 N   0  0  0  0  0  0  0  0  0  0  0  0
    3.1270    0.8879    2.0799 C   0  0  0  0  0  0  0  0  0  0  0  0
    2.4993    2.1456    1.9417 C   0  0  0  0  0  0  0  0  0  0  0  0
    2.7365    3.1543    2.8701 C   0  0  0  0  0  0  0  0  0  0  0  0
    2.1153    4.3310    2.6948 F   0  0  0  0  0  0  0  0  0  0  0  0
    3.5833    2.9910    3.9614 C   0  0  0  0  0  0  0  0  0  0  0  0
    4.2148    1.7519    4.1094 C   0  0  0  0  0  0  0  0  0  0  0  0
    3.9949    0.7270    3.1958 C   0  0  0  0  0  0  0  0  0  0  0  0
    4.8157   -0.8141    3.4145 Cl  0  0  0  0  0  0  0  0  0  0  0  0
    2.6505   -1.1303   -1.0077 C   0  0  0  0  0  0  0  0  0  0  0  0
    3.1524   -0.7719   -2.2662 C   0  0  0  0  0  0  0  0  0  0  0  0
    3.6004   -1.7371   -3.1718 C   0  0  0  0  0  0  0  0  0  0  0  0
    3.5533   -3.0861   -2.8131 C   0  0  0  0  0  0  0  0  0  0  0  0
    4.1137   -4.3029   -3.9352 Cl  0  0  0  0  0  0  0  0  0  0  0  0
    3.0605   -3.4715   -1.5626 C   0  0  0  0  0  0  0  0  0  0  0  0
    2.6101   -2.4944   -0.6733 C   0  0  0  0  0  0  0  0  0  0  0  0
    0.2919    0.5716    0.9286 H   0  0  0  0  0  0  0  0  0  0  0  0
    0.3977   -1.1815    0.6558 H   0  0  0  0  0  0  0  0  0  0  0  0
    0.0778   -0.0861   -0.7163 H   0  0  0  0  0  0  0  0  0  0  0  0
    2.3366    0.9123   -0.5043 H   0  0  0  0  0  0  0  0  0  0  0  0
    3.5375   -0.9457    1.3233 H   0  0  0  0  0  0  0  0  0  0  0  0
    1.8197    2.3565    1.1175 H   0  0  0  0  0  0  0  0  0  0  0  0
    3.7389    3.8074    4.6671 H   0  0  0  0  0  0  0  0  0  0  0  0
    4.8916    1.5746    4.9471 H   0  0  0  0  0  0  0  0  0  0  0  0
    3.1981    0.2832   -2.5497 H   0  0  0  0  0  0  0  0  0  0  0  0
    3.9889   -1.4475   -4.1495 H   0  0  0  0  0  0  0  0  0  0  0  0
    3.0278   -4.5288   -1.2944 H   0  0  0  0  0  0  0  0  0  0  0  0
    2.2185   -2.8098    0.2978 H   0  0  0  0  0  0  0  0  0  0  0  0
  1  2  1  0
  1 19  1  0
  1 20  1  0
  1 21  1  0
  2  3  1  0
  2 12  1  0
  2 22  1  6
  3  4  1  0
  3 23  1  0
  4  5  2  0
  4 10  1  0
  5  6  1  0
  5 24  1  0
  6  7  1  0
  6  8  2  0
  8  9  1  0
  8 25  1  0
  9 10  2  0
  9 26  1  0
 10 11  1  0
 12 13  2  0
 12 18  1  0
 13 14  1  0
 13 27  1  0
 14 15  2  0
 14 28  1  0
 15 16  1  0
 15 17  1  0
 17 18  2  0
 17 29  1  0
 18 30  1  0
M  END

