
     RDKit          3D

 37 38  0  0  0  0  0  0  0  0999 V2000
    0.9436    0.5244    1.1672 C   0  0  0  0  0  0  0  0  0  0  0  0
    2.4444    0.7404    1.2029 C   0  0  0  0  0  0  0  0  0  0  0  0
    3.0698   -0.5311    1.2544 O   0  0  0  0  0  0  0  0  0  0  0  0
    4.4197   -0.6147    1.2997 C   0  0  0  0  0  0  0  0  0  0  0  0
    5.2931    0.4728    1.2947 C   0  0  0  0  0  0  0  0  0  0  0  0
    6.6985    0.3074    1.3303 C   0  0  0  0  0  0  0  0  0  0  0  0
    7.6000    1.4923    1.3505 C   0  0  0  0  0  0  0  0  0  0  0  0
    7.2347    2.6531    1.9459 C   0  0  0  0  0  0  0  0  0  0  0  0
    8.0683    3.9116    1.9713 C   0  0  0  0  0  0  0  0  0  0  0  0
    9.2000    3.9137    0.9292 C   0  0  2  0  0  0  0  0  0  0  0  0
    8.7515    4.2816   -0.4910 C   0  0  0  0  0  0  0  0  0  0  0  0
    9.4368    4.9210   -1.2434 O   0  0  0  0  0  0  0  0  0  0  0  0
    7.5433    3.8235   -0.8885 O   0  0  0  0  0  0  0  0  0  0  0  0
    9.9010    2.5385    0.9412 C   0  0  0  0  0  0  0  0  0  0  0  0
    8.9408    1.3795    0.6443 C   0  0  0  0  0  0  0  0  0  0  0  0
    7.1999   -1.0005    1.3521 C   0  0  0  0  0  0  0  0  0  0  0  0
    6.3334   -2.1001    1.3626 C   0  0  0  0  0  0  0  0  0  0  0  0
    4.9509   -1.9314    1.3380 C   0  0  0  0  0  0  0  0  0  0  0  0
    4.0678   -2.9585    1.3370 O   0  0  0  0  0  0  0  0  0  0  0  0
    0.4206    1.4924    1.1258 H   0  0  0  0  0  0  0  0  0  0  0  0
    0.6081   -0.0171    2.0646 H   0  0  0  0  0  0  0  0  0  0  0  0
    0.6580   -0.0658    0.2833 H   0  0  0  0  0  0  0  0  0  0  0  0
    2.7339    1.3403    2.0871 H   0  0  0  0  0  0  0  0  0  0  0  0
    2.7826    1.2925    0.3051 H   0  0  0  0  0  0  0  0  0  0  0  0
    4.8853    1.4807    1.2346 H   0  0  0  0  0  0  0  0  0  0  0  0
    6.2861    2.6921    2.4906 H   0  0  0  0  0  0  0  0  0  0  0  0
    8.5130    4.0308    2.9775 H   0  0  0  0  0  0  0  0  0  0  0  0
    7.4187    4.7959    1.8437 H   0  0  0  0  0  0  0  0  0  0  0  0
    9.9397    4.6856    1.1848 H   0  0  0  0  0  0  0  0  0  0  0  0
    7.1287    3.2928   -0.1845 H   0  0  0  0  0  0  0  0  0  0  0  0
   10.3436    2.4000    1.9425 H   0  0  0  0  0  0  0  0  0  0  0  0
   10.7347    2.5347    0.2220 H   0  0  0  0  0  0  0  0  0  0  0  0
    9.4297    0.4328    0.9232 H   0  0  0  0  0  0  0  0  0  0  0  0
    8.7565    1.2930   -0.4425 H   0  0  0  0  0  0  0  0  0  0  0  0
    8.2741   -1.1854    1.3873 H   0  0  0  0  0  0  0  0  0  0  0  0
    6.7430   -3.1149    1.3919 H   0  0  0  0  0  0  0  0  0  0  0  0
    4.5544   -3.7932    1.3472 H   0  0  0  0  0  0  0  0  0  0  0  0
  1  2  1  0
  1 20  1  0
  1 21  1  0
  1 22  1  0
  2  3  1  0
  2 23  1  0
  2 24  1  0
  3  4  1  0
  4  5  2  0
  4 18  1  0
  5  6  1  0
  5 25  1  0
  6  7  1  0
  6 16  2  0
  7  8  2  0
  7 15  1  0
  8  9  1  0
  8 26  1  0
  9 10  1  0
  9 27  1  0
  9 28  1  0
 10 11  1  0
 10 14  1  0
 10 29  1  1
 11 12  2  0
 11 13  1  0
 13 30  1  0
 14 15  1  0
 14 31  1  0
 14 32  1  0
 15 33  1  0
 15 34  1  0
 16 17  1  0
 16 35  1  0
 17 18  2  0
 17 36  1  0
 18 19  1  0
 19 37  1  0
M  END

