
     RDKit          3D

 49 50  0  0  0  0  0  0  0  0999 V2000
    6.0669   -5.9594    5.7642 N   0  0  0  0  0  0  0  0  0  0  0  0
    6.4256   -4.6320    5.5908 C   0  0  0  0  0  0  0  0  0  0  0  0
    6.0289   -3.7494    6.3288 O   0  0  0  0  0  0  0  0  0  0  0  0
    7.2339   -4.4282    4.4823 N   0  0  0  0  0  0  0  0  0  0  0  0
    7.7802   -3.2205    4.0118 C   0  0  0  0  0  0  0  0  0  0  0  0
    7.5926   -1.9789    4.6478 C   0  0  0  0  0  0  0  0  0  0  0  0
    8.1794   -0.8350    4.1122 C   0  0  0  0  0  0  0  0  0  0  0  0
    8.9544   -0.8927    2.9487 C   0  0  0  0  0  0  0  0  0  0  0  0
    9.4667    0.3333    2.5414 O   0  0  0  0  0  0  0  0  0  0  0  0
   10.2586    0.5584    1.4609 C   0  0  0  0  0  0  0  0  0  0  0  0
   10.6261   -0.2895    0.6882 O   0  0  0  0  0  0  0  0  0  0  0  0
   10.6017    2.0321    1.3665 C   0  0  0  0  0  0  0  0  0  0  0  0
   11.3062    2.6006    2.6090 C   0  0  0  0  0  0  0  0  0  0  0  0
   12.6716    1.9691    2.8966 C   0  0  0  0  0  0  0  0  0  0  0  0
   13.3642    2.5539    4.1309 C   0  0  0  0  0  0  0  0  0  0  0  0
   14.7354    1.9357    4.4148 C   0  0  0  0  0  0  0  0  0  0  0  0
   15.4159    2.5241    5.6646 C   0  0  0  0  0  0  0  0  0  0  0  0
   16.7770    1.9536    5.9258 C   0  0  0  0  0  0  0  0  0  0  0  0
   17.1813    1.1114    6.8979 C   0  0  0  0  0  0  0  0  0  0  0  0
   18.6455    0.7537    6.8273 C   0  0  0  0  0  0  0  0  0  0  0  0
   19.1633    1.5282    5.6015 C   0  0  0  0  0  0  0  0  0  0  0  0
   17.9447    2.2838    5.0566 C   0  0  0  0  0  0  0  0  0  0  0  0
   17.9333    3.0215    4.0943 O   0  0  0  0  0  0  0  0  0  0  0  0
    9.1478   -2.1200    2.3037 C   0  0  0  0  0  0  0  0  0  0  0  0
    8.5600   -3.2650    2.8438 C   0  0  0  0  0  0  0  0  0  0  0  0
    5.6022   -6.1428    6.6461 H   0  0  0  0  0  0  0  0  0  0  0  0
    6.6759   -6.6998    5.4351 H   0  0  0  0  0  0  0  0  0  0  0  0
    7.3961   -5.2275    3.8820 H   0  0  0  0  0  0  0  0  0  0  0  0
    6.9853   -1.9264    5.5481 H   0  0  0  0  0  0  0  0  0  0  0  0
    8.0369    0.1330    4.5973 H   0  0  0  0  0  0  0  0  0  0  0  0
    9.6587    2.5802    1.1986 H   0  0  0  0  0  0  0  0  0  0  0  0
   11.2241    2.1508    0.4678 H   0  0  0  0  0  0  0  0  0  0  0  0
   10.6460    2.4766    3.4836 H   0  0  0  0  0  0  0  0  0  0  0  0
   11.4289    3.6884    2.4665 H   0  0  0  0  0  0  0  0  0  0  0  0
   13.3267    2.0941    2.0151 H   0  0  0  0  0  0  0  0  0  0  0  0
   12.5556    0.8777    3.0305 H   0  0  0  0  0  0  0  0  0  0  0  0
   12.7098    2.4213    5.0128 H   0  0  0  0  0  0  0  0  0  0  0  0
   13.4780    3.6464    4.0030 H   0  0  0  0  0  0  0  0  0  0  0  0
   15.3972    2.0897    3.5463 H   0  0  0  0  0  0  0  0  0  0  0  0
   14.6303    0.8430    4.5396 H   0  0  0  0  0  0  0  0  0  0  0  0
   14.7718    2.3734    6.5473 H   0  0  0  0  0  0  0  0  0  0  0  0
   15.5209    3.6144    5.5223 H   0  0  0  0  0  0  0  0  0  0  0  0
   16.5270    0.7146    7.6806 H   0  0  0  0  0  0  0  0  0  0  0  0
   18.7801   -0.3383    6.7302 H   0  0  0  0  0  0  0  0  0  0  0  0
   19.1649    1.0367    7.7602 H   0  0  0  0  0  0  0  0  0  0  0  0
   19.5652    0.8759    4.8099 H   0  0  0  0  0  0  0  0  0  0  0  0
   19.9587    2.2510    5.8435 H   0  0  0  0  0  0  0  0  0  0  0  0
    9.7458   -2.1788    1.3991 H   0  0  0  0  0  0  0  0  0  0  0  0
    8.7169   -4.2218    2.3358 H   0  0  0  0  0  0  0  0  0  0  0  0
  1  2  1  0
  1 26  1  0
  1 27  1  0
  2  3  2  0
  2  4  1  0
  4  5  1  0
  4 28  1  0
  5  6  2  0
  5 25  1  0
  6  7  1  0
  6 29  1  0
  7  8  2  0
  7 30  1  0
  8  9  1  0
  8 24  1  0
  9 10  1  0
 10 11  2  0
 10 12  1  0
 12 13  1  0
 12 31  1  0
 12 32  1  0
 13 14  1  0
 13 33  1  0
 13 34  1  0
 14 15  1  0
 14 35  1  0
 14 36  1  0
 15 16  1  0
 15 37  1  0
 15 38  1  0
 16 17  1  0
 16 39  1  0
 16 40  1  0
 17 18  1  0
 17 41  1  0
 17 42  1  0
 18 19  2  0
 18 22  1  0
 19 20  1  0
 19 43  1  0
 20 21  1  0
 20 44  1  0
 20 45  1  0
 21 22  1  0
 21 46  1  0
 21 47  1  0
 22 23  2  0
 24 25  2  0
 24 48  1  0
 25 49  1  0
M  END

