
     RDKit          3D

 73 78  0  0  0  0  0  0  0  0999 V2000
    0.9475   -0.0743   -0.1073 O   0  0  0  0  0  0  0  0  0  0  0  0
    1.6332   -1.0804    0.0300 C   0  0  0  0  0  0  0  0  0  0  0  0
    1.5075   -1.8956    1.3351 C   0  0  2  0  0  0  0  0  0  0  0  0
    1.6684   -2.9550    1.1133 H   0  0  0  0  0  0  0  0  0  0  0  0
    0.0868   -1.7358    1.9576 C   0  0  0  0  0  0  0  0  0  0  0  0
    0.2391   -1.7924    3.4062 N   0  0  0  0  0  0  0  0  0  0  0  0
    1.4789   -1.0865    3.6577 C   0  0  0  0  0  0  0  0  0  0  0  0
    2.4936   -1.4480    2.4939 C   0  0  2  0  0  0  0  0  0  0  0  0
    3.3379   -0.2074    2.1201 C   0  0  0  0  0  0  0  0  0  0  0  0
    4.2971    0.1616    3.1429 N   0  0  0  0  0  0  0  0  0  0  0  0
    5.2820   -0.8770    3.3640 C   0  0  0  0  0  0  0  0  0  0  0  0
    4.7312   -2.2970    3.4155 C   0  0  0  0  0  0  0  0  0  0  0  0
    5.5222   -3.3631    3.8753 C   0  0  0  0  0  0  0  0  0  0  0  0
    7.3372   -3.0497    4.4192 Br  0  0  0  0  0  0  0  0  0  0  0  0
    5.0502   -4.6734    3.9595 C   0  0  0  0  0  0  0  0  0  0  0  0
    3.7413   -4.9358    3.5589 C   0  0  0  0  0  0  0  0  0  0  0  0
    2.9409   -3.9028    3.0705 C   0  0  0  0  0  0  0  0  0  0  0  0
    3.4126   -2.5809    2.9760 C   0  0  0  0  0  0  0  0  0  0  0  0
    2.5189   -1.5137   -0.9282 N   0  0  0  0  0  0  0  0  0  0  0  0
    3.3255   -2.7312   -0.8028 C   0  0  0  0  0  0  0  0  0  0  0  0
    2.8233   -3.8293   -1.7460 C   0  0  0  0  0  0  0  0  0  0  0  0
    2.8004   -3.3371   -3.2072 C   0  0  1  0  0  0  0  0  0  0  0  0
    3.8522   -3.1634   -3.4992 H   0  0  0  0  0  0  0  0  0  0  0  0
    2.2389   -4.3715   -4.1691 C   0  0  0  0  0  0  0  0  0  0  0  0
    0.9015   -4.7978   -4.0898 C   0  0  0  0  0  0  0  0  0  0  0  0
    0.3955   -5.7514   -4.9764 C   0  0  0  0  0  0  0  0  0  0  0  0
    1.2183   -6.3012   -5.9647 C   0  0  0  0  0  0  0  0  0  0  0  0
    2.5495   -5.8881   -6.0570 C   0  0  0  0  0  0  0  0  0  0  0  0
    3.0509   -4.9330   -5.1669 C   0  0  0  0  0  0  0  0  0  0  0  0
    2.0833   -1.9726   -3.3023 C   0  0  0  0  0  0  0  0  0  0  0  0
    2.6576   -0.9479   -2.3036 C   0  0  1  0  0  0  0  0  0  0  0  0
    3.7515   -0.9383   -2.4609 H   0  0  0  0  0  0  0  0  0  0  0  0
    2.2126    0.5189   -2.5530 C   0  0  2  0  0  0  0  0  0  0  0  0
    0.7463    0.7092   -2.9858 C   0  0  0  0  0  0  0  0  0  0  0  0
    0.4056    2.1933   -3.1750 C   0  0  0  0  0  0  0  0  0  0  0  0
    1.3385    2.8636   -4.1900 C   0  0  0  0  0  0  0  0  0  0  0  0
    2.8094    2.6608   -3.8078 C   0  0  0  0  0  0  0  0  0  0  0  0
    3.1481    1.1795   -3.5912 C   0  0  0  0  0  0  0  0  0  0  0  0
   -0.6210   -2.4996    1.6005 H   0  0  0  0  0  0  0  0  0  0  0  0
   -0.3064   -0.7504    1.6666 H   0  0  0  0  0  0  0  0  0  0  0  0
    0.3165   -2.7576    3.7245 H   0  0  0  0  0  0  0  0  0  0  0  0
    1.8745   -1.3179    4.6572 H   0  0  0  0  0  0  0  0  0  0  0  0
    1.2821    0.0007    3.6164 H   0  0  0  0  0  0  0  0  0  0  0  0
    2.6676    0.6394    1.9099 H   0  0  0  0  0  0  0  0  0  0  0  0
    3.8983   -0.3986    1.1893 H   0  0  0  0  0  0  0  0  0  0  0  0
    3.8247    0.4038    4.0122 H   0  0  0  0  0  0  0  0  0  0  0  0
    5.8341   -0.6627    4.2917 H   0  0  0  0  0  0  0  0  0  0  0  0
    6.0421   -0.8325    2.5591 H   0  0  0  0  0  0  0  0  0  0  0  0
    5.6974   -5.4679    4.3337 H   0  0  0  0  0  0  0  0  0  0  0  0
    3.3464   -5.9528    3.6220 H   0  0  0  0  0  0  0  0  0  0  0  0
    1.9243   -4.1413    2.7537 H   0  0  0  0  0  0  0  0  0  0  0  0
    3.3482   -3.0820    0.2331 H   0  0  0  0  0  0  0  0  0  0  0  0
    4.3698   -2.4758   -1.0602 H   0  0  0  0  0  0  0  0  0  0  0  0
    1.8082   -4.1315   -1.4348 H   0  0  0  0  0  0  0  0  0  0  0  0
    3.4642   -4.7223   -1.6580 H   0  0  0  0  0  0  0  0  0  0  0  0
    0.2404   -4.3792   -3.3259 H   0  0  0  0  0  0  0  0  0  0  0  0
   -0.6484   -6.0663   -4.8958 H   0  0  0  0  0  0  0  0  0  0  0  0
    0.8226   -7.0469   -6.6590 H   0  0  0  0  0  0  0  0  0  0  0  0
    3.2029   -6.3095   -6.8256 H   0  0  0  0  0  0  0  0  0  0  0  0
    4.0948   -4.6157   -5.2483 H   0  0  0  0  0  0  0  0  0  0  0  0
    1.0052   -2.0955   -3.1098 H   0  0  0  0  0  0  0  0  0  0  0  0
    2.1809   -1.5871   -4.3294 H   0  0  0  0  0  0  0  0  0  0  0  0
    2.3477    1.0616   -1.6062 H   0  0  0  0  0  0  0  0  0  0  0  0
    0.0790    0.2647   -2.2358 H   0  0  0  0  0  0  0  0  0  0  0  0
    0.5716    0.1853   -3.9431 H   0  0  0  0  0  0  0  0  0  0  0  0
    0.4889    2.7082   -2.2005 H   0  0  0  0  0  0  0  0  0  0  0  0
   -0.6457    2.3004   -3.4921 H   0  0  0  0  0  0  0  0  0  0  0  0
    1.1111    3.9398   -4.2761 H   0  0  0  0  0  0  0  0  0  0  0  0
    1.1597    2.4274   -5.1908 H   0  0  0  0  0  0  0  0  0  0  0  0
    3.0191    3.2143   -2.8740 H   0  0  0  0  0  0  0  0  0  0  0  0
    3.4719    3.0909   -4.5782 H   0  0  0  0  0  0  0  0  0  0  0  0
    4.1985    1.0845   -3.2645 H   0  0  0  0  0  0  0  0  0  0  0  0
    3.0740    0.6442   -4.5569 H   0  0  0  0  0  0  0  0  0  0  0  0
  1  2  2  0
  2  3  1  0
  2 19  1  0
  3  4  1  6
  3  5  1  0
  3  8  1  0
  5  6  1  0
  5 39  1  0
  5 40  1  0
  6  7  1  0
  6 41  1  0
  8  7  1  1
  7 42  1  0
  7 43  1  0
  8  9  1  0
  8 18  1  0
  9 10  1  0
  9 44  1  0
  9 45  1  0
 10 11  1  0
 10 46  1  0
 11 12  1  0
 11 47  1  0
 11 48  1  0
 12 13  2  0
 12 18  1  0
 13 14  1  0
 13 15  1  0
 15 16  2  0
 15 49  1  0
 16 17  1  0
 16 50  1  0
 17 18  2  0
 17 51  1  0
 19 20  1  0
 19 31  1  0
 20 21  1  0
 20 52  1  0
 20 53  1  0
 21 22  1  0
 21 54  1  0
 21 55  1  0
 22 23  1  6
 22 24  1  0
 22 30  1  0
 24 25  2  0
 24 29  1  0
 25 26  1  0
 25 56  1  0
 26 27  2  0
 26 57  1  0
 27 28  1  0
 27 58  1  0
 28 29  2  0
 28 59  1  0
 29 60  1  0
 30 31  1  0
 30 61  1  0
 30 62  1  0
 31 32  1  6
 31 33  1  0
 33 34  1  0
 33 38  1  0
 33 63  1  1
 34 35  1  0
 34 64  1  0
 34 65  1  0
 35 36  1  0
 35 66  1  0
 35 67  1  0
 36 37  1  0
 36 68  1  0
 36 69  1  0
 37 38  1  0
 37 70  1  0
 37 71  1  0
 38 72  1  0
 38 73  1  0
M  END

