
     RDKit          3D

 45 46  0  0  0  0  0  0  0  0999 V2000
    2.5605   -2.1350   -1.8740 C   0  0  0  0  0  0  0  0  0  0  0  0
    3.3995   -1.2264   -0.9860 C   0  0  0  0  0  0  0  0  0  0  0  0
    4.0782   -1.6850   -0.0871 O   0  0  0  0  0  0  0  0  0  0  0  0
    3.3654    0.1423   -1.2551 N   0  0  0  0  0  0  0  0  0  0  0  0
    2.5279    0.7263   -2.3025 C   0  0  0  0  0  0  0  0  0  0  0  0
    1.2896    1.4486   -1.7563 C   0  0  0  0  0  0  0  0  0  0  0  0
    0.3323    1.8222   -2.8888 C   0  0  0  0  0  0  0  0  0  0  0  0
    0.1910    1.1066   -3.8649 O   0  0  0  0  0  0  0  0  0  0  0  0
   -0.3498    2.9997   -2.7024 N   0  0  0  0  0  0  0  0  0  0  0  0
   -1.3902    3.5060   -3.5391 C   0  0  0  0  0  0  0  0  0  0  0  0
   -2.6669    3.6980   -2.9650 C   0  0  0  0  0  0  0  0  0  0  0  0
   -2.9257    3.3427   -1.5208 C   0  0  0  0  0  0  0  0  0  0  0  0
   -3.6898    4.2205   -3.7656 C   0  0  0  0  0  0  0  0  0  0  0  0
   -3.4573    4.5361   -5.1049 C   0  0  0  0  0  0  0  0  0  0  0  0
   -2.1895    4.3469   -5.6527 C   0  0  0  0  0  0  0  0  0  0  0  0
   -1.1291    3.8415   -4.8850 C   0  0  0  0  0  0  0  0  0  0  0  0
    0.2406    3.6866   -5.4916 C   0  0  0  0  0  0  0  0  0  0  0  0
    4.1309    1.0378   -0.4414 C   0  0  0  0  0  0  0  0  0  0  0  0
    4.0686    0.9827    0.9604 C   0  0  0  0  0  0  0  0  0  0  0  0
    4.8115    1.8809    1.7270 C   0  0  0  0  0  0  0  0  0  0  0  0
    5.6169    2.8522    1.1257 C   0  0  0  0  0  0  0  0  0  0  0  0
    5.6724    2.8998   -0.2682 C   0  0  0  0  0  0  0  0  0  0  0  0
    6.6781    4.0982   -1.0555 Cl  0  0  0  0  0  0  0  0  0  0  0  0
    4.9473    2.0008   -1.0537 C   0  0  0  0  0  0  0  0  0  0  0  0
    2.6706   -3.1533   -1.4826 H   0  0  0  0  0  0  0  0  0  0  0  0
    2.9088   -2.1170   -2.9189 H   0  0  0  0  0  0  0  0  0  0  0  0
    1.4945   -1.8604   -1.8752 H   0  0  0  0  0  0  0  0  0  0  0  0
    2.1929   -0.0526   -2.9930 H   0  0  0  0  0  0  0  0  0  0  0  0
    3.1230    1.4264   -2.9092 H   0  0  0  0  0  0  0  0  0  0  0  0
    1.5776    2.3278   -1.1584 H   0  0  0  0  0  0  0  0  0  0  0  0
    0.7456    0.7655   -1.0797 H   0  0  0  0  0  0  0  0  0  0  0  0
   -0.2354    3.4476   -1.7996 H   0  0  0  0  0  0  0  0  0  0  0  0
   -2.3667    3.9941   -0.8242 H   0  0  0  0  0  0  0  0  0  0  0  0
   -2.6283    2.3050   -1.2978 H   0  0  0  0  0  0  0  0  0  0  0  0
   -3.9915    3.4506   -1.2745 H   0  0  0  0  0  0  0  0  0  0  0  0
   -4.6824    4.3701   -3.3323 H   0  0  0  0  0  0  0  0  0  0  0  0
   -4.2660    4.9363   -5.7215 H   0  0  0  0  0  0  0  0  0  0  0  0
   -2.0047    4.6083   -6.6981 H   0  0  0  0  0  0  0  0  0  0  0  0
    0.3181    4.2467   -6.4345 H   0  0  0  0  0  0  0  0  0  0  0  0
    0.4611    2.6258   -5.6880 H   0  0  0  0  0  0  0  0  0  0  0  0
    1.0227    4.0519   -4.8066 H   0  0  0  0  0  0  0  0  0  0  0  0
    3.4532    0.2261    1.4441 H   0  0  0  0  0  0  0  0  0  0  0  0
    4.7599    1.8276    2.8173 H   0  0  0  0  0  0  0  0  0  0  0  0
    6.1945    3.5602    1.7216 H   0  0  0  0  0  0  0  0  0  0  0  0
    5.0365    2.0514   -2.1389 H   0  0  0  0  0  0  0  0  0  0  0  0
  1  2  1  0
  1 25  1  0
  1 26  1  0
  1 27  1  0
  2  3  2  0
  2  4  1  0
  4  5  1  0
  4 18  1  0
  5  6  1  0
  5 28  1  0
  5 29  1  0
  6  7  1  0
  6 30  1  0
  6 31  1  0
  7  8  2  0
  7  9  1  0
  9 10  1  0
  9 32  1  0
 10 11  2  0
 10 16  1  0
 11 12  1  0
 11 13  1  0
 12 33  1  0
 12 34  1  0
 12 35  1  0
 13 14  2  0
 13 36  1  0
 14 15  1  0
 14 37  1  0
 15 16  2  0
 15 38  1  0
 16 17  1  0
 17 39  1  0
 17 40  1  0
 17 41  1  0
 18 19  2  0
 18 24  1  0
 19 20  1  0
 19 42  1  0
 20 21  2  0
 20 43  1  0
 21 22  1  0
 21 44  1  0
 22 23  1  0
 22 24  2  0
 24 45  1  0
M  END

