
     RDKit          3D

 27 28  0  0  0  0  0  0  0  0999 V2000
    0.9096   -0.1905   -0.5929 C   0  0  0  0  0  0  0  0  0  0  0  0
    2.3896   -0.0048   -0.3844 C   0  0  0  0  0  0  0  0  0  0  0  0
    3.0577    1.1980   -0.6288 C   0  0  0  0  0  0  0  0  0  0  0  0
    4.4361    1.3524   -0.4296 C   0  0  0  0  0  0  0  0  0  0  0  0
    5.2143    2.8964   -0.8646 S   0  0  0  0  0  0  0  0  0  0  0  0
    5.3142    3.7345    0.7224 C   0  0  0  0  0  0  0  0  0  0  0  0
    4.8136    3.1580    1.8060 N   0  0  0  0  0  0  0  0  0  0  0  0
    4.8823    3.7858    2.9812 C   0  0  0  0  0  0  0  0  0  0  0  0
    5.4623    5.0459    3.1372 C   0  0  0  0  0  0  0  0  0  0  0  0
    5.9946    5.6687    2.0045 C   0  0  0  0  0  0  0  0  0  0  0  0
    5.9235    5.0083    0.7808 C   0  0  0  0  0  0  0  0  0  0  0  0
    6.5787    5.7498   -0.6573 Cl  0  0  0  0  0  0  0  0  0  0  0  0
    5.2195    0.2655    0.0387 C   0  0  0  0  0  0  0  0  0  0  0  0
    6.5656    0.3954    0.2797 N   0  0  0  0  0  0  0  0  0  0  0  0
    4.5567   -0.9545    0.2879 C   0  0  0  0  0  0  0  0  0  0  0  0
    3.1909   -1.0591    0.0763 C   0  0  0  0  0  0  0  0  0  0  0  0
    2.6002   -2.2422    0.3248 F   0  0  0  0  0  0  0  0  0  0  0  0
    0.4475    0.7369   -0.9613 H   0  0  0  0  0  0  0  0  0  0  0  0
    0.4006   -0.4754    0.3430 H   0  0  0  0  0  0  0  0  0  0  0  0
    0.6988   -0.9896   -1.3231 H   0  0  0  0  0  0  0  0  0  0  0  0
    2.4897    2.0576   -0.9928 H   0  0  0  0  0  0  0  0  0  0  0  0
    4.4532    3.2581    3.8405 H   0  0  0  0  0  0  0  0  0  0  0  0
    5.4986    5.5304    4.1149 H   0  0  0  0  0  0  0  0  0  0  0  0
    6.4616    6.6542    2.0589 H   0  0  0  0  0  0  0  0  0  0  0  0
    7.0211    1.2036   -0.1315 H   0  0  0  0  0  0  0  0  0  0  0  0
    7.1216   -0.4488    0.3230 H   0  0  0  0  0  0  0  0  0  0  0  0
    5.1026   -1.8269    0.6531 H   0  0  0  0  0  0  0  0  0  0  0  0
  1  2  1  0
  1 18  1  0
  1 19  1  0
  1 20  1  0
  2  3  2  0
  2 16  1  0
  3  4  1  0
  3 21  1  0
  4  5  1  0
  4 13  2  0
  5  6  1  0
  6  7  2  0
  6 11  1  0
  7  8  1  0
  8  9  2  0
  8 22  1  0
  9 10  1  0
  9 23  1  0
 10 11  2  0
 10 24  1  0
 11 12  1  0
 13 14  1  0
 13 15  1  0
 14 25  1  0
 14 26  1  0
 15 16  2  0
 15 27  1  0
 16 17  1  0
M  END

