
     RDKit          3D

 62 65  0  0  0  0  0  0  0  0999 V2000
    3.0016    0.8910    2.5091 C   0  0  0  0  0  0  0  0  0  0  0  0
    2.5644   -0.0973    1.5988 O   0  0  0  0  0  0  0  0  0  0  0  0
    2.8725   -1.4029    1.8000 C   0  0  0  0  0  0  0  0  0  0  0  0
    3.6253   -1.8505    2.9189 C   0  0  0  0  0  0  0  0  0  0  0  0
    3.9088   -3.1899    3.0659 C   0  0  0  0  0  0  0  0  0  0  0  0
    3.4663   -4.1454    2.1150 C   0  0  0  0  0  0  0  0  0  0  0  0
    3.7616   -5.5269    2.2631 C   0  0  0  0  0  0  0  0  0  0  0  0
    3.3392   -6.4630    1.3336 C   0  0  0  0  0  0  0  0  0  0  0  0
    3.6218   -7.9361    1.4372 C   0  0  0  0  0  0  0  0  0  0  0  0
    3.2685   -8.6839    0.5403 O   0  0  0  0  0  0  0  0  0  0  0  0
    4.3644   -8.4796    2.6522 C   0  0  2  0  0  0  0  0  0  0  0  0
    5.1293   -7.7400    2.9397 H   0  0  0  0  0  0  0  0  0  0  0  0
    5.1336   -9.7586    2.2776 C   0  0  0  0  0  0  0  0  0  0  0  0
    6.0011  -10.1792    3.3693 N   0  0  0  0  0  0  0  0  0  0  0  0
    7.0109  -11.1431    2.9899 C   0  0  1  0  0  0  0  0  0  0  0  0
    8.2104  -11.4306    3.9288 C   0  0  0  0  0  0  0  0  0  0  0  0
    8.2192  -12.8859    3.3925 C   0  0  0  0  0  0  0  0  0  0  0  0
    6.7598  -12.6884    2.9099 C   0  0  0  0  0  0  0  0  0  0  0  0
    5.2461  -10.4592    4.5807 C   0  0  0  0  0  0  0  0  0  0  0  0
    4.4506   -9.2261    5.0173 C   0  0  0  0  0  0  0  0  0  0  0  0
    3.4855   -8.6984    3.9328 C   0  0  2  0  0  0  0  0  0  0  0  0
    3.1381   -7.7074    4.2753 H   0  0  0  0  0  0  0  0  0  0  0  0
    2.2001   -9.5573    3.6920 C   0  0  1  0  0  0  0  0  0  0  0  0
    1.7220  -10.3261    4.9348 C   0  0  0  0  0  0  0  0  0  0  0  0
    1.0357   -8.6918    3.1806 C   0  0  0  0  0  0  0  0  0  0  0  0
    2.6019   -6.0094    0.2004 C   0  0  0  0  0  0  0  0  0  0  0  0
    2.2979   -4.6807    0.0286 C   0  0  0  0  0  0  0  0  0  0  0  0
    2.7084   -3.6954    0.9797 C   0  0  0  0  0  0  0  0  0  0  0  0
    2.4040   -2.3098    0.8456 C   0  0  0  0  0  0  0  0  0  0  0  0
    1.5814   -1.7828   -0.3182 C   0  0  0  0  0  0  0  0  0  0  0  0
    2.3631   -1.5687   -1.5438 C   0  0  0  0  0  0  0  0  0  0  0  0
    2.9825   -1.4035   -2.5091 N   0  0  0  0  0  0  0  0  0  0  0  0
    2.6348    1.8504    2.1215 H   0  0  0  0  0  0  0  0  0  0  0  0
    4.1029    0.9298    2.5723 H   0  0  0  0  0  0  0  0  0  0  0  0
    2.5867    0.7314    3.5198 H   0  0  0  0  0  0  0  0  0  0  0  0
    3.9825   -1.1388    3.6624 H   0  0  0  0  0  0  0  0  0  0  0  0
    4.4882   -3.5300    3.9283 H   0  0  0  0  0  0  0  0  0  0  0  0
    4.3412   -5.8285    3.1375 H   0  0  0  0  0  0  0  0  0  0  0  0
    5.7551   -9.5534    1.3920 H   0  0  0  0  0  0  0  0  0  0  0  0
    4.4169  -10.5485    1.9693 H   0  0  0  0  0  0  0  0  0  0  0  0
    7.4101  -10.8122    2.0167 H   0  0  0  0  0  0  0  0  0  0  0  0
    7.9215  -11.3995    4.9907 H   0  0  0  0  0  0  0  0  0  0  0  0
    9.1126  -10.8126    3.7988 H   0  0  0  0  0  0  0  0  0  0  0  0
    8.4093  -13.6909    4.1182 H   0  0  0  0  0  0  0  0  0  0  0  0
    8.9174  -13.0086    2.5496 H   0  0  0  0  0  0  0  0  0  0  0  0
    6.0386  -13.0252    3.6710 H   0  0  0  0  0  0  0  0  0  0  0  0
    6.4676  -13.1164    1.9382 H   0  0  0  0  0  0  0  0  0  0  0  0
    5.9420  -10.7409    5.3858 H   0  0  0  0  0  0  0  0  0  0  0  0
    4.5545  -11.3219    4.4470 H   0  0  0  0  0  0  0  0  0  0  0  0
    5.1737   -8.4267    5.2524 H   0  0  0  0  0  0  0  0  0  0  0  0
    3.9110   -9.4428    5.9506 H   0  0  0  0  0  0  0  0  0  0  0  0
    2.4251  -10.3050    2.9118 H   0  0  0  0  0  0  0  0  0  0  0  0
    1.5168   -9.6440    5.7778 H   0  0  0  0  0  0  0  0  0  0  0  0
    2.4455  -11.0790    5.2797 H   0  0  0  0  0  0  0  0  0  0  0  0
    0.7829  -10.8565    4.7099 H   0  0  0  0  0  0  0  0  0  0  0  0
    0.7353   -7.9543    3.9450 H   0  0  0  0  0  0  0  0  0  0  0  0
    0.1559   -9.3173    2.9596 H   0  0  0  0  0  0  0  0  0  0  0  0
    1.2768   -8.1411    2.2625 H   0  0  0  0  0  0  0  0  0  0  0  0
    2.2913   -6.7564   -0.5321 H   0  0  0  0  0  0  0  0  0  0  0  0
    1.7463   -4.3779   -0.8627 H   0  0  0  0  0  0  0  0  0  0  0  0
    1.1315   -0.8195   -0.0382 H   0  0  0  0  0  0  0  0  0  0  0  0
    0.7529   -2.4683   -0.5562 H   0  0  0  0  0  0  0  0  0  0  0  0
  1  2  1  0
  1 33  1  0
  1 34  1  0
  1 35  1  0
  2  3  1  0
  3  4  2  0
  3 29  1  0
  4  5  1  0
  4 36  1  0
  5  6  2  0
  5 37  1  0
  6  7  1  0
  6 28  1  0
  7  8  2  0
  7 38  1  0
  8  9  1  0
  8 26  1  0
  9 10  2  0
  9 11  1  0
 11 12  1  1
 11 13  1  0
 11 21  1  0
 13 14  1  0
 13 39  1  0
 13 40  1  0
 14 15  1  0
 14 19  1  0
 15 16  1  0
 15 18  1  0
 15 41  1  6
 16 17  1  0
 16 42  1  0
 16 43  1  0
 17 18  1  0
 17 44  1  0
 17 45  1  0
 18 46  1  0
 18 47  1  0
 19 20  1  0
 19 48  1  0
 19 49  1  0
 20 21  1  0
 20 50  1  0
 20 51  1  0
 21 22  1  1
 21 23  1  0
 23 24  1  0
 23 25  1  0
 23 52  1  6
 24 53  1  0
 24 54  1  0
 24 55  1  0
 25 56  1  0
 25 57  1  0
 25 58  1  0
 26 27  2  0
 26 59  1  0
 27 28  1  0
 27 60  1  0
 28 29  2  0
 29 30  1  0
 30 31  1  0
 30 61  1  0
 30 62  1  0
 31 32  3  0
M  END

