
     RDKit          3D

 70 76  0  0  0  0  0  0  0  0999 V2000
    2.8312   -0.8132    2.1049 C   0  0  0  0  0  0  0  0  0  0  0  0
    3.4327   -0.1898    0.8431 C   0  0  0  0  0  0  0  0  0  0  0  0
    4.0461    1.1081    1.0631 N   0  0  0  0  0  0  0  0  0  0  0  0
    5.3653    1.3249    1.4528 C   0  0  0  0  0  0  0  0  0  0  0  0
    6.3940    0.3982    1.6679 C   0  0  0  0  0  0  0  0  0  0  0  0
    7.6451    0.8890    2.0454 C   0  0  0  0  0  0  0  0  0  0  0  0
    7.8729    2.2681    2.2103 C   0  0  0  0  0  0  0  0  0  0  0  0
    6.8458    3.1878    1.9995 C   0  0  0  0  0  0  0  0  0  0  0  0
    5.5794    2.7221    1.6195 C   0  0  0  0  0  0  0  0  0  0  0  0
    4.3151    3.3691    1.3239 C   0  0  0  0  0  0  0  0  0  0  0  0
    3.8869    4.6991    1.3077 C   0  0  0  0  0  0  0  0  0  0  0  0
    2.5582    5.0168    0.9699 C   0  0  0  0  0  0  0  0  0  0  0  0
    2.1554    6.4209    0.9656 C   0  0  0  0  0  0  0  0  0  0  0  0
    0.9440    6.9415    0.6638 C   0  0  0  0  0  0  0  0  0  0  0  0
    0.6598    8.3777    0.6946 C   0  0  0  0  0  0  0  0  0  0  0  0
   -0.6171    8.8655    0.3695 C   0  0  0  0  0  0  0  0  0  0  0  0
   -0.8379   10.2522    0.4142 C   0  0  0  0  0  0  0  0  0  0  0  0
   -2.1496   10.8134    0.0842 C   0  0  0  0  0  0  0  0  0  0  0  0
   -2.4145   12.1395    0.1096 C   0  0  0  0  0  0  0  0  0  0  0  0
   -3.6751   12.8120   -0.1981 C   0  0  0  0  0  0  0  0  0  0  0  0
   -3.7198   14.2287   -0.1148 C   0  0  0  0  0  0  0  0  0  0  0  0
   -4.8711   14.9609   -0.3881 C   0  0  0  0  0  0  0  0  0  0  0  0
   -6.0238   14.2568   -0.7623 C   0  0  0  0  0  0  0  0  0  0  0  0
   -6.0155   12.8331   -0.8507 C   0  0  0  0  0  0  0  0  0  0  0  0
   -4.8470   12.1250   -0.5708 C   0  0  0  0  0  0  0  0  0  0  0  0
   -7.3550   12.4401   -1.2497 C   0  0  0  0  0  0  0  0  0  0  0  0
   -7.9719   11.2075   -1.5023 C   0  0  0  0  0  0  0  0  0  0  0  0
   -9.3154   11.1834   -1.8775 C   0  0  0  0  0  0  0  0  0  0  0  0
  -10.0455   12.3799   -2.0011 C   0  0  0  0  0  0  0  0  0  0  0  0
   -9.4555   13.6212   -1.7553 C   0  0  0  0  0  0  0  0  0  0  0  0
   -8.1051   13.6420   -1.3827 C   0  0  0  0  0  0  0  0  0  0  0  0
   -7.2829   14.7290   -1.0967 N   0  0  0  0  0  0  0  0  0  0  0  0
   -7.6983   16.1203   -1.0767 C   0  0  0  0  0  0  0  0  0  0  0  0
   -8.2512   16.5831    0.2734 C   0  0  0  0  0  0  0  0  0  0  0  0
    0.1639   11.0863    0.7638 N   0  0  0  0  0  0  0  0  0  0  0  0
    1.3355   10.5279    1.0537 C   0  0  0  0  0  0  0  0  0  0  0  0
    1.6436    9.2343    1.0407 N   0  0  0  0  0  0  0  0  0  0  0  0
    1.6686    3.9554    0.6495 C   0  0  0  0  0  0  0  0  0  0  0  0
    2.0670    2.6247    0.6582 C   0  0  0  0  0  0  0  0  0  0  0  0
    3.3992    2.3312    0.9931 C   0  0  0  0  0  0  0  0  0  0  0  0
    2.3857   -1.7937    1.8722 H   0  0  0  0  0  0  0  0  0  0  0  0
    2.0434   -0.1707    2.5278 H   0  0  0  0  0  0  0  0  0  0  0  0
    3.5999   -0.9612    2.8790 H   0  0  0  0  0  0  0  0  0  0  0  0
    2.6600   -0.0720    0.0670 H   0  0  0  0  0  0  0  0  0  0  0  0
    4.1964   -0.8564    0.4122 H   0  0  0  0  0  0  0  0  0  0  0  0
    6.2323   -0.6750    1.5497 H   0  0  0  0  0  0  0  0  0  0  0  0
    8.4631    0.1849    2.2185 H   0  0  0  0  0  0  0  0  0  0  0  0
    8.8640    2.6185    2.5078 H   0  0  0  0  0  0  0  0  0  0  0  0
    7.0256    4.2581    2.1294 H   0  0  0  0  0  0  0  0  0  0  0  0
    4.5821    5.5048    1.5579 H   0  0  0  0  0  0  0  0  0  0  0  0
    2.9302    7.1445    1.2398 H   0  0  0  0  0  0  0  0  0  0  0  0
    0.1071    6.2983    0.3766 H   0  0  0  0  0  0  0  0  0  0  0  0
   -1.4208    8.1812    0.0877 H   0  0  0  0  0  0  0  0  0  0  0  0
   -2.9206   10.0878   -0.1912 H   0  0  0  0  0  0  0  0  0  0  0  0
   -1.5789   12.7867    0.3955 H   0  0  0  0  0  0  0  0  0  0  0  0
   -2.8105   14.7600    0.1781 H   0  0  0  0  0  0  0  0  0  0  0  0
   -4.8646   16.0494   -0.3068 H   0  0  0  0  0  0  0  0  0  0  0  0
   -4.8468   11.0352   -0.6410 H   0  0  0  0  0  0  0  0  0  0  0  0
   -7.4077   10.2763   -1.4059 H   0  0  0  0  0  0  0  0  0  0  0  0
   -9.8078   10.2286   -2.0760 H   0  0  0  0  0  0  0  0  0  0  0  0
  -11.0979   12.3394   -2.2934 H   0  0  0  0  0  0  0  0  0  0  0  0
  -10.0376   14.5399   -1.8501 H   0  0  0  0  0  0  0  0  0  0  0  0
   -8.4511   16.2604   -1.8686 H   0  0  0  0  0  0  0  0  0  0  0  0
   -6.8328   16.7360   -1.3684 H   0  0  0  0  0  0  0  0  0  0  0  0
   -9.1353   15.9943    0.5630 H   0  0  0  0  0  0  0  0  0  0  0  0
   -8.5470   17.6432    0.2226 H   0  0  0  0  0  0  0  0  0  0  0  0
   -7.4970   16.4757    1.0683 H   0  0  0  0  0  0  0  0  0  0  0  0
    2.1438   11.2159    1.3360 H   0  0  0  0  0  0  0  0  0  0  0  0
    0.6335    4.1863    0.3897 H   0  0  0  0  0  0  0  0  0  0  0  0
    1.3533    1.8361    0.4122 H   0  0  0  0  0  0  0  0  0  0  0  0
  1  2  1  0
  1 41  1  0
  1 42  1  0
  1 43  1  0
  2  3  1  0
  2 44  1  0
  2 45  1  0
  3  4  1  0
  3 40  1  0
  4  5  2  0
  4  9  1  0
  5  6  1  0
  5 46  1  0
  6  7  2  0
  6 47  1  0
  7  8  1  0
  7 48  1  0
  8  9  2  0
  8 49  1  0
  9 10  1  0
 10 11  1  0
 10 40  2  0
 11 12  2  0
 11 50  1  0
 12 13  1  0
 12 38  1  0
 13 14  2  0
 13 51  1  0
 14 15  1  0
 14 52  1  0
 15 16  2  0
 15 37  1  0
 16 17  1  0
 16 53  1  0
 17 18  1  0
 17 35  2  0
 18 19  2  0
 18 54  1  0
 19 20  1  0
 19 55  1  0
 20 21  2  0
 20 25  1  0
 21 22  1  0
 21 56  1  0
 22 23  2  0
 22 57  1  0
 23 24  1  0
 23 32  1  0
 24 25  2  0
 24 26  1  0
 25 58  1  0
 26 27  2  0
 26 31  1  0
 27 28  1  0
 27 59  1  0
 28 29  2  0
 28 60  1  0
 29 30  1  0
 29 61  1  0
 30 31  2  0
 30 62  1  0
 31 32  1  0
 32 33  1  0
 33 34  1  0
 33 63  1  0
 33 64  1  0
 34 65  1  0
 34 66  1  0
 34 67  1  0
 35 36  1  0
 36 37  2  0
 36 68  1  0
 38 39  2  0
 38 69  1  0
 39 40  1  0
 39 70  1  0
M  END

