
     RDKit          3D

 50 53  0  0  0  0  0  0  0  0999 V2000
   -0.4381   -1.6523   -0.0812 C   0  0  0  0  0  0  0  0  0  0  0  0
   -1.3259   -0.6386   -0.0181 C   0  0  0  0  0  0  0  0  0  0  0  0
   -2.7541   -0.8899    0.3287 C   0  0  0  0  0  0  0  0  0  0  0  0
   -3.0869   -1.6259    1.4091 C   0  0  0  0  0  0  0  0  0  0  0  0
   -4.4931   -1.9821    1.8179 C   0  0  0  0  0  0  0  0  0  0  0  0
   -5.5728   -1.6505    0.7664 C   0  0  2  0  0  0  0  0  0  0  0  0
   -5.8362   -2.7526   -0.2545 C   0  0  0  0  0  0  0  0  0  0  0  0
   -7.1182   -2.8637   -0.8221 C   0  0  0  0  0  0  0  0  0  0  0  0
   -7.4081   -3.8364   -1.7813 C   0  0  0  0  0  0  0  0  0  0  0  0
   -6.4148   -4.7286   -2.1969 C   0  0  0  0  0  0  0  0  0  0  0  0
   -5.1365   -4.6348   -1.6417 C   0  0  0  0  0  0  0  0  0  0  0  0
   -4.8508   -3.6580   -0.6813 C   0  0  0  0  0  0  0  0  0  0  0  0
   -5.2157   -0.3087    0.0846 C   0  0  0  0  0  0  0  0  0  0  0  0
   -3.8369   -0.3377   -0.5807 C   0  0  0  0  0  0  0  0  0  0  0  0
   -0.8712    0.7895   -0.2592 C   0  0  0  0  0  0  0  0  0  0  0  0
    0.4729    0.8713   -0.9881 C   0  0  0  0  0  0  0  0  0  0  0  0
    1.5462   -0.0462   -0.3565 C   0  0  1  0  0  0  0  0  0  0  0  0
    1.9966    0.4644    1.0084 C   0  0  0  0  0  0  0  0  0  0  0  0
    1.4393    0.0200    2.2187 C   0  0  0  0  0  0  0  0  0  0  0  0
    1.8696    0.5400    3.4445 C   0  0  0  0  0  0  0  0  0  0  0  0
    2.8677    1.5162    3.4878 C   0  0  0  0  0  0  0  0  0  0  0  0
    3.4347    1.9679    2.2920 C   0  0  0  0  0  0  0  0  0  0  0  0
    3.0023    1.4455    1.0712 C   0  0  0  0  0  0  0  0  0  0  0  0
    1.0333   -1.5016   -0.3699 C   0  0  0  0  0  0  0  0  0  0  0  0
   -0.8009   -2.6757    0.0641 H   0  0  0  0  0  0  0  0  0  0  0  0
   -2.2863   -1.9831    2.0660 H   0  0  0  0  0  0  0  0  0  0  0  0
   -4.7310   -1.4449    2.7561 H   0  0  0  0  0  0  0  0  0  0  0  0
   -4.5412   -3.0522    2.0873 H   0  0  0  0  0  0  0  0  0  0  0  0
   -6.5239   -1.4983    1.3030 H   0  0  0  0  0  0  0  0  0  0  0  0
   -7.9065   -2.1764   -0.4989 H   0  0  0  0  0  0  0  0  0  0  0  0
   -8.4155   -3.9023   -2.2011 H   0  0  0  0  0  0  0  0  0  0  0  0
   -6.6376   -5.4937   -2.9451 H   0  0  0  0  0  0  0  0  0  0  0  0
   -4.3513   -5.3278   -1.9559 H   0  0  0  0  0  0  0  0  0  0  0  0
   -3.8442   -3.6014   -0.2623 H   0  0  0  0  0  0  0  0  0  0  0  0
   -5.2275    0.4827    0.8550 H   0  0  0  0  0  0  0  0  0  0  0  0
   -5.9882   -0.0441   -0.6553 H   0  0  0  0  0  0  0  0  0  0  0  0
   -3.5743    0.6782   -0.9172 H   0  0  0  0  0  0  0  0  0  0  0  0
   -3.8690   -0.9498   -1.5021 H   0  0  0  0  0  0  0  0  0  0  0  0
   -0.8104    1.3091    0.7160 H   0  0  0  0  0  0  0  0  0  0  0  0
   -1.6310    1.3422   -0.8347 H   0  0  0  0  0  0  0  0  0  0  0  0
    0.8311    1.9132   -1.0073 H   0  0  0  0  0  0  0  0  0  0  0  0
    0.3320    0.5630   -2.0393 H   0  0  0  0  0  0  0  0  0  0  0  0
    2.4350   -0.0008   -1.0074 H   0  0  0  0  0  0  0  0  0  0  0  0
    0.6564   -0.7410    2.2084 H   0  0  0  0  0  0  0  0  0  0  0  0
    1.4198    0.1760    4.3723 H   0  0  0  0  0  0  0  0  0  0  0  0
    3.2050    1.9197    4.4460 H   0  0  0  0  0  0  0  0  0  0  0  0
    4.2223    2.7261    2.3101 H   0  0  0  0  0  0  0  0  0  0  0  0
    3.4599    1.8011    0.1426 H   0  0  0  0  0  0  0  0  0  0  0  0
    1.6155   -2.1160    0.3398 H   0  0  0  0  0  0  0  0  0  0  0  0
    1.2421   -1.9449   -1.3626 H   0  0  0  0  0  0  0  0  0  0  0  0
  1  2  2  0
  1 24  1  0
  1 25  1  0
  2  3  1  0
  2 15  1  0
  3  4  2  0
  3 14  1  0
  4  5  1  0
  4 26  1  0
  5  6  1  0
  5 27  1  0
  5 28  1  0
  6  7  1  0
  6 13  1  0
  6 29  1  1
  7  8  2  0
  7 12  1  0
  8  9  1  0
  8 30  1  0
  9 10  2  0
  9 31  1  0
 10 11  1  0
 10 32  1  0
 11 12  2  0
 11 33  1  0
 12 34  1  0
 13 14  1  0
 13 35  1  0
 13 36  1  0
 14 37  1  0
 14 38  1  0
 15 16  1  0
 15 39  1  0
 15 40  1  0
 16 17  1  0
 16 41  1  0
 16 42  1  0
 17 18  1  0
 17 24  1  0
 17 43  1  6
 18 19  2  0
 18 23  1  0
 19 20  1  0
 19 44  1  0
 20 21  2  0
 20 45  1  0
 21 22  1  0
 21 46  1  0
 22 23  2  0
 22 47  1  0
 23 48  1  0
 24 49  1  0
 24 50  1  0
M  END

