
     RDKit          3D

 55 58  0  0  0  0  0  0  0  0999 V2000
    1.4055    0.2132    0.4607 C   0  0  0  0  0  0  0  0  0  0  0  0
    2.8191    0.0455   -0.0405 C   0  0  0  0  0  0  0  0  0  0  0  0
    3.6182    1.1653   -0.2984 C   0  0  0  0  0  0  0  0  0  0  0  0
    4.9304    1.0468   -0.7600 C   0  0  0  0  0  0  0  0  0  0  0  0
    5.4457   -0.2325   -0.9692 C   0  0  0  0  0  0  0  0  0  0  0  0
    7.1474   -0.4179   -1.5396 S   0  0  1  0  0  0  0  0  0  0  0  0
    7.2016   -1.6144   -2.3793 O   0  0  0  0  0  0  0  0  0  0  0  0
    7.5770    0.8939   -2.0295 O   0  0  0  0  0  0  0  0  0  0  0  0
    8.0776   -0.7471   -0.1800 N   0  0  0  0  0  0  0  0  0  0  0  0
    8.0268   -2.0931    0.3987 C   0  0  0  0  0  0  0  0  0  0  0  0
    9.3430   -2.3935    1.1216 C   0  0  0  0  0  0  0  0  0  0  0  0
    9.6774   -1.3053    2.1482 C   0  0  0  0  0  0  0  0  0  0  0  0
    9.6712    0.0786    1.4890 C   0  0  0  0  0  0  0  0  0  0  0  0
    8.3505    0.3426    0.7599 C   0  0  0  0  0  0  0  0  0  0  0  0
    4.6822   -1.3794   -0.7407 C   0  0  0  0  0  0  0  0  0  0  0  0
    3.3676   -1.2439   -0.2669 C   0  0  0  0  0  0  0  0  0  0  0  0
    2.5458   -2.3613   -0.0165 N   0  0  0  0  0  0  0  0  0  0  0  0
    2.8787   -3.6985   -0.0061 C   0  0  0  0  0  0  0  0  0  0  0  0
    3.9947   -4.1304   -0.2336 O   0  0  0  0  0  0  0  0  0  0  0  0
    1.7254   -4.6362    0.3476 C   0  0  2  0  0  0  0  0  0  0  0  0
    0.7812   -4.0732    0.4490 H   0  0  0  0  0  0  0  0  0  0  0  0
    2.0130   -5.3154    1.6967 C   0  0  0  0  0  0  0  0  0  0  0  0
    0.9461   -6.1535    2.0992 O   0  0  0  0  0  0  0  0  0  0  0  0
    0.4198   -6.9989    1.1641 C   0  0  0  0  0  0  0  0  0  0  0  0
   -0.4232   -8.0159    1.6360 C   0  0  0  0  0  0  0  0  0  0  0  0
   -1.0136   -8.9029    0.7391 C   0  0  0  0  0  0  0  0  0  0  0  0
   -0.7696   -8.7796   -0.6347 C   0  0  0  0  0  0  0  0  0  0  0  0
    0.0616   -7.7583   -1.0947 C   0  0  0  0  0  0  0  0  0  0  0  0
    0.6711   -6.8522   -0.2132 C   0  0  0  0  0  0  0  0  0  0  0  0
    1.5622   -5.7364   -0.7129 C   0  0  0  0  0  0  0  0  0  0  0  0
    1.1609    1.2752    0.5992 H   0  0  0  0  0  0  0  0  0  0  0  0
    1.2495   -0.2889    1.4320 H   0  0  0  0  0  0  0  0  0  0  0  0
    0.6629   -0.1989   -0.2467 H   0  0  0  0  0  0  0  0  0  0  0  0
    3.1957    2.1605   -0.1360 H   0  0  0  0  0  0  0  0  0  0  0  0
    5.5407    1.9243   -0.9763 H   0  0  0  0  0  0  0  0  0  0  0  0
    7.8590   -2.8102   -0.4148 H   0  0  0  0  0  0  0  0  0  0  0  0
    7.1795   -2.1806    1.1114 H   0  0  0  0  0  0  0  0  0  0  0  0
   10.1499   -2.4576    0.3717 H   0  0  0  0  0  0  0  0  0  0  0  0
    9.2687   -3.3813    1.6057 H   0  0  0  0  0  0  0  0  0  0  0  0
   10.6545   -1.5045    2.6182 H   0  0  0  0  0  0  0  0  0  0  0  0
    8.9285   -1.3268    2.9620 H   0  0  0  0  0  0  0  0  0  0  0  0
   10.4954    0.1461    0.7584 H   0  0  0  0  0  0  0  0  0  0  0  0
    9.8334    0.8717    2.2378 H   0  0  0  0  0  0  0  0  0  0  0  0
    8.4036    1.2802    0.1917 H   0  0  0  0  0  0  0  0  0  0  0  0
    7.5275    0.4348    1.5008 H   0  0  0  0  0  0  0  0  0  0  0  0
    5.0851   -2.3696   -0.9377 H   0  0  0  0  0  0  0  0  0  0  0  0
    1.5801   -2.1531    0.2016 H   0  0  0  0  0  0  0  0  0  0  0  0
    2.1363   -4.5759    2.5017 H   0  0  0  0  0  0  0  0  0  0  0  0
    2.9517   -5.8932    1.6126 H   0  0  0  0  0  0  0  0  0  0  0  0
   -0.5952   -8.0879    2.7119 H   0  0  0  0  0  0  0  0  0  0  0  0
   -1.6664   -9.6956    1.1134 H   0  0  0  0  0  0  0  0  0  0  0  0
   -1.2293   -9.4734   -1.3423 H   0  0  0  0  0  0  0  0  0  0  0  0
    0.2468   -7.6501   -2.1678 H   0  0  0  0  0  0  0  0  0  0  0  0
    1.1552   -5.3149   -1.6468 H   0  0  0  0  0  0  0  0  0  0  0  0
    2.5689   -6.1186   -0.9556 H   0  0  0  0  0  0  0  0  0  0  0  0
  1  2  1  0
  1 31  1  0
  1 32  1  0
  1 33  1  0
  2  3  2  0
  2 16  1  0
  3  4  1  0
  3 34  1  0
  4  5  2  0
  4 35  1  0
  6  5  1  1
  5 15  1  0
  6  7  2  0
  6  8  2  0
  6  9  1  0
  9 10  1  0
  9 14  1  0
 10 11  1  0
 10 36  1  0
 10 37  1  0
 11 12  1  0
 11 38  1  0
 11 39  1  0
 12 13  1  0
 12 40  1  0
 12 41  1  0
 13 14  1  0
 13 42  1  0
 13 43  1  0
 14 44  1  0
 14 45  1  0
 15 16  2  0
 15 46  1  0
 16 17  1  0
 17 18  1  0
 17 47  1  0
 18 19  2  0
 18 20  1  0
 20 21  1  1
 20 22  1  0
 20 30  1  0
 22 23  1  0
 22 48  1  0
 22 49  1  0
 23 24  1  0
 24 25  2  0
 24 29  1  0
 25 26  1  0
 25 50  1  0
 26 27  2  0
 26 51  1  0
 27 28  1  0
 27 52  1  0
 28 29  2  0
 28 53  1  0
 29 30  1  0
 30 54  1  0
 30 55  1  0
M  END

