
     RDKit          3D

 55 58  0  0  0  0  0  0  0  0999 V2000
    0.4955    0.1849   -0.3928 C   0  0  0  0  0  0  0  0  0  0  0  0
    1.8782    0.1031   -0.1375 O   0  0  0  0  0  0  0  0  0  0  0  0
    2.6017    1.2510   -0.0287 C   0  0  0  0  0  0  0  0  0  0  0  0
    2.0769    2.5371   -0.1779 C   0  0  0  0  0  0  0  0  0  0  0  0
    2.8801    3.6812   -0.0206 C   0  0  0  0  0  0  0  0  0  0  0  0
    4.2374    3.5335    0.2872 C   0  0  0  0  0  0  0  0  0  0  0  0
    4.7655    2.2397    0.4265 C   0  0  0  0  0  0  0  0  0  0  0  0
    3.9795    1.1016    0.2739 C   0  0  0  0  0  0  0  0  0  0  0  0
    4.5425   -0.1258    0.4834 O   0  0  0  0  0  0  0  0  0  0  0  0
    4.6194   -1.0062   -0.6267 C   0  0  0  0  0  0  0  0  0  0  0  0
    5.1302    4.7379    0.5053 C   0  0  0  0  0  0  0  0  0  0  0  0
    4.5580    5.9750   -0.0109 N   0  0  0  0  0  0  0  0  0  0  0  0
    5.4003    7.1343    0.2248 C   0  0  0  0  0  0  0  0  0  0  0  0
    6.6414    7.1599   -0.6820 C   0  0  0  0  0  0  0  0  0  0  0  0
    7.4154    8.3724   -0.5225 N   0  0  0  0  0  0  0  0  0  0  0  0
    8.6408    8.4007    0.0700 C   0  0  0  0  0  0  0  0  0  0  0  0
    9.2315    7.4232    0.5073 O   0  0  0  0  0  0  0  0  0  0  0  0
    9.2359    9.7642    0.1417 C   0  0  0  0  0  0  0  0  0  0  0  0
   10.4627   10.1221    0.6629 C   0  0  0  0  0  0  0  0  0  0  0  0
   10.5229   11.4678    0.4794 N   0  0  0  0  0  0  0  0  0  0  0  0
   11.5631   12.3782    0.8243 C   0  0  0  0  0  0  0  0  0  0  0  0
   12.4729   12.0540    1.8384 C   0  0  0  0  0  0  0  0  0  0  0  0
   13.4963   12.9498    2.1557 C   0  0  0  0  0  0  0  0  0  0  0  0
   13.6057   14.1675    1.4785 C   0  0  0  0  0  0  0  0  0  0  0  0
   12.6839   14.4869    0.4762 C   0  0  0  0  0  0  0  0  0  0  0  0
   11.6632   13.5968    0.1402 C   0  0  0  0  0  0  0  0  0  0  0  0
    9.3917   11.9123   -0.1244 N   0  0  0  0  0  0  0  0  0  0  0  0
    8.6268   10.8923   -0.3247 N   0  0  0  0  0  0  0  0  0  0  0  0
    3.1781    6.1412    0.4253 C   0  0  0  0  0  0  0  0  0  0  0  0
    2.2961    5.0647   -0.2047 C   0  0  0  0  0  0  0  0  0  0  0  0
    0.1199   -0.8470   -0.4208 H   0  0  0  0  0  0  0  0  0  0  0  0
    0.2814    0.6696   -1.3630 H   0  0  0  0  0  0  0  0  0  0  0  0
   -0.0366    0.7374    0.4027 H   0  0  0  0  0  0  0  0  0  0  0  0
    1.0193    2.6717   -0.4102 H   0  0  0  0  0  0  0  0  0  0  0  0
    5.8210    2.0899    0.6690 H   0  0  0  0  0  0  0  0  0  0  0  0
    5.1507   -1.9042   -0.2804 H   0  0  0  0  0  0  0  0  0  0  0  0
    5.1923   -0.5526   -1.4568 H   0  0  0  0  0  0  0  0  0  0  0  0
    3.6216   -1.2954   -0.9929 H   0  0  0  0  0  0  0  0  0  0  0  0
    6.1021    4.5542    0.0203 H   0  0  0  0  0  0  0  0  0  0  0  0
    5.3493    4.8293    1.5984 H   0  0  0  0  0  0  0  0  0  0  0  0
    5.7290    7.2151    1.2868 H   0  0  0  0  0  0  0  0  0  0  0  0
    4.8024    8.0371    0.0141 H   0  0  0  0  0  0  0  0  0  0  0  0
    6.3143    7.0468   -1.7297 H   0  0  0  0  0  0  0  0  0  0  0  0
    7.3190    6.3277   -0.4475 H   0  0  0  0  0  0  0  0  0  0  0  0
    7.0394    9.2632   -0.8349 H   0  0  0  0  0  0  0  0  0  0  0  0
   11.2545    9.5258    1.1034 H   0  0  0  0  0  0  0  0  0  0  0  0
   12.3775   11.1176    2.3907 H   0  0  0  0  0  0  0  0  0  0  0  0
   14.2055   12.6948    2.9467 H   0  0  0  0  0  0  0  0  0  0  0  0
   14.4053   14.8669    1.7331 H   0  0  0  0  0  0  0  0  0  0  0  0
   12.7617   15.4375   -0.0571 H   0  0  0  0  0  0  0  0  0  0  0  0
   10.9399   13.8296   -0.6410 H   0  0  0  0  0  0  0  0  0  0  0  0
    2.8269    7.1380    0.1160 H   0  0  0  0  0  0  0  0  0  0  0  0
    3.0875    6.1003    1.5369 H   0  0  0  0  0  0  0  0  0  0  0  0
    2.1965    5.2781   -1.2844 H   0  0  0  0  0  0  0  0  0  0  0  0
    1.2802    5.1123    0.2230 H   0  0  0  0  0  0  0  0  0  0  0  0
  1  2  1  0
  1 31  1  0
  1 32  1  0
  1 33  1  0
  2  3  1  0
  3  4  2  0
  3  8  1  0
  4  5  1  0
  4 34  1  0
  5  6  2  0
  5 30  1  0
  6  7  1  0
  6 11  1  0
  7  8  2  0
  7 35  1  0
  8  9  1  0
  9 10  1  0
 10 36  1  0
 10 37  1  0
 10 38  1  0
 11 12  1  0
 11 39  1  0
 11 40  1  0
 12 13  1  0
 12 29  1  0
 13 14  1  0
 13 41  1  0
 13 42  1  0
 14 15  1  0
 14 43  1  0
 14 44  1  0
 15 16  1  0
 15 45  1  0
 16 17  2  0
 16 18  1  0
 18 19  2  0
 18 28  1  0
 19 20  1  0
 19 46  1  0
 20 21  1  0
 20 27  1  0
 21 22  2  0
 21 26  1  0
 22 23  1  0
 22 47  1  0
 23 24  2  0
 23 48  1  0
 24 25  1  0
 24 49  1  0
 25 26  2  0
 25 50  1  0
 26 51  1  0
 27 28  2  0
 29 30  1  0
 29 52  1  0
 29 53  1  0
 30 54  1  0
 30 55  1  0
M  END

