
     RDKit          3D

 58 59  0  0  0  0  0  0  0  0999 V2000
   10.0800   -1.0115    0.3219 C   0  0  0  0  0  0  0  0  0  0  0  0
   10.7944   -0.1262   -0.7014 C   0  0  2  0  0  0  0  0  0  0  0  0
   11.4141   -0.7798   -1.3441 H   0  0  0  0  0  0  0  0  0  0  0  0
   11.7467    0.8857   -0.0359 C   0  0  0  0  0  0  0  0  0  0  0  0
   12.4876    1.7534   -1.0628 C   0  0  0  0  0  0  0  0  0  0  0  0
   11.5155    2.4508   -2.0238 C   0  0  0  0  0  0  0  0  0  0  0  0
   10.5745    1.4407   -2.6918 C   0  0  0  0  0  0  0  0  0  0  0  0
    9.8079    0.5865   -1.6612 C   0  0  2  0  0  0  0  0  0  0  0  0
    9.2190   -0.1697   -2.2010 H   0  0  0  0  0  0  0  0  0  0  0  0
    8.8271    1.3779   -0.9290 N   0  0  0  0  0  0  0  0  0  0  0  0
    7.4944    1.3241   -1.1848 C   0  0  0  0  0  0  0  0  0  0  0  0
    6.9741    0.6233   -2.0405 O   0  0  0  0  0  0  0  0  0  0  0  0
    6.6216    2.2521   -0.3247 C   0  0  0  0  0  0  0  0  0  0  0  0
    7.0953    2.5484    0.9732 O   0  0  0  0  0  0  0  0  0  0  0  0
    8.1814    3.4629    0.9223 N   0  0  0  0  0  0  0  0  0  0  0  0
    8.3643    4.0044    2.0823 C   0  0  0  0  0  0  0  0  0  0  0  0
    9.3579    4.9115    2.2713 N   0  0  0  0  0  0  0  0  0  0  0  0
    7.5041    3.6933    3.3027 C   0  0  0  0  0  0  0  0  0  0  0  0
    7.8467    4.5124    4.4598 N   0  0  0  0  0  0  0  0  0  0  0  0
    7.0330    5.7495    4.5426 C   0  0  2  0  0  0  0  0  0  0  0  0
    6.8899    6.0852    3.5028 H   0  0  0  0  0  0  0  0  0  0  0  0
    7.7802    6.8820    5.2579 C   0  0  0  0  0  0  0  0  0  0  0  0
    5.6374    5.4673    5.1470 C   0  0  0  0  0  0  0  0  0  0  0  0
    5.7155    4.7143    6.4819 C   0  0  0  0  0  0  0  0  0  0  0  0
    6.5909    3.4604    6.3555 C   0  0  0  0  0  0  0  0  0  0  0  0
    7.9663    3.8144    5.7592 C   0  0  1  0  0  0  0  0  0  0  0  0
    8.4307    4.5493    6.4398 H   0  0  0  0  0  0  0  0  0  0  0  0
    8.9191    2.6196    5.7066 C   0  0  0  0  0  0  0  0  0  0  0  0
    9.4380   -0.4105    0.9855 H   0  0  0  0  0  0  0  0  0  0  0  0
   10.8050   -1.5546    0.9500 H   0  0  0  0  0  0  0  0  0  0  0  0
    9.4366   -1.7559   -0.1740 H   0  0  0  0  0  0  0  0  0  0  0  0
   12.4696    0.3474    0.6012 H   0  0  0  0  0  0  0  0  0  0  0  0
   11.1685    1.5346    0.6497 H   0  0  0  0  0  0  0  0  0  0  0  0
   13.1735    1.1122   -1.6469 H   0  0  0  0  0  0  0  0  0  0  0  0
   13.1227    2.4955   -0.5492 H   0  0  0  0  0  0  0  0  0  0  0  0
   12.0719    3.0172   -2.7894 H   0  0  0  0  0  0  0  0  0  0  0  0
   10.9169    3.1962   -1.4680 H   0  0  0  0  0  0  0  0  0  0  0  0
   11.1644    0.7627   -3.3347 H   0  0  0  0  0  0  0  0  0  0  0  0
    9.8509    1.9498   -3.3486 H   0  0  0  0  0  0  0  0  0  0  0  0
    9.1243    2.0914   -0.2643 H   0  0  0  0  0  0  0  0  0  0  0  0
    5.6620    1.7348   -0.1859 H   0  0  0  0  0  0  0  0  0  0  0  0
    6.4330    3.1815   -0.8942 H   0  0  0  0  0  0  0  0  0  0  0  0
   10.0521    5.0547    1.5502 H   0  0  0  0  0  0  0  0  0  0  0  0
    9.5536    5.1369    3.2417 H   0  0  0  0  0  0  0  0  0  0  0  0
    7.6324    2.6229    3.5148 H   0  0  0  0  0  0  0  0  0  0  0  0
    6.4490    3.7850    2.9895 H   0  0  0  0  0  0  0  0  0  0  0  0
    7.9634    6.6750    6.3232 H   0  0  0  0  0  0  0  0  0  0  0  0
    7.1965    7.8143    5.2028 H   0  0  0  0  0  0  0  0  0  0  0  0
    8.7541    7.0629    4.7772 H   0  0  0  0  0  0  0  0  0  0  0  0
    5.0595    4.8588    4.4293 H   0  0  0  0  0  0  0  0  0  0  0  0
    5.0815    6.4129    5.2623 H   0  0  0  0  0  0  0  0  0  0  0  0
    4.7022    4.4468    6.8244 H   0  0  0  0  0  0  0  0  0  0  0  0
    6.1369    5.3722    7.2630 H   0  0  0  0  0  0  0  0  0  0  0  0
    6.0938    2.7142    5.7080 H   0  0  0  0  0  0  0  0  0  0  0  0
    6.7222    2.9805    7.3404 H   0  0  0  0  0  0  0  0  0  0  0  0
    8.4900    1.7558    5.1751 H   0  0  0  0  0  0  0  0  0  0  0  0
    9.1530    2.2843    6.7289 H   0  0  0  0  0  0  0  0  0  0  0  0
    9.8642    2.8918    5.2110 H   0  0  0  0  0  0  0  0  0  0  0  0
  1  2  1  0
  1 29  1  0
  1 30  1  0
  1 31  1  0
  2  3  1  6
  2  4  1  0
  2  8  1  0
  4  5  1  0
  4 32  1  0
  4 33  1  0
  5  6  1  0
  5 34  1  0
  5 35  1  0
  6  7  1  0
  6 36  1  0
  6 37  1  0
  7  8  1  0
  7 38  1  0
  7 39  1  0
  8  9  1  6
  8 10  1  0
 10 11  1  0
 10 40  1  0
 11 12  2  0
 11 13  1  0
 13 14  1  0
 13 41  1  0
 13 42  1  0
 14 15  1  0
 15 16  2  0
 16 17  1  0
 16 18  1  0
 17 43  1  0
 17 44  1  0
 18 19  1  0
 18 45  1  0
 18 46  1  0
 19 20  1  0
 19 26  1  0
 20 21  1  6
 20 22  1  0
 20 23  1  0
 22 47  1  0
 22 48  1  0
 22 49  1  0
 23 24  1  0
 23 50  1  0
 23 51  1  0
 24 25  1  0
 24 52  1  0
 24 53  1  0
 25 26  1  0
 25 54  1  0
 25 55  1  0
 26 27  1  1
 26 28  1  0
 28 56  1  0
 28 57  1  0
 28 58  1  0
M  END

