
     RDKit          3D

 36 37  0  0  0  0  0  0  0  0999 V2000
    1.1308    0.7235   -0.8892 C   0  0  0  0  0  0  0  0  0  0  0  0
    2.5249    0.4568   -0.3782 C   0  0  0  0  0  0  0  0  0  0  0  0
    3.4692    1.4846   -0.2490 C   0  0  0  0  0  0  0  0  0  0  0  0
    4.7645    1.2184    0.2002 C   0  0  0  0  0  0  0  0  0  0  0  0
    5.1421   -0.0882    0.5129 C   0  0  0  0  0  0  0  0  0  0  0  0
    4.2281   -1.1445    0.3937 C   0  0  0  0  0  0  0  0  0  0  0  0
    4.6357   -2.5742    0.7035 C   0  0  0  0  0  0  0  0  0  0  0  0
    6.0795   -2.7680    0.6151 N   0  0  0  0  0  0  0  0  0  0  0  0
    2.9201   -0.8517   -0.0376 C   0  0  0  0  0  0  0  0  0  0  0  0
    2.0083   -1.8784   -0.1977 O   0  0  0  0  0  0  0  0  0  0  0  0
    1.2358   -2.2250    0.9440 C   0  0  0  0  0  0  0  0  0  0  0  0
    0.2400   -3.3090    0.5322 C   0  0  0  0  0  0  0  0  0  0  0  0
   -0.6295   -3.7624    1.6800 C   0  0  0  0  0  0  0  0  0  0  0  0
   -0.2172   -4.7567    2.5784 C   0  0  0  0  0  0  0  0  0  0  0  0
   -1.0490   -5.1106    3.6413 C   0  0  0  0  0  0  0  0  0  0  0  0
   -2.2761   -4.4532    3.7746 C   0  0  0  0  0  0  0  0  0  0  0  0
   -2.6898   -3.5064    2.9295 N   0  0  0  0  0  0  0  0  0  0  0  0
   -1.8855   -3.1780    1.9178 C   0  0  0  0  0  0  0  0  0  0  0  0
    1.0459    1.7456   -1.2859 H   0  0  0  0  0  0  0  0  0  0  0  0
    0.3725    0.6146   -0.0947 H   0  0  0  0  0  0  0  0  0  0  0  0
    0.8576    0.0144   -1.6860 H   0  0  0  0  0  0  0  0  0  0  0  0
    3.1811    2.5066   -0.5118 H   0  0  0  0  0  0  0  0  0  0  0  0
    5.4869    2.0332    0.2960 H   0  0  0  0  0  0  0  0  0  0  0  0
    6.1555   -0.3208    0.8448 H   0  0  0  0  0  0  0  0  0  0  0  0
    4.0389   -3.2462    0.0547 H   0  0  0  0  0  0  0  0  0  0  0  0
    4.3356   -2.8162    1.7405 H   0  0  0  0  0  0  0  0  0  0  0  0
    6.3864   -2.6922   -0.3558 H   0  0  0  0  0  0  0  0  0  0  0  0
    6.3291   -3.7058    0.9265 H   0  0  0  0  0  0  0  0  0  0  0  0
    0.7000   -1.3397    1.3343 H   0  0  0  0  0  0  0  0  0  0  0  0
    1.8873   -2.5925    1.7593 H   0  0  0  0  0  0  0  0  0  0  0  0
    0.8066   -4.1594    0.1192 H   0  0  0  0  0  0  0  0  0  0  0  0
   -0.3819   -2.9130   -0.2865 H   0  0  0  0  0  0  0  0  0  0  0  0
    0.7472   -5.2556    2.4404 H   0  0  0  0  0  0  0  0  0  0  0  0
   -0.7559   -5.8850    4.3541 H   0  0  0  0  0  0  0  0  0  0  0  0
   -2.9535   -4.7071    4.5988 H   0  0  0  0  0  0  0  0  0  0  0  0
   -2.2556   -2.4022    1.2344 H   0  0  0  0  0  0  0  0  0  0  0  0
  1  2  1  0
  1 19  1  0
  1 20  1  0
  1 21  1  0
  2  3  2  0
  2  9  1  0
  3  4  1  0
  3 22  1  0
  4  5  2  0
  4 23  1  0
  5  6  1  0
  5 24  1  0
  6  7  1  0
  6  9  2  0
  7  8  1  0
  7 25  1  0
  7 26  1  0
  8 27  1  0
  8 28  1  0
  9 10  1  0
 10 11  1  0
 11 12  1  0
 11 29  1  0
 11 30  1  0
 12 13  1  0
 12 31  1  0
 12 32  1  0
 13 14  2  0
 13 18  1  0
 14 15  1  0
 14 33  1  0
 15 16  2  0
 15 34  1  0
 16 17  1  0
 16 35  1  0
 17 18  2  0
 18 36  1  0
M  END

