
     RDKit          3D

 92 96  0  0  0  0  0  0  0  0999 V2000
    5.1582    1.5341   -3.4130 C   0  0  0  0  0  0  0  0  0  0  0  0
    4.5788    0.8013   -2.2020 C   0  0  0  0  0  0  0  0  0  0  0  0
    4.4750    1.6394   -1.0008 N   0  0  0  0  0  0  0  0  0  0  0  0
    3.4694    2.6054   -0.9328 N   0  0  0  0  0  0  0  0  0  0  0  0
    2.1072    2.0838   -0.8526 C   0  0  0  0  0  0  0  0  0  0  0  0
    1.1005    3.2013   -0.6775 C   0  0  0  0  0  0  0  0  0  0  0  0
    1.4382    4.4384   -0.1239 C   0  0  0  0  0  0  0  0  0  0  0  0
    0.4952    5.4586    0.0434 C   0  0  0  0  0  0  0  0  0  0  0  0
   -0.8287    5.2388   -0.3461 C   0  0  0  0  0  0  0  0  0  0  0  0
   -1.8025    6.1771   -0.2167 O   0  0  0  0  0  0  0  0  0  0  0  0
   -1.2033    4.0041   -0.8985 C   0  0  0  0  0  0  0  0  0  0  0  0
   -0.2486    2.9954   -1.0590 C   0  0  0  0  0  0  0  0  0  0  0  0
   -0.5384    1.7702   -1.5739 O   0  0  0  0  0  0  0  0  0  0  0  0
   -1.8524    1.4849   -1.9998 C   0  0  0  0  0  0  0  0  0  0  0  0
    5.5891    1.7400   -0.1836 C   0  0  0  0  0  0  0  0  0  0  0  0
    6.6149    1.1313   -0.4568 O   0  0  0  0  0  0  0  0  0  0  0  0
    5.5294    2.5980    1.0545 C   0  0  0  0  0  0  0  0  0  0  0  0
    4.4056    2.7254    1.8846 C   0  0  0  0  0  0  0  0  0  0  0  0
    4.4810    3.4832    3.0566 C   0  0  0  0  0  0  0  0  0  0  0  0
    5.6676    4.1283    3.4052 C   0  0  0  0  0  0  0  0  0  0  0  0
    6.8102    3.9869    2.6032 C   0  0  0  0  0  0  0  0  0  0  0  0
    8.0612    4.7072    3.0459 C   0  0  0  0  0  0  0  0  0  0  0  0
    8.0105    5.6178    3.8631 O   0  0  0  0  0  0  0  0  0  0  0  0
    9.2296    4.2789    2.4879 N   0  0  0  0  0  0  0  0  0  0  0  0
   10.5203    4.8283    2.8415 C   0  0  0  0  0  0  0  0  0  0  0  0
   11.5127    3.7106    3.1793 C   0  0  0  0  0  0  0  0  0  0  0  0
   11.6043    2.7235    2.1043 N   0  0  0  0  0  0  0  0  0  0  0  0
   12.4464    3.1152    0.9699 C   0  0  0  0  0  0  0  0  0  0  0  0
   13.9528    2.9471    1.2362 C   0  0  0  0  0  0  0  0  0  0  0  0
   14.2862    1.5274    1.7095 C   0  0  2  0  0  0  0  0  0  0  0  0
   14.0654    0.5773    0.6382 O   0  0  0  0  0  0  0  0  0  0  0  0
   15.0738    0.3997   -0.2526 C   0  0  0  0  0  0  0  0  0  0  0  0
   16.1384    0.9757   -0.2005 O   0  0  0  0  0  0  0  0  0  0  0  0
   14.6753   -0.5232   -1.1854 N   0  0  0  0  0  0  0  0  0  0  0  0
   15.3817   -1.0122   -2.2996 C   0  0  0  0  0  0  0  0  0  0  0  0
   16.6441   -0.5111   -2.6641 C   0  0  0  0  0  0  0  0  0  0  0  0
   17.2890   -0.9936   -3.8033 C   0  0  0  0  0  0  0  0  0  0  0  0
   16.6919   -1.9717   -4.6009 C   0  0  0  0  0  0  0  0  0  0  0  0
   15.4409   -2.4723   -4.2377 C   0  0  0  0  0  0  0  0  0  0  0  0
   14.7704   -2.0223   -3.0897 C   0  0  0  0  0  0  0  0  0  0  0  0
   13.4383   -2.6049   -2.7454 C   0  0  0  0  0  0  0  0  0  0  0  0
   13.2208   -3.2691   -1.5220 C   0  0  0  0  0  0  0  0  0  0  0  0
   11.9779   -3.8348   -1.2239 C   0  0  0  0  0  0  0  0  0  0  0  0
   10.9282   -3.7526   -2.1433 C   0  0  0  0  0  0  0  0  0  0  0  0
   11.1310   -3.1026   -3.3642 C   0  0  0  0  0  0  0  0  0  0  0  0
   12.3723   -2.5344   -3.6614 C   0  0  0  0  0  0  0  0  0  0  0  0
   13.3740    1.1063    2.8623 C   0  0  0  0  0  0  0  0  0  0  0  0
   11.8929    1.3512    2.5217 C   0  0  0  0  0  0  0  0  0  0  0  0
    6.7296    3.2160    1.4368 C   0  0  0  0  0  0  0  0  0  0  0  0
    5.1781    0.8683   -4.2905 H   0  0  0  0  0  0  0  0  0  0  0  0
    6.1883    1.8618   -3.2080 H   0  0  0  0  0  0  0  0  0  0  0  0
    4.5558    2.4168   -3.6867 H   0  0  0  0  0  0  0  0  0  0  0  0
    5.2171   -0.0531   -1.9432 H   0  0  0  0  0  0  0  0  0  0  0  0
    3.5735    0.4124   -2.4283 H   0  0  0  0  0  0  0  0  0  0  0  0
    3.5601    3.2708   -1.7037 H   0  0  0  0  0  0  0  0  0  0  0  0
    2.0697    1.3904    0.0083 H   0  0  0  0  0  0  0  0  0  0  0  0
    1.8128    1.4797   -1.7308 H   0  0  0  0  0  0  0  0  0  0  0  0
    2.4714    4.6068    0.1848 H   0  0  0  0  0  0  0  0  0  0  0  0
    0.7913    6.4182    0.4774 H   0  0  0  0  0  0  0  0  0  0  0  0
   -1.4269    6.9750    0.1779 H   0  0  0  0  0  0  0  0  0  0  0  0
   -2.2447    3.8686   -1.1857 H   0  0  0  0  0  0  0  0  0  0  0  0
   -1.8407    0.4550   -2.3813 H   0  0  0  0  0  0  0  0  0  0  0  0
   -2.1785    2.1637   -2.8080 H   0  0  0  0  0  0  0  0  0  0  0  0
   -2.5758    1.5504   -1.1678 H   0  0  0  0  0  0  0  0  0  0  0  0
    3.4729    2.2253    1.6265 H   0  0  0  0  0  0  0  0  0  0  0  0
    3.6015    3.5732    3.6992 H   0  0  0  0  0  0  0  0  0  0  0  0
    5.7411    4.7470    4.3015 H   0  0  0  0  0  0  0  0  0  0  0  0
    9.2595    3.4313    1.9306 H   0  0  0  0  0  0  0  0  0  0  0  0
   10.3788    5.4940    3.7049 H   0  0  0  0  0  0  0  0  0  0  0  0
   10.9146    5.4527    2.0172 H   0  0  0  0  0  0  0  0  0  0  0  0
   11.1526    3.1927    4.0825 H   0  0  0  0  0  0  0  0  0  0  0  0
   12.4871    4.1725    3.4465 H   0  0  0  0  0  0  0  0  0  0  0  0
   12.2235    4.1567    0.6913 H   0  0  0  0  0  0  0  0  0  0  0  0
   12.1633    2.4935    0.1033 H   0  0  0  0  0  0  0  0  0  0  0  0
   14.2846    3.6505    2.0193 H   0  0  0  0  0  0  0  0  0  0  0  0
   14.5415    3.1845    0.3364 H   0  0  0  0  0  0  0  0  0  0  0  0
   15.3468    1.4653    1.9928 H   0  0  0  0  0  0  0  0  0  0  0  0
   13.7403   -0.8920   -1.0468 H   0  0  0  0  0  0  0  0  0  0  0  0
   17.1017    0.2589   -2.0471 H   0  0  0  0  0  0  0  0  0  0  0  0
   18.2707   -0.5918   -4.0674 H   0  0  0  0  0  0  0  0  0  0  0  0
   17.1961   -2.3480   -5.4940 H   0  0  0  0  0  0  0  0  0  0  0  0
   14.9682   -3.2501   -4.8426 H   0  0  0  0  0  0  0  0  0  0  0  0
   14.0419   -3.3596   -0.8060 H   0  0  0  0  0  0  0  0  0  0  0  0
   11.8328   -4.3508   -0.2712 H   0  0  0  0  0  0  0  0  0  0  0  0
    9.9559   -4.1931   -1.9090 H   0  0  0  0  0  0  0  0  0  0  0  0
   10.3154   -3.0312   -4.0885 H   0  0  0  0  0  0  0  0  0  0  0  0
   12.5218   -2.0176   -4.6127 H   0  0  0  0  0  0  0  0  0  0  0  0
   13.6595    1.6891    3.7549 H   0  0  0  0  0  0  0  0  0  0  0  0
   13.5456    0.0442    3.1019 H   0  0  0  0  0  0  0  0  0  0  0  0
   11.2527    1.0964    3.3808 H   0  0  0  0  0  0  0  0  0  0  0  0
   11.6032    0.6764    1.6983 H   0  0  0  0  0  0  0  0  0  0  0  0
    7.5925    3.0825    0.7820 H   0  0  0  0  0  0  0  0  0  0  0  0
  1  2  1  0
  1 50  1  0
  1 51  1  0
  1 52  1  0
  2  3  1  0
  2 53  1  0
  2 54  1  0
  3  4  1  0
  3 15  1  0
  4  5  1  0
  4 55  1  0
  5  6  1  0
  5 56  1  0
  5 57  1  0
  6  7  2  0
  6 12  1  0
  7  8  1  0
  7 58  1  0
  8  9  2  0
  8 59  1  0
  9 10  1  0
  9 11  1  0
 10 60  1  0
 11 12  2  0
 11 61  1  0
 12 13  1  0
 13 14  1  0
 14 62  1  0
 14 63  1  0
 14 64  1  0
 15 16  2  0
 15 17  1  0
 17 18  2  0
 17 49  1  0
 18 19  1  0
 18 65  1  0
 19 20  2  0
 19 66  1  0
 20 21  1  0
 20 67  1  0
 21 22  1  0
 21 49  2  0
 22 23  2  0
 22 24  1  0
 24 25  1  0
 24 68  1  0
 25 26  1  0
 25 69  1  0
 25 70  1  0
 26 27  1  0
 26 71  1  0
 26 72  1  0
 27 28  1  0
 27 48  1  0
 28 29  1  0
 28 73  1  0
 28 74  1  0
 29 30  1  0
 29 75  1  0
 29 76  1  0
 30 31  1  0
 30 47  1  0
 30 77  1  1
 31 32  1  0
 32 33  2  0
 32 34  1  0
 34 35  1  0
 34 78  1  0
 35 36  2  0
 35 40  1  0
 36 37  1  0
 36 79  1  0
 37 38  2  0
 37 80  1  0
 38 39  1  0
 38 81  1  0
 39 40  2  0
 39 82  1  0
 40 41  1  0
 41 42  2  0
 41 46  1  0
 42 43  1  0
 42 83  1  0
 43 44  2  0
 43 84  1  0
 44 45  1  0
 44 85  1  0
 45 46  2  0
 45 86  1  0
 46 87  1  0
 47 48  1  0
 47 88  1  0
 47 89  1  0
 48 90  1  0
 48 91  1  0
 49 92  1  0
M  END

