
     RDKit          3D

 41 41  0  0  0  0  0  0  0  0999 V2000
    1.4790    2.7798    2.3019 C   0  0  0  0  0  0  0  0  0  0  0  0
    2.7740    2.5338    1.6726 C   0  0  0  0  0  0  0  0  0  0  0  0
    3.8493    2.3287    1.1493 C   0  0  0  0  0  0  0  0  0  0  0  0
    5.1640    2.1138    0.5399 C   0  0  0  0  0  0  0  0  0  0  0  0
    5.7493    0.6850    0.7021 C   0  0  1  0  0  0  0  0  0  0  0  0
    5.2560   -0.2084   -0.3414 N   0  0  0  0  0  0  0  0  0  0  0  0
    3.8142   -0.4054   -0.4039 C   0  0  0  0  0  0  0  0  0  0  0  0
    7.3167    0.7203    0.7543 C   0  0  1  0  0  0  0  0  0  0  0  0
    7.5172    1.4857    1.9625 O   0  0  0  0  0  0  0  0  0  0  0  0
    8.7813    1.9937    2.2976 C   0  0  0  0  0  0  0  0  0  0  0  0
    7.9363   -0.6860    0.9822 C   0  0  0  0  0  0  0  0  0  0  0  0
    8.2027   -1.5475   -0.2659 C   0  0  0  0  0  0  0  0  0  0  0  0
    8.8738   -0.7531   -1.3905 C   0  0  0  0  0  0  0  0  0  0  0  0
    8.0981    0.5290   -1.7268 C   0  0  2  0  0  0  0  0  0  0  0  0
    8.7538    1.3079   -2.8702 C   0  0  0  0  0  0  0  0  0  0  0  0
    7.9775    1.4031   -0.4644 C   0  0  0  0  0  0  0  0  0  0  0  0
    0.6488    2.3888    1.6897 H   0  0  0  0  0  0  0  0  0  0  0  0
    1.3019    3.8586    2.4489 H   0  0  0  0  0  0  0  0  0  0  0  0
    1.4156    2.2979    3.2921 H   0  0  0  0  0  0  0  0  0  0  0  0
    5.8696    2.8132    1.0127 H   0  0  0  0  0  0  0  0  0  0  0  0
    5.1226    2.3625   -0.5350 H   0  0  0  0  0  0  0  0  0  0  0  0
    5.4560    0.3389    1.7168 H   0  0  0  0  0  0  0  0  0  0  0  0
    5.6919   -1.1182   -0.2228 H   0  0  0  0  0  0  0  0  0  0  0  0
    3.3046    0.5066   -0.7469 H   0  0  0  0  0  0  0  0  0  0  0  0
    3.3506   -0.6901    0.5649 H   0  0  0  0  0  0  0  0  0  0  0  0
    3.5962   -1.1987   -1.1365 H   0  0  0  0  0  0  0  0  0  0  0  0
    8.7155    2.3334    3.3427 H   0  0  0  0  0  0  0  0  0  0  0  0
    9.0802    2.8597    1.6774 H   0  0  0  0  0  0  0  0  0  0  0  0
    9.5891    1.2388    2.2412 H   0  0  0  0  0  0  0  0  0  0  0  0
    7.3224   -1.2318    1.7187 H   0  0  0  0  0  0  0  0  0  0  0  0
    8.9095   -0.5199    1.4731 H   0  0  0  0  0  0  0  0  0  0  0  0
    7.2717   -1.9925   -0.6551 H   0  0  0  0  0  0  0  0  0  0  0  0
    8.8338   -2.4046    0.0242 H   0  0  0  0  0  0  0  0  0  0  0  0
    8.9743   -1.3853   -2.2894 H   0  0  0  0  0  0  0  0  0  0  0  0
    9.9034   -0.4799   -1.0881 H   0  0  0  0  0  0  0  0  0  0  0  0
    7.0794    0.2411   -2.0351 H   0  0  0  0  0  0  0  0  0  0  0  0
    9.7770    1.6260   -2.6033 H   0  0  0  0  0  0  0  0  0  0  0  0
    8.1792    2.2146   -3.1210 H   0  0  0  0  0  0  0  0  0  0  0  0
    8.8247    0.6943   -3.7832 H   0  0  0  0  0  0  0  0  0  0  0  0
    7.4516    2.3413   -0.7010 H   0  0  0  0  0  0  0  0  0  0  0  0
    9.0023    1.6968   -0.1782 H   0  0  0  0  0  0  0  0  0  0  0  0
  1  2  1  0
  1 17  1  0
  1 18  1  0
  1 19  1  0
  2  3  3  0
  3  4  1  0
  4  5  1  0
  4 20  1  0
  4 21  1  0
  5  6  1  0
  5  8  1  0
  5 22  1  1
  6  7  1  0
  6 23  1  0
  7 24  1  0
  7 25  1  0
  7 26  1  0
  8  9  1  1
  8 11  1  0
  8 16  1  0
  9 10  1  0
 10 27  1  0
 10 28  1  0
 10 29  1  0
 11 12  1  0
 11 30  1  0
 11 31  1  0
 12 13  1  0
 12 32  1  0
 12 33  1  0
 13 14  1  0
 13 34  1  0
 13 35  1  0
 14 15  1  0
 14 16  1  0
 14 36  1  6
 15 37  1  0
 15 38  1  0
 15 39  1  0
 16 40  1  0
 16 41  1  0
M  END

