
     RDKit          3D

 42 43  0  0  0  0  0  0  0  0999 V2000
    2.4769   -1.5271   -0.1954 C   0  0  0  0  0  0  0  0  0  0  0  0
    2.9161   -0.0708    0.0196 C   0  0  1  0  0  0  0  0  0  0  0  0
    4.1274    0.0427    0.8394 N   0  0  0  0  0  0  0  0  0  0  0  0
    3.1556    0.7034   -1.3111 C   0  0  1  0  0  0  0  0  0  0  0  0
    2.0842    0.5003   -2.4027 C   0  0  0  0  0  0  0  0  0  0  0  0
    0.7615    1.2071   -2.0881 C   0  0  0  0  0  0  0  0  0  0  0  0
    1.0130    2.6939   -1.8188 C   0  0  0  0  0  0  0  0  0  0  0  0
    2.0857    2.8874   -0.7455 C   0  0  0  0  0  0  0  0  0  0  0  0
    3.3095    2.1467   -1.0646 N   0  0  0  0  0  0  0  0  0  0  0  0
    4.5069    2.8148   -0.9539 C   0  0  0  0  0  0  0  0  0  0  0  0
    4.5729    3.9878   -0.6151 O   0  0  0  0  0  0  0  0  0  0  0  0
    5.8004    2.0633   -1.2915 C   0  0  0  0  0  0  0  0  0  0  0  0
    5.8379    1.6085   -2.6691 N   0  0  0  0  0  0  0  0  0  0  0  0
    6.8853    0.8425   -3.1720 C   0  0  0  0  0  0  0  0  0  0  0  0
    7.0052    0.6630   -4.5687 C   0  0  0  0  0  0  0  0  0  0  0  0
    8.0154   -0.1317   -5.1035 C   0  0  0  0  0  0  0  0  0  0  0  0
    8.9382   -0.7749   -4.2686 C   0  0  0  0  0  0  0  0  0  0  0  0
    8.8308   -0.5975   -2.8880 C   0  0  0  0  0  0  0  0  0  0  0  0
    7.8253    0.2032   -2.3377 C   0  0  0  0  0  0  0  0  0  0  0  0
    2.4318   -2.0492    0.7739 H   0  0  0  0  0  0  0  0  0  0  0  0
    3.1970   -2.0691   -0.8335 H   0  0  0  0  0  0  0  0  0  0  0  0
    1.4836   -1.6119   -0.6621 H   0  0  0  0  0  0  0  0  0  0  0  0
    2.1148    0.4434    0.5755 H   0  0  0  0  0  0  0  0  0  0  0  0
    4.8056   -0.6691    0.5601 H   0  0  0  0  0  0  0  0  0  0  0  0
    3.9197   -0.1343    1.8215 H   0  0  0  0  0  0  0  0  0  0  0  0
    4.1011    0.3361   -1.7305 H   0  0  0  0  0  0  0  0  0  0  0  0
    1.9278   -0.5728   -2.5868 H   0  0  0  0  0  0  0  0  0  0  0  0
    2.4962    0.9160   -3.3384 H   0  0  0  0  0  0  0  0  0  0  0  0
    0.2827    0.7456   -1.2050 H   0  0  0  0  0  0  0  0  0  0  0  0
    0.0539    1.0770   -2.9237 H   0  0  0  0  0  0  0  0  0  0  0  0
    0.0863    3.2020   -1.5039 H   0  0  0  0  0  0  0  0  0  0  0  0
    1.3455    3.1840   -2.7512 H   0  0  0  0  0  0  0  0  0  0  0  0
    1.6941    2.5596    0.2368 H   0  0  0  0  0  0  0  0  0  0  0  0
    2.3702    3.9405   -0.6369 H   0  0  0  0  0  0  0  0  0  0  0  0
    5.8816    1.2052   -0.6085 H   0  0  0  0  0  0  0  0  0  0  0  0
    6.6168    2.7669   -1.0489 H   0  0  0  0  0  0  0  0  0  0  0  0
    5.4504    2.2660   -3.3375 H   0  0  0  0  0  0  0  0  0  0  0  0
    6.2871    1.1540   -5.2327 H   0  0  0  0  0  0  0  0  0  0  0  0
    8.0830   -0.2505   -6.1884 H   0  0  0  0  0  0  0  0  0  0  0  0
    9.7300   -1.3977   -4.6905 H   0  0  0  0  0  0  0  0  0  0  0  0
    9.5473   -1.0814   -2.2184 H   0  0  0  0  0  0  0  0  0  0  0  0
    7.7806    0.3359   -1.2561 H   0  0  0  0  0  0  0  0  0  0  0  0
  1  2  1  0
  1 20  1  0
  1 21  1  0
  1 22  1  0
  2  3  1  0
  2  4  1  0
  2 23  1  1
  3 24  1  0
  3 25  1  0
  4  5  1  0
  4  9  1  0
  4 26  1  6
  5  6  1  0
  5 27  1  0
  5 28  1  0
  6  7  1  0
  6 29  1  0
  6 30  1  0
  7  8  1  0
  7 31  1  0
  7 32  1  0
  8  9  1  0
  8 33  1  0
  8 34  1  0
  9 10  1  0
 10 11  2  0
 10 12  1  0
 12 13  1  0
 12 35  1  0
 12 36  1  0
 13 14  1  0
 13 37  1  0
 14 15  2  0
 14 19  1  0
 15 16  1  0
 15 38  1  0
 16 17  2  0
 16 39  1  0
 17 18  1  0
 17 40  1  0
 18 19  2  0
 18 41  1  0
 19 42  1  0
M  END

