
     RDKit          3D

 42 44  0  0  0  0  0  0  0  0999 V2000
    0.8861    0.4375   -0.1615 C   0  0  0  0  0  0  0  0  0  0  0  0
    2.1812   -0.0627    0.4281 C   0  0  0  0  0  0  0  0  0  0  0  0
    2.4602   -1.2701    0.4004 O   0  0  0  0  0  0  0  0  0  0  0  0
    3.1271    0.8555    1.0483 C   0  0  0  0  0  0  0  0  0  0  0  0
    4.2710    0.3735    1.6215 C   0  0  0  0  0  0  0  0  0  0  0  0
    4.6791   -0.8664    1.6770 O   0  0  0  0  0  0  0  0  0  0  0  0
    5.0536    1.4896    2.2483 C   0  0  0  0  0  0  0  0  0  0  0  0
    6.1064    1.3953    2.8372 O   0  0  0  0  0  0  0  0  0  0  0  0
    4.2980    2.6368    2.0091 N   0  0  0  0  0  0  0  0  0  0  0  0
    4.6168    3.9344    2.4902 C   0  0  0  0  0  0  0  0  0  0  0  0
    5.9511    4.2976    2.7553 C   0  0  0  0  0  0  0  0  0  0  0  0
    6.2290    5.5815    3.2206 C   0  0  0  0  0  0  0  0  0  0  0  0
    5.2086    6.5152    3.4221 C   0  0  0  0  0  0  0  0  0  0  0  0
    3.8757    6.1709    3.1638 C   0  0  0  0  0  0  0  0  0  0  0  0
    2.7512    7.1573    3.3708 C   0  0  0  0  0  0  0  0  0  0  0  0
    3.5963    4.8752    2.7034 C   0  0  0  0  0  0  0  0  0  0  0  0
    3.0720    2.3585    1.2374 C   0  0  1  0  0  0  0  0  0  0  0  0
    2.1860    2.6304    1.8371 H   0  0  0  0  0  0  0  0  0  0  0  0
    3.0211    3.1478   -0.0708 C   0  0  0  0  0  0  0  0  0  0  0  0
    4.0765    3.0712   -0.9947 C   0  0  0  0  0  0  0  0  0  0  0  0
    4.0315    3.7820   -2.1956 C   0  0  0  0  0  0  0  0  0  0  0  0
    2.9284    4.5833   -2.5022 C   0  0  0  0  0  0  0  0  0  0  0  0
    1.8882    4.6504   -1.5782 C   0  0  0  0  0  0  0  0  0  0  0  0
    0.7118    5.4971   -1.8782 N   0  0  0  0  0  0  0  0  0  0  0  0
    0.7057    6.0972   -2.9393 O   0  0  0  0  0  0  0  0  0  0  0  0
   -0.1781    5.5397   -1.0435 O   0  0  0  0  0  0  0  0  0  0  0  0
    1.9184    3.9504   -0.3705 C   0  0  0  0  0  0  0  0  0  0  0  0
    0.2606   -0.4187   -0.4445 H   0  0  0  0  0  0  0  0  0  0  0  0
    1.0889    1.0510   -1.0547 H   0  0  0  0  0  0  0  0  0  0  0  0
    0.3429    1.0773    0.5525 H   0  0  0  0  0  0  0  0  0  0  0  0
    3.9648   -1.3851    1.2034 H   0  0  0  0  0  0  0  0  0  0  0  0
    6.7499    3.5738    2.6146 H   0  0  0  0  0  0  0  0  0  0  0  0
    7.2660    5.8580    3.4275 H   0  0  0  0  0  0  0  0  0  0  0  0
    5.4487    7.5181    3.7847 H   0  0  0  0  0  0  0  0  0  0  0  0
    3.1173    8.1013    3.7997 H   0  0  0  0  0  0  0  0  0  0  0  0
    1.9824    6.7542    4.0506 H   0  0  0  0  0  0  0  0  0  0  0  0
    2.2464    7.3948    2.4191 H   0  0  0  0  0  0  0  0  0  0  0  0
    2.5549    4.6068    2.5214 H   0  0  0  0  0  0  0  0  0  0  0  0
    4.9459    2.4492   -0.7684 H   0  0  0  0  0  0  0  0  0  0  0  0
    4.8627    3.7126   -2.9008 H   0  0  0  0  0  0  0  0  0  0  0  0
    2.8608    5.1509   -3.4298 H   0  0  0  0  0  0  0  0  0  0  0  0
    1.0753    4.0506    0.3138 H   0  0  0  0  0  0  0  0  0  0  0  0
  1  2  1  0
  1 28  1  0
  1 29  1  0
  1 30  1  0
  2  3  2  0
  2  4  1  0
  4  5  2  0
  4 17  1  0
  5  6  1  0
  5  7  1  0
  6 31  1  0
  7  8  2  0
  7  9  1  0
  9 10  1  0
  9 17  1  0
 10 11  2  0
 10 16  1  0
 11 12  1  0
 11 32  1  0
 12 13  2  0
 12 33  1  0
 13 14  1  0
 13 34  1  0
 14 15  1  0
 14 16  2  0
 15 35  1  0
 15 36  1  0
 15 37  1  0
 16 38  1  0
 17 18  1  1
 17 19  1  0
 19 20  2  0
 19 27  1  0
 20 21  1  0
 20 39  1  0
 21 22  2  0
 21 40  1  0
 22 23  1  0
 22 41  1  0
 23 24  1  0
 23 27  2  0
 24 25  2  0
 24 26  1  0
 27 42  1  0
M  CHG  2  24   1  26  -1
M  END

