
     RDKit          3D

 50 53  0  0  0  0  0  0  0  0999 V2000
    0.9251   -0.6417    1.0168 C   0  0  0  0  0  0  0  0  0  0  0  0
    2.3345   -0.7070    1.3575 N   0  0  0  0  0  0  0  0  0  0  0  0
    3.0486   -1.9622    1.2127 C   0  0  0  0  0  0  0  0  0  0  0  0
    2.9891    0.4159    1.8028 C   0  0  0  0  0  0  0  0  0  0  0  0
    2.3173    1.6592    1.9499 C   0  0  0  0  0  0  0  0  0  0  0  0
    2.9920    2.7831    2.4003 C   0  0  0  0  0  0  0  0  0  0  0  0
    4.3658    2.7575    2.7341 C   0  0  0  0  0  0  0  0  0  0  0  0
    4.9998    3.9748    3.1954 C   0  0  0  0  0  0  0  0  0  0  0  0
    6.3045    4.1254    3.5775 C   0  0  0  0  0  0  0  0  0  0  0  0
    6.9816    5.3158    4.0465 C   0  0  0  0  0  0  0  0  0  0  0  0
    6.4876    6.6168    4.0387 C   0  0  0  0  0  0  0  0  0  0  0  0
    7.2057    7.6968    4.6507 C   0  0  0  0  0  0  0  0  0  0  0  0
    7.7471    8.5990    5.1452 N   0  0  0  0  0  0  0  0  0  0  0  0
    5.2359    7.0021    3.4622 C   0  0  0  0  0  0  0  0  0  0  0  0
    4.2226    7.3380    2.9997 N   0  0  0  0  0  0  0  0  0  0  0  0
    8.3523    5.0839    4.6006 C   0  0  0  0  0  0  0  0  0  0  0  0
    8.4946    4.3006    5.7441 C   0  0  0  0  0  0  0  0  0  0  0  0
    9.7502    4.0261    6.3479 C   0  0  0  0  0  0  0  0  0  0  0  0
   10.8920    4.5378    5.7663 C   0  0  0  0  0  0  0  0  0  0  0  0
   10.7650    5.3099    4.5886 C   0  0  0  0  0  0  0  0  0  0  0  0
   12.0205    5.7395    4.0945 C   0  0  0  0  0  0  0  0  0  0  0  0
   12.0597    6.4878    2.9366 C   0  0  0  0  0  0  0  0  0  0  0  0
   10.8345    6.7961    2.2820 C   0  0  0  0  0  0  0  0  0  0  0  0
    9.6053    6.3802    2.7674 C   0  0  0  0  0  0  0  0  0  0  0  0
    9.5284    5.6134    3.9655 C   0  0  0  0  0  0  0  0  0  0  0  0
   13.1125    5.2353    5.0207 C   0  0  0  0  0  0  0  0  0  0  0  0
   12.3596    4.4382    6.1366 C   0  0  0  0  0  0  0  0  0  0  0  0
    5.0301    1.5170    2.5846 C   0  0  0  0  0  0  0  0  0  0  0  0
    4.3736    0.3839    2.1366 C   0  0  0  0  0  0  0  0  0  0  0  0
    0.5851   -1.6299    0.6834 H   0  0  0  0  0  0  0  0  0  0  0  0
    0.7287    0.0766    0.2003 H   0  0  0  0  0  0  0  0  0  0  0  0
    0.3036   -0.3448    1.8808 H   0  0  0  0  0  0  0  0  0  0  0  0
    2.3578   -2.7336    0.8505 H   0  0  0  0  0  0  0  0  0  0  0  0
    3.4707   -2.3122    2.1720 H   0  0  0  0  0  0  0  0  0  0  0  0
    3.8795   -1.8867    0.4882 H   0  0  0  0  0  0  0  0  0  0  0  0
    1.2590    1.7473    1.7089 H   0  0  0  0  0  0  0  0  0  0  0  0
    2.4432    3.7238    2.4991 H   0  0  0  0  0  0  0  0  0  0  0  0
    4.3338    4.8384    3.2349 H   0  0  0  0  0  0  0  0  0  0  0  0
    6.9510    3.2448    3.5559 H   0  0  0  0  0  0  0  0  0  0  0  0
    7.5928    3.8957    6.2113 H   0  0  0  0  0  0  0  0  0  0  0  0
    9.7877    3.4211    7.2575 H   0  0  0  0  0  0  0  0  0  0  0  0
   13.0037    6.8433    2.5150 H   0  0  0  0  0  0  0  0  0  0  0  0
   10.8653    7.3861    1.3621 H   0  0  0  0  0  0  0  0  0  0  0  0
    8.6951    6.6451    2.2268 H   0  0  0  0  0  0  0  0  0  0  0  0
   13.6951    6.0713    5.4420 H   0  0  0  0  0  0  0  0  0  0  0  0
   13.8330    4.5980    4.4814 H   0  0  0  0  0  0  0  0  0  0  0  0
   12.5456    4.8636    7.1368 H   0  0  0  0  0  0  0  0  0  0  0  0
   12.6904    3.3872    6.1827 H   0  0  0  0  0  0  0  0  0  0  0  0
    6.0928    1.4365    2.8234 H   0  0  0  0  0  0  0  0  0  0  0  0
    4.9398   -0.5415    2.0411 H   0  0  0  0  0  0  0  0  0  0  0  0
  1  2  1  0
  1 30  1  0
  1 31  1  0
  1 32  1  0
  2  3  1  0
  2  4  1  0
  3 33  1  0
  3 34  1  0
  3 35  1  0
  4  5  2  0
  4 29  1  0
  5  6  1  0
  5 36  1  0
  6  7  2  0
  6 37  1  0
  7  8  1  0
  7 28  1  0
  8  9  2  0
  8 38  1  0
  9 10  1  0
  9 39  1  0
 10 11  2  0
 10 16  1  0
 11 12  1  0
 11 14  1  0
 12 13  3  0
 14 15  3  0
 16 17  2  0
 16 25  1  0
 17 18  1  0
 17 40  1  0
 18 19  2  0
 18 41  1  0
 19 20  1  0
 19 27  1  0
 20 21  1  0
 20 25  2  0
 21 22  2  0
 21 26  1  0
 22 23  1  0
 22 42  1  0
 23 24  2  0
 23 43  1  0
 24 25  1  0
 24 44  1  0
 26 27  1  0
 26 45  1  0
 26 46  1  0
 27 47  1  0
 27 48  1  0
 28 29  2  0
 28 49  1  0
 29 50  1  0
M  END

