
     RDKit          3D

 38 41  0  0  0  0  0  0  0  0999 V2000
    0.6093    0.1057    0.1654 F   0  0  0  0  0  0  0  0  0  0  0  0
    1.8061   -0.0398   -0.4344 C   0  0  1  0  0  0  0  0  0  0  0  0
    2.5104   -0.9128    0.3147 F   0  0  0  0  0  0  0  0  0  0  0  0
    1.5912   -0.6361   -1.6219 F   0  0  0  0  0  0  0  0  0  0  0  0
    2.5213    1.2766   -0.5865 C   0  0  0  0  0  0  0  0  0  0  0  0
    2.3037    2.3062    0.3381 C   0  0  0  0  0  0  0  0  0  0  0  0
    3.0060    3.5036    0.2246 C   0  0  0  0  0  0  0  0  0  0  0  0
    3.9414    3.6916   -0.8059 C   0  0  0  0  0  0  0  0  0  0  0  0
    4.1614    2.6318   -1.7228 C   0  0  0  0  0  0  0  0  0  0  0  0
    3.4471    1.4413   -1.6257 C   0  0  0  0  0  0  0  0  0  0  0  0
    5.1796    2.8528   -2.7036 N   0  0  0  0  0  0  0  0  0  0  0  0
    6.3799    2.1044   -2.7144 C   0  0  0  0  0  0  0  0  0  0  0  0
    7.5828    2.6563   -3.2069 C   0  0  0  0  0  0  0  0  0  0  0  0
    8.7075    1.8369   -3.2378 C   0  0  0  0  0  0  0  0  0  0  0  0
    8.6178    0.5141   -2.7905 C   0  0  0  0  0  0  0  0  0  0  0  0
    7.3780    0.0758   -2.3229 C   0  0  0  0  0  0  0  0  0  0  0  0
    6.2890    0.8444   -2.2914 N   0  0  0  0  0  0  0  0  0  0  0  0
    5.2839    4.1969   -3.0481 N   0  0  0  0  0  0  0  0  0  0  0  0
    5.1493    5.1519   -2.0832 C   0  0  0  0  0  0  0  0  0  0  0  0
    5.6324    6.5101   -2.4513 C   0  0  0  0  0  0  0  0  0  0  0  0
    5.4912    7.5835   -1.5601 C   0  0  0  0  0  0  0  0  0  0  0  0
    5.9613    8.8340   -1.9564 C   0  0  0  0  0  0  0  0  0  0  0  0
    6.5351    8.9706   -3.2243 C   0  0  0  0  0  0  0  0  0  0  0  0
    6.6165    7.8404   -4.0442 C   0  0  0  0  0  0  0  0  0  0  0  0
    6.1826    6.6365   -3.6681 N   0  0  0  0  0  0  0  0  0  0  0  0
    4.5802    4.9256   -0.9410 N   0  0  0  0  0  0  0  0  0  0  0  0
    1.5774    2.1699    1.1411 H   0  0  0  0  0  0  0  0  0  0  0  0
    2.8452    4.3246    0.9258 H   0  0  0  0  0  0  0  0  0  0  0  0
    3.6347    0.6414   -2.3384 H   0  0  0  0  0  0  0  0  0  0  0  0
    7.6360    3.6943   -3.5331 H   0  0  0  0  0  0  0  0  0  0  0  0
    9.6565    2.2359   -3.6061 H   0  0  0  0  0  0  0  0  0  0  0  0
    9.4795   -0.1558   -2.8033 H   0  0  0  0  0  0  0  0  0  0  0  0
    7.2538   -0.9506   -1.9576 H   0  0  0  0  0  0  0  0  0  0  0  0
    5.4556    4.4582   -4.0140 H   0  0  0  0  0  0  0  0  0  0  0  0
    5.0222    7.4065   -0.5917 H   0  0  0  0  0  0  0  0  0  0  0  0
    5.8783    9.6943   -1.2875 H   0  0  0  0  0  0  0  0  0  0  0  0
    6.9127    9.9332   -3.5759 H   0  0  0  0  0  0  0  0  0  0  0  0
    7.0548    7.9126   -5.0460 H   0  0  0  0  0  0  0  0  0  0  0  0
  2  1  1  1
  2  3  1  0
  2  4  1  0
  2  5  1  0
  5  6  2  0
  5 10  1  0
  6  7  1  0
  6 27  1  0
  7  8  2  0
  7 28  1  0
  8  9  1  0
  8 26  1  0
  9 10  2  0
  9 11  1  0
 10 29  1  0
 11 12  1  0
 11 18  1  0
 12 13  2  0
 12 17  1  0
 13 14  1  0
 13 30  1  0
 14 15  2  0
 14 31  1  0
 15 16  1  0
 15 32  1  0
 16 17  2  0
 16 33  1  0
 18 19  1  0
 18 34  1  0
 19 20  1  0
 19 26  2  0
 20 21  2  0
 20 25  1  0
 21 22  1  0
 21 35  1  0
 22 23  2  0
 22 36  1  0
 23 24  1  0
 23 37  1  0
 24 25  2  0
 24 38  1  0
M  END

