
     RDKit          3D

 41 42  0  0  0  0  0  0  0  0999 V2000
    1.2526    0.1259   -0.4196 C   0  0  0  0  0  0  0  0  0  0  0  0
    2.7412    0.0770   -0.1040 C   0  0  0  0  0  0  0  0  0  0  0  0
    3.3965   -0.9298   -0.3166 O   0  0  0  0  0  0  0  0  0  0  0  0
    3.3166    1.2148    0.4275 N   0  0  0  0  0  0  0  0  0  0  0  0
    4.7298    1.1984    0.7883 C   0  0  0  0  0  0  0  0  0  0  0  0
    5.4591    2.4059    0.1971 C   0  0  0  0  0  0  0  0  0  0  0  0
    4.7685    3.6452    0.5675 N   0  0  0  0  0  0  0  0  0  0  0  0
    5.4681    4.6240    1.1966 C   0  0  0  0  0  0  0  0  0  0  0  0
    6.6746    4.5552    1.4182 O   0  0  0  0  0  0  0  0  0  0  0  0
    4.7126    5.8843    1.7196 C   0  0  0  0  0  0  0  0  0  0  0  0
    3.5308    5.9101    1.9780 O   0  0  0  0  0  0  0  0  0  0  0  0
    5.6180    6.9062    1.9168 N   0  0  0  0  0  0  0  0  0  0  0  0
    5.3508    8.1851    2.4435 C   0  0  0  0  0  0  0  0  0  0  0  0
    4.2236    8.5725    2.6522 O   0  0  0  0  0  0  0  0  0  0  0  0
    6.5554    9.0582    2.6702 C   0  0  0  0  0  0  0  0  0  0  0  0
    6.2793   10.4369    2.7478 C   0  0  0  0  0  0  0  0  0  0  0  0
    7.2873   11.3844    2.8815 C   0  0  0  0  0  0  0  0  0  0  0  0
    8.6171   10.9515    2.9538 C   0  0  0  0  0  0  0  0  0  0  0  0
    8.9152    9.5935    2.9180 C   0  0  0  0  0  0  0  0  0  0  0  0
    7.9031    8.6194    2.7906 C   0  0  0  0  0  0  0  0  0  0  0  0
    8.2668    7.2729    2.7381 N   0  0  0  0  0  0  0  0  0  0  0  0
    3.3607    3.6629    0.1644 C   0  0  0  0  0  0  0  0  0  0  0  0
    2.6272    2.4535    0.7570 C   0  0  0  0  0  0  0  0  0  0  0  0
    0.9722   -0.8566   -0.8172 H   0  0  0  0  0  0  0  0  0  0  0  0
    1.0160    0.8949   -1.1721 H   0  0  0  0  0  0  0  0  0  0  0  0
    0.6491    0.3352    0.4778 H   0  0  0  0  0  0  0  0  0  0  0  0
    5.1575    0.2593    0.4159 H   0  0  0  0  0  0  0  0  0  0  0  0
    4.8340    1.2144    1.8901 H   0  0  0  0  0  0  0  0  0  0  0  0
    5.4814    2.3255   -0.9046 H   0  0  0  0  0  0  0  0  0  0  0  0
    6.4906    2.4655    0.5634 H   0  0  0  0  0  0  0  0  0  0  0  0
    6.5850    6.6643    1.6860 H   0  0  0  0  0  0  0  0  0  0  0  0
    5.2317   10.7360    2.6815 H   0  0  0  0  0  0  0  0  0  0  0  0
    7.0445   12.4481    2.9245 H   0  0  0  0  0  0  0  0  0  0  0  0
    9.4291   11.6764    3.0546 H   0  0  0  0  0  0  0  0  0  0  0  0
    9.9537    9.2611    3.0058 H   0  0  0  0  0  0  0  0  0  0  0  0
    9.2553    7.0928    2.8778 H   0  0  0  0  0  0  0  0  0  0  0  0
    7.6956    6.6087    3.2518 H   0  0  0  0  0  0  0  0  0  0  0  0
    3.3184    3.6045   -0.9389 H   0  0  0  0  0  0  0  0  0  0  0  0
    2.8842    4.5875    0.4978 H   0  0  0  0  0  0  0  0  0  0  0  0
    1.6002    2.4357    0.3746 H   0  0  0  0  0  0  0  0  0  0  0  0
    2.5726    2.5811    1.8554 H   0  0  0  0  0  0  0  0  0  0  0  0
  1  2  1  0
  1 24  1  0
  1 25  1  0
  1 26  1  0
  2  3  2  0
  2  4  1  0
  4  5  1  0
  4 23  1  0
  5  6  1  0
  5 27  1  0
  5 28  1  0
  6  7  1  0
  6 29  1  0
  6 30  1  0
  7  8  1  0
  7 22  1  0
  8  9  2  0
  8 10  1  0
 10 11  2  0
 10 12  1  0
 12 13  1  0
 12 31  1  0
 13 14  2  0
 13 15  1  0
 15 16  2  0
 15 20  1  0
 16 17  1  0
 16 32  1  0
 17 18  2  0
 17 33  1  0
 18 19  1  0
 18 34  1  0
 19 20  2  0
 19 35  1  0
 20 21  1  0
 21 36  1  0
 21 37  1  0
 22 23  1  0
 22 38  1  0
 22 39  1  0
 23 40  1  0
 23 41  1  0
M  END

