
     RDKit          3D

 57 59  0  0  0  0  0  0  0  0999 V2000
    5.6238   -2.6897    0.1727 C   0  0  0  0  0  0  0  0  0  0  0  0
    5.1393   -1.2500    0.0808 C   0  0  1  0  0  0  0  0  0  0  0  0
    3.6100   -1.1106    0.1161 C   0  0  0  0  0  0  0  0  0  0  0  0
    3.0358   -1.6165    1.3460 N   0  0  0  0  0  0  0  0  0  0  0  0
    2.1048   -2.6157    1.3817 C   0  0  0  0  0  0  0  0  0  0  0  0
    1.6737   -3.1439    0.3625 O   0  0  0  0  0  0  0  0  0  0  0  0
    1.6282   -3.0124    2.7793 C   0  0  1  0  0  0  0  0  0  0  0  0
    0.1311   -2.6668    2.9741 C   0  0  0  0  0  0  0  0  0  0  0  0
   -0.8024   -3.6317    2.2341 C   0  0  0  0  0  0  0  0  0  0  0  0
   -0.5078   -5.0336    2.5688 N   0  0  0  0  0  0  0  0  0  0  0  0
   -1.3075   -5.7200    3.8862 S   0  0  1  0  0  0  0  0  0  0  0  0
   -0.3510   -6.5409    4.6408 O   0  0  0  0  0  0  0  0  0  0  0  0
   -2.0991   -4.6763    4.5515 O   0  0  0  0  0  0  0  0  0  0  0  0
   -2.4900   -6.8666    3.0839 C   0  0  0  0  0  0  0  0  0  0  0  0
   -3.3229   -7.5955    4.0994 C   0  0  0  0  0  0  0  0  0  0  0  0
   -4.5322   -7.0468    4.5539 C   0  0  0  0  0  0  0  0  0  0  0  0
   -5.2908   -7.7083    5.5218 C   0  0  0  0  0  0  0  0  0  0  0  0
   -4.8452   -8.9224    6.0533 C   0  0  0  0  0  0  0  0  0  0  0  0
   -3.6348   -9.4692    5.6161 C   0  0  0  0  0  0  0  0  0  0  0  0
   -2.8762   -8.8077    4.6482 C   0  0  0  0  0  0  0  0  0  0  0  0
    0.8875   -5.4295    2.3215 C   0  0  0  0  0  0  0  0  0  0  0  0
    1.8736   -4.5149    3.0577 C   0  0  0  0  0  0  0  0  0  0  0  0
    5.7155   -0.5527    1.1933 O   0  0  0  0  0  0  0  0  0  0  0  0
    5.9809    0.7841    1.1519 C   0  0  0  0  0  0  0  0  0  0  0  0
    6.5659    1.3203    2.3134 C   0  0  0  0  0  0  0  0  0  0  0  0
    6.8867    2.6738    2.3793 C   0  0  0  0  0  0  0  0  0  0  0  0
    6.6323    3.5195    1.2917 C   0  0  0  0  0  0  0  0  0  0  0  0
    6.0515    2.9868    0.1408 C   0  0  0  0  0  0  0  0  0  0  0  0
    5.7211    1.6277    0.0604 C   0  0  0  0  0  0  0  0  0  0  0  0
    5.2152   -3.2866   -0.6565 H   0  0  0  0  0  0  0  0  0  0  0  0
    5.3010   -3.1461    1.1201 H   0  0  0  0  0  0  0  0  0  0  0  0
    6.7221   -2.7251    0.1294 H   0  0  0  0  0  0  0  0  0  0  0  0
    5.5038   -0.8087   -0.8629 H   0  0  0  0  0  0  0  0  0  0  0  0
    3.1571   -1.6799   -0.7082 H   0  0  0  0  0  0  0  0  0  0  0  0
    3.3373   -0.0496   -0.0186 H   0  0  0  0  0  0  0  0  0  0  0  0
    3.3888   -1.2362    2.2160 H   0  0  0  0  0  0  0  0  0  0  0  0
    2.2072   -2.4318    3.5168 H   0  0  0  0  0  0  0  0  0  0  0  0
   -0.0671   -1.6316    2.6482 H   0  0  0  0  0  0  0  0  0  0  0  0
   -0.1046   -2.7182    4.0497 H   0  0  0  0  0  0  0  0  0  0  0  0
   -0.6790   -3.5249    1.1457 H   0  0  0  0  0  0  0  0  0  0  0  0
   -1.8471   -3.4156    2.4909 H   0  0  0  0  0  0  0  0  0  0  0  0
   -1.8678   -7.5417    2.4802 H   0  0  0  0  0  0  0  0  0  0  0  0
   -3.0911   -6.2350    2.4152 H   0  0  0  0  0  0  0  0  0  0  0  0
   -4.8750   -6.0906    4.1509 H   0  0  0  0  0  0  0  0  0  0  0  0
   -6.2328   -7.2725    5.8644 H   0  0  0  0  0  0  0  0  0  0  0  0
   -5.4395   -9.4408    6.8102 H   0  0  0  0  0  0  0  0  0  0  0  0
   -3.2779  -10.4146    6.0327 H   0  0  0  0  0  0  0  0  0  0  0  0
   -1.9232   -9.2292    4.3191 H   0  0  0  0  0  0  0  0  0  0  0  0
    1.0536   -5.3735    1.2355 H   0  0  0  0  0  0  0  0  0  0  0  0
    1.0251   -6.4689    2.6453 H   0  0  0  0  0  0  0  0  0  0  0  0
    2.9073   -4.7905    2.7885 H   0  0  0  0  0  0  0  0  0  0  0  0
    1.7636   -4.6926    4.1402 H   0  0  0  0  0  0  0  0  0  0  0  0
    6.7643    0.6466    3.1498 H   0  0  0  0  0  0  0  0  0  0  0  0
    7.3430    3.0729    3.2890 H   0  0  0  0  0  0  0  0  0  0  0  0
    6.8840    4.5810    1.3444 H   0  0  0  0  0  0  0  0  0  0  0  0
    5.8439    3.6325   -0.7165 H   0  0  0  0  0  0  0  0  0  0  0  0
    5.2638    1.2471   -0.8529 H   0  0  0  0  0  0  0  0  0  0  0  0
  1  2  1  0
  1 30  1  0
  1 31  1  0
  1 32  1  0
  2  3  1  0
  2 23  1  0
  2 33  1  6
  3  4  1  0
  3 34  1  0
  3 35  1  0
  4  5  1  0
  4 36  1  0
  5  6  2  0
  5  7  1  0
  7  8  1  0
  7 22  1  0
  7 37  1  1
  8  9  1  0
  8 38  1  0
  8 39  1  0
  9 10  1  0
  9 40  1  0
  9 41  1  0
 10 11  1  0
 10 21  1  0
 11 12  2  0
 11 13  2  0
 11 14  1  6
 14 15  1  0
 14 42  1  0
 14 43  1  0
 15 16  2  0
 15 20  1  0
 16 17  1  0
 16 44  1  0
 17 18  2  0
 17 45  1  0
 18 19  1  0
 18 46  1  0
 19 20  2  0
 19 47  1  0
 20 48  1  0
 21 22  1  0
 21 49  1  0
 21 50  1  0
 22 51  1  0
 22 52  1  0
 23 24  1  0
 24 25  2  0
 24 29  1  0
 25 26  1  0
 25 53  1  0
 26 27  2  0
 26 54  1  0
 27 28  1  0
 27 55  1  0
 28 29  2  0
 28 56  1  0
 29 57  1  0
M  END

