
     RDKit          3D

 50 52  0  0  0  0  0  0  0  0999 V2000
    2.8365    2.9204   -1.9699 C   0  0  0  0  0  0  0  0  0  0  0  0
    2.6180    1.5200   -2.0234 O   0  0  0  0  0  0  0  0  0  0  0  0
    3.6029    0.6632   -1.6554 C   0  0  0  0  0  0  0  0  0  0  0  0
    4.8792    1.0502   -1.2350 C   0  0  0  0  0  0  0  0  0  0  0  0
    5.8261    0.0844   -0.8857 C   0  0  0  0  0  0  0  0  0  0  0  0
    5.4721   -1.2586   -0.9630 C   0  0  0  0  0  0  0  0  0  0  0  0
    6.4707   -2.2801   -0.5970 N   0  0  0  0  0  0  0  0  0  0  0  0
    7.5731   -1.8896   -0.2407 O   0  0  0  0  0  0  0  0  0  0  0  0
    6.1379   -3.4515   -0.6714 O   0  0  0  0  0  0  0  0  0  0  0  0
    4.2033   -1.6797   -1.3728 C   0  0  0  0  0  0  0  0  0  0  0  0
    3.2545   -0.7165   -1.7199 C   0  0  0  0  0  0  0  0  0  0  0  0
    1.9511   -1.0042   -2.1361 N   0  0  0  0  0  0  0  0  0  0  0  0
    1.3610   -2.2263   -2.3125 C   0  0  0  0  0  0  0  0  0  0  0  0
    1.8940   -3.3024   -2.1191 O   0  0  0  0  0  0  0  0  0  0  0  0
   -0.1101   -2.1715   -2.7534 C   0  0  1  0  0  0  0  0  0  0  0  0
   -1.0269   -2.6927   -1.6505 C   0  0  0  0  0  0  0  0  0  0  0  0
   -0.4318   -0.8137   -3.1203 O   0  0  0  0  0  0  0  0  0  0  0  0
   -1.4748   -0.6035   -3.9590 C   0  0  0  0  0  0  0  0  0  0  0  0
   -2.1944   -1.4895   -4.3521 O   0  0  0  0  0  0  0  0  0  0  0  0
   -1.6286    0.8357   -4.3222 C   0  0  0  0  0  0  0  0  0  0  0  0
   -2.8211    1.2235   -4.9488 C   0  0  0  0  0  0  0  0  0  0  0  0
   -3.0088    2.5548   -5.3076 C   0  0  0  0  0  0  0  0  0  0  0  0
   -4.4960    3.0439   -6.0710 Cl  0  0  0  0  0  0  0  0  0  0  0  0
   -2.0222    3.5331   -5.0558 C   0  0  0  0  0  0  0  0  0  0  0  0
   -0.8122    3.1210   -4.4480 C   0  0  0  0  0  0  0  0  0  0  0  0
   -0.6272    1.7855   -4.0841 C   0  0  0  0  0  0  0  0  0  0  0  0
    0.1767    4.0088   -4.1199 O   0  0  0  0  0  0  0  0  0  0  0  0
    0.7419    4.8228   -5.1484 C   0  0  0  0  0  0  0  0  0  0  0  0
   -0.1498    5.9903   -5.5460 C   0  0  0  0  0  0  0  0  0  0  0  0
   -1.4466    5.5584   -6.2139 C   0  0  0  0  0  0  0  0  0  0  0  0
   -2.3043    4.8255   -5.3396 O   0  0  0  0  0  0  0  0  0  0  0  0
    1.9217    3.3901   -2.3536 H   0  0  0  0  0  0  0  0  0  0  0  0
    3.6890    3.2155   -2.6057 H   0  0  0  0  0  0  0  0  0  0  0  0
    3.0247    3.2549   -0.9354 H   0  0  0  0  0  0  0  0  0  0  0  0
    5.1451    2.1052   -1.1779 H   0  0  0  0  0  0  0  0  0  0  0  0
    6.8274    0.3588   -0.5569 H   0  0  0  0  0  0  0  0  0  0  0  0
    3.9576   -2.7372   -1.4199 H   0  0  0  0  0  0  0  0  0  0  0  0
    1.3678   -0.1948   -2.3209 H   0  0  0  0  0  0  0  0  0  0  0  0
   -0.2069   -2.8082   -3.6463 H   0  0  0  0  0  0  0  0  0  0  0  0
   -0.9851   -2.0337   -0.7692 H   0  0  0  0  0  0  0  0  0  0  0  0
   -0.6923   -3.6974   -1.3558 H   0  0  0  0  0  0  0  0  0  0  0  0
   -2.0616   -2.7508   -2.0140 H   0  0  0  0  0  0  0  0  0  0  0  0
   -3.5913    0.4800   -5.1537 H   0  0  0  0  0  0  0  0  0  0  0  0
    0.3175    1.5096   -3.6177 H   0  0  0  0  0  0  0  0  0  0  0  0
    0.9801    4.1945   -6.0278 H   0  0  0  0  0  0  0  0  0  0  0  0
    1.6907    5.1922   -4.7321 H   0  0  0  0  0  0  0  0  0  0  0  0
    0.4087    6.6378   -6.2449 H   0  0  0  0  0  0  0  0  0  0  0  0
   -0.3809    6.5939   -4.6525 H   0  0  0  0  0  0  0  0  0  0  0  0
   -1.2403    4.9561   -7.1186 H   0  0  0  0  0  0  0  0  0  0  0  0
   -2.0349    6.4354   -6.5194 H   0  0  0  0  0  0  0  0  0  0  0  0
  1  2  1  0
  1 32  1  0
  1 33  1  0
  1 34  1  0
  2  3  1  0
  3  4  2  0
  3 11  1  0
  4  5  1  0
  4 35  1  0
  5  6  2  0
  5 36  1  0
  6  7  1  0
  6 10  1  0
  7  8  1  0
  7  9  1  0
 10 11  2  0
 10 37  1  0
 11 12  1  0
 12 13  1  0
 12 38  1  0
 13 14  2  0
 13 15  1  0
 15 16  1  0
 15 17  1  0
 15 39  1  6
 16 40  1  0
 16 41  1  0
 16 42  1  0
 17 18  1  0
 18 19  2  0
 18 20  1  0
 20 21  1  0
 20 26  2  0
 21 22  2  0
 21 43  1  0
 22 23  1  0
 22 24  1  0
 24 25  1  0
 24 31  2  0
 25 26  1  0
 25 27  2  0
 26 44  1  0
 27 28  1  0
 28 29  1  0
 28 45  1  0
 28 46  1  0
 29 30  1  0
 29 47  1  0
 29 48  1  0
 30 31  1  0
 30 49  1  0
 30 50  1  0
M  CHG  4   8  -1   9  -1  27   1  31   1
M  END

