
     RDKit          3D

 39 41  0  0  0  0  0  0  0  0999 V2000
    2.9831   -1.9725   -0.6186 C   0  0  0  0  0  0  0  0  0  0  0  0
    3.2568   -0.6782   -0.4259 C   0  0  0  0  0  0  0  0  0  0  0  0
    4.2292    0.0309   -1.2952 C   0  0  0  0  0  0  0  0  0  0  0  0
    4.8427   -0.4476   -2.2181 O   0  0  0  0  0  0  0  0  0  0  0  0
    4.3351    1.3359   -0.9334 O   0  0  0  0  0  0  0  0  0  0  0  0
    5.2730    2.1033   -1.6570 C   0  0  0  0  0  0  0  0  0  0  0  0
    6.7026    1.8181   -1.2016 C   0  0  0  0  0  0  0  0  0  0  0  0
    6.9949    1.0889   -0.2904 O   0  0  0  0  0  0  0  0  0  0  0  0
    7.5493    2.5181   -1.9697 O   0  0  0  0  0  0  0  0  0  0  0  0
    8.9996    2.4751   -1.7963 C   0  0  2  0  0  0  0  0  0  0  0  0
    9.4202    2.9475   -0.3960 C   0  0  0  0  0  0  0  0  0  0  0  0
   10.9601    2.9837   -0.3266 C   0  0  2  0  0  0  0  0  0  0  0  0
   11.5024    3.9964   -1.3478 C   0  0  0  0  0  0  0  0  0  0  0  0
   11.0134    3.7363   -2.7780 C   0  0  2  0  0  0  0  0  0  0  0  0
    9.5041    3.4757   -2.8450 C   0  0  0  0  0  0  0  0  0  0  0  0
   11.7820    2.7253   -3.4553 O   0  0  0  0  0  0  0  0  0  0  0  0
   11.8529    1.4214   -3.0918 C   0  0  0  0  0  0  0  0  0  0  0  0
   12.5489    0.6846   -3.7393 O   0  0  0  0  0  0  0  0  0  0  0  0
   11.0524    0.9329   -1.8828 C   0  0  1  0  0  0  0  0  0  0  0  0
   11.5148    1.5669   -0.5518 C   0  0  0  0  0  0  0  0  0  0  0  0
    9.5211    1.0546   -2.0612 C   0  0  0  0  0  0  0  0  0  0  0  0
    2.2714   -2.5075    0.0151 H   0  0  0  0  0  0  0  0  0  0  0  0
    3.4764   -2.5244   -1.4239 H   0  0  0  0  0  0  0  0  0  0  0  0
    2.7894   -0.0916    0.3689 H   0  0  0  0  0  0  0  0  0  0  0  0
    5.0398    3.1606   -1.4636 H   0  0  0  0  0  0  0  0  0  0  0  0
    5.2051    1.9140   -2.7389 H   0  0  0  0  0  0  0  0  0  0  0  0
    9.0151    2.2676    0.3655 H   0  0  0  0  0  0  0  0  0  0  0  0
    8.9994    3.9498   -0.2074 H   0  0  0  0  0  0  0  0  0  0  0  0
   11.2595    3.3145    0.6816 H   0  0  0  0  0  0  0  0  0  0  0  0
   12.6044    4.0153   -1.3474 H   0  0  0  0  0  0  0  0  0  0  0  0
   11.1684    5.0083   -1.0607 H   0  0  0  0  0  0  0  0  0  0  0  0
   11.2276    4.6261   -3.3869 H   0  0  0  0  0  0  0  0  0  0  0  0
    9.2323    3.1369   -3.8569 H   0  0  0  0  0  0  0  0  0  0  0  0
    8.9811    4.4309   -2.6748 H   0  0  0  0  0  0  0  0  0  0  0  0
   11.2967   -0.1373   -1.8562 H   0  0  0  0  0  0  0  0  0  0  0  0
   12.6163    1.5689   -0.5008 H   0  0  0  0  0  0  0  0  0  0  0  0
   11.1647    0.9180    0.2684 H   0  0  0  0  0  0  0  0  0  0  0  0
    9.0397    0.3722   -1.3471 H   0  0  0  0  0  0  0  0  0  0  0  0
    9.2225    0.7322   -3.0719 H   0  0  0  0  0  0  0  0  0  0  0  0
  1  2  2  0
  1 22  1  0
  1 23  1  0
  2  3  1  0
  2 24  1  0
  3  4  2  0
  3  5  1  0
  5  6  1  0
  6  7  1  0
  6 25  1  0
  6 26  1  0
  7  8  2  0
  7  9  1  0
 10  9  1  1
 10 11  1  0
 10 15  1  0
 10 21  1  0
 11 12  1  0
 11 27  1  0
 11 28  1  0
 12 13  1  0
 12 20  1  0
 12 29  1  1
 13 14  1  0
 13 30  1  0
 13 31  1  0
 14 15  1  0
 14 16  1  0
 14 32  1  6
 15 33  1  0
 15 34  1  0
 16 17  1  0
 17 18  2  0
 17 19  1  0
 19 20  1  0
 19 21  1  0
 19 35  1  1
 20 36  1  0
 20 37  1  0
 21 38  1  0
 21 39  1  0
M  END

