
     RDKit          3D

 56 58  0  0  0  0  0  0  0  0999 V2000
    8.4019   12.8552   -2.0696 C   0  0  0  0  0  0  0  0  0  0  0  0
    9.1140   12.9380   -0.7188 C   0  0  0  0  0  0  0  0  0  0  0  0
    8.1575   13.0254    0.4752 C   0  0  0  0  0  0  0  0  0  0  0  0
    8.8758   13.1016    1.8272 C   0  0  0  0  0  0  0  0  0  0  0  0
    7.9582   13.2741    3.0471 C   0  0  0  0  0  0  0  0  0  0  0  0
    7.0474   12.0842    3.3437 C   0  0  1  0  0  0  0  0  0  0  0  0
    7.8740   10.9840    3.6386 O   0  0  0  0  0  0  0  0  0  0  0  0
    7.4337    9.6954    3.5315 C   0  0  0  0  0  0  0  0  0  0  0  0
    6.1399    9.3300    3.2026 C   0  0  0  0  0  0  0  0  0  0  0  0
    5.7981    7.9594    3.0872 C   0  0  0  0  0  0  0  0  0  0  0  0
    6.7307    6.9701    3.3031 C   0  0  0  0  0  0  0  0  0  0  0  0
    8.0636    7.3204    3.6566 C   0  0  0  0  0  0  0  0  0  0  0  0
    9.0626    6.3293    3.8970 C   0  0  0  0  0  0  0  0  0  0  0  0
   10.3622    6.6807    4.2631 C   0  0  0  0  0  0  0  0  0  0  0  0
   10.6968    8.0555    4.3806 C   0  0  0  0  0  0  0  0  0  0  0  0
    9.7673    9.0435    4.1426 C   0  0  0  0  0  0  0  0  0  0  0  0
    8.4353    8.6993    3.7804 C   0  0  0  0  0  0  0  0  0  0  0  0
   11.2907    5.5964    4.5668 C   0  0  0  0  0  0  0  0  0  0  0  0
   10.9634    4.3230    4.2945 C   0  0  0  0  0  0  0  0  0  0  0  0
    9.6629    3.9869    3.5917 C   0  0  2  0  0  0  0  0  0  0  0  0
    9.0287    2.7185    4.1638 C   0  0  0  0  0  0  0  0  0  0  0  0
    9.8860    3.8636    2.0754 C   0  0  0  0  0  0  0  0  0  0  0  0
    8.6774    5.0314    3.8202 O   0  0  0  0  0  0  0  0  0  0  0  0
    5.9150   12.4190    4.7841 S   0  0  0  0  0  0  0  0  0  0  0  0
    4.4742   13.1243    3.8904 C   0  0  0  0  0  0  0  0  0  0  0  0
    3.3838   13.5149    4.8839 C   0  0  0  0  0  0  0  0  0  0  0  0
    9.1201   12.7947   -2.9029 H   0  0  0  0  0  0  0  0  0  0  0  0
    7.7656   13.7395   -2.2431 H   0  0  0  0  0  0  0  0  0  0  0  0
    7.7517   11.9660   -2.1265 H   0  0  0  0  0  0  0  0  0  0  0  0
    9.7866   13.8151   -0.7085 H   0  0  0  0  0  0  0  0  0  0  0  0
    9.7691   12.0572   -0.5918 H   0  0  0  0  0  0  0  0  0  0  0  0
    7.4834   12.1496    0.4521 H   0  0  0  0  0  0  0  0  0  0  0  0
    7.5055   13.9117    0.3549 H   0  0  0  0  0  0  0  0  0  0  0  0
    9.5788   13.9533    1.8090 H   0  0  0  0  0  0  0  0  0  0  0  0
    9.4946   12.1993    1.9680 H   0  0  0  0  0  0  0  0  0  0  0  0
    7.3181   14.1628    2.9160 H   0  0  0  0  0  0  0  0  0  0  0  0
    8.5631   13.4578    3.9498 H   0  0  0  0  0  0  0  0  0  0  0  0
    6.3995   11.8580    2.4791 H   0  0  0  0  0  0  0  0  0  0  0  0
    5.3693   10.0842    3.0533 H   0  0  0  0  0  0  0  0  0  0  0  0
    4.7706    7.6952    2.8245 H   0  0  0  0  0  0  0  0  0  0  0  0
    6.4700    5.9158    3.2138 H   0  0  0  0  0  0  0  0  0  0  0  0
   11.7166    8.3208    4.6739 H   0  0  0  0  0  0  0  0  0  0  0  0
   10.0323   10.0955    4.2407 H   0  0  0  0  0  0  0  0  0  0  0  0
   12.2465    5.8442    5.0375 H   0  0  0  0  0  0  0  0  0  0  0  0
   11.6381    3.4947    4.5278 H   0  0  0  0  0  0  0  0  0  0  0  0
    9.6867    1.8514    3.9987 H   0  0  0  0  0  0  0  0  0  0  0  0
    8.0625    2.5223    3.6748 H   0  0  0  0  0  0  0  0  0  0  0  0
    8.8571    2.8302    5.2445 H   0  0  0  0  0  0  0  0  0  0  0  0
   10.6154    3.0679    1.8562 H   0  0  0  0  0  0  0  0  0  0  0  0
   10.2775    4.8073    1.6666 H   0  0  0  0  0  0  0  0  0  0  0  0
    8.9389    3.6242    1.5662 H   0  0  0  0  0  0  0  0  0  0  0  0
    4.0938   12.3763    3.1740 H   0  0  0  0  0  0  0  0  0  0  0  0
    4.7993   14.0050    3.3129 H   0  0  0  0  0  0  0  0  0  0  0  0
    3.0396   12.6430    5.4621 H   0  0  0  0  0  0  0  0  0  0  0  0
    2.5154   13.9355    4.3521 H   0  0  0  0  0  0  0  0  0  0  0  0
    3.7461   14.2726    5.5963 H   0  0  0  0  0  0  0  0  0  0  0  0
  1  2  1  0
  1 27  1  0
  1 28  1  0
  1 29  1  0
  2  3  1  0
  2 30  1  0
  2 31  1  0
  3  4  1  0
  3 32  1  0
  3 33  1  0
  4  5  1  0
  4 34  1  0
  4 35  1  0
  5  6  1  0
  5 36  1  0
  5 37  1  0
  6  7  1  0
  6 24  1  0
  6 38  1  6
  7  8  1  0
  8  9  2  0
  8 17  1  0
  9 10  1  0
  9 39  1  0
 10 11  2  0
 10 40  1  0
 11 12  1  0
 11 41  1  0
 12 13  1  0
 12 17  2  0
 13 14  2  0
 13 23  1  0
 14 15  1  0
 14 18  1  0
 15 16  2  0
 15 42  1  0
 16 17  1  0
 16 43  1  0
 18 19  2  0
 18 44  1  0
 19 20  1  0
 19 45  1  0
 20 21  1  1
 20 22  1  0
 20 23  1  0
 21 46  1  0
 21 47  1  0
 21 48  1  0
 22 49  1  0
 22 50  1  0
 22 51  1  0
 24 25  1  0
 25 26  1  0
 25 52  1  0
 25 53  1  0
 26 54  1  0
 26 55  1  0
 26 56  1  0
M  END

