
     RDKit          3D

 28 29  0  0  0  0  0  0  0  0999 V2000
    0.8045   -0.0143    0.2261 O   0  0  0  0  0  0  0  0  0  0  0  0
    2.0102   -0.0951    0.1555 C   0  0  0  0  0  0  0  0  0  0  0  0
    2.6978   -1.3013    0.1261 N   0  0  0  0  0  0  0  0  0  0  0  0
    2.0403   -2.4735    0.1219 N   0  0  0  0  0  0  0  0  0  0  0  0
    2.7229   -3.5577    0.1694 C   0  0  0  0  0  0  0  0  0  0  0  0
    2.0854   -4.8768    0.1611 C   0  0  0  0  0  0  0  0  0  0  0  0
    0.6841   -5.0160    0.1055 C   0  0  0  0  0  0  0  0  0  0  0  0
    0.0953   -6.2767    0.0988 C   0  0  0  0  0  0  0  0  0  0  0  0
    0.9070   -7.4184    0.1477 C   0  0  0  0  0  0  0  0  0  0  0  0
    0.1015   -9.1447    0.1383 Br  0  0  0  0  0  0  0  0  0  0  0  0
    2.2983   -7.3062    0.2034 C   0  0  0  0  0  0  0  0  0  0  0  0
    2.8783   -6.0364    0.2098 C   0  0  0  0  0  0  0  0  0  0  0  0
    2.8979    1.1250    0.1140 C   0  0  0  0  0  0  0  0  0  0  0  0
    2.3857    2.3194    0.6369 C   0  0  0  0  0  0  0  0  0  0  0  0
    3.1802    3.4669    0.5981 C   0  0  0  0  0  0  0  0  0  0  0  0
    4.4088    3.4968    0.0720 N   0  0  0  0  0  0  0  0  0  0  0  0
    4.8879    2.3649   -0.4455 C   0  0  0  0  0  0  0  0  0  0  0  0
    4.1810    1.1574   -0.4505 C   0  0  0  0  0  0  0  0  0  0  0  0
    3.7166   -1.2957    0.2031 H   0  0  0  0  0  0  0  0  0  0  0  0
    3.8293   -3.5391    0.2171 H   0  0  0  0  0  0  0  0  0  0  0  0
    0.0673   -4.1159    0.0685 H   0  0  0  0  0  0  0  0  0  0  0  0
   -0.9903   -6.3795    0.0559 H   0  0  0  0  0  0  0  0  0  0  0  0
    2.9213   -8.2011    0.2415 H   0  0  0  0  0  0  0  0  0  0  0  0
    3.9676   -5.9475    0.2536 H   0  0  0  0  0  0  0  0  0  0  0  0
    1.3796    2.3336    1.0594 H   0  0  0  0  0  0  0  0  0  0  0  0
    2.8027    4.4093    1.0117 H   0  0  0  0  0  0  0  0  0  0  0  0
    5.8895    2.4128   -0.8893 H   0  0  0  0  0  0  0  0  0  0  0  0
    4.6278    0.2786   -0.9218 H   0  0  0  0  0  0  0  0  0  0  0  0
  1  2  2  0
  2  3  1  0
  2 13  1  0
  3  4  1  0
  3 19  1  0
  4  5  2  0
  5  6  1  0
  5 20  1  0
  6  7  2  0
  6 12  1  0
  7  8  1  0
  7 21  1  0
  8  9  2  0
  8 22  1  0
  9 10  1  0
  9 11  1  0
 11 12  2  0
 11 23  1  0
 12 24  1  0
 13 14  2  0
 13 18  1  0
 14 15  1  0
 14 25  1  0
 15 16  2  0
 15 26  1  0
 16 17  1  0
 17 18  2  0
 17 27  1  0
 18 28  1  0
M  END

