
     RDKit          3D

 41 42  0  0  0  0  0  0  0  0999 V2000
    1.4127   -0.3484    2.8666 C   0  0  0  0  0  0  0  0  0  0  0  0
    2.0137    0.1097    1.5344 C   0  0  0  0  0  0  0  0  0  0  0  0
    3.1031    1.0684    1.6627 N   0  0  0  0  0  0  0  0  0  0  0  0
    2.7663    2.4792    1.7662 C   0  0  0  0  0  0  0  0  0  0  0  0
    4.3942    0.6686    1.8146 C   0  0  0  0  0  0  0  0  0  0  0  0
    5.4008    1.4868    1.9926 N   0  0  0  0  0  0  0  0  0  0  0  0
    6.5901    0.8151    2.0840 C   0  0  0  0  0  0  0  0  0  0  0  0
    7.7346    1.5062    2.2627 N   0  0  0  0  0  0  0  0  0  0  0  0
    6.5255   -0.5803    1.9844 C   0  0  0  0  0  0  0  0  0  0  0  0
    7.6760   -1.4629    2.0642 C   0  0  0  0  0  0  0  0  0  0  0  0
    8.8216   -1.0149    2.2339 O   0  0  0  0  0  0  0  0  0  0  0  0
    7.4644   -2.8147    1.9450 N   0  0  0  0  0  0  0  0  0  0  0  0
    8.5507   -3.7765    2.0249 C   0  0  0  0  0  0  0  0  0  0  0  0
    8.9606   -4.1519    3.4575 C   0  0  0  0  0  0  0  0  0  0  0  0
    7.8516   -4.7506    4.3337 C   0  0  0  0  0  0  0  0  0  0  0  0
    7.2850   -6.0678    3.8347 C   0  0  1  0  0  0  0  0  0  0  0  0
    5.9971   -6.6100    4.3988 C   0  0  0  0  0  0  0  0  0  0  0  0
    6.0444   -6.1215    2.9723 C   0  0  0  0  0  0  0  0  0  0  0  0
    4.8292   -1.0483    1.7650 S   0  0  0  0  0  0  0  0  0  0  0  0
    0.5875   -1.0566    2.6895 H   0  0  0  0  0  0  0  0  0  0  0  0
    1.0098    0.5016    3.4397 H   0  0  0  0  0  0  0  0  0  0  0  0
    2.1697   -0.8536    3.4855 H   0  0  0  0  0  0  0  0  0  0  0  0
    1.2357    0.5795    0.9096 H   0  0  0  0  0  0  0  0  0  0  0  0
    2.3795   -0.7594    0.9619 H   0  0  0  0  0  0  0  0  0  0  0  0
    2.1699    2.7934    0.8926 H   0  0  0  0  0  0  0  0  0  0  0  0
    3.6933    3.0621    1.8019 H   0  0  0  0  0  0  0  0  0  0  0  0
    2.1808    2.6908    2.6791 H   0  0  0  0  0  0  0  0  0  0  0  0
    7.7051    2.5134    2.3167 H   0  0  0  0  0  0  0  0  0  0  0  0
    8.5913    0.9585    2.3229 H   0  0  0  0  0  0  0  0  0  0  0  0
    6.5248   -3.1579    1.7962 H   0  0  0  0  0  0  0  0  0  0  0  0
    9.4231   -3.3425    1.5130 H   0  0  0  0  0  0  0  0  0  0  0  0
    8.2464   -4.6737    1.4630 H   0  0  0  0  0  0  0  0  0  0  0  0
    9.3589   -3.2464    3.9434 H   0  0  0  0  0  0  0  0  0  0  0  0
    9.8021   -4.8659    3.3917 H   0  0  0  0  0  0  0  0  0  0  0  0
    7.0312   -4.0186    4.4408 H   0  0  0  0  0  0  0  0  0  0  0  0
    8.2554   -4.8994    5.3512 H   0  0  0  0  0  0  0  0  0  0  0  0
    8.0484   -6.8214    3.6032 H   0  0  0  0  0  0  0  0  0  0  0  0
    5.4657   -5.9942    5.1316 H   0  0  0  0  0  0  0  0  0  0  0  0
    5.9145   -7.6859    4.5780 H   0  0  0  0  0  0  0  0  0  0  0  0
    5.5343   -5.1788    2.7480 H   0  0  0  0  0  0  0  0  0  0  0  0
    5.9930   -6.8579    2.1648 H   0  0  0  0  0  0  0  0  0  0  0  0
  1  2  1  0
  1 20  1  0
  1 21  1  0
  1 22  1  0
  2  3  1  0
  2 23  1  0
  2 24  1  0
  3  4  1  0
  3  5  1  0
  4 25  1  0
  4 26  1  0
  4 27  1  0
  5  6  2  0
  5 19  1  0
  6  7  1  0
  7  8  1  0
  7  9  2  0
  8 28  1  0
  8 29  1  0
  9 10  1  0
  9 19  1  0
 10 11  2  0
 10 12  1  0
 12 13  1  0
 12 30  1  0
 13 14  1  0
 13 31  1  0
 13 32  1  0
 14 15  1  0
 14 33  1  0
 14 34  1  0
 15 16  1  0
 15 35  1  0
 15 36  1  0
 16 17  1  0
 16 18  1  0
 16 37  1  6
 17 18  1  0
 17 38  1  0
 17 39  1  0
 18 40  1  0
 18 41  1  0
M  END

