
     RDKit          3D

 56 58  0  0  0  0  0  0  0  0999 V2000
   14.9214    3.7742   -5.0415 C   0  0  0  0  0  0  0  0  0  0  0  0
   14.1281    3.7422   -3.8827 O   0  0  0  0  0  0  0  0  0  0  0  0
   14.8299    4.1236   -2.7220 C   0  0  0  0  0  0  0  0  0  0  0  0
   13.9500    4.0501   -1.5556 C   0  0  0  0  0  0  0  0  0  0  0  0
   13.2220    3.9863   -0.5883 C   0  0  0  0  0  0  0  0  0  0  0  0
   12.2958    3.8444    0.5334 C   0  0  0  0  0  0  0  0  0  0  0  0
   11.5864    2.4725    0.4969 C   0  0  1  0  0  0  0  0  0  0  0  0
   10.9969    2.0981   -0.7780 N   0  0  0  0  0  0  0  0  0  0  0  0
   12.5209    1.3375    0.9954 C   0  0  0  0  0  0  0  0  0  0  0  0
   13.2820    1.4902    1.9185 O   0  0  0  0  0  0  0  0  0  0  0  0
   12.3767    0.2134    0.3165 O   0  0  0  0  0  0  0  0  0  0  0  0
   10.0970    2.4917    1.6818 S   0  0  1  0  0  0  0  0  0  0  0  0
    9.0851    3.2948    0.9636 O   0  0  0  0  0  0  0  0  0  0  0  0
    9.8297    1.0963    2.0491 O   0  0  0  0  0  0  0  0  0  0  0  0
   10.5809    3.3965    3.1484 C   0  0  0  0  0  0  0  0  0  0  0  0
   10.1453    4.7159    3.3071 C   0  0  0  0  0  0  0  0  0  0  0  0
   10.4764    5.4033    4.4731 C   0  0  0  0  0  0  0  0  0  0  0  0
   11.2331    4.7912    5.4931 C   0  0  0  0  0  0  0  0  0  0  0  0
   11.5858    5.5297    6.7311 C   0  0  0  0  0  0  0  0  0  0  0  0
   10.7057    6.4737    7.2966 C   0  0  0  0  0  0  0  0  0  0  0  0
   11.0317    7.1625    8.4612 C   0  0  0  0  0  0  0  0  0  0  0  0
   12.2614    6.9306    9.0925 C   0  0  0  0  0  0  0  0  0  0  0  0
   12.5344    7.6858   10.1988 O   0  0  0  0  0  0  0  0  0  0  0  0
   13.4250    7.2704   11.1659 C   0  0  0  0  0  0  0  0  0  0  0  0
   14.4040    8.1800   11.5767 C   0  0  0  0  0  0  0  0  0  0  0  0
   15.2779    7.8314   12.6100 C   0  0  0  0  0  0  0  0  0  0  0  0
   15.1809    6.5799   13.2261 C   0  0  0  0  0  0  0  0  0  0  0  0
   14.1964    5.6779   12.8081 C   0  0  0  0  0  0  0  0  0  0  0  0
   13.3116    6.0177   11.7818 C   0  0  0  0  0  0  0  0  0  0  0  0
   13.1594    6.0040    8.5450 C   0  0  0  0  0  0  0  0  0  0  0  0
   12.8146    5.3146    7.3828 C   0  0  0  0  0  0  0  0  0  0  0  0
   11.6415    3.4542    5.3048 C   0  0  0  0  0  0  0  0  0  0  0  0
   11.3184    2.7505    4.1472 C   0  0  0  0  0  0  0  0  0  0  0  0
   14.2897    3.4608   -5.8847 H   0  0  0  0  0  0  0  0  0  0  0  0
   15.7872    3.0846   -4.9723 H   0  0  0  0  0  0  0  0  0  0  0  0
   15.3116    4.7912   -5.2506 H   0  0  0  0  0  0  0  0  0  0  0  0
   15.2255    5.1581   -2.8194 H   0  0  0  0  0  0  0  0  0  0  0  0
   15.7121    3.4671   -2.5598 H   0  0  0  0  0  0  0  0  0  0  0  0
   11.5347    4.6420    0.4921 H   0  0  0  0  0  0  0  0  0  0  0  0
   12.8375    3.9356    1.4870 H   0  0  0  0  0  0  0  0  0  0  0  0
   11.5629    2.4757   -1.5432 H   0  0  0  0  0  0  0  0  0  0  0  0
   10.0530    2.4859   -0.8647 H   0  0  0  0  0  0  0  0  0  0  0  0
   11.6787    0.4118   -0.3584 H   0  0  0  0  0  0  0  0  0  0  0  0
    9.5484    5.1871    2.5244 H   0  0  0  0  0  0  0  0  0  0  0  0
   10.1567    6.4413    4.5849 H   0  0  0  0  0  0  0  0  0  0  0  0
    9.7316    6.6513    6.8356 H   0  0  0  0  0  0  0  0  0  0  0  0
   10.3426    7.8834    8.9051 H   0  0  0  0  0  0  0  0  0  0  0  0
   14.4612    9.1518   11.0825 H   0  0  0  0  0  0  0  0  0  0  0  0
   16.0416    8.5437   12.9324 H   0  0  0  0  0  0  0  0  0  0  0  0
   15.8671    6.3089   14.0317 H   0  0  0  0  0  0  0  0  0  0  0  0
   14.1079    4.7014   13.2910 H   0  0  0  0  0  0  0  0  0  0  0  0
   12.5329    5.3224   11.4617 H   0  0  0  0  0  0  0  0  0  0  0  0
   14.1280    5.8325    9.0166 H   0  0  0  0  0  0  0  0  0  0  0  0
   13.5377    4.6157    6.9562 H   0  0  0  0  0  0  0  0  0  0  0  0
   12.1980    2.9437    6.0930 H   0  0  0  0  0  0  0  0  0  0  0  0
   11.6310    1.7141    4.0195 H   0  0  0  0  0  0  0  0  0  0  0  0
  1  2  1  0
  1 34  1  0
  1 35  1  0
  1 36  1  0
  2  3  1  0
  3  4  1  0
  3 37  1  0
  3 38  1  0
  4  5  3  0
  5  6  1  0
  6  7  1  0
  6 39  1  0
  6 40  1  0
  7  8  1  0
  7  9  1  1
  7 12  1  0
  8 41  1  0
  8 42  1  0
  9 10  2  0
  9 11  1  0
 11 43  1  0
 12 13  2  0
 12 14  2  0
 12 15  1  1
 15 16  2  0
 15 33  1  0
 16 17  1  0
 16 44  1  0
 17 18  2  0
 17 45  1  0
 18 19  1  0
 18 32  1  0
 19 20  2  0
 19 31  1  0
 20 21  1  0
 20 46  1  0
 21 22  2  0
 21 47  1  0
 22 23  1  0
 22 30  1  0
 23 24  1  0
 24 25  2  0
 24 29  1  0
 25 26  1  0
 25 48  1  0
 26 27  2  0
 26 49  1  0
 27 28  1  0
 27 50  1  0
 28 29  2  0
 28 51  1  0
 29 52  1  0
 30 31  2  0
 30 53  1  0
 31 54  1  0
 32 33  2  0
 32 55  1  0
 33 56  1  0
M  END

