
     RDKit          3D

 44 46  0  0  0  0  0  0  0  0999 V2000
    4.7036   -3.2564    0.3401 C   0  0  0  0  0  0  0  0  0  0  0  0
    6.1009   -2.6973    0.0682 C   0  0  0  0  0  0  0  0  0  0  0  0
    6.1850   -1.8857   -1.2283 C   0  0  0  0  0  0  0  0  0  0  0  0
    7.5844   -1.3373   -1.4848 C   0  0  0  0  0  0  0  0  0  0  0  0
    7.6734   -0.6648   -2.7481 O   0  0  0  0  0  0  0  0  0  0  0  0
    7.3323    0.6344   -2.7769 C   0  0  0  0  0  0  0  0  0  0  0  0
    6.9668    1.2553   -1.8056 O   0  0  0  0  0  0  0  0  0  0  0  0
    7.4680    1.2074   -4.1582 C   0  0  0  0  0  0  0  0  0  0  0  0
    7.8434    0.3577   -5.1500 N   0  0  0  0  0  0  0  0  0  0  0  0
    7.9851    0.7568   -6.3627 C   0  0  0  0  0  0  0  0  0  0  0  0
    8.5280   -0.5705   -7.6606 Br  0  0  0  0  0  0  0  0  0  0  0  0
    7.7654    2.1070   -6.7926 C   0  0  0  0  0  0  0  0  0  0  0  0
    7.9152    2.5772   -8.1214 C   0  0  0  0  0  0  0  0  0  0  0  0
    7.6779    3.8955   -8.4482 C   0  0  0  0  0  0  0  0  0  0  0  0
    7.2688    4.8072   -7.4423 C   0  0  0  0  0  0  0  0  0  0  0  0
    7.0709    6.1343   -7.6866 O   0  0  0  0  0  0  0  0  0  0  0  0
    6.6659    6.5968   -8.9241 C   0  0  0  0  0  0  0  0  0  0  0  0
    5.5529    6.0588   -9.5809 C   0  0  0  0  0  0  0  0  0  0  0  0
    5.1466    6.6115  -10.7982 C   0  0  0  0  0  0  0  0  0  0  0  0
    5.8351    7.6965  -11.3509 C   0  0  0  0  0  0  0  0  0  0  0  0
    6.9388    8.2310  -10.6786 C   0  0  0  0  0  0  0  0  0  0  0  0
    7.3608    7.6819   -9.4650 C   0  0  0  0  0  0  0  0  0  0  0  0
    7.1173    4.3791   -6.1339 C   0  0  0  0  0  0  0  0  0  0  0  0
    7.3666    3.0314   -5.7763 C   0  0  0  0  0  0  0  0  0  0  0  0
    7.2217    2.5578   -4.4222 C   0  0  0  0  0  0  0  0  0  0  0  0
    6.8596    3.3937   -3.4385 O   0  0  0  0  0  0  0  0  0  0  0  0
    4.6744   -3.8315    1.2793 H   0  0  0  0  0  0  0  0  0  0  0  0
    4.3755   -3.9267   -0.4720 H   0  0  0  0  0  0  0  0  0  0  0  0
    3.9585   -2.4475    0.4207 H   0  0  0  0  0  0  0  0  0  0  0  0
    6.8285   -3.5287    0.0289 H   0  0  0  0  0  0  0  0  0  0  0  0
    6.4142   -2.0626    0.9169 H   0  0  0  0  0  0  0  0  0  0  0  0
    5.4761   -1.0418   -1.1855 H   0  0  0  0  0  0  0  0  0  0  0  0
    5.8873   -2.5128   -2.0871 H   0  0  0  0  0  0  0  0  0  0  0  0
    8.3196   -2.1537   -1.5476 H   0  0  0  0  0  0  0  0  0  0  0  0
    7.8824   -0.6456   -0.6817 H   0  0  0  0  0  0  0  0  0  0  0  0
    8.2333    1.8729   -8.8909 H   0  0  0  0  0  0  0  0  0  0  0  0
    7.8092    4.2424   -9.4739 H   0  0  0  0  0  0  0  0  0  0  0  0
    5.0088    5.2218   -9.1381 H   0  0  0  0  0  0  0  0  0  0  0  0
    4.2776    6.1942  -11.3131 H   0  0  0  0  0  0  0  0  0  0  0  0
    5.5096    8.1262  -12.3010 H   0  0  0  0  0  0  0  0  0  0  0  0
    7.4801    9.0807  -11.1019 H   0  0  0  0  0  0  0  0  0  0  0  0
    8.2194    8.0830   -8.9231 H   0  0  0  0  0  0  0  0  0  0  0  0
    6.7993    5.1321   -5.4088 H   0  0  0  0  0  0  0  0  0  0  0  0
    6.7659    4.2915   -3.7819 H   0  0  0  0  0  0  0  0  0  0  0  0
  1  2  1  0
  1 27  1  0
  1 28  1  0
  1 29  1  0
  2  3  1  0
  2 30  1  0
  2 31  1  0
  3  4  1  0
  3 32  1  0
  3 33  1  0
  4  5  1  0
  4 34  1  0
  4 35  1  0
  5  6  1  0
  6  7  2  0
  6  8  1  0
  8  9  2  0
  8 25  1  0
  9 10  1  0
 10 11  1  0
 10 12  2  0
 12 13  1  0
 12 24  1  0
 13 14  2  0
 13 36  1  0
 14 15  1  0
 14 37  1  0
 15 16  1  0
 15 23  2  0
 16 17  1  0
 17 18  2  0
 17 22  1  0
 18 19  1  0
 18 38  1  0
 19 20  2  0
 19 39  1  0
 20 21  1  0
 20 40  1  0
 21 22  2  0
 21 41  1  0
 22 42  1  0
 23 24  1  0
 23 43  1  0
 24 25  2  0
 25 26  1  0
 26 44  1  0
M  END

