
     RDKit          3D

 42 43  0  0  0  0  0  0  0  0999 V2000
    0.4448   -1.4075    3.3222 O   0  0  0  0  0  0  0  0  0  0  0  0
    1.1692   -1.7226    4.2282 C   0  0  0  0  0  0  0  0  0  0  0  0
    0.7361   -1.5994    5.5063 O   0  0  0  0  0  0  0  0  0  0  0  0
    2.5986   -2.2552    4.0690 C   0  0  1  0  0  0  0  0  0  0  0  0
    2.8075   -3.6257    4.7559 C   0  0  0  0  0  0  0  0  0  0  0  0
    2.1195   -4.7719    4.0010 C   0  0  0  0  0  0  0  0  0  0  0  0
    2.4960   -4.8431    2.5064 C   0  0  2  0  0  0  0  0  0  0  0  0
    3.9153   -5.3748    2.2839 C   0  0  0  0  0  0  0  0  0  0  0  0
    4.8470   -5.1219    3.0310 O   0  0  0  0  0  0  0  0  0  0  0  0
    4.0402   -6.1362    1.1389 N   0  0  0  0  0  0  0  0  0  0  0  0
    5.1848   -6.6970    0.5581 C   0  0  0  0  0  0  0  0  0  0  0  0
    6.4749   -6.4912    1.0786 C   0  0  0  0  0  0  0  0  0  0  0  0
    7.5773   -7.0503    0.4359 C   0  0  0  0  0  0  0  0  0  0  0  0
    7.4347   -7.8148   -0.7219 C   0  0  0  0  0  0  0  0  0  0  0  0
    6.1546   -8.0320   -1.2348 C   0  0  0  0  0  0  0  0  0  0  0  0
    6.0133   -8.9971   -2.6842 Cl  0  0  0  0  0  0  0  0  0  0  0  0
    5.0132   -7.4988   -0.6068 C   0  0  0  0  0  0  0  0  0  0  0  0
    3.3769   -7.7300   -1.3014 S   0  0  0  0  0  0  0  0  0  0  0  0
    2.7006   -9.1256   -0.3167 C   0  0  0  0  0  0  0  0  0  0  0  0
    3.3320  -10.4769   -0.5977 C   0  0  1  0  0  0  0  0  0  0  0  0
    4.5762  -10.5375   -0.0586 F   0  0  0  0  0  0  0  0  0  0  0  0
    2.5778  -11.4399    0.0037 F   0  0  0  0  0  0  0  0  0  0  0  0
    2.3195   -3.4574    1.8322 C   0  0  0  0  0  0  0  0  0  0  0  0
    3.0213   -2.3243    2.5924 C   0  0  0  0  0  0  0  0  0  0  0  0
    1.4267   -1.8763    6.1251 H   0  0  0  0  0  0  0  0  0  0  0  0
    3.2423   -1.5176    4.5849 H   0  0  0  0  0  0  0  0  0  0  0  0
    2.4470   -3.6108    5.7999 H   0  0  0  0  0  0  0  0  0  0  0  0
    3.8865   -3.8261    4.7997 H   0  0  0  0  0  0  0  0  0  0  0  0
    1.0237   -4.6483    4.0620 H   0  0  0  0  0  0  0  0  0  0  0  0
    2.3523   -5.7292    4.4946 H   0  0  0  0  0  0  0  0  0  0  0  0
    1.7990   -5.5434    2.0150 H   0  0  0  0  0  0  0  0  0  0  0  0
    3.1996   -6.2769    0.5807 H   0  0  0  0  0  0  0  0  0  0  0  0
    6.5863   -5.8939    1.9796 H   0  0  0  0  0  0  0  0  0  0  0  0
    8.5756   -6.8818    0.8474 H   0  0  0  0  0  0  0  0  0  0  0  0
    8.2978   -8.2480   -1.2279 H   0  0  0  0  0  0  0  0  0  0  0  0
    1.6371   -9.1716   -0.5963 H   0  0  0  0  0  0  0  0  0  0  0  0
    2.7689   -8.9214    0.7629 H   0  0  0  0  0  0  0  0  0  0  0  0
    3.4055  -10.7053   -1.6745 H   0  0  0  0  0  0  0  0  0  0  0  0
    1.2430   -3.2343    1.7802 H   0  0  0  0  0  0  0  0  0  0  0  0
    2.6856   -3.4947    0.7927 H   0  0  0  0  0  0  0  0  0  0  0  0
    2.7990   -1.3662    2.0991 H   0  0  0  0  0  0  0  0  0  0  0  0
    4.1132   -2.4675    2.5567 H   0  0  0  0  0  0  0  0  0  0  0  0
  1  2  2  0
  2  3  1  0
  2  4  1  0
  3 25  1  0
  4  5  1  0
  4 24  1  0
  4 26  1  1
  5  6  1  0
  5 27  1  0
  5 28  1  0
  6  7  1  0
  6 29  1  0
  6 30  1  0
  7  8  1  0
  7 23  1  0
  7 31  1  6
  8  9  2  0
  8 10  1  0
 10 11  1  0
 10 32  1  0
 11 12  2  0
 11 17  1  0
 12 13  1  0
 12 33  1  0
 13 14  2  0
 13 34  1  0
 14 15  1  0
 14 35  1  0
 15 16  1  0
 15 17  2  0
 17 18  1  0
 18 19  1  0
 19 20  1  0
 19 36  1  0
 19 37  1  0
 20 21  1  0
 20 22  1  0
 20 38  1  6
 23 24  1  0
 23 39  1  0
 23 40  1  0
 24 41  1  0
 24 42  1  0
M  END

