
     RDKit          3D

 49 51  0  0  0  0  0  0  0  0999 V2000
    4.8554    0.3783   -2.3960 C   0  0  0  0  0  0  0  0  0  0  0  0
    3.7083    0.6261   -1.4310 C   0  0  0  0  0  0  0  0  0  0  0  0
    3.9988    1.7020   -0.5159 O   0  0  0  0  0  0  0  0  0  0  0  0
    4.6956    1.3942    0.5936 C   0  0  0  0  0  0  0  0  0  0  0  0
    5.0838    0.2773    0.8609 O   0  0  0  0  0  0  0  0  0  0  0  0
    4.9369    2.5604    1.4660 C   0  0  0  0  0  0  0  0  0  0  0  0
    5.8325    2.2076    2.9329 S   0  0  0  0  0  0  0  0  0  0  0  0
    5.7467    3.8680    3.4047 C   0  0  0  0  0  0  0  0  0  0  0  0
    6.3014    4.3181    4.5570 N   0  0  0  0  0  0  0  0  0  0  0  0
    6.1718    5.5880    4.7784 C   0  0  0  0  0  0  0  0  0  0  0  0
    5.5287    6.4686    3.9468 N   0  0  0  0  0  0  0  0  0  0  0  0
    5.4661    7.8924    4.2982 C   0  0  0  0  0  0  0  0  0  0  0  0
    4.2024    8.2558    5.1072 C   0  0  0  0  0  0  0  0  0  0  0  0
    4.2768    8.3861    6.3167 O   0  0  0  0  0  0  0  0  0  0  0  0
    3.0804    8.3899    4.3394 N   0  0  0  0  0  0  0  0  0  0  0  0
    1.7569    8.6863    4.7429 C   0  0  0  0  0  0  0  0  0  0  0  0
    1.4217    8.8707    6.0944 C   0  0  0  0  0  0  0  0  0  0  0  0
    0.1029    9.1621    6.4360 C   0  0  0  0  0  0  0  0  0  0  0  0
   -0.8759    9.2711    5.4501 C   0  0  0  0  0  0  0  0  0  0  0  0
   -0.5578    9.0929    4.0948 C   0  0  0  0  0  0  0  0  0  0  0  0
   -1.6534    9.2267    3.0599 C   0  0  0  0  0  0  0  0  0  0  0  0
    0.7730    8.7976    3.7269 C   0  0  0  0  0  0  0  0  0  0  0  0
    1.1702    8.6097    2.2797 C   0  0  0  0  0  0  0  0  0  0  0  0
    4.8826    6.0629    2.7507 C   0  0  0  0  0  0  0  0  0  0  0  0
    4.2632    6.8963    2.0914 O   0  0  0  0  0  0  0  0  0  0  0  0
    5.0501    4.6492    2.4657 C   0  0  0  0  0  0  0  0  0  0  0  0
    4.5792    3.8938    1.3351 C   0  0  0  0  0  0  0  0  0  0  0  0
    3.8160    4.4859    0.1808 C   0  0  0  0  0  0  0  0  0  0  0  0
    4.5679   -0.3975   -3.1237 H   0  0  0  0  0  0  0  0  0  0  0  0
    5.7490    0.0277   -1.8591 H   0  0  0  0  0  0  0  0  0  0  0  0
    5.1096    1.2937   -2.9527 H   0  0  0  0  0  0  0  0  0  0  0  0
    3.4794   -0.2800   -0.8513 H   0  0  0  0  0  0  0  0  0  0  0  0
    2.8025    0.9536   -1.9612 H   0  0  0  0  0  0  0  0  0  0  0  0
    6.5946    6.0278    5.6881 H   0  0  0  0  0  0  0  0  0  0  0  0
    5.5245    8.4673    3.3646 H   0  0  0  0  0  0  0  0  0  0  0  0
    6.3239    8.1330    4.9363 H   0  0  0  0  0  0  0  0  0  0  0  0
    3.2207    8.1747    3.3531 H   0  0  0  0  0  0  0  0  0  0  0  0
    2.1965    8.7842    6.8516 H   0  0  0  0  0  0  0  0  0  0  0  0
   -0.1600    9.3051    7.4873 H   0  0  0  0  0  0  0  0  0  0  0  0
   -1.9077    9.4997    5.7296 H   0  0  0  0  0  0  0  0  0  0  0  0
   -2.6150    9.4566    3.5408 H   0  0  0  0  0  0  0  0  0  0  0  0
   -1.7893    8.3003    2.4772 H   0  0  0  0  0  0  0  0  0  0  0  0
   -1.4448   10.0334    2.3373 H   0  0  0  0  0  0  0  0  0  0  0  0
    0.3113    8.6783    1.6029 H   0  0  0  0  0  0  0  0  0  0  0  0
    1.6456    7.6304    2.1012 H   0  0  0  0  0  0  0  0  0  0  0  0
    1.8979    9.3750    1.9555 H   0  0  0  0  0  0  0  0  0  0  0  0
    3.7234    5.5705    0.2996 H   0  0  0  0  0  0  0  0  0  0  0  0
    2.8104    4.0430    0.1128 H   0  0  0  0  0  0  0  0  0  0  0  0
    4.3150    4.2596   -0.7726 H   0  0  0  0  0  0  0  0  0  0  0  0
  1  2  1  0
  1 29  1  0
  1 30  1  0
  1 31  1  0
  2  3  1  0
  2 32  1  0
  2 33  1  0
  3  4  1  0
  4  5  2  0
  4  6  1  0
  6  7  1  0
  6 27  2  0
  7  8  2  0
  8  9  1  0
  8 26  1  0
  9 10  2  0
 10 11  1  0
 10 34  1  0
 11 12  1  0
 11 24  1  0
 12 13  1  0
 12 35  1  0
 12 36  1  0
 13 14  2  0
 13 15  1  0
 15 16  1  0
 15 37  1  0
 16 17  2  0
 16 22  1  0
 17 18  1  0
 17 38  1  0
 18 19  2  0
 18 39  1  0
 19 20  1  0
 19 40  1  0
 20 21  1  0
 20 22  2  0
 21 41  1  0
 21 42  1  0
 21 43  1  0
 22 23  1  0
 23 44  1  0
 23 45  1  0
 23 46  1  0
 24 25  1  0
 24 26  2  0
 26 27  1  0
 27 28  1  0
 28 47  1  0
 28 48  1  0
 28 49  1  0
M  CHG  2   7   1  25  -1
M  END

