
     RDKit          3D

 51 53  0  0  0  0  0  0  0  0999 V2000
    3.4678   -1.2932   -3.7852 C   0  0  0  0  0  0  0  0  0  0  0  0
    2.7739   -0.0890   -3.1237 C   0  0  1  0  0  0  0  0  0  0  0  0
    3.0214    1.1809   -3.9568 C   0  0  0  0  0  0  0  0  0  0  0  0
    1.2606   -0.3571   -3.0339 C   0  0  0  0  0  0  0  0  0  0  0  0
    3.2981    0.1138   -1.6660 C   0  0  0  0  0  0  0  0  0  0  0  0
    4.7730    0.2797   -1.5229 C   0  0  0  0  0  0  0  0  0  0  0  0
    5.4757    1.3628   -1.6218 N   0  0  0  0  0  0  0  0  0  0  0  0
    6.7938    0.9591   -1.4257 C   0  0  0  0  0  0  0  0  0  0  0  0
    7.9825    1.6973   -1.4213 C   0  0  0  0  0  0  0  0  0  0  0  0
    9.1722    0.9904   -1.1867 C   0  0  0  0  0  0  0  0  0  0  0  0
   10.4453    1.6020   -1.1483 N   0  0  0  0  0  0  0  0  0  0  0  0
   10.7591    2.9275   -1.3839 C   0  0  0  0  0  0  0  0  0  0  0  0
    9.9321    3.7770   -1.6686 O   0  0  0  0  0  0  0  0  0  0  0  0
   12.1121    3.2492   -1.2489 N   0  0  0  0  0  0  0  0  0  0  0  0
   12.5002    4.6303   -1.5315 C   0  0  0  0  0  0  0  0  0  0  0  0
   13.0242    4.8617   -2.9528 C   0  0  0  0  0  0  0  0  0  0  0  0
   14.2420    4.0303   -3.3470 C   0  0  0  0  0  0  0  0  0  0  0  0
   13.8862    2.2683   -3.6788 S   0  0  2  0  0  0  0  0  0  0  0  0
   15.0828    1.6970   -4.3120 O   0  0  0  0  0  0  0  0  0  0  0  0
   12.5763    2.1984   -4.3442 O   0  0  0  0  0  0  0  0  0  0  0  0
   13.7083    1.4377   -2.0503 C   0  0  0  0  0  0  0  0  0  0  0  0
   13.1620    2.3095   -0.9061 C   0  0  0  0  0  0  0  0  0  0  0  0
    9.1476   -0.4111   -0.9650 C   0  0  0  0  0  0  0  0  0  0  0  0
    7.9621   -1.1470   -0.9689 C   0  0  0  0  0  0  0  0  0  0  0  0
    6.7988   -0.4267   -1.2050 C   0  0  0  0  0  0  0  0  0  0  0  0
    5.5036   -0.8581   -1.2676 O   0  0  0  0  0  0  0  0  0  0  0  0
    3.0416   -1.4805   -4.7841 H   0  0  0  0  0  0  0  0  0  0  0  0
    3.3417   -2.2107   -3.1874 H   0  0  0  0  0  0  0  0  0  0  0  0
    4.5483   -1.1232   -3.9130 H   0  0  0  0  0  0  0  0  0  0  0  0
    2.6624    1.0404   -4.9894 H   0  0  0  0  0  0  0  0  0  0  0  0
    4.0900    1.4395   -3.9960 H   0  0  0  0  0  0  0  0  0  0  0  0
    2.4888    2.0463   -3.5297 H   0  0  0  0  0  0  0  0  0  0  0  0
    0.8254   -0.4783   -4.0391 H   0  0  0  0  0  0  0  0  0  0  0  0
    0.7347    0.4763   -2.5397 H   0  0  0  0  0  0  0  0  0  0  0  0
    1.0479   -1.2761   -2.4628 H   0  0  0  0  0  0  0  0  0  0  0  0
    2.9939   -0.7496   -1.0535 H   0  0  0  0  0  0  0  0  0  0  0  0
    2.8224    1.0114   -1.2421 H   0  0  0  0  0  0  0  0  0  0  0  0
    7.9938    2.7689   -1.5971 H   0  0  0  0  0  0  0  0  0  0  0  0
   11.2026    0.9583   -0.9718 H   0  0  0  0  0  0  0  0  0  0  0  0
   13.2642    4.9288   -0.7915 H   0  0  0  0  0  0  0  0  0  0  0  0
   11.6138    5.2568   -1.3731 H   0  0  0  0  0  0  0  0  0  0  0  0
   13.2947    5.9272   -3.0520 H   0  0  0  0  0  0  0  0  0  0  0  0
   12.2174    4.6663   -3.6759 H   0  0  0  0  0  0  0  0  0  0  0  0
   15.0692    4.0588   -2.6187 H   0  0  0  0  0  0  0  0  0  0  0  0
   14.6514    4.3381   -4.3219 H   0  0  0  0  0  0  0  0  0  0  0  0
   14.6999    1.0321   -1.8046 H   0  0  0  0  0  0  0  0  0  0  0  0
   13.0406    0.6032   -2.3145 H   0  0  0  0  0  0  0  0  0  0  0  0
   13.9920    2.8928   -0.4794 H   0  0  0  0  0  0  0  0  0  0  0  0
   12.8351    1.6437   -0.0872 H   0  0  0  0  0  0  0  0  0  0  0  0
   10.0910   -0.9356   -0.7857 H   0  0  0  0  0  0  0  0  0  0  0  0
    7.9574   -2.2246   -0.7982 H   0  0  0  0  0  0  0  0  0  0  0  0
  2  1  1  6
  1 27  1  0
  1 28  1  0
  1 29  1  0
  2  3  1  0
  2  4  1  0
  2  5  1  0
  3 30  1  0
  3 31  1  0
  3 32  1  0
  4 33  1  0
  4 34  1  0
  4 35  1  0
  5  6  1  0
  5 36  1  0
  5 37  1  0
  6  7  2  0
  6 26  1  0
  7  8  1  0
  8  9  2  0
  8 25  1  0
  9 10  1  0
  9 38  1  0
 10 11  1  0
 10 23  2  0
 11 12  1  0
 11 39  1  0
 12 13  2  0
 12 14  1  0
 14 15  1  0
 14 22  1  0
 15 16  1  0
 15 40  1  0
 15 41  1  0
 16 17  1  0
 16 42  1  0
 16 43  1  0
 18 17  1  1
 17 44  1  0
 17 45  1  0
 18 19  2  0
 18 20  2  0
 18 21  1  0
 21 22  1  0
 21 46  1  0
 21 47  1  0
 22 48  1  0
 22 49  1  0
 23 24  1  0
 23 50  1  0
 24 25  2  0
 24 51  1  0
 25 26  1  0
M  END

