
     RDKit          3D

 41 42  0  0  0  0  0  0  0  0999 V2000
    2.5446    0.7369   -0.9608 C   0  0  0  0  0  0  0  0  0  0  0  0
    2.0723   -0.3827   -0.0332 C   0  0  0  0  0  0  0  0  0  0  0  0
    2.7489   -1.7374   -0.2771 C   0  0  0  0  0  0  0  0  0  0  0  0
    4.2060   -1.7239   -0.1655 N   0  0  0  0  0  0  0  0  0  0  0  0
    4.7203   -1.4146    1.1637 C   0  0  0  0  0  0  0  0  0  0  0  0
    4.3369   -2.3518    2.2945 C   0  0  0  0  0  0  0  0  0  0  0  0
    3.4421   -2.1192    3.3089 C   0  0  0  0  0  0  0  0  0  0  0  0
    3.2952   -3.2228    4.2064 C   0  0  0  0  0  0  0  0  0  0  0  0
    2.1382   -3.1915    5.6986 Br  0  0  0  0  0  0  0  0  0  0  0  0
    4.0835   -4.2953    3.8659 C   0  0  0  0  0  0  0  0  0  0  0  0
    4.2108   -5.8126    4.6641 Cl  0  0  0  0  0  0  0  0  0  0  0  0
    5.0185   -3.9575    2.4343 S   0  0  0  0  0  0  0  0  0  0  0  0
    4.8621   -2.8408   -0.8438 C   0  0  0  0  0  0  0  0  0  0  0  0
    4.9957   -2.6518   -2.3708 C   0  0  1  0  0  0  0  0  0  0  0  0
    5.8702   -1.4393   -2.7504 C   0  0  0  0  0  0  0  0  0  0  0  0
    7.3673   -1.7159   -2.5801 C   0  0  0  0  0  0  0  0  0  0  0  0
    7.7439   -2.9071   -3.3307 N   0  0  0  0  0  0  0  0  0  0  0  0
    7.0469   -4.1016   -2.8729 C   0  0  0  0  0  0  0  0  0  0  0  0
    5.5363   -3.9227   -3.0606 C   0  0  0  0  0  0  0  0  0  0  0  0
    1.9985    1.6737   -0.7658 H   0  0  0  0  0  0  0  0  0  0  0  0
    2.3845    0.4712   -2.0193 H   0  0  0  0  0  0  0  0  0  0  0  0
    3.6196    0.9367   -0.8343 H   0  0  0  0  0  0  0  0  0  0  0  0
    0.9858   -0.5366   -0.1540 H   0  0  0  0  0  0  0  0  0  0  0  0
    2.2032   -0.0753    1.0192 H   0  0  0  0  0  0  0  0  0  0  0  0
    2.5024   -2.0617   -1.3005 H   0  0  0  0  0  0  0  0  0  0  0  0
    2.2969   -2.4949    0.4009 H   0  0  0  0  0  0  0  0  0  0  0  0
    4.3755   -0.4110    1.4602 H   0  0  0  0  0  0  0  0  0  0  0  0
    5.8182   -1.3500    1.0929 H   0  0  0  0  0  0  0  0  0  0  0  0
    2.8987   -1.1812    3.4299 H   0  0  0  0  0  0  0  0  0  0  0  0
    4.3378   -3.8019   -0.6509 H   0  0  0  0  0  0  0  0  0  0  0  0
    5.8663   -2.9586   -0.4069 H   0  0  0  0  0  0  0  0  0  0  0  0
    3.9804   -2.4710   -2.7635 H   0  0  0  0  0  0  0  0  0  0  0  0
    5.5728   -0.5677   -2.1467 H   0  0  0  0  0  0  0  0  0  0  0  0
    5.6889   -1.1883   -3.8090 H   0  0  0  0  0  0  0  0  0  0  0  0
    7.6101   -1.8014   -1.4940 H   0  0  0  0  0  0  0  0  0  0  0  0
    7.9467   -0.8578   -2.9590 H   0  0  0  0  0  0  0  0  0  0  0  0
    8.7518   -3.0465   -3.3029 H   0  0  0  0  0  0  0  0  0  0  0  0
    7.2652   -4.3445   -1.8060 H   0  0  0  0  0  0  0  0  0  0  0  0
    7.3927   -4.9654   -3.4643 H   0  0  0  0  0  0  0  0  0  0  0  0
    5.0034   -4.8174   -2.6949 H   0  0  0  0  0  0  0  0  0  0  0  0
    5.3379   -3.8473   -4.1427 H   0  0  0  0  0  0  0  0  0  0  0  0
  1  2  1  0
  1 20  1  0
  1 21  1  0
  1 22  1  0
  2  3  1  0
  2 23  1  0
  2 24  1  0
  3  4  1  0
  3 25  1  0
  3 26  1  0
  4  5  1  0
  4 13  1  0
  5  6  1  0
  5 27  1  0
  5 28  1  0
  6  7  2  0
  6 12  1  0
  7  8  1  0
  7 29  1  0
  8  9  1  0
  8 10  2  0
 10 11  1  0
 10 12  1  0
 13 14  1  0
 13 30  1  0
 13 31  1  0
 14 15  1  0
 14 19  1  0
 14 32  1  6
 15 16  1  0
 15 33  1  0
 15 34  1  0
 16 17  1  0
 16 35  1  0
 16 36  1  0
 17 18  1  0
 17 37  1  0
 18 19  1  0
 18 38  1  0
 18 39  1  0
 19 40  1  0
 19 41  1  0
M  END

