
     RDKit          3D

 71 72  0  0  0  0  0  0  0  0999 V2000
    1.1434   -1.9462    1.2947 C   0  0  0  0  0  0  0  0  0  0  0  0
    2.5101   -1.8585    1.9769 C   0  0  0  0  0  0  0  0  0  0  0  0
    3.2095   -0.4968    1.7834 C   0  0  1  0  0  0  0  0  0  0  0  0
    2.6255    0.5961    2.7198 C   0  0  0  0  0  0  0  0  0  0  0  0
    1.4900    0.5022    3.1549 O   0  0  0  0  0  0  0  0  0  0  0  0
    3.4228    1.6807    2.9342 N   0  0  0  0  0  0  0  0  0  0  0  0
    3.0661    2.7483    3.8676 C   0  0  1  0  0  0  0  0  0  0  0  0
    3.8792    2.6264    5.1622 C   0  0  0  0  0  0  0  0  0  0  0  0
    3.2260    4.1192    3.2040 C   0  0  0  0  0  0  0  0  0  0  0  0
    4.6840   -0.5513    1.8478 N   0  0  0  0  0  0  0  0  0  0  0  0
    5.4196   -0.3009    0.6052 C   0  0  0  0  0  0  0  0  0  0  0  0
    5.2783   -1.3830   -0.4547 C   0  0  0  0  0  0  0  0  0  0  0  0
    4.9400   -1.0380   -1.7657 C   0  0  0  0  0  0  0  0  0  0  0  0
    4.8658   -2.0291   -2.7553 C   0  0  0  0  0  0  0  0  0  0  0  0
    5.1194   -3.3593   -2.4453 C   0  0  0  0  0  0  0  0  0  0  0  0
    5.4547   -3.7183   -1.1257 C   0  0  0  0  0  0  0  0  0  0  0  0
    5.6825   -5.0375   -0.9095 O   0  0  0  0  0  0  0  0  0  0  0  0
    5.9991   -5.4843    0.3895 C   0  0  0  0  0  0  0  0  0  0  0  0
    5.5349   -2.7288   -0.1366 C   0  0  0  0  0  0  0  0  0  0  0  0
    5.2588   -0.8448    3.0571 C   0  0  0  0  0  0  0  0  0  0  0  0
    4.6003   -1.1417    4.0410 O   0  0  0  0  0  0  0  0  0  0  0  0
    6.7844   -0.7366    3.1904 C   0  0  0  0  0  0  0  0  0  0  0  0
    7.1644    0.5981    2.8946 O   0  0  0  0  0  0  0  0  0  0  0  0
    8.4529    0.9896    3.0730 C   0  0  0  0  0  0  0  0  0  0  0  0
    9.4624    0.1756    3.6061 C   0  0  0  0  0  0  0  0  0  0  0  0
   10.7615    0.6627    3.7596 C   0  0  0  0  0  0  0  0  0  0  0  0
   11.1174    1.9707    3.3937 C   0  0  0  0  0  0  0  0  0  0  0  0
   12.5634    2.4698    3.5825 C   0  0  1  0  0  0  0  0  0  0  0  0
   13.5249    1.5786    2.7628 C   0  0  0  0  0  0  0  0  0  0  0  0
   12.7399    3.9259    3.1159 C   0  0  0  0  0  0  0  0  0  0  0  0
   12.9405    2.3920    5.0801 C   0  0  0  0  0  0  0  0  0  0  0  0
   10.1002    2.7772    2.8578 C   0  0  0  0  0  0  0  0  0  0  0  0
    8.7993    2.2995    2.6985 C   0  0  0  0  0  0  0  0  0  0  0  0
    7.4718    3.4467    1.9489 Br  0  0  0  0  0  0  0  0  0  0  0  0
    0.6999   -2.9438    1.4446 H   0  0  0  0  0  0  0  0  0  0  0  0
    1.2255   -1.7823    0.2061 H   0  0  0  0  0  0  0  0  0  0  0  0
    0.4540   -1.1981    1.7088 H   0  0  0  0  0  0  0  0  0  0  0  0
    3.1760   -2.6297    1.5584 H   0  0  0  0  0  0  0  0  0  0  0  0
    2.4183   -2.0591    3.0528 H   0  0  0  0  0  0  0  0  0  0  0  0
    2.9823   -0.1508    0.7610 H   0  0  0  0  0  0  0  0  0  0  0  0
    4.3912    1.6329    2.6353 H   0  0  0  0  0  0  0  0  0  0  0  0
    2.0036    2.5790    4.0969 H   0  0  0  0  0  0  0  0  0  0  0  0
    4.9566    2.7594    4.9633 H   0  0  0  0  0  0  0  0  0  0  0  0
    3.7367    1.6347    5.6169 H   0  0  0  0  0  0  0  0  0  0  0  0
    3.5742    3.3936    5.8921 H   0  0  0  0  0  0  0  0  0  0  0  0
    4.2779    4.3046    2.9266 H   0  0  0  0  0  0  0  0  0  0  0  0
    2.9166    4.9230    3.8909 H   0  0  0  0  0  0  0  0  0  0  0  0
    2.6123    4.1898    2.2927 H   0  0  0  0  0  0  0  0  0  0  0  0
    6.4789   -0.1512    0.8447 H   0  0  0  0  0  0  0  0  0  0  0  0
    5.0796    0.6592    0.1829 H   0  0  0  0  0  0  0  0  0  0  0  0
    4.7354    0.0053   -2.0198 H   0  0  0  0  0  0  0  0  0  0  0  0
    4.6000   -1.7555   -3.7796 H   0  0  0  0  0  0  0  0  0  0  0  0
    5.0612   -4.1472   -3.1987 H   0  0  0  0  0  0  0  0  0  0  0  0
    6.1246   -6.5733    0.3241 H   0  0  0  0  0  0  0  0  0  0  0  0
    5.1923   -5.2602    1.1104 H   0  0  0  0  0  0  0  0  0  0  0  0
    6.9406   -5.0393    0.7602 H   0  0  0  0  0  0  0  0  0  0  0  0
    5.7845   -2.9946    0.8910 H   0  0  0  0  0  0  0  0  0  0  0  0
    7.3154   -1.4487    2.5306 H   0  0  0  0  0  0  0  0  0  0  0  0
    7.0044   -0.9920    4.2376 H   0  0  0  0  0  0  0  0  0  0  0  0
    9.2388   -0.8472    3.9103 H   0  0  0  0  0  0  0  0  0  0  0  0
   11.5113   -0.0100    4.1813 H   0  0  0  0  0  0  0  0  0  0  0  0
   13.2822    1.6179    1.6890 H   0  0  0  0  0  0  0  0  0  0  0  0
   13.4792    0.5249    3.0783 H   0  0  0  0  0  0  0  0  0  0  0  0
   14.5660    1.9182    2.8893 H   0  0  0  0  0  0  0  0  0  0  0  0
   12.5129    4.0460    2.0449 H   0  0  0  0  0  0  0  0  0  0  0  0
   13.7839    4.2413    3.2682 H   0  0  0  0  0  0  0  0  0  0  0  0
   12.1005    4.6207    3.6828 H   0  0  0  0  0  0  0  0  0  0  0  0
   12.8763    1.3637    5.4678 H   0  0  0  0  0  0  0  0  0  0  0  0
   12.2732    3.0221    5.6893 H   0  0  0  0  0  0  0  0  0  0  0  0
   13.9745    2.7416    5.2350 H   0  0  0  0  0  0  0  0  0  0  0  0
   10.3038    3.8013    2.5495 H   0  0  0  0  0  0  0  0  0  0  0  0
  1  2  1  0
  1 35  1  0
  1 36  1  0
  1 37  1  0
  2  3  1  0
  2 38  1  0
  2 39  1  0
  3  4  1  0
  3 10  1  0
  3 40  1  6
  4  5  2  0
  4  6  1  0
  6  7  1  0
  6 41  1  0
  7  8  1  0
  7  9  1  0
  7 42  1  1
  8 43  1  0
  8 44  1  0
  8 45  1  0
  9 46  1  0
  9 47  1  0
  9 48  1  0
 10 11  1  0
 10 20  1  0
 11 12  1  0
 11 49  1  0
 11 50  1  0
 12 13  2  0
 12 19  1  0
 13 14  1  0
 13 51  1  0
 14 15  2  0
 14 52  1  0
 15 16  1  0
 15 53  1  0
 16 17  1  0
 16 19  2  0
 17 18  1  0
 18 54  1  0
 18 55  1  0
 18 56  1  0
 19 57  1  0
 20 21  2  0
 20 22  1  0
 22 23  1  0
 22 58  1  0
 22 59  1  0
 23 24  1  0
 24 25  2  0
 24 33  1  0
 25 26  1  0
 25 60  1  0
 26 27  2  0
 26 61  1  0
 27 28  1  0
 27 32  1  0
 28 29  1  6
 28 30  1  0
 28 31  1  0
 29 62  1  0
 29 63  1  0
 29 64  1  0
 30 65  1  0
 30 66  1  0
 30 67  1  0
 31 68  1  0
 31 69  1  0
 31 70  1  0
 32 33  2  0
 32 71  1  0
 33 34  1  0
M  END

