
     RDKit          3D

 36 37  0  0  0  0  0  0  0  0999 V2000
    2.5762   -7.0592    0.0211 C   0  0  0  0  0  0  0  0  0  0  0  0
    2.2274   -5.8453    0.8992 C   0  0  1  0  0  0  0  0  0  0  0  0
    2.3017   -6.0868    2.3380 N   0  0  0  0  0  0  0  0  0  0  0  0
    3.0629   -4.6049    0.5522 C   0  0  0  0  0  0  0  0  0  0  0  0
    4.8700   -4.9030    0.7667 S   0  0  0  0  0  0  0  0  0  0  0  0
    5.4130   -3.1550    1.0141 C   0  0  0  0  0  0  0  0  0  0  0  0
    6.9002   -3.0760    1.1370 C   0  0  0  0  0  0  0  0  0  0  0  0
    7.6247   -2.6301    2.2139 C   0  0  0  0  0  0  0  0  0  0  0  0
    7.1930   -2.1188    3.5375 C   0  0  0  0  0  0  0  0  0  0  0  0
    6.0151   -1.9899    3.8479 O   0  0  0  0  0  0  0  0  0  0  0  0
    8.2136   -1.7998    4.3862 N   0  0  0  0  0  0  0  0  0  0  0  0
    7.9803   -1.3008    5.6673 N   0  0  0  0  0  0  0  0  0  0  0  0
    8.9806   -2.6738    1.9707 O   0  0  0  0  0  0  0  0  0  0  0  0
    9.1395   -3.1602    0.7097 C   0  0  0  0  0  0  0  0  0  0  0  0
   10.3497   -3.3659    0.0502 C   0  0  0  0  0  0  0  0  0  0  0  0
   10.2707   -3.8737   -1.2470 C   0  0  0  0  0  0  0  0  0  0  0  0
    9.0276   -4.1639   -1.8491 C   0  0  0  0  0  0  0  0  0  0  0  0
    7.8286   -3.9532   -1.1727 C   0  0  0  0  0  0  0  0  0  0  0  0
    7.8830   -3.4358    0.1349 C   0  0  0  0  0  0  0  0  0  0  0  0
    1.9126   -7.9072    0.2578 H   0  0  0  0  0  0  0  0  0  0  0  0
    3.6149   -7.3891    0.1897 H   0  0  0  0  0  0  0  0  0  0  0  0
    2.4618   -6.8344   -1.0528 H   0  0  0  0  0  0  0  0  0  0  0  0
    1.1814   -5.5631    0.6718 H   0  0  0  0  0  0  0  0  0  0  0  0
    3.2778   -6.2150    2.6126 H   0  0  0  0  0  0  0  0  0  0  0  0
    1.8111   -6.9477    2.5805 H   0  0  0  0  0  0  0  0  0  0  0  0
    2.7774   -3.7887    1.2323 H   0  0  0  0  0  0  0  0  0  0  0  0
    2.8694   -4.2886   -0.4853 H   0  0  0  0  0  0  0  0  0  0  0  0
    4.9432   -2.7494    1.9190 H   0  0  0  0  0  0  0  0  0  0  0  0
    5.0809   -2.5715    0.1387 H   0  0  0  0  0  0  0  0  0  0  0  0
    9.1805   -1.9106    4.1040 H   0  0  0  0  0  0  0  0  0  0  0  0
    7.4012   -1.9758    6.1738 H   0  0  0  0  0  0  0  0  0  0  0  0
    7.3967   -0.4642    5.5840 H   0  0  0  0  0  0  0  0  0  0  0  0
   11.3036   -3.1395    0.5297 H   0  0  0  0  0  0  0  0  0  0  0  0
   11.1916   -4.0536   -1.8071 H   0  0  0  0  0  0  0  0  0  0  0  0
    9.0101   -4.5667   -2.8646 H   0  0  0  0  0  0  0  0  0  0  0  0
    6.8689   -4.1994   -1.6309 H   0  0  0  0  0  0  0  0  0  0  0  0
  1  2  1  0
  1 20  1  0
  1 21  1  0
  1 22  1  0
  2  3  1  0
  2  4  1  0
  2 23  1  1
  3 24  1  0
  3 25  1  0
  4  5  1  0
  4 26  1  0
  4 27  1  0
  5  6  1  0
  6  7  1  0
  6 28  1  0
  6 29  1  0
  7  8  2  0
  7 19  1  0
  8  9  1  0
  8 13  1  0
  9 10  2  0
  9 11  1  0
 11 12  1  0
 11 30  1  0
 12 31  1  0
 12 32  1  0
 13 14  1  0
 14 15  1  0
 14 19  2  0
 15 16  2  0
 15 33  1  0
 16 17  1  0
 16 34  1  0
 17 18  2  0
 17 35  1  0
 18 19  1  0
 18 36  1  0
M  END

