
     RDKit          3D

 46 48  0  0  0  0  0  0  0  0999 V2000
    0.1051    0.6979   -0.2929 C   0  0  0  0  0  0  0  0  0  0  0  0
    1.2754    0.2519   -0.9489 O   0  0  0  0  0  0  0  0  0  0  0  0
    2.2087    1.1499   -1.3278 C   0  0  0  0  0  0  0  0  0  0  0  0
    2.1193    2.5367   -1.1543 C   0  0  0  0  0  0  0  0  0  0  0  0
    3.1448    3.3716   -1.6114 C   0  0  0  0  0  0  0  0  0  0  0  0
    4.2866    2.8703   -2.2490 C   0  0  0  0  0  0  0  0  0  0  0  0
    5.3816    3.7765   -2.7561 C   0  0  0  0  0  0  0  0  0  0  0  0
    4.3772    1.4789   -2.4071 C   0  0  0  0  0  0  0  0  0  0  0  0
    3.3667    0.6345   -1.9525 C   0  0  0  0  0  0  0  0  0  0  0  0
    3.4792   -0.7735   -2.1520 N   0  0  0  0  0  0  0  0  0  0  0  0
    3.4292   -1.3351   -3.3952 N   0  0  0  0  0  0  0  0  0  0  0  0
    3.5459   -2.5964   -3.2382 N   0  0  0  0  0  0  0  0  0  0  0  0
    3.6747   -2.9190   -1.9295 N   0  0  0  0  0  0  0  0  0  0  0  0
    3.6277   -1.7805   -1.2583 C   0  0  0  0  0  0  0  0  0  0  0  0
    3.7682   -1.5629    0.4724 S   0  0  0  0  0  0  0  0  0  0  0  0
    3.6529   -3.3182    1.0121 C   0  0  0  0  0  0  0  0  0  0  0  0
    4.9875   -4.0612    1.0349 C   0  0  0  0  0  0  0  0  0  0  0  0
    5.5694   -4.2458    2.0963 O   0  0  0  0  0  0  0  0  0  0  0  0
    5.4335   -4.4912   -0.1837 N   0  0  0  0  0  0  0  0  0  0  0  0
    6.6351   -5.1865   -0.5065 C   0  0  0  0  0  0  0  0  0  0  0  0
    6.8626   -5.4547   -1.6683 O   0  0  0  0  0  0  0  0  0  0  0  0
    7.4179   -5.4820    0.5731 N   0  0  0  0  0  0  0  0  0  0  0  0
    8.6501   -6.1550    0.5798 C   0  0  0  0  0  0  0  0  0  0  0  0
    9.2787   -6.6509   -0.5771 C   0  0  0  0  0  0  0  0  0  0  0  0
   10.5062   -7.3096   -0.4774 C   0  0  0  0  0  0  0  0  0  0  0  0
   11.1165   -7.4801    0.7666 C   0  0  0  0  0  0  0  0  0  0  0  0
   12.7952   -8.3819    0.8901 Br  0  0  0  0  0  0  0  0  0  0  0  0
   10.5038   -6.9930    1.9240 C   0  0  0  0  0  0  0  0  0  0  0  0
    9.2791   -6.3356    1.8263 C   0  0  0  0  0  0  0  0  0  0  0  0
   -0.4917   -0.1987   -0.0817 H   0  0  0  0  0  0  0  0  0  0  0  0
   -0.4835    1.3793   -0.9315 H   0  0  0  0  0  0  0  0  0  0  0  0
    0.3417    1.2067    0.6579 H   0  0  0  0  0  0  0  0  0  0  0  0
    1.2469    2.9771   -0.6719 H   0  0  0  0  0  0  0  0  0  0  0  0
    3.0442    4.4505   -1.4652 H   0  0  0  0  0  0  0  0  0  0  0  0
    5.2003    4.8232   -2.4716 H   0  0  0  0  0  0  0  0  0  0  0  0
    5.4566    3.7369   -3.8559 H   0  0  0  0  0  0  0  0  0  0  0  0
    6.3656    3.4836   -2.3551 H   0  0  0  0  0  0  0  0  0  0  0  0
    5.2447    1.0304   -2.8967 H   0  0  0  0  0  0  0  0  0  0  0  0
    2.9080   -3.8226    0.3808 H   0  0  0  0  0  0  0  0  0  0  0  0
    3.2960   -3.2653    2.0483 H   0  0  0  0  0  0  0  0  0  0  0  0
    4.8701   -4.2436   -1.0096 H   0  0  0  0  0  0  0  0  0  0  0  0
    7.0454   -5.1600    1.4715 H   0  0  0  0  0  0  0  0  0  0  0  0
    8.8013   -6.5167   -1.5452 H   0  0  0  0  0  0  0  0  0  0  0  0
   10.9871   -7.6915   -1.3797 H   0  0  0  0  0  0  0  0  0  0  0  0
   10.9785   -7.1251    2.8977 H   0  0  0  0  0  0  0  0  0  0  0  0
    8.8009   -5.9550    2.7331 H   0  0  0  0  0  0  0  0  0  0  0  0
  1  2  1  0
  1 30  1  0
  1 31  1  0
  1 32  1  0
  2  3  1  0
  3  4  2  0
  3  9  1  0
  4  5  1  0
  4 33  1  0
  5  6  2  0
  5 34  1  0
  6  7  1  0
  6  8  1  0
  7 35  1  0
  7 36  1  0
  7 37  1  0
  8  9  2  0
  8 38  1  0
  9 10  1  0
 10 11  1  0
 10 14  1  0
 11 12  2  0
 12 13  1  0
 13 14  2  0
 14 15  1  0
 15 16  1  0
 16 17  1  0
 16 39  1  0
 16 40  1  0
 17 18  2  0
 17 19  1  0
 19 20  1  0
 19 41  1  0
 20 21  2  0
 20 22  1  0
 22 23  1  0
 22 42  1  0
 23 24  2  0
 23 29  1  0
 24 25  1  0
 24 43  1  0
 25 26  2  0
 25 44  1  0
 26 27  1  0
 26 28  1  0
 28 29  2  0
 28 45  1  0
 29 46  1  0
M  END

