
     RDKit          3D

 37 38  0  0  0  0  0  0  0  0999 V2000
    0.8552    0.0801   -0.1377 C   0  0  0  0  0  0  0  0  0  0  0  0
    2.3923    0.1211   -0.0874 C   0  0  1  0  0  0  0  0  0  0  0  0
    2.9749   -1.1275   -0.5829 N   0  0  0  0  0  0  0  0  0  0  0  0
    2.7812   -2.2984    0.2606 C   0  0  0  0  0  0  0  0  0  0  0  0
    3.4573   -3.5304   -0.3061 C   0  0  0  0  0  0  0  0  0  0  0  0
    4.1135   -4.4385    0.5368 C   0  0  0  0  0  0  0  0  0  0  0  0
    4.7070   -5.5940    0.0237 C   0  0  0  0  0  0  0  0  0  0  0  0
    4.6653   -5.8652   -1.3520 C   0  0  0  0  0  0  0  0  0  0  0  0
    5.2706   -7.0935   -1.9815 C   0  0  0  0  0  0  0  0  0  0  0  0
    6.2036   -7.7615   -1.2314 N   0  0  0  0  0  0  0  0  0  0  0  0
    4.9391   -7.4773   -3.0902 O   0  0  0  0  0  0  0  0  0  0  0  0
    3.9977   -4.9638   -2.1957 C   0  0  0  0  0  0  0  0  0  0  0  0
    3.4094   -3.8103   -1.6823 C   0  0  0  0  0  0  0  0  0  0  0  0
    2.9243    1.2941   -0.8986 C   0  0  0  0  0  0  0  0  0  0  0  0
    3.2491    2.5078   -0.2767 C   0  0  0  0  0  0  0  0  0  0  0  0
    3.6942    3.6035   -1.0232 C   0  0  0  0  0  0  0  0  0  0  0  0
    3.8221    3.4891   -2.4028 C   0  0  0  0  0  0  0  0  0  0  0  0
    4.2513    4.5198   -3.1372 F   0  0  0  0  0  0  0  0  0  0  0  0
    3.5054    2.2811   -3.0336 C   0  0  0  0  0  0  0  0  0  0  0  0
    3.6387    2.1872   -4.3602 F   0  0  0  0  0  0  0  0  0  0  0  0
    3.0592    1.1931   -2.2931 C   0  0  0  0  0  0  0  0  0  0  0  0
    0.4464   -0.7073    0.5143 H   0  0  0  0  0  0  0  0  0  0  0  0
    0.5103   -0.1082   -1.1663 H   0  0  0  0  0  0  0  0  0  0  0  0
    0.4371    1.0402    0.2001 H   0  0  0  0  0  0  0  0  0  0  0  0
    2.6803    0.3035    0.9728 H   0  0  0  0  0  0  0  0  0  0  0  0
    3.9734   -0.9919   -0.7400 H   0  0  0  0  0  0  0  0  0  0  0  0
    1.6980   -2.4999    0.3365 H   0  0  0  0  0  0  0  0  0  0  0  0
    3.1303   -2.1418    1.3059 H   0  0  0  0  0  0  0  0  0  0  0  0
    4.1558   -4.2435    1.6123 H   0  0  0  0  0  0  0  0  0  0  0  0
    5.1827   -6.2953    0.7139 H   0  0  0  0  0  0  0  0  0  0  0  0
    6.6708   -7.3188   -0.4518 H   0  0  0  0  0  0  0  0  0  0  0  0
    6.6726   -8.5387   -1.6823 H   0  0  0  0  0  0  0  0  0  0  0  0
    3.9517   -5.1956   -3.2616 H   0  0  0  0  0  0  0  0  0  0  0  0
    2.9041   -3.1062   -2.3465 H   0  0  0  0  0  0  0  0  0  0  0  0
    3.1572    2.6025    0.8083 H   0  0  0  0  0  0  0  0  0  0  0  0
    3.9533    4.5531   -0.5504 H   0  0  0  0  0  0  0  0  0  0  0  0
    2.8246    0.2621   -2.8118 H   0  0  0  0  0  0  0  0  0  0  0  0
  1  2  1  0
  1 22  1  0
  1 23  1  0
  1 24  1  0
  2  3  1  0
  2 14  1  0
  2 25  1  1
  3  4  1  0
  3 26  1  0
  4  5  1  0
  4 27  1  0
  4 28  1  0
  5  6  2  0
  5 13  1  0
  6  7  1  0
  6 29  1  0
  7  8  2  0
  7 30  1  0
  8  9  1  0
  8 12  1  0
  9 10  1  0
  9 11  2  0
 10 31  1  0
 10 32  1  0
 12 13  2  0
 12 33  1  0
 13 34  1  0
 14 15  2  0
 14 21  1  0
 15 16  1  0
 15 35  1  0
 16 17  2  0
 16 36  1  0
 17 18  1  0
 17 19  1  0
 19 20  1  0
 19 21  2  0
 21 37  1  0
M  END

