
     RDKit          3D

 25 26  0  0  0  0  0  0  0  0999 V2000
    3.2562   -2.0009   -2.5784 N   0  0  0  0  0  0  0  0  0  0  0  0
    2.8875   -0.9737   -1.7764 C   0  0  0  0  0  0  0  0  0  0  0  0
    2.1916   -0.0362   -2.1315 O   0  0  0  0  0  0  0  0  0  0  0  0
    3.4250   -1.0732   -0.3335 C   0  0  0  0  0  0  0  0  0  0  0  0
    4.8596   -0.8123   -0.2029 N   0  0  0  0  0  0  0  0  0  0  0  0
    5.7176   -1.8879   -0.3957 C   0  0  0  0  0  0  0  0  0  0  0  0
    5.3358   -2.9735   -0.7793 O   0  0  0  0  0  0  0  0  0  0  0  0
    7.0202   -1.6612   -0.1570 O   0  0  0  0  0  0  0  0  0  0  0  0
    7.3891   -0.5711    0.7001 C   0  0  0  0  0  0  0  0  0  0  0  0
    6.6776    0.6844    0.2932 C   0  0  0  0  0  0  0  0  0  0  0  0
    7.2382    1.9587    0.3637 C   0  0  0  0  0  0  0  0  0  0  0  0
    6.4618    3.0706    0.0222 C   0  0  0  0  0  0  0  0  0  0  0  0
    7.2195    4.8160    0.1333 Br  0  0  0  0  0  0  0  0  0  0  0  0
    5.1424    2.9097   -0.4058 C   0  0  0  0  0  0  0  0  0  0  0  0
    4.5849    1.6310   -0.4997 C   0  0  0  0  0  0  0  0  0  0  0  0
    5.3520    0.5141   -0.1398 C   0  0  0  0  0  0  0  0  0  0  0  0
    2.9913   -1.9681   -3.5563 H   0  0  0  0  0  0  0  0  0  0  0  0
    3.9015   -2.7113   -2.2374 H   0  0  0  0  0  0  0  0  0  0  0  0
    3.2380   -2.0809    0.0621 H   0  0  0  0  0  0  0  0  0  0  0  0
    2.8760   -0.3426    0.2725 H   0  0  0  0  0  0  0  0  0  0  0  0
    8.4802   -0.4803    0.6206 H   0  0  0  0  0  0  0  0  0  0  0  0
    7.1424   -0.8479    1.7432 H   0  0  0  0  0  0  0  0  0  0  0  0
    8.2711    2.0874    0.6938 H   0  0  0  0  0  0  0  0  0  0  0  0
    4.5470    3.7800   -0.6861 H   0  0  0  0  0  0  0  0  0  0  0  0
    3.5702    1.5118   -0.8839 H   0  0  0  0  0  0  0  0  0  0  0  0
  1  2  1  0
  1 17  1  0
  1 18  1  0
  2  3  2  0
  2  4  1  0
  4  5  1  0
  4 19  1  0
  4 20  1  0
  5  6  1  0
  5 16  1  0
  6  7  2  0
  6  8  1  0
  8  9  1  0
  9 10  1  0
  9 21  1  0
  9 22  1  0
 10 11  1  0
 10 16  2  0
 11 12  2  0
 11 23  1  0
 12 13  1  0
 12 14  1  0
 14 15  2  0
 14 24  1  0
 15 16  1  0
 15 25  1  0
M  END

