
     RDKit          3D

 51 51  0  0  0  0  0  0  0  0999 V2000
    4.5735   -2.5919    3.3042 C   0  0  0  0  0  0  0  0  0  0  0  0
    4.4149   -2.1936    1.8367 C   0  0  0  0  0  0  0  0  0  0  0  0
    5.6137   -1.5846    1.2527 N   0  0  0  0  0  0  0  0  0  0  0  0
    6.6917   -2.4436    0.7453 C   0  0  0  0  0  0  0  0  0  0  0  0
    6.4268   -3.0288   -0.6416 C   0  0  0  0  0  0  0  0  0  0  0  0
    5.6444    0.0446    0.8901 S   0  0  1  0  0  0  0  0  0  0  0  0
    6.5068    0.2310   -0.2849 O   0  0  0  0  0  0  0  0  0  0  0  0
    4.2652    0.5470    0.9057 O   0  0  0  0  0  0  0  0  0  0  0  0
    6.4959    0.8384    2.2818 C   0  0  0  0  0  0  0  0  0  0  0  0
    6.6265    2.3510    2.0439 C   0  0  0  0  0  0  0  0  0  0  0  0
    7.3929    3.0326    3.0766 N   0  0  0  0  0  0  0  0  0  0  0  0
    8.6624    2.6208    3.4904 C   0  0  0  0  0  0  0  0  0  0  0  0
    9.6241    2.2558    2.7177 N   0  0  0  0  0  0  0  0  0  0  0  0
    9.6068    2.5322    1.3015 C   0  0  0  0  0  0  0  0  0  0  0  0
    8.8655    2.6656    4.8676 N   0  0  0  0  0  0  0  0  0  0  0  0
    7.8111    2.5082    5.8492 C   0  0  0  0  0  0  0  0  0  0  0  0
   10.2258    2.7155    5.3950 C   0  0  0  0  0  0  0  0  0  0  0  0
   10.7393    1.4006    5.9596 C   0  0  0  0  0  0  0  0  0  0  0  0
   10.9351    0.2936    5.1145 C   0  0  0  0  0  0  0  0  0  0  0  0
   11.4097   -0.9141    5.6299 C   0  0  0  0  0  0  0  0  0  0  0  0
   11.6967   -1.0382    6.9951 C   0  0  0  0  0  0  0  0  0  0  0  0
   11.5070    0.0556    7.8421 C   0  0  0  0  0  0  0  0  0  0  0  0
   11.0302    1.2658    7.3245 C   0  0  0  0  0  0  0  0  0  0  0  0
    3.6552   -3.0809    3.6676 H   0  0  0  0  0  0  0  0  0  0  0  0
    4.7610   -1.7116    3.9394 H   0  0  0  0  0  0  0  0  0  0  0  0
    5.4072   -3.2975    3.4506 H   0  0  0  0  0  0  0  0  0  0  0  0
    3.5868   -1.4820    1.7176 H   0  0  0  0  0  0  0  0  0  0  0  0
    4.1507   -3.0777    1.2308 H   0  0  0  0  0  0  0  0  0  0  0  0
    6.8429   -3.2470    1.4863 H   0  0  0  0  0  0  0  0  0  0  0  0
    7.6245   -1.8613    0.7269 H   0  0  0  0  0  0  0  0  0  0  0  0
    5.5021   -3.6278   -0.6616 H   0  0  0  0  0  0  0  0  0  0  0  0
    7.2578   -3.6867   -0.9433 H   0  0  0  0  0  0  0  0  0  0  0  0
    6.3361   -2.2192   -1.3798 H   0  0  0  0  0  0  0  0  0  0  0  0
    7.4860    0.3653    2.3611 H   0  0  0  0  0  0  0  0  0  0  0  0
    5.9067    0.6063    3.1814 H   0  0  0  0  0  0  0  0  0  0  0  0
    5.6235    2.8000    2.0164 H   0  0  0  0  0  0  0  0  0  0  0  0
    7.0658    2.5060    1.0489 H   0  0  0  0  0  0  0  0  0  0  0  0
    6.8402    3.5227    3.7674 H   0  0  0  0  0  0  0  0  0  0  0  0
   10.6436    2.5967    0.9319 H   0  0  0  0  0  0  0  0  0  0  0  0
    9.1021    3.4838    1.0421 H   0  0  0  0  0  0  0  0  0  0  0  0
    9.1193    1.7322    0.7098 H   0  0  0  0  0  0  0  0  0  0  0  0
    6.8854    2.1489    5.3807 H   0  0  0  0  0  0  0  0  0  0  0  0
    7.5850    3.4516    6.3853 H   0  0  0  0  0  0  0  0  0  0  0  0
    8.1025    1.7609    6.6073 H   0  0  0  0  0  0  0  0  0  0  0  0
   10.2637    3.4857    6.1873 H   0  0  0  0  0  0  0  0  0  0  0  0
   10.8715    3.0377    4.5674 H   0  0  0  0  0  0  0  0  0  0  0  0
   10.7165    0.4102    4.0499 H   0  0  0  0  0  0  0  0  0  0  0  0
   11.5645   -1.7657    4.9614 H   0  0  0  0  0  0  0  0  0  0  0  0
   12.0699   -1.9849    7.3950 H   0  0  0  0  0  0  0  0  0  0  0  0
   11.7297   -0.0304    8.9091 H   0  0  0  0  0  0  0  0  0  0  0  0
   10.8878    2.1212    7.9926 H   0  0  0  0  0  0  0  0  0  0  0  0
  1  2  1  0
  1 24  1  0
  1 25  1  0
  1 26  1  0
  2  3  1  0
  2 27  1  0
  2 28  1  0
  3  4  1  0
  6  3  1  1
  4  5  1  0
  4 29  1  0
  4 30  1  0
  5 31  1  0
  5 32  1  0
  5 33  1  0
  6  7  2  0
  6  8  2  0
  6  9  1  0
  9 10  1  0
  9 34  1  0
  9 35  1  0
 10 11  1  0
 10 36  1  0
 10 37  1  0
 11 12  1  0
 11 38  1  0
 12 13  2  0
 12 15  1  0
 13 14  1  0
 14 39  1  0
 14 40  1  0
 14 41  1  0
 15 16  1  0
 15 17  1  0
 16 42  1  0
 16 43  1  0
 16 44  1  0
 17 18  1  0
 17 45  1  0
 17 46  1  0
 18 19  2  0
 18 23  1  0
 19 20  1  0
 19 47  1  0
 20 21  2  0
 20 48  1  0
 21 22  1  0
 21 49  1  0
 22 23  2  0
 22 50  1  0
 23 51  1  0
M  END

