
     RDKit          3D

 33 34  0  0  0  0  0  0  0  0999 V2000
    3.2926    1.3002   -2.4909 C   0  0  0  0  0  0  0  0  0  0  0  0
    3.6222    0.6403   -1.2306 N   0  0  0  0  0  0  0  0  0  0  0  0
    3.2186    1.1399   -0.0352 C   0  0  0  0  0  0  0  0  0  0  0  0
    3.4757    0.5818    1.1040 N   0  0  0  0  0  0  0  0  0  0  0  0
    4.2056   -0.5881    1.1128 C   0  0  0  0  0  0  0  0  0  0  0  0
    4.4043   -1.1346    2.5185 C   0  0  0  0  0  0  0  0  0  0  0  0
    4.9508   -2.1784    2.7773 O   0  0  0  0  0  0  0  0  0  0  0  0
    3.8938   -0.3342    3.4544 O   0  0  0  0  0  0  0  0  0  0  0  0
    4.7003   -1.1813   -0.0251 C   0  0  0  0  0  0  0  0  0  0  0  0
    5.5122   -2.4453   -0.0831 C   0  0  0  0  0  0  0  0  0  0  0  0
    4.6328   -3.7210   -0.1466 C   0  0  0  0  0  0  0  0  0  0  0  0
    5.4557   -4.9892   -0.1076 C   0  0  0  0  0  0  0  0  0  0  0  0
    5.9686   -5.4600    1.1135 C   0  0  0  0  0  0  0  0  0  0  0  0
    6.7500   -6.6168    1.1611 C   0  0  0  0  0  0  0  0  0  0  0  0
    7.0345   -7.3234   -0.0126 C   0  0  0  0  0  0  0  0  0  0  0  0
    6.5320   -6.8636   -1.2329 C   0  0  0  0  0  0  0  0  0  0  0  0
    5.7501   -5.7048   -1.2779 C   0  0  0  0  0  0  0  0  0  0  0  0
    4.3791   -0.5591   -1.3183 C   0  0  0  0  0  0  0  0  0  0  0  0
    4.7044   -0.9840   -2.4128 O   0  0  0  0  0  0  0  0  0  0  0  0
    2.7265    2.2171   -2.2836 H   0  0  0  0  0  0  0  0  0  0  0  0
    2.6988    0.6256   -3.1240 H   0  0  0  0  0  0  0  0  0  0  0  0
    4.2150    1.5414   -3.0381 H   0  0  0  0  0  0  0  0  0  0  0  0
    2.6411    2.0707   -0.0677 H   0  0  0  0  0  0  0  0  0  0  0  0
    3.4879    0.4217    2.9724 H   0  0  0  0  0  0  0  0  0  0  0  0
    6.1575   -2.5100    0.8007 H   0  0  0  0  0  0  0  0  0  0  0  0
    6.1403   -2.4058   -0.9849 H   0  0  0  0  0  0  0  0  0  0  0  0
    4.0248   -3.6931   -1.0649 H   0  0  0  0  0  0  0  0  0  0  0  0
    3.9424   -3.7066    0.7109 H   0  0  0  0  0  0  0  0  0  0  0  0
    5.7490   -4.9075    2.0319 H   0  0  0  0  0  0  0  0  0  0  0  0
    7.1372   -6.9708    2.1204 H   0  0  0  0  0  0  0  0  0  0  0  0
    7.6441   -8.2300    0.0249 H   0  0  0  0  0  0  0  0  0  0  0  0
    6.7473   -7.4099   -2.1553 H   0  0  0  0  0  0  0  0  0  0  0  0
    5.3582   -5.3517   -2.2365 H   0  0  0  0  0  0  0  0  0  0  0  0
  1  2  1  0
  1 20  1  0
  1 21  1  0
  1 22  1  0
  2  3  1  0
  2 18  1  0
  3  4  2  0
  3 23  1  0
  4  5  1  0
  5  6  1  0
  5  9  2  0
  6  7  2  0
  6  8  1  0
  8 24  1  0
  9 10  1  0
  9 18  1  0
 10 11  1  0
 10 25  1  0
 10 26  1  0
 11 12  1  0
 11 27  1  0
 11 28  1  0
 12 13  2  0
 12 17  1  0
 13 14  1  0
 13 29  1  0
 14 15  2  0
 14 30  1  0
 15 16  1  0
 15 31  1  0
 16 17  2  0
 16 32  1  0
 17 33  1  0
 18 19  2  0
M  END

