
     RDKit          3D

 31 32  0  0  0  0  0  0  0  0999 V2000
    5.1507   -2.1332   -0.2914 C   0  0  0  0  0  0  0  0  0  0  0  0
    4.1460   -1.0112   -0.2661 C   0  0  0  0  0  0  0  0  0  0  0  0
    4.5494    0.3090   -0.5197 C   0  0  0  0  0  0  0  0  0  0  0  0
    3.6249    1.3525   -0.5155 C   0  0  0  0  0  0  0  0  0  0  0  0
    2.2887    1.0501   -0.2503 C   0  0  0  0  0  0  0  0  0  0  0  0
    1.8805   -0.1935    0.0054 N   0  0  0  0  0  0  0  0  0  0  0  0
    2.7713   -1.1995    0.0047 C   0  0  0  0  0  0  0  0  0  0  0  0
    2.1896   -2.5771    0.2700 C   0  0  0  0  0  0  0  0  0  0  0  0
    2.6978   -3.5972   -0.1696 O   0  0  0  0  0  0  0  0  0  0  0  0
    1.0482   -2.5472    1.0126 N   0  0  0  0  0  0  0  0  0  0  0  0
    0.1099   -3.6505    1.0917 C   0  0  0  0  0  0  0  0  0  0  0  0
   -1.3015   -3.2152    0.6524 C   0  0  0  0  0  0  0  0  0  0  0  0
   -1.4240   -2.7329   -0.7605 C   0  0  0  0  0  0  0  0  0  0  0  0
   -2.1890   -3.1934   -1.8157 C   0  0  0  0  0  0  0  0  0  0  0  0
   -2.0056   -2.4211   -2.9343 N   0  0  0  0  0  0  0  0  0  0  0  0
   -1.1414   -1.4989   -2.5773 C   0  0  0  0  0  0  0  0  0  0  0  0
   -0.7584   -1.6323   -1.2726 N   0  0  0  0  0  0  0  0  0  0  0  0
   -0.0615   -1.0605   -0.7932 H   0  0  0  0  0  0  0  0  0  0  0  0
    6.1717   -1.7332   -0.3795 H   0  0  0  0  0  0  0  0  0  0  0  0
    4.9539   -2.8129   -1.1331 H   0  0  0  0  0  0  0  0  0  0  0  0
    5.0882   -2.7573    0.6120 H   0  0  0  0  0  0  0  0  0  0  0  0
    5.6041    0.5137   -0.7239 H   0  0  0  0  0  0  0  0  0  0  0  0
    3.9317    2.3813   -0.7164 H   0  0  0  0  0  0  0  0  0  0  0  0
    1.5231    1.8334   -0.2451 H   0  0  0  0  0  0  0  0  0  0  0  0
    0.7387   -1.6267    1.3075 H   0  0  0  0  0  0  0  0  0  0  0  0
    0.0615   -4.0472    2.1218 H   0  0  0  0  0  0  0  0  0  0  0  0
    0.5003   -4.4515    0.4475 H   0  0  0  0  0  0  0  0  0  0  0  0
   -1.6612   -2.4382    1.3557 H   0  0  0  0  0  0  0  0  0  0  0  0
   -1.9847   -4.0695    0.7799 H   0  0  0  0  0  0  0  0  0  0  0  0
   -2.8672   -4.0472   -1.8107 H   0  0  0  0  0  0  0  0  0  0  0  0
   -0.7487   -0.7077   -3.2172 H   0  0  0  0  0  0  0  0  0  0  0  0
  1  2  1  0
  1 19  1  0
  1 20  1  0
  1 21  1  0
  2  3  2  0
  2  7  1  0
  3  4  1  0
  3 22  1  0
  4  5  2  0
  4 23  1  0
  5  6  1  0
  5 24  1  0
  6  7  2  0
  7  8  1  0
  8  9  2  0
  8 10  1  0
 10 11  1  0
 10 25  1  0
 11 12  1  0
 11 26  1  0
 11 27  1  0
 12 13  1  0
 12 28  1  0
 12 29  1  0
 13 14  2  0
 13 17  1  0
 14 15  1  0
 14 30  1  0
 15 16  2  0
 16 17  1  0
 16 31  1  0
 17 18  1  0
M  END

