
     RDKit          3D

 33 34  0  0  0  0  0  0  0  0999 V2000
    3.4491    0.2177   -2.0071 C   0  0  0  0  0  0  0  0  0  0  0  0
    3.5656    0.0586   -0.5113 C   0  0  0  0  0  0  0  0  0  0  0  0
    4.1154    1.1057    0.2613 C   0  0  0  0  0  0  0  0  0  0  0  0
    4.6559    2.7349   -0.5826 Br  0  0  0  0  0  0  0  0  0  0  0  0
    4.2959    1.0226    1.6436 C   0  0  0  0  0  0  0  0  0  0  0  0
    3.9290   -0.1410    2.3160 C   0  0  0  0  0  0  0  0  0  0  0  0
    3.3721   -1.2004    1.6039 C   0  0  0  0  0  0  0  0  0  0  0  0
    3.1828   -1.0952    0.2178 C   0  0  0  0  0  0  0  0  0  0  0  0
    2.3553   -2.5515   -0.5041 S   0  0  1  0  0  0  0  0  0  0  0  0
    2.8361   -2.7524   -1.8890 O   0  0  0  0  0  0  0  0  0  0  0  0
    2.4745   -3.6236    0.4797 O   0  0  0  0  0  0  0  0  0  0  0  0
    0.7379   -2.2180   -0.6502 N   0  0  0  0  0  0  0  0  0  0  0  0
   -0.1332   -2.2077    0.5448 C   0  0  0  0  0  0  0  0  0  0  0  0
   -1.4615   -1.6810   -0.0098 C   0  0  0  0  0  0  0  0  0  0  0  0
   -1.0299   -0.7275   -1.1321 C   0  0  0  0  0  0  0  0  0  0  0  0
    0.1489   -1.4614   -1.7835 C   0  0  2  0  0  0  0  0  0  0  0  0
    0.8807   -0.7591   -2.2121 H   0  0  0  0  0  0  0  0  0  0  0  0
   -0.3058   -2.4037   -2.9319 C   0  0  0  0  0  0  0  0  0  0  0  0
   -1.4159   -2.3483   -3.3969 O   0  0  0  0  0  0  0  0  0  0  0  0
    0.6113   -3.2481   -3.3934 O   0  0  0  0  0  0  0  0  0  0  0  0
    2.7201    1.0059   -2.2574 H   0  0  0  0  0  0  0  0  0  0  0  0
    3.1716   -0.7156   -2.5017 H   0  0  0  0  0  0  0  0  0  0  0  0
    4.4131    0.5503   -2.4209 H   0  0  0  0  0  0  0  0  0  0  0  0
    4.7301    1.8660    2.1826 H   0  0  0  0  0  0  0  0  0  0  0  0
    4.0806   -0.2233    3.3945 H   0  0  0  0  0  0  0  0  0  0  0  0
    3.0945   -2.1264    2.1065 H   0  0  0  0  0  0  0  0  0  0  0  0
    0.2710   -1.5268    1.3172 H   0  0  0  0  0  0  0  0  0  0  0  0
   -0.2029   -3.2150    0.9777 H   0  0  0  0  0  0  0  0  0  0  0  0
   -2.0687   -1.1942    0.7671 H   0  0  0  0  0  0  0  0  0  0  0  0
   -2.0519   -2.5084   -0.4334 H   0  0  0  0  0  0  0  0  0  0  0  0
   -0.6827    0.2311   -0.7137 H   0  0  0  0  0  0  0  0  0  0  0  0
   -1.8220   -0.5322   -1.8652 H   0  0  0  0  0  0  0  0  0  0  0  0
    1.4680   -3.1702   -2.9134 H   0  0  0  0  0  0  0  0  0  0  0  0
  1  2  1  0
  1 21  1  0
  1 22  1  0
  1 23  1  0
  2  3  2  0
  2  8  1  0
  3  4  1  0
  3  5  1  0
  5  6  2  0
  5 24  1  0
  6  7  1  0
  6 25  1  0
  7  8  2  0
  7 26  1  0
  9  8  1  1
  9 10  2  0
  9 11  2  0
  9 12  1  0
 12 13  1  0
 12 16  1  0
 13 14  1  0
 13 27  1  0
 13 28  1  0
 14 15  1  0
 14 29  1  0
 14 30  1  0
 15 16  1  0
 15 31  1  0
 15 32  1  0
 16 17  1  6
 16 18  1  0
 18 19  2  0
 18 20  1  0
 20 33  1  0
M  END

