
     RDKit          3D

 48 49  0  0  0  0  0  0  0  0999 V2000
    3.2500    0.8718    0.9662 C   0  0  0  0  0  0  0  0  0  0  0  0
    2.7456   -0.4953    0.4904 C   0  0  2  0  0  0  0  0  0  0  0  0
    1.6417   -0.4352    0.4531 H   0  0  0  0  0  0  0  0  0  0  0  0
    3.1035   -1.6259    1.4917 C   0  0  0  0  0  0  0  0  0  0  0  0
    2.5871   -1.3856    2.8254 N   0  0  0  0  0  0  0  0  0  0  0  0
    3.3847   -1.1659    3.9026 C   0  0  0  0  0  0  0  0  0  0  0  0
    4.6002   -1.2579    3.9049 O   0  0  0  0  0  0  0  0  0  0  0  0
    2.6463   -0.7195    5.1769 C   0  0  0  0  0  0  0  0  0  0  0  0
    1.2256   -1.0376    5.2128 N   0  0  0  0  0  0  0  0  0  0  0  0
    0.8303   -2.3728    5.6465 C   0  0  0  0  0  0  0  0  0  0  0  0
    0.0994    0.2106    5.2345 S   0  0  1  0  0  0  0  0  0  0  0  0
   -0.0080    0.7848    6.9407 C   0  0  0  0  0  0  0  0  0  0  0  0
    0.6795    1.3001    4.4463 O   0  0  0  0  0  0  0  0  0  0  0  0
   -1.1952   -0.3783    4.8944 O   0  0  0  0  0  0  0  0  0  0  0  0
    3.1570   -0.7890   -0.8833 N   0  0  0  0  0  0  0  0  0  0  0  0
    2.3966   -1.8143   -1.5794 C   0  0  0  0  0  0  0  0  0  0  0  0
    2.4895   -1.5832   -3.0878 C   0  0  0  0  0  0  0  0  0  0  0  0
    3.9226   -1.4012   -3.5395 C   0  0  0  0  0  0  0  0  0  0  0  0
    4.2815   -1.5610   -4.8878 C   0  0  0  0  0  0  0  0  0  0  0  0
    5.5970   -1.3773   -5.3125 C   0  0  0  0  0  0  0  0  0  0  0  0
    6.5817   -1.0286   -4.3814 C   0  0  0  0  0  0  0  0  0  0  0  0
    6.2359   -0.8690   -3.0399 C   0  0  0  0  0  0  0  0  0  0  0  0
    4.9133   -1.0488   -2.6056 C   0  0  0  0  0  0  0  0  0  0  0  0
    4.5847   -0.8995   -1.1312 C   0  0  0  0  0  0  0  0  0  0  0  0
    4.3305    0.8667    1.1796 H   0  0  0  0  0  0  0  0  0  0  0  0
    2.7335    1.1697    1.8905 H   0  0  0  0  0  0  0  0  0  0  0  0
    3.0474    1.6313    0.1964 H   0  0  0  0  0  0  0  0  0  0  0  0
    4.1936   -1.7231    1.5969 H   0  0  0  0  0  0  0  0  0  0  0  0
    2.7179   -2.5876    1.1109 H   0  0  0  0  0  0  0  0  0  0  0  0
    1.5948   -1.2114    2.9508 H   0  0  0  0  0  0  0  0  0  0  0  0
    2.7807    0.3710    5.2333 H   0  0  0  0  0  0  0  0  0  0  0  0
    3.1795   -1.1652    6.0336 H   0  0  0  0  0  0  0  0  0  0  0  0
    1.3349   -3.1214    5.0156 H   0  0  0  0  0  0  0  0  0  0  0  0
   -0.2528   -2.4910    5.5168 H   0  0  0  0  0  0  0  0  0  0  0  0
    1.1008   -2.5687    6.7014 H   0  0  0  0  0  0  0  0  0  0  0  0
    0.9758    1.1497    7.2634 H   0  0  0  0  0  0  0  0  0  0  0  0
   -0.3600   -0.0403    7.5738 H   0  0  0  0  0  0  0  0  0  0  0  0
   -0.7388    1.6052    6.9445 H   0  0  0  0  0  0  0  0  0  0  0  0
    1.3447   -1.7570   -1.2570 H   0  0  0  0  0  0  0  0  0  0  0  0
    2.7481   -2.8461   -1.3436 H   0  0  0  0  0  0  0  0  0  0  0  0
    1.9112   -0.6765   -3.3406 H   0  0  0  0  0  0  0  0  0  0  0  0
    2.0230   -2.4210   -3.6332 H   0  0  0  0  0  0  0  0  0  0  0  0
    3.5099   -1.8362   -5.6135 H   0  0  0  0  0  0  0  0  0  0  0  0
    5.8559   -1.5071   -6.3665 H   0  0  0  0  0  0  0  0  0  0  0  0
    7.6163   -0.8805   -4.7015 H   0  0  0  0  0  0  0  0  0  0  0  0
    7.0052   -0.5970   -2.3103 H   0  0  0  0  0  0  0  0  0  0  0  0
    5.0913   -0.0010   -0.7454 H   0  0  0  0  0  0  0  0  0  0  0  0
    5.0456   -1.7630   -0.5940 H   0  0  0  0  0  0  0  0  0  0  0  0
  1  2  1  0
  1 25  1  0
  1 26  1  0
  1 27  1  0
  2  3  1  6
  2  4  1  0
  2 15  1  0
  4  5  1  0
  4 28  1  0
  4 29  1  0
  5  6  1  0
  5 30  1  0
  6  7  2  0
  6  8  1  0
  8  9  1  0
  8 31  1  0
  8 32  1  0
  9 10  1  0
 11  9  1  1
 10 33  1  0
 10 34  1  0
 10 35  1  0
 11 12  1  0
 11 13  2  0
 11 14  2  0
 12 36  1  0
 12 37  1  0
 12 38  1  0
 15 16  1  0
 15 24  1  0
 16 17  1  0
 16 39  1  0
 16 40  1  0
 17 18  1  0
 17 41  1  0
 17 42  1  0
 18 19  1  0
 18 23  2  0
 19 20  2  0
 19 43  1  0
 20 21  1  0
 20 44  1  0
 21 22  2  0
 21 45  1  0
 22 23  1  0
 22 46  1  0
 23 24  1  0
 24 47  1  0
 24 48  1  0
M  END

