
     RDKit          3D

 55 61  0  0  0  0  0  0  0  0999 V2000
    1.2072    2.7974   -0.7614 C   0  0  0  0  0  0  0  0  0  0  0  0
    0.1205    3.0592   -1.6349 C   0  0  0  0  0  0  0  0  0  0  0  0
   -1.0453    2.3293   -1.5342 C   0  0  0  0  0  0  0  0  0  0  0  0
   -1.1817    1.3031   -0.5566 C   0  0  0  0  0  0  0  0  0  0  0  0
   -2.3711    0.5323   -0.4272 C   0  0  0  0  0  0  0  0  0  0  0  0
   -2.4926   -0.4634    0.5268 C   0  0  0  0  0  0  0  0  0  0  0  0
   -3.7497   -1.2692    0.6538 C   0  0  0  0  0  0  0  0  0  0  0  0
   -3.8882   -2.4805   -0.0636 C   0  0  0  0  0  0  0  0  0  0  0  0
   -2.8544   -2.9679   -0.9316 C   0  0  0  0  0  0  0  0  0  0  0  0
   -2.9955   -4.1451   -1.6219 C   0  0  0  0  0  0  0  0  0  0  0  0
   -4.1844   -4.9182   -1.4889 C   0  0  0  0  0  0  0  0  0  0  0  0
   -5.1991   -4.4905   -0.6709 C   0  0  0  0  0  0  0  0  0  0  0  0
   -5.0983   -3.2650    0.0683 C   0  0  0  0  0  0  0  0  0  0  0  0
   -6.1394   -2.8163    0.9102 C   0  0  0  0  0  0  0  0  0  0  0  0
   -7.3940   -3.6341    1.0512 C   0  0  0  0  0  0  0  0  0  0  0  0
   -7.4072   -4.5425    2.0082 N   0  0  0  0  0  0  0  0  0  0  0  0
   -8.5137   -5.3073    2.1799 C   0  0  0  0  0  0  0  0  0  0  0  0
   -9.6463   -5.1946    1.4046 C   0  0  0  0  0  0  0  0  0  0  0  0
   -9.6767   -4.2303    0.3624 C   0  0  0  0  0  0  0  0  0  0  0  0
  -10.8007   -4.0414   -0.4898 C   0  0  0  0  0  0  0  0  0  0  0  0
  -10.7708   -3.0884   -1.4856 C   0  0  0  0  0  0  0  0  0  0  0  0
   -9.6188   -2.2826   -1.6742 C   0  0  0  0  0  0  0  0  0  0  0  0
   -8.5140   -2.4424   -0.8638 C   0  0  0  0  0  0  0  0  0  0  0  0
   -8.5125   -3.4173    0.1729 C   0  0  0  0  0  0  0  0  0  0  0  0
   -6.0009   -1.6114    1.6335 C   0  0  0  0  0  0  0  0  0  0  0  0
   -7.0326   -1.1318    2.5077 C   0  0  0  0  0  0  0  0  0  0  0  0
   -6.8905    0.0398    3.2067 C   0  0  0  0  0  0  0  0  0  0  0  0
   -5.7010    0.8128    3.0781 C   0  0  0  0  0  0  0  0  0  0  0  0
   -4.6875    0.3917    2.2548 C   0  0  0  0  0  0  0  0  0  0  0  0
   -4.7907   -0.8266    1.5032 C   0  0  0  0  0  0  0  0  0  0  0  0
   -1.3923   -0.7167    1.3987 C   0  0  0  0  0  0  0  0  0  0  0  0
   -0.2264    0.0114    1.3004 C   0  0  0  0  0  0  0  0  0  0  0  0
   -0.0821    1.0387    0.3265 C   0  0  0  0  0  0  0  0  0  0  0  0
    1.1069    1.8100    0.1964 C   0  0  0  0  0  0  0  0  0  0  0  0
    2.1259    3.3828   -0.8511 H   0  0  0  0  0  0  0  0  0  0  0  0
    0.2116    3.8441   -2.3902 H   0  0  0  0  0  0  0  0  0  0  0  0
   -1.8838    2.5302   -2.2068 H   0  0  0  0  0  0  0  0  0  0  0  0
   -3.2057    0.7385   -1.1031 H   0  0  0  0  0  0  0  0  0  0  0  0
   -1.9412   -2.3809   -1.0373 H   0  0  0  0  0  0  0  0  0  0  0  0
   -2.1927   -4.4944   -2.2763 H   0  0  0  0  0  0  0  0  0  0  0  0
   -4.2846   -5.8572   -2.0392 H   0  0  0  0  0  0  0  0  0  0  0  0
   -6.1025   -5.0932   -0.5678 H   0  0  0  0  0  0  0  0  0  0  0  0
   -8.4635   -6.0431    2.9900 H   0  0  0  0  0  0  0  0  0  0  0  0
  -10.5131   -5.8358    1.5845 H   0  0  0  0  0  0  0  0  0  0  0  0
  -11.6867   -4.6643   -0.3411 H   0  0  0  0  0  0  0  0  0  0  0  0
  -11.6382   -2.9497   -2.1361 H   0  0  0  0  0  0  0  0  0  0  0  0
   -9.6098   -1.5311   -2.4676 H   0  0  0  0  0  0  0  0  0  0  0  0
   -7.6280   -1.8219   -1.0095 H   0  0  0  0  0  0  0  0  0  0  0  0
   -7.9429   -1.7223    2.6195 H   0  0  0  0  0  0  0  0  0  0  0  0
   -7.6901    0.3820    3.8687 H   0  0  0  0  0  0  0  0  0  0  0  0
   -5.5969    1.7442    3.6405 H   0  0  0  0  0  0  0  0  0  0  0  0
   -3.7787    0.9876    2.1615 H   0  0  0  0  0  0  0  0  0  0  0  0
   -1.4867   -1.5024    2.1523 H   0  0  0  0  0  0  0  0  0  0  0  0
    0.6078   -0.1952    1.9768 H   0  0  0  0  0  0  0  0  0  0  0  0
    1.9431    1.6061    0.8711 H   0  0  0  0  0  0  0  0  0  0  0  0
  1  2  2  0
  1 34  1  0
  1 35  1  0
  2  3  1  0
  2 36  1  0
  3  4  2  0
  3 37  1  0
  4  5  1  0
  4 33  1  0
  5  6  2  0
  5 38  1  0
  6  7  1  0
  6 31  1  0
  7  8  1  0
  7 30  2  0
  8  9  2  0
  8 13  1  0
  9 10  1  0
  9 39  1  0
 10 11  2  0
 10 40  1  0
 11 12  1  0
 11 41  1  0
 12 13  2  0
 12 42  1  0
 13 14  1  0
 14 15  1  0
 14 25  2  0
 15 16  2  0
 15 24  1  0
 16 17  1  0
 17 18  2  0
 17 43  1  0
 18 19  1  0
 18 44  1  0
 19 20  1  0
 19 24  2  0
 20 21  2  0
 20 45  1  0
 21 22  1  0
 21 46  1  0
 22 23  2  0
 22 47  1  0
 23 24  1  0
 23 48  1  0
 25 26  1  0
 25 30  1  0
 26 27  2  0
 26 49  1  0
 27 28  1  0
 27 50  1  0
 28 29  2  0
 28 51  1  0
 29 30  1  0
 29 52  1  0
 31 32  2  0
 31 53  1  0
 32 33  1  0
 32 54  1  0
 33 34  2  0
 34 55  1  0
M  END

