
     RDKit          3D

 26 26  0  0  0  0  0  0  0  0999 V2000
    1.7353   -1.5127   -0.8314 C   0  0  0  0  0  0  0  0  0  0  0  0
    1.9178   -2.8226   -0.2119 N   0  0  0  0  0  0  0  0  0  0  0  0
    2.6047   -2.7548    1.0043 N   0  0  0  0  0  0  0  0  0  0  0  0
    3.9895   -2.8015    1.0098 C   0  0  0  0  0  0  0  0  0  0  0  0
    4.6513   -2.7861   -0.0155 O   0  0  0  0  0  0  0  0  0  0  0  0
    4.5441   -2.8778    2.2752 N   0  0  0  0  0  0  0  0  0  0  0  0
    5.9762   -2.8480    2.4657 C   0  0  1  0  0  0  0  0  0  0  0  0
    6.5169   -1.4869    2.9709 C   0  0  0  0  0  0  0  0  0  0  0  0
    7.9841   -1.7052    3.3204 C   0  0  0  0  0  0  0  0  0  0  0  0
    7.9645   -3.2691    4.2759 S   0  0  2  0  0  0  0  0  0  0  0  0
    7.5812   -2.9379    5.6571 O   0  0  0  0  0  0  0  0  0  0  0  0
    9.1519   -4.0789    3.9870 O   0  0  0  0  0  0  0  0  0  0  0  0
    6.4710   -3.9486    3.4317 C   0  0  0  0  0  0  0  0  0  0  0  0
    1.2218   -1.6576   -1.7948 H   0  0  0  0  0  0  0  0  0  0  0  0
    2.6822   -0.9708   -1.0156 H   0  0  0  0  0  0  0  0  0  0  0  0
    1.0889   -0.8886   -0.1947 H   0  0  0  0  0  0  0  0  0  0  0  0
    2.4550   -3.4220   -0.8415 H   0  0  0  0  0  0  0  0  0  0  0  0
    2.1067   -3.1692    1.7870 H   0  0  0  0  0  0  0  0  0  0  0  0
    3.9578   -2.6561    3.0731 H   0  0  0  0  0  0  0  0  0  0  0  0
    6.4032   -3.0282    1.4685 H   0  0  0  0  0  0  0  0  0  0  0  0
    5.9653   -1.1705    3.8728 H   0  0  0  0  0  0  0  0  0  0  0  0
    6.3832   -0.7125    2.2007 H   0  0  0  0  0  0  0  0  0  0  0  0
    8.4334   -0.9419    3.9694 H   0  0  0  0  0  0  0  0  0  0  0  0
    8.6158   -1.8764    2.4363 H   0  0  0  0  0  0  0  0  0  0  0  0
    5.7559   -4.1571    4.2394 H   0  0  0  0  0  0  0  0  0  0  0  0
    6.7579   -4.8822    2.9314 H   0  0  0  0  0  0  0  0  0  0  0  0
  1  2  1  0
  1 14  1  0
  1 15  1  0
  1 16  1  0
  2  3  1  0
  2 17  1  0
  3  4  1  0
  3 18  1  0
  4  5  2  0
  4  6  1  0
  6  7  1  0
  6 19  1  0
  7  8  1  0
  7 13  1  0
  7 20  1  6
  8  9  1  0
  8 21  1  0
  8 22  1  0
 10  9  1  6
  9 23  1  0
  9 24  1  0
 10 11  2  0
 10 12  2  0
 10 13  1  0
 13 25  1  0
 13 26  1  0
M  END

