
     RDKit          3D

 28 28  0  0  0  0  0  0  0  0999 V2000
    3.8466   -0.1384   -0.9765 C   0  0  0  0  0  0  0  0  0  0  0  0
    2.5295    0.0130   -0.1751 C   0  0  1  0  0  0  0  0  0  0  0  0
    1.9162    1.3926   -0.5223 C   0  0  0  0  0  0  0  0  0  0  0  0
    1.5154   -1.0400   -0.6803 C   0  0  0  0  0  0  0  0  0  0  0  0
    2.8775   -0.0843    1.3440 C   0  0  0  0  0  0  0  0  0  0  0  0
    3.1349    1.1255    2.0155 C   0  0  0  0  0  0  0  0  0  0  0  0
    3.5414    1.1855    3.3474 C   0  0  0  0  0  0  0  0  0  0  0  0
    3.7161    0.0136    4.0704 C   0  0  0  0  0  0  0  0  0  0  0  0
    3.4688   -1.2001    3.4284 C   0  0  0  0  0  0  0  0  0  0  0  0
    3.7393   -2.6391    4.4214 Cl  0  0  0  0  0  0  0  0  0  0  0  0
    3.0396   -1.2991    2.0847 C   0  0  0  0  0  0  0  0  0  0  0  0
    2.7886   -2.6880    1.5134 C   0  0  0  0  0  0  0  0  0  0  0  0
    3.6783   -3.0677    0.4730 O   0  0  0  0  0  0  0  0  0  0  0  0
    3.6490   -0.0330   -2.0566 H   0  0  0  0  0  0  0  0  0  0  0  0
    4.2895   -1.1273   -0.8015 H   0  0  0  0  0  0  0  0  0  0  0  0
    4.5763    0.6348   -0.6876 H   0  0  0  0  0  0  0  0  0  0  0  0
    1.6140    1.3948   -1.5805 H   0  0  0  0  0  0  0  0  0  0  0  0
    2.6244    2.2245   -0.3989 H   0  0  0  0  0  0  0  0  0  0  0  0
    1.0214    1.6087    0.0832 H   0  0  0  0  0  0  0  0  0  0  0  0
    1.1851   -0.7581   -1.6923 H   0  0  0  0  0  0  0  0  0  0  0  0
    0.6166   -1.0830   -0.0440 H   0  0  0  0  0  0  0  0  0  0  0  0
    1.9545   -2.0403   -0.7613 H   0  0  0  0  0  0  0  0  0  0  0  0
    3.0222    2.0680    1.4852 H   0  0  0  0  0  0  0  0  0  0  0  0
    3.7245    2.1540    3.8196 H   0  0  0  0  0  0  0  0  0  0  0  0
    4.0391    0.0221    5.1120 H   0  0  0  0  0  0  0  0  0  0  0  0
    1.7815   -2.7430    1.0864 H   0  0  0  0  0  0  0  0  0  0  0  0
    2.8197   -3.4214    2.3301 H   0  0  0  0  0  0  0  0  0  0  0  0
    4.5695   -3.1137    0.8445 H   0  0  0  0  0  0  0  0  0  0  0  0
  2  1  1  6
  1 14  1  0
  1 15  1  0
  1 16  1  0
  2  3  1  0
  2  4  1  0
  2  5  1  0
  3 17  1  0
  3 18  1  0
  3 19  1  0
  4 20  1  0
  4 21  1  0
  4 22  1  0
  5  6  2  0
  5 11  1  0
  6  7  1  0
  6 23  1  0
  7  8  2  0
  7 24  1  0
  8  9  1  0
  8 25  1  0
  9 10  1  0
  9 11  2  0
 11 12  1  0
 12 13  1  0
 12 26  1  0
 12 27  1  0
 13 28  1  0
M  END

