
     RDKit          3D

 27 28  0  0  0  0  0  0  0  0999 V2000
    0.9936   -0.2077    0.0792 C   0  0  0  0  0  0  0  0  0  0  0  0
    2.5002    0.0739    0.0641 C   0  0  1  0  0  0  0  0  0  0  0  0
    3.0289    0.2432   -1.3426 C   0  0  0  0  0  0  0  0  0  0  0  0
    2.4887    1.0138   -2.2394 N   0  0  0  0  0  0  0  0  0  0  0  0
    3.1867    0.9962   -3.4225 C   0  0  0  0  0  0  0  0  0  0  0  0
    2.7056    1.8021   -4.5841 C   0  0  0  0  0  0  0  0  0  0  0  0
    1.3064    1.0052   -5.4327 Cl  0  0  0  0  0  0  0  0  0  0  0  0
    4.2942    0.1803   -3.4241 C   0  0  0  0  0  0  0  0  0  0  0  0
    4.4722   -0.5852   -1.8895 S   0  0  0  0  0  0  0  0  0  0  0  0
    2.8408    1.2389    0.8931 N   0  0  0  0  0  0  0  0  0  0  0  0
    2.6416    2.5528    0.6181 C   0  0  0  0  0  0  0  0  0  0  0  0
    3.0406    3.2484    1.7484 C   0  0  0  0  0  0  0  0  0  0  0  0
    3.0403    4.7246    1.9421 C   0  0  1  0  0  0  0  0  0  0  0  0
    2.5029    5.3573    0.8820 F   0  0  0  0  0  0  0  0  0  0  0  0
    2.3360    5.0894    3.0309 F   0  0  0  0  0  0  0  0  0  0  0  0
    4.2841    5.2153    2.1123 F   0  0  0  0  0  0  0  0  0  0  0  0
    3.4624    2.2466    2.6589 C   0  0  0  0  0  0  0  0  0  0  0  0
    3.3324    1.0376    2.1300 N   0  0  0  0  0  0  0  0  0  0  0  0
    0.7795   -1.1485   -0.4494 H   0  0  0  0  0  0  0  0  0  0  0  0
    0.4433    0.5999   -0.4243 H   0  0  0  0  0  0  0  0  0  0  0  0
    0.6431   -0.2964    1.1179 H   0  0  0  0  0  0  0  0  0  0  0  0
    3.0348   -0.7537    0.5496 H   0  0  0  0  0  0  0  0  0  0  0  0
    3.4943    1.9364   -5.3340 H   0  0  0  0  0  0  0  0  0  0  0  0
    2.3432    2.7824   -4.2505 H   0  0  0  0  0  0  0  0  0  0  0  0
    4.9888   -0.0093   -4.2407 H   0  0  0  0  0  0  0  0  0  0  0  0
    2.2497    2.8876   -0.3388 H   0  0  0  0  0  0  0  0  0  0  0  0
    3.8540    2.3689    3.6683 H   0  0  0  0  0  0  0  0  0  0  0  0
  1  2  1  0
  1 19  1  0
  1 20  1  0
  1 21  1  0
  2  3  1  0
  2 10  1  0
  2 22  1  1
  3  4  2  0
  3  9  1  0
  4  5  1  0
  5  6  1  0
  5  8  2  0
  6  7  1  0
  6 23  1  0
  6 24  1  0
  8  9  1  0
  8 25  1  0
 10 11  1  0
 10 18  1  0
 11 12  2  0
 11 26  1  0
 12 13  1  0
 12 17  1  0
 13 14  1  6
 13 15  1  0
 13 16  1  0
 17 18  2  0
 17 27  1  0
M  END

