
     RDKit          3D

 39 39  0  0  0  0  0  0  0  0999 V2000
    6.9332    2.4453   -5.6418 C   0  0  0  0  0  0  0  0  0  0  0  0
    6.8737    1.9055   -4.2389 C   0  0  0  0  0  0  0  0  0  0  0  0
    6.5050    0.5773   -3.9580 C   0  0  0  0  0  0  0  0  0  0  0  0
    6.4441    0.0997   -2.7173 N   0  0  0  0  0  0  0  0  0  0  0  0
    6.7498    0.9299   -1.7137 C   0  0  0  0  0  0  0  0  0  0  0  0
    6.6427    0.3780   -0.2972 C   0  0  0  0  0  0  0  0  0  0  0  0
    7.1541   -0.9638   -0.1069 N   0  0  0  0  0  0  0  0  0  0  0  0
    8.5940   -1.1236   -0.2213 C   0  0  1  0  0  0  0  0  0  0  0  0
    9.3139   -0.7635    1.0855 C   0  0  0  0  0  0  0  0  0  0  0  0
    8.8868   -2.5593   -0.6724 C   0  0  0  0  0  0  0  0  0  0  0  0
    8.0349   -3.3189   -1.0727 O   0  0  0  0  0  0  0  0  0  0  0  0
   10.1945   -2.8320   -0.6022 O   0  0  0  0  0  0  0  0  0  0  0  0
   10.7629   -4.1215   -1.0272 C   0  0  1  0  0  0  0  0  0  0  0  0
   10.5003   -4.3376   -2.5210 C   0  0  0  0  0  0  0  0  0  0  0  0
   12.2575   -3.9400   -0.7587 C   0  0  0  0  0  0  0  0  0  0  0  0
   10.1890   -5.2531   -0.1689 C   0  0  0  0  0  0  0  0  0  0  0  0
    7.1300    2.2524   -1.9943 C   0  0  0  0  0  0  0  0  0  0  0  0
    7.1895    2.7337   -3.2345 N   0  0  0  0  0  0  0  0  0  0  0  0
    6.6916    1.6748   -6.3880 H   0  0  0  0  0  0  0  0  0  0  0  0
    7.9376    2.8441   -5.8557 H   0  0  0  0  0  0  0  0  0  0  0  0
    6.2261    3.2825   -5.7597 H   0  0  0  0  0  0  0  0  0  0  0  0
    6.2542   -0.1129   -4.7725 H   0  0  0  0  0  0  0  0  0  0  0  0
    5.5728    0.3759   -0.0193 H   0  0  0  0  0  0  0  0  0  0  0  0
    7.1315    1.0755    0.4028 H   0  0  0  0  0  0  0  0  0  0  0  0
    6.6969   -1.6115   -0.7489 H   0  0  0  0  0  0  0  0  0  0  0  0
    9.0310   -0.4954   -1.0331 H   0  0  0  0  0  0  0  0  0  0  0  0
    8.9683   -1.4171    1.9011 H   0  0  0  0  0  0  0  0  0  0  0  0
    9.0891    0.2759    1.3704 H   0  0  0  0  0  0  0  0  0  0  0  0
   10.4028   -0.8613    0.9791 H   0  0  0  0  0  0  0  0  0  0  0  0
   10.8830   -3.4860   -3.1052 H   0  0  0  0  0  0  0  0  0  0  0  0
    9.4283   -4.4539   -2.7242 H   0  0  0  0  0  0  0  0  0  0  0  0
   11.0239   -5.2452   -2.8598 H   0  0  0  0  0  0  0  0  0  0  0  0
   12.6557   -3.0938   -1.3388 H   0  0  0  0  0  0  0  0  0  0  0  0
   12.8089   -4.8489   -1.0435 H   0  0  0  0  0  0  0  0  0  0  0  0
   12.4390   -3.7421    0.3086 H   0  0  0  0  0  0  0  0  0  0  0  0
    9.1143   -5.3834   -0.3477 H   0  0  0  0  0  0  0  0  0  0  0  0
   10.3483   -5.0425    0.9002 H   0  0  0  0  0  0  0  0  0  0  0  0
   10.7041   -6.1961   -0.4105 H   0  0  0  0  0  0  0  0  0  0  0  0
    7.3969    2.9376   -1.1799 H   0  0  0  0  0  0  0  0  0  0  0  0
  1  2  1  0
  1 19  1  0
  1 20  1  0
  1 21  1  0
  2  3  2  0
  2 18  1  0
  3  4  1  0
  3 22  1  0
  4  5  2  0
  5  6  1  0
  5 17  1  0
  6  7  1  0
  6 23  1  0
  6 24  1  0
  7  8  1  0
  7 25  1  0
  8  9  1  0
  8 10  1  0
  8 26  1  6
  9 27  1  0
  9 28  1  0
  9 29  1  0
 10 11  2  0
 10 12  1  0
 13 12  1  1
 13 14  1  0
 13 15  1  0
 13 16  1  0
 14 30  1  0
 14 31  1  0
 14 32  1  0
 15 33  1  0
 15 34  1  0
 15 35  1  0
 16 36  1  0
 16 37  1  0
 16 38  1  0
 17 18  2  0
 17 39  1  0
M  END

