
     RDKit          3D

 23 23  0  0  0  0  0  0  0  0999 V2000
    0.8975    0.5013    1.0078 C   0  0  0  0  0  0  0  0  0  0  0  0
    2.3166    0.4605    1.1541 O   0  0  0  0  0  0  0  0  0  0  0  0
    3.0218    1.1765    0.2662 C   0  0  0  0  0  0  0  0  0  0  0  0
    2.5255    1.7495   -0.6767 O   0  0  0  0  0  0  0  0  0  0  0  0
    4.5069    1.1443    0.5618 C   0  0  1  0  0  0  0  0  0  0  0  0
    4.7041    0.4324    1.3733 H   0  0  0  0  0  0  0  0  0  0  0  0
    5.3656    1.0089   -0.7340 C   0  0  0  0  0  0  0  0  0  0  0  0
    5.5940    2.5400   -0.7441 C   0  0  0  0  0  0  0  0  0  0  0  0
    5.1213    2.5682    0.7378 C   0  0  1  0  0  0  0  0  0  0  0  0
    5.9970    2.5067    1.4090 H   0  0  0  0  0  0  0  0  0  0  0  0
    4.2553    3.6983    1.2636 C   0  0  0  0  0  0  0  0  0  0  0  0
    4.7719    5.1054    1.0364 C   0  0  0  0  0  0  0  0  0  0  0  0
    3.2144    3.4797    1.8448 O   0  0  0  0  0  0  0  0  0  0  0  0
    0.4898   -0.1540    1.7875 H   0  0  0  0  0  0  0  0  0  0  0  0
    0.5934    0.1478    0.0109 H   0  0  0  0  0  0  0  0  0  0  0  0
    0.5300    1.5297    1.1434 H   0  0  0  0  0  0  0  0  0  0  0  0
    4.8551    0.5825   -1.6088 H   0  0  0  0  0  0  0  0  0  0  0  0
    6.2909    0.4453   -0.5431 H   0  0  0  0  0  0  0  0  0  0  0  0
    4.8777    3.0457   -1.4068 H   0  0  0  0  0  0  0  0  0  0  0  0
    6.6102    2.9051   -0.9556 H   0  0  0  0  0  0  0  0  0  0  0  0
    4.1678    5.8203    1.6104 H   0  0  0  0  0  0  0  0  0  0  0  0
    4.7001    5.3528   -0.0362 H   0  0  0  0  0  0  0  0  0  0  0  0
    5.8345    5.1926    1.3157 H   0  0  0  0  0  0  0  0  0  0  0  0
  1  2  1  0
  1 14  1  0
  1 15  1  0
  1 16  1  0
  2  3  1  0
  3  4  2  0
  3  5  1  0
  5  6  1  1
  5  7  1  0
  5  9  1  0
  7  8  1  0
  7 17  1  0
  7 18  1  0
  8  9  1  0
  8 19  1  0
  8 20  1  0
  9 10  1  1
  9 11  1  0
 11 12  1  0
 11 13  2  0
 12 21  1  0
 12 22  1  0
 12 23  1  0
M  END

