
     RDKit          3D

 84 87  0  0  0  0  0  0  0  0999 V2000
    1.4822    0.2872    2.0085 C   0  0  0  0  0  0  0  0  0  0  0  0
    1.7586    0.9656    0.6643 C   0  0  0  0  0  0  0  0  0  0  0  0
    3.2430    1.2518    0.3816 C   0  0  0  0  0  0  0  0  0  0  0  0
    4.1833    0.0296    0.3197 C   0  0  1  0  0  0  0  0  0  0  0  0
    3.6909   -1.0117   -0.6968 C   0  0  0  0  0  0  0  0  0  0  0  0
    4.6239   -2.2147   -0.8136 C   0  0  0  0  0  0  0  0  0  0  0  0
    6.0917   -1.8405   -1.0825 C   0  0  2  0  0  0  0  0  0  0  0  0
    6.9133   -3.1227   -1.2727 C   0  0  0  0  0  0  0  0  0  0  0  0
    6.5705   -0.8406    0.0103 C   0  0  1  0  0  0  0  0  0  0  0  0
    8.1051   -0.5615   -0.0213 C   0  0  2  0  0  0  0  0  0  0  0  0
    8.7768   -1.7595    0.3613 O   0  0  0  0  0  0  0  0  0  0  0  0
    8.5388    0.6121    0.8951 C   0  0  1  0  0  0  0  0  0  0  0  0
   10.0680    0.9770    0.9651 C   0  0  2  0  0  0  0  0  0  0  0  0
   11.0470   -0.2048    0.8341 C   0  0  0  0  0  0  0  0  0  0  0  0
   10.2997    1.9364    2.2193 C   0  0  1  0  0  0  0  0  0  0  0  0
    9.7252    1.2612    3.4902 C   0  0  0  0  0  0  0  0  0  0  0  0
   11.8035    2.2830    2.5338 C   0  0  2  0  0  0  0  0  0  0  0  0
   12.5894    1.1593    2.8947 O   0  0  0  0  0  0  0  0  0  0  0  0
   12.0491    3.3583    3.6553 C   0  0  2  0  0  0  0  0  0  0  0  0
   12.0262    2.9496    5.1717 C   0  0  1  0  0  0  0  0  0  0  0  0
   12.5507    1.5743    5.5909 C   0  0  0  0  0  0  0  0  0  0  0  0
   12.7629    3.9302    5.9068 O   0  0  0  0  0  0  0  0  0  0  0  0
   11.1884    4.6321    3.3755 C   0  0  2  0  0  0  0  0  0  0  0  0
   11.2557    5.7598    4.4157 C   0  0  0  0  0  0  0  0  0  0  0  0
    9.7227    4.2716    3.0665 C   0  0  0  0  0  0  0  0  0  0  0  0
    9.5661    3.2981    1.8748 C   0  0  1  0  0  0  0  0  0  0  0  0
   10.1491    4.0300    0.6326 C   0  0  0  0  0  0  0  0  0  0  0  0
    8.0638    3.0149    1.6288 C   0  0  0  0  0  0  0  0  0  0  0  0
    7.6841    1.8885    0.6224 C   0  0  1  0  0  0  0  0  0  0  0  0
    7.8152    2.3671   -0.8458 C   0  0  0  0  0  0  0  0  0  0  0  0
    6.2015    1.5331    0.8801 C   0  0  0  0  0  0  0  0  0  0  0  0
    5.6527    0.4149   -0.0121 C   0  0  2  0  0  0  0  0  0  0  0  0
    0.3998    0.1869    2.1888 H   0  0  0  0  0  0  0  0  0  0  0  0
    1.9049    0.8696    2.8450 H   0  0  0  0  0  0  0  0  0  0  0  0
    1.9163   -0.7245    2.0606 H   0  0  0  0  0  0  0  0  0  0  0  0
    1.2197    1.9288    0.6339 H   0  0  0  0  0  0  0  0  0  0  0  0
    1.3221    0.3624   -0.1501 H   0  0  0  0  0  0  0  0  0  0  0  0
    3.6002    1.9466    1.1591 H   0  0  0  0  0  0  0  0  0  0  0  0
    3.3201    1.8018   -0.5751 H   0  0  0  0  0  0  0  0  0  0  0  0
    4.1925   -0.4470    1.3194 H   0  0  0  0  0  0  0  0  0  0  0  0
    3.5975   -0.5211   -1.6841 H   0  0  0  0  0  0  0  0  0  0  0  0
    2.6800   -1.3610   -0.4325 H   0  0  0  0  0  0  0  0  0  0  0  0
    4.2655   -2.8876   -1.6113 H   0  0  0  0  0  0  0  0  0  0  0  0
    4.5826   -2.8039    0.1220 H   0  0  0  0  0  0  0  0  0  0  0  0
    6.1239   -1.2866   -2.0418 H   0  0  0  0  0  0  0  0  0  0  0  0
    6.9490   -3.7206   -0.3474 H   0  0  0  0  0  0  0  0  0  0  0  0
    7.9506   -2.9295   -1.5709 H   0  0  0  0  0  0  0  0  0  0  0  0
    6.4398   -3.7451   -2.0509 H   0  0  0  0  0  0  0  0  0  0  0  0
    6.4057   -1.3240    0.9971 H   0  0  0  0  0  0  0  0  0  0  0  0
    8.4290   -0.3795   -1.0606 H   0  0  0  0  0  0  0  0  0  0  0  0
    8.4879   -1.9871    1.2556 H   0  0  0  0  0  0  0  0  0  0  0  0
    8.2464    0.2561    1.8958 H   0  0  0  0  0  0  0  0  0  0  0  0
   10.2758    1.5819    0.0720 H   0  0  0  0  0  0  0  0  0  0  0  0
   11.0820   -0.8566    1.7205 H   0  0  0  0  0  0  0  0  0  0  0  0
   12.0635    0.1672    0.6149 H   0  0  0  0  0  0  0  0  0  0  0  0
   10.7813   -0.8486   -0.0101 H   0  0  0  0  0  0  0  0  0  0  0  0
   10.1210    0.2394    3.5858 H   0  0  0  0  0  0  0  0  0  0  0  0
    8.6320    1.1949    3.5025 H   0  0  0  0  0  0  0  0  0  0  0  0
   10.0072    1.7926    4.4021 H   0  0  0  0  0  0  0  0  0  0  0  0
   12.2257    2.7287    1.6132 H   0  0  0  0  0  0  0  0  0  0  0  0
   12.6043    0.5451    2.1547 H   0  0  0  0  0  0  0  0  0  0  0  0
   13.1065    3.6398    3.4971 H   0  0  0  0  0  0  0  0  0  0  0  0
   10.9976    3.0563    5.5552 H   0  0  0  0  0  0  0  0  0  0  0  0
   13.5823    1.4246    5.2363 H   0  0  0  0  0  0  0  0  0  0  0  0
   11.9587    0.7404    5.2005 H   0  0  0  0  0  0  0  0  0  0  0  0
   12.5482    1.5415    6.6921 H   0  0  0  0  0  0  0  0  0  0  0  0
   13.7005    3.7765    5.7251 H   0  0  0  0  0  0  0  0  0  0  0  0
   11.6103    5.0696    2.4577 H   0  0  0  0  0  0  0  0  0  0  0  0
   10.8154    5.4746    5.3823 H   0  0  0  0  0  0  0  0  0  0  0  0
   10.6956    6.6311    4.0360 H   0  0  0  0  0  0  0  0  0  0  0  0
   12.2885    6.0731    4.6178 H   0  0  0  0  0  0  0  0  0  0  0  0
    9.1689    5.2001    2.8418 H   0  0  0  0  0  0  0  0  0  0  0  0
    9.2419    3.8531    3.9668 H   0  0  0  0  0  0  0  0  0  0  0  0
   11.1938    4.3364    0.7575 H   0  0  0  0  0  0  0  0  0  0  0  0
    9.5661    4.9485    0.4567 H   0  0  0  0  0  0  0  0  0  0  0  0
   10.1080    3.4491   -0.2916 H   0  0  0  0  0  0  0  0  0  0  0  0
    7.5735    3.9510    1.3078 H   0  0  0  0  0  0  0  0  0  0  0  0
    7.6008    2.7665    2.5973 H   0  0  0  0  0  0  0  0  0  0  0  0
    8.8523    2.4264   -1.1952 H   0  0  0  0  0  0  0  0  0  0  0  0
    7.3706    3.3683   -0.9633 H   0  0  0  0  0  0  0  0  0  0  0  0
    7.2961    1.6996   -1.5458 H   0  0  0  0  0  0  0  0  0  0  0  0
    5.6006    2.4469    0.7506 H   0  0  0  0  0  0  0  0  0  0  0  0
    6.0881    1.2384    1.9398 H   0  0  0  0  0  0  0  0  0  0  0  0
    5.6331    0.7894   -1.0512 H   0  0  0  0  0  0  0  0  0  0  0  0
  1  2  1  0
  1 33  1  0
  1 34  1  0
  1 35  1  0
  2  3  1  0
  2 36  1  0
  2 37  1  0
  3  4  1  0
  3 38  1  0
  3 39  1  0
  4  5  1  0
  4 32  1  0
  4 40  1  1
  5  6  1  0
  5 41  1  0
  5 42  1  0
  6  7  1  0
  6 43  1  0
  6 44  1  0
  7  8  1  0
  7  9  1  0
  7 45  1  6
  8 46  1  0
  8 47  1  0
  8 48  1  0
  9 10  1  0
  9 32  1  0
  9 49  1  1
 10 11  1  0
 10 12  1  0
 10 50  1  6
 11 51  1  0
 12 13  1  0
 12 29  1  0
 12 52  1  1
 13 14  1  0
 13 15  1  0
 13 53  1  6
 14 54  1  0
 14 55  1  0
 14 56  1  0
 15 16  1  1
 15 17  1  0
 15 26  1  0
 16 57  1  0
 16 58  1  0
 16 59  1  0
 17 18  1  0
 17 19  1  0
 17 60  1  6
 18 61  1  0
 19 20  1  0
 19 23  1  0
 19 62  1  6
 20 21  1  0
 20 22  1  0
 20 63  1  1
 21 64  1  0
 21 65  1  0
 21 66  1  0
 22 67  1  0
 23 24  1  0
 23 25  1  0
 23 68  1  6
 24 69  1  0
 24 70  1  0
 24 71  1  0
 25 26  1  0
 25 72  1  0
 25 73  1  0
 26 27  1  6
 26 28  1  0
 27 74  1  0
 27 75  1  0
 27 76  1  0
 28 29  1  0
 28 77  1  0
 28 78  1  0
 29 30  1  6
 29 31  1  0
 30 79  1  0
 30 80  1  0
 30 81  1  0
 31 32  1  0
 31 82  1  0
 31 83  1  0
 32 84  1  6
M  END

