
     RDKit          3D

 41 44  0  0  0  0  0  0  0  0999 V2000
    3.1577    1.0814    1.3408 O   0  0  0  0  0  0  0  0  0  0  0  0
    3.8209    0.8740    0.1081 C   0  0  1  0  0  0  0  0  0  0  0  0
    4.6208    1.6242   -0.0413 H   0  0  0  0  0  0  0  0  0  0  0  0
    4.4564   -0.5285    0.1126 C   0  0  0  0  0  0  0  0  0  0  0  0
    5.0380   -0.9553   -1.1489 N   0  0  0  0  0  0  0  0  0  0  0  0
    4.0739   -1.5079   -2.0954 C   0  0  0  0  0  0  0  0  0  0  0  0
    3.4366   -0.4428   -3.0145 C   0  0  0  0  0  0  0  0  0  0  0  0
    3.3778    0.9732   -2.4260 C   0  0  0  0  0  0  0  0  0  0  0  0
    2.7716    1.0803   -1.0079 C   0  0  2  0  0  0  0  0  0  0  0  0
    2.0172    0.2876   -0.8930 H   0  0  0  0  0  0  0  0  0  0  0  0
    2.0416    2.3320   -0.8048 N   0  0  0  0  0  0  0  0  0  0  0  0
    2.5374    3.6255   -0.9426 C   0  0  0  0  0  0  0  0  0  0  0  0
    3.7870    4.0828   -1.3913 C   0  0  0  0  0  0  0  0  0  0  0  0
    4.0212    5.4563   -1.4383 C   0  0  0  0  0  0  0  0  0  0  0  0
    3.0252    6.3693   -1.0473 C   0  0  0  0  0  0  0  0  0  0  0  0
    3.3670    8.0881   -1.1269 Cl  0  0  0  0  0  0  0  0  0  0  0  0
    1.7808    5.9353   -0.5996 C   0  0  0  0  0  0  0  0  0  0  0  0
    1.5353    4.5566   -0.5434 C   0  0  0  0  0  0  0  0  0  0  0  0
    0.3894    3.7782   -0.1289 C   0  0  0  0  0  0  0  0  0  0  0  0
   -0.8794    4.1259    0.3559 C   0  0  0  0  0  0  0  0  0  0  0  0
   -1.7654    3.1028    0.6794 C   0  0  0  0  0  0  0  0  0  0  0  0
   -3.3618    3.4990    1.2902 Cl  0  0  0  0  0  0  0  0  0  0  0  0
   -1.4079    1.7491    0.5327 C   0  0  0  0  0  0  0  0  0  0  0  0
   -0.1502    1.3935    0.0506 C   0  0  0  0  0  0  0  0  0  0  0  0
    0.7513    2.4125   -0.2890 C   0  0  0  0  0  0  0  0  0  0  0  0
    3.8144    1.2457    2.0283 H   0  0  0  0  0  0  0  0  0  0  0  0
    3.6717   -1.2285    0.4790 H   0  0  0  0  0  0  0  0  0  0  0  0
    5.2498   -0.5181    0.8791 H   0  0  0  0  0  0  0  0  0  0  0  0
    5.7841   -1.6217   -0.9767 H   0  0  0  0  0  0  0  0  0  0  0  0
    3.2709   -2.0571   -1.5564 H   0  0  0  0  0  0  0  0  0  0  0  0
    4.5844   -2.2572   -2.7207 H   0  0  0  0  0  0  0  0  0  0  0  0
    2.4230   -0.7778   -3.2952 H   0  0  0  0  0  0  0  0  0  0  0  0
    4.0080   -0.3792   -3.9553 H   0  0  0  0  0  0  0  0  0  0  0  0
    2.7856    1.6079   -3.1024 H   0  0  0  0  0  0  0  0  0  0  0  0
    4.3982    1.3837   -2.4182 H   0  0  0  0  0  0  0  0  0  0  0  0
    4.5721    3.3963   -1.7047 H   0  0  0  0  0  0  0  0  0  0  0  0
    4.9847    5.8349   -1.7830 H   0  0  0  0  0  0  0  0  0  0  0  0
    1.0214    6.6588   -0.2984 H   0  0  0  0  0  0  0  0  0  0  0  0
   -1.1733    5.1692    0.4823 H   0  0  0  0  0  0  0  0  0  0  0  0
   -2.1282    0.9766    0.8067 H   0  0  0  0  0  0  0  0  0  0  0  0
    0.1118    0.3386   -0.0392 H   0  0  0  0  0  0  0  0  0  0  0  0
  1  2  1  0
  1 26  1  0
  2  3  1  6
  2  4  1  0
  2  9  1  0
  4  5  1  0
  4 27  1  0
  4 28  1  0
  5  6  1  0
  5 29  1  0
  6  7  1  0
  6 30  1  0
  6 31  1  0
  7  8  1  0
  7 32  1  0
  7 33  1  0
  8  9  1  0
  8 34  1  0
  8 35  1  0
  9 10  1  6
  9 11  1  0
 11 12  1  0
 11 25  1  0
 12 13  2  0
 12 18  1  0
 13 14  1  0
 13 36  1  0
 14 15  2  0
 14 37  1  0
 15 16  1  0
 15 17  1  0
 17 18  2  0
 17 38  1  0
 18 19  1  0
 19 20  1  0
 19 25  2  0
 20 21  2  0
 20 39  1  0
 21 22  1  0
 21 23  1  0
 23 24  2  0
 23 40  1  0
 24 25  1  0
 24 41  1  0
M  END

