
     RDKit          3D

 42 43  0  0  0  0  0  0  0  0999 V2000
    1.0856   -0.2126    0.3689 C   0  0  0  0  0  0  0  0  0  0  0  0
    2.5094   -0.0350    0.1385 N   0  0  0  0  0  0  0  0  0  0  0  0
    2.8905   -0.4195   -1.2182 C   0  0  0  0  0  0  0  0  0  0  0  0
    4.4108   -0.4363   -1.4574 C   0  0  0  0  0  0  0  0  0  0  0  0
    4.7592   -0.3973   -2.9343 C   0  0  0  0  0  0  0  0  0  0  0  0
    5.2104   -1.3433   -3.5535 O   0  0  0  0  0  0  0  0  0  0  0  0
    4.5180    0.8225   -3.5450 N   0  0  0  0  0  0  0  0  0  0  0  0
    4.7506    1.0734   -4.8836 C   0  0  0  0  0  0  0  0  0  0  0  0
    5.4155   -0.1236   -5.9633 S   0  0  0  0  0  0  0  0  0  0  0  0
    5.3621    0.9950   -7.2983 C   0  0  0  0  0  0  0  0  0  0  0  0
    4.8645    2.2125   -6.9434 C   0  0  0  0  0  0  0  0  0  0  0  0
    4.5058    2.2750   -5.5516 C   0  0  0  0  0  0  0  0  0  0  0  0
    3.9548    3.4291   -4.9280 C   0  0  0  0  0  0  0  0  0  0  0  0
    3.5014    4.3763   -4.4281 N   0  0  0  0  0  0  0  0  0  0  0  0
    3.0228    1.2414    0.6204 C   0  0  0  0  0  0  0  0  0  0  0  0
    2.7237    2.4470   -0.2909 C   0  0  0  0  0  0  0  0  0  0  0  0
    3.2537    2.5396   -1.3952 O   0  0  0  0  0  0  0  0  0  0  0  0
    1.8283    3.3486    0.2048 N   0  0  0  0  0  0  0  0  0  0  0  0
    1.3334    4.5460   -0.3689 C   0  0  0  0  0  0  0  0  0  0  0  0
    1.7290    5.0163   -1.6321 C   0  0  0  0  0  0  0  0  0  0  0  0
    1.1950    6.2073   -2.1270 C   0  0  0  0  0  0  0  0  0  0  0  0
    0.2748    6.9236   -1.3674 C   0  0  0  0  0  0  0  0  0  0  0  0
   -0.2360    8.0676   -1.8473 F   0  0  0  0  0  0  0  0  0  0  0  0
   -0.1295    6.4747   -0.1114 C   0  0  0  0  0  0  0  0  0  0  0  0
    0.4031    5.2851    0.3830 C   0  0  0  0  0  0  0  0  0  0  0  0
    0.8015   -1.2523    0.1429 H   0  0  0  0  0  0  0  0  0  0  0  0
    0.4394    0.4490   -0.2507 H   0  0  0  0  0  0  0  0  0  0  0  0
    0.8467   -0.0266    1.4285 H   0  0  0  0  0  0  0  0  0  0  0  0
    2.4045    0.2306   -1.9747 H   0  0  0  0  0  0  0  0  0  0  0  0
    2.4981   -1.4348   -1.3927 H   0  0  0  0  0  0  0  0  0  0  0  0
    4.8671   -1.3388   -1.0305 H   0  0  0  0  0  0  0  0  0  0  0  0
    4.8779    0.4424   -0.9909 H   0  0  0  0  0  0  0  0  0  0  0  0
    4.1363    1.5803   -2.9677 H   0  0  0  0  0  0  0  0  0  0  0  0
    5.7069    0.6728   -8.2798 H   0  0  0  0  0  0  0  0  0  0  0  0
    4.7430    3.0557   -7.6234 H   0  0  0  0  0  0  0  0  0  0  0  0
    4.1191    1.1927    0.7134 H   0  0  0  0  0  0  0  0  0  0  0  0
    2.6309    1.4017    1.6378 H   0  0  0  0  0  0  0  0  0  0  0  0
    1.4704    3.1463    1.1309 H   0  0  0  0  0  0  0  0  0  0  0  0
    2.4469    4.4667   -2.2348 H   0  0  0  0  0  0  0  0  0  0  0  0
    1.5006    6.5729   -3.1091 H   0  0  0  0  0  0  0  0  0  0  0  0
   -0.8524    7.0563    0.4635 H   0  0  0  0  0  0  0  0  0  0  0  0
    0.0891    4.9275    1.3685 H   0  0  0  0  0  0  0  0  0  0  0  0
  1  2  1  0
  1 26  1  0
  1 27  1  0
  1 28  1  0
  2  3  1  0
  2 15  1  0
  3  4  1  0
  3 29  1  0
  3 30  1  0
  4  5  1  0
  4 31  1  0
  4 32  1  0
  5  6  2  0
  5  7  1  0
  7  8  1  0
  7 33  1  0
  8  9  1  0
  8 12  2  0
  9 10  1  0
 10 11  2  0
 10 34  1  0
 11 12  1  0
 11 35  1  0
 12 13  1  0
 13 14  3  0
 15 16  1  0
 15 36  1  0
 15 37  1  0
 16 17  2  0
 16 18  1  0
 18 19  1  0
 18 38  1  0
 19 20  2  0
 19 25  1  0
 20 21  1  0
 20 39  1  0
 21 22  2  0
 21 40  1  0
 22 23  1  0
 22 24  1  0
 24 25  2  0
 24 41  1  0
 25 42  1  0
M  END

