
     RDKit          3D

 55 57  0  0  0  0  0  0  0  0999 V2000
    1.8658   -1.0725    1.2072 C   0  0  0  0  0  0  0  0  0  0  0  0
    1.7649    0.4429    1.0720 C   0  0  0  0  0  0  0  0  0  0  0  0
    0.7761    1.0228    1.4790 O   0  0  0  0  0  0  0  0  0  0  0  0
    2.8331    1.1100    0.4693 N   0  0  0  0  0  0  0  0  0  0  0  0
    4.0766    0.4234    0.1026 C   0  0  0  0  0  0  0  0  0  0  0  0
    5.2573    1.0256    0.8599 C   0  0  0  0  0  0  0  0  0  0  0  0
    5.4174    2.4911    0.4595 C   0  0  0  0  0  0  0  0  0  0  0  0
    4.0903    3.2101    0.2999 C   0  0  0  0  0  0  0  0  0  0  0  0
    4.0994    4.5961    0.1110 C   0  0  0  0  0  0  0  0  0  0  0  0
    2.9120    5.3002   -0.0735 C   0  0  0  0  0  0  0  0  0  0  0  0
    2.9790    7.0731   -0.3118 S   0  0  1  0  0  0  0  0  0  0  0  0
    4.2029    7.4023   -1.0487 O   0  0  0  0  0  0  0  0  0  0  0  0
    1.6602    7.4948   -0.8110 O   0  0  0  0  0  0  0  0  0  0  0  0
    3.2360    7.6652    1.2426 N   0  0  0  0  0  0  0  0  0  0  0  0
    2.0760    7.9845    2.0756 C   0  0  0  0  0  0  0  0  0  0  0  0
    2.4496    9.1289    3.0471 C   0  0  1  0  0  0  0  0  0  0  0  0
    3.3479    8.6023    4.1731 C   0  0  0  0  0  0  0  0  0  0  0  0
    3.0870   10.2177    2.2830 N   0  0  0  0  0  0  0  0  0  0  0  0
    2.2264   10.8553    1.2728 C   0  0  0  0  0  0  0  0  0  0  0  0
    1.1992   11.8311    1.8701 C   0  0  0  0  0  0  0  0  0  0  0  0
    1.8999   12.8973    2.7250 C   0  0  0  0  0  0  0  0  0  0  0  0
    2.8547   12.2533    3.7410 C   0  0  0  0  0  0  0  0  0  0  0  0
    3.7932   11.2534    3.0443 C   0  0  0  0  0  0  0  0  0  0  0  0
    1.6869    4.6319   -0.0995 C   0  0  0  0  0  0  0  0  0  0  0  0
    1.6575    3.2533    0.0888 C   0  0  0  0  0  0  0  0  0  0  0  0
    2.8468    2.5260    0.3000 C   0  0  0  0  0  0  0  0  0  0  0  0
    0.9143   -1.4113    1.6336 H   0  0  0  0  0  0  0  0  0  0  0  0
    2.6811   -1.3761    1.8830 H   0  0  0  0  0  0  0  0  0  0  0  0
    2.0234   -1.5714    0.2385 H   0  0  0  0  0  0  0  0  0  0  0  0
    4.2364    0.5236   -0.9868 H   0  0  0  0  0  0  0  0  0  0  0  0
    3.9813   -0.6442    0.3151 H   0  0  0  0  0  0  0  0  0  0  0  0
    6.1779    0.4603    0.6439 H   0  0  0  0  0  0  0  0  0  0  0  0
    5.0651    0.9332    1.9425 H   0  0  0  0  0  0  0  0  0  0  0  0
    5.9590    2.5487   -0.5022 H   0  0  0  0  0  0  0  0  0  0  0  0
    6.0447    3.0303    1.1877 H   0  0  0  0  0  0  0  0  0  0  0  0
    5.0496    5.1351    0.1001 H   0  0  0  0  0  0  0  0  0  0  0  0
    3.8400    8.4936    1.1564 H   0  0  0  0  0  0  0  0  0  0  0  0
    1.7723    7.1029    2.6635 H   0  0  0  0  0  0  0  0  0  0  0  0
    1.2109    8.2697    1.4554 H   0  0  0  0  0  0  0  0  0  0  0  0
    1.4925    9.4488    3.5121 H   0  0  0  0  0  0  0  0  0  0  0  0
    4.3342    8.3004    3.7880 H   0  0  0  0  0  0  0  0  0  0  0  0
    2.8788    7.7184    4.6304 H   0  0  0  0  0  0  0  0  0  0  0  0
    3.4956    9.3411    4.9736 H   0  0  0  0  0  0  0  0  0  0  0  0
    1.7372   10.0888    0.6553 H   0  0  0  0  0  0  0  0  0  0  0  0
    2.8904   11.4138    0.5885 H   0  0  0  0  0  0  0  0  0  0  0  0
    0.4685   11.2772    2.4862 H   0  0  0  0  0  0  0  0  0  0  0  0
    0.6210   12.3020    1.0572 H   0  0  0  0  0  0  0  0  0  0  0  0
    1.1613   13.5391    3.2340 H   0  0  0  0  0  0  0  0  0  0  0  0
    2.4827   13.5622    2.0604 H   0  0  0  0  0  0  0  0  0  0  0  0
    2.2736   11.7332    4.5242 H   0  0  0  0  0  0  0  0  0  0  0  0
    3.4504   13.0255    4.2577 H   0  0  0  0  0  0  0  0  0  0  0  0
    4.4813   10.7905    3.7638 H   0  0  0  0  0  0  0  0  0  0  0  0
    4.4287   11.8037    2.3266 H   0  0  0  0  0  0  0  0  0  0  0  0
    0.7674    5.1900   -0.2816 H   0  0  0  0  0  0  0  0  0  0  0  0
    0.7056    2.7312    0.0824 H   0  0  0  0  0  0  0  0  0  0  0  0
  1  2  1  0
  1 27  1  0
  1 28  1  0
  1 29  1  0
  2  3  2  0
  2  4  1  0
  4  5  1  0
  4 26  1  0
  5  6  1  0
  5 30  1  0
  5 31  1  0
  6  7  1  0
  6 32  1  0
  6 33  1  0
  7  8  1  0
  7 34  1  0
  7 35  1  0
  8  9  1  0
  8 26  2  0
  9 10  2  0
  9 36  1  0
 10 11  1  0
 10 24  1  0
 11 12  2  0
 11 13  2  0
 11 14  1  1
 14 15  1  0
 14 37  1  0
 15 16  1  0
 15 38  1  0
 15 39  1  0
 16 17  1  0
 16 18  1  0
 16 40  1  1
 17 41  1  0
 17 42  1  0
 17 43  1  0
 18 19  1  0
 18 23  1  0
 19 20  1  0
 19 44  1  0
 19 45  1  0
 20 21  1  0
 20 46  1  0
 20 47  1  0
 21 22  1  0
 21 48  1  0
 21 49  1  0
 22 23  1  0
 22 50  1  0
 22 51  1  0
 23 52  1  0
 23 53  1  0
 24 25  2  0
 24 54  1  0
 25 26  1  0
 25 55  1  0
M  END

