
     RDKit          3D

 49 50  0  0  0  0  0  0  0  0999 V2000
    0.9509    2.3539    1.7204 C   0  0  0  0  0  0  0  0  0  0  0  0
    2.4051    1.9477    1.9672 C   0  0  0  0  0  0  0  0  0  0  0  0
    3.0349    1.2170    0.7763 C   0  0  0  0  0  0  0  0  0  0  0  0
    4.5350    0.8933    0.9134 C   0  0  1  0  0  0  0  0  0  0  0  0
    4.8919   -0.0260    2.1023 C   0  0  0  0  0  0  0  0  0  0  0  0
    4.4476   -1.4773    1.8720 C   0  0  0  0  0  0  0  0  0  0  0  0
    4.9678   -2.0117    0.5339 C   0  0  0  0  0  0  0  0  0  0  0  0
    4.6056   -1.1080   -0.5534 N   0  0  0  0  0  0  0  0  0  0  0  0
    4.0832   -1.6473   -1.7192 C   0  0  0  0  0  0  0  0  0  0  0  0
    3.9533   -2.8549   -1.8781 O   0  0  0  0  0  0  0  0  0  0  0  0
    3.7142   -0.7447   -2.7048 N   0  0  0  0  0  0  0  0  0  0  0  0
    3.0071   -1.2281   -3.8975 C   0  0  1  0  0  0  0  0  0  0  0  0
    2.3122   -0.0519   -4.6005 C   0  0  0  0  0  0  0  0  0  0  0  0
    3.2918    0.9219   -5.2753 C   0  0  0  0  0  0  0  0  0  0  0  0
    4.2586    0.2042   -6.2326 C   0  0  2  0  0  0  0  0  0  0  0  0
    3.5417   -0.2207   -7.5232 C   0  0  0  0  0  0  0  0  0  0  0  0
    2.4260    0.1110   -7.8221 O   0  0  0  0  0  0  0  0  0  0  0  0
    4.2648   -0.9891   -8.3705 O   0  0  0  0  0  0  0  0  0  0  0  0
    4.9656   -0.9626   -5.5053 C   0  0  0  0  0  0  0  0  0  0  0  0
    3.9699   -1.9376   -4.8701 C   0  0  0  0  0  0  0  0  0  0  0  0
    5.0895    0.2551   -0.3760 C   0  0  0  0  0  0  0  0  0  0  0  0
    0.5217    2.8707    2.5934 H   0  0  0  0  0  0  0  0  0  0  0  0
    0.3193    1.4742    1.5113 H   0  0  0  0  0  0  0  0  0  0  0  0
    0.8640    3.0336    0.8560 H   0  0  0  0  0  0  0  0  0  0  0  0
    2.4531    1.3105    2.8668 H   0  0  0  0  0  0  0  0  0  0  0  0
    3.0047    2.8463    2.2021 H   0  0  0  0  0  0  0  0  0  0  0  0
    2.9048    1.8469   -0.1244 H   0  0  0  0  0  0  0  0  0  0  0  0
    2.4685    0.2910    0.5741 H   0  0  0  0  0  0  0  0  0  0  0  0
    5.0694    1.8509    1.0532 H   0  0  0  0  0  0  0  0  0  0  0  0
    4.4708    0.3658    3.0416 H   0  0  0  0  0  0  0  0  0  0  0  0
    5.9895   -0.0081    2.2314 H   0  0  0  0  0  0  0  0  0  0  0  0
    3.3467   -1.5492    1.8845 H   0  0  0  0  0  0  0  0  0  0  0  0
    4.8139   -2.1204    2.6897 H   0  0  0  0  0  0  0  0  0  0  0  0
    4.5608   -3.0016    0.2967 H   0  0  0  0  0  0  0  0  0  0  0  0
    6.0723   -2.1105    0.5793 H   0  0  0  0  0  0  0  0  0  0  0  0
    3.4719    0.1910   -2.4039 H   0  0  0  0  0  0  0  0  0  0  0  0
    2.2489   -1.9642   -3.5805 H   0  0  0  0  0  0  0  0  0  0  0  0
    1.6704    0.4898   -3.8833 H   0  0  0  0  0  0  0  0  0  0  0  0
    1.6369   -0.4600   -5.3678 H   0  0  0  0  0  0  0  0  0  0  0  0
    3.8929    1.4488   -4.5145 H   0  0  0  0  0  0  0  0  0  0  0  0
    2.7281    1.6874   -5.8276 H   0  0  0  0  0  0  0  0  0  0  0  0
    5.0298    0.9256   -6.5644 H   0  0  0  0  0  0  0  0  0  0  0  0
    5.1329   -1.1844   -7.9899 H   0  0  0  0  0  0  0  0  0  0  0  0
    5.6052   -0.5337   -4.7167 H   0  0  0  0  0  0  0  0  0  0  0  0
    5.6575   -1.5060   -6.1746 H   0  0  0  0  0  0  0  0  0  0  0  0
    4.4935   -2.7383   -4.3291 H   0  0  0  0  0  0  0  0  0  0  0  0
    3.3668   -2.4268   -5.6556 H   0  0  0  0  0  0  0  0  0  0  0  0
    4.8416    0.8694   -1.2511 H   0  0  0  0  0  0  0  0  0  0  0  0
    6.1974    0.2381   -0.3178 H   0  0  0  0  0  0  0  0  0  0  0  0
  1  2  1  0
  1 22  1  0
  1 23  1  0
  1 24  1  0
  2  3  1  0
  2 25  1  0
  2 26  1  0
  3  4  1  0
  3 27  1  0
  3 28  1  0
  4  5  1  0
  4 21  1  0
  4 29  1  1
  5  6  1  0
  5 30  1  0
  5 31  1  0
  6  7  1  0
  6 32  1  0
  6 33  1  0
  7  8  1  0
  7 34  1  0
  7 35  1  0
  8  9  1  0
  8 21  1  0
  9 10  2  0
  9 11  1  0
 11 12  1  0
 11 36  1  0
 12 13  1  0
 12 20  1  0
 12 37  1  1
 13 14  1  0
 13 38  1  0
 13 39  1  0
 14 15  1  0
 14 40  1  0
 14 41  1  0
 15 16  1  0
 15 19  1  0
 15 42  1  6
 16 17  2  0
 16 18  1  0
 18 43  1  0
 19 20  1  0
 19 44  1  0
 19 45  1  0
 20 46  1  0
 20 47  1  0
 21 48  1  0
 21 49  1  0
M  END

