
     RDKit          3D

 30 31  0  0  0  0  0  0  0  0999 V2000
    1.0241    0.0128   -0.4960 C   0  0  0  0  0  0  0  0  0  0  0  0
    2.4958   -0.0639   -0.1789 C   0  0  0  0  0  0  0  0  0  0  0  0
    3.1251    1.0183    0.5085 C   0  0  0  0  0  0  0  0  0  0  0  0
    4.4654    0.9782    0.8134 C   0  0  0  0  0  0  0  0  0  0  0  0
    5.1879   -0.1123    0.4500 N   0  0  0  0  0  0  0  0  0  0  0  0
    6.5094   -0.3183    0.6605 N   0  0  0  0  0  0  0  0  0  0  0  0
    6.6908   -1.5304    0.1110 C   0  0  0  0  0  0  0  0  0  0  0  0
    7.8963   -2.1638    0.1341 N   0  0  0  0  0  0  0  0  0  0  0  0
    9.1228   -1.4735    0.4626 C   0  0  0  0  0  0  0  0  0  0  0  0
   10.2150   -2.4853    0.7769 C   0  0  1  0  0  0  0  0  0  0  0  0
   10.3512   -3.3385   -0.3428 O   0  0  0  0  0  0  0  0  0  0  0  0
   11.5648   -1.8410    1.0901 C   0  0  0  0  0  0  0  0  0  0  0  0
   12.5707   -2.8384    1.1906 O   0  0  0  0  0  0  0  0  0  0  0  0
    5.5910   -2.1041   -0.4421 N   0  0  0  0  0  0  0  0  0  0  0  0
    4.6369   -1.2027   -0.2240 C   0  0  0  0  0  0  0  0  0  0  0  0
    3.2583   -1.1636   -0.5383 C   0  0  0  0  0  0  0  0  0  0  0  0
    0.7990    0.8894   -1.1266 H   0  0  0  0  0  0  0  0  0  0  0  0
    0.4248    0.1185    0.4242 H   0  0  0  0  0  0  0  0  0  0  0  0
    0.6766   -0.8853   -1.0261 H   0  0  0  0  0  0  0  0  0  0  0  0
    2.5450    1.8952    0.8013 H   0  0  0  0  0  0  0  0  0  0  0  0
    5.0137    1.7637    1.3341 H   0  0  0  0  0  0  0  0  0  0  0  0
    7.9851   -2.9545   -0.4950 H   0  0  0  0  0  0  0  0  0  0  0  0
    8.9420   -0.8247    1.3334 H   0  0  0  0  0  0  0  0  0  0  0  0
    9.4659   -0.8202   -0.3661 H   0  0  0  0  0  0  0  0  0  0  0  0
    9.8920   -3.0720    1.6666 H   0  0  0  0  0  0  0  0  0  0  0  0
   11.2072   -3.7830   -0.2376 H   0  0  0  0  0  0  0  0  0  0  0  0
   11.5026   -1.2182    2.0027 H   0  0  0  0  0  0  0  0  0  0  0  0
   11.8639   -1.1892    0.2536 H   0  0  0  0  0  0  0  0  0  0  0  0
   12.4515   -3.3066    2.0283 H   0  0  0  0  0  0  0  0  0  0  0  0
    2.8271   -2.0164   -1.0645 H   0  0  0  0  0  0  0  0  0  0  0  0
  1  2  1  0
  1 17  1  0
  1 18  1  0
  1 19  1  0
  2  3  1  0
  2 16  2  0
  3  4  2  0
  3 20  1  0
  4  5  1  0
  4 21  1  0
  5  6  1  0
  5 15  1  0
  6  7  2  0
  7  8  1  0
  7 14  1  0
  8  9  1  0
  8 22  1  0
  9 10  1  0
  9 23  1  0
  9 24  1  0
 10 11  1  0
 10 12  1  0
 10 25  1  1
 11 26  1  0
 12 13  1  0
 12 27  1  0
 12 28  1  0
 13 29  1  0
 14 15  2  0
 15 16  1  0
 16 30  1  0
M  END

