
     RDKit          3D

 31 33  0  0  0  0  0  0  0  0999 V2000
    1.4189   -0.8705    0.2201 C   0  0  0  0  0  0  0  0  0  0  0  0
    2.8708   -0.6911   -0.1646 C   0  0  1  0  0  0  0  0  0  0  0  0
    3.3358   -0.8424   -1.5994 C   0  0  0  0  0  0  0  0  0  0  0  0
    3.3171    0.5161   -0.9501 C   0  0  2  0  0  0  0  0  0  0  0  0
    4.5105    1.2667   -0.6402 N   0  0  0  0  0  0  0  0  0  0  0  0
    4.6124    2.6513   -0.6433 C   0  0  0  0  0  0  0  0  0  0  0  0
    3.4839    3.5999   -0.9345 C   0  0  0  0  0  0  0  0  0  0  0  0
    3.4901    4.1671   -2.3527 C   0  0  0  0  0  0  0  0  0  0  0  0
    3.1056    2.9188   -3.6086 Cl  0  0  0  0  0  0  0  0  0  0  0  0
    5.8190    3.0860   -0.3634 N   0  0  0  0  0  0  0  0  0  0  0  0
    6.5763    1.9601   -0.1528 C   0  0  0  0  0  0  0  0  0  0  0  0
    7.9334    1.8543    0.1883 C   0  0  0  0  0  0  0  0  0  0  0  0
    8.4605    0.5851    0.3651 C   0  0  0  0  0  0  0  0  0  0  0  0
    9.7517    0.4534    0.6899 F   0  0  0  0  0  0  0  0  0  0  0  0
    7.6679   -0.5737    0.2155 C   0  0  0  0  0  0  0  0  0  0  0  0
    8.4677   -2.2767    0.4863 Br  0  0  0  0  0  0  0  0  0  0  0  0
    6.3176   -0.4862   -0.1228 C   0  0  0  0  0  0  0  0  0  0  0  0
    5.7791    0.7947   -0.3122 C   0  0  0  0  0  0  0  0  0  0  0  0
    1.1766   -1.9359    0.3673 H   0  0  0  0  0  0  0  0  0  0  0  0
    0.7469   -0.4839   -0.5634 H   0  0  0  0  0  0  0  0  0  0  0  0
    1.1831   -0.3404    1.1575 H   0  0  0  0  0  0  0  0  0  0  0  0
    3.5852   -1.0387    0.5898 H   0  0  0  0  0  0  0  0  0  0  0  0
    2.5853   -1.0221   -2.3750 H   0  0  0  0  0  0  0  0  0  0  0  0
    4.2955   -1.3237   -1.7950 H   0  0  0  0  0  0  0  0  0  0  0  0
    2.5305    1.1796   -1.3086 H   0  0  0  0  0  0  0  0  0  0  0  0
    3.6227    4.4552   -0.2534 H   0  0  0  0  0  0  0  0  0  0  0  0
    2.5020    3.1621   -0.7047 H   0  0  0  0  0  0  0  0  0  0  0  0
    4.4797    4.5719   -2.6013 H   0  0  0  0  0  0  0  0  0  0  0  0
    2.7364    4.9588   -2.4596 H   0  0  0  0  0  0  0  0  0  0  0  0
    8.5626    2.7360    0.3152 H   0  0  0  0  0  0  0  0  0  0  0  0
    5.7376   -1.4013   -0.2205 H   0  0  0  0  0  0  0  0  0  0  0  0
  1  2  1  0
  1 19  1  0
  1 20  1  0
  1 21  1  0
  2  3  1  0
  2  4  1  0
  2 22  1  1
  3  4  1  0
  3 23  1  0
  3 24  1  0
  4  5  1  0
  4 25  1  6
  5  6  1  0
  5 18  1  0
  6  7  1  0
  6 10  2  0
  7  8  1  0
  7 26  1  0
  7 27  1  0
  8  9  1  0
  8 28  1  0
  8 29  1  0
 10 11  1  0
 11 12  1  0
 11 18  2  0
 12 13  2  0
 12 30  1  0
 13 14  1  0
 13 15  1  0
 15 16  1  0
 15 17  2  0
 17 18  1  0
 17 31  1  0
M  END

