
     RDKit          3D

 76 79  0  0  0  0  0  0  0  0999 V2000
    2.9636   -2.6694   -1.7908 C   0  0  0  0  0  0  0  0  0  0  0  0
    3.7510   -3.2416   -2.8100 O   0  0  0  0  0  0  0  0  0  0  0  0
    3.2811   -4.3145   -3.4906 C   0  0  0  0  0  0  0  0  0  0  0  0
    4.1500   -4.8068   -4.5071 C   0  0  0  0  0  0  0  0  0  0  0  0
    3.7772   -5.8808   -5.2735 C   0  0  0  0  0  0  0  0  0  0  0  0
    2.5233   -6.5319   -5.0754 C   0  0  0  0  0  0  0  0  0  0  0  0
    2.2118   -7.5777   -5.8844 N   0  0  0  0  0  0  0  0  0  0  0  0
    1.0479   -8.1645   -5.7134 C   0  0  0  0  0  0  0  0  0  0  0  0
    0.1104   -7.7777   -4.7255 C   0  0  0  0  0  0  0  0  0  0  0  0
    0.4038   -6.7308   -3.8718 C   0  0  0  0  0  0  0  0  0  0  0  0
   -0.5816   -6.3250   -2.7939 C   0  0  1  0  0  0  0  0  0  0  0  0
   -1.8342   -6.8596   -3.0878 F   0  0  0  0  0  0  0  0  0  0  0  0
   -0.2137   -6.7663   -1.3703 C   0  0  0  0  0  0  0  0  0  0  0  0
   -0.1065   -8.2834   -1.1927 C   0  0  0  0  0  0  0  0  0  0  0  0
    0.1480   -8.7467    0.2518 C   0  0  2  0  0  0  0  0  0  0  0  0
    1.0875   -8.2617    0.5852 H   0  0  0  0  0  0  0  0  0  0  0  0
    0.3934  -10.2656    0.3140 C   0  0  0  0  0  0  0  0  0  0  0  0
    0.7522  -10.7144    1.7395 C   0  0  0  0  0  0  0  0  0  0  0  0
   -0.2270  -10.3073    2.7387 N   0  0  0  0  0  0  0  0  0  0  0  0
   -1.3315  -11.2267    2.9802 C   0  0  0  0  0  0  0  0  0  0  0  0
   -0.9380  -12.4449    3.8336 C   0  0  0  0  0  0  0  0  0  0  0  0
   -0.3255  -12.1225    5.2012 C   0  0  0  0  0  0  0  0  0  0  0  0
   -1.2900  -11.4232    6.1788 C   0  0  0  0  0  0  0  0  0  0  0  0
   -0.6840  -11.1773    7.5408 C   0  0  0  0  0  0  0  0  0  0  0  0
   -0.1536   -9.9330    7.9194 C   0  0  0  0  0  0  0  0  0  0  0  0
    0.4251   -9.7403    9.1763 C   0  0  0  0  0  0  0  0  0  0  0  0
    0.4890  -10.7935   10.0932 C   0  0  0  0  0  0  0  0  0  0  0  0
   -0.0315  -12.0317    9.7312 C   0  0  0  0  0  0  0  0  0  0  0  0
    0.0099  -13.0615   10.5829 F   0  0  0  0  0  0  0  0  0  0  0  0
   -0.6061  -12.2189    8.4711 C   0  0  0  0  0  0  0  0  0  0  0  0
   -1.0939  -13.4298    8.1605 F   0  0  0  0  0  0  0  0  0  0  0  0
   -0.5032   -8.8812    2.6785 C   0  0  0  0  0  0  0  0  0  0  0  0
   -0.9314   -8.3272    1.2924 C   0  0  2  0  0  0  0  0  0  0  0  0
   -0.8978   -7.2247    1.3831 H   0  0  0  0  0  0  0  0  0  0  0  0
   -2.3665   -8.7027    0.8740 C   0  0  0  0  0  0  0  0  0  0  0  0
   -3.4586   -8.1212    1.7720 C   0  0  0  0  0  0  0  0  0  0  0  0
   -4.8657   -8.4932    1.3172 C   0  0  0  0  0  0  0  0  0  0  0  0
   -5.1166   -9.2237    0.3999 O   0  0  0  0  0  0  0  0  0  0  0  0
   -5.8683   -7.9403    2.0439 O   0  0  0  0  0  0  0  0  0  0  0  0
    1.6521   -6.0492   -4.0416 C   0  0  0  0  0  0  0  0  0  0  0  0
    2.0582   -4.9253   -3.2613 C   0  0  0  0  0  0  0  0  0  0  0  0
    3.5364   -1.8230   -1.3890 H   0  0  0  0  0  0  0  0  0  0  0  0
    2.7650   -3.3874   -0.9744 H   0  0  0  0  0  0  0  0  0  0  0  0
    1.9981   -2.2972   -2.1790 H   0  0  0  0  0  0  0  0  0  0  0  0
    5.1053   -4.2984   -4.6526 H   0  0  0  0  0  0  0  0  0  0  0  0
    4.4218   -6.2712   -6.0632 H   0  0  0  0  0  0  0  0  0  0  0  0
    0.8093   -9.0007   -6.3826 H   0  0  0  0  0  0  0  0  0  0  0  0
   -0.8432   -8.2998   -4.6415 H   0  0  0  0  0  0  0  0  0  0  0  0
   -0.7014   -5.2271   -2.8098 H   0  0  0  0  0  0  0  0  0  0  0  0
   -0.9928   -6.3539   -0.7080 H   0  0  0  0  0  0  0  0  0  0  0  0
    0.7341   -6.2837   -1.0789 H   0  0  0  0  0  0  0  0  0  0  0  0
    0.7193   -8.6611   -1.8187 H   0  0  0  0  0  0  0  0  0  0  0  0
   -1.0197   -8.7582   -1.5864 H   0  0  0  0  0  0  0  0  0  0  0  0
    1.2115  -10.5395   -0.3745 H   0  0  0  0  0  0  0  0  0  0  0  0
   -0.5014  -10.8069   -0.0408 H   0  0  0  0  0  0  0  0  0  0  0  0
    1.7324  -10.2755    2.0097 H   0  0  0  0  0  0  0  0  0  0  0  0
    0.8832  -11.8065    1.7805 H   0  0  0  0  0  0  0  0  0  0  0  0
   -1.7986  -11.6020    2.0440 H   0  0  0  0  0  0  0  0  0  0  0  0
   -2.1254  -10.6654    3.4991 H   0  0  0  0  0  0  0  0  0  0  0  0
   -0.2232  -13.0675    3.2681 H   0  0  0  0  0  0  0  0  0  0  0  0
   -1.8383  -13.0732    3.9612 H   0  0  0  0  0  0  0  0  0  0  0  0
    0.5633  -11.4869    5.0581 H   0  0  0  0  0  0  0  0  0  0  0  0
    0.0227  -13.0601    5.6650 H   0  0  0  0  0  0  0  0  0  0  0  0
   -2.1977  -12.0403    6.2899 H   0  0  0  0  0  0  0  0  0  0  0  0
   -1.6101  -10.4549    5.7630 H   0  0  0  0  0  0  0  0  0  0  0  0
   -0.2020   -9.1034    7.2094 H   0  0  0  0  0  0  0  0  0  0  0  0
    0.8293   -8.7627    9.4484 H   0  0  0  0  0  0  0  0  0  0  0  0
    0.9323  -10.6773   11.0841 H   0  0  0  0  0  0  0  0  0  0  0  0
    0.4212   -8.3449    2.9697 H   0  0  0  0  0  0  0  0  0  0  0  0
   -1.2509   -8.6323    3.4486 H   0  0  0  0  0  0  0  0  0  0  0  0
   -2.4975   -9.7938    0.8258 H   0  0  0  0  0  0  0  0  0  0  0  0
   -2.5615   -8.3456   -0.1487 H   0  0  0  0  0  0  0  0  0  0  0  0
   -3.3871   -7.0177    1.8109 H   0  0  0  0  0  0  0  0  0  0  0  0
   -3.3549   -8.4626    2.8178 H   0  0  0  0  0  0  0  0  0  0  0  0
   -5.5096   -7.3747    2.7424 H   0  0  0  0  0  0  0  0  0  0  0  0
    1.3963   -4.5416   -2.4876 H   0  0  0  0  0  0  0  0  0  0  0  0
  1  2  1  0
  1 42  1  0
  1 43  1  0
  1 44  1  0
  2  3  1  0
  3  4  2  0
  3 41  1  0
  4  5  1  0
  4 45  1  0
  5  6  2  0
  5 46  1  0
  6  7  1  0
  6 40  1  0
  7  8  2  0
  8  9  1  0
  8 47  1  0
  9 10  2  0
  9 48  1  0
 10 11  1  0
 10 40  1  0
 11 12  1  0
 11 13  1  0
 11 49  1  1
 13 14  1  0
 13 50  1  0
 13 51  1  0
 14 15  1  0
 14 52  1  0
 14 53  1  0
 15 16  1  1
 15 17  1  0
 15 33  1  0
 17 18  1  0
 17 54  1  0
 17 55  1  0
 18 19  1  0
 18 56  1  0
 18 57  1  0
 19 20  1  0
 19 32  1  0
 20 21  1  0
 20 58  1  0
 20 59  1  0
 21 22  1  0
 21 60  1  0
 21 61  1  0
 22 23  1  0
 22 62  1  0
 22 63  1  0
 23 24  1  0
 23 64  1  0
 23 65  1  0
 24 25  2  0
 24 30  1  0
 25 26  1  0
 25 66  1  0
 26 27  2  0
 26 67  1  0
 27 28  1  0
 27 68  1  0
 28 29  1  0
 28 30  2  0
 30 31  1  0
 32 33  1  0
 32 69  1  0
 32 70  1  0
 33 34  1  1
 33 35  1  0
 35 36  1  0
 35 71  1  0
 35 72  1  0
 36 37  1  0
 36 73  1  0
 36 74  1  0
 37 38  2  0
 37 39  1  0
 39 75  1  0
 40 41  2  0
 41 76  1  0
M  END

