
     RDKit          3D

 48 49  0  0  0  0  0  0  0  0999 V2000
    0.9765    0.1280    0.3835 C   0  0  0  0  0  0  0  0  0  0  0  0
    2.4062    0.0862   -0.1717 C   0  0  1  0  0  0  0  0  0  0  0  0
    2.4231   -0.7846   -1.4501 C   0  0  0  0  0  0  0  0  0  0  0  0
    3.7163   -1.5443   -1.7649 C   0  0  0  0  0  0  0  0  0  0  0  0
    4.9297   -0.7521   -1.6119 N   0  0  0  0  0  0  0  0  0  0  0  0
    6.1903   -1.4013   -2.0198 C   0  0  1  0  0  0  0  0  0  0  0  0
    6.4826   -2.6250   -1.1359 C   0  0  0  0  0  0  0  0  0  0  0  0
    7.8313   -3.3272   -1.3630 C   0  0  0  0  0  0  0  0  0  0  0  0
    7.9202   -4.1229   -2.6761 C   0  0  0  0  0  0  0  0  0  0  0  0
    8.2890   -3.3223   -3.9402 C   0  0  0  0  0  0  0  0  0  0  0  0
    7.7270   -1.8925   -4.0431 C   0  0  0  0  0  0  0  0  0  0  0  0
    6.2881   -1.6754   -3.5429 C   0  0  0  0  0  0  0  0  0  0  0  0
    4.8084    0.6546   -1.9594 C   0  0  0  0  0  0  0  0  0  0  0  0
    4.3443    1.5484   -0.7876 C   0  0  2  0  0  0  0  0  0  0  0  0
    5.2696    1.3337    0.4569 C   0  0  0  0  0  0  0  0  0  0  0  0
    6.6654    1.6810    0.2043 C   0  0  0  0  0  0  0  0  0  0  0  0
    7.7659    1.9586   -0.0351 N   0  0  0  0  0  0  0  0  0  0  0  0
    2.9250    1.4391   -0.4663 N   0  0  0  0  0  0  0  0  0  0  0  0
    2.4573    2.5289    0.3727 C   0  0  0  0  0  0  0  0  0  0  0  0
    0.6293   -0.8999    0.5661 H   0  0  0  0  0  0  0  0  0  0  0  0
    0.2839    0.5950   -0.3362 H   0  0  0  0  0  0  0  0  0  0  0  0
    0.9033    0.6696    1.3372 H   0  0  0  0  0  0  0  0  0  0  0  0
    3.0319   -0.4164    0.5996 H   0  0  0  0  0  0  0  0  0  0  0  0
    2.1339   -0.1310   -2.2879 H   0  0  0  0  0  0  0  0  0  0  0  0
    1.6305   -1.5467   -1.3741 H   0  0  0  0  0  0  0  0  0  0  0  0
    3.6083   -1.9623   -2.7906 H   0  0  0  0  0  0  0  0  0  0  0  0
    3.7802   -2.4151   -1.0906 H   0  0  0  0  0  0  0  0  0  0  0  0
    6.9793   -0.6640   -1.7902 H   0  0  0  0  0  0  0  0  0  0  0  0
    5.6877   -3.3806   -1.2659 H   0  0  0  0  0  0  0  0  0  0  0  0
    6.4176   -2.2892   -0.0872 H   0  0  0  0  0  0  0  0  0  0  0  0
    7.9788   -4.0276   -0.5238 H   0  0  0  0  0  0  0  0  0  0  0  0
    8.6613   -2.6011   -1.2919 H   0  0  0  0  0  0  0  0  0  0  0  0
    6.9513   -4.6313   -2.8296 H   0  0  0  0  0  0  0  0  0  0  0  0
    8.6574   -4.9355   -2.5620 H   0  0  0  0  0  0  0  0  0  0  0  0
    7.9646   -3.9059   -4.8198 H   0  0  0  0  0  0  0  0  0  0  0  0
    9.3882   -3.2576   -4.0213 H   0  0  0  0  0  0  0  0  0  0  0  0
    7.7942   -1.5799   -5.0987 H   0  0  0  0  0  0  0  0  0  0  0  0
    8.3873   -1.1970   -3.4951 H   0  0  0  0  0  0  0  0  0  0  0  0
    5.6482   -2.5281   -3.8314 H   0  0  0  0  0  0  0  0  0  0  0  0
    5.8712   -0.7962   -4.0623 H   0  0  0  0  0  0  0  0  0  0  0  0
    4.1426    0.8444   -2.8234 H   0  0  0  0  0  0  0  0  0  0  0  0
    5.8015    1.0225   -2.2571 H   0  0  0  0  0  0  0  0  0  0  0  0
    4.4964    2.5878   -1.1265 H   0  0  0  0  0  0  0  0  0  0  0  0
    5.2291    0.2749    0.7553 H   0  0  0  0  0  0  0  0  0  0  0  0
    4.9129    1.9416    1.3030 H   0  0  0  0  0  0  0  0  0  0  0  0
    2.9001    3.4709    0.0130 H   0  0  0  0  0  0  0  0  0  0  0  0
    2.7140    2.4381    1.4527 H   0  0  0  0  0  0  0  0  0  0  0  0
    1.3669    2.6459    0.3069 H   0  0  0  0  0  0  0  0  0  0  0  0
  1  2  1  0
  1 20  1  0
  1 21  1  0
  1 22  1  0
  2  3  1  0
  2 18  1  0
  2 23  1  1
  3  4  1  0
  3 24  1  0
  3 25  1  0
  4  5  1  0
  4 26  1  0
  4 27  1  0
  5  6  1  0
  5 13  1  0
  6  7  1  0
  6 12  1  0
  6 28  1  1
  7  8  1  0
  7 29  1  0
  7 30  1  0
  8  9  1  0
  8 31  1  0
  8 32  1  0
  9 10  1  0
  9 33  1  0
  9 34  1  0
 10 11  1  0
 10 35  1  0
 10 36  1  0
 11 12  1  0
 11 37  1  0
 11 38  1  0
 12 39  1  0
 12 40  1  0
 13 14  1  0
 13 41  1  0
 13 42  1  0
 14 15  1  0
 14 18  1  0
 14 43  1  6
 15 16  1  0
 15 44  1  0
 15 45  1  0
 16 17  3  0
 18 19  1  0
 19 46  1  0
 19 47  1  0
 19 48  1  0
M  END

