
     RDKit          3D

 27 28  0  0  0  0  0  0  0  0999 V2000
    1.7734   -0.7505   -1.8344 N   0  0  0  0  0  0  0  0  0  0  0  0
    2.7439   -0.4246   -0.9082 C   0  0  0  0  0  0  0  0  0  0  0  0
    3.6594    0.5110   -1.1337 N   0  0  0  0  0  0  0  0  0  0  0  0
    4.3769    0.6070    0.0165 N   0  0  0  0  0  0  0  0  0  0  0  0
    5.5028    1.5036    0.0725 C   0  0  0  0  0  0  0  0  0  0  0  0
    6.8574    0.7971   -0.0944 C   0  0  1  0  0  0  0  0  0  0  0  0
    7.0068   -0.0802    0.9526 F   0  0  0  0  0  0  0  0  0  0  0  0
    6.8250    0.0467   -1.2302 F   0  0  0  0  0  0  0  0  0  0  0  0
    8.0288    1.7557   -0.1323 C   0  0  0  0  0  0  0  0  0  0  0  0
    8.6688    2.1379    1.0542 C   0  0  0  0  0  0  0  0  0  0  0  0
    9.7209    3.0566    1.0162 C   0  0  0  0  0  0  0  0  0  0  0  0
   10.1379    3.5962   -0.2042 C   0  0  0  0  0  0  0  0  0  0  0  0
    9.5024    3.2124   -1.3893 C   0  0  0  0  0  0  0  0  0  0  0  0
    8.4501    2.2945   -1.3557 C   0  0  0  0  0  0  0  0  0  0  0  0
    3.9514   -0.2651    0.9662 C   0  0  0  0  0  0  0  0  0  0  0  0
    2.8879   -0.9513    0.4101 C   0  0  0  0  0  0  0  0  0  0  0  0
    1.8373   -2.2989    1.2025 Br  0  0  0  0  0  0  0  0  0  0  0  0
    2.0038   -0.4835   -2.7858 H   0  0  0  0  0  0  0  0  0  0  0  0
    1.4156   -1.6968   -1.7591 H   0  0  0  0  0  0  0  0  0  0  0  0
    5.5176    2.0454    1.0307 H   0  0  0  0  0  0  0  0  0  0  0  0
    5.3756    2.2319   -0.7385 H   0  0  0  0  0  0  0  0  0  0  0  0
    8.3524    1.7029    2.0043 H   0  0  0  0  0  0  0  0  0  0  0  0
   10.2206    3.3473    1.9436 H   0  0  0  0  0  0  0  0  0  0  0  0
   10.9619    4.3137   -0.2325 H   0  0  0  0  0  0  0  0  0  0  0  0
    9.8307    3.6259   -2.3461 H   0  0  0  0  0  0  0  0  0  0  0  0
    7.9606    1.9826   -2.2806 H   0  0  0  0  0  0  0  0  0  0  0  0
    4.4234   -0.3475    1.9414 H   0  0  0  0  0  0  0  0  0  0  0  0
  1  2  1  0
  1 18  1  0
  1 19  1  0
  2  3  2  0
  2 16  1  0
  3  4  1  0
  4  5  1  0
  4 15  1  0
  5  6  1  0
  5 20  1  0
  5 21  1  0
  6  7  1  1
  6  8  1  0
  6  9  1  0
  9 10  2  0
  9 14  1  0
 10 11  1  0
 10 22  1  0
 11 12  2  0
 11 23  1  0
 12 13  1  0
 12 24  1  0
 13 14  2  0
 13 25  1  0
 14 26  1  0
 15 16  2  0
 15 27  1  0
 16 17  1  0
M  END

