
     RDKit          3D

 29 29  0  0  0  0  0  0  0  0999 V2000
    1.2087   -0.1911    0.4024 F   0  0  0  0  0  0  0  0  0  0  0  0
    2.5420   -0.2268    0.2902 C   0  0  0  0  0  0  0  0  0  0  0  0
    3.1983    0.7729   -0.4244 C   0  0  0  0  0  0  0  0  0  0  0  0
    4.5869    0.7168   -0.5229 C   0  0  0  0  0  0  0  0  0  0  0  0
    5.3432   -0.3092    0.0717 C   0  0  0  0  0  0  0  0  0  0  0  0
    6.8522   -0.3306   -0.1135 C   0  0  0  0  0  0  0  0  0  0  0  0
    7.4575    0.9985   -0.0862 N   0  0  0  0  0  0  0  0  0  0  0  0
    7.5157    1.6310    1.2278 C   0  0  0  0  0  0  0  0  0  0  0  0
    7.2288    3.1271    1.1325 C   0  0  0  0  0  0  0  0  0  0  0  0
    7.3824    3.9874    2.8952 Br  0  0  0  0  0  0  0  0  0  0  0  0
    8.6289    1.1666   -0.9154 C   0  0  0  0  0  0  0  0  0  0  0  0
    8.2989    1.7533   -2.2811 C   0  0  1  0  0  0  0  0  0  0  0  0
    7.7411    2.9723   -2.1774 F   0  0  0  0  0  0  0  0  0  0  0  0
    9.4111    1.8751   -3.0242 F   0  0  0  0  0  0  0  0  0  0  0  0
    7.4358    0.9767   -2.9632 F   0  0  0  0  0  0  0  0  0  0  0  0
    4.6335   -1.2976    0.7751 C   0  0  0  0  0  0  0  0  0  0  0  0
    5.5331   -2.7696    1.6106 Br  0  0  0  0  0  0  0  0  0  0  0  0
    3.2399   -1.2676    0.8935 C   0  0  0  0  0  0  0  0  0  0  0  0
    2.6207    1.5730   -0.8906 H   0  0  0  0  0  0  0  0  0  0  0  0
    5.1237    1.4899   -1.0760 H   0  0  0  0  0  0  0  0  0  0  0  0
    7.0658   -0.7770   -1.0979 H   0  0  0  0  0  0  0  0  0  0  0  0
    7.3078   -1.0030    0.6380 H   0  0  0  0  0  0  0  0  0  0  0  0
    8.4925    1.4680    1.7280 H   0  0  0  0  0  0  0  0  0  0  0  0
    6.7533    1.1684    1.8712 H   0  0  0  0  0  0  0  0  0  0  0  0
    6.2085    3.3150    0.7772 H   0  0  0  0  0  0  0  0  0  0  0  0
    7.9345    3.6510    0.4761 H   0  0  0  0  0  0  0  0  0  0  0  0
    9.1776    0.2219   -1.0931 H   0  0  0  0  0  0  0  0  0  0  0  0
    9.3456    1.8587   -0.4470 H   0  0  0  0  0  0  0  0  0  0  0  0
    2.6980   -2.0365    1.4445 H   0  0  0  0  0  0  0  0  0  0  0  0
  1  2  1  0
  2  3  2  0
  2 18  1  0
  3  4  1  0
  3 19  1  0
  4  5  2  0
  4 20  1  0
  5  6  1  0
  5 16  1  0
  6  7  1  0
  6 21  1  0
  6 22  1  0
  7  8  1  0
  7 11  1  0
  8  9  1  0
  8 23  1  0
  8 24  1  0
  9 10  1  0
  9 25  1  0
  9 26  1  0
 11 12  1  0
 11 27  1  0
 11 28  1  0
 12 13  1  1
 12 14  1  0
 12 15  1  0
 16 17  1  0
 16 18  2  0
 18 29  1  0
M  END

