
     RDKit          3D

 54 57  0  0  0  0  0  0  0  0999 V2000
    7.3910   11.7077   -1.8018 C   0  0  0  0  0  0  0  0  0  0  0  0
    7.4803   11.5713   -0.3979 O   0  0  0  0  0  0  0  0  0  0  0  0
    6.7988   10.5877    0.2245 C   0  0  0  0  0  0  0  0  0  0  0  0
    5.9696    9.6571   -0.4300 C   0  0  0  0  0  0  0  0  0  0  0  0
    5.3107    8.6829    0.3139 C   0  0  0  0  0  0  0  0  0  0  0  0
    5.4588    8.5981    1.7093 C   0  0  0  0  0  0  0  0  0  0  0  0
    4.6916    7.5431    2.4221 C   0  0  0  0  0  0  0  0  0  0  0  0
    3.8524    6.8627    1.8668 O   0  0  0  0  0  0  0  0  0  0  0  0
    4.9160    7.3140    3.9335 C   0  0  0  0  0  0  0  0  0  0  0  0
    6.2880    7.0008    4.2981 N   0  0  0  0  0  0  0  0  0  0  0  0
    6.9245    5.9388    3.8289 N   0  0  0  0  0  0  0  0  0  0  0  0
    8.1083    5.9533    4.3659 N   0  0  0  0  0  0  0  0  0  0  0  0
    8.1644    7.0517    5.1713 C   0  0  0  0  0  0  0  0  0  0  0  0
    9.3391    7.4235    5.9647 C   0  0  0  0  0  0  0  0  0  0  0  0
    9.3293    8.5472    6.7932 C   0  0  0  0  0  0  0  0  0  0  0  0
   10.4653    8.8796    7.5414 C   0  0  0  0  0  0  0  0  0  0  0  0
   11.6196    8.0953    7.4708 C   0  0  0  0  0  0  0  0  0  0  0  0
   12.7630    8.3311    8.1513 O   0  0  0  0  0  0  0  0  0  0  0  0
   12.8562    9.4388    9.0185 C   0  0  0  0  0  0  0  0  0  0  0  0
   14.2285    9.4734    9.6547 C   0  0  0  0  0  0  0  0  0  0  0  0
   14.5399   10.5059   10.5526 C   0  0  0  0  0  0  0  0  0  0  0  0
   15.7965   10.5657   11.1578 C   0  0  0  0  0  0  0  0  0  0  0  0
   16.7593    9.5915   10.8716 C   0  0  0  0  0  0  0  0  0  0  0  0
   16.4536    8.5621    9.9782 C   0  0  0  0  0  0  0  0  0  0  0  0
   15.1947    8.5004    9.3706 C   0  0  0  0  0  0  0  0  0  0  0  0
   11.6347    6.9468    6.6277 C   0  0  0  0  0  0  0  0  0  0  0  0
   12.7912    6.2423    6.6181 O   0  0  0  0  0  0  0  0  0  0  0  0
   12.8794    5.0901    5.8096 C   0  0  0  0  0  0  0  0  0  0  0  0
   10.5003    6.6252    5.8881 C   0  0  0  0  0  0  0  0  0  0  0  0
    7.0140    7.7280    5.1385 N   0  0  0  0  0  0  0  0  0  0  0  0
    6.2933    9.5371    2.3525 C   0  0  0  0  0  0  0  0  0  0  0  0
    6.9502   10.5181    1.6228 C   0  0  0  0  0  0  0  0  0  0  0  0
    8.0272   12.5607   -2.0717 H   0  0  0  0  0  0  0  0  0  0  0  0
    6.3562   11.9144   -2.1273 H   0  0  0  0  0  0  0  0  0  0  0  0
    7.7581   10.8066   -2.3237 H   0  0  0  0  0  0  0  0  0  0  0  0
    5.8345    9.6881   -1.5111 H   0  0  0  0  0  0  0  0  0  0  0  0
    4.6584    7.9589   -0.1783 H   0  0  0  0  0  0  0  0  0  0  0  0
    4.2652    6.4777    4.2204 H   0  0  0  0  0  0  0  0  0  0  0  0
    4.6387    8.2057    4.5115 H   0  0  0  0  0  0  0  0  0  0  0  0
    8.4327    9.1656    6.8587 H   0  0  0  0  0  0  0  0  0  0  0  0
   10.4403    9.7597    8.1836 H   0  0  0  0  0  0  0  0  0  0  0  0
   12.0777    9.3764    9.8044 H   0  0  0  0  0  0  0  0  0  0  0  0
   12.6751   10.3788    8.4607 H   0  0  0  0  0  0  0  0  0  0  0  0
   13.7920   11.2719   10.7816 H   0  0  0  0  0  0  0  0  0  0  0  0
   16.0257   11.3755   11.8555 H   0  0  0  0  0  0  0  0  0  0  0  0
   17.7436    9.6367   11.3445 H   0  0  0  0  0  0  0  0  0  0  0  0
   17.2006    7.7973    9.7494 H   0  0  0  0  0  0  0  0  0  0  0  0
   14.9492    7.6997    8.6720 H   0  0  0  0  0  0  0  0  0  0  0  0
   13.8887    4.6829    5.9562 H   0  0  0  0  0  0  0  0  0  0  0  0
   12.7393    5.3275    4.7396 H   0  0  0  0  0  0  0  0  0  0  0  0
   12.1371    4.3257    6.1016 H   0  0  0  0  0  0  0  0  0  0  0  0
   10.4829    5.7533    5.2363 H   0  0  0  0  0  0  0  0  0  0  0  0
    6.4410    9.5087    3.4334 H   0  0  0  0  0  0  0  0  0  0  0  0
    7.5967   11.2501    2.1102 H   0  0  0  0  0  0  0  0  0  0  0  0
  1  2  1  0
  1 33  1  0
  1 34  1  0
  1 35  1  0
  2  3  1  0
  3  4  2  0
  3 32  1  0
  4  5  1  0
  4 36  1  0
  5  6  2  0
  5 37  1  0
  6  7  1  0
  6 31  1  0
  7  8  2  0
  7  9  1  0
  9 10  1  0
  9 38  1  0
  9 39  1  0
 10 11  1  0
 10 30  1  0
 11 12  2  0
 12 13  1  0
 13 14  1  0
 13 30  2  0
 14 15  2  0
 14 29  1  0
 15 16  1  0
 15 40  1  0
 16 17  2  0
 16 41  1  0
 17 18  1  0
 17 26  1  0
 18 19  1  0
 19 20  1  0
 19 42  1  0
 19 43  1  0
 20 21  2  0
 20 25  1  0
 21 22  1  0
 21 44  1  0
 22 23  2  0
 22 45  1  0
 23 24  1  0
 23 46  1  0
 24 25  2  0
 24 47  1  0
 25 48  1  0
 26 27  1  0
 26 29  2  0
 27 28  1  0
 28 49  1  0
 28 50  1  0
 28 51  1  0
 29 52  1  0
 31 32  2  0
 31 53  1  0
 32 54  1  0
M  END

