
     RDKit          3D

 41 44  0  0  0  0  0  0  0  0999 V2000
    0.9685    1.4099   -1.0269 O   0  0  0  0  0  0  0  0  0  0  0  0
    1.8642    0.9479   -0.3420 C   0  0  0  0  0  0  0  0  0  0  0  0
    2.2063    1.6258    0.9910 C   0  0  0  0  0  0  0  0  0  0  0  0
    3.2623    0.9354    1.6209 O   0  0  0  0  0  0  0  0  0  0  0  0
    3.7639    1.3258    2.8084 C   0  0  0  0  0  0  0  0  0  0  0  0
    3.3187    2.4137    3.5371 C   0  0  0  0  0  0  0  0  0  0  0  0
    3.9170    2.7387    4.7793 C   0  0  0  0  0  0  0  0  0  0  0  0
    4.9494    1.9823    5.2857 C   0  0  0  0  0  0  0  0  0  0  0  0
    5.6614    2.4192    6.8269 Cl  0  0  0  0  0  0  0  0  0  0  0  0
    5.4431    0.8497    4.5691 C   0  0  0  0  0  0  0  0  0  0  0  0
    6.5021    0.0174    5.0178 C   0  0  0  0  0  0  0  0  0  0  0  0
    6.8997   -1.0513    4.2448 C   0  0  0  0  0  0  0  0  0  0  0  0
    6.2353   -1.2899    3.0160 C   0  0  0  0  0  0  0  0  0  0  0  0
    5.2505   -0.5427    2.5658 N   0  0  0  0  0  0  0  0  0  0  0  0
    4.8427    0.5144    3.3103 C   0  0  0  0  0  0  0  0  0  0  0  0
    2.6331   -0.1403   -0.6224 N   0  0  0  0  0  0  0  0  0  0  0  0
    2.5900   -0.9855   -1.7494 C   0  0  0  0  0  0  0  0  0  0  0  0
    1.6785   -0.8160   -2.8077 C   0  0  0  0  0  0  0  0  0  0  0  0
    1.7147   -1.6957   -3.8896 C   0  0  0  0  0  0  0  0  0  0  0  0
    2.6313   -2.7477   -3.9431 C   0  0  0  0  0  0  0  0  0  0  0  0
    3.5302   -2.9271   -2.8729 C   0  0  0  0  0  0  0  0  0  0  0  0
    3.5079   -2.0467   -1.7909 C   0  0  0  0  0  0  0  0  0  0  0  0
    4.4385   -3.9498   -2.8634 O   0  0  0  0  0  0  0  0  0  0  0  0
    4.1810   -4.9733   -3.8126 C   0  0  0  0  0  0  0  0  0  0  0  0
    3.8075   -4.3670   -5.1555 C   0  0  0  0  0  0  0  0  0  0  0  0
    2.6345   -3.5816   -5.0304 O   0  0  0  0  0  0  0  0  0  0  0  0
    1.2932    1.6299    1.6133 H   0  0  0  0  0  0  0  0  0  0  0  0
    2.4760    2.6760    0.7775 H   0  0  0  0  0  0  0  0  0  0  0  0
    2.5032    3.0363    3.1690 H   0  0  0  0  0  0  0  0  0  0  0  0
    3.5541    3.6003    5.3419 H   0  0  0  0  0  0  0  0  0  0  0  0
    6.9840    0.2403    5.9710 H   0  0  0  0  0  0  0  0  0  0  0  0
    7.7112   -1.7086    4.5643 H   0  0  0  0  0  0  0  0  0  0  0  0
    6.5404   -2.1366    2.3888 H   0  0  0  0  0  0  0  0  0  0  0  0
    3.3318   -0.3619    0.0844 H   0  0  0  0  0  0  0  0  0  0  0  0
    0.9634    0.0021   -2.7738 H   0  0  0  0  0  0  0  0  0  0  0  0
    1.0243   -1.5754   -4.7274 H   0  0  0  0  0  0  0  0  0  0  0  0
    4.2189   -2.2120   -0.9779 H   0  0  0  0  0  0  0  0  0  0  0  0
    3.3600   -5.6233   -3.4553 H   0  0  0  0  0  0  0  0  0  0  0  0
    5.0977   -5.5765   -3.8900 H   0  0  0  0  0  0  0  0  0  0  0  0
    3.5938   -5.1507   -5.8973 H   0  0  0  0  0  0  0  0  0  0  0  0
    4.6441   -3.7462   -5.5296 H   0  0  0  0  0  0  0  0  0  0  0  0
  1  2  2  0
  2  3  1  0
  2 16  1  0
  3  4  1  0
  3 27  1  0
  3 28  1  0
  4  5  1  0
  5  6  2  0
  5 15  1  0
  6  7  1  0
  6 29  1  0
  7  8  2  0
  7 30  1  0
  8  9  1  0
  8 10  1  0
 10 11  1  0
 10 15  2  0
 11 12  2  0
 11 31  1  0
 12 13  1  0
 12 32  1  0
 13 14  2  0
 13 33  1  0
 14 15  1  0
 16 17  1  0
 16 34  1  0
 17 18  2  0
 17 22  1  0
 18 19  1  0
 18 35  1  0
 19 20  2  0
 19 36  1  0
 20 21  1  0
 20 26  1  0
 21 22  2  0
 21 23  1  0
 22 37  1  0
 23 24  1  0
 24 25  1  0
 24 38  1  0
 24 39  1  0
 25 26  1  0
 25 40  1  0
 25 41  1  0
M  END

