
     RDKit          3D

 61 61  0  0  0  0  0  0  0  0999 V2000
    0.9424    0.0585    0.4851 C   0  0  0  0  0  0  0  0  0  0  0  0
    2.4644   -0.0499    0.2910 C   0  0  1  0  0  0  0  0  0  0  0  0
    2.9070   -1.4968    0.5519 C   0  0  0  0  0  0  0  0  0  0  0  0
    2.9383    0.4875   -1.0891 C   0  0  1  0  0  0  0  0  0  0  0  0
    2.3795    1.8903   -1.4137 C   0  0  0  0  0  0  0  0  0  0  0  0
    2.7973    2.9343   -0.4942 N   0  0  0  0  0  0  0  0  0  0  0  0
    3.6788    3.9201   -0.8323 C   0  0  0  0  0  0  0  0  0  0  0  0
    4.2269    4.0221   -1.9136 O   0  0  0  0  0  0  0  0  0  0  0  0
    3.8412    4.7570    0.2193 O   0  0  0  0  0  0  0  0  0  0  0  0
    4.7332    5.9153    0.1562 C   0  0  1  0  0  0  0  0  0  0  0  0
    4.2515    6.8922   -0.9220 C   0  0  0  0  0  0  0  0  0  0  0  0
    4.5884    6.5328    1.5490 C   0  0  0  0  0  0  0  0  0  0  0  0
    6.1758    5.4577   -0.0854 C   0  0  0  0  0  0  0  0  0  0  0  0
    4.4775    0.4864   -1.2609 C   0  0  0  0  0  0  0  0  0  0  0  0
    4.9976   -0.8038   -1.6948 N   0  0  0  0  0  0  0  0  0  0  0  0
    6.4545   -0.9164   -1.7968 C   0  0  1  0  0  0  0  0  0  0  0  0
    6.8577   -2.3850   -2.0210 C   0  0  0  0  0  0  0  0  0  0  0  0
    6.5488   -2.8779   -3.4426 C   0  0  0  0  0  0  0  0  0  0  0  0
    7.1676   -2.0044   -4.5645 C   0  0  2  0  0  0  0  0  0  0  0  0
    6.5968   -2.4434   -5.9232 C   0  0  0  0  0  0  0  0  0  0  0  0
    8.6994   -2.1752   -4.6042 C   0  0  0  0  0  0  0  0  0  0  0  0
    6.7888   -0.5234   -4.3041 C   0  0  0  0  0  0  0  0  0  0  0  0
    7.1120   -0.0337   -2.8858 C   0  0  0  0  0  0  0  0  0  0  0  0
    0.6440   -0.3968    1.4430 H   0  0  0  0  0  0  0  0  0  0  0  0
    0.4011   -0.4768   -0.3144 H   0  0  0  0  0  0  0  0  0  0  0  0
    0.5756    1.0969    0.4947 H   0  0  0  0  0  0  0  0  0  0  0  0
    2.9456    0.5862    1.0594 H   0  0  0  0  0  0  0  0  0  0  0  0
    2.4211   -2.1862   -0.1603 H   0  0  0  0  0  0  0  0  0  0  0  0
    2.6177   -1.8104    1.5687 H   0  0  0  0  0  0  0  0  0  0  0  0
    3.9893   -1.6276    0.4302 H   0  0  0  0  0  0  0  0  0  0  0  0
    2.5162   -0.1807   -1.8661 H   0  0  0  0  0  0  0  0  0  0  0  0
    1.2788    1.8633   -1.4536 H   0  0  0  0  0  0  0  0  0  0  0  0
    2.7270    2.2001   -2.4091 H   0  0  0  0  0  0  0  0  0  0  0  0
    2.4073    2.9741    0.4394 H   0  0  0  0  0  0  0  0  0  0  0  0
    3.2020    7.1737   -0.7418 H   0  0  0  0  0  0  0  0  0  0  0  0
    4.3315    6.4452   -1.9210 H   0  0  0  0  0  0  0  0  0  0  0  0
    4.8605    7.8094   -0.8931 H   0  0  0  0  0  0  0  0  0  0  0  0
    3.5429    6.8202    1.7382 H   0  0  0  0  0  0  0  0  0  0  0  0
    5.2188    7.4306    1.6368 H   0  0  0  0  0  0  0  0  0  0  0  0
    4.8939    5.8143    2.3248 H   0  0  0  0  0  0  0  0  0  0  0  0
    6.2819    4.9981   -1.0761 H   0  0  0  0  0  0  0  0  0  0  0  0
    6.4782    4.7258    0.6802 H   0  0  0  0  0  0  0  0  0  0  0  0
    6.8565    6.3210   -0.0194 H   0  0  0  0  0  0  0  0  0  0  0  0
    4.9545    0.7348   -0.2951 H   0  0  0  0  0  0  0  0  0  0  0  0
    4.7514    1.3146   -1.9451 H   0  0  0  0  0  0  0  0  0  0  0  0
    4.5504   -1.0831   -2.5664 H   0  0  0  0  0  0  0  0  0  0  0  0
    6.8505   -0.5991   -0.8154 H   0  0  0  0  0  0  0  0  0  0  0  0
    6.3371   -3.0162   -1.2832 H   0  0  0  0  0  0  0  0  0  0  0  0
    7.9377   -2.4870   -1.8206 H   0  0  0  0  0  0  0  0  0  0  0  0
    5.4529   -2.9079   -3.5857 H   0  0  0  0  0  0  0  0  0  0  0  0
    6.8884   -3.9221   -3.5589 H   0  0  0  0  0  0  0  0  0  0  0  0
    6.8367   -3.4990   -6.1340 H   0  0  0  0  0  0  0  0  0  0  0  0
    7.0113   -1.8353   -6.7446 H   0  0  0  0  0  0  0  0  0  0  0  0
    5.4995   -2.3378   -5.9500 H   0  0  0  0  0  0  0  0  0  0  0  0
    8.9696   -3.2255   -4.8034 H   0  0  0  0  0  0  0  0  0  0  0  0
    9.1867   -1.8839   -3.6618 H   0  0  0  0  0  0  0  0  0  0  0  0
    9.1398   -1.5601   -5.4063 H   0  0  0  0  0  0  0  0  0  0  0  0
    5.7042   -0.4057   -4.4848 H   0  0  0  0  0  0  0  0  0  0  0  0
    7.2845    0.1221   -5.0499 H   0  0  0  0  0  0  0  0  0  0  0  0
    6.7950    1.0158   -2.7719 H   0  0  0  0  0  0  0  0  0  0  0  0
    8.2040   -0.0349   -2.7258 H   0  0  0  0  0  0  0  0  0  0  0  0
  1  2  1  0
  1 24  1  0
  1 25  1  0
  1 26  1  0
  2  3  1  0
  2  4  1  0
  2 27  1  1
  3 28  1  0
  3 29  1  0
  3 30  1  0
  4  5  1  0
  4 14  1  0
  4 31  1  6
  5  6  1  0
  5 32  1  0
  5 33  1  0
  6  7  1  0
  6 34  1  0
  7  8  2  0
  7  9  1  0
 10  9  1  1
 10 11  1  0
 10 12  1  0
 10 13  1  0
 11 35  1  0
 11 36  1  0
 11 37  1  0
 12 38  1  0
 12 39  1  0
 12 40  1  0
 13 41  1  0
 13 42  1  0
 13 43  1  0
 14 15  1  0
 14 44  1  0
 14 45  1  0
 15 16  1  0
 15 46  1  0
 16 17  1  0
 16 23  1  0
 16 47  1  1
 17 18  1  0
 17 48  1  0
 17 49  1  0
 18 19  1  0
 18 50  1  0
 18 51  1  0
 19 20  1  6
 19 21  1  0
 19 22  1  0
 20 52  1  0
 20 53  1  0
 20 54  1  0
 21 55  1  0
 21 56  1  0
 21 57  1  0
 22 23  1  0
 22 58  1  0
 22 59  1  0
 23 60  1  0
 23 61  1  0
M  END

