
     RDKit          3D

 33 33  0  0  0  0  0  0  0  0999 V2000
    1.1375   -0.6121    0.2066 C   0  0  0  0  0  0  0  0  0  0  0  0
    2.6608   -0.5553    0.0215 C   0  0  1  0  0  0  0  0  0  0  0  0
    3.2806   -1.9340    0.2855 C   0  0  0  0  0  0  0  0  0  0  0  0
    3.0506   -0.0086   -1.3780 C   0  0  1  0  0  0  0  0  0  0  0  0
    2.4875    1.3861   -1.6771 C   0  0  0  0  0  0  0  0  0  0  0  0
    4.5024    0.0082   -1.5583 N   0  0  0  0  0  0  0  0  0  0  0  0
    5.1623   -0.8240   -2.4156 C   0  0  0  0  0  0  0  0  0  0  0  0
    4.6044   -1.6788   -3.0863 O   0  0  0  0  0  0  0  0  0  0  0  0
    6.6616   -0.6443   -2.4929 C   0  0  0  0  0  0  0  0  0  0  0  0
    7.3368    0.5396   -2.1537 C   0  0  0  0  0  0  0  0  0  0  0  0
    8.7225    0.6336   -2.2760 C   0  0  0  0  0  0  0  0  0  0  0  0
    9.4562   -0.4518   -2.7535 C   0  0  0  0  0  0  0  0  0  0  0  0
   10.7733   -0.3378   -2.8331 F   0  0  0  0  0  0  0  0  0  0  0  0
    8.7882   -1.6352   -3.1111 C   0  0  0  0  0  0  0  0  0  0  0  0
    9.5162   -2.8029   -3.6441 N   0  0  0  0  0  0  0  0  0  0  0  0
   10.5872   -2.5989   -4.1867 O   0  0  0  0  0  0  0  0  0  0  0  0
    8.9816   -3.8915   -3.5153 O   0  0  0  0  0  0  0  0  0  0  0  0
    7.4040   -1.7251   -2.9796 C   0  0  0  0  0  0  0  0  0  0  0  0
    0.8845   -1.0493    1.1853 H   0  0  0  0  0  0  0  0  0  0  0  0
    0.6709   -1.2446   -0.5680 H   0  0  0  0  0  0  0  0  0  0  0  0
    0.6665    0.3809    0.1609 H   0  0  0  0  0  0  0  0  0  0  0  0
    3.0656    0.1527    0.7729 H   0  0  0  0  0  0  0  0  0  0  0  0
    2.9332   -2.6721   -0.4559 H   0  0  0  0  0  0  0  0  0  0  0  0
    3.0001   -2.3004    1.2856 H   0  0  0  0  0  0  0  0  0  0  0  0
    4.3791   -1.9086    0.2366 H   0  0  0  0  0  0  0  0  0  0  0  0
    2.6823   -0.7173   -2.1360 H   0  0  0  0  0  0  0  0  0  0  0  0
    2.8209    2.1225   -0.9247 H   0  0  0  0  0  0  0  0  0  0  0  0
    1.3884    1.3884   -1.6812 H   0  0  0  0  0  0  0  0  0  0  0  0
    2.8275    1.7300   -2.6655 H   0  0  0  0  0  0  0  0  0  0  0  0
    5.0412    0.6101   -0.9470 H   0  0  0  0  0  0  0  0  0  0  0  0
    6.7841    1.4172   -1.8106 H   0  0  0  0  0  0  0  0  0  0  0  0
    9.2613    1.5456   -2.0121 H   0  0  0  0  0  0  0  0  0  0  0  0
    6.8950   -2.6458   -3.2645 H   0  0  0  0  0  0  0  0  0  0  0  0
  1  2  1  0
  1 19  1  0
  1 20  1  0
  1 21  1  0
  2  3  1  0
  2  4  1  0
  2 22  1  1
  3 23  1  0
  3 24  1  0
  3 25  1  0
  4  5  1  0
  4  6  1  0
  4 26  1  6
  5 27  1  0
  5 28  1  0
  5 29  1  0
  6  7  1  0
  6 30  1  0
  7  8  2  0
  7  9  1  0
  9 10  2  0
  9 18  1  0
 10 11  1  0
 10 31  1  0
 11 12  2  0
 11 32  1  0
 12 13  1  0
 12 14  1  0
 14 15  1  0
 14 18  2  0
 15 16  2  0
 15 17  1  0
 18 33  1  0
M  CHG  2  15   1  17  -1
M  END

