
     RDKit          3D

 34 35  0  0  0  0  0  0  0  0999 V2000
    6.3901   -3.2867   -2.8311 O   0  0  0  0  0  0  0  0  0  0  0  0
    5.6588   -2.3394   -2.5786 C   0  0  0  0  0  0  0  0  0  0  0  0
    5.9315   -1.0728   -2.9967 N   0  0  0  0  0  0  0  0  0  0  0  0
    5.3396    0.0910   -2.4675 N   0  0  0  0  0  0  0  0  0  0  0  0
    4.7831   -0.1170   -1.1175 C   0  0  2  0  0  0  0  0  0  0  0  0
    5.8808   -0.2929   -0.0601 C   0  0  0  0  0  0  0  0  0  0  0  0
    6.9106    0.8462   -0.0407 C   0  0  0  0  0  0  0  0  0  0  0  0
    7.8773    0.7268    1.1132 C   0  0  0  0  0  0  0  0  0  0  0  0
    9.2445    0.4730    0.9139 C   0  0  0  0  0  0  0  0  0  0  0  0
   10.0872    0.3676    2.0180 C   0  0  0  0  0  0  0  0  0  0  0  0
    9.5401    0.5165    3.2953 C   0  0  0  0  0  0  0  0  0  0  0  0
   10.4118    0.4651    4.5221 C   0  0  1  0  0  0  0  0  0  0  0  0
   11.4534   -0.3697    4.3547 F   0  0  0  0  0  0  0  0  0  0  0  0
   10.9250    1.6752    4.8177 F   0  0  0  0  0  0  0  0  0  0  0  0
    9.7287    0.0538    5.6035 F   0  0  0  0  0  0  0  0  0  0  0  0
    8.1636    0.7576    3.3996 C   0  0  0  0  0  0  0  0  0  0  0  0
    7.3601    0.8596    2.3445 N   0  0  0  0  0  0  0  0  0  0  0  0
    3.7811   -1.2817   -1.1420 C   0  0  0  0  0  0  0  0  0  0  0  0
    4.3991   -2.5646   -1.7236 C   0  0  2  0  0  0  0  0  0  0  0  0
    4.7523   -3.4491   -0.6857 O   0  0  0  0  0  0  0  0  0  0  0  0
    6.8429   -0.9445   -3.4323 H   0  0  0  0  0  0  0  0  0  0  0  0
    4.5912    0.3883   -3.0963 H   0  0  0  0  0  0  0  0  0  0  0  0
    4.2420    0.8184   -0.8939 H   0  0  0  0  0  0  0  0  0  0  0  0
    6.3883   -1.2634   -0.1865 H   0  0  0  0  0  0  0  0  0  0  0  0
    5.3931   -0.3433    0.9262 H   0  0  0  0  0  0  0  0  0  0  0  0
    6.3770    1.8071    0.0609 H   0  0  0  0  0  0  0  0  0  0  0  0
    7.4565    0.8821   -0.9946 H   0  0  0  0  0  0  0  0  0  0  0  0
    9.6397    0.3594   -0.0978 H   0  0  0  0  0  0  0  0  0  0  0  0
   11.1532    0.1655    1.8926 H   0  0  0  0  0  0  0  0  0  0  0  0
    7.7004    0.8662    4.3863 H   0  0  0  0  0  0  0  0  0  0  0  0
    2.9165   -0.9827   -1.7580 H   0  0  0  0  0  0  0  0  0  0  0  0
    3.3950   -1.5134   -0.1374 H   0  0  0  0  0  0  0  0  0  0  0  0
    3.6637   -3.0420   -2.4061 H   0  0  0  0  0  0  0  0  0  0  0  0
    5.4003   -4.0604   -1.0775 H   0  0  0  0  0  0  0  0  0  0  0  0
  1  2  2  0
  2  3  1  0
  2 19  1  0
  3  4  1  0
  3 21  1  0
  4  5  1  0
  4 22  1  0
  5  6  1  0
  5 18  1  0
  5 23  1  1
  6  7  1  0
  6 24  1  0
  6 25  1  0
  7  8  1  0
  7 26  1  0
  7 27  1  0
  8  9  2  0
  8 17  1  0
  9 10  1  0
  9 28  1  0
 10 11  2  0
 10 29  1  0
 11 12  1  0
 11 16  1  0
 12 13  1  6
 12 14  1  0
 12 15  1  0
 16 17  2  0
 16 30  1  0
 18 19  1  0
 18 31  1  0
 18 32  1  0
 19 20  1  0
 19 33  1  6
 20 34  1  0
M  END

