
     RDKit          3D

 50 53  0  0  0  0  0  0  0  0999 V2000
    1.1022    2.8442    0.1307 C   0  0  0  0  0  0  0  0  0  0  0  0
    2.6292    2.7368    0.2592 C   0  0  0  0  0  0  0  0  0  0  0  0
    3.2548    1.8825   -0.8105 C   0  0  0  0  0  0  0  0  0  0  0  0
    3.7235    0.6020   -0.6617 C   0  0  0  0  0  0  0  0  0  0  0  0
    4.3002   -0.0142   -2.1739 S   0  0  0  0  0  0  0  0  0  0  0  0
    3.8739    1.5216   -2.9297 C   0  0  0  0  0  0  0  0  0  0  0  0
    4.1837    1.7809   -4.3891 C   0  0  1  0  0  0  0  0  0  0  0  0
    3.6841    0.6496   -5.3132 C   0  0  0  0  0  0  0  0  0  0  0  0
    2.1636    0.7137   -5.4650 C   0  0  0  0  0  0  0  0  0  0  0  0
    1.7177    2.0853   -5.9684 C   0  0  0  0  0  0  0  0  0  0  0  0
    2.2194    3.1655   -5.1142 N   0  0  0  0  0  0  0  0  0  0  0  0
    1.4410    4.3137   -5.0695 C   0  0  0  0  0  0  0  0  0  0  0  0
    0.3831    4.3761   -5.6828 O   0  0  0  0  0  0  0  0  0  0  0  0
    1.8811    5.5104   -4.2627 C   0  0  0  0  0  0  0  0  0  0  0  0
    1.5607    6.7761   -4.7832 C   0  0  0  0  0  0  0  0  0  0  0  0
    1.8558    7.9271   -4.0603 C   0  0  0  0  0  0  0  0  0  0  0  0
    2.4384    7.8556   -2.7864 C   0  0  0  0  0  0  0  0  0  0  0  0
    2.7359    6.5858   -2.2442 C   0  0  0  0  0  0  0  0  0  0  0  0
    2.4634    5.4330   -2.9905 C   0  0  0  0  0  0  0  0  0  0  0  0
    3.2056    6.4089   -0.9666 O   0  0  0  0  0  0  0  0  0  0  0  0
    4.4124    7.0558   -0.5846 C   0  0  0  0  0  0  0  0  0  0  0  0
    4.2386    8.5458   -0.3237 C   0  0  0  0  0  0  0  0  0  0  0  0
    3.8861    9.3435   -1.5718 C   0  0  0  0  0  0  0  0  0  0  0  0
    2.6066    9.0277   -2.1054 O   0  0  0  0  0  0  0  0  0  0  0  0
    3.6640    3.1428   -4.8956 C   0  0  0  0  0  0  0  0  0  0  0  0
    3.3559    2.3720   -2.0966 N   0  0  0  0  0  0  0  0  0  0  0  0
    0.6912    3.5047    0.9105 H   0  0  0  0  0  0  0  0  0  0  0  0
    0.6226    1.8571    0.2297 H   0  0  0  0  0  0  0  0  0  0  0  0
    0.8180    3.2616   -0.8474 H   0  0  0  0  0  0  0  0  0  0  0  0
    2.8951    2.3280    1.2474 H   0  0  0  0  0  0  0  0  0  0  0  0
    3.0644    3.7481    0.1949 H   0  0  0  0  0  0  0  0  0  0  0  0
    3.7509   -0.0037    0.2424 H   0  0  0  0  0  0  0  0  0  0  0  0
    5.2852    1.8261   -4.4709 H   0  0  0  0  0  0  0  0  0  0  0  0
    4.0063   -0.3341   -4.9348 H   0  0  0  0  0  0  0  0  0  0  0  0
    4.1604    0.7744   -6.3016 H   0  0  0  0  0  0  0  0  0  0  0  0
    1.6802    0.5035   -4.4956 H   0  0  0  0  0  0  0  0  0  0  0  0
    1.8148   -0.0579   -6.1708 H   0  0  0  0  0  0  0  0  0  0  0  0
    0.6260    2.1708   -6.0058 H   0  0  0  0  0  0  0  0  0  0  0  0
    2.0812    2.2361   -7.0067 H   0  0  0  0  0  0  0  0  0  0  0  0
    1.0694    6.8408   -5.7552 H   0  0  0  0  0  0  0  0  0  0  0  0
    1.6185    8.9190   -4.4509 H   0  0  0  0  0  0  0  0  0  0  0  0
    2.6926    4.4677   -2.5341 H   0  0  0  0  0  0  0  0  0  0  0  0
    5.1893    6.8872   -1.3564 H   0  0  0  0  0  0  0  0  0  0  0  0
    4.7371    6.5447    0.3342 H   0  0  0  0  0  0  0  0  0  0  0  0
    5.1811    8.9439    0.0933 H   0  0  0  0  0  0  0  0  0  0  0  0
    3.4541    8.6930    0.4375 H   0  0  0  0  0  0  0  0  0  0  0  0
    4.6609    9.2008   -2.3508 H   0  0  0  0  0  0  0  0  0  0  0  0
    3.8420   10.4174   -1.3361 H   0  0  0  0  0  0  0  0  0  0  0  0
    3.9513    3.9382   -4.2034 H   0  0  0  0  0  0  0  0  0  0  0  0
    4.1815    3.3412   -5.8569 H   0  0  0  0  0  0  0  0  0  0  0  0
  1  2  1  0
  1 27  1  0
  1 28  1  0
  1 29  1  0
  2  3  1  0
  2 30  1  0
  2 31  1  0
  3  4  2  0
  3 26  1  0
  4  5  1  0
  4 32  1  0
  5  6  1  0
  6  7  1  0
  6 26  2  0
  7  8  1  0
  7 25  1  0
  7 33  1  1
  8  9  1  0
  8 34  1  0
  8 35  1  0
  9 10  1  0
  9 36  1  0
  9 37  1  0
 10 11  1  0
 10 38  1  0
 10 39  1  0
 11 12  1  0
 11 25  1  0
 12 13  2  0
 12 14  1  0
 14 15  2  0
 14 19  1  0
 15 16  1  0
 15 40  1  0
 16 17  2  0
 16 41  1  0
 17 18  1  0
 17 24  1  0
 18 19  2  0
 18 20  1  0
 19 42  1  0
 20 21  1  0
 21 22  1  0
 21 43  1  0
 21 44  1  0
 22 23  1  0
 22 45  1  0
 22 46  1  0
 23 24  1  0
 23 47  1  0
 23 48  1  0
 25 49  1  0
 25 50  1  0
M  END

