
     RDKit          3D

 72 77  0  0  0  0  0  0  0  0999 V2000
    3.6625    2.1305    1.9151 O   0  0  0  0  0  0  0  0  0  0  0  0
    3.7368    1.1150    1.2185 C   0  0  0  0  0  0  0  0  0  0  0  0
    4.0117   -0.2367    1.8819 C   0  0  1  0  0  0  0  0  0  0  0  0
    5.0329   -0.5528    1.5799 H   0  0  0  0  0  0  0  0  0  0  0  0
    3.9197   -0.1085    3.2685 O   0  0  0  0  0  0  0  0  0  0  0  0
    3.0478   -1.3089    1.3519 C   0  0  2  0  0  0  0  0  0  0  0  0
    3.5099   -2.6543    1.6591 N   0  0  0  0  0  0  0  0  0  0  0  0
    3.0656   -3.5506    0.6067 C   0  0  0  0  0  0  0  0  0  0  0  0
    3.3114   -2.7181   -0.6467 C   0  0  2  0  0  0  0  0  0  0  0  0
    2.7336   -3.0620   -1.5197 H   0  0  0  0  0  0  0  0  0  0  0  0
    4.6545   -2.7834   -0.9980 F   0  0  0  0  0  0  0  0  0  0  0  0
    2.9316   -1.2892   -0.2023 C   0  0  2  0  0  0  0  0  0  0  0  0
    1.8780   -1.1252   -0.4749 H   0  0  0  0  0  0  0  0  0  0  0  0
    3.7773   -0.1804   -0.8428 C   0  0  0  0  0  0  0  0  0  0  0  0
    3.5934    1.0922   -0.1302 N   0  0  0  0  0  0  0  0  0  0  0  0
    3.3991    2.3561   -0.8733 C   0  0  1  0  0  0  0  0  0  0  0  0
    3.4515    3.1305   -0.0999 H   0  0  0  0  0  0  0  0  0  0  0  0
    4.5411    2.5704   -1.8351 C   0  0  0  0  0  0  0  0  0  0  0  0
    4.5807    2.1304   -3.0750 N   0  0  0  0  0  0  0  0  0  0  0  0
    5.8158    2.4716   -3.5789 C   0  0  0  0  0  0  0  0  0  0  0  0
    6.1946    2.1294   -4.9552 C   0  0  0  0  0  0  0  0  0  0  0  0
    5.2867    1.4469   -5.7863 C   0  0  0  0  0  0  0  0  0  0  0  0
    5.6386    1.1196   -7.0898 C   0  0  0  0  0  0  0  0  0  0  0  0
    4.7513    0.4682   -7.8584 F   0  0  0  0  0  0  0  0  0  0  0  0
    6.8841    1.4465   -7.6242 C   0  0  0  0  0  0  0  0  0  0  0  0
    7.7964    2.1244   -6.8128 C   0  0  0  0  0  0  0  0  0  0  0  0
    7.4453    2.4527   -5.5081 C   0  0  0  0  0  0  0  0  0  0  0  0
    8.3510    3.1087   -4.7519 F   0  0  0  0  0  0  0  0  0  0  0  0
    6.5346    3.1342   -2.5957 C   0  0  0  0  0  0  0  0  0  0  0  0
    5.7200    3.1904   -1.4898 N   0  0  0  0  0  0  0  0  0  0  0  0
    6.0622    3.8428   -0.2199 C   0  0  0  0  0  0  0  0  0  0  0  0
    5.4153    5.2038   -0.0271 C   0  0  0  0  0  0  0  0  0  0  0  0
    5.6464    6.2472   -0.9380 C   0  0  0  0  0  0  0  0  0  0  0  0
    5.0431    7.4932   -0.7535 C   0  0  0  0  0  0  0  0  0  0  0  0
    4.1979    7.7109    0.3410 C   0  0  0  0  0  0  0  0  0  0  0  0
    3.9635    6.6794    1.2533 C   0  0  0  0  0  0  0  0  0  0  0  0
    4.5733    5.4327    1.0720 C   0  0  0  0  0  0  0  0  0  0  0  0
    2.0052    2.4257   -1.5584 C   0  0  1  0  0  0  0  0  0  0  0  0
    0.8510    2.1823   -0.5594 C   0  0  0  0  0  0  0  0  0  0  0  0
    0.6805    3.2776    0.4994 C   0  0  0  0  0  0  0  0  0  0  0  0
    0.3441    4.8874   -0.2703 S   0  0  2  0  0  0  0  0  0  0  0  0
    0.4882    5.9476    0.7383 O   0  0  0  0  0  0  0  0  0  0  0  0
   -0.9054    4.7494   -1.0407 O   0  0  0  0  0  0  0  0  0  0  0  0
    1.7068    5.0002   -1.4648 C   0  0  0  0  0  0  0  0  0  0  0  0
    1.7882    3.7441   -2.3371 C   0  0  0  0  0  0  0  0  0  0  0  0
    3.8561    0.8508    3.4337 H   0  0  0  0  0  0  0  0  0  0  0  0
    2.0599   -1.0754    1.8016 H   0  0  0  0  0  0  0  0  0  0  0  0
    3.3036   -2.9555    2.6070 H   0  0  0  0  0  0  0  0  0  0  0  0
    1.9864   -3.8249    0.6493 H   0  0  0  0  0  0  0  0  0  0  0  0
    3.6509   -4.4835    0.5839 H   0  0  0  0  0  0  0  0  0  0  0  0
    3.5110   -0.0275   -1.8961 H   0  0  0  0  0  0  0  0  0  0  0  0
    4.8388   -0.4706   -0.8314 H   0  0  0  0  0  0  0  0  0  0  0  0
    4.3047    1.1782   -5.3975 H   0  0  0  0  0  0  0  0  0  0  0  0
    7.1243    1.1723   -8.6526 H   0  0  0  0  0  0  0  0  0  0  0  0
    8.7855    2.4054   -7.1789 H   0  0  0  0  0  0  0  0  0  0  0  0
    7.5347    3.5543   -2.5957 H   0  0  0  0  0  0  0  0  0  0  0  0
    7.1588    3.9317   -0.2052 H   0  0  0  0  0  0  0  0  0  0  0  0
    5.7818    3.1796    0.6096 H   0  0  0  0  0  0  0  0  0  0  0  0
    6.2988    6.0847   -1.8007 H   0  0  0  0  0  0  0  0  0  0  0  0
    5.2307    8.2981   -1.4688 H   0  0  0  0  0  0  0  0  0  0  0  0
    3.7161    8.6820    0.4776 H   0  0  0  0  0  0  0  0  0  0  0  0
    3.2842    6.8343    2.0939 H   0  0  0  0  0  0  0  0  0  0  0  0
    4.3787    4.6207    1.7779 H   0  0  0  0  0  0  0  0  0  0  0  0
    1.9714    1.6202   -2.3090 H   0  0  0  0  0  0  0  0  0  0  0  0
    0.9900    1.2211   -0.0408 H   0  0  0  0  0  0  0  0  0  0  0  0
   -0.0895    2.1010   -1.1270 H   0  0  0  0  0  0  0  0  0  0  0  0
    1.5596    3.4027    1.1488 H   0  0  0  0  0  0  0  0  0  0  0  0
   -0.2003    3.1041    1.1364 H   0  0  0  0  0  0  0  0  0  0  0  0
    2.6156    5.2044   -0.8812 H   0  0  0  0  0  0  0  0  0  0  0  0
    1.4674    5.8984   -2.0538 H   0  0  0  0  0  0  0  0  0  0  0  0
    2.5877    3.8754   -3.0806 H   0  0  0  0  0  0  0  0  0  0  0  0
    0.8458    3.6583   -2.9009 H   0  0  0  0  0  0  0  0  0  0  0  0
  1  2  2  0
  2  3  1  0
  2 15  1  0
  3  4  1  1
  3  5  1  0
  3  6  1  0
  5 46  1  0
  6  7  1  0
  6 12  1  0
  6 47  1  1
  7  8  1  0
  7 48  1  0
  8  9  1  0
  8 49  1  0
  8 50  1  0
  9 10  1  6
  9 11  1  0
  9 12  1  0
 12 13  1  1
 12 14  1  0
 14 15  1  0
 14 51  1  0
 14 52  1  0
 15 16  1  0
 16 17  1  1
 16 18  1  0
 16 38  1  0
 18 19  2  0
 18 30  1  0
 19 20  1  0
 20 21  1  0
 20 29  2  0
 21 22  2  0
 21 27  1  0
 22 23  1  0
 22 53  1  0
 23 24  1  0
 23 25  2  0
 25 26  1  0
 25 54  1  0
 26 27  2  0
 26 55  1  0
 27 28  1  0
 29 30  1  0
 29 56  1  0
 30 31  1  0
 31 32  1  0
 31 57  1  0
 31 58  1  0
 32 33  2  0
 32 37  1  0
 33 34  1  0
 33 59  1  0
 34 35  2  0
 34 60  1  0
 35 36  1  0
 35 61  1  0
 36 37  2  0
 36 62  1  0
 37 63  1  0
 38 39  1  0
 38 45  1  0
 38 64  1  6
 39 40  1  0
 39 65  1  0
 39 66  1  0
 41 40  1  1
 40 67  1  0
 40 68  1  0
 41 42  2  0
 41 43  2  0
 41 44  1  0
 44 45  1  0
 44 69  1  0
 44 70  1  0
 45 71  1  0
 45 72  1  0
M  END

