
     RDKit          3D

 44 45  0  0  0  0  0  0  0  0999 V2000
    1.0556    0.1894    0.0999 C   0  0  0  0  0  0  0  0  0  0  0  0
    2.5713   -0.0269    0.1747 C   0  0  1  0  0  0  0  0  0  0  0  0
    3.1816    0.4058   -1.0522 O   0  0  0  0  0  0  0  0  0  0  0  0
    3.1561    0.7570    1.3707 C   0  0  0  0  0  0  0  0  0  0  0  0
    4.6919    0.7585    1.4872 C   0  0  0  0  0  0  0  0  0  0  0  0
    5.1961    1.7060    2.5543 C   0  0  0  0  0  0  0  0  0  0  0  0
    5.3236    1.2884    3.8892 C   0  0  0  0  0  0  0  0  0  0  0  0
    5.7553    2.1716    4.8826 C   0  0  0  0  0  0  0  0  0  0  0  0
    6.0690    3.4948    4.5579 C   0  0  0  0  0  0  0  0  0  0  0  0
    5.9494    3.9249    3.2332 C   0  0  0  0  0  0  0  0  0  0  0  0
    5.5173    3.0373    2.2436 C   0  0  0  0  0  0  0  0  0  0  0  0
    2.9162   -1.5269    0.2600 C   0  0  0  0  0  0  0  0  0  0  0  0
    2.4886   -2.2626   -0.9098 N   0  0  0  0  0  0  0  0  0  0  0  0
    1.4864   -3.2058   -0.8520 C   0  0  0  0  0  0  0  0  0  0  0  0
    0.9652   -3.5592    0.1943 O   0  0  0  0  0  0  0  0  0  0  0  0
    1.1507   -3.7182   -2.0992 N   0  0  0  0  0  0  0  0  0  0  0  0
    0.1808   -4.6861   -2.4147 C   0  0  0  0  0  0  0  0  0  0  0  0
   -0.6526   -5.2955   -1.4572 C   0  0  0  0  0  0  0  0  0  0  0  0
   -1.5958   -6.2450   -1.8558 C   0  0  0  0  0  0  0  0  0  0  0  0
   -1.7133   -6.5917   -3.1984 C   0  0  0  0  0  0  0  0  0  0  0  0
   -2.6242   -7.5073   -3.5720 F   0  0  0  0  0  0  0  0  0  0  0  0
   -0.8993   -6.0039   -4.1627 C   0  0  0  0  0  0  0  0  0  0  0  0
    0.0423   -5.0546   -3.7666 C   0  0  0  0  0  0  0  0  0  0  0  0
    0.8246    1.2632   -0.0046 H   0  0  0  0  0  0  0  0  0  0  0  0
    0.5519   -0.1768    1.0071 H   0  0  0  0  0  0  0  0  0  0  0  0
    0.6302   -0.3387   -0.7657 H   0  0  0  0  0  0  0  0  0  0  0  0
    2.8814    1.3051   -1.2406 H   0  0  0  0  0  0  0  0  0  0  0  0
    2.7073    0.3761    2.3043 H   0  0  0  0  0  0  0  0  0  0  0  0
    2.8132    1.8039    1.2831 H   0  0  0  0  0  0  0  0  0  0  0  0
    5.1108    1.0355    0.5074 H   0  0  0  0  0  0  0  0  0  0  0  0
    5.0546   -0.2579    1.7092 H   0  0  0  0  0  0  0  0  0  0  0  0
    5.0864    0.2531    4.1530 H   0  0  0  0  0  0  0  0  0  0  0  0
    5.8511    1.8234    5.9146 H   0  0  0  0  0  0  0  0  0  0  0  0
    6.4098    4.1862    5.3329 H   0  0  0  0  0  0  0  0  0  0  0  0
    6.1989    4.9556    2.9673 H   0  0  0  0  0  0  0  0  0  0  0  0
    5.4345    3.3814    1.2080 H   0  0  0  0  0  0  0  0  0  0  0  0
    2.4293   -1.9824    1.1326 H   0  0  0  0  0  0  0  0  0  0  0  0
    4.0064   -1.6342    0.3788 H   0  0  0  0  0  0  0  0  0  0  0  0
    2.7574   -1.8515   -1.7969 H   0  0  0  0  0  0  0  0  0  0  0  0
    1.7016   -3.3981   -2.8864 H   0  0  0  0  0  0  0  0  0  0  0  0
   -0.5469   -5.0188   -0.4109 H   0  0  0  0  0  0  0  0  0  0  0  0
   -2.2469   -6.7247   -1.1219 H   0  0  0  0  0  0  0  0  0  0  0  0
   -1.0080   -6.2915   -5.2102 H   0  0  0  0  0  0  0  0  0  0  0  0
    0.6823   -4.5905   -4.5233 H   0  0  0  0  0  0  0  0  0  0  0  0
  1  2  1  0
  1 24  1  0
  1 25  1  0
  1 26  1  0
  2  3  1  6
  2  4  1  0
  2 12  1  0
  3 27  1  0
  4  5  1  0
  4 28  1  0
  4 29  1  0
  5  6  1  0
  5 30  1  0
  5 31  1  0
  6  7  2  0
  6 11  1  0
  7  8  1  0
  7 32  1  0
  8  9  2  0
  8 33  1  0
  9 10  1  0
  9 34  1  0
 10 11  2  0
 10 35  1  0
 11 36  1  0
 12 13  1  0
 12 37  1  0
 12 38  1  0
 13 14  1  0
 13 39  1  0
 14 15  2  0
 14 16  1  0
 16 17  1  0
 16 40  1  0
 17 18  2  0
 17 23  1  0
 18 19  1  0
 18 41  1  0
 19 20  2  0
 19 42  1  0
 20 21  1  0
 20 22  1  0
 22 23  2  0
 22 43  1  0
 23 44  1  0
M  END

