
     RDKit          3D

 53 54  0  0  0  0  0  0  0  0999 V2000
    1.0553   -0.0849    1.7245 C   0  0  0  0  0  0  0  0  0  0  0  0
    2.2641   -0.0121    1.1247 C   0  0  0  0  0  0  0  0  0  0  0  0
    2.4712    0.7557   -0.1797 C   0  0  1  0  0  0  0  0  0  0  0  0
    1.1812    1.1527   -0.9058 C   0  0  0  0  0  0  0  0  0  0  0  0
    3.3212    1.9170    0.0626 N   0  0  0  0  0  0  0  0  0  0  0  0
    4.2958    2.3022   -0.8125 C   0  0  0  0  0  0  0  0  0  0  0  0
    4.6338    1.6622   -1.7905 O   0  0  0  0  0  0  0  0  0  0  0  0
    4.8183    3.4852   -0.4184 O   0  0  0  0  0  0  0  0  0  0  0  0
    5.8801    4.1529   -1.1728 C   0  0  1  0  0  0  0  0  0  0  0  0
    5.3845    4.5016   -2.5805 C   0  0  0  0  0  0  0  0  0  0  0  0
    6.1286    5.4235   -0.3569 C   0  0  0  0  0  0  0  0  0  0  0  0
    7.1366    3.2768   -1.2069 C   0  0  0  0  0  0  0  0  0  0  0  0
    3.4089   -0.6064    1.6815 N   0  0  0  0  0  0  0  0  0  0  0  0
    3.2846   -1.2744    2.9711 C   0  0  0  0  0  0  0  0  0  0  0  0
    4.6151   -0.7442    0.9973 C   0  0  0  0  0  0  0  0  0  0  0  0
    6.1102    0.0155    1.5460 S   0  0  0  0  0  0  0  0  0  0  0  0
    6.9697   -0.7629    0.2355 C   0  0  0  0  0  0  0  0  0  0  0  0
    8.4177   -0.6222    0.0472 C   0  0  0  0  0  0  0  0  0  0  0  0
    9.2440    0.0797    0.9407 C   0  0  0  0  0  0  0  0  0  0  0  0
   10.6108    0.1583    0.6838 C   0  0  0  0  0  0  0  0  0  0  0  0
   11.1139   -0.4686   -0.4610 C   0  0  0  0  0  0  0  0  0  0  0  0
   10.3435   -1.1400   -1.3223 N   0  0  0  0  0  0  0  0  0  0  0  0
    9.0380   -1.2129   -1.0754 C   0  0  0  0  0  0  0  0  0  0  0  0
    6.2024   -1.4863   -0.5434 N   0  0  0  0  0  0  0  0  0  0  0  0
    4.9117   -1.4895   -0.1343 C   0  0  0  0  0  0  0  0  0  0  0  0
    3.9611   -2.1620   -0.8039 O   0  0  0  0  0  0  0  0  0  0  0  0
    4.3451   -2.8287   -2.0011 C   0  0  0  0  0  0  0  0  0  0  0  0
    0.1909    0.4056    1.2829 H   0  0  0  0  0  0  0  0  0  0  0  0
    0.8824   -0.6322    2.6495 H   0  0  0  0  0  0  0  0  0  0  0  0
    3.0405    0.1152   -0.8655 H   0  0  0  0  0  0  0  0  0  0  0  0
    0.5841    1.8713   -0.3224 H   0  0  0  0  0  0  0  0  0  0  0  0
    0.5557    0.2738   -1.1211 H   0  0  0  0  0  0  0  0  0  0  0  0
    1.4465    1.6292   -1.8612 H   0  0  0  0  0  0  0  0  0  0  0  0
    3.0645    2.5683    0.7957 H   0  0  0  0  0  0  0  0  0  0  0  0
    4.4626    5.1019   -2.5244 H   0  0  0  0  0  0  0  0  0  0  0  0
    5.1813    3.5932   -3.1617 H   0  0  0  0  0  0  0  0  0  0  0  0
    6.1471    5.0963   -3.1075 H   0  0  0  0  0  0  0  0  0  0  0  0
    5.2118    6.0294   -0.2947 H   0  0  0  0  0  0  0  0  0  0  0  0
    6.9176    6.0309   -0.8256 H   0  0  0  0  0  0  0  0  0  0  0  0
    6.4441    5.1704    0.6668 H   0  0  0  0  0  0  0  0  0  0  0  0
    6.9629    2.3601   -1.7841 H   0  0  0  0  0  0  0  0  0  0  0  0
    7.4355    2.9982   -0.1845 H   0  0  0  0  0  0  0  0  0  0  0  0
    7.9674    3.8345   -1.6669 H   0  0  0  0  0  0  0  0  0  0  0  0
    2.8778   -0.5881    3.7335 H   0  0  0  0  0  0  0  0  0  0  0  0
    4.2746   -1.6157    3.2973 H   0  0  0  0  0  0  0  0  0  0  0  0
    2.6157   -2.1531    2.9117 H   0  0  0  0  0  0  0  0  0  0  0  0
    8.8230    0.5556    1.8308 H   0  0  0  0  0  0  0  0  0  0  0  0
   11.2794    0.6955    1.3603 H   0  0  0  0  0  0  0  0  0  0  0  0
   12.1853   -0.4258   -0.6900 H   0  0  0  0  0  0  0  0  0  0  0  0
    8.4189   -1.7635   -1.7902 H   0  0  0  0  0  0  0  0  0  0  0  0
    3.4315   -3.2947   -2.3929 H   0  0  0  0  0  0  0  0  0  0  0  0
    5.1041   -3.6017   -1.8022 H   0  0  0  0  0  0  0  0  0  0  0  0
    4.7513   -2.1183   -2.7380 H   0  0  0  0  0  0  0  0  0  0  0  0
  1  2  2  0
  1 28  1  0
  1 29  1  0
  2  3  1  0
  2 13  1  0
  3  4  1  0
  3  5  1  0
  3 30  1  6
  4 31  1  0
  4 32  1  0
  4 33  1  0
  5  6  1  0
  5 34  1  0
  6  7  2  0
  6  8  1  0
  9  8  1  1
  9 10  1  0
  9 11  1  0
  9 12  1  0
 10 35  1  0
 10 36  1  0
 10 37  1  0
 11 38  1  0
 11 39  1  0
 11 40  1  0
 12 41  1  0
 12 42  1  0
 12 43  1  0
 13 14  1  0
 13 15  1  0
 14 44  1  0
 14 45  1  0
 14 46  1  0
 15 16  1  0
 15 25  2  0
 16 17  1  0
 17 18  1  0
 17 24  2  0
 18 19  2  0
 18 23  1  0
 19 20  1  0
 19 47  1  0
 20 21  2  0
 20 48  1  0
 21 22  1  0
 21 49  1  0
 22 23  2  0
 23 50  1  0
 24 25  1  0
 25 26  1  0
 26 27  1  0
 27 51  1  0
 27 52  1  0
 27 53  1  0
M  END

