
     RDKit          3D

 53 55  0  0  0  0  0  0  0  0999 V2000
    2.5606    0.9769   -3.5726 C   0  0  0  0  0  0  0  0  0  0  0  0
    4.3092    1.3613   -3.2244 S   0  0  0  0  0  0  0  0  0  0  0  0
    4.4786    0.6006   -1.5605 C   0  0  0  0  0  0  0  0  0  0  0  0
    4.3429   -0.9193   -1.5904 C   0  0  0  0  0  0  0  0  0  0  0  0
    3.2626   -1.4270   -1.3150 O   0  0  0  0  0  0  0  0  0  0  0  0
    5.4304   -1.6732   -1.9547 N   0  0  0  0  0  0  0  0  0  0  0  0
    5.2732   -3.1199   -2.0485 C   0  0  0  0  0  0  0  0  0  0  0  0
    5.9098   -3.6979   -3.2812 C   0  0  0  0  0  0  0  0  0  0  0  0
    6.6652   -3.0043   -4.1564 C   0  0  0  0  0  0  0  0  0  0  0  0
    7.2415   -3.6216   -5.3780 C   0  0  0  0  0  0  0  0  0  0  0  0
    7.5270   -2.8491   -6.5205 C   0  0  0  0  0  0  0  0  0  0  0  0
    8.0491   -3.4034   -7.6872 C   0  0  0  0  0  0  0  0  0  0  0  0
    8.3228   -4.7827   -7.7531 C   0  0  0  0  0  0  0  0  0  0  0  0
    8.8633   -5.3933   -8.9075 N   0  0  0  0  0  0  0  0  0  0  0  0
    9.1684   -6.8139   -8.9652 C   0  0  0  0  0  0  0  0  0  0  0  0
    9.8173   -6.9588  -10.3551 C   0  0  2  0  0  0  0  0  0  0  0  0
    9.3390   -7.7479  -10.9544 H   0  0  0  0  0  0  0  0  0  0  0  0
   11.3253   -7.1960  -10.3079 C   0  0  0  0  0  0  0  0  0  0  0  0
   11.9209   -7.1817  -11.6218 N   0  0  0  0  0  0  0  0  0  0  0  0
   12.5166   -8.2904  -12.1691 C   0  0  0  0  0  0  0  0  0  0  0  0
   13.0572   -8.1093  -13.5771 C   0  0  0  0  0  0  0  0  0  0  0  0
   12.6175   -9.3449  -11.5662 O   0  0  0  0  0  0  0  0  0  0  0  0
    9.5558   -5.7080  -11.0088 O   0  0  0  0  0  0  0  0  0  0  0  0
    9.0650   -4.7808  -10.1374 C   0  0  0  0  0  0  0  0  0  0  0  0
    8.8665   -3.6397  -10.4547 O   0  0  0  0  0  0  0  0  0  0  0  0
    8.0574   -5.5684   -6.6147 C   0  0  0  0  0  0  0  0  0  0  0  0
    7.5329   -4.9948   -5.4586 C   0  0  0  0  0  0  0  0  0  0  0  0
    6.9291   -1.5317   -3.9019 C   0  0  0  0  0  0  0  0  0  0  0  0
    6.7129   -1.1729   -2.4290 C   0  0  0  0  0  0  0  0  0  0  0  0
    2.3784    1.2732   -4.6155 H   0  0  0  0  0  0  0  0  0  0  0  0
    1.8939    1.5513   -2.9117 H   0  0  0  0  0  0  0  0  0  0  0  0
    2.3568   -0.0962   -3.4536 H   0  0  0  0  0  0  0  0  0  0  0  0
    3.6789    0.9738   -0.9062 H   0  0  0  0  0  0  0  0  0  0  0  0
    5.4420    0.9523   -1.1661 H   0  0  0  0  0  0  0  0  0  0  0  0
    4.1939   -3.3329   -2.0270 H   0  0  0  0  0  0  0  0  0  0  0  0
    5.6946   -3.6107   -1.1453 H   0  0  0  0  0  0  0  0  0  0  0  0
    5.7017   -4.7582   -3.4526 H   0  0  0  0  0  0  0  0  0  0  0  0
    7.3204   -1.7770   -6.5157 H   0  0  0  0  0  0  0  0  0  0  0  0
    8.2414   -2.7759   -8.5539 H   0  0  0  0  0  0  0  0  0  0  0  0
    8.2559   -7.4263   -8.8642 H   0  0  0  0  0  0  0  0  0  0  0  0
    9.8631   -7.1092   -8.1612 H   0  0  0  0  0  0  0  0  0  0  0  0
   11.5349   -8.1843   -9.8717 H   0  0  0  0  0  0  0  0  0  0  0  0
   11.7852   -6.4275   -9.6587 H   0  0  0  0  0  0  0  0  0  0  0  0
   11.8045   -6.3442  -12.1799 H   0  0  0  0  0  0  0  0  0  0  0  0
   12.8650   -7.1147  -14.0050 H   0  0  0  0  0  0  0  0  0  0  0  0
   12.6105   -8.8771  -14.2264 H   0  0  0  0  0  0  0  0  0  0  0  0
   14.1425   -8.2919  -13.5620 H   0  0  0  0  0  0  0  0  0  0  0  0
    8.2667   -6.6382   -6.6130 H   0  0  0  0  0  0  0  0  0  0  0  0
    7.3674   -5.6362   -4.5904 H   0  0  0  0  0  0  0  0  0  0  0  0
    6.2651   -0.9032   -4.5216 H   0  0  0  0  0  0  0  0  0  0  0  0
    7.9630   -1.2771   -4.1892 H   0  0  0  0  0  0  0  0  0  0  0  0
    6.7746   -0.0885   -2.2920 H   0  0  0  0  0  0  0  0  0  0  0  0
    7.5169   -1.6243   -1.8178 H   0  0  0  0  0  0  0  0  0  0  0  0
  1  2  1  0
  1 30  1  0
  1 31  1  0
  1 32  1  0
  2  3  1  0
  3  4  1  0
  3 33  1  0
  3 34  1  0
  4  5  2  0
  4  6  1  0
  6  7  1  0
  6 29  1  0
  7  8  1  0
  7 35  1  0
  7 36  1  0
  8  9  2  0
  8 37  1  0
  9 10  1  0
  9 28  1  0
 10 11  2  0
 10 27  1  0
 11 12  1  0
 11 38  1  0
 12 13  2  0
 12 39  1  0
 13 14  1  0
 13 26  1  0
 14 15  1  0
 14 24  1  0
 15 16  1  0
 15 40  1  0
 15 41  1  0
 16 17  1  6
 16 18  1  0
 16 23  1  0
 18 19  1  0
 18 42  1  0
 18 43  1  0
 19 20  1  0
 19 44  1  0
 20 21  1  0
 20 22  2  0
 21 45  1  0
 21 46  1  0
 21 47  1  0
 23 24  1  0
 24 25  2  0
 26 27  2  0
 26 48  1  0
 27 49  1  0
 28 29  1  0
 28 50  1  0
 28 51  1  0
 29 52  1  0
 29 53  1  0
M  END

