
     RDKit          3D

 44 45  0  0  0  0  0  0  0  0999 V2000
   -0.9444   -6.1225    1.8339 C   0  0  0  0  0  0  0  0  0  0  0  0
    0.6772   -5.3778    2.1856 S   0  0  0  0  0  0  0  0  0  0  0  0
    0.4442   -3.7410    1.3883 C   0  0  0  0  0  0  0  0  0  0  0  0
    1.6864   -2.8605    1.5428 C   0  0  0  0  0  0  0  0  0  0  0  0
    2.9796   -3.4559    0.9838 C   0  0  1  0  0  0  0  0  0  0  0  0
    2.8323   -3.8109   -0.4292 N   0  0  0  0  0  0  0  0  0  0  0  0
    3.6514   -4.7118   -1.0407 C   0  0  0  0  0  0  0  0  0  0  0  0
    4.6132   -5.2087   -0.4571 O   0  0  0  0  0  0  0  0  0  0  0  0
    3.2582   -5.1045   -2.4382 C   0  0  0  0  0  0  0  0  0  0  0  0
    4.1339   -5.1337   -3.4792 C   0  0  0  0  0  0  0  0  0  0  0  0
    5.4867   -4.6433   -3.5122 C   0  0  0  0  0  0  0  0  0  0  0  0
    6.4662   -4.7955   -4.4740 C   0  0  0  0  0  0  0  0  0  0  0  0
    7.6078   -4.0727   -4.0139 C   0  0  0  0  0  0  0  0  0  0  0  0
    7.2435   -3.5208   -2.8154 C   0  0  0  0  0  0  0  0  0  0  0  0
    5.9695   -3.8547   -2.5096 O   0  0  0  0  0  0  0  0  0  0  0  0
    1.8934   -5.4385   -2.5453 N   0  0  0  0  0  0  0  0  0  0  0  0
    1.1612   -5.6640   -3.6926 C   0  0  0  0  0  0  0  0  0  0  0  0
    1.6177   -5.6510   -4.8246 O   0  0  0  0  0  0  0  0  0  0  0  0
   -0.2751   -5.9231   -3.4563 C   0  0  0  0  0  0  0  0  0  0  0  0
   -1.2758   -6.2130   -4.3465 C   0  0  0  0  0  0  0  0  0  0  0  0
   -2.4710   -6.3518   -3.5751 C   0  0  0  0  0  0  0  0  0  0  0  0
   -2.1109   -6.1362   -2.2737 C   0  0  0  0  0  0  0  0  0  0  0  0
   -0.7821   -5.8742   -2.1862 O   0  0  0  0  0  0  0  0  0  0  0  0
    4.1862   -2.5071    1.2139 C   0  0  0  0  0  0  0  0  0  0  0  0
    4.0670   -1.4109    1.6977 O   0  0  0  0  0  0  0  0  0  0  0  0
    5.3646   -3.0079    0.8493 O   0  0  0  0  0  0  0  0  0  0  0  0
   -0.9429   -7.1205    2.2947 H   0  0  0  0  0  0  0  0  0  0  0  0
   -1.1051   -6.2345    0.7506 H   0  0  0  0  0  0  0  0  0  0  0  0
   -1.7626   -5.5314    2.2742 H   0  0  0  0  0  0  0  0  0  0  0  0
   -0.4175   -3.2363    1.8542 H   0  0  0  0  0  0  0  0  0  0  0  0
    0.1943   -3.8996    0.3253 H   0  0  0  0  0  0  0  0  0  0  0  0
    1.8597   -2.6337    2.6051 H   0  0  0  0  0  0  0  0  0  0  0  0
    1.5026   -1.8838    1.0637 H   0  0  0  0  0  0  0  0  0  0  0  0
    3.2173   -4.3979    1.5071 H   0  0  0  0  0  0  0  0  0  0  0  0
    2.1953   -3.2645   -1.0001 H   0  0  0  0  0  0  0  0  0  0  0  0
    3.7612   -5.5130   -4.4298 H   0  0  0  0  0  0  0  0  0  0  0  0
    6.3680   -5.3654   -5.3956 H   0  0  0  0  0  0  0  0  0  0  0  0
    8.5719   -3.9711   -4.5073 H   0  0  0  0  0  0  0  0  0  0  0  0
    7.7550   -2.8875   -2.0949 H   0  0  0  0  0  0  0  0  0  0  0  0
    1.3951   -5.5612   -1.6692 H   0  0  0  0  0  0  0  0  0  0  0  0
   -1.1492   -6.3100   -5.4218 H   0  0  0  0  0  0  0  0  0  0  0  0
   -3.4703   -6.5823   -3.9379 H   0  0  0  0  0  0  0  0  0  0  0  0
   -2.6630   -6.1350   -1.3375 H   0  0  0  0  0  0  0  0  0  0  0  0
    5.2579   -3.9147    0.4589 H   0  0  0  0  0  0  0  0  0  0  0  0
  1  2  1  0
  1 27  1  0
  1 28  1  0
  1 29  1  0
  2  3  1  0
  3  4  1  0
  3 30  1  0
  3 31  1  0
  4  5  1  0
  4 32  1  0
  4 33  1  0
  5  6  1  0
  5 24  1  0
  5 34  1  1
  6  7  1  0
  6 35  1  0
  7  8  2  0
  7  9  1  0
  9 10  2  0
  9 16  1  0
 10 11  1  0
 10 36  1  0
 11 12  2  0
 11 15  1  0
 12 13  1  0
 12 37  1  0
 13 14  2  0
 13 38  1  0
 14 15  1  0
 14 39  1  0
 16 17  1  0
 16 40  1  0
 17 18  2  0
 17 19  1  0
 19 20  2  0
 19 23  1  0
 20 21  1  0
 20 41  1  0
 21 22  2  0
 21 42  1  0
 22 23  1  0
 22 43  1  0
 24 25  2  0
 24 26  1  0
 26 44  1  0
M  END

