
     RDKit          3D

 45 47  0  0  0  0  0  0  0  0999 V2000
    2.0483    0.7732    0.6850 C   0  0  0  0  0  0  0  0  0  0  0  0
    2.3921   -0.2519   -0.2187 O   0  0  0  0  0  0  0  0  0  0  0  0
    3.0313    0.0671   -1.3733 C   0  0  0  0  0  0  0  0  0  0  0  0
    3.3986    1.3693   -1.7465 C   0  0  0  0  0  0  0  0  0  0  0  0
    4.0464    1.5677   -2.9673 C   0  0  0  0  0  0  0  0  0  0  0  0
    4.3465    0.5073   -3.8328 C   0  0  0  0  0  0  0  0  0  0  0  0
    3.9908   -0.8059   -3.4466 C   0  0  0  0  0  0  0  0  0  0  0  0
    3.3376   -1.0028   -2.2265 C   0  0  0  0  0  0  0  0  0  0  0  0
    4.3625   -2.0141   -4.2885 C   0  0  0  0  0  0  0  0  0  0  0  0
    4.7843   -1.6715   -5.7207 C   0  0  0  0  0  0  0  0  0  0  0  0
    5.7002   -0.4470   -5.7390 C   0  0  0  0  0  0  0  0  0  0  0  0
    5.0066    0.8061   -5.1806 C   0  0  2  0  0  0  0  0  0  0  0  0
    5.9436    1.8815   -5.0739 O   0  0  0  0  0  0  0  0  0  0  0  0
    3.9380    1.3638   -6.1522 C   0  0  0  0  0  0  0  0  0  0  0  0
    4.4879    1.7365   -7.4345 N   0  0  0  0  0  0  0  0  0  0  0  0
    4.1145    1.1863   -8.6035 C   0  0  0  0  0  0  0  0  0  0  0  0
    3.2516    0.3294   -8.7634 O   0  0  0  0  0  0  0  0  0  0  0  0
    4.9117    1.7620   -9.7966 C   0  0  0  0  0  0  0  0  0  0  0  0
    5.7937    2.5967   -9.6471 O   0  0  0  0  0  0  0  0  0  0  0  0
    4.5025    1.2249  -10.9635 N   0  0  0  0  0  0  0  0  0  0  0  0
    5.0607    1.5677  -12.2337 C   0  0  1  0  0  0  0  0  0  0  0  0
    5.2232    0.5207  -13.3042 C   0  0  0  0  0  0  0  0  0  0  0  0
    4.1903    1.6151  -13.4617 C   0  0  0  0  0  0  0  0  0  0  0  0
    1.5420    0.2888    1.5310 H   0  0  0  0  0  0  0  0  0  0  0  0
    1.3601    1.5095    0.2316 H   0  0  0  0  0  0  0  0  0  0  0  0
    2.9394    1.3078    1.0618 H   0  0  0  0  0  0  0  0  0  0  0  0
    3.1882    2.2247   -1.1045 H   0  0  0  0  0  0  0  0  0  0  0  0
    4.3441    2.5780   -3.2570 H   0  0  0  0  0  0  0  0  0  0  0  0
    3.0534   -2.0081   -1.9054 H   0  0  0  0  0  0  0  0  0  0  0  0
    3.5294   -2.7362   -4.2898 H   0  0  0  0  0  0  0  0  0  0  0  0
    5.1997   -2.5300   -3.7812 H   0  0  0  0  0  0  0  0  0  0  0  0
    3.9002   -1.4806   -6.3517 H   0  0  0  0  0  0  0  0  0  0  0  0
    5.2970   -2.5349   -6.1744 H   0  0  0  0  0  0  0  0  0  0  0  0
    6.0674   -0.2312   -6.7538 H   0  0  0  0  0  0  0  0  0  0  0  0
    6.5924   -0.6457   -5.1158 H   0  0  0  0  0  0  0  0  0  0  0  0
    6.6550    1.6048   -4.4803 H   0  0  0  0  0  0  0  0  0  0  0  0
    3.4818    2.2438   -5.6701 H   0  0  0  0  0  0  0  0  0  0  0  0
    3.1429    0.6288   -6.3291 H   0  0  0  0  0  0  0  0  0  0  0  0
    5.2540    2.4058   -7.4755 H   0  0  0  0  0  0  0  0  0  0  0  0
    3.7543    0.5388  -10.8790 H   0  0  0  0  0  0  0  0  0  0  0  0
    5.8426    2.3218  -12.1167 H   0  0  0  0  0  0  0  0  0  0  0  0
    4.8633   -0.4888  -13.0815 H   0  0  0  0  0  0  0  0  0  0  0  0
    6.1252    0.5482  -13.9224 H   0  0  0  0  0  0  0  0  0  0  0  0
    3.1373    1.3402  -13.3446 H   0  0  0  0  0  0  0  0  0  0  0  0
    4.3665    2.4115  -14.1905 H   0  0  0  0  0  0  0  0  0  0  0  0
  1  2  1  0
  1 24  1  0
  1 25  1  0
  1 26  1  0
  2  3  1  0
  3  4  2  0
  3  8  1  0
  4  5  1  0
  4 27  1  0
  5  6  2  0
  5 28  1  0
  6  7  1  0
  6 12  1  0
  7  8  2  0
  7  9  1  0
  8 29  1  0
  9 10  1  0
  9 30  1  0
  9 31  1  0
 10 11  1  0
 10 32  1  0
 10 33  1  0
 11 12  1  0
 11 34  1  0
 11 35  1  0
 12 13  1  1
 12 14  1  0
 13 36  1  0
 14 15  1  0
 14 37  1  0
 14 38  1  0
 15 16  1  0
 15 39  1  0
 16 17  2  0
 16 18  1  0
 18 19  2  0
 18 20  1  0
 20 21  1  0
 20 40  1  0
 21 22  1  0
 21 23  1  0
 21 41  1  1
 22 23  1  0
 22 42  1  0
 22 43  1  0
 23 44  1  0
 23 45  1  0
M  END

