
     RDKit          3D

 42 43  0  0  0  0  0  0  0  0999 V2000
    2.5429    5.3822    2.0527 C   0  0  0  0  0  0  0  0  0  0  0  0
    2.2268    4.2258    1.0954 C   0  0  1  0  0  0  0  0  0  0  0  0
    3.3418    3.1753    1.0885 C   0  0  0  0  0  0  0  0  0  0  0  0
    0.8523    3.5796    1.3808 C   0  0  1  0  0  0  0  0  0  0  0  0
    0.7404    3.0194    2.7189 N   0  0  0  0  0  0  0  0  0  0  0  0
    0.4030    1.7185    2.9380 C   0  0  0  0  0  0  0  0  0  0  0  0
    0.2795    0.8891    2.0568 O   0  0  0  0  0  0  0  0  0  0  0  0
    0.1837    1.2922    4.4125 C   0  0  1  0  0  0  0  0  0  0  0  0
    0.3474    2.3592    5.4971 C   0  0  0  0  0  0  0  0  0  0  0  0
   -1.1260    0.6216    4.4920 N   0  0  0  0  0  0  0  0  0  0  0  0
   -1.2154   -0.6814    4.9408 C   0  0  0  0  0  0  0  0  0  0  0  0
   -2.2986   -1.3628    5.0525 N   0  0  0  0  0  0  0  0  0  0  0  0
   -3.4820   -0.7515    4.6798 C   0  0  0  0  0  0  0  0  0  0  0  0
   -4.6956   -1.4628    4.7935 C   0  0  0  0  0  0  0  0  0  0  0  0
   -5.8895   -0.8658    4.4147 C   0  0  0  0  0  0  0  0  0  0  0  0
   -5.9100    0.4513    3.9117 C   0  0  0  0  0  0  0  0  0  0  0  0
   -4.7277    1.1671    3.7916 C   0  0  0  0  0  0  0  0  0  0  0  0
   -3.5092    0.5743    4.1761 C   0  0  0  0  0  0  0  0  0  0  0  0
   -2.2564    1.3178    4.0528 C   0  0  0  0  0  0  0  0  0  0  0  0
   -2.1540    2.4627    3.6137 O   0  0  0  0  0  0  0  0  0  0  0  0
   -0.3144    4.5436    1.0510 C   0  0  0  0  0  0  0  0  0  0  0  0
   -0.1988    5.4043    0.2159 O   0  0  0  0  0  0  0  0  0  0  0  0
   -1.4648    4.3629    1.7011 O   0  0  0  0  0  0  0  0  0  0  0  0
    3.4921    5.8659    1.7736 H   0  0  0  0  0  0  0  0  0  0  0  0
    2.6597    5.0315    3.0936 H   0  0  0  0  0  0  0  0  0  0  0  0
    1.7595    6.1550    2.0263 H   0  0  0  0  0  0  0  0  0  0  0  0
    2.1311    4.6494    0.0838 H   0  0  0  0  0  0  0  0  0  0  0  0
    3.4601    2.7082    2.0807 H   0  0  0  0  0  0  0  0  0  0  0  0
    4.3071    3.6336    0.8207 H   0  0  0  0  0  0  0  0  0  0  0  0
    3.1371    2.3703    0.3650 H   0  0  0  0  0  0  0  0  0  0  0  0
    0.7222    2.7205    0.7015 H   0  0  0  0  0  0  0  0  0  0  0  0
    0.7463    3.6600    3.5024 H   0  0  0  0  0  0  0  0  0  0  0  0
    0.9309    0.5010    4.5752 H   0  0  0  0  0  0  0  0  0  0  0  0
   -0.3954    3.1624    5.3879 H   0  0  0  0  0  0  0  0  0  0  0  0
    1.3595    2.7916    5.4623 H   0  0  0  0  0  0  0  0  0  0  0  0
    0.2177    1.9086    6.4925 H   0  0  0  0  0  0  0  0  0  0  0  0
   -0.2562   -1.1349    5.2177 H   0  0  0  0  0  0  0  0  0  0  0  0
   -4.6580   -2.4824    5.1809 H   0  0  0  0  0  0  0  0  0  0  0  0
   -6.8253   -1.4234    4.5048 H   0  0  0  0  0  0  0  0  0  0  0  0
   -6.8580    0.9060    3.6153 H   0  0  0  0  0  0  0  0  0  0  0  0
   -4.7116    2.1872    3.4035 H   0  0  0  0  0  0  0  0  0  0  0  0
   -1.4783    3.6180    2.3382 H   0  0  0  0  0  0  0  0  0  0  0  0
  1  2  1  0
  1 24  1  0
  1 25  1  0
  1 26  1  0
  2  3  1  0
  2  4  1  0
  2 27  1  6
  3 28  1  0
  3 29  1  0
  3 30  1  0
  4  5  1  0
  4 21  1  0
  4 31  1  6
  5  6  1  0
  5 32  1  0
  6  7  2  0
  6  8  1  0
  8  9  1  0
  8 10  1  0
  8 33  1  1
  9 34  1  0
  9 35  1  0
  9 36  1  0
 10 11  1  0
 10 19  1  0
 11 12  2  0
 11 37  1  0
 12 13  1  0
 13 14  1  0
 13 18  2  0
 14 15  2  0
 14 38  1  0
 15 16  1  0
 15 39  1  0
 16 17  2  0
 16 40  1  0
 17 18  1  0
 17 41  1  0
 18 19  1  0
 19 20  2  0
 21 22  2  0
 21 23  1  0
 23 42  1  0
M  END

