
     RDKit          3D

 33 34  0  0  0  0  0  0  0  0999 V2000
    1.7304   -1.6351    1.4054 C   0  0  0  0  0  0  0  0  0  0  0  0
    1.6233   -0.2337    1.1973 O   0  0  0  0  0  0  0  0  0  0  0  0
    2.5626    0.5589    1.7466 C   0  0  0  0  0  0  0  0  0  0  0  0
    2.4268    1.9410    1.5113 C   0  0  0  0  0  0  0  0  0  0  0  0
    3.3759    2.8054    2.0692 C   0  0  0  0  0  0  0  0  0  0  0  0
    3.3146    4.1785    1.9300 N   0  0  0  0  0  0  0  0  0  0  0  0
    2.4002    4.8498    1.0384 C   0  0  0  0  0  0  0  0  0  0  0  0
    2.4115    6.3571    1.3180 C   0  0  0  0  0  0  0  0  0  0  0  0
    1.5013    7.0971    0.4585 N   0  0  0  0  0  0  0  0  0  0  0  0
    1.8208    7.7266   -0.7200 C   0  0  0  0  0  0  0  0  0  0  0  0
    0.7679    8.2658   -1.2844 N   0  0  0  0  0  0  0  0  0  0  0  0
   -0.2873    7.9783   -0.4510 C   0  0  0  0  0  0  0  0  0  0  0  0
   -1.6628    8.4436   -0.7672 C   0  0  0  0  0  0  0  0  0  0  0  0
   -2.6250    8.2259   -0.0758 O   0  0  0  0  0  0  0  0  0  0  0  0
   -1.7286    9.1393   -1.9145 O   0  0  0  0  0  0  0  0  0  0  0  0
    0.1470    7.2512    0.6371 C   0  0  0  0  0  0  0  0  0  0  0  0
    4.4279    2.2228    2.8236 C   0  0  0  0  0  0  0  0  0  0  0  0
    4.4537    0.8465    2.9752 C   0  0  0  0  0  0  0  0  0  0  0  0
    3.5416    0.0116    2.4539 N   0  0  0  0  0  0  0  0  0  0  0  0
    0.8772   -2.0832    0.8790 H   0  0  0  0  0  0  0  0  0  0  0  0
    1.6889   -1.8860    2.4769 H   0  0  0  0  0  0  0  0  0  0  0  0
    2.6756   -2.0300    1.0010 H   0  0  0  0  0  0  0  0  0  0  0  0
    1.5923    2.2852    0.9024 H   0  0  0  0  0  0  0  0  0  0  0  0
    4.1798    4.6662    2.1337 H   0  0  0  0  0  0  0  0  0  0  0  0
    1.3801    4.4685    1.2068 H   0  0  0  0  0  0  0  0  0  0  0  0
    2.6298    4.6723   -0.0330 H   0  0  0  0  0  0  0  0  0  0  0  0
    3.4234    6.7661    1.1639 H   0  0  0  0  0  0  0  0  0  0  0  0
    2.1425    6.5429    2.3689 H   0  0  0  0  0  0  0  0  0  0  0  0
    2.8434    7.7565   -1.0979 H   0  0  0  0  0  0  0  0  0  0  0  0
   -0.8245    9.1780   -2.2830 H   0  0  0  0  0  0  0  0  0  0  0  0
   -0.3891    6.8560    1.4960 H   0  0  0  0  0  0  0  0  0  0  0  0
    5.1979    2.8470    3.2834 H   0  0  0  0  0  0  0  0  0  0  0  0
    5.2594    0.3808    3.5550 H   0  0  0  0  0  0  0  0  0  0  0  0
  1  2  1  0
  1 20  1  0
  1 21  1  0
  1 22  1  0
  2  3  1  0
  3  4  2  0
  3 19  1  0
  4  5  1  0
  4 23  1  0
  5  6  1  0
  5 17  2  0
  6  7  1  0
  6 24  1  0
  7  8  1  0
  7 25  1  0
  7 26  1  0
  8  9  1  0
  8 27  1  0
  8 28  1  0
  9 10  1  0
  9 16  1  0
 10 11  2  0
 10 29  1  0
 11 12  1  0
 12 13  1  0
 12 16  2  0
 13 14  2  0
 13 15  1  0
 15 30  1  0
 16 31  1  0
 17 18  1  0
 17 32  1  0
 18 19  2  0
 18 33  1  0
M  END

