
     RDKit          3D

 61 65  0  0  0  0  0  0  0  0999 V2000
    5.1924   -1.5172    1.9609 C   0  0  0  0  0  0  0  0  0  0  0  0
    4.4343   -0.5912    1.2304 O   0  0  0  0  0  0  0  0  0  0  0  0
    5.1445    0.5608    0.8545 C   0  0  0  0  0  0  0  0  0  0  0  0
    4.1589    1.4746    0.1253 C   0  0  0  0  0  0  0  0  0  0  0  0
    4.7525    2.7180   -0.3774 N   0  0  0  0  0  0  0  0  0  0  0  0
    4.9824    3.7088    0.5771 C   0  0  0  0  0  0  0  0  0  0  0  0
    4.5758    3.5973    1.7231 O   0  0  0  0  0  0  0  0  0  0  0  0
    5.7147    4.9335    0.1198 C   0  0  0  0  0  0  0  0  0  0  0  0
    6.0618    5.8943    1.0826 C   0  0  0  0  0  0  0  0  0  0  0  0
    6.7137    7.0649    0.7013 C   0  0  0  0  0  0  0  0  0  0  0  0
    7.0149    7.2858   -0.6487 C   0  0  0  0  0  0  0  0  0  0  0  0
    6.6689    6.3356   -1.6115 C   0  0  0  0  0  0  0  0  0  0  0  0
    6.0250    5.1499   -1.2342 C   0  0  0  0  0  0  0  0  0  0  0  0
    5.6143    4.1124   -2.2607 C   0  0  2  0  0  0  0  0  0  0  0  0
    4.3377    4.5908   -2.9925 C   0  0  0  0  0  0  0  0  0  0  0  0
    4.4265    5.1362   -4.0780 O   0  0  0  0  0  0  0  0  0  0  0  0
    3.1638    4.4196   -2.3054 N   0  0  0  0  0  0  0  0  0  0  0  0
    1.8671    4.8209   -2.6781 C   0  0  0  0  0  0  0  0  0  0  0  0
    1.5575    5.5092   -3.8697 C   0  0  0  0  0  0  0  0  0  0  0  0
    0.2357    5.8531   -4.1184 C   0  0  0  0  0  0  0  0  0  0  0  0
   -0.7435    5.4967   -3.1750 C   0  0  0  0  0  0  0  0  0  0  0  0
   -2.0301    5.8204   -3.4801 O   0  0  0  0  0  0  0  0  0  0  0  0
   -3.0687    5.7109   -2.5750 C   0  0  0  0  0  0  0  0  0  0  0  0
   -3.0106    6.2607   -1.2894 C   0  0  0  0  0  0  0  0  0  0  0  0
   -4.1366    6.1882   -0.4665 C   0  0  0  0  0  0  0  0  0  0  0  0
   -5.3132    5.5793   -0.9165 C   0  0  0  0  0  0  0  0  0  0  0  0
   -5.3606    5.0394   -2.2048 C   0  0  0  0  0  0  0  0  0  0  0  0
   -4.2388    5.1011   -3.0357 C   0  0  0  0  0  0  0  0  0  0  0  0
   -0.4626    4.8514   -2.0572 N   0  0  0  0  0  0  0  0  0  0  0  0
    0.8050    4.5236   -1.8111 C   0  0  0  0  0  0  0  0  0  0  0  0
    5.5965    2.7099   -1.6054 C   0  0  2  0  0  0  0  0  0  0  0  0
    5.2600    1.6115   -2.5874 C   0  0  0  0  0  0  0  0  0  0  0  0
    4.1325    1.3787   -3.3450 C   0  0  0  0  0  0  0  0  0  0  0  0
    4.2511    0.2394   -4.1956 C   0  0  0  0  0  0  0  0  0  0  0  0
    5.4688   -0.3832   -4.0839 C   0  0  0  0  0  0  0  0  0  0  0  0
    6.4795    0.4139   -2.9359 S   0  0  0  0  0  0  0  0  0  0  0  0
    4.5403   -2.3687    2.2048 H   0  0  0  0  0  0  0  0  0  0  0  0
    5.5772   -1.0851    2.9071 H   0  0  0  0  0  0  0  0  0  0  0  0
    6.0608   -1.8933    1.3817 H   0  0  0  0  0  0  0  0  0  0  0  0
    5.9956    0.2969    0.1912 H   0  0  0  0  0  0  0  0  0  0  0  0
    5.5553    1.0837    1.7405 H   0  0  0  0  0  0  0  0  0  0  0  0
    3.3609    1.7472    0.8278 H   0  0  0  0  0  0  0  0  0  0  0  0
    3.7131    0.9227   -0.7107 H   0  0  0  0  0  0  0  0  0  0  0  0
    5.8019    5.6960    2.1239 H   0  0  0  0  0  0  0  0  0  0  0  0
    6.9856    7.8099    1.4529 H   0  0  0  0  0  0  0  0  0  0  0  0
    7.5231    8.2044   -0.9530 H   0  0  0  0  0  0  0  0  0  0  0  0
    6.8923    6.5114   -2.6667 H   0  0  0  0  0  0  0  0  0  0  0  0
    6.3642    4.0815   -3.0622 H   0  0  0  0  0  0  0  0  0  0  0  0
    3.2408    3.9227   -1.4202 H   0  0  0  0  0  0  0  0  0  0  0  0
    2.3524    5.7598   -4.5690 H   0  0  0  0  0  0  0  0  0  0  0  0
   -0.0547    6.3867   -5.0247 H   0  0  0  0  0  0  0  0  0  0  0  0
   -2.0944    6.7351   -0.9380 H   0  0  0  0  0  0  0  0  0  0  0  0
   -4.0922    6.6161    0.5385 H   0  0  0  0  0  0  0  0  0  0  0  0
   -6.1891    5.5281   -0.2653 H   0  0  0  0  0  0  0  0  0  0  0  0
   -6.2750    4.5637   -2.5684 H   0  0  0  0  0  0  0  0  0  0  0  0
   -4.2536    4.6873   -4.0459 H   0  0  0  0  0  0  0  0  0  0  0  0
    0.9995    3.9928   -0.8695 H   0  0  0  0  0  0  0  0  0  0  0  0
    6.6438    2.5350   -1.2936 H   0  0  0  0  0  0  0  0  0  0  0  0
    3.2356    1.9953   -3.2983 H   0  0  0  0  0  0  0  0  0  0  0  0
    3.4611   -0.1004   -4.8669 H   0  0  0  0  0  0  0  0  0  0  0  0
    5.8287   -1.2628   -4.6157 H   0  0  0  0  0  0  0  0  0  0  0  0
  1  2  1  0
  1 37  1  0
  1 38  1  0
  1 39  1  0
  2  3  1  0
  3  4  1  0
  3 40  1  0
  3 41  1  0
  4  5  1  0
  4 42  1  0
  4 43  1  0
  5  6  1  0
  5 31  1  0
  6  7  2  0
  6  8  1  0
  8  9  1  0
  8 13  2  0
  9 10  2  0
  9 44  1  0
 10 11  1  0
 10 45  1  0
 11 12  2  0
 11 46  1  0
 12 13  1  0
 12 47  1  0
 13 14  1  0
 14 15  1  0
 14 31  1  0
 14 48  1  6
 15 16  2  0
 15 17  1  0
 17 18  1  0
 17 49  1  0
 18 19  2  0
 18 30  1  0
 19 20  1  0
 19 50  1  0
 20 21  2  0
 20 51  1  0
 21 22  1  0
 21 29  1  0
 22 23  1  0
 23 24  2  0
 23 28  1  0
 24 25  1  0
 24 52  1  0
 25 26  2  0
 25 53  1  0
 26 27  1  0
 26 54  1  0
 27 28  2  0
 27 55  1  0
 28 56  1  0
 29 30  2  0
 30 57  1  0
 31 32  1  0
 31 58  1  1
 32 33  2  0
 32 36  1  0
 33 34  1  0
 33 59  1  0
 34 35  2  0
 34 60  1  0
 35 36  1  0
 35 61  1  0
M  END

