
     RDKit          3D

 40 41  0  0  0  0  0  0  0  0999 V2000
    0.8106   -0.6521    0.1093 C   0  0  0  0  0  0  0  0  0  0  0  0
    2.3150   -0.6292    0.2422 C   0  0  0  0  0  0  0  0  0  0  0  0
    2.9954    0.5401    0.5982 C   0  0  0  0  0  0  0  0  0  0  0  0
    4.3924    0.5356    0.7150 C   0  0  0  0  0  0  0  0  0  0  0  0
    5.1215   -0.6246    0.4809 C   0  0  0  0  0  0  0  0  0  0  0  0
    4.4486   -1.8072    0.1226 C   0  0  0  0  0  0  0  0  0  0  0  0
    5.2312   -2.8978   -0.0877 O   0  0  0  0  0  0  0  0  0  0  0  0
    4.6431   -4.1332   -0.4458 C   0  0  0  0  0  0  0  0  0  0  0  0
    5.7799   -5.1387   -0.6306 C   0  0  0  0  0  0  0  0  0  0  0  0
    5.2981   -6.4696   -0.9287 N   0  0  0  0  0  0  0  0  0  0  0  0
    5.0082   -6.8604   -2.1920 C   0  0  0  0  0  0  0  0  0  0  0  0
    5.1162   -6.1611   -3.1874 O   0  0  0  0  0  0  0  0  0  0  0  0
    4.4769   -8.2940   -2.3085 C   0  0  0  0  0  0  0  0  0  0  0  0
    5.2857   -9.2155   -1.5433 O   0  0  0  0  0  0  0  0  0  0  0  0
    4.7054  -10.1364   -0.7739 C   0  0  0  0  0  0  0  0  0  0  0  0
    4.8958  -11.5009   -0.9805 C   0  0  0  0  0  0  0  0  0  0  0  0
    4.3441  -12.4387   -0.1082 C   0  0  0  0  0  0  0  0  0  0  0  0
    3.5861  -11.9766    0.9721 C   0  0  0  0  0  0  0  0  0  0  0  0
    3.4093  -10.6155    1.1573 C   0  0  0  0  0  0  0  0  0  0  0  0
    3.9660   -9.6938    0.3119 N   0  0  0  0  0  0  0  0  0  0  0  0
    3.8035   -8.4416    0.5191 O   0  0  0  0  0  0  0  0  0  0  0  0
    3.0527   -1.8044    0.0051 C   0  0  0  0  0  0  0  0  0  0  0  0
    0.3726    0.3377    0.3050 H   0  0  0  0  0  0  0  0  0  0  0  0
    0.3564   -1.3669    0.8164 H   0  0  0  0  0  0  0  0  0  0  0  0
    0.5021   -0.9631   -0.9030 H   0  0  0  0  0  0  0  0  0  0  0  0
    2.4345    1.4595    0.7845 H   0  0  0  0  0  0  0  0  0  0  0  0
    4.9169    1.4539    0.9926 H   0  0  0  0  0  0  0  0  0  0  0  0
    6.2097   -0.6489    0.5653 H   0  0  0  0  0  0  0  0  0  0  0  0
    4.0737   -4.0421   -1.3882 H   0  0  0  0  0  0  0  0  0  0  0  0
    3.9497   -4.4805    0.3438 H   0  0  0  0  0  0  0  0  0  0  0  0
    6.3893   -5.1675    0.2861 H   0  0  0  0  0  0  0  0  0  0  0  0
    6.4211   -4.7996   -1.4573 H   0  0  0  0  0  0  0  0  0  0  0  0
    5.0186   -7.1085   -0.1789 H   0  0  0  0  0  0  0  0  0  0  0  0
    4.5363   -8.5800   -3.3682 H   0  0  0  0  0  0  0  0  0  0  0  0
    3.4308   -8.3261   -1.9691 H   0  0  0  0  0  0  0  0  0  0  0  0
    5.4943  -11.7915   -1.8451 H   0  0  0  0  0  0  0  0  0  0  0  0
    4.4980  -13.5066   -0.2720 H   0  0  0  0  0  0  0  0  0  0  0  0
    3.1260  -12.6656    1.6825 H   0  0  0  0  0  0  0  0  0  0  0  0
    2.8434  -10.1643    1.9718 H   0  0  0  0  0  0  0  0  0  0  0  0
    2.5195   -2.7141   -0.2751 H   0  0  0  0  0  0  0  0  0  0  0  0
  1  2  1  0
  1 23  1  0
  1 24  1  0
  1 25  1  0
  2  3  2  0
  2 22  1  0
  3  4  1  0
  3 26  1  0
  4  5  2  0
  4 27  1  0
  5  6  1  0
  5 28  1  0
  6  7  1  0
  6 22  2  0
  7  8  1  0
  8  9  1  0
  8 29  1  0
  8 30  1  0
  9 10  1  0
  9 31  1  0
  9 32  1  0
 10 11  1  0
 10 33  1  0
 11 12  2  0
 11 13  1  0
 13 14  1  0
 13 34  1  0
 13 35  1  0
 14 15  1  0
 15 16  2  0
 15 20  1  0
 16 17  1  0
 16 36  1  0
 17 18  2  0
 17 37  1  0
 18 19  1  0
 18 38  1  0
 19 20  2  0
 19 39  1  0
 20 21  1  0
 22 40  1  0
M  CHG  2  20   1  21  -1
M  END

