
     RDKit          3D

 61 63  0  0  0  0  0  0  0  0999 V2000
    5.5078   -5.0933   -1.4431 O   0  0  0  0  0  0  0  0  0  0  0  0
    4.5310   -4.0743   -1.5216 C   0  0  0  0  0  0  0  0  0  0  0  0
    3.6340   -4.1944   -0.2933 C   0  0  1  0  0  0  0  0  0  0  0  0
    4.3639   -3.9256    1.0269 C   0  0  0  0  0  0  0  0  0  0  0  0
    3.2164   -3.5839    1.9816 C   0  0  0  0  0  0  0  0  0  0  0  0
    2.2249   -2.8161    1.0875 C   0  0  0  0  0  0  0  0  0  0  0  0
    2.5491   -3.2052   -0.2967 N   0  0  0  0  0  0  0  0  0  0  0  0
    1.4074   -3.5016   -1.1420 C   0  0  0  0  0  0  0  0  0  0  0  0
    0.5616   -2.2796   -1.5789 C   0  0  1  0  0  0  0  0  0  0  0  0
    1.3275   -1.3054   -2.4999 C   0  0  0  0  0  0  0  0  0  0  0  0
    2.2838   -0.3049   -1.8142 C   0  0  1  0  0  0  0  0  0  0  0  0
    3.2420    0.3598   -2.8274 C   0  0  0  0  0  0  0  0  0  0  0  0
    2.5530    1.3903   -3.7339 C   0  0  0  0  0  0  0  0  0  0  0  0
    1.8337    2.4644   -2.9072 C   0  0  0  0  0  0  0  0  0  0  0  0
    0.8559    1.8390   -1.9035 C   0  0  0  0  0  0  0  0  0  0  0  0
    1.5472    0.7940   -1.0139 C   0  0  0  0  0  0  0  0  0  0  0  0
   -0.6738   -2.6911   -2.2542 N   0  0  0  0  0  0  0  0  0  0  0  0
   -1.7066   -3.3307   -1.4609 C   0  0  0  0  0  0  0  0  0  0  0  0
   -3.0223   -3.4555   -2.2092 C   0  0  0  0  0  0  0  0  0  0  0  0
   -3.8824   -4.5350   -1.9590 C   0  0  0  0  0  0  0  0  0  0  0  0
   -5.1141   -4.6394   -2.6068 C   0  0  0  0  0  0  0  0  0  0  0  0
   -5.5024   -3.6605   -3.5282 C   0  0  0  0  0  0  0  0  0  0  0  0
   -6.8510   -3.7395   -4.1962 C   0  0  1  0  0  0  0  0  0  0  0  0
   -7.2819   -5.0090   -4.3130 F   0  0  0  0  0  0  0  0  0  0  0  0
   -7.7929   -3.0719   -3.4991 F   0  0  0  0  0  0  0  0  0  0  0  0
   -6.8319   -3.2046   -5.4308 F   0  0  0  0  0  0  0  0  0  0  0  0
   -4.6482   -2.5837   -3.7958 C   0  0  0  0  0  0  0  0  0  0  0  0
   -3.4208   -2.4844   -3.1408 C   0  0  0  0  0  0  0  0  0  0  0  0
    6.1022   -5.0100   -2.1980 H   0  0  0  0  0  0  0  0  0  0  0  0
    3.9233   -4.1698   -2.4440 H   0  0  0  0  0  0  0  0  0  0  0  0
    4.9814   -3.0611   -1.5310 H   0  0  0  0  0  0  0  0  0  0  0  0
    3.2376   -5.2359   -0.2784 H   0  0  0  0  0  0  0  0  0  0  0  0
    5.0367   -3.0592    0.9033 H   0  0  0  0  0  0  0  0  0  0  0  0
    4.9755   -4.7804    1.3463 H   0  0  0  0  0  0  0  0  0  0  0  0
    3.5349   -3.0051    2.8617 H   0  0  0  0  0  0  0  0  0  0  0  0
    2.7509   -4.5124    2.3510 H   0  0  0  0  0  0  0  0  0  0  0  0
    2.3197   -1.7223    1.2214 H   0  0  0  0  0  0  0  0  0  0  0  0
    1.1782   -3.0744    1.3395 H   0  0  0  0  0  0  0  0  0  0  0  0
    0.7336   -4.2367   -0.6439 H   0  0  0  0  0  0  0  0  0  0  0  0
    1.7691   -3.9923   -2.0617 H   0  0  0  0  0  0  0  0  0  0  0  0
    0.2433   -1.7349   -0.6723 H   0  0  0  0  0  0  0  0  0  0  0  0
    0.5657   -0.7656   -3.0838 H   0  0  0  0  0  0  0  0  0  0  0  0
    1.9054   -1.8999   -3.2322 H   0  0  0  0  0  0  0  0  0  0  0  0
    2.8978   -0.8892   -1.1123 H   0  0  0  0  0  0  0  0  0  0  0  0
    3.7403   -0.4145   -3.4363 H   0  0  0  0  0  0  0  0  0  0  0  0
    4.0445    0.8708   -2.2642 H   0  0  0  0  0  0  0  0  0  0  0  0
    1.8233    0.8845   -4.3918 H   0  0  0  0  0  0  0  0  0  0  0  0
    3.2946    1.8570   -4.4045 H   0  0  0  0  0  0  0  0  0  0  0  0
    1.3061    3.1725   -3.5686 H   0  0  0  0  0  0  0  0  0  0  0  0
    2.5869    3.0581   -2.3556 H   0  0  0  0  0  0  0  0  0  0  0  0
    0.0197    1.3706   -2.4530 H   0  0  0  0  0  0  0  0  0  0  0  0
    0.4016    2.6231   -1.2739 H   0  0  0  0  0  0  0  0  0  0  0  0
    0.8153    0.3462   -0.3202 H   0  0  0  0  0  0  0  0  0  0  0  0
    2.2879    1.3098   -0.3756 H   0  0  0  0  0  0  0  0  0  0  0  0
   -0.4667   -3.2381   -3.0903 H   0  0  0  0  0  0  0  0  0  0  0  0
   -1.8728   -2.6993   -0.5668 H   0  0  0  0  0  0  0  0  0  0  0  0
   -1.4383   -4.3336   -1.0651 H   0  0  0  0  0  0  0  0  0  0  0  0
   -3.5820   -5.3112   -1.2493 H   0  0  0  0  0  0  0  0  0  0  0  0
   -5.7694   -5.4894   -2.4075 H   0  0  0  0  0  0  0  0  0  0  0  0
   -4.9433   -1.8253   -4.5239 H   0  0  0  0  0  0  0  0  0  0  0  0
   -2.7447   -1.6540   -3.3517 H   0  0  0  0  0  0  0  0  0  0  0  0
  1  2  1  0
  1 29  1  0
  2  3  1  0
  2 30  1  0
  2 31  1  0
  3  4  1  0
  3  7  1  0
  3 32  1  1
  4  5  1  0
  4 33  1  0
  4 34  1  0
  5  6  1  0
  5 35  1  0
  5 36  1  0
  6  7  1  0
  6 37  1  0
  6 38  1  0
  7  8  1  0
  8  9  1  0
  8 39  1  0
  8 40  1  0
  9 10  1  0
  9 17  1  0
  9 41  1  1
 10 11  1  0
 10 42  1  0
 10 43  1  0
 11 12  1  0
 11 16  1  0
 11 44  1  1
 12 13  1  0
 12 45  1  0
 12 46  1  0
 13 14  1  0
 13 47  1  0
 13 48  1  0
 14 15  1  0
 14 49  1  0
 14 50  1  0
 15 16  1  0
 15 51  1  0
 15 52  1  0
 16 53  1  0
 16 54  1  0
 17 18  1  0
 17 55  1  0
 18 19  1  0
 18 56  1  0
 18 57  1  0
 19 20  2  0
 19 28  1  0
 20 21  1  0
 20 58  1  0
 21 22  2  0
 21 59  1  0
 22 23  1  0
 22 27  1  0
 23 24  1  6
 23 25  1  0
 23 26  1  0
 27 28  2  0
 27 60  1  0
 28 61  1  0
M  END

