
     RDKit          3D

 26 27  0  0  0  0  0  0  0  0999 V2000
    2.9588    1.9085    0.8032 O   0  0  0  0  0  0  0  0  0  0  0  0
    2.3633    0.8536    0.8598 C   0  0  0  0  0  0  0  0  0  0  0  0
    2.9553   -0.3430    1.0329 O   0  0  0  0  0  0  0  0  0  0  0  0
    4.3948   -0.3650    1.1741 C   0  0  0  0  0  0  0  0  0  0  0  0
    4.8262   -0.2642    2.6176 C   0  0  0  0  0  0  0  0  0  0  0  0
    5.0005   -1.4242    3.3875 C   0  0  0  0  0  0  0  0  0  0  0  0
    5.3828   -1.3392    4.7288 C   0  0  0  0  0  0  0  0  0  0  0  0
    5.5951   -0.0884    5.3164 C   0  0  0  0  0  0  0  0  0  0  0  0
    5.4238    1.0739    4.5576 C   0  0  0  0  0  0  0  0  0  0  0  0
    5.0414    0.9878    3.2166 C   0  0  0  0  0  0  0  0  0  0  0  0
    0.8965    0.7420    0.7389 C   0  0  0  0  0  0  0  0  0  0  0  0
    0.1088   -0.3602    0.8018 C   0  0  0  0  0  0  0  0  0  0  0  0
   -1.2688    0.1145    0.6221 C   0  0  0  0  0  0  0  0  0  0  0  0
   -1.3629    1.3913    0.4606 N   0  0  0  0  0  0  0  0  0  0  0  0
   -0.0118    1.9177    0.5181 C   0  0  0  0  0  0  0  0  0  0  0  0
    4.8189    0.4535    0.5768 H   0  0  0  0  0  0  0  0  0  0  0  0
    4.6979   -1.3292    0.7441 H   0  0  0  0  0  0  0  0  0  0  0  0
    4.8383   -2.4046    2.9299 H   0  0  0  0  0  0  0  0  0  0  0  0
    5.5182   -2.2512    5.3159 H   0  0  0  0  0  0  0  0  0  0  0  0
    5.8966   -0.0196    6.3649 H   0  0  0  0  0  0  0  0  0  0  0  0
    5.5906    2.0538    5.0125 H   0  0  0  0  0  0  0  0  0  0  0  0
    4.8960    1.8940    2.6241 H   0  0  0  0  0  0  0  0  0  0  0  0
    0.4309   -1.3896    0.9565 H   0  0  0  0  0  0  0  0  0  0  0  0
   -2.1558   -0.5298    0.6211 H   0  0  0  0  0  0  0  0  0  0  0  0
    0.0687    2.6705    1.3239 H   0  0  0  0  0  0  0  0  0  0  0  0
    0.2226    2.4667   -0.4126 H   0  0  0  0  0  0  0  0  0  0  0  0
  1  2  2  0
  2  3  1  0
  2 11  1  0
  3  4  1  0
  4  5  1  0
  4 16  1  0
  4 17  1  0
  5  6  2  0
  5 10  1  0
  6  7  1  0
  6 18  1  0
  7  8  2  0
  7 19  1  0
  8  9  1  0
  8 20  1  0
  9 10  2  0
  9 21  1  0
 10 22  1  0
 11 12  2  0
 11 15  1  0
 12 13  1  0
 12 23  1  0
 13 14  2  0
 13 24  1  0
 14 15  1  0
 15 25  1  0
 15 26  1  0
M  END

