
     RDKit          3D

 74 78  0  0  0  0  0  0  0  0999 V2000
    7.2282   -2.7527    6.7336 C   0  0  0  0  0  0  0  0  0  0  0  0
    7.8780   -1.5534    6.0413 C   0  0  0  0  0  0  0  0  0  0  0  0
    6.9218   -0.4013    5.6082 C   0  0  1  0  0  0  0  0  0  0  0  0
    6.2667    0.2197    6.8559 C   0  0  0  0  0  0  0  0  0  0  0  0
    7.7681    0.7004    4.9276 C   0  0  0  0  0  0  0  0  0  0  0  0
    5.8745   -0.9258    4.6055 C   0  0  0  0  0  0  0  0  0  0  0  0
    4.4929   -0.8552    4.8326 C   0  0  0  0  0  0  0  0  0  0  0  0
    3.5777   -1.3397    3.8921 C   0  0  0  0  0  0  0  0  0  0  0  0
    4.0237   -1.9161    2.7083 C   0  0  0  0  0  0  0  0  0  0  0  0
    5.4069   -2.0109    2.4534 C   0  0  0  0  0  0  0  0  0  0  0  0
    6.3071   -1.5105    3.3996 C   0  0  0  0  0  0  0  0  0  0  0  0
    5.8272   -2.6542    1.2584 N   0  0  0  0  0  0  0  0  0  0  0  0
    7.2238   -3.0166    1.0462 C   0  0  0  0  0  0  0  0  0  0  0  0
    7.7433   -4.0747    1.9830 C   0  0  0  0  0  0  0  0  0  0  0  0
    8.8864   -4.0031    2.5994 N   0  0  0  0  0  0  0  0  0  0  0  0
    9.1347   -5.1301    3.3490 C   0  0  0  0  0  0  0  0  0  0  0  0
   10.3966   -5.2838    4.1437 C   0  0  0  0  0  0  0  0  0  0  0  0
   10.6100   -6.2765    4.8263 O   0  0  0  0  0  0  0  0  0  0  0  0
   11.2581   -4.2383    4.0229 N   0  0  0  0  0  0  0  0  0  0  0  0
   12.5661   -4.2286    4.6736 C   0  0  1  0  0  0  0  0  0  0  0  0
   13.5522   -3.3548    3.8793 C   0  0  0  0  0  0  0  0  0  0  0  0
   13.2581   -1.8509    4.0485 C   0  0  0  0  0  0  0  0  0  0  0  0
   13.1816   -1.4200    5.4433 N   0  0  0  0  0  0  0  0  0  0  0  0
   14.4677   -1.2065    6.0932 C   0  0  0  0  0  0  0  0  0  0  0  0
   15.2122    0.0121    5.5712 C   0  0  0  0  0  0  0  0  0  0  0  0
   14.5253    1.2036    5.2887 C   0  0  0  0  0  0  0  0  0  0  0  0
   15.2151    2.3390    4.8584 C   0  0  0  0  0  0  0  0  0  0  0  0
   16.6055    2.3030    4.7029 C   0  0  0  0  0  0  0  0  0  0  0  0
   17.2986    1.1213    4.9771 C   0  0  0  0  0  0  0  0  0  0  0  0
   16.6039   -0.0153    5.4045 C   0  0  0  0  0  0  0  0  0  0  0  0
   12.2192   -2.2220    6.1972 C   0  0  0  0  0  0  0  0  0  0  0  0
   12.4850   -3.7341    6.1344 C   0  0  0  0  0  0  0  0  0  0  0  0
    8.1501   -6.0848    3.3121 C   0  0  0  0  0  0  0  0  0  0  0  0
    6.8630   -5.5639    2.2921 S   0  0  0  0  0  0  0  0  0  0  0  0
    4.9390   -2.8689    0.2184 C   0  0  0  0  0  0  0  0  0  0  0  0
    5.2541   -3.3791   -0.8391 O   0  0  0  0  0  0  0  0  0  0  0  0
    3.5255   -2.3597    0.4675 C   0  0  0  0  0  0  0  0  0  0  0  0
    3.1221   -2.4272    1.8200 O   0  0  0  0  0  0  0  0  0  0  0  0
    7.9824   -3.5235    6.9579 H   0  0  0  0  0  0  0  0  0  0  0  0
    6.4580   -3.2190    6.0989 H   0  0  0  0  0  0  0  0  0  0  0  0
    6.7525   -2.4757    7.6877 H   0  0  0  0  0  0  0  0  0  0  0  0
    8.4274   -1.9109    5.1537 H   0  0  0  0  0  0  0  0  0  0  0  0
    8.6444   -1.1168    6.7064 H   0  0  0  0  0  0  0  0  0  0  0  0
    7.0470    0.5677    7.5511 H   0  0  0  0  0  0  0  0  0  0  0  0
    5.6324   -0.4940    7.4015 H   0  0  0  0  0  0  0  0  0  0  0  0
    5.6457    1.0907    6.5945 H   0  0  0  0  0  0  0  0  0  0  0  0
    8.5168    1.1009    5.6304 H   0  0  0  0  0  0  0  0  0  0  0  0
    7.1333    1.5362    4.5931 H   0  0  0  0  0  0  0  0  0  0  0  0
    8.3108    0.3190    4.0491 H   0  0  0  0  0  0  0  0  0  0  0  0
    4.1033   -0.4162    5.7504 H   0  0  0  0  0  0  0  0  0  0  0  0
    2.5013   -1.2841    4.0667 H   0  0  0  0  0  0  0  0  0  0  0  0
    7.3751   -1.5981    3.2076 H   0  0  0  0  0  0  0  0  0  0  0  0
    7.8820   -2.1395    1.1421 H   0  0  0  0  0  0  0  0  0  0  0  0
    7.2799   -3.3700    0.0060 H   0  0  0  0  0  0  0  0  0  0  0  0
   10.9699   -3.4770    3.4166 H   0  0  0  0  0  0  0  0  0  0  0  0
   12.9078   -5.2752    4.6818 H   0  0  0  0  0  0  0  0  0  0  0  0
   13.5318   -3.6323    2.8118 H   0  0  0  0  0  0  0  0  0  0  0  0
   14.5711   -3.5731    4.2397 H   0  0  0  0  0  0  0  0  0  0  0  0
   12.2962   -1.6014    3.5613 H   0  0  0  0  0  0  0  0  0  0  0  0
   14.0219   -1.2521    3.5292 H   0  0  0  0  0  0  0  0  0  0  0  0
   15.1514   -2.0823    6.0432 H   0  0  0  0  0  0  0  0  0  0  0  0
   14.2635   -1.0541    7.1681 H   0  0  0  0  0  0  0  0  0  0  0  0
   13.4388    1.2202    5.4019 H   0  0  0  0  0  0  0  0  0  0  0  0
   14.6653    3.2593    4.6427 H   0  0  0  0  0  0  0  0  0  0  0  0
   17.1450    3.1917    4.3651 H   0  0  0  0  0  0  0  0  0  0  0  0
   18.3840    1.0802    4.8523 H   0  0  0  0  0  0  0  0  0  0  0  0
   17.1525   -0.9394    5.6117 H   0  0  0  0  0  0  0  0  0  0  0  0
   11.2123   -2.0188    5.7882 H   0  0  0  0  0  0  0  0  0  0  0  0
   12.2064   -1.8732    7.2425 H   0  0  0  0  0  0  0  0  0  0  0  0
   11.7007   -4.2960    6.6656 H   0  0  0  0  0  0  0  0  0  0  0  0
   13.4395   -3.9708    6.6364 H   0  0  0  0  0  0  0  0  0  0  0  0
    8.1438   -7.0368    3.8387 H   0  0  0  0  0  0  0  0  0  0  0  0
    2.8371   -2.9790   -0.1208 H   0  0  0  0  0  0  0  0  0  0  0  0
    3.4651   -1.3184    0.0887 H   0  0  0  0  0  0  0  0  0  0  0  0
  1  2  1  0
  1 39  1  0
  1 40  1  0
  1 41  1  0
  3  2  1  1
  2 42  1  0
  2 43  1  0
  3  4  1  0
  3  5  1  0
  3  6  1  0
  4 44  1  0
  4 45  1  0
  4 46  1  0
  5 47  1  0
  5 48  1  0
  5 49  1  0
  6  7  2  0
  6 11  1  0
  7  8  1  0
  7 50  1  0
  8  9  2  0
  8 51  1  0
  9 10  1  0
  9 38  1  0
 10 11  2  0
 10 12  1  0
 11 52  1  0
 12 13  1  0
 12 35  1  0
 13 14  1  0
 13 53  1  0
 13 54  1  0
 14 15  2  0
 14 34  1  0
 15 16  1  0
 16 17  1  0
 16 33  2  0
 17 18  2  0
 17 19  1  0
 19 20  1  0
 19 55  1  0
 20 21  1  0
 20 32  1  0
 20 56  1  1
 21 22  1  0
 21 57  1  0
 21 58  1  0
 22 23  1  0
 22 59  1  0
 22 60  1  0
 23 24  1  0
 23 31  1  0
 24 25  1  0
 24 61  1  0
 24 62  1  0
 25 26  2  0
 25 30  1  0
 26 27  1  0
 26 63  1  0
 27 28  2  0
 27 64  1  0
 28 29  1  0
 28 65  1  0
 29 30  2  0
 29 66  1  0
 30 67  1  0
 31 32  1  0
 31 68  1  0
 31 69  1  0
 32 70  1  0
 32 71  1  0
 33 34  1  0
 33 72  1  0
 35 36  2  0
 35 37  1  0
 37 38  1  0
 37 73  1  0
 37 74  1  0
M  END

