
     RDKit          3D

 45 47  0  0  0  0  0  0  0  0999 V2000
    2.8478    0.7521    4.0509 O   0  0  0  0  0  0  0  0  0  0  0  0
    2.5111    0.3985    2.6770 S   0  0  1  0  0  0  0  0  0  0  0  0
    3.0472    1.1229    1.5246 O   0  0  0  0  0  0  0  0  0  0  0  0
    2.9077   -1.1961    2.4864 N   0  0  0  0  0  0  0  0  0  0  0  0
    2.7108   -1.8821    1.2175 C   0  0  0  0  0  0  0  0  0  0  0  0
    3.1475   -3.3573    1.3878 C   0  0  1  0  0  0  0  0  0  0  0  0
    4.6444   -3.4709    1.4161 C   0  0  0  0  0  0  0  0  0  0  0  0
    5.6574   -2.6788    1.8874 C   0  0  0  0  0  0  0  0  0  0  0  0
    6.8819   -3.3648    1.5899 C   0  0  0  0  0  0  0  0  0  0  0  0
    6.5235   -4.5221    0.9616 C   0  0  0  0  0  0  0  0  0  0  0  0
    5.1727   -4.5960    0.8480 O   0  0  0  0  0  0  0  0  0  0  0  0
    2.4866   -3.9159    2.5908 N   0  0  0  0  0  0  0  0  0  0  0  0
    1.0631   -4.2227    2.4051 C   0  0  0  0  0  0  0  0  0  0  0  0
    0.8028   -5.5858    1.7422 C   0  0  0  0  0  0  0  0  0  0  0  0
    1.4980   -6.7096    2.5213 C   0  0  0  0  0  0  0  0  0  0  0  0
    2.9840   -6.3865    2.7237 C   0  0  0  0  0  0  0  0  0  0  0  0
    3.1585   -4.9870    3.3358 C   0  0  0  0  0  0  0  0  0  0  0  0
    0.7072    0.4993    2.5270 C   0  0  0  0  0  0  0  0  0  0  0  0
    0.1534    1.4045    1.6187 C   0  0  0  0  0  0  0  0  0  0  0  0
   -1.2324    1.5307    1.5560 C   0  0  0  0  0  0  0  0  0  0  0  0
   -1.7703    2.3959    0.6886 F   0  0  0  0  0  0  0  0  0  0  0  0
   -2.0742    0.7778    2.3738 C   0  0  0  0  0  0  0  0  0  0  0  0
   -1.5160   -0.1319    3.2753 C   0  0  0  0  0  0  0  0  0  0  0  0
   -0.1322   -0.2612    3.3474 C   0  0  0  0  0  0  0  0  0  0  0  0
    0.3978   -1.1535    4.1983 F   0  0  0  0  0  0  0  0  0  0  0  0
    2.6549   -1.7830    3.2879 H   0  0  0  0  0  0  0  0  0  0  0  0
    3.3122   -1.3988    0.4360 H   0  0  0  0  0  0  0  0  0  0  0  0
    1.6541   -1.8475    0.8896 H   0  0  0  0  0  0  0  0  0  0  0  0
    2.8277   -3.8870    0.4678 H   0  0  0  0  0  0  0  0  0  0  0  0
    5.5319   -1.7209    2.3852 H   0  0  0  0  0  0  0  0  0  0  0  0
    7.8941   -3.0337    1.8125 H   0  0  0  0  0  0  0  0  0  0  0  0
    7.0857   -5.3537    0.5450 H   0  0  0  0  0  0  0  0  0  0  0  0
    0.5858   -3.4165    1.8279 H   0  0  0  0  0  0  0  0  0  0  0  0
    0.5858   -4.2078    3.4021 H   0  0  0  0  0  0  0  0  0  0  0  0
    1.1752   -5.5709    0.7018 H   0  0  0  0  0  0  0  0  0  0  0  0
   -0.2844   -5.7634    1.6795 H   0  0  0  0  0  0  0  0  0  0  0  0
    1.3730   -7.6763    2.0056 H   0  0  0  0  0  0  0  0  0  0  0  0
    1.0110   -6.8184    3.5087 H   0  0  0  0  0  0  0  0  0  0  0  0
    3.5152   -6.4299    1.7579 H   0  0  0  0  0  0  0  0  0  0  0  0
    3.4594   -7.1355    3.3799 H   0  0  0  0  0  0  0  0  0  0  0  0
    4.2213   -4.7353    3.4522 H   0  0  0  0  0  0  0  0  0  0  0  0
    2.7264   -4.9867    4.3539 H   0  0  0  0  0  0  0  0  0  0  0  0
    0.8044    1.9973    0.9744 H   0  0  0  0  0  0  0  0  0  0  0  0
   -3.1551    0.9068    2.2945 H   0  0  0  0  0  0  0  0  0  0  0  0
   -2.1419   -0.7440    3.9274 H   0  0  0  0  0  0  0  0  0  0  0  0
  1  2  2  0
  2  3  2  0
  2  4  1  6
  2 18  1  0
  4  5  1  0
  4 26  1  0
  5  6  1  0
  5 27  1  0
  5 28  1  0
  6  7  1  0
  6 12  1  0
  6 29  1  6
  7  8  2  0
  7 11  1  0
  8  9  1  0
  8 30  1  0
  9 10  2  0
  9 31  1  0
 10 11  1  0
 10 32  1  0
 12 13  1  0
 12 17  1  0
 13 14  1  0
 13 33  1  0
 13 34  1  0
 14 15  1  0
 14 35  1  0
 14 36  1  0
 15 16  1  0
 15 37  1  0
 15 38  1  0
 16 17  1  0
 16 39  1  0
 16 40  1  0
 17 41  1  0
 17 42  1  0
 18 19  2  0
 18 24  1  0
 19 20  1  0
 19 43  1  0
 20 21  1  0
 20 22  2  0
 22 23  1  0
 22 44  1  0
 23 24  2  0
 23 45  1  0
 24 25  1  0
M  END

