
     RDKit          3D

 36 38  0  0  0  0  0  0  0  0999 V2000
    0.2234   -1.5053    3.8426 O   0  0  0  0  0  0  0  0  0  0  0  0
    0.8969   -1.8420    2.8990 C   0  0  0  0  0  0  0  0  0  0  0  0
    1.6338   -2.9509    2.9580 O   0  0  0  0  0  0  0  0  0  0  0  0
    0.8890   -1.0162    1.6248 C   0  0  0  0  0  0  0  0  0  0  0  0
   -0.1647   -0.0947    1.4966 C   0  0  0  0  0  0  0  0  0  0  0  0
   -0.2762    0.7326    0.3824 C   0  0  0  0  0  0  0  0  0  0  0  0
    0.6837    0.6608   -0.6323 C   0  0  0  0  0  0  0  0  0  0  0  0
    1.7497   -0.2326   -0.5292 C   0  0  0  0  0  0  0  0  0  0  0  0
    1.8449   -1.0583    0.5944 C   0  0  0  0  0  0  0  0  0  0  0  0
    2.8565   -2.0100    0.7022 O   0  0  0  0  0  0  0  0  0  0  0  0
    4.1587   -1.7355    0.4416 C   0  0  0  0  0  0  0  0  0  0  0  0
    4.5703   -0.6554    0.1043 O   0  0  0  0  0  0  0  0  0  0  0  0
    5.0383   -2.9351    0.5986 C   0  0  0  0  0  0  0  0  0  0  0  0
    6.3573   -2.7764    0.2744 C   0  0  0  0  0  0  0  0  0  0  0  0
    7.2920   -3.8561    0.3582 C   0  0  0  0  0  0  0  0  0  0  0  0
    8.6623   -3.7437    0.0336 C   0  0  0  0  0  0  0  0  0  0  0  0
    9.5131   -4.8393    0.1315 C   0  0  0  0  0  0  0  0  0  0  0  0
   10.9704   -4.7217   -0.2128 C   0  0  0  0  0  0  0  0  0  0  0  0
   11.3742   -5.5882   -1.7608 Cl  0  0  0  0  0  0  0  0  0  0  0  0
    8.9762   -6.0789    0.5525 C   0  0  0  0  0  0  0  0  0  0  0  0
    7.6336   -6.2202    0.8771 C   0  0  0  0  0  0  0  0  0  0  0  0
    6.7921   -5.1047    0.7819 C   0  0  0  0  0  0  0  0  0  0  0  0
    5.4892   -5.2556    1.1082 O   0  0  0  0  0  0  0  0  0  0  0  0
    4.5435   -4.2383    1.0779 C   0  0  0  0  0  0  0  0  0  0  0  0
    3.4334   -4.5203    1.4445 O   0  0  0  0  0  0  0  0  0  0  0  0
    2.1198   -3.1784    2.1418 H   0  0  0  0  0  0  0  0  0  0  0  0
   -0.8889   -0.0530    2.3117 H   0  0  0  0  0  0  0  0  0  0  0  0
   -1.1087    1.4355    0.3044 H   0  0  0  0  0  0  0  0  0  0  0  0
    0.6079    1.3051   -1.5116 H   0  0  0  0  0  0  0  0  0  0  0  0
    2.5084   -0.2848   -1.3085 H   0  0  0  0  0  0  0  0  0  0  0  0
    6.6877   -1.7903   -0.0634 H   0  0  0  0  0  0  0  0  0  0  0  0
    9.0448   -2.7746   -0.2978 H   0  0  0  0  0  0  0  0  0  0  0  0
   11.6076   -5.1734    0.5595 H   0  0  0  0  0  0  0  0  0  0  0  0
   11.2689   -3.6749   -0.3491 H   0  0  0  0  0  0  0  0  0  0  0  0
    9.6345   -6.9492    0.6155 H   0  0  0  0  0  0  0  0  0  0  0  0
    7.2170   -7.1735    1.2058 H   0  0  0  0  0  0  0  0  0  0  0  0
  1  2  2  0
  2  3  1  0
  2  4  1  0
  3 26  1  0
  4  5  2  0
  4  9  1  0
  5  6  1  0
  5 27  1  0
  6  7  2  0
  6 28  1  0
  7  8  1  0
  7 29  1  0
  8  9  2  0
  8 30  1  0
  9 10  1  0
 10 11  1  0
 11 12  2  0
 11 13  1  0
 13 14  2  0
 13 24  1  0
 14 15  1  0
 14 31  1  0
 15 16  2  0
 15 22  1  0
 16 17  1  0
 16 32  1  0
 17 18  1  0
 17 20  2  0
 18 19  1  0
 18 33  1  0
 18 34  1  0
 20 21  1  0
 20 35  1  0
 21 22  2  0
 21 36  1  0
 22 23  1  0
 23 24  1  0
 24 25  2  0
M  END

