
     RDKit          3D

 39 39  0  0  0  0  0  0  0  0999 V2000
    5.3196   -0.3096   -0.1889 C   0  0  0  0  0  0  0  0  0  0  0  0
    3.8033   -0.4812   -0.2955 C   0  0  0  0  0  0  0  0  0  0  0  0
    3.1293   -1.5399    0.6184 C   0  0  1  0  0  0  0  0  0  0  0  0
    3.3977   -1.4144    2.0408 N   0  0  0  0  0  0  0  0  0  0  0  0
    3.5393   -0.2297    2.7620 C   0  0  0  0  0  0  0  0  0  0  0  0
    3.6584    0.8678    2.2512 O   0  0  0  0  0  0  0  0  0  0  0  0
    3.5570   -0.4800    4.1240 N   0  0  0  0  0  0  0  0  0  0  0  0
    3.6886    0.4289    5.1705 C   0  0  0  0  0  0  0  0  0  0  0  0
    3.8111    1.8191    4.9636 C   0  0  0  0  0  0  0  0  0  0  0  0
    3.9348    2.6839    6.0464 C   0  0  0  0  0  0  0  0  0  0  0  0
    3.9421    2.2058    7.3631 C   0  0  0  0  0  0  0  0  0  0  0  0
    3.8231    0.8398    7.5824 C   0  0  0  0  0  0  0  0  0  0  0  0
    3.6959   -0.0671    6.5115 C   0  0  0  0  0  0  0  0  0  0  0  0
    3.5706   -1.5178    6.7920 C   0  0  0  0  0  0  0  0  0  0  0  0
    3.4573   -2.3961    5.9453 O   0  0  0  0  0  0  0  0  0  0  0  0
    3.5926   -1.8142    8.0983 O   0  0  0  0  0  0  0  0  0  0  0  0
    3.4781   -3.1945    8.4460 C   0  0  0  0  0  0  0  0  0  0  0  0
    1.5818   -1.4363    0.4043 C   0  0  1  0  0  0  0  0  0  0  0  0
    1.1530   -0.2167    0.7497 F   0  0  0  0  0  0  0  0  0  0  0  0
    1.2259   -1.6513   -0.8685 F   0  0  0  0  0  0  0  0  0  0  0  0
    0.9181   -2.3190    1.1683 F   0  0  0  0  0  0  0  0  0  0  0  0
    3.6129   -2.9708    0.2347 C   0  0  1  0  0  0  0  0  0  0  0  0
    3.3865   -3.2447   -1.0527 F   0  0  0  0  0  0  0  0  0  0  0  0
    4.9229   -3.1150    0.4646 F   0  0  0  0  0  0  0  0  0  0  0  0
    2.9888   -3.9122    0.9703 F   0  0  0  0  0  0  0  0  0  0  0  0
    5.6196    0.5395   -0.8221 H   0  0  0  0  0  0  0  0  0  0  0  0
    5.8769   -1.1927   -0.5285 H   0  0  0  0  0  0  0  0  0  0  0  0
    5.6270   -0.0725    0.8384 H   0  0  0  0  0  0  0  0  0  0  0  0
    3.5253   -0.7511   -1.3256 H   0  0  0  0  0  0  0  0  0  0  0  0
    3.3237    0.4766   -0.0666 H   0  0  0  0  0  0  0  0  0  0  0  0
    3.1242   -2.2325    2.5763 H   0  0  0  0  0  0  0  0  0  0  0  0
    3.4952   -1.4483    4.4562 H   0  0  0  0  0  0  0  0  0  0  0  0
    3.8077    2.1941    3.9436 H   0  0  0  0  0  0  0  0  0  0  0  0
    4.0275    3.7564    5.8551 H   0  0  0  0  0  0  0  0  0  0  0  0
    4.0395    2.8938    8.2055 H   0  0  0  0  0  0  0  0  0  0  0  0
    3.8258    0.4414    8.5967 H   0  0  0  0  0  0  0  0  0  0  0  0
    3.5184   -3.2344    9.5412 H   0  0  0  0  0  0  0  0  0  0  0  0
    4.3037   -3.7769    8.0107 H   0  0  0  0  0  0  0  0  0  0  0  0
    2.5270   -3.6115    8.0824 H   0  0  0  0  0  0  0  0  0  0  0  0
  1  2  1  0
  1 26  1  0
  1 27  1  0
  1 28  1  0
  2  3  1  0
  2 29  1  0
  2 30  1  0
  3  4  1  1
  3 18  1  0
  3 22  1  0
  4  5  1  0
  4 31  1  0
  5  6  2  0
  5  7  1  0
  7  8  1  0
  7 32  1  0
  8  9  2  0
  8 13  1  0
  9 10  1  0
  9 33  1  0
 10 11  2  0
 10 34  1  0
 11 12  1  0
 11 35  1  0
 12 13  2  0
 12 36  1  0
 13 14  1  0
 14 15  2  0
 14 16  1  0
 16 17  1  0
 17 37  1  0
 17 38  1  0
 17 39  1  0
 18 19  1  1
 18 20  1  0
 18 21  1  0
 22 23  1  6
 22 24  1  0
 22 25  1  0
M  END

