
     RDKit          3D

 77 81  0  0  0  0  0  0  0  0999 V2000
    0.9524    3.5847   -2.1988 C   0  0  0  0  0  0  0  0  0  0  0  0
    2.3502    3.7339   -2.0876 O   0  0  0  0  0  0  0  0  0  0  0  0
    2.9025    3.9483   -0.8688 C   0  0  0  0  0  0  0  0  0  0  0  0
    2.1761    4.0376    0.3297 C   0  0  0  0  0  0  0  0  0  0  0  0
    2.8479    4.2619    1.5336 C   0  0  0  0  0  0  0  0  0  0  0  0
    4.2422    4.4004    1.5693 C   0  0  0  0  0  0  0  0  0  0  0  0
    4.9298    4.6348    2.8417 C   0  0  0  0  0  0  0  0  0  0  0  0
    4.2958    4.7282    4.0467 N   0  0  0  0  0  0  0  0  0  0  0  0
    5.2138    4.9408    4.9392 N   0  0  0  0  0  0  0  0  0  0  0  0
    6.3654    4.9853    4.2833 N   0  0  0  0  0  0  0  0  0  0  0  0
    7.6330    5.1116    4.9577 C   0  0  0  0  0  0  0  0  0  0  0  0
    8.2093    3.7203    5.3007 C   0  0  0  0  0  0  0  0  0  0  0  0
    7.6098    2.7186    4.9328 O   0  0  0  0  0  0  0  0  0  0  0  0
    9.3778    3.6949    5.9957 N   0  0  0  0  0  0  0  0  0  0  0  0
   10.0349    4.9021    6.5121 C   0  0  0  0  0  0  0  0  0  0  0  0
    9.7394    5.1844    7.9897 C   0  0  0  0  0  0  0  0  0  0  0  0
   10.4197    6.4685    8.4787 C   0  0  0  0  0  0  0  0  0  0  0  0
    9.9519    7.6568    7.7628 N   0  0  0  0  0  0  0  0  0  0  0  0
    8.6837    8.2134    8.2451 C   0  0  0  0  0  0  0  0  0  0  0  0
    8.8679    9.1350    9.4558 C   0  0  0  0  0  0  0  0  0  0  0  0
    9.8048   10.1587    9.1763 O   0  0  0  0  0  0  0  0  0  0  0  0
   11.0654    9.6363    8.8003 C   0  0  0  0  0  0  0  0  0  0  0  0
   10.9299    8.7296    7.5736 C   0  0  0  0  0  0  0  0  0  0  0  0
   10.0082    2.4067    6.3808 C   0  0  1  0  0  0  0  0  0  0  0  0
   10.8772    2.7028    6.9780 H   0  0  0  0  0  0  0  0  0  0  0  0
    9.1819    1.6283    7.4594 C   0  0  0  0  0  0  0  0  0  0  0  0
    9.5322    1.7117    8.6297 O   0  0  0  0  0  0  0  0  0  0  0  0
    8.1360    0.8974    7.0185 N   0  0  0  0  0  0  0  0  0  0  0  0
    7.2404    0.1784    7.9046 C   0  0  1  0  0  0  0  0  0  0  0  0
    5.8840    0.8633    8.1574 C   0  0  0  0  0  0  0  0  0  0  0  0
    5.0479   -0.2563    8.7909 C   0  0  0  0  0  0  0  0  0  0  0  0
    5.4996   -1.5570    8.0686 C   0  0  0  0  0  0  0  0  0  0  0  0
    6.8426   -1.2147    7.3718 C   0  0  0  0  0  0  0  0  0  0  0  0
   10.5497    1.5783    5.2337 C   0  0  0  0  0  0  0  0  0  0  0  0
   10.0204    1.1810    4.0245 C   0  0  0  0  0  0  0  0  0  0  0  0
   10.9107    0.3654    3.2628 C   0  0  0  0  0  0  0  0  0  0  0  0
   12.1071    0.1405    3.8951 C   0  0  0  0  0  0  0  0  0  0  0  0
   12.1643    0.9327    5.4270 S   0  0  0  0  0  0  0  0  0  0  0  0
    6.2465    4.7933    2.9793 N   0  0  0  0  0  0  0  0  0  0  0  0
    4.9616    4.3085    0.3617 C   0  0  0  0  0  0  0  0  0  0  0  0
    4.3034    4.0861   -0.8397 C   0  0  0  0  0  0  0  0  0  0  0  0
    0.7388    3.4230   -3.2639 H   0  0  0  0  0  0  0  0  0  0  0  0
    0.4139    4.4879   -1.8593 H   0  0  0  0  0  0  0  0  0  0  0  0
    0.5844    2.7154   -1.6244 H   0  0  0  0  0  0  0  0  0  0  0  0
    1.0910    3.9346    0.3382 H   0  0  0  0  0  0  0  0  0  0  0  0
    2.2860    4.3320    2.4668 H   0  0  0  0  0  0  0  0  0  0  0  0
    7.4658    5.7091    5.8636 H   0  0  0  0  0  0  0  0  0  0  0  0
    8.3146    5.6607    4.2934 H   0  0  0  0  0  0  0  0  0  0  0  0
    9.7484    5.7771    5.9171 H   0  0  0  0  0  0  0  0  0  0  0  0
   11.1207    4.7805    6.3607 H   0  0  0  0  0  0  0  0  0  0  0  0
   10.0605    4.3327    8.6115 H   0  0  0  0  0  0  0  0  0  0  0  0
    8.6467    5.2573    8.1304 H   0  0  0  0  0  0  0  0  0  0  0  0
   11.5061    6.3790    8.3093 H   0  0  0  0  0  0  0  0  0  0  0  0
   10.2932    6.5399    9.5786 H   0  0  0  0  0  0  0  0  0  0  0  0
    7.9839    7.3983    8.4892 H   0  0  0  0  0  0  0  0  0  0  0  0
    8.2267    8.8007    7.4282 H   0  0  0  0  0  0  0  0  0  0  0  0
    9.1955    8.5498   10.3411 H   0  0  0  0  0  0  0  0  0  0  0  0
    7.9191    9.6296    9.7167 H   0  0  0  0  0  0  0  0  0  0  0  0
   11.5168    9.0750    9.6466 H   0  0  0  0  0  0  0  0  0  0  0  0
   11.7178   10.4969    8.5829 H   0  0  0  0  0  0  0  0  0  0  0  0
   11.9061    8.2964    7.3011 H   0  0  0  0  0  0  0  0  0  0  0  0
   10.5976    9.3523    6.7228 H   0  0  0  0  0  0  0  0  0  0  0  0
    7.8397    1.0671    6.0582 H   0  0  0  0  0  0  0  0  0  0  0  0
    7.7722    0.0820    8.8633 H   0  0  0  0  0  0  0  0  0  0  0  0
    5.4521    1.1822    7.1918 H   0  0  0  0  0  0  0  0  0  0  0  0
    5.9746    1.7597    8.7901 H   0  0  0  0  0  0  0  0  0  0  0  0
    3.9645   -0.0786    8.7121 H   0  0  0  0  0  0  0  0  0  0  0  0
    5.2817   -0.3232    9.8666 H   0  0  0  0  0  0  0  0  0  0  0  0
    4.7509   -1.8804    7.3287 H   0  0  0  0  0  0  0  0  0  0  0  0
    5.6093   -2.3885    8.7817 H   0  0  0  0  0  0  0  0  0  0  0  0
    6.7050   -1.1498    6.2790 H   0  0  0  0  0  0  0  0  0  0  0  0
    7.6303   -1.9630    7.5474 H   0  0  0  0  0  0  0  0  0  0  0  0
    9.0239    1.4658    3.6929 H   0  0  0  0  0  0  0  0  0  0  0  0
   10.6657   -0.0407    2.2799 H   0  0  0  0  0  0  0  0  0  0  0  0
   12.9563   -0.4463    3.5477 H   0  0  0  0  0  0  0  0  0  0  0  0
    6.0483    4.4134    0.3789 H   0  0  0  0  0  0  0  0  0  0  0  0
    4.8499    4.0128   -1.7820 H   0  0  0  0  0  0  0  0  0  0  0  0
  1  2  1  0
  1 42  1  0
  1 43  1  0
  1 44  1  0
  2  3  1  0
  3  4  2  0
  3 41  1  0
  4  5  1  0
  4 45  1  0
  5  6  2  0
  5 46  1  0
  6  7  1  0
  6 40  1  0
  7  8  1  0
  7 39  2  0
  8  9  2  0
  9 10  1  0
 10 11  1  0
 10 39  1  0
 11 12  1  0
 11 47  1  0
 11 48  1  0
 12 13  2  0
 12 14  1  0
 14 15  1  0
 14 24  1  0
 15 16  1  0
 15 49  1  0
 15 50  1  0
 16 17  1  0
 16 51  1  0
 16 52  1  0
 17 18  1  0
 17 53  1  0
 17 54  1  0
 18 19  1  0
 18 23  1  0
 19 20  1  0
 19 55  1  0
 19 56  1  0
 20 21  1  0
 20 57  1  0
 20 58  1  0
 21 22  1  0
 22 23  1  0
 22 59  1  0
 22 60  1  0
 23 61  1  0
 23 62  1  0
 24 25  1  1
 24 26  1  0
 24 34  1  0
 26 27  2  0
 26 28  1  0
 28 29  1  0
 28 63  1  0
 29 30  1  0
 29 33  1  0
 29 64  1  1
 30 31  1  0
 30 65  1  0
 30 66  1  0
 31 32  1  0
 31 67  1  0
 31 68  1  0
 32 33  1  0
 32 69  1  0
 32 70  1  0
 33 71  1  0
 33 72  1  0
 34 35  2  0
 34 38  1  0
 35 36  1  0
 35 73  1  0
 36 37  2  0
 36 74  1  0
 37 38  1  0
 37 75  1  0
 40 41  2  0
 40 76  1  0
 41 77  1  0
M  END

