
     RDKit          3D

 52 55  0  0  0  0  0  0  0  0999 V2000
    6.1256   -8.2271   -7.0472 C   0  0  0  0  0  0  0  0  0  0  0  0
    6.2187   -6.8863   -6.3584 C   0  0  0  0  0  0  0  0  0  0  0  0
    6.8863   -5.8056   -6.9520 C   0  0  0  0  0  0  0  0  0  0  0  0
    6.9478   -4.5669   -6.3061 C   0  0  0  0  0  0  0  0  0  0  0  0
    6.3465   -4.3922   -5.0590 C   0  0  0  0  0  0  0  0  0  0  0  0
    5.6727   -5.4566   -4.4367 C   0  0  0  0  0  0  0  0  0  0  0  0
    5.0537   -5.2914   -3.0664 C   0  0  0  0  0  0  0  0  0  0  0  0
    6.0342   -5.5790   -1.9153 C   0  0  0  0  0  0  0  0  0  0  0  0
    5.3951   -5.4766   -0.5281 C   0  0  0  0  0  0  0  0  0  0  0  0
    4.3503   -6.4540   -0.3240 N   0  0  0  0  0  0  0  0  0  0  0  0
    4.6881   -7.8706   -0.1258 C   0  0  0  0  0  0  0  0  0  0  0  0
    3.5853   -7.9741    0.9439 C   0  0  2  0  0  0  0  0  0  0  0  0
    2.4497   -8.6297    0.4275 O   0  0  0  0  0  0  0  0  0  0  0  0
    1.3367   -8.7598    1.2026 C   0  0  0  0  0  0  0  0  0  0  0  0
    0.2686   -9.4761    0.6392 C   0  0  0  0  0  0  0  0  0  0  0  0
   -0.9107   -9.6557    1.3543 C   0  0  0  0  0  0  0  0  0  0  0  0
   -1.0443   -9.1359    2.6509 C   0  0  0  0  0  0  0  0  0  0  0  0
    0.0226   -8.4263    3.2292 C   0  0  0  0  0  0  0  0  0  0  0  0
    1.2014   -8.2351    2.4968 C   0  0  0  0  0  0  0  0  0  0  0  0
   -0.1486   -7.9383    4.6494 C   0  0  0  0  0  0  0  0  0  0  0  0
   -1.6010   -7.5316    4.9220 C   0  0  0  0  0  0  0  0  0  0  0  0
   -2.6018   -8.6012    4.5048 C   0  0  0  0  0  0  0  0  0  0  0  0
   -3.6591   -8.7995    5.0705 O   0  0  0  0  0  0  0  0  0  0  0  0
   -2.2280   -9.3201    3.3887 N   0  0  0  0  0  0  0  0  0  0  0  0
    3.5438   -6.4227    0.9008 C   0  0  0  0  0  0  0  0  0  0  0  0
    5.6210   -6.6891   -5.1027 C   0  0  0  0  0  0  0  0  0  0  0  0
    6.7165   -8.2481   -7.9749 H   0  0  0  0  0  0  0  0  0  0  0  0
    5.0819   -8.4701   -7.3102 H   0  0  0  0  0  0  0  0  0  0  0  0
    6.4889   -9.0401   -6.3969 H   0  0  0  0  0  0  0  0  0  0  0  0
    7.3584   -5.9334   -7.9303 H   0  0  0  0  0  0  0  0  0  0  0  0
    7.4669   -3.7310   -6.7830 H   0  0  0  0  0  0  0  0  0  0  0  0
    6.3943   -3.4184   -4.5623 H   0  0  0  0  0  0  0  0  0  0  0  0
    4.1852   -5.9596   -2.9573 H   0  0  0  0  0  0  0  0  0  0  0  0
    4.6702   -4.2620   -2.9559 H   0  0  0  0  0  0  0  0  0  0  0  0
    6.8866   -4.8801   -1.9662 H   0  0  0  0  0  0  0  0  0  0  0  0
    6.4665   -6.5874   -2.0463 H   0  0  0  0  0  0  0  0  0  0  0  0
    4.9460   -4.4752   -0.4036 H   0  0  0  0  0  0  0  0  0  0  0  0
    6.1929   -5.5633    0.2495 H   0  0  0  0  0  0  0  0  0  0  0  0
    5.7005   -8.0374    0.2981 H   0  0  0  0  0  0  0  0  0  0  0  0
    4.5519   -8.5249   -1.0028 H   0  0  0  0  0  0  0  0  0  0  0  0
    3.8846   -8.4237    1.9053 H   0  0  0  0  0  0  0  0  0  0  0  0
    0.3837   -9.8778   -0.3692 H   0  0  0  0  0  0  0  0  0  0  0  0
   -1.7414  -10.2048    0.9026 H   0  0  0  0  0  0  0  0  0  0  0  0
    2.0127   -7.6704    2.9587 H   0  0  0  0  0  0  0  0  0  0  0  0
    0.5338   -7.1000    4.8582 H   0  0  0  0  0  0  0  0  0  0  0  0
    0.1360   -8.7507    5.3453 H   0  0  0  0  0  0  0  0  0  0  0  0
   -1.8517   -6.6196    4.3494 H   0  0  0  0  0  0  0  0  0  0  0  0
   -1.7835   -7.3081    5.9819 H   0  0  0  0  0  0  0  0  0  0  0  0
   -2.9224   -9.9789    3.0493 H   0  0  0  0  0  0  0  0  0  0  0  0
    4.0620   -5.9695    1.7727 H   0  0  0  0  0  0  0  0  0  0  0  0
    2.5474   -5.9598    0.7978 H   0  0  0  0  0  0  0  0  0  0  0  0
    5.0914   -7.5235   -4.6300 H   0  0  0  0  0  0  0  0  0  0  0  0
  1  2  1  0
  1 27  1  0
  1 28  1  0
  1 29  1  0
  2  3  2  0
  2 26  1  0
  3  4  1  0
  3 30  1  0
  4  5  2  0
  4 31  1  0
  5  6  1  0
  5 32  1  0
  6  7  1  0
  6 26  2  0
  7  8  1  0
  7 33  1  0
  7 34  1  0
  8  9  1  0
  8 35  1  0
  8 36  1  0
  9 10  1  0
  9 37  1  0
  9 38  1  0
 10 11  1  0
 10 25  1  0
 11 12  1  0
 11 39  1  0
 11 40  1  0
 12 13  1  0
 12 25  1  0
 12 41  1  1
 13 14  1  0
 14 15  2  0
 14 19  1  0
 15 16  1  0
 15 42  1  0
 16 17  2  0
 16 43  1  0
 17 18  1  0
 17 24  1  0
 18 19  2  0
 18 20  1  0
 19 44  1  0
 20 21  1  0
 20 45  1  0
 20 46  1  0
 21 22  1  0
 21 47  1  0
 21 48  1  0
 22 23  2  0
 22 24  1  0
 24 49  1  0
 25 50  1  0
 25 51  1  0
 26 52  1  0
M  END

