
     RDKit          3D

 58 61  0  0  0  0  0  0  0  0999 V2000
   10.9920    3.5972    2.2787 C   0  0  0  0  0  0  0  0  0  0  0  0
    9.9401    2.6995    1.6767 C   0  0  0  0  0  0  0  0  0  0  0  0
    9.8290    2.5399    0.2855 C   0  0  0  0  0  0  0  0  0  0  0  0
    8.8463    1.7224   -0.2751 C   0  0  0  0  0  0  0  0  0  0  0  0
    7.9705    1.0469    0.5785 C   0  0  0  0  0  0  0  0  0  0  0  0
    6.7011    0.0055   -0.1222 S   0  0  1  0  0  0  0  0  0  0  0  0
    5.7369   -0.3619    0.9135 O   0  0  0  0  0  0  0  0  0  0  0  0
    6.2867    0.5751   -1.3999 O   0  0  0  0  0  0  0  0  0  0  0  0
    7.5291   -1.4648   -0.4654 N   0  0  0  0  0  0  0  0  0  0  0  0
    8.3199   -1.8267   -1.5514 C   0  0  0  0  0  0  0  0  0  0  0  0
    8.9294   -1.1647   -2.3490 O   0  0  0  0  0  0  0  0  0  0  0  0
    8.0577   -3.3305   -1.3117 C   0  0  1  0  0  0  0  0  0  0  0  0
    7.1546   -3.8951   -2.4407 C   0  0  0  0  0  0  0  0  0  0  0  0
    7.7788   -4.0101   -3.8529 C   0  0  1  0  0  0  0  0  0  0  0  0
    8.5767   -5.3046   -4.0646 C   0  0  0  0  0  0  0  0  0  0  0  0
    6.6762   -3.8886   -4.9158 C   0  0  0  0  0  0  0  0  0  0  0  0
    9.2711   -4.1822   -0.9925 C   0  0  0  0  0  0  0  0  0  0  0  0
   10.5738   -3.7435   -1.2776 C   0  0  0  0  0  0  0  0  0  0  0  0
   11.6774   -4.5570   -0.9968 C   0  0  0  0  0  0  0  0  0  0  0  0
   11.4974   -5.8182   -0.4252 C   0  0  0  0  0  0  0  0  0  0  0  0
   10.2032   -6.2638   -0.1352 C   0  0  0  0  0  0  0  0  0  0  0  0
    9.1027   -5.4538   -0.4176 C   0  0  0  0  0  0  0  0  0  0  0  0
    7.1603   -2.8425   -0.0677 C   0  0  1  0  0  0  0  0  0  0  0  0
    6.0952   -3.0441   -0.2522 H   0  0  0  0  0  0  0  0  0  0  0  0
    7.5085   -3.2395    1.3430 C   0  0  0  0  0  0  0  0  0  0  0  0
    8.6762   -2.7865    1.9765 C   0  0  0  0  0  0  0  0  0  0  0  0
    8.9834   -3.1961    3.2754 C   0  0  0  0  0  0  0  0  0  0  0  0
    8.1295   -4.0663    3.9614 C   0  0  0  0  0  0  0  0  0  0  0  0
    6.9620   -4.5190    3.3416 C   0  0  0  0  0  0  0  0  0  0  0  0
    6.6541   -4.1036    2.0431 C   0  0  0  0  0  0  0  0  0  0  0  0
    8.0522    1.1805    1.9678 C   0  0  0  0  0  0  0  0  0  0  0  0
    9.0370    2.0084    2.5048 C   0  0  0  0  0  0  0  0  0  0  0  0
   11.6767    3.9911    1.5138 H   0  0  0  0  0  0  0  0  0  0  0  0
   11.5926    3.0597    3.0305 H   0  0  0  0  0  0  0  0  0  0  0  0
   10.5300    4.4573    2.7922 H   0  0  0  0  0  0  0  0  0  0  0  0
   10.5220    3.0691   -0.3739 H   0  0  0  0  0  0  0  0  0  0  0  0
    8.7629    1.5969   -1.3561 H   0  0  0  0  0  0  0  0  0  0  0  0
    6.7673   -4.8790   -2.1194 H   0  0  0  0  0  0  0  0  0  0  0  0
    6.2764   -3.2299   -2.5066 H   0  0  0  0  0  0  0  0  0  0  0  0
    8.4627   -3.1544   -3.9865 H   0  0  0  0  0  0  0  0  0  0  0  0
    7.9259   -6.1890   -3.9484 H   0  0  0  0  0  0  0  0  0  0  0  0
    9.4105   -5.4075   -3.3572 H   0  0  0  0  0  0  0  0  0  0  0  0
    8.9969   -5.3362   -5.0830 H   0  0  0  0  0  0  0  0  0  0  0  0
    5.9274   -4.6927   -4.8054 H   0  0  0  0  0  0  0  0  0  0  0  0
    7.0957   -3.9658   -5.9317 H   0  0  0  0  0  0  0  0  0  0  0  0
    6.1470   -2.9248   -4.8438 H   0  0  0  0  0  0  0  0  0  0  0  0
   10.7257   -2.7665   -1.7395 H   0  0  0  0  0  0  0  0  0  0  0  0
   12.6835   -4.1994   -1.2308 H   0  0  0  0  0  0  0  0  0  0  0  0
   12.3599   -6.4526   -0.2058 H   0  0  0  0  0  0  0  0  0  0  0  0
   10.0501   -7.2479    0.3152 H   0  0  0  0  0  0  0  0  0  0  0  0
    8.0991   -5.8155   -0.1820 H   0  0  0  0  0  0  0  0  0  0  0  0
    9.3475   -2.1042    1.4510 H   0  0  0  0  0  0  0  0  0  0  0  0
    9.8963   -2.8341    3.7553 H   0  0  0  0  0  0  0  0  0  0  0  0
    8.3710   -4.3850    4.9786 H   0  0  0  0  0  0  0  0  0  0  0  0
    6.2821   -5.1896    3.8732 H   0  0  0  0  0  0  0  0  0  0  0  0
    5.7299   -4.4473    1.5695 H   0  0  0  0  0  0  0  0  0  0  0  0
    7.3459    0.6472    2.6062 H   0  0  0  0  0  0  0  0  0  0  0  0
    9.1049    2.1235    3.5903 H   0  0  0  0  0  0  0  0  0  0  0  0
  1  2  1  0
  1 33  1  0
  1 34  1  0
  1 35  1  0
  2  3  2  0
  2 32  1  0
  3  4  1  0
  3 36  1  0
  4  5  2  0
  4 37  1  0
  6  5  1  1
  5 31  1  0
  6  7  2  0
  6  8  2  0
  6  9  1  0
  9 10  1  0
  9 23  1  0
 10 11  2  0
 10 12  1  0
 12 13  1  6
 12 17  1  0
 12 23  1  0
 13 14  1  0
 13 38  1  0
 13 39  1  0
 14 15  1  0
 14 16  1  0
 14 40  1  6
 15 41  1  0
 15 42  1  0
 15 43  1  0
 16 44  1  0
 16 45  1  0
 16 46  1  0
 17 18  2  0
 17 22  1  0
 18 19  1  0
 18 47  1  0
 19 20  2  0
 19 48  1  0
 20 21  1  0
 20 49  1  0
 21 22  2  0
 21 50  1  0
 22 51  1  0
 23 24  1  6
 23 25  1  0
 25 26  2  0
 25 30  1  0
 26 27  1  0
 26 52  1  0
 27 28  2  0
 27 53  1  0
 28 29  1  0
 28 54  1  0
 29 30  2  0
 29 55  1  0
 30 56  1  0
 31 32  2  0
 31 57  1  0
 32 58  1  0
M  END

