
     RDKit          3D

 40 41  0  0  0  0  0  0  0  0999 V2000
    9.3559    1.4926   -2.4581 C   0  0  0  0  0  0  0  0  0  0  0  0
    7.9395    1.9527   -2.6802 C   0  0  0  0  0  0  0  0  0  0  0  0
    7.1036    2.2816   -1.6051 C   0  0  0  0  0  0  0  0  0  0  0  0
    5.7874    2.7289   -1.7856 C   0  0  0  0  0  0  0  0  0  0  0  0
    4.9423    2.9562   -0.5534 C   0  0  0  0  0  0  0  0  0  0  0  0
    5.0592    2.1891    0.3942 O   0  0  0  0  0  0  0  0  0  0  0  0
    4.0253    3.9891   -0.5727 N   0  0  0  0  0  0  0  0  0  0  0  0
    4.3146    5.2563   -1.2424 C   0  0  0  0  0  0  0  0  0  0  0  0
    4.8189    6.3685   -0.3047 C   0  0  0  0  0  0  0  0  0  0  0  0
    3.8058    6.8594    0.6210 N   0  0  0  0  0  0  0  0  0  0  0  0
    3.8127    8.2980    0.8003 C   0  0  0  0  0  0  0  0  0  0  0  0
    3.7075    6.1599    1.8984 C   0  0  0  0  0  0  0  0  0  0  0  0
    3.6323    4.6221    1.8087 C   0  0  0  0  0  0  0  0  0  0  0  0
    3.0084    4.0763    0.5048 C   0  0  2  0  0  0  0  0  0  0  0  0
    2.2311    2.7712    0.7009 C   0  0  0  0  0  0  0  0  0  0  0  0
    5.2719    2.8122   -3.0872 C   0  0  0  0  0  0  0  0  0  0  0  0
    6.0707    2.4756   -4.1800 C   0  0  0  0  0  0  0  0  0  0  0  0
    7.3890    2.0628   -3.9717 C   0  0  0  0  0  0  0  0  0  0  0  0
    8.3692    1.6620   -5.3688 Cl  0  0  0  0  0  0  0  0  0  0  0  0
    9.5938    1.4566   -1.3858 H   0  0  0  0  0  0  0  0  0  0  0  0
   10.0760    2.1646   -2.9531 H   0  0  0  0  0  0  0  0  0  0  0  0
    9.5202    0.4902   -2.8855 H   0  0  0  0  0  0  0  0  0  0  0  0
    7.4780    2.1774   -0.5842 H   0  0  0  0  0  0  0  0  0  0  0  0
    3.4035    5.6202   -1.7480 H   0  0  0  0  0  0  0  0  0  0  0  0
    5.0788    5.0872   -2.0104 H   0  0  0  0  0  0  0  0  0  0  0  0
    5.1251    7.2053   -0.9532 H   0  0  0  0  0  0  0  0  0  0  0  0
    5.7425    6.0286    0.2135 H   0  0  0  0  0  0  0  0  0  0  0  0
    3.7538    8.8088   -0.1737 H   0  0  0  0  0  0  0  0  0  0  0  0
    4.7159    8.6788    1.3319 H   0  0  0  0  0  0  0  0  0  0  0  0
    2.9343    8.6060    1.3907 H   0  0  0  0  0  0  0  0  0  0  0  0
    2.7934    6.5373    2.3893 H   0  0  0  0  0  0  0  0  0  0  0  0
    4.5491    6.4345    2.5777 H   0  0  0  0  0  0  0  0  0  0  0  0
    3.0449    4.2667    2.6707 H   0  0  0  0  0  0  0  0  0  0  0  0
    4.6248    4.1637    1.9232 H   0  0  0  0  0  0  0  0  0  0  0  0
    2.2901    4.8260    0.1369 H   0  0  0  0  0  0  0  0  0  0  0  0
    2.8460    1.9928    1.1683 H   0  0  0  0  0  0  0  0  0  0  0  0
    1.8642    2.3914   -0.2659 H   0  0  0  0  0  0  0  0  0  0  0  0
    1.3554    2.9663    1.3403 H   0  0  0  0  0  0  0  0  0  0  0  0
    4.2367    3.1203   -3.2493 H   0  0  0  0  0  0  0  0  0  0  0  0
    5.6784    2.5248   -5.1971 H   0  0  0  0  0  0  0  0  0  0  0  0
  1  2  1  0
  1 20  1  0
  1 21  1  0
  1 22  1  0
  2  3  2  0
  2 18  1  0
  3  4  1  0
  3 23  1  0
  4  5  1  0
  4 16  2  0
  5  6  2  0
  5  7  1  0
  7  8  1  0
  7 14  1  0
  8  9  1  0
  8 24  1  0
  8 25  1  0
  9 10  1  0
  9 26  1  0
  9 27  1  0
 10 11  1  0
 10 12  1  0
 11 28  1  0
 11 29  1  0
 11 30  1  0
 12 13  1  0
 12 31  1  0
 12 32  1  0
 13 14  1  0
 13 33  1  0
 13 34  1  0
 14 15  1  0
 14 35  1  6
 15 36  1  0
 15 37  1  0
 15 38  1  0
 16 17  1  0
 16 39  1  0
 17 18  2  0
 17 40  1  0
 18 19  1  0
M  END

