
     RDKit          3D

 22 21  0  0  0  0  0  0  0  0999 V2000
    1.5300   -1.2296    0.2474 C   0  0  0  0  0  0  0  0  0  0  0  0
    2.3349   -0.5761    1.0895 C   0  0  0  0  0  0  0  0  0  0  0  0
    2.9727    0.7664    0.8232 C   0  0  0  0  0  0  0  0  0  0  0  0
    4.4807    0.6918    0.8053 C   0  0  0  0  0  0  0  0  0  0  0  0
    5.3242    1.3451    1.6169 C   0  0  0  0  0  0  0  0  0  0  0  0
    4.9430    2.3081    2.7194 C   0  0  0  0  0  0  0  0  0  0  0  0
    6.1549    2.8923    3.4428 C   0  0  0  0  0  0  0  0  0  0  0  0
    5.7830    3.8635    4.5557 C   0  0  0  0  0  0  0  0  0  0  0  0
    4.6597    4.1582    4.8563 O   0  0  0  0  0  0  0  0  0  0  0  0
    6.8324    4.4043    5.2216 O   0  0  0  0  0  0  0  0  0  0  0  0
    1.1039   -2.2040    0.5027 H   0  0  0  0  0  0  0  0  0  0  0  0
    1.2614   -0.8125   -0.7295 H   0  0  0  0  0  0  0  0  0  0  0  0
    2.5817   -1.0338    2.0562 H   0  0  0  0  0  0  0  0  0  0  0  0
    2.6381    1.4879    1.5877 H   0  0  0  0  0  0  0  0  0  0  0  0
    2.6133    1.1461   -0.1505 H   0  0  0  0  0  0  0  0  0  0  0  0
    4.9053    0.0186    0.0512 H   0  0  0  0  0  0  0  0  0  0  0  0
    6.3976    1.1720    1.4694 H   0  0  0  0  0  0  0  0  0  0  0  0
    4.2941    1.8171    3.4645 H   0  0  0  0  0  0  0  0  0  0  0  0
    4.3376    3.1407    2.3227 H   0  0  0  0  0  0  0  0  0  0  0  0
    6.8159    3.4213    2.7308 H   0  0  0  0  0  0  0  0  0  0  0  0
    6.7728    2.0864    3.8815 H   0  0  0  0  0  0  0  0  0  0  0  0
    7.6688    4.0714    4.8661 H   0  0  0  0  0  0  0  0  0  0  0  0
  1  2  2  0
  1 11  1  0
  1 12  1  0
  2  3  1  0
  2 13  1  0
  3  4  1  0
  3 14  1  0
  3 15  1  0
  4  5  2  0
  4 16  1  0
  5  6  1  0
  5 17  1  0
  6  7  1  0
  6 18  1  0
  6 19  1  0
  7  8  1  0
  7 20  1  0
  7 21  1  0
  8  9  2  0
  8 10  1  0
 10 22  1  0
M  END

