
     RDKit          3D

 29 29  0  0  0  0  0  0  0  0999 V2000
    1.2177   -0.0007    0.1404 C   0  0  0  0  0  0  0  0  0  0  0  0
    2.4092   -0.1368   -0.0295 C   0  0  0  0  0  0  0  0  0  0  0  0
    3.8504   -0.3035   -0.2547 C   0  0  0  0  0  0  0  0  0  0  0  0
    4.4967   -1.1859    0.7189 N   0  0  0  0  0  0  0  0  0  0  0  0
    4.1163   -2.5895    0.6245 C   0  0  0  0  0  0  0  0  0  0  0  0
    5.3733   -0.5946    1.5945 C   0  0  0  0  0  0  0  0  0  0  0  0
    5.6078    0.6097    1.5557 O   0  0  0  0  0  0  0  0  0  0  0  0
    6.1030   -1.3928    2.6488 C   0  0  0  0  0  0  0  0  0  0  0  0
    6.9736   -0.7241    3.4950 C   0  0  0  0  0  0  0  0  0  0  0  0
    7.6912   -1.8039    4.6093 S   0  0  0  0  0  0  0  0  0  0  0  0
    6.7769   -3.1046    3.8741 C   0  0  0  0  0  0  0  0  0  0  0  0
    6.9399   -4.4807    4.4175 C   0  0  0  0  0  0  0  0  0  0  0  0
    7.6802   -4.7280    5.3425 O   0  0  0  0  0  0  0  0  0  0  0  0
    6.1826   -5.3700    3.7728 O   0  0  0  0  0  0  0  0  0  0  0  0
    6.2561   -6.7428    4.2108 C   0  0  0  0  0  0  0  0  0  0  0  0
    7.3999   -7.4838    3.5399 C   0  0  0  0  0  0  0  0  0  0  0  0
    6.0134   -2.7347    2.8871 N   0  0  0  0  0  0  0  0  0  0  0  0
    0.1634    0.1295    0.2970 H   0  0  0  0  0  0  0  0  0  0  0  0
    4.3514    0.6727   -0.1935 H   0  0  0  0  0  0  0  0  0  0  0  0
    4.0147   -0.7101   -1.2697 H   0  0  0  0  0  0  0  0  0  0  0  0
    3.0224   -2.6865    0.7263 H   0  0  0  0  0  0  0  0  0  0  0  0
    4.6058   -3.1794    1.4026 H   0  0  0  0  0  0  0  0  0  0  0  0
    4.4010   -2.9908   -0.3650 H   0  0  0  0  0  0  0  0  0  0  0  0
    7.1885    0.3420    3.4753 H   0  0  0  0  0  0  0  0  0  0  0  0
    5.2826   -7.1710    3.9329 H   0  0  0  0  0  0  0  0  0  0  0  0
    6.3601   -6.7615    5.3056 H   0  0  0  0  0  0  0  0  0  0  0  0
    7.3173   -7.4263    2.4435 H   0  0  0  0  0  0  0  0  0  0  0  0
    7.3767   -8.5458    3.8322 H   0  0  0  0  0  0  0  0  0  0  0  0
    8.3709   -7.0673    3.8461 H   0  0  0  0  0  0  0  0  0  0  0  0
  1  2  3  0
  1 18  1  0
  2  3  1  0
  3  4  1  0
  3 19  1  0
  3 20  1  0
  4  5  1  0
  4  6  1  0
  5 21  1  0
  5 22  1  0
  5 23  1  0
  6  7  2  0
  6  8  1  0
  8  9  1  0
  8 17  2  0
  9 10  2  0
  9 24  1  0
 10 11  1  0
 11 12  2  0
 11 17  1  0
 12 13  1  0
 12 14  1  0
 14 15  1  0
 15 16  1  0
 15 25  1  0
 15 26  1  0
 16 27  1  0
 16 28  1  0
 16 29  1  0
M  CHG  2  10   1  13  -1
M  END

