
     RDKit          3D

 44 46  0  0  0  0  0  0  0  0999 V2000
   -1.2659    0.6271    6.5413 O   0  0  0  0  0  0  0  0  0  0  0  0
   -0.0812    0.6782    6.7460 C   0  0  0  0  0  0  0  0  0  0  0  0
    0.3863    0.9322    7.9906 O   0  0  0  0  0  0  0  0  0  0  0  0
    0.9223    0.4711    5.6688 C   0  0  0  0  0  0  0  0  0  0  0  0
    0.6074    0.2752    4.3417 C   0  0  0  0  0  0  0  0  0  0  0  0
    1.7541    0.0988    3.5221 C   0  0  0  0  0  0  0  0  0  0  0  0
    2.9431    0.1593    4.2178 C   0  0  0  0  0  0  0  0  0  0  0  0
    4.3440   -0.0015    3.6825 C   0  0  0  0  0  0  0  0  0  0  0  0
    5.0053   -1.2251    4.0951 N   0  0  0  0  0  0  0  0  0  0  0  0
    5.7338   -1.2883    5.2428 C   0  0  0  0  0  0  0  0  0  0  0  0
    5.9381   -0.3243    5.9648 O   0  0  0  0  0  0  0  0  0  0  0  0
    6.2459   -2.6843    5.6085 C   0  0  1  0  0  0  0  0  0  0  0  0
    5.3694   -3.3321    6.6946 C   0  0  0  0  0  0  0  0  0  0  0  0
    5.7397   -4.8130    6.5692 C   0  0  0  0  0  0  0  0  0  0  0  0
    5.9521   -5.0082    5.0568 C   0  0  0  0  0  0  0  0  0  0  0  0
    6.2171   -3.6562    4.5122 N   0  0  0  0  0  0  0  0  0  0  0  0
    7.3291   -3.5606    3.5810 C   0  0  0  0  0  0  0  0  0  0  0  0
    7.1285   -4.3094    2.2746 C   0  0  0  0  0  0  0  0  0  0  0  0
    5.8543   -4.5135    1.7244 C   0  0  0  0  0  0  0  0  0  0  0  0
    5.7003   -5.1562    0.4921 C   0  0  0  0  0  0  0  0  0  0  0  0
    6.8203   -5.6054   -0.2129 C   0  0  0  0  0  0  0  0  0  0  0  0
    8.0953   -5.4118    0.3274 C   0  0  0  0  0  0  0  0  0  0  0  0
    8.2448   -4.7741    1.5614 C   0  0  0  0  0  0  0  0  0  0  0  0
    2.6523    0.4389    5.9100 S   0  0  0  0  0  0  0  0  0  0  0  0
    1.3528    0.9862    8.0121 H   0  0  0  0  0  0  0  0  0  0  0  0
   -0.4260    0.2630    3.9943 H   0  0  0  0  0  0  0  0  0  0  0  0
    1.7136   -0.0673    2.4437 H   0  0  0  0  0  0  0  0  0  0  0  0
    4.9748    0.8334    4.0233 H   0  0  0  0  0  0  0  0  0  0  0  0
    4.2981    0.0327    2.5834 H   0  0  0  0  0  0  0  0  0  0  0  0
    4.8206   -2.1101    3.6302 H   0  0  0  0  0  0  0  0  0  0  0  0
    7.2687   -2.5296    6.0126 H   0  0  0  0  0  0  0  0  0  0  0  0
    4.3049   -3.1720    6.4539 H   0  0  0  0  0  0  0  0  0  0  0  0
    5.5586   -2.9007    7.6869 H   0  0  0  0  0  0  0  0  0  0  0  0
    4.9770   -5.4890    6.9836 H   0  0  0  0  0  0  0  0  0  0  0  0
    6.6797   -5.0053    7.1114 H   0  0  0  0  0  0  0  0  0  0  0  0
    5.0649   -5.4532    4.5734 H   0  0  0  0  0  0  0  0  0  0  0  0
    6.7965   -5.6898    4.8502 H   0  0  0  0  0  0  0  0  0  0  0  0
    8.2812   -3.9024    4.0460 H   0  0  0  0  0  0  0  0  0  0  0  0
    7.4776   -2.4912    3.3466 H   0  0  0  0  0  0  0  0  0  0  0  0
    4.9737   -4.1766    2.2760 H   0  0  0  0  0  0  0  0  0  0  0  0
    4.6983   -5.3100    0.0828 H   0  0  0  0  0  0  0  0  0  0  0  0
    6.7003   -6.1094   -1.1752 H   0  0  0  0  0  0  0  0  0  0  0  0
    8.9785   -5.7650   -0.2115 H   0  0  0  0  0  0  0  0  0  0  0  0
    9.2462   -4.6346    1.9799 H   0  0  0  0  0  0  0  0  0  0  0  0
  1  2  2  0
  2  3  1  0
  2  4  1  0
  3 25  1  0
  4  5  2  0
  4 24  1  0
  5  6  1  0
  5 26  1  0
  6  7  2  0
  6 27  1  0
  7  8  1  0
  7 24  1  0
  8  9  1  0
  8 28  1  0
  8 29  1  0
  9 10  1  0
  9 30  1  0
 10 11  2  0
 10 12  1  0
 12 13  1  0
 12 16  1  0
 12 31  1  1
 13 14  1  0
 13 32  1  0
 13 33  1  0
 14 15  1  0
 14 34  1  0
 14 35  1  0
 15 16  1  0
 15 36  1  0
 15 37  1  0
 16 17  1  0
 17 18  1  0
 17 38  1  0
 17 39  1  0
 18 19  2  0
 18 23  1  0
 19 20  1  0
 19 40  1  0
 20 21  2  0
 20 41  1  0
 21 22  1  0
 21 42  1  0
 22 23  2  0
 22 43  1  0
 23 44  1  0
M  END

