
     RDKit          3D

 35 37  0  0  0  0  0  0  0  0999 V2000
    1.2766    0.1196   -0.6203 N   0  0  0  0  0  0  0  0  0  0  0  0
    2.6115    0.5698   -0.5359 N   0  0  0  0  0  0  0  0  0  0  0  0
    2.7715    1.7255    0.3523 C   0  0  1  0  0  0  0  0  0  0  0  0
    2.2560    1.4121    1.7815 C   0  0  0  0  0  0  0  0  0  0  0  0
    0.8393    1.9579    2.0791 C   0  0  2  0  0  0  0  0  0  0  0  0
    0.8388    3.4764    2.3415 C   0  0  0  0  0  0  0  0  0  0  0  0
    1.2419    3.7730    3.7792 C   0  0  0  0  0  0  0  0  0  0  0  0
    0.3556    3.1731    4.7160 O   0  0  0  0  0  0  0  0  0  0  0  0
   -0.0205    1.8857    4.4828 C   0  0  0  0  0  0  0  0  0  0  0  0
   -0.6633    1.2195    5.5402 C   0  0  0  0  0  0  0  0  0  0  0  0
   -1.0983   -0.0927    5.3804 C   0  0  0  0  0  0  0  0  0  0  0  0
   -0.8993   -0.7557    4.1617 C   0  0  0  0  0  0  0  0  0  0  0  0
   -0.2677   -0.0857    3.1149 C   0  0  0  0  0  0  0  0  0  0  0  0
    0.1821    1.2390    3.2473 C   0  0  0  0  0  0  0  0  0  0  0  0
    4.2292    2.1130    0.3532 C   0  0  0  0  0  0  0  0  0  0  0  0
    5.3169    1.2949    0.1394 C   0  0  0  0  0  0  0  0  0  0  0  0
    6.7429    2.2149    0.3077 S   0  0  0  0  0  0  0  0  0  0  0  0
    5.8268    3.6544    0.6599 N   0  0  0  0  0  0  0  0  0  0  0  0
    4.5829    3.4097    0.6361 N   0  0  0  0  0  0  0  0  0  0  0  0
    1.2700   -0.8724   -0.8493 H   0  0  0  0  0  0  0  0  0  0  0  0
    0.7322    0.6172   -1.3321 H   0  0  0  0  0  0  0  0  0  0  0  0
    2.9988    0.8025   -1.4546 H   0  0  0  0  0  0  0  0  0  0  0  0
    2.2225    2.6153   -0.0232 H   0  0  0  0  0  0  0  0  0  0  0  0
    2.9610    1.8177    2.5245 H   0  0  0  0  0  0  0  0  0  0  0  0
    2.2741    0.3193    1.9026 H   0  0  0  0  0  0  0  0  0  0  0  0
    0.2301    1.7489    1.1862 H   0  0  0  0  0  0  0  0  0  0  0  0
   -0.1693    3.8886    2.1663 H   0  0  0  0  0  0  0  0  0  0  0  0
    1.5281    4.0004    1.6596 H   0  0  0  0  0  0  0  0  0  0  0  0
    1.2175    4.8515    3.9920 H   0  0  0  0  0  0  0  0  0  0  0  0
    2.2721    3.4182    3.9761 H   0  0  0  0  0  0  0  0  0  0  0  0
   -0.8053    1.7608    6.4781 H   0  0  0  0  0  0  0  0  0  0  0  0
   -1.5951   -0.6024    6.2103 H   0  0  0  0  0  0  0  0  0  0  0  0
   -1.2411   -1.7851    4.0297 H   0  0  0  0  0  0  0  0  0  0  0  0
   -0.1188   -0.5859    2.1531 H   0  0  0  0  0  0  0  0  0  0  0  0
    5.2924    0.2323   -0.0928 H   0  0  0  0  0  0  0  0  0  0  0  0
  1  2  1  0
  1 20  1  0
  1 21  1  0
  2  3  1  0
  2 22  1  0
  3  4  1  0
  3 15  1  0
  3 23  1  6
  4  5  1  0
  4 24  1  0
  4 25  1  0
  5  6  1  0
  5 14  1  0
  5 26  1  6
  6  7  1  0
  6 27  1  0
  6 28  1  0
  7  8  1  0
  7 29  1  0
  7 30  1  0
  8  9  1  0
  9 10  2  0
  9 14  1  0
 10 11  1  0
 10 31  1  0
 11 12  2  0
 11 32  1  0
 12 13  1  0
 12 33  1  0
 13 14  2  0
 13 34  1  0
 15 16  2  0
 15 19  1  0
 16 17  1  0
 16 35  1  0
 17 18  1  0
 18 19  2  0
M  END

