
     RDKit          3D

 56 58  0  0  0  0  0  0  0  0999 V2000
    5.1161   -3.1530   -3.4185 C   0  0  0  0  0  0  0  0  0  0  0  0
    4.5922   -1.7581   -3.0916 C   0  0  0  0  0  0  0  0  0  0  0  0
    4.4648   -0.9251   -3.9782 O   0  0  0  0  0  0  0  0  0  0  0  0
    4.3031   -1.4782   -1.7745 N   0  0  0  0  0  0  0  0  0  0  0  0
    4.1278   -2.5259   -0.7670 C   0  0  0  0  0  0  0  0  0  0  0  0
    2.7074   -3.1110   -0.7200 C   0  0  0  0  0  0  0  0  0  0  0  0
    1.5617   -2.0863   -0.6562 C   0  0  0  0  0  0  0  0  0  0  0  0
    1.4438   -1.1795   -1.8985 C   0  0  0  0  0  0  0  0  0  0  0  0
    2.3378    0.0742   -1.9206 C   0  0  0  0  0  0  0  0  0  0  0  0
    3.7728   -0.1473   -1.3960 C   0  0  2  0  0  0  0  0  0  0  0  0
    4.7486    1.0154   -1.7369 C   0  0  1  0  0  0  0  0  0  0  0  0
    4.2549    2.3867   -1.2194 C   0  0  0  0  0  0  0  0  0  0  0  0
    4.4097    2.5452    0.3039 C   0  0  0  0  0  0  0  0  0  0  0  0
    5.7707    2.3015    0.7836 N   0  0  0  0  0  0  0  0  0  0  0  0
    6.6893    3.4216    0.6352 C   0  0  0  0  0  0  0  0  0  0  0  0
    6.5294    4.4604    1.7680 C   0  0  0  0  0  0  0  0  0  0  0  0
    7.4897    5.6070    1.6735 C   0  0  0  0  0  0  0  0  0  0  0  0
    7.3747    6.8399    1.0417 C   0  0  0  0  0  0  0  0  0  0  0  0
    8.6194    7.4752    1.2556 C   0  0  0  0  0  0  0  0  0  0  0  0
    9.4430    6.7076    1.9611 N   0  0  0  0  0  0  0  0  0  0  0  0
    8.7520    5.5782    2.2036 N   0  0  0  0  0  0  0  0  0  0  0  0
    9.3593    4.5319    3.0000 C   0  0  0  0  0  0  0  0  0  0  0  0
    6.2634    1.0015    0.3336 C   0  0  0  0  0  0  0  0  0  0  0  0
    6.1736    0.7827   -1.1871 C   0  0  0  0  0  0  0  0  0  0  0  0
    5.3590   -3.1644   -4.4878 H   0  0  0  0  0  0  0  0  0  0  0  0
    4.3684   -3.9356   -3.2167 H   0  0  0  0  0  0  0  0  0  0  0  0
    6.0208   -3.3967   -2.8394 H   0  0  0  0  0  0  0  0  0  0  0  0
    4.3818   -2.0894    0.2130 H   0  0  0  0  0  0  0  0  0  0  0  0
    4.8553   -3.3325   -0.9340 H   0  0  0  0  0  0  0  0  0  0  0  0
    2.6479   -3.7916    0.1479 H   0  0  0  0  0  0  0  0  0  0  0  0
    2.5521   -3.7426   -1.6132 H   0  0  0  0  0  0  0  0  0  0  0  0
    1.6464   -1.4723    0.2599 H   0  0  0  0  0  0  0  0  0  0  0  0
    0.6216   -2.6520   -0.5439 H   0  0  0  0  0  0  0  0  0  0  0  0
    0.3980   -0.8451   -2.0006 H   0  0  0  0  0  0  0  0  0  0  0  0
    1.6436   -1.7886   -2.7972 H   0  0  0  0  0  0  0  0  0  0  0  0
    1.8693    0.8542   -1.2977 H   0  0  0  0  0  0  0  0  0  0  0  0
    2.3758    0.4672   -2.9481 H   0  0  0  0  0  0  0  0  0  0  0  0
    3.7001   -0.2019   -0.3000 H   0  0  0  0  0  0  0  0  0  0  0  0
    4.8037    1.0582   -2.8326 H   0  0  0  0  0  0  0  0  0  0  0  0
    3.2111    2.5789   -1.5134 H   0  0  0  0  0  0  0  0  0  0  0  0
    4.8522    3.1682   -1.7201 H   0  0  0  0  0  0  0  0  0  0  0  0
    3.7298    1.8477    0.8281 H   0  0  0  0  0  0  0  0  0  0  0  0
    4.0933    3.5543    0.6123 H   0  0  0  0  0  0  0  0  0  0  0  0
    6.6002    3.9491   -0.3383 H   0  0  0  0  0  0  0  0  0  0  0  0
    7.7178    3.0268    0.6640 H   0  0  0  0  0  0  0  0  0  0  0  0
    6.6308    3.9343    2.7310 H   0  0  0  0  0  0  0  0  0  0  0  0
    5.5063    4.8670    1.7463 H   0  0  0  0  0  0  0  0  0  0  0  0
    6.5062    7.2192    0.5073 H   0  0  0  0  0  0  0  0  0  0  0  0
    8.9458    8.4618    0.9262 H   0  0  0  0  0  0  0  0  0  0  0  0
   10.3818    4.8548    3.2284 H   0  0  0  0  0  0  0  0  0  0  0  0
    9.3967    3.5776    2.4515 H   0  0  0  0  0  0  0  0  0  0  0  0
    8.8120    4.3754    3.9437 H   0  0  0  0  0  0  0  0  0  0  0  0
    5.6799    0.2194    0.8556 H   0  0  0  0  0  0  0  0  0  0  0  0
    7.3037    0.8793    0.6765 H   0  0  0  0  0  0  0  0  0  0  0  0
    6.5271   -0.2293   -1.4403 H   0  0  0  0  0  0  0  0  0  0  0  0
    6.8592    1.4860   -1.6913 H   0  0  0  0  0  0  0  0  0  0  0  0
  1  2  1  0
  1 25  1  0
  1 26  1  0
  1 27  1  0
  2  3  2  0
  2  4  1  0
  4  5  1  0
  4 10  1  0
  5  6  1  0
  5 28  1  0
  5 29  1  0
  6  7  1  0
  6 30  1  0
  6 31  1  0
  7  8  1  0
  7 32  1  0
  7 33  1  0
  8  9  1  0
  8 34  1  0
  8 35  1  0
  9 10  1  0
  9 36  1  0
  9 37  1  0
 10 11  1  0
 10 38  1  1
 11 12  1  0
 11 24  1  0
 11 39  1  6
 12 13  1  0
 12 40  1  0
 12 41  1  0
 13 14  1  0
 13 42  1  0
 13 43  1  0
 14 15  1  0
 14 23  1  0
 15 16  1  0
 15 44  1  0
 15 45  1  0
 16 17  1  0
 16 46  1  0
 16 47  1  0
 17 18  2  0
 17 21  1  0
 18 19  1  0
 18 48  1  0
 19 20  2  0
 19 49  1  0
 20 21  1  0
 21 22  1  0
 22 50  1  0
 22 51  1  0
 22 52  1  0
 23 24  1  0
 23 53  1  0
 23 54  1  0
 24 55  1  0
 24 56  1  0
M  END

