
     RDKit          3D

 36 35  0  0  0  0  0  0  0  0999 V2000
    3.1199    0.2792    0.5637 C   0  0  0  0  0  0  0  0  0  0  0  0
    2.5986   -0.8028   -0.3878 C   0  0  1  0  0  0  0  0  0  0  0  0
    1.0684   -0.8811   -0.3684 C   0  0  0  0  0  0  0  0  0  0  0  0
    3.0966   -0.5935   -1.8316 C   0  0  0  0  0  0  0  0  0  0  0  0
    4.5412   -0.6103   -1.9844 N   0  0  0  0  0  0  0  0  0  0  0  0
    5.2369   -1.7567   -2.2440 C   0  0  0  0  0  0  0  0  0  0  0  0
    4.6897   -2.8403   -2.3907 O   0  0  0  0  0  0  0  0  0  0  0  0
    6.7515   -1.5991   -2.3265 C   0  0  0  0  0  0  0  0  0  0  0  0
    7.3350   -2.4462   -3.4618 C   0  0  0  0  0  0  0  0  0  0  0  0
    8.7887   -2.5018   -3.4473 N   0  0  0  0  0  0  0  0  0  0  0  0
    9.5229   -1.4131   -3.8733 C   0  0  0  0  0  0  0  0  0  0  0  0
    8.9778   -0.3597   -4.1847 O   0  0  0  0  0  0  0  0  0  0  0  0
   10.8990   -1.5792   -3.8980 N   0  0  0  0  0  0  0  0  0  0  0  0
   11.5615   -2.8017   -3.4975 C   0  0  0  0  0  0  0  0  0  0  0  0
   11.7114   -0.5380   -4.4976 C   0  0  0  0  0  0  0  0  0  0  0  0
    2.7954    0.0902    1.5996 H   0  0  0  0  0  0  0  0  0  0  0  0
    2.7438    1.2772    0.2760 H   0  0  0  0  0  0  0  0  0  0  0  0
    4.2209    0.3194    0.5655 H   0  0  0  0  0  0  0  0  0  0  0  0
    2.9974   -1.7787   -0.0575 H   0  0  0  0  0  0  0  0  0  0  0  0
    0.6163    0.0662   -0.7113 H   0  0  0  0  0  0  0  0  0  0  0  0
    0.6920   -1.0772    0.6483 H   0  0  0  0  0  0  0  0  0  0  0  0
    0.6967   -1.6852   -1.0241 H   0  0  0  0  0  0  0  0  0  0  0  0
    2.7163    0.3677   -2.2206 H   0  0  0  0  0  0  0  0  0  0  0  0
    2.6962   -1.3956   -2.4694 H   0  0  0  0  0  0  0  0  0  0  0  0
    5.0592    0.2536   -1.8870 H   0  0  0  0  0  0  0  0  0  0  0  0
    7.1722   -1.9493   -1.3672 H   0  0  0  0  0  0  0  0  0  0  0  0
    7.0525   -0.5494   -2.4577 H   0  0  0  0  0  0  0  0  0  0  0  0
    6.9820   -2.0443   -4.4269 H   0  0  0  0  0  0  0  0  0  0  0  0
    6.9480   -3.4702   -3.3664 H   0  0  0  0  0  0  0  0  0  0  0  0
    9.2127   -3.4185   -3.4426 H   0  0  0  0  0  0  0  0  0  0  0  0
   11.0824   -3.2375   -2.6069 H   0  0  0  0  0  0  0  0  0  0  0  0
   12.6031   -2.5768   -3.2215 H   0  0  0  0  0  0  0  0  0  0  0  0
   11.5911   -3.5721   -4.2953 H   0  0  0  0  0  0  0  0  0  0  0  0
   11.0649    0.3192   -4.7181 H   0  0  0  0  0  0  0  0  0  0  0  0
   12.1855   -0.8791   -5.4375 H   0  0  0  0  0  0  0  0  0  0  0  0
   12.5123   -0.2173   -3.8080 H   0  0  0  0  0  0  0  0  0  0  0  0
  1  2  1  0
  1 16  1  0
  1 17  1  0
  1 18  1  0
  2  3  1  0
  2  4  1  0
  2 19  1  1
  3 20  1  0
  3 21  1  0
  3 22  1  0
  4  5  1  0
  4 23  1  0
  4 24  1  0
  5  6  1  0
  5 25  1  0
  6  7  2  0
  6  8  1  0
  8  9  1  0
  8 26  1  0
  8 27  1  0
  9 10  1  0
  9 28  1  0
  9 29  1  0
 10 11  1  0
 10 30  1  0
 11 12  2  0
 11 13  1  0
 13 14  1  0
 13 15  1  0
 14 31  1  0
 14 32  1  0
 14 33  1  0
 15 34  1  0
 15 35  1  0
 15 36  1  0
M  END

