
     RDKit          3D

 41 42  0  0  0  0  0  0  0  0999 V2000
    3.7236   -0.8732    2.4603 C   0  0  0  0  0  0  0  0  0  0  0  0
    3.7639   -0.5032    1.0083 C   0  0  0  0  0  0  0  0  0  0  0  0
    4.1171    0.7222    0.6305 N   0  0  0  0  0  0  0  0  0  0  0  0
    4.0601    0.7199   -0.7140 N   0  0  0  0  0  0  0  0  0  0  0  0
    4.4061    1.9146   -1.4519 C   0  0  0  0  0  0  0  0  0  0  0  0
    3.6757   -0.4902   -1.2194 C   0  0  0  0  0  0  0  0  0  0  0  0
    3.5471   -0.7421   -2.6874 C   0  0  0  0  0  0  0  0  0  0  0  0
    3.4711   -1.3231   -0.1215 C   0  0  0  0  0  0  0  0  0  0  0  0
    3.0118   -2.7537   -0.1180 C   0  0  0  0  0  0  0  0  0  0  0  0
    1.4841   -2.9223   -0.0293 C   0  0  0  0  0  0  0  0  0  0  0  0
    1.0545   -4.3929   -0.0097 C   0  0  0  0  0  0  0  0  0  0  0  0
   -0.3899   -4.5771    0.0653 N   0  0  0  0  0  0  0  0  0  0  0  0
   -1.1599   -4.7914   -1.0288 C   0  0  0  0  0  0  0  0  0  0  0  0
   -0.6494   -4.8881   -2.1532 O   0  0  0  0  0  0  0  0  0  0  0  0
   -2.6511   -4.9235   -0.8386 C   0  0  1  0  0  0  0  0  0  0  0  0
   -3.5301   -5.1698   -2.0698 C   0  0  0  0  0  0  0  0  0  0  0  0
   -4.7281   -5.2724   -1.9495 O   0  0  0  0  0  0  0  0  0  0  0  0
   -2.9139   -5.2615   -3.2357 O   0  0  0  0  0  0  0  0  0  0  0  0
   -3.1870   -5.5724    0.4412 C   0  0  0  0  0  0  0  0  0  0  0  0
   -3.3427   -4.1097    0.2590 C   0  0  0  0  0  0  0  0  0  0  0  0
    4.0547   -0.0191    3.0674 H   0  0  0  0  0  0  0  0  0  0  0  0
    4.3832   -1.7294    2.6823 H   0  0  0  0  0  0  0  0  0  0  0  0
    2.7077   -1.1522    2.7886 H   0  0  0  0  0  0  0  0  0  0  0  0
    4.6291    2.6969   -0.7167 H   0  0  0  0  0  0  0  0  0  0  0  0
    3.5721    2.2473   -2.0911 H   0  0  0  0  0  0  0  0  0  0  0  0
    5.2931    1.7553   -2.0874 H   0  0  0  0  0  0  0  0  0  0  0  0
    4.4895   -0.5413   -3.2254 H   0  0  0  0  0  0  0  0  0  0  0  0
    2.7679   -0.1120   -3.1503 H   0  0  0  0  0  0  0  0  0  0  0  0
    3.2755   -1.7900   -2.8752 H   0  0  0  0  0  0  0  0  0  0  0  0
    3.4808   -3.2840    0.7300 H   0  0  0  0  0  0  0  0  0  0  0  0
    3.3730   -3.2685   -1.0257 H   0  0  0  0  0  0  0  0  0  0  0  0
    1.0065   -2.4220   -0.8882 H   0  0  0  0  0  0  0  0  0  0  0  0
    1.1088   -2.4121    0.8756 H   0  0  0  0  0  0  0  0  0  0  0  0
    1.5145   -4.9154    0.8463 H   0  0  0  0  0  0  0  0  0  0  0  0
    1.3937   -4.8972   -0.9255 H   0  0  0  0  0  0  0  0  0  0  0  0
   -0.8357   -4.4480    0.9645 H   0  0  0  0  0  0  0  0  0  0  0  0
   -1.9323   -5.1454   -3.0818 H   0  0  0  0  0  0  0  0  0  0  0  0
   -2.4506   -5.9611    1.1501 H   0  0  0  0  0  0  0  0  0  0  0  0
   -4.0745   -6.1929    0.2984 H   0  0  0  0  0  0  0  0  0  0  0  0
   -2.7248   -3.4149    0.8348 H   0  0  0  0  0  0  0  0  0  0  0  0
   -4.3354   -3.7412   -0.0088 H   0  0  0  0  0  0  0  0  0  0  0  0
  1  2  1  0
  1 21  1  0
  1 22  1  0
  1 23  1  0
  2  3  2  0
  2  8  1  0
  3  4  1  0
  4  5  1  0
  4  6  1  0
  5 24  1  0
  5 25  1  0
  5 26  1  0
  6  7  1  0
  6  8  2  0
  7 27  1  0
  7 28  1  0
  7 29  1  0
  8  9  1  0
  9 10  1  0
  9 30  1  0
  9 31  1  0
 10 11  1  0
 10 32  1  0
 10 33  1  0
 11 12  1  0
 11 34  1  0
 11 35  1  0
 12 13  1  0
 12 36  1  0
 13 14  2  0
 15 13  1  6
 15 16  1  0
 15 19  1  0
 15 20  1  0
 16 17  2  0
 16 18  1  0
 18 37  1  0
 19 20  1  0
 19 38  1  0
 19 39  1  0
 20 40  1  0
 20 41  1  0
M  END

