
     RDKit          3D

 49 49  0  0  0  0  0  0  0  0999 V2000
    2.4273   -1.0897   -0.3639 C   0  0  0  0  0  0  0  0  0  0  0  0
    2.0678    0.2275    0.3352 C   0  0  2  0  0  0  0  0  0  0  0  0
    0.5502    0.4406    0.3808 C   0  0  0  0  0  0  0  0  0  0  0  0
    2.7942    1.4796   -0.2371 C   0  0  2  0  0  0  0  0  0  0  0  0
    2.4646    2.3447    0.3773 H   0  0  0  0  0  0  0  0  0  0  0  0
    2.3983    1.8339   -1.6588 C   0  0  0  0  0  0  0  0  0  0  0  0
    2.9129    1.0770   -2.6786 N   0  0  0  0  0  0  0  0  0  0  0  0
    1.5697    2.8100   -1.8161 N   0  0  0  0  0  0  0  0  0  0  0  0
    1.2922    2.9897   -3.1900 O   0  0  0  0  0  0  0  0  0  0  0  0
    4.2438    1.3273   -0.1764 N   0  0  0  0  0  0  0  0  0  0  0  0
    5.0951    2.4988   -0.4693 C   0  0  0  0  0  0  0  0  0  0  0  0
    6.0397    2.0930    0.6954 C   0  0  2  0  0  0  0  0  0  0  0  0
    7.3176    1.5064    0.3436 N   0  0  0  0  0  0  0  0  0  0  0  0
    7.3886    0.4005   -0.6047 C   0  0  0  0  0  0  0  0  0  0  0  0
    8.4525    2.0289    0.9188 C   0  0  0  0  0  0  0  0  0  0  0  0
    8.4629    2.9502    1.7146 O   0  0  0  0  0  0  0  0  0  0  0  0
    9.5461    1.3735    0.4729 O   0  0  0  0  0  0  0  0  0  0  0  0
   10.8949    1.7214    0.9265 C   0  0  1  0  0  0  0  0  0  0  0  0
   11.0145    1.5042    2.4388 C   0  0  0  0  0  0  0  0  0  0  0  0
   11.7762    0.7275    0.1667 C   0  0  0  0  0  0  0  0  0  0  0  0
   11.2309    3.1610    0.5225 C   0  0  0  0  0  0  0  0  0  0  0  0
    4.9052    1.1226    1.1269 C   0  0  0  0  0  0  0  0  0  0  0  0
    1.9651   -1.9392    0.1646 H   0  0  0  0  0  0  0  0  0  0  0  0
    3.5154   -1.2561   -0.3819 H   0  0  0  0  0  0  0  0  0  0  0  0
    2.0669   -1.1019   -1.4039 H   0  0  0  0  0  0  0  0  0  0  0  0
    2.4165    0.1511    1.3817 H   0  0  0  0  0  0  0  0  0  0  0  0
    0.1241    0.5087   -0.6324 H   0  0  0  0  0  0  0  0  0  0  0  0
    0.2857    1.3699    0.9096 H   0  0  0  0  0  0  0  0  0  0  0  0
    0.0590   -0.3979    0.9000 H   0  0  0  0  0  0  0  0  0  0  0  0
    3.7727    0.5823   -2.4737 H   0  0  0  0  0  0  0  0  0  0  0  0
    2.7969    1.4565   -3.6116 H   0  0  0  0  0  0  0  0  0  0  0  0
    0.7127    3.7602   -3.1870 H   0  0  0  0  0  0  0  0  0  0  0  0
    4.5914    3.4672   -0.2830 H   0  0  0  0  0  0  0  0  0  0  0  0
    5.5273    2.5216   -1.4842 H   0  0  0  0  0  0  0  0  0  0  0  0
    6.2560    2.8924    1.4108 H   0  0  0  0  0  0  0  0  0  0  0  0
    6.3678    0.1374   -0.9120 H   0  0  0  0  0  0  0  0  0  0  0  0
    7.8621   -0.4864   -0.1562 H   0  0  0  0  0  0  0  0  0  0  0  0
    7.9703    0.6698   -1.5006 H   0  0  0  0  0  0  0  0  0  0  0  0
   10.7299    0.4729    2.7010 H   0  0  0  0  0  0  0  0  0  0  0  0
   10.3694    2.2006    2.9887 H   0  0  0  0  0  0  0  0  0  0  0  0
   12.0579    1.6603    2.7549 H   0  0  0  0  0  0  0  0  0  0  0  0
   11.5055   -0.3076    0.4252 H   0  0  0  0  0  0  0  0  0  0  0  0
   12.8353    0.8848    0.4212 H   0  0  0  0  0  0  0  0  0  0  0  0
   11.6561    0.8543   -0.9200 H   0  0  0  0  0  0  0  0  0  0  0  0
   10.5873    3.8775    1.0479 H   0  0  0  0  0  0  0  0  0  0  0  0
   11.0995    3.2944   -0.5629 H   0  0  0  0  0  0  0  0  0  0  0  0
   12.2820    3.3801    0.7678 H   0  0  0  0  0  0  0  0  0  0  0  0
    4.3297    1.5227    1.9852 H   0  0  0  0  0  0  0  0  0  0  0  0
    5.1917    0.0814    1.3528 H   0  0  0  0  0  0  0  0  0  0  0  0
  1  2  1  0
  1 23  1  0
  1 24  1  0
  1 25  1  0
  2  3  1  0
  2  4  1  0
  2 26  1  1
  3 27  1  0
  3 28  1  0
  3 29  1  0
  4  5  1  1
  4  6  1  0
  4 10  1  0
  6  7  1  0
  6  8  2  0
  7 30  1  0
  7 31  1  0
  8  9  1  0
  9 32  1  0
 10 11  1  0
 10 22  1  0
 11 12  1  0
 11 33  1  0
 11 34  1  0
 12 13  1  0
 12 22  1  0
 12 35  1  1
 13 14  1  0
 13 15  1  0
 14 36  1  0
 14 37  1  0
 14 38  1  0
 15 16  2  0
 15 17  1  0
 18 17  1  6
 18 19  1  0
 18 20  1  0
 18 21  1  0
 19 39  1  0
 19 40  1  0
 19 41  1  0
 20 42  1  0
 20 43  1  0
 20 44  1  0
 21 45  1  0
 21 46  1  0
 21 47  1  0
 22 48  1  0
 22 49  1  0
M  END

