
     RDKit          3D

 54 63  0  0  0  0  0  0  0  0999 V2000
   -0.2214   -1.9537   -1.1601 C   0  0  0  0  0  0  0  0  0  0  0  0
   -0.3424   -3.3380   -0.9997 C   0  0  0  0  0  0  0  0  0  0  0  0
    0.7536   -4.1170   -0.6039 C   0  0  0  0  0  0  0  0  0  0  0  0
    1.9928   -3.5099   -0.3706 C   0  0  0  0  0  0  0  0  0  0  0  0
    2.1180   -2.0975   -0.5932 C   0  0  0  0  0  0  0  0  0  0  0  0
    1.0160   -1.3278   -0.9653 C   0  0  0  0  0  0  0  0  0  0  0  0
    3.5268   -1.7214   -0.4224 C   0  0  0  0  0  0  0  0  0  0  0  0
    4.2385   -0.4991   -0.4514 C   0  0  0  0  0  0  0  0  0  0  0  0
    5.6024   -0.4988   -0.1929 C   0  0  0  0  0  0  0  0  0  0  0  0
    6.3203   -1.7037    0.0902 C   0  0  0  0  0  0  0  0  0  0  0  0
    7.6993   -1.7589    0.4194 C   0  0  0  0  0  0  0  0  0  0  0  0
    8.2878   -2.9737    0.7384 C   0  0  0  0  0  0  0  0  0  0  0  0
    7.5608   -4.1845    0.6896 C   0  0  0  0  0  0  0  0  0  0  0  0
    6.2195   -4.1991    0.3020 C   0  0  0  0  0  0  0  0  0  0  0  0
    5.3813   -5.4115    0.1930 C   0  0  0  0  0  0  0  0  0  0  0  0
    5.8741   -6.6833   -0.0771 C   0  0  0  0  0  0  0  0  0  0  0  0
    5.0001   -7.8197    0.1109 C   0  0  0  0  0  0  0  0  0  0  0  0
    5.6532   -9.0326   -0.1084 C   0  0  0  0  0  0  0  0  0  0  0  0
    4.9633  -10.2392    0.1549 C   0  0  0  0  0  0  0  0  0  0  0  0
    3.6667  -10.1881    0.6482 C   0  0  0  0  0  0  0  0  0  0  0  0
    2.9950   -8.9472    0.8874 C   0  0  0  0  0  0  0  0  0  0  0  0
    1.6952   -8.8314    1.4440 C   0  0  0  0  0  0  0  0  0  0  0  0
    1.1570   -7.5776    1.6935 C   0  0  0  0  0  0  0  0  0  0  0  0
    1.8488   -6.3933    1.3527 C   0  0  0  0  0  0  0  0  0  0  0  0
    3.1004   -6.4474    0.7362 C   0  0  0  0  0  0  0  0  0  0  0  0
    3.8909   -5.2712    0.3168 C   0  0  0  0  0  0  0  0  0  0  0  0
    3.3433   -4.0422   -0.0337 C   0  0  0  0  0  0  0  0  0  0  0  0
    4.2229   -2.9014   -0.1595 C   0  0  0  0  0  0  0  0  0  0  0  0
    5.6021   -2.9377    0.0695 C   0  0  0  0  0  0  0  0  0  0  0  0
    3.6828   -7.7360    0.5725 C   0  0  0  0  0  0  0  0  0  0  0  0
    7.0049   -8.7003   -0.5750 C   0  0  0  0  0  0  0  0  0  0  0  0
    8.0321   -9.5270   -1.0288 C   0  0  0  0  0  0  0  0  0  0  0  0
    9.2079   -8.9487   -1.5227 C   0  0  0  0  0  0  0  0  0  0  0  0
    9.3389   -7.5569   -1.5752 C   0  0  0  0  0  0  0  0  0  0  0  0
    8.3206   -6.7182   -1.1014 C   0  0  0  0  0  0  0  0  0  0  0  0
    7.1501   -7.2728   -0.5722 C   0  0  0  0  0  0  0  0  0  0  0  0
   -1.0912   -1.3607   -1.4538 H   0  0  0  0  0  0  0  0  0  0  0  0
   -1.3041   -3.8235   -1.1841 H   0  0  0  0  0  0  0  0  0  0  0  0
    0.6270   -5.1939   -0.4970 H   0  0  0  0  0  0  0  0  0  0  0  0
    1.1212   -0.2513   -1.1226 H   0  0  0  0  0  0  0  0  0  0  0  0
    3.7242    0.4434   -0.6559 H   0  0  0  0  0  0  0  0  0  0  0  0
    6.1527    0.4460   -0.1933 H   0  0  0  0  0  0  0  0  0  0  0  0
    8.2858   -0.8365    0.4483 H   0  0  0  0  0  0  0  0  0  0  0  0
    9.3378   -3.0023    1.0400 H   0  0  0  0  0  0  0  0  0  0  0  0
    8.0548   -5.1097    0.9850 H   0  0  0  0  0  0  0  0  0  0  0  0
    5.4449  -11.2070   -0.0069 H   0  0  0  0  0  0  0  0  0  0  0  0
    3.1369  -11.1176    0.8737 H   0  0  0  0  0  0  0  0  0  0  0  0
    1.1349   -9.7344    1.7015 H   0  0  0  0  0  0  0  0  0  0  0  0
    0.1764   -7.4958    2.1691 H   0  0  0  0  0  0  0  0  0  0  0  0
    1.4026   -5.4308    1.6013 H   0  0  0  0  0  0  0  0  0  0  0  0
    7.9140  -10.6136   -1.0171 H   0  0  0  0  0  0  0  0  0  0  0  0
   10.0186   -9.5867   -1.8834 H   0  0  0  0  0  0  0  0  0  0  0  0
   10.2471   -7.1123   -1.9898 H   0  0  0  0  0  0  0  0  0  0  0  0
    8.4516   -5.6384   -1.1642 H   0  0  0  0  0  0  0  0  0  0  0  0
  1  2  2  0
  1  6  1  0
  1 37  1  0
  2  3  1  0
  2 38  1  0
  3  4  2  0
  3 39  1  0
  4  5  1  0
  4 27  1  0
  5  6  2  0
  5  7  1  0
  6 40  1  0
  7  8  2  0
  7 28  1  0
  8  9  1  0
  8 41  1  0
  9 10  2  0
  9 42  1  0
 10 11  1  0
 10 29  1  0
 11 12  2  0
 11 43  1  0
 12 13  1  0
 12 44  1  0
 13 14  2  0
 13 45  1  0
 14 15  1  0
 14 29  1  0
 15 16  2  0
 15 26  1  0
 16 17  1  0
 16 36  1  0
 17 18  1  0
 17 30  2  0
 18 19  2  0
 18 31  1  0
 19 20  1  0
 19 46  1  0
 20 21  2  0
 20 47  1  0
 21 22  1  0
 21 30  1  0
 22 23  2  0
 22 48  1  0
 23 24  1  0
 23 49  1  0
 24 25  2  0
 24 50  1  0
 25 26  1  0
 25 30  1  0
 26 27  2  0
 27 28  1  0
 28 29  2  0
 31 32  1  0
 31 36  2  0
 32 33  2  0
 32 51  1  0
 33 34  1  0
 33 52  1  0
 34 35  2  0
 34 53  1  0
 35 36  1  0
 35 54  1  0
M  END

