
     RDKit          3D

 77 79  0  0  0  0  0  0  0  0999 V2000
   -0.7111    0.3033   -0.3399 C   0  0  0  0  0  0  0  0  0  0  0  0
    0.7682    0.2484   -0.7044 C   0  0  1  0  0  0  0  0  0  0  0  0
    1.0512   -0.7851   -0.9445 H   0  0  0  0  0  0  0  0  0  0  0  0
    1.0854    1.1228   -1.9412 C   0  0  0  0  0  0  0  0  0  0  0  0
    0.3703    2.0539   -2.2853 O   0  0  0  0  0  0  0  0  0  0  0  0
    2.2421    0.7789   -2.5670 N   0  0  0  0  0  0  0  0  0  0  0  0
    2.7743    1.5339   -3.6853 C   0  0  0  0  0  0  0  0  0  0  0  0
    2.3807    0.9537   -5.0493 C   0  0  0  0  0  0  0  0  0  0  0  0
    2.9514    1.7557   -6.2364 C   0  0  0  0  0  0  0  0  0  0  0  0
    4.4131    1.7566   -6.3242 C   0  0  0  0  0  0  0  0  0  0  0  0
    5.6290    1.7309   -6.4010 C   0  0  0  0  0  0  0  0  0  0  0  0
    7.0566    1.7535   -6.3788 C   0  0  0  0  0  0  0  0  0  0  0  0
    7.6857    2.5361   -5.3990 C   0  0  0  0  0  0  0  0  0  0  0  0
    8.9956    2.5661   -5.1643 N   0  0  0  0  0  0  0  0  0  0  0  0
    9.7237    1.7525   -5.9337 C   0  0  0  0  0  0  0  0  0  0  0  0
   11.0900    1.6614   -5.7427 N   0  0  0  0  0  0  0  0  0  0  0  0
   11.9453    2.2737   -4.8371 C   0  0  0  0  0  0  0  0  0  0  0  0
   13.3209    1.9470   -4.9070 C   0  0  0  0  0  0  0  0  0  0  0  0
   14.2009    2.5418   -4.0134 C   0  0  0  0  0  0  0  0  0  0  0  0
   13.8267    3.4199   -3.0725 N   0  0  0  0  0  0  0  0  0  0  0  0
   12.5467    3.7075   -3.0275 C   0  0  0  0  0  0  0  0  0  0  0  0
   12.1730    4.5834   -2.0885 F   0  0  0  0  0  0  0  0  0  0  0  0
   11.5467    3.1937   -3.8550 C   0  0  0  0  0  0  0  0  0  0  0  0
    9.2628    0.9855   -6.9242 N   0  0  0  0  0  0  0  0  0  0  0  0
    7.9512    0.9739   -7.2034 C   0  0  0  0  0  0  0  0  0  0  0  0
    7.5588    0.1893   -8.2540 N   0  0  0  0  0  0  0  0  0  0  0  0
    6.3068    0.3168   -8.9961 C   0  0  0  0  0  0  0  0  0  0  0  0
    6.6039    0.6383  -10.4644 C   0  0  0  0  0  0  0  0  0  0  0  0
    7.4718   -0.3085  -11.0484 O   0  0  0  0  0  0  0  0  0  0  0  0
    8.7001   -0.3906  -10.3532 C   0  0  0  0  0  0  0  0  0  0  0  0
    8.4818   -0.7556   -8.8862 C   0  0  0  0  0  0  0  0  0  0  0  0
    1.6510    0.6408    0.4119 N   0  0  0  0  0  0  0  0  0  0  0  0
    1.2952    1.8393    1.1633 C   0  0  0  0  0  0  0  0  0  0  0  0
    2.8442   -0.0290    0.5396 C   0  0  0  0  0  0  0  0  0  0  0  0
    3.2224   -0.8279   -0.3229 O   0  0  0  0  0  0  0  0  0  0  0  0
    3.6542    0.2169    1.7685 C   0  0  0  0  0  0  0  0  0  0  0  0
    4.8956   -0.2809    1.8747 C   0  0  0  0  0  0  0  0  0  0  0  0
    5.7697   -0.1805    3.0906 C   0  0  0  0  0  0  0  0  0  0  0  0
    7.1399    0.1848    2.7692 N   0  0  0  0  0  0  0  0  0  0  0  0
    7.2651    1.5356    2.2542 C   0  0  0  0  0  0  0  0  0  0  0  0
    8.0612   -0.0788    3.8564 C   0  0  0  0  0  0  0  0  0  0  0  0
   -1.3032   -0.1411   -1.1535 H   0  0  0  0  0  0  0  0  0  0  0  0
   -1.0664    1.3352   -0.2155 H   0  0  0  0  0  0  0  0  0  0  0  0
   -0.9055   -0.2682    0.5805 H   0  0  0  0  0  0  0  0  0  0  0  0
    2.7946    0.0356   -2.1359 H   0  0  0  0  0  0  0  0  0  0  0  0
    3.8722    1.5706   -3.5961 H   0  0  0  0  0  0  0  0  0  0  0  0
    2.3941    2.5646   -3.6055 H   0  0  0  0  0  0  0  0  0  0  0  0
    1.2813    0.9478   -5.1263 H   0  0  0  0  0  0  0  0  0  0  0  0
    2.7170   -0.0947   -5.1164 H   0  0  0  0  0  0  0  0  0  0  0  0
    2.5924    2.7998   -6.1784 H   0  0  0  0  0  0  0  0  0  0  0  0
    2.5383    1.3505   -7.1770 H   0  0  0  0  0  0  0  0  0  0  0  0
    7.0583    3.1626   -4.7558 H   0  0  0  0  0  0  0  0  0  0  0  0
   11.5226    1.0183   -6.3962 H   0  0  0  0  0  0  0  0  0  0  0  0
   13.6885    1.2369   -5.6520 H   0  0  0  0  0  0  0  0  0  0  0  0
   15.2685    2.2979   -4.0562 H   0  0  0  0  0  0  0  0  0  0  0  0
   10.5082    3.4918   -3.7451 H   0  0  0  0  0  0  0  0  0  0  0  0
    5.6784    1.1005   -8.5630 H   0  0  0  0  0  0  0  0  0  0  0  0
    5.7484   -0.6357   -8.9376 H   0  0  0  0  0  0  0  0  0  0  0  0
    7.0403    1.6570  -10.5329 H   0  0  0  0  0  0  0  0  0  0  0  0
    5.6702    0.6243  -11.0477 H   0  0  0  0  0  0  0  0  0  0  0  0
    9.2460    0.5734  -10.4161 H   0  0  0  0  0  0  0  0  0  0  0  0
    9.3031   -1.1629  -10.8551 H   0  0  0  0  0  0  0  0  0  0  0  0
    9.4286   -0.7535   -8.3371 H   0  0  0  0  0  0  0  0  0  0  0  0
    8.0337   -1.7651   -8.8312 H   0  0  0  0  0  0  0  0  0  0  0  0
    0.8389    2.5709    0.4793 H   0  0  0  0  0  0  0  0  0  0  0  0
    2.1874    2.3101    1.5921 H   0  0  0  0  0  0  0  0  0  0  0  0
    0.5777    1.6336    1.9762 H   0  0  0  0  0  0  0  0  0  0  0  0
    3.2184    0.7759    2.6002 H   0  0  0  0  0  0  0  0  0  0  0  0
    5.3055   -0.8369    1.0240 H   0  0  0  0  0  0  0  0  0  0  0  0
    5.7967   -1.1823    3.5591 H   0  0  0  0  0  0  0  0  0  0  0  0
    5.3058    0.5010    3.8436 H   0  0  0  0  0  0  0  0  0  0  0  0
    6.6021    1.6797    1.3876 H   0  0  0  0  0  0  0  0  0  0  0  0
    8.2988    1.7170    1.9203 H   0  0  0  0  0  0  0  0  0  0  0  0
    7.0102    2.3174    3.0083 H   0  0  0  0  0  0  0  0  0  0  0  0
    8.0063   -1.1377    4.1557 H   0  0  0  0  0  0  0  0  0  0  0  0
    7.8666    0.5409    4.7634 H   0  0  0  0  0  0  0  0  0  0  0  0
    9.0937    0.1259    3.5317 H   0  0  0  0  0  0  0  0  0  0  0  0
  1  2  1  0
  1 42  1  0
  1 43  1  0
  1 44  1  0
  2  3  1  6
  2  4  1  0
  2 32  1  0
  4  5  2  0
  4  6  1  0
  6  7  1  0
  6 45  1  0
  7  8  1  0
  7 46  1  0
  7 47  1  0
  8  9  1  0
  8 48  1  0
  8 49  1  0
  9 10  1  0
  9 50  1  0
  9 51  1  0
 10 11  3  0
 11 12  1  0
 12 13  2  0
 12 25  1  0
 13 14  1  0
 13 52  1  0
 14 15  2  0
 15 16  1  0
 15 24  1  0
 16 17  1  0
 16 53  1  0
 17 18  2  0
 17 23  1  0
 18 19  1  0
 18 54  1  0
 19 20  2  0
 19 55  1  0
 20 21  1  0
 21 22  1  0
 21 23  2  0
 23 56  1  0
 24 25  2  0
 25 26  1  0
 26 27  1  0
 26 31  1  0
 27 28  1  0
 27 57  1  0
 27 58  1  0
 28 29  1  0
 28 59  1  0
 28 60  1  0
 29 30  1  0
 30 31  1  0
 30 61  1  0
 30 62  1  0
 31 63  1  0
 31 64  1  0
 32 33  1  0
 32 34  1  0
 33 65  1  0
 33 66  1  0
 33 67  1  0
 34 35  2  0
 34 36  1  0
 36 37  2  0
 36 68  1  0
 37 38  1  0
 37 69  1  0
 38 39  1  0
 38 70  1  0
 38 71  1  0
 39 40  1  0
 39 41  1  0
 40 72  1  0
 40 73  1  0
 40 74  1  0
 41 75  1  0
 41 76  1  0
 41 77  1  0
M  END

