
     RDKit          3D

 50 52  0  0  0  0  0  0  0  0999 V2000
    1.4442    0.3451   -0.1426 C   0  0  0  0  0  0  0  0  0  0  0  0
    2.9418    0.1001   -0.3284 C   0  0  1  0  0  0  0  0  0  0  0  0
    3.4511   -0.5786    0.8256 O   0  0  0  0  0  0  0  0  0  0  0  0
    3.2232   -0.7724   -1.5931 C   0  0  0  0  0  0  0  0  0  0  0  0
    2.7576   -0.2174   -2.9218 C   0  0  0  0  0  0  0  0  0  0  0  0
    3.5487    0.6965   -3.6376 C   0  0  0  0  0  0  0  0  0  0  0  0
    3.1193    1.2139   -4.8619 C   0  0  0  0  0  0  0  0  0  0  0  0
    1.8883    0.8242   -5.3978 C   0  0  0  0  0  0  0  0  0  0  0  0
    1.0925   -0.0887   -4.7002 C   0  0  0  0  0  0  0  0  0  0  0  0
    1.5259   -0.6032   -3.4752 C   0  0  0  0  0  0  0  0  0  0  0  0
    3.6632    1.4770   -0.4290 C   0  0  0  0  0  0  0  0  0  0  0  0
    2.9871    2.4714   -0.6550 O   0  0  0  0  0  0  0  0  0  0  0  0
    5.0311    1.5474   -0.3211 N   0  0  0  0  0  0  0  0  0  0  0  0
    5.9697    0.4881    0.0521 C   0  0  0  0  0  0  0  0  0  0  0  0
    6.6200    0.7958    1.4060 C   0  0  0  0  0  0  0  0  0  0  0  0
    7.3048    2.1738    1.4107 C   0  0  2  0  0  0  0  0  0  0  0  0
    8.3579    2.1827    0.4358 O   0  0  0  0  0  0  0  0  0  0  0  0
    7.8750    2.5387    2.7930 C   0  0  0  0  0  0  0  0  0  0  0  0
    8.5101    3.9351    2.7996 C   0  0  0  0  0  0  0  0  0  0  0  0
    7.5233    5.0039    2.3113 C   0  0  0  0  0  0  0  0  0  0  0  0
    6.9314    4.6473    0.9409 C   0  0  0  0  0  0  0  0  0  0  0  0
    6.2924    3.2521    0.9537 C   0  0  1  0  0  0  0  0  0  0  0  0
    5.6611    2.8697   -0.3921 C   0  0  0  0  0  0  0  0  0  0  0  0
    0.9195   -0.6228   -0.0599 H   0  0  0  0  0  0  0  0  0  0  0  0
    1.0191    0.9058   -0.9833 H   0  0  0  0  0  0  0  0  0  0  0  0
    1.2706    0.9235    0.7752 H   0  0  0  0  0  0  0  0  0  0  0  0
    2.8759   -1.3370    0.9953 H   0  0  0  0  0  0  0  0  0  0  0  0
    2.7340   -1.7454   -1.4124 H   0  0  0  0  0  0  0  0  0  0  0  0
    4.3042   -0.9717   -1.6364 H   0  0  0  0  0  0  0  0  0  0  0  0
    4.5147    1.0052   -3.2300 H   0  0  0  0  0  0  0  0  0  0  0  0
    3.7509    1.9248   -5.4010 H   0  0  0  0  0  0  0  0  0  0  0  0
    1.5526    1.2273   -6.3567 H   0  0  0  0  0  0  0  0  0  0  0  0
    0.1310   -0.4057   -5.1127 H   0  0  0  0  0  0  0  0  0  0  0  0
    0.8985   -1.3227   -2.9411 H   0  0  0  0  0  0  0  0  0  0  0  0
    6.7562    0.4384   -0.7208 H   0  0  0  0  0  0  0  0  0  0  0  0
    5.4572   -0.4735    0.1019 H   0  0  0  0  0  0  0  0  0  0  0  0
    7.3658    0.0146    1.6432 H   0  0  0  0  0  0  0  0  0  0  0  0
    5.8473    0.7539    2.1908 H   0  0  0  0  0  0  0  0  0  0  0  0
    9.0257    1.5405    0.7121 H   0  0  0  0  0  0  0  0  0  0  0  0
    8.6145    1.7729    3.0935 H   0  0  0  0  0  0  0  0  0  0  0  0
    7.0611    2.4889    3.5376 H   0  0  0  0  0  0  0  0  0  0  0  0
    9.3921    3.9269    2.1375 H   0  0  0  0  0  0  0  0  0  0  0  0
    8.8736    4.1797    3.8117 H   0  0  0  0  0  0  0  0  0  0  0  0
    8.0199    5.9878    2.2681 H   0  0  0  0  0  0  0  0  0  0  0  0
    6.7022    5.1032    3.0455 H   0  0  0  0  0  0  0  0  0  0  0  0
    7.7254    4.6713    0.1758 H   0  0  0  0  0  0  0  0  0  0  0  0
    6.1766    5.3954    0.6448 H   0  0  0  0  0  0  0  0  0  0  0  0
    5.4799    3.2534    1.7031 H   0  0  0  0  0  0  0  0  0  0  0  0
    6.4420    2.8515   -1.1712 H   0  0  0  0  0  0  0  0  0  0  0  0
    4.8892    3.5924   -0.6795 H   0  0  0  0  0  0  0  0  0  0  0  0
  1  2  1  0
  1 24  1  0
  1 25  1  0
  1 26  1  0
  2  3  1  1
  2  4  1  0
  2 11  1  0
  3 27  1  0
  4  5  1  0
  4 28  1  0
  4 29  1  0
  5  6  2  0
  5 10  1  0
  6  7  1  0
  6 30  1  0
  7  8  2  0
  7 31  1  0
  8  9  1  0
  8 32  1  0
  9 10  2  0
  9 33  1  0
 10 34  1  0
 11 12  2  0
 11 13  1  0
 13 14  1  0
 13 23  1  0
 14 15  1  0
 14 35  1  0
 14 36  1  0
 15 16  1  0
 15 37  1  0
 15 38  1  0
 16 17  1  6
 16 18  1  0
 16 22  1  0
 17 39  1  0
 18 19  1  0
 18 40  1  0
 18 41  1  0
 19 20  1  0
 19 42  1  0
 19 43  1  0
 20 21  1  0
 20 44  1  0
 20 45  1  0
 21 22  1  0
 21 46  1  0
 21 47  1  0
 22 23  1  0
 22 48  1  1
 23 49  1  0
 23 50  1  0
M  END

