
     RDKit          3D

 84 90  0  0  0  0  0  0  0  0999 V2000
    6.3039    5.8525   -0.7048 C   0  0  0  0  0  0  0  0  0  0  0  0
    7.6529    5.2226   -0.4074 C   0  0  0  0  0  0  0  0  0  0  0  0
    7.5762    4.3124    0.7123 O   0  0  0  0  0  0  0  0  0  0  0  0
    7.2301    3.0463    0.4619 C   0  0  0  0  0  0  0  0  0  0  0  0
    7.0374    2.5739   -0.6301 O   0  0  0  0  0  0  0  0  0  0  0  0
    7.2104    2.2306    1.7283 C   0  0  0  0  0  0  0  0  0  0  0  0
    6.1610    2.0061    2.5739 C   0  0  0  0  0  0  0  0  0  0  0  0
    4.7970    2.4942    2.4545 C   0  0  0  0  0  0  0  0  0  0  0  0
    3.8677    2.1275    3.1451 O   0  0  0  0  0  0  0  0  0  0  0  0
    4.6624    3.4220    1.4649 O   0  0  0  0  0  0  0  0  0  0  0  0
    3.3387    3.9142    1.2064 C   0  0  0  0  0  0  0  0  0  0  0  0
    2.5697    3.0019    0.2640 C   0  0  0  0  0  0  0  0  0  0  0  0
    6.5606    0.9062    3.5583 C   0  0  2  0  0  0  0  0  0  0  0  0
    5.9924   -0.4497    3.1220 C   0  0  0  0  0  0  0  0  0  0  0  0
    6.0645   -1.0538    1.8710 C   0  0  0  0  0  0  0  0  0  0  0  0
    5.4706   -2.3116    1.7067 C   0  0  0  0  0  0  0  0  0  0  0  0
    5.5577   -3.0985    0.1443 Cl  0  0  0  0  0  0  0  0  0  0  0  0
    4.8043   -2.9517    2.7592 C   0  0  0  0  0  0  0  0  0  0  0  0
    4.7148   -2.3243    4.0048 C   0  0  0  0  0  0  0  0  0  0  0  0
    5.3077   -1.0711    4.1842 C   0  0  0  0  0  0  0  0  0  0  0  0
    5.3261   -0.1681    5.3396 C   0  0  0  0  0  0  0  0  0  0  0  0
    4.7559   -0.3005    6.6089 C   0  0  0  0  0  0  0  0  0  0  0  0
    4.8615    0.7519    7.5228 C   0  0  0  0  0  0  0  0  0  0  0  0
    5.5197    1.9279    7.1460 C   0  0  0  0  0  0  0  0  0  0  0  0
    5.6345    3.2497    8.2906 Cl  0  0  0  0  0  0  0  0  0  0  0  0
    6.0922    2.0774    5.8759 C   0  0  0  0  0  0  0  0  0  0  0  0
    6.0139    1.0127    4.9823 C   0  0  0  0  0  0  0  0  0  0  0  0
    8.1810    0.9767    3.4378 C   0  0  1  0  0  0  0  0  0  0  0  0
    8.7886    1.9140    4.4798 C   0  0  0  0  0  0  0  0  0  0  0  0
    9.2108    3.1701    4.2587 C   0  0  0  0  0  0  0  0  0  0  0  0
    9.8038    4.0886    5.2461 C   0  0  0  0  0  0  0  0  0  0  0  0
   10.3970    5.2825    4.7907 C   0  0  0  0  0  0  0  0  0  0  0  0
   10.9828    6.1859    5.6796 C   0  0  0  0  0  0  0  0  0  0  0  0
   10.9815    5.9190    7.0512 C   0  0  0  0  0  0  0  0  0  0  0  0
   10.3842    4.7439    7.5230 C   0  0  0  0  0  0  0  0  0  0  0  0
    9.8017    3.8414    6.6343 C   0  0  0  0  0  0  0  0  0  0  0  0
    8.8933   -0.3758    3.5318 C   0  0  0  0  0  0  0  0  0  0  0  0
    8.7954   -1.1169    4.7248 C   0  0  0  0  0  0  0  0  0  0  0  0
    9.4409   -2.3446    4.8812 C   0  0  0  0  0  0  0  0  0  0  0  0
    9.3971   -3.0968    6.0113 O   0  0  0  0  0  0  0  0  0  0  0  0
    8.6877   -2.6168    7.1327 C   0  0  0  0  0  0  0  0  0  0  0  0
   10.2172   -2.8547    3.8091 C   0  0  0  0  0  0  0  0  0  0  0  0
   10.9228   -4.0166    3.9117 O   0  0  0  0  0  0  0  0  0  0  0  0
   10.1900   -5.2230    4.0753 C   0  0  0  0  0  0  0  0  0  0  0  0
   10.3216   -2.1064    2.6416 C   0  0  0  0  0  0  0  0  0  0  0  0
    9.6793   -0.8676    2.4771 C   0  0  0  0  0  0  0  0  0  0  0  0
    9.8301   -0.1138    1.1724 C   0  0  0  0  0  0  0  0  0  0  0  0
    9.5697    1.3814    1.3561 C   0  0  0  0  0  0  0  0  0  0  0  0
    8.3366    1.5611    2.0946 N   0  0  0  0  0  0  0  0  0  0  0  0
    6.4137    6.6026   -1.5043 H   0  0  0  0  0  0  0  0  0  0  0  0
    5.8997    6.3525    0.1884 H   0  0  0  0  0  0  0  0  0  0  0  0
    5.5834    5.0933   -1.0411 H   0  0  0  0  0  0  0  0  0  0  0  0
    8.3895    5.9774   -0.0974 H   0  0  0  0  0  0  0  0  0  0  0  0
    8.0389    4.6777   -1.2814 H   0  0  0  0  0  0  0  0  0  0  0  0
    3.4893    4.9095    0.7625 H   0  0  0  0  0  0  0  0  0  0  0  0
    2.8070    4.0260    2.1627 H   0  0  0  0  0  0  0  0  0  0  0  0
    3.1221    2.8502   -0.6766 H   0  0  0  0  0  0  0  0  0  0  0  0
    1.5907    3.4475    0.0234 H   0  0  0  0  0  0  0  0  0  0  0  0
    2.3940    2.0218    0.7311 H   0  0  0  0  0  0  0  0  0  0  0  0
    6.5490   -0.5665    1.0240 H   0  0  0  0  0  0  0  0  0  0  0  0
    4.3487   -3.9289    2.5911 H   0  0  0  0  0  0  0  0  0  0  0  0
    4.1726   -2.8125    4.8184 H   0  0  0  0  0  0  0  0  0  0  0  0
    4.2159   -1.2085    6.8888 H   0  0  0  0  0  0  0  0  0  0  0  0
    4.4238    0.6748    8.5194 H   0  0  0  0  0  0  0  0  0  0  0  0
    6.5742    3.0158    5.6060 H   0  0  0  0  0  0  0  0  0  0  0  0
    8.8924    1.4775    5.4750 H   0  0  0  0  0  0  0  0  0  0  0  0
    9.1154    3.5842    3.2500 H   0  0  0  0  0  0  0  0  0  0  0  0
   10.3991    5.4986    3.7186 H   0  0  0  0  0  0  0  0  0  0  0  0
   11.4399    7.1032    5.2995 H   0  0  0  0  0  0  0  0  0  0  0  0
   11.4356    6.6249    7.7511 H   0  0  0  0  0  0  0  0  0  0  0  0
   10.3653    4.5334    8.5955 H   0  0  0  0  0  0  0  0  0  0  0  0
    9.3206    2.9437    7.0283 H   0  0  0  0  0  0  0  0  0  0  0  0
    8.1914   -0.7256    5.5422 H   0  0  0  0  0  0  0  0  0  0  0  0
    8.7988   -3.3747    7.9197 H   0  0  0  0  0  0  0  0  0  0  0  0
    7.6140   -2.4788    6.9145 H   0  0  0  0  0  0  0  0  0  0  0  0
    9.1008   -1.6594    7.4974 H   0  0  0  0  0  0  0  0  0  0  0  0
   10.9259   -6.0393    4.0649 H   0  0  0  0  0  0  0  0  0  0  0  0
    9.4802   -5.3724    3.2412 H   0  0  0  0  0  0  0  0  0  0  0  0
    9.6385   -5.2431    5.0278 H   0  0  0  0  0  0  0  0  0  0  0  0
   10.9418   -2.5167    1.8408 H   0  0  0  0  0  0  0  0  0  0  0  0
    9.1228   -0.5120    0.4224 H   0  0  0  0  0  0  0  0  0  0  0  0
   10.8410   -0.2686    0.7617 H   0  0  0  0  0  0  0  0  0  0  0  0
    9.4845    1.8846    0.3834 H   0  0  0  0  0  0  0  0  0  0  0  0
   10.4081    1.8464    1.9060 H   0  0  0  0  0  0  0  0  0  0  0  0
  1  2  1  0
  1 50  1  0
  1 51  1  0
  1 52  1  0
  2  3  1  0
  2 53  1  0
  2 54  1  0
  3  4  1  0
  4  5  2  0
  4  6  1  0
  6  7  2  0
  6 49  1  0
  7  8  1  0
 13  7  1  6
  8  9  2  0
  8 10  1  0
 10 11  1  0
 11 12  1  0
 11 55  1  0
 11 56  1  0
 12 57  1  0
 12 58  1  0
 12 59  1  0
 13 14  1  0
 13 27  1  0
 13 28  1  0
 14 15  2  0
 14 20  1  0
 15 16  1  0
 15 60  1  0
 16 17  1  0
 16 18  2  0
 18 19  1  0
 18 61  1  0
 19 20  2  0
 19 62  1  0
 20 21  1  0
 21 22  2  0
 21 27  1  0
 22 23  1  0
 22 63  1  0
 23 24  2  0
 23 64  1  0
 24 25  1  0
 24 26  1  0
 26 27  2  0
 26 65  1  0
 28 29  1  1
 28 37  1  0
 28 49  1  0
 29 30  2  0
 29 66  1  0
 30 31  1  0
 30 67  1  0
 31 32  2  0
 31 36  1  0
 32 33  1  0
 32 68  1  0
 33 34  2  0
 33 69  1  0
 34 35  1  0
 34 70  1  0
 35 36  2  0
 35 71  1  0
 36 72  1  0
 37 38  2  0
 37 46  1  0
 38 39  1  0
 38 73  1  0
 39 40  1  0
 39 42  2  0
 40 41  1  0
 41 74  1  0
 41 75  1  0
 41 76  1  0
 42 43  1  0
 42 45  1  0
 43 44  1  0
 44 77  1  0
 44 78  1  0
 44 79  1  0
 45 46  2  0
 45 80  1  0
 46 47  1  0
 47 48  1  0
 47 81  1  0
 47 82  1  0
 48 49  1  0
 48 83  1  0
 48 84  1  0
M  END

