
     RDKit          3D

 28 30  0  0  0  0  0  0  0  0999 V2000
    1.6346   -0.8540   -0.7466 O   0  0  0  0  0  0  0  0  0  0  0  0
    2.3185    0.2452   -0.0728 S   0  0  1  0  0  0  0  0  0  0  0  0
    1.6752    1.0443    0.9593 O   0  0  0  0  0  0  0  0  0  0  0  0
    3.6857   -0.5102    0.5905 N   0  0  0  0  0  0  0  0  0  0  0  0
    4.6857    0.0965    1.3341 C   0  0  0  0  0  0  0  0  0  0  0  0
    5.7663   -0.5791    1.9921 C   0  0  0  0  0  0  0  0  0  0  0  0
    6.4410    0.4465    2.5816 C   0  0  0  0  0  0  0  0  0  0  0  0
    5.8452    1.6135    2.3178 O   0  0  0  0  0  0  0  0  0  0  0  0
    4.7350    1.3981    1.5178 N   0  0  0  0  0  0  0  0  0  0  0  0
    2.9697    1.3624   -1.3069 C   0  0  0  0  0  0  0  0  0  0  0  0
    2.6703    2.7289   -1.2235 C   0  0  0  0  0  0  0  0  0  0  0  0
    3.1085    3.5927   -2.2275 C   0  0  0  0  0  0  0  0  0  0  0  0
    2.7248    5.2957   -2.1287 Cl  0  0  0  0  0  0  0  0  0  0  0  0
    3.8569    3.1212   -3.3202 C   0  0  0  0  0  0  0  0  0  0  0  0
    4.1565    1.7667   -3.3887 C   0  0  0  0  0  0  0  0  0  0  0  0
    3.7156    0.8898   -2.3886 C   0  0  0  0  0  0  0  0  0  0  0  0
    4.1150   -0.3867   -2.5748 O   0  0  0  0  0  0  0  0  0  0  0  0
    4.6814   -0.4850   -3.9039 C   0  0  0  0  0  0  0  0  0  0  0  0
    4.9836    0.9599   -4.3651 C   0  0  0  0  0  0  0  0  0  0  0  0
    3.8610   -1.4216    0.1794 H   0  0  0  0  0  0  0  0  0  0  0  0
    5.9787   -1.6440    2.0247 H   0  0  0  0  0  0  0  0  0  0  0  0
    7.3313    0.4903    3.2066 H   0  0  0  0  0  0  0  0  0  0  0  0
    2.0990    3.0952   -0.3706 H   0  0  0  0  0  0  0  0  0  0  0  0
    4.1953    3.8203   -4.0871 H   0  0  0  0  0  0  0  0  0  0  0  0
    3.9335   -0.9725   -4.5513 H   0  0  0  0  0  0  0  0  0  0  0  0
    5.5687   -1.1297   -3.8425 H   0  0  0  0  0  0  0  0  0  0  0  0
    4.7011    1.1238   -5.4160 H   0  0  0  0  0  0  0  0  0  0  0  0
    6.0550    1.2069   -4.2687 H   0  0  0  0  0  0  0  0  0  0  0  0
  1  2  2  0
  2  3  2  0
  2  4  1  1
  2 10  1  0
  4  5  1  0
  4 20  1  0
  5  6  1  0
  5  9  2  0
  6  7  2  0
  6 21  1  0
  7  8  1  0
  7 22  1  0
  8  9  1  0
 10 11  2  0
 10 16  1  0
 11 12  1  0
 11 23  1  0
 12 13  1  0
 12 14  2  0
 14 15  1  0
 14 24  1  0
 15 16  2  0
 15 19  1  0
 16 17  1  0
 17 18  1  0
 18 19  1  0
 18 25  1  0
 18 26  1  0
 19 27  1  0
 19 28  1  0
M  END

