
     RDKit          3D

 32 34  0  0  0  0  0  0  0  0999 V2000
    1.5503   -1.0930   -0.5731 O   0  0  0  0  0  0  0  0  0  0  0  0
    2.7665   -0.4751   -0.2335 C   0  0  0  0  0  0  0  0  0  0  0  0
    2.9501   -0.4153    1.2748 C   0  0  1  0  0  0  0  0  0  0  0  0
    1.8447    0.2862    1.8815 N   0  0  0  0  0  0  0  0  0  0  0  0
    1.5115    0.2252    3.3119 C   0  0  0  0  0  0  0  0  0  0  0  0
    1.0584    1.7166    3.2570 C   0  0  2  0  0  0  0  0  0  0  0  0
   -0.4292    1.9735    3.2421 C   0  0  0  0  0  0  0  0  0  0  0  0
   -1.2816    1.2971    2.3507 C   0  0  0  0  0  0  0  0  0  0  0  0
   -2.6556    1.5441    2.3462 C   0  0  0  0  0  0  0  0  0  0  0  0
   -3.2083    2.4742    3.2337 C   0  0  0  0  0  0  0  0  0  0  0  0
   -2.3739    3.1534    4.1243 C   0  0  0  0  0  0  0  0  0  0  0  0
   -0.9977    2.9033    4.1261 C   0  0  0  0  0  0  0  0  0  0  0  0
    1.7923    1.7599    1.8833 C   0  0  0  0  0  0  0  0  0  0  0  0
    3.5371   -1.6084    1.9710 C   0  0  0  0  0  0  0  0  0  0  0  0
    4.3533   -0.3402    1.8410 C   0  0  0  0  0  0  0  0  0  0  0  0
    0.9184   -0.7753    0.0924 H   0  0  0  0  0  0  0  0  0  0  0  0
    2.8297    0.5566   -0.6446 H   0  0  0  0  0  0  0  0  0  0  0  0
    3.5868   -1.0506   -0.6928 H   0  0  0  0  0  0  0  0  0  0  0  0
    2.3848    0.0888    3.9799 H   0  0  0  0  0  0  0  0  0  0  0  0
    0.7439   -0.5199    3.5806 H   0  0  0  0  0  0  0  0  0  0  0  0
    1.5280    2.3449    4.0260 H   0  0  0  0  0  0  0  0  0  0  0  0
   -0.8569    0.5692    1.6545 H   0  0  0  0  0  0  0  0  0  0  0  0
   -3.3001    1.0073    1.6450 H   0  0  0  0  0  0  0  0  0  0  0  0
   -4.2841    2.6671    3.2298 H   0  0  0  0  0  0  0  0  0  0  0  0
   -2.7938    3.8824    4.8225 H   0  0  0  0  0  0  0  0  0  0  0  0
   -0.3523    3.4404    4.8275 H   0  0  0  0  0  0  0  0  0  0  0  0
    2.7918    2.2333    1.9507 H   0  0  0  0  0  0  0  0  0  0  0  0
    1.2401    2.2111    1.0419 H   0  0  0  0  0  0  0  0  0  0  0  0
    3.7999   -2.4727    1.3543 H   0  0  0  0  0  0  0  0  0  0  0  0
    3.1641   -1.8715    2.9650 H   0  0  0  0  0  0  0  0  0  0  0  0
    5.1990   -0.3254    1.1464 H   0  0  0  0  0  0  0  0  0  0  0  0
    4.5119    0.2532    2.7470 H   0  0  0  0  0  0  0  0  0  0  0  0
  1  2  1  0
  1 16  1  0
  3  2  1  6
  2 17  1  0
  2 18  1  0
  3  4  1  0
  3 14  1  0
  3 15  1  0
  4  5  1  0
  4 13  1  0
  5  6  1  0
  5 19  1  0
  5 20  1  0
  6  7  1  0
  6 13  1  0
  6 21  1  1
  7  8  2  0
  7 12  1  0
  8  9  1  0
  8 22  1  0
  9 10  2  0
  9 23  1  0
 10 11  1  0
 10 24  1  0
 11 12  2  0
 11 25  1  0
 12 26  1  0
 13 27  1  0
 13 28  1  0
 14 15  1  0
 14 29  1  0
 14 30  1  0
 15 31  1  0
 15 32  1  0
M  END

