
     RDKit          3D

 41 45  0  0  0  0  0  0  0  0999 V2000
    3.4474   -0.4941    1.6036 C   0  0  0  0  0  0  0  0  0  0  0  0
    2.8874    0.4739    0.5649 C   0  0  1  0  0  0  0  0  0  0  0  0
    2.3292    1.2650    1.0800 H   0  0  0  0  0  0  0  0  0  0  0  0
    4.3225    1.3560   -0.2493 S   0  0  0  0  0  0  0  0  0  0  0  0
    3.3546    2.2398   -1.4169 C   0  0  0  0  0  0  0  0  0  0  0  0
    2.3420    1.6340   -2.1340 C   0  0  0  0  0  0  0  0  0  0  0  0
    1.7221    2.6677   -2.9226 C   0  0  0  0  0  0  0  0  0  0  0  0
    0.6556    2.7249   -3.8444 C   0  0  0  0  0  0  0  0  0  0  0  0
    0.3405    3.9397   -4.4450 C   0  0  0  0  0  0  0  0  0  0  0  0
    1.0666    5.1130   -4.1507 C   0  0  0  0  0  0  0  0  0  0  0  0
    2.1249    5.0937   -3.2460 C   0  0  0  0  0  0  0  0  0  0  0  0
    2.4400    3.8720   -2.6340 C   0  0  0  0  0  0  0  0  0  0  0  0
    3.4227    3.5920   -1.7004 N   0  0  0  0  0  0  0  0  0  0  0  0
    4.3358    4.5539   -1.1244 C   0  0  0  0  0  0  0  0  0  0  0  0
    2.1422    0.1498   -1.9496 C   0  0  2  0  0  0  0  0  0  0  0  0
    3.0962   -0.3329   -2.2261 H   0  0  0  0  0  0  0  0  0  0  0  0
    1.0509   -0.4888   -2.7746 C   0  0  0  0  0  0  0  0  0  0  0  0
    1.2542   -0.8964   -4.0997 C   0  0  0  0  0  0  0  0  0  0  0  0
    0.2152   -1.4829   -4.8238 C   0  0  0  0  0  0  0  0  0  0  0  0
    0.5144   -2.0283   -6.6264 Br  0  0  0  0  0  0  0  0  0  0  0  0
   -1.0421   -1.6797   -4.2415 C   0  0  0  0  0  0  0  0  0  0  0  0
   -1.2505   -1.2861   -2.9204 C   0  0  0  0  0  0  0  0  0  0  0  0
   -0.2083   -0.6959   -2.2004 C   0  0  0  0  0  0  0  0  0  0  0  0
   -0.4902   -0.3030   -0.9101 O   0  0  0  0  0  0  0  0  0  0  0  0
    0.4810    0.0233   -0.0082 C   0  0  0  0  0  0  0  0  0  0  0  0
    0.1465    0.4267    1.0704 O   0  0  0  0  0  0  0  0  0  0  0  0
    1.9272   -0.2114   -0.4456 C   0  0  2  0  0  0  0  0  0  0  0  0
    2.0667   -1.3071   -0.3756 H   0  0  0  0  0  0  0  0  0  0  0  0
    4.0421   -1.2939    1.1330 H   0  0  0  0  0  0  0  0  0  0  0  0
    2.6152   -0.9573    2.1561 H   0  0  0  0  0  0  0  0  0  0  0  0
    4.0858    0.0281    2.3326 H   0  0  0  0  0  0  0  0  0  0  0  0
    0.0824    1.8295   -4.0880 H   0  0  0  0  0  0  0  0  0  0  0  0
   -0.4847    3.9871   -5.1599 H   0  0  0  0  0  0  0  0  0  0  0  0
    0.7951    6.0517   -4.6400 H   0  0  0  0  0  0  0  0  0  0  0  0
    2.6872    6.0026   -3.0219 H   0  0  0  0  0  0  0  0  0  0  0  0
    3.7855    5.4354   -0.7587 H   0  0  0  0  0  0  0  0  0  0  0  0
    5.0885    4.8909   -1.8576 H   0  0  0  0  0  0  0  0  0  0  0  0
    4.8532    4.0894   -0.2743 H   0  0  0  0  0  0  0  0  0  0  0  0
    2.2306   -0.7463   -4.5641 H   0  0  0  0  0  0  0  0  0  0  0  0
   -1.8488   -2.1405   -4.8134 H   0  0  0  0  0  0  0  0  0  0  0  0
   -2.2169   -1.4263   -2.4329 H   0  0  0  0  0  0  0  0  0  0  0  0
  1  2  1  0
  1 29  1  0
  1 30  1  0
  1 31  1  0
  2  3  1  1
  2  4  1  0
  2 27  1  0
  4  5  1  0
  5  6  2  0
  5 13  1  0
  6  7  1  0
  6 15  1  0
  7  8  2  0
  7 12  1  0
  8  9  1  0
  8 32  1  0
  9 10  2  0
  9 33  1  0
 10 11  1  0
 10 34  1  0
 11 12  2  0
 11 35  1  0
 12 13  1  0
 13 14  1  0
 14 36  1  0
 14 37  1  0
 14 38  1  0
 15 16  1  6
 15 17  1  0
 15 27  1  0
 17 18  2  0
 17 23  1  0
 18 19  1  0
 18 39  1  0
 19 20  1  0
 19 21  2  0
 21 22  1  0
 21 40  1  0
 22 23  2  0
 22 41  1  0
 23 24  1  0
 24 25  1  0
 25 26  2  0
 25 27  1  0
 27 28  1  6
M  END

