
     RDKit          3D

 52 54  0  0  0  0  0  0  0  0999 V2000
    2.2821    0.7086    1.8644 C   0  0  0  0  0  0  0  0  0  0  0  0
    3.4897    0.0428    1.2733 C   0  0  0  0  0  0  0  0  0  0  0  0
    4.5921    0.7479    1.0370 N   0  0  0  0  0  0  0  0  0  0  0  0
    5.4875   -0.1228    0.5353 N   0  0  0  0  0  0  0  0  0  0  0  0
    6.8034    0.3386    0.1533 C   0  0  0  0  0  0  0  0  0  0  0  0
    4.9834   -1.3877    0.4298 C   0  0  0  0  0  0  0  0  0  0  0  0
    5.7981   -2.5195   -0.1109 C   0  0  0  0  0  0  0  0  0  0  0  0
    3.6735   -1.3273    0.9047 C   0  0  0  0  0  0  0  0  0  0  0  0
    2.6820   -2.4629    0.9929 C   0  0  1  0  0  0  0  0  0  0  0  0
    2.3250   -2.8044    2.4494 C   0  0  0  0  0  0  0  0  0  0  0  0
    1.4745   -2.1312    0.2140 N   0  0  0  0  0  0  0  0  0  0  0  0
    0.6558   -3.2567   -0.2111 C   0  0  2  0  0  0  0  0  0  0  0  0
    1.1907   -4.1218   -1.4104 C   0  0  0  0  0  0  0  0  0  0  0  0
    0.0038   -4.1366   -2.3972 C   0  0  2  0  0  0  0  0  0  0  0  0
   -0.0817   -2.7296   -3.0310 C   0  0  0  0  0  0  0  0  0  0  0  0
   -0.6147   -1.8533   -1.8590 C   0  0  0  0  0  0  0  0  0  0  0  0
   -0.7806   -2.8550   -0.6840 C   0  0  2  0  0  0  0  0  0  0  0  0
   -1.6657   -2.3472    0.4442 C   0  0  0  0  0  0  0  0  0  0  0  0
   -1.2340   -4.1602   -1.4456 C   0  0  1  0  0  0  0  0  0  0  0  0
   -2.5842   -4.0328   -2.1736 C   0  0  0  0  0  0  0  0  0  0  0  0
   -1.3278   -5.4262   -0.5746 C   0  0  0  0  0  0  0  0  0  0  0  0
    2.3438    1.7956    1.7112 H   0  0  0  0  0  0  0  0  0  0  0  0
    2.2132    0.5286    2.9513 H   0  0  0  0  0  0  0  0  0  0  0  0
    1.3586    0.3225    1.4107 H   0  0  0  0  0  0  0  0  0  0  0  0
    6.8651    1.3999    0.4220 H   0  0  0  0  0  0  0  0  0  0  0  0
    6.9724    0.2325   -0.9315 H   0  0  0  0  0  0  0  0  0  0  0  0
    7.5936   -0.2148    0.6864 H   0  0  0  0  0  0  0  0  0  0  0  0
    6.1636   -2.3134   -1.1316 H   0  0  0  0  0  0  0  0  0  0  0  0
    5.2011   -3.4405   -0.1516 H   0  0  0  0  0  0  0  0  0  0  0  0
    6.6834   -2.7267    0.5152 H   0  0  0  0  0  0  0  0  0  0  0  0
    3.1815   -3.3601    0.5672 H   0  0  0  0  0  0  0  0  0  0  0  0
    1.8545   -1.9446    2.9484 H   0  0  0  0  0  0  0  0  0  0  0  0
    3.2306   -3.0823    3.0106 H   0  0  0  0  0  0  0  0  0  0  0  0
    1.6229   -3.6514    2.5059 H   0  0  0  0  0  0  0  0  0  0  0  0
    1.7585   -1.5758   -0.5901 H   0  0  0  0  0  0  0  0  0  0  0  0
    0.5384   -3.8990    0.6734 H   0  0  0  0  0  0  0  0  0  0  0  0
    1.4757   -5.1369   -1.0942 H   0  0  0  0  0  0  0  0  0  0  0  0
    2.0876   -3.6669   -1.8618 H   0  0  0  0  0  0  0  0  0  0  0  0
    0.0425   -4.9555   -3.1333 H   0  0  0  0  0  0  0  0  0  0  0  0
   -0.7655   -2.7142   -3.8930 H   0  0  0  0  0  0  0  0  0  0  0  0
    0.8997   -2.3950   -3.4028 H   0  0  0  0  0  0  0  0  0  0  0  0
   -1.5806   -1.3871   -2.1058 H   0  0  0  0  0  0  0  0  0  0  0  0
    0.0561   -1.0233   -1.5920 H   0  0  0  0  0  0  0  0  0  0  0  0
   -1.2041   -1.4692    0.9220 H   0  0  0  0  0  0  0  0  0  0  0  0
   -1.8048   -3.1115    1.2267 H   0  0  0  0  0  0  0  0  0  0  0  0
   -2.6627   -2.0510    0.0790 H   0  0  0  0  0  0  0  0  0  0  0  0
   -2.6684   -3.1417   -2.8092 H   0  0  0  0  0  0  0  0  0  0  0  0
   -3.4141   -3.9982   -1.4491 H   0  0  0  0  0  0  0  0  0  0  0  0
   -2.7526   -4.9126   -2.8169 H   0  0  0  0  0  0  0  0  0  0  0  0
   -0.4137   -5.6583   -0.0125 H   0  0  0  0  0  0  0  0  0  0  0  0
   -1.5511   -6.3022   -1.2059 H   0  0  0  0  0  0  0  0  0  0  0  0
   -2.1491   -5.3371    0.1551 H   0  0  0  0  0  0  0  0  0  0  0  0
  1  2  1  0
  1 22  1  0
  1 23  1  0
  1 24  1  0
  2  3  2  0
  2  8  1  0
  3  4  1  0
  4  5  1  0
  4  6  1  0
  5 25  1  0
  5 26  1  0
  5 27  1  0
  6  7  1  0
  6  8  2  0
  7 28  1  0
  7 29  1  0
  7 30  1  0
  8  9  1  0
  9 10  1  0
  9 11  1  0
  9 31  1  6
 10 32  1  0
 10 33  1  0
 10 34  1  0
 11 12  1  0
 11 35  1  0
 12 13  1  0
 12 17  1  0
 12 36  1  1
 13 14  1  0
 13 37  1  0
 13 38  1  0
 14 15  1  0
 14 19  1  0
 14 39  1  6
 15 16  1  0
 15 40  1  0
 15 41  1  0
 16 17  1  0
 16 42  1  0
 16 43  1  0
 17 18  1  1
 17 19  1  0
 18 44  1  0
 18 45  1  0
 18 46  1  0
 19 20  1  6
 19 21  1  0
 20 47  1  0
 20 48  1  0
 20 49  1  0
 21 50  1  0
 21 51  1  0
 21 52  1  0
M  END

