
     RDKit          3D

 37 38  0  0  0  0  0  0  0  0999 V2000
    1.1921   -0.2116   -1.9738 C   0  0  0  0  0  0  0  0  0  0  0  0
    2.5969    0.3602   -2.1939 C   0  0  1  0  0  0  0  0  0  0  0  0
    2.6663    1.2093   -3.4775 C   0  0  0  0  0  0  0  0  0  0  0  0
    1.9295    2.4080   -3.3374 O   0  0  0  0  0  0  0  0  0  0  0  0
    2.4276    3.2098   -2.2813 C   0  0  0  0  0  0  0  0  0  0  0  0
    2.3850    2.4523   -0.9516 C   0  0  0  0  0  0  0  0  0  0  0  0
    3.0505    1.1445   -1.0238 N   0  0  0  0  0  0  0  0  0  0  0  0
    4.4989    1.1790   -0.8382 C   0  0  0  0  0  0  0  0  0  0  0  0
    4.9185    1.5758    0.5650 C   0  0  0  0  0  0  0  0  0  0  0  0
    5.5630    2.7533    0.7829 C   0  0  0  0  0  0  0  0  0  0  0  0
    5.9862    3.1696    2.1089 C   0  0  0  0  0  0  0  0  0  0  0  0
    6.5636    4.2128    2.3585 O   0  0  0  0  0  0  0  0  0  0  0  0
    5.6631    2.2427    3.1293 N   0  0  0  0  0  0  0  0  0  0  0  0
    6.0417    2.5543    4.5066 C   0  0  0  0  0  0  0  0  0  0  0  0
    5.0215    1.0258    2.9362 C   0  0  0  0  0  0  0  0  0  0  0  0
    4.7995    0.2672    3.8611 O   0  0  0  0  0  0  0  0  0  0  0  0
    4.6435    0.7197    1.6158 N   0  0  0  0  0  0  0  0  0  0  0  0
    4.0047   -0.5819    1.4057 C   0  0  0  0  0  0  0  0  0  0  0  0
    0.9328   -0.9062   -2.7884 H   0  0  0  0  0  0  0  0  0  0  0  0
    0.4303    0.5815   -1.9672 H   0  0  0  0  0  0  0  0  0  0  0  0
    1.1373   -0.7588   -1.0210 H   0  0  0  0  0  0  0  0  0  0  0  0
    3.2977   -0.4847   -2.3071 H   0  0  0  0  0  0  0  0  0  0  0  0
    2.2358    0.6659   -4.3331 H   0  0  0  0  0  0  0  0  0  0  0  0
    3.7246    1.4389   -3.7239 H   0  0  0  0  0  0  0  0  0  0  0  0
    1.7974    4.1115   -2.2351 H   0  0  0  0  0  0  0  0  0  0  0  0
    3.4634    3.5376   -2.5124 H   0  0  0  0  0  0  0  0  0  0  0  0
    1.3321    2.2959   -0.6642 H   0  0  0  0  0  0  0  0  0  0  0  0
    2.8463    3.0533   -0.1530 H   0  0  0  0  0  0  0  0  0  0  0  0
    5.0282    1.8638   -1.5302 H   0  0  0  0  0  0  0  0  0  0  0  0
    4.8865    0.1699   -1.0531 H   0  0  0  0  0  0  0  0  0  0  0  0
    5.7873    3.4326   -0.0380 H   0  0  0  0  0  0  0  0  0  0  0  0
    6.5257    3.5363    4.4974 H   0  0  0  0  0  0  0  0  0  0  0  0
    6.7292    1.7893    4.8957 H   0  0  0  0  0  0  0  0  0  0  0  0
    5.1515    2.5673    5.1517 H   0  0  0  0  0  0  0  0  0  0  0  0
    3.7048   -0.9660    2.3857 H   0  0  0  0  0  0  0  0  0  0  0  0
    4.7093   -1.2980    0.9509 H   0  0  0  0  0  0  0  0  0  0  0  0
    3.1327   -0.4556    0.7534 H   0  0  0  0  0  0  0  0  0  0  0  0
  1  2  1  0
  1 19  1  0
  1 20  1  0
  1 21  1  0
  2  3  1  0
  2  7  1  0
  2 22  1  6
  3  4  1  0
  3 23  1  0
  3 24  1  0
  4  5  1  0
  5  6  1  0
  5 25  1  0
  5 26  1  0
  6  7  1  0
  6 27  1  0
  6 28  1  0
  7  8  1  0
  8  9  1  0
  8 29  1  0
  8 30  1  0
  9 10  2  0
  9 17  1  0
 10 11  1  0
 10 31  1  0
 11 12  2  0
 11 13  1  0
 13 14  1  0
 13 15  1  0
 14 32  1  0
 14 33  1  0
 14 34  1  0
 15 16  2  0
 15 17  1  0
 17 18  1  0
 18 35  1  0
 18 36  1  0
 18 37  1  0
M  END

