
     RDKit          3D

 44 49  0  0  0  0  0  0  0  0999 V2000
    1.8183   -1.2922    0.0927 O   0  0  0  0  0  0  0  0  0  0  0  0
    1.4542    0.1428   -0.1997 S   0  0  0  0  0  0  0  0  0  0  0  0
    2.4456    0.8167   -1.5780 C   0  0  0  0  0  0  0  0  0  0  0  0
    2.4061    0.3288   -2.8783 C   0  0  0  0  0  0  0  0  0  0  0  0
    3.1758    0.9756   -3.8535 C   0  0  0  0  0  0  0  0  0  0  0  0
    3.9490    2.0939   -3.5149 C   0  0  0  0  0  0  0  0  0  0  0  0
    3.9841    2.5728   -2.2009 C   0  0  0  0  0  0  0  0  0  0  0  0
    3.2367    1.9206   -1.2123 C   0  0  0  0  0  0  0  0  0  0  0  0
    3.1715    2.1976    0.2336 C   0  0  0  0  0  0  0  0  0  0  0  0
    3.8432    3.1807    0.9689 C   0  0  0  0  0  0  0  0  0  0  0  0
    3.7017    3.2389    2.3663 C   0  0  0  0  0  0  0  0  0  0  0  0
    4.4321    4.2825    3.1561 C   0  0  0  0  0  0  0  0  0  0  0  0
    3.8341    5.5481    3.3728 C   0  0  0  0  0  0  0  0  0  0  0  0
    2.5344    5.8862    2.8671 C   0  0  0  0  0  0  0  0  0  0  0  0
    1.9809    7.1221    3.0938 C   0  0  0  0  0  0  0  0  0  0  0  0
    2.6864    8.1095    3.8428 C   0  0  0  0  0  0  0  0  0  0  0  0
    3.9308    7.8292    4.3467 C   0  0  0  0  0  0  0  0  0  0  0  0
    4.5455    6.5528    4.1346 C   0  0  0  0  0  0  0  0  0  0  0  0
    5.8150    6.2563    4.6468 C   0  0  0  0  0  0  0  0  0  0  0  0
    6.4182    5.0089    4.4415 C   0  0  0  0  0  0  0  0  0  0  0  0
    7.7165    4.7085    4.9668 C   0  0  0  0  0  0  0  0  0  0  0  0
    8.2995    3.4846    4.7590 C   0  0  0  0  0  0  0  0  0  0  0  0
    7.6128    2.4851    4.0086 C   0  0  0  0  0  0  0  0  0  0  0  0
    6.3666    2.7320    3.4878 C   0  0  0  0  0  0  0  0  0  0  0  0
    5.7166    3.9969    3.6802 C   0  0  0  0  0  0  0  0  0  0  0  0
    2.8752    2.3023    3.0159 C   0  0  0  0  0  0  0  0  0  0  0  0
    2.1794    1.3284    2.2901 C   0  0  0  0  0  0  0  0  0  0  0  0
    2.3334    1.2947    0.9103 C   0  0  0  0  0  0  0  0  0  0  0  0
    1.7977   -0.5444   -3.1271 H   0  0  0  0  0  0  0  0  0  0  0  0
    3.1725    0.6064   -4.8819 H   0  0  0  0  0  0  0  0  0  0  0  0
    4.5388    2.5958   -4.2859 H   0  0  0  0  0  0  0  0  0  0  0  0
    4.6002    3.4398   -1.9504 H   0  0  0  0  0  0  0  0  0  0  0  0
    4.4930    3.9021    0.4677 H   0  0  0  0  0  0  0  0  0  0  0  0
    1.9815    5.1409    2.2935 H   0  0  0  0  0  0  0  0  0  0  0  0
    0.9888    7.3543    2.6982 H   0  0  0  0  0  0  0  0  0  0  0  0
    2.2299    9.0877    4.0128 H   0  0  0  0  0  0  0  0  0  0  0  0
    4.4791    8.5793    4.9231 H   0  0  0  0  0  0  0  0  0  0  0  0
    6.3488    7.0182    5.2222 H   0  0  0  0  0  0  0  0  0  0  0  0
    8.2352    5.4814    5.5406 H   0  0  0  0  0  0  0  0  0  0  0  0
    9.2905    3.2694    5.1662 H   0  0  0  0  0  0  0  0  0  0  0  0
    8.0859    1.5130    3.8480 H   0  0  0  0  0  0  0  0  0  0  0  0
    5.8546    1.9565    2.9162 H   0  0  0  0  0  0  0  0  0  0  0  0
    2.7787    2.3415    4.1035 H   0  0  0  0  0  0  0  0  0  0  0  0
    1.5383    0.6034    2.7981 H   0  0  0  0  0  0  0  0  0  0  0  0
  2  1  1  1
  2  3  1  0
  2 28  1  0
  3  4  2  0
  3  8  1  0
  4  5  1  0
  4 29  1  0
  5  6  2  0
  5 30  1  0
  6  7  1  0
  6 31  1  0
  7  8  2  0
  7 32  1  0
  8  9  1  0
  9 10  1  0
  9 28  2  0
 10 11  2  0
 10 33  1  0
 11 12  1  0
 11 26  1  0
 12 13  1  0
 12 25  2  0
 13 14  2  0
 13 18  1  0
 14 15  1  0
 14 34  1  0
 15 16  2  0
 15 35  1  0
 16 17  1  0
 16 36  1  0
 17 18  2  0
 17 37  1  0
 18 19  1  0
 19 20  2  0
 19 38  1  0
 20 21  1  0
 20 25  1  0
 21 22  2  0
 21 39  1  0
 22 23  1  0
 22 40  1  0
 23 24  2  0
 23 41  1  0
 24 25  1  0
 24 42  1  0
 26 27  2  0
 26 43  1  0
 27 28  1  0
 27 44  1  0
M  CHG  2   1  -1   2   1
M  END

