
     RDKit          3D

 40 40  0  0  0  0  0  0  0  0999 V2000
    3.7145   -0.7483   -3.6515 C   0  0  0  0  0  0  0  0  0  0  0  0
    4.4913    0.0404   -2.5963 C   0  0  0  0  0  0  0  0  0  0  0  0
    3.6317    0.4734   -1.4058 C   0  0  0  0  0  0  0  0  0  0  0  0
    4.3918    1.2827   -0.3425 C   0  0  0  0  0  0  0  0  0  0  0  0
    4.8546    2.5969   -0.7961 N   0  0  0  0  0  0  0  0  0  0  0  0
    4.0530    3.7338   -0.3373 C   0  0  0  0  0  0  0  0  0  0  0  0
    2.6392    3.8083   -0.9170 C   0  0  0  0  0  0  0  0  0  0  0  0
    1.8822    5.0581   -0.4663 C   0  0  0  0  0  0  0  0  0  0  0  0
    0.5083    5.0390   -0.9583 N   0  0  0  0  0  0  0  0  0  0  0  0
    6.2572    2.8426   -0.8733 C   0  0  0  0  0  0  0  0  0  0  0  0
    7.1508    2.3491    0.0961 C   0  0  0  0  0  0  0  0  0  0  0  0
    8.5225    2.5941    0.0161 C   0  0  0  0  0  0  0  0  0  0  0  0
    9.0304    3.3566   -1.0372 C   0  0  0  0  0  0  0  0  0  0  0  0
    8.1531    3.8583   -2.0008 C   0  0  0  0  0  0  0  0  0  0  0  0
    6.7723    3.6156   -1.9473 C   0  0  0  0  0  0  0  0  0  0  0  0
    5.8700    4.1495   -3.0310 C   0  0  0  0  0  0  0  0  0  0  0  0
    4.3617   -1.0473   -4.4917 H   0  0  0  0  0  0  0  0  0  0  0  0
    2.8848   -0.1519   -4.0673 H   0  0  0  0  0  0  0  0  0  0  0  0
    3.2758   -1.6672   -3.2267 H   0  0  0  0  0  0  0  0  0  0  0  0
    4.9416    0.9351   -3.0588 H   0  0  0  0  0  0  0  0  0  0  0  0
    5.3391   -0.5672   -2.2298 H   0  0  0  0  0  0  0  0  0  0  0  0
    3.2130   -0.4240   -0.9125 H   0  0  0  0  0  0  0  0  0  0  0  0
    2.7667    1.0548   -1.7670 H   0  0  0  0  0  0  0  0  0  0  0  0
    5.2540    0.6809   -0.0160 H   0  0  0  0  0  0  0  0  0  0  0  0
    3.7497    1.4025    0.5510 H   0  0  0  0  0  0  0  0  0  0  0  0
    4.5949    4.6560   -0.5960 H   0  0  0  0  0  0  0  0  0  0  0  0
    3.9844    3.7300    0.7747 H   0  0  0  0  0  0  0  0  0  0  0  0
    2.0446    2.9286   -0.6230 H   0  0  0  0  0  0  0  0  0  0  0  0
    2.7027    3.7890   -2.0201 H   0  0  0  0  0  0  0  0  0  0  0  0
    2.4628    5.9592   -0.7686 H   0  0  0  0  0  0  0  0  0  0  0  0
    1.8476    5.0796    0.6378 H   0  0  0  0  0  0  0  0  0  0  0  0
    0.4992    5.1089   -1.9772 H   0  0  0  0  0  0  0  0  0  0  0  0
   -0.0054    5.8511   -0.6164 H   0  0  0  0  0  0  0  0  0  0  0  0
    6.7627    1.7711    0.9373 H   0  0  0  0  0  0  0  0  0  0  0  0
    9.1904    2.1973    0.7854 H   0  0  0  0  0  0  0  0  0  0  0  0
   10.1023    3.5560   -1.1130 H   0  0  0  0  0  0  0  0  0  0  0  0
    8.5498    4.4437   -2.8358 H   0  0  0  0  0  0  0  0  0  0  0  0
    6.4444    4.3978   -3.9358 H   0  0  0  0  0  0  0  0  0  0  0  0
    5.3420    5.0682   -2.7197 H   0  0  0  0  0  0  0  0  0  0  0  0
    5.0923    3.4152   -3.2899 H   0  0  0  0  0  0  0  0  0  0  0  0
  1  2  1  0
  1 17  1  0
  1 18  1  0
  1 19  1  0
  2  3  1  0
  2 20  1  0
  2 21  1  0
  3  4  1  0
  3 22  1  0
  3 23  1  0
  4  5  1  0
  4 24  1  0
  4 25  1  0
  5  6  1  0
  5 10  1  0
  6  7  1  0
  6 26  1  0
  6 27  1  0
  7  8  1  0
  7 28  1  0
  7 29  1  0
  8  9  1  0
  8 30  1  0
  8 31  1  0
  9 32  1  0
  9 33  1  0
 10 11  2  0
 10 15  1  0
 11 12  1  0
 11 34  1  0
 12 13  2  0
 12 35  1  0
 13 14  1  0
 13 36  1  0
 14 15  2  0
 14 37  1  0
 15 16  1  0
 16 38  1  0
 16 39  1  0
 16 40  1  0
M  END

