
     RDKit          3D

 72 76  0  0  0  0  0  0  0  0999 V2000
    6.7032   -3.9603    2.5153 C   0  0  0  0  0  0  0  0  0  0  0  0
    5.8176   -2.8857    2.7183 O   0  0  0  0  0  0  0  0  0  0  0  0
    4.5474   -2.9599    2.2379 C   0  0  0  0  0  0  0  0  0  0  0  0
    3.7336   -1.8406    2.4677 C   0  0  0  0  0  0  0  0  0  0  0  0
    2.4230   -1.8530    2.0008 C   0  0  0  0  0  0  0  0  0  0  0  0
    1.8945   -2.9471    1.3098 C   0  0  0  0  0  0  0  0  0  0  0  0
    2.7085   -4.0706    1.0787 C   0  0  0  0  0  0  0  0  0  0  0  0
    2.2316   -5.2108    0.3870 N   0  0  0  0  0  0  0  0  0  0  0  0
    3.1141   -6.3407    0.0919 C   0  0  0  0  0  0  0  0  0  0  0  0
    2.3171   -7.2538   -0.8585 C   0  0  2  0  0  0  0  0  0  0  0  0
    2.7492   -7.0348   -2.3225 C   0  0  0  0  0  0  0  0  0  0  0  0
    3.5204   -6.1366   -2.6253 O   0  0  0  0  0  0  0  0  0  0  0  0
    2.2188   -7.8808   -3.2660 N   0  0  0  0  0  0  0  0  0  0  0  0
    2.5343   -7.6732   -4.6740 C   0  0  0  0  0  0  0  0  0  0  0  0
    3.1124   -8.9397   -5.3082 C   0  0  0  0  0  0  0  0  0  0  0  0
    2.2463  -10.0839   -5.0663 N   0  0  0  0  0  0  0  0  0  0  0  0
    2.2653  -11.1948   -5.9104 C   0  0  0  0  0  0  0  0  0  0  0  0
    2.8622  -11.1889   -7.1979 C   0  0  0  0  0  0  0  0  0  0  0  0
    2.7569  -12.3216   -7.9737 C   0  0  0  0  0  0  0  0  0  0  0  0
    2.0548  -13.4398   -7.4495 C   0  0  0  0  0  0  0  0  0  0  0  0
    1.8281  -14.6080   -8.1685 N   0  0  0  0  0  0  0  0  0  0  0  0
    1.4205  -15.8092   -7.4367 C   0  0  0  0  0  0  0  0  0  0  0  0
    0.6698  -16.7796   -8.3523 C   0  0  0  0  0  0  0  0  0  0  0  0
    1.3954  -17.1030   -9.5832 N   0  0  0  0  0  0  0  0  0  0  0  0
    2.4578  -18.1034   -9.4429 C   0  0  0  0  0  0  0  0  0  0  0  0
    1.8563  -19.5113   -9.5016 C   0  0  0  0  0  0  0  0  0  0  0  0
    1.0535  -19.6553  -10.6431 O   0  0  0  0  0  0  0  0  0  0  0  0
    1.7503  -15.8724  -10.2779 C   0  0  0  0  0  0  0  0  0  0  0  0
    2.5296  -14.8652   -9.4180 C   0  0  0  0  0  0  0  0  0  0  0  0
    1.5727  -13.3913   -6.2017 N   0  0  0  0  0  0  0  0  0  0  0  0
    1.6751  -12.3060   -5.4598 N   0  0  0  0  0  0  0  0  0  0  0  0
    1.9116  -10.2880   -3.6609 C   0  0  0  0  0  0  0  0  0  0  0  0
    1.3312   -9.0159   -3.0440 C   0  0  0  0  0  0  0  0  0  0  0  0
    0.8530   -6.8414   -0.6122 C   0  0  0  0  0  0  0  0  0  0  0  0
    0.9247   -5.4397   -0.0115 C   0  0  0  0  0  0  0  0  0  0  0  0
   -0.0261   -4.6951    0.1055 O   0  0  0  0  0  0  0  0  0  0  0  0
    4.0402   -4.0702    1.5498 C   0  0  0  0  0  0  0  0  0  0  0  0
    7.6580   -3.6716    2.9755 H   0  0  0  0  0  0  0  0  0  0  0  0
    6.8726   -4.1605    1.4413 H   0  0  0  0  0  0  0  0  0  0  0  0
    6.3450   -4.8895    2.9960 H   0  0  0  0  0  0  0  0  0  0  0  0
    4.1509   -0.9877    3.0056 H   0  0  0  0  0  0  0  0  0  0  0  0
    1.7844   -0.9830    2.1753 H   0  0  0  0  0  0  0  0  0  0  0  0
    0.8689   -2.9430    0.9543 H   0  0  0  0  0  0  0  0  0  0  0  0
    3.3831   -6.8730    1.0219 H   0  0  0  0  0  0  0  0  0  0  0  0
    4.0313   -5.9905   -0.3992 H   0  0  0  0  0  0  0  0  0  0  0  0
    2.4914   -8.3063   -0.5921 H   0  0  0  0  0  0  0  0  0  0  0  0
    3.2491   -6.8445   -4.7419 H   0  0  0  0  0  0  0  0  0  0  0  0
    1.6109   -7.3900   -5.2127 H   0  0  0  0  0  0  0  0  0  0  0  0
    4.1349   -9.1186   -4.9112 H   0  0  0  0  0  0  0  0  0  0  0  0
    3.2054   -8.7566   -6.3866 H   0  0  0  0  0  0  0  0  0  0  0  0
    3.4077  -10.3271   -7.5807 H   0  0  0  0  0  0  0  0  0  0  0  0
    3.2221  -12.3410   -8.9586 H   0  0  0  0  0  0  0  0  0  0  0  0
    0.7859  -15.5019   -6.5977 H   0  0  0  0  0  0  0  0  0  0  0  0
    2.3101  -16.3051   -6.9937 H   0  0  0  0  0  0  0  0  0  0  0  0
   -0.2988  -16.3297   -8.6325 H   0  0  0  0  0  0  0  0  0  0  0  0
    0.4474  -17.7055   -7.8003 H   0  0  0  0  0  0  0  0  0  0  0  0
    3.0682  -17.9850   -8.5239 H   0  0  0  0  0  0  0  0  0  0  0  0
    3.1404  -17.9874  -10.3000 H   0  0  0  0  0  0  0  0  0  0  0  0
    1.2875  -19.7183   -8.5685 H   0  0  0  0  0  0  0  0  0  0  0  0
    2.6681  -20.2572   -9.5443 H   0  0  0  0  0  0  0  0  0  0  0  0
    0.5930  -18.8008  -10.7170 H   0  0  0  0  0  0  0  0  0  0  0  0
    0.8156  -15.3859  -10.6100 H   0  0  0  0  0  0  0  0  0  0  0  0
    2.3335  -16.1143  -11.1801 H   0  0  0  0  0  0  0  0  0  0  0  0
    2.6225  -13.9355   -9.9963 H   0  0  0  0  0  0  0  0  0  0  0  0
    3.5615  -15.2366   -9.2315 H   0  0  0  0  0  0  0  0  0  0  0  0
    2.8137  -10.5915   -3.0873 H   0  0  0  0  0  0  0  0  0  0  0  0
    1.1911  -11.1112   -3.5936 H   0  0  0  0  0  0  0  0  0  0  0  0
    1.1680   -9.1805   -1.9732 H   0  0  0  0  0  0  0  0  0  0  0  0
    0.3464   -8.8047   -3.5019 H   0  0  0  0  0  0  0  0  0  0  0  0
    0.3525   -7.4975    0.1199 H   0  0  0  0  0  0  0  0  0  0  0  0
    0.2190   -6.8169   -1.5095 H   0  0  0  0  0  0  0  0  0  0  0  0
    4.6796   -4.9311    1.3792 H   0  0  0  0  0  0  0  0  0  0  0  0
  1  2  1  0
  1 38  1  0
  1 39  1  0
  1 40  1  0
  2  3  1  0
  3  4  2  0
  3 37  1  0
  4  5  1  0
  4 41  1  0
  5  6  2  0
  5 42  1  0
  6  7  1  0
  6 43  1  0
  7  8  1  0
  7 37  2  0
  8  9  1  0
  8 35  1  0
  9 10  1  0
  9 44  1  0
  9 45  1  0
 10 11  1  0
 10 34  1  0
 10 46  1  1
 11 12  2  0
 11 13  1  0
 13 14  1  0
 13 33  1  0
 14 15  1  0
 14 47  1  0
 14 48  1  0
 15 16  1  0
 15 49  1  0
 15 50  1  0
 16 17  1  0
 16 32  1  0
 17 18  2  0
 17 31  1  0
 18 19  1  0
 18 51  1  0
 19 20  2  0
 19 52  1  0
 20 21  1  0
 20 30  1  0
 21 22  1  0
 21 29  1  0
 22 23  1  0
 22 53  1  0
 22 54  1  0
 23 24  1  0
 23 55  1  0
 23 56  1  0
 24 25  1  0
 24 28  1  0
 25 26  1  0
 25 57  1  0
 25 58  1  0
 26 27  1  0
 26 59  1  0
 26 60  1  0
 27 61  1  0
 28 29  1  0
 28 62  1  0
 28 63  1  0
 29 64  1  0
 29 65  1  0
 30 31  2  0
 32 33  1  0
 32 66  1  0
 32 67  1  0
 33 68  1  0
 33 69  1  0
 34 35  1  0
 34 70  1  0
 34 71  1  0
 35 36  2  0
 37 72  1  0
M  END

