
     RDKit          3D

 57 59  0  0  0  0  0  0  0  0999 V2000
   -0.3005   -4.9384   -4.0141 C   0  0  0  0  0  0  0  0  0  0  0  0
    0.2411   -4.3016   -2.7576 C   0  0  0  0  0  0  0  0  0  0  0  0
   -0.6118   -3.7991   -1.7652 C   0  0  0  0  0  0  0  0  0  0  0  0
   -0.1057   -3.1693   -0.6265 C   0  0  0  0  0  0  0  0  0  0  0  0
    1.2713   -3.0085   -0.4102 C   0  0  0  0  0  0  0  0  0  0  0  0
    1.7726   -2.3047    0.8244 C   0  0  0  0  0  0  0  0  0  0  0  0
    2.1196   -3.5390   -1.4052 C   0  0  0  0  0  0  0  0  0  0  0  0
    3.9147   -3.3731   -1.3087 S   0  0  1  0  0  0  0  0  0  0  0  0
    4.4791   -4.0702   -2.4717 O   0  0  0  0  0  0  0  0  0  0  0  0
    4.2402   -1.9683   -1.0402 O   0  0  0  0  0  0  0  0  0  0  0  0
    4.3482   -4.2063    0.1025 N   0  0  0  0  0  0  0  0  0  0  0  0
    4.9210   -5.5565   -0.0006 C   0  0  0  0  0  0  0  0  0  0  0  0
    3.8651   -6.6079   -0.3297 C   0  0  0  0  0  0  0  0  0  0  0  0
    4.4308   -8.0201   -0.1774 C   0  0  0  0  0  0  0  0  0  0  0  0
    5.5390   -8.1973    0.3108 O   0  0  0  0  0  0  0  0  0  0  0  0
    3.6456   -9.0663   -0.5969 N   0  0  0  0  0  0  0  0  0  0  0  0
    4.1586  -10.4326   -0.5032 C   0  0  0  0  0  0  0  0  0  0  0  0
    3.1396  -11.3312    0.2114 C   0  0  0  0  0  0  0  0  0  0  0  0
    1.8030  -11.2794   -0.3754 N   0  0  0  0  0  0  0  0  0  0  0  0
    1.6010  -12.0715   -1.5804 C   0  0  0  0  0  0  0  0  0  0  0  0
    0.1554  -12.4932   -1.7951 C   0  0  0  0  0  0  0  0  0  0  0  0
   -0.7058  -12.7427   -0.7151 C   0  0  0  0  0  0  0  0  0  0  0  0
   -2.0050  -13.1765   -0.9783 C   0  0  0  0  0  0  0  0  0  0  0  0
   -2.4029  -13.3486   -2.3066 C   0  0  0  0  0  0  0  0  0  0  0  0
   -1.4723  -13.0716   -3.3120 C   0  0  0  0  0  0  0  0  0  0  0  0
   -0.2288  -12.6514   -3.0680 N   0  0  0  0  0  0  0  0  0  0  0  0
    1.3334   -9.9000   -0.4632 C   0  0  0  0  0  0  0  0  0  0  0  0
    2.3162   -8.9630   -1.1906 C   0  0  0  0  0  0  0  0  0  0  0  0
    1.6208   -4.1611   -2.5537 C   0  0  0  0  0  0  0  0  0  0  0  0
   -1.2353   -5.4865   -3.8189 H   0  0  0  0  0  0  0  0  0  0  0  0
    0.4225   -5.6391   -4.4579 H   0  0  0  0  0  0  0  0  0  0  0  0
   -0.5253   -4.1744   -4.7788 H   0  0  0  0  0  0  0  0  0  0  0  0
   -1.6949   -3.8962   -1.8846 H   0  0  0  0  0  0  0  0  0  0  0  0
   -0.8007   -2.7825    0.1239 H   0  0  0  0  0  0  0  0  0  0  0  0
    0.9320   -1.9651    1.4458 H   0  0  0  0  0  0  0  0  0  0  0  0
    2.3937   -1.4375    0.5560 H   0  0  0  0  0  0  0  0  0  0  0  0
    2.4059   -2.9744    1.4273 H   0  0  0  0  0  0  0  0  0  0  0  0
    4.9216   -3.5582    0.6420 H   0  0  0  0  0  0  0  0  0  0  0  0
    5.3647   -5.7865    0.9778 H   0  0  0  0  0  0  0  0  0  0  0  0
    5.7362   -5.6018   -0.7408 H   0  0  0  0  0  0  0  0  0  0  0  0
    3.4938   -6.4550   -1.3547 H   0  0  0  0  0  0  0  0  0  0  0  0
    2.9983   -6.4813    0.3420 H   0  0  0  0  0  0  0  0  0  0  0  0
    5.1122  -10.3939    0.0383 H   0  0  0  0  0  0  0  0  0  0  0  0
    4.3606  -10.8182   -1.5213 H   0  0  0  0  0  0  0  0  0  0  0  0
    3.0660  -11.0058    1.2649 H   0  0  0  0  0  0  0  0  0  0  0  0
    3.4948  -12.3740    0.2158 H   0  0  0  0  0  0  0  0  0  0  0  0
    2.2069  -12.9901   -1.4842 H   0  0  0  0  0  0  0  0  0  0  0  0
    1.9353  -11.5904   -2.5216 H   0  0  0  0  0  0  0  0  0  0  0  0
   -0.3422  -12.5876    0.3021 H   0  0  0  0  0  0  0  0  0  0  0  0
   -2.6988  -13.3794   -0.1577 H   0  0  0  0  0  0  0  0  0  0  0  0
   -3.4104  -13.6855   -2.5613 H   0  0  0  0  0  0  0  0  0  0  0  0
   -1.7484  -13.1904   -4.3669 H   0  0  0  0  0  0  0  0  0  0  0  0
    1.1834   -9.5162    0.5623 H   0  0  0  0  0  0  0  0  0  0  0  0
    0.3546   -9.8768   -0.9674 H   0  0  0  0  0  0  0  0  0  0  0  0
    1.9479   -7.9320   -1.1346 H   0  0  0  0  0  0  0  0  0  0  0  0
    2.3690   -9.2304   -2.2638 H   0  0  0  0  0  0  0  0  0  0  0  0
    2.3322   -4.5320   -3.2941 H   0  0  0  0  0  0  0  0  0  0  0  0
  1  2  1  0
  1 30  1  0
  1 31  1  0
  1 32  1  0
  2  3  2  0
  2 29  1  0
  3  4  1  0
  3 33  1  0
  4  5  2  0
  4 34  1  0
  5  6  1  0
  5  7  1  0
  6 35  1  0
  6 36  1  0
  6 37  1  0
  7  8  1  0
  7 29  2  0
  8  9  2  0
  8 10  2  0
  8 11  1  1
 11 12  1  0
 11 38  1  0
 12 13  1  0
 12 39  1  0
 12 40  1  0
 13 14  1  0
 13 41  1  0
 13 42  1  0
 14 15  2  0
 14 16  1  0
 16 17  1  0
 16 28  1  0
 17 18  1  0
 17 43  1  0
 17 44  1  0
 18 19  1  0
 18 45  1  0
 18 46  1  0
 19 20  1  0
 19 27  1  0
 20 21  1  0
 20 47  1  0
 20 48  1  0
 21 22  2  0
 21 26  1  0
 22 23  1  0
 22 49  1  0
 23 24  2  0
 23 50  1  0
 24 25  1  0
 24 51  1  0
 25 26  2  0
 25 52  1  0
 27 28  1  0
 27 53  1  0
 27 54  1  0
 28 55  1  0
 28 56  1  0
 29 57  1  0
M  END

