
     RDKit          3D

 51 51  0  0  0  0  0  0  0  0999 V2000
    1.3245   -0.9321    1.9630 C   0  0  0  0  0  0  0  0  0  0  0  0
    2.3073   -2.1083    1.9088 C   0  0  1  0  0  0  0  0  0  0  0  0
    1.5611   -3.4489    1.9184 C   0  0  0  0  0  0  0  0  0  0  0  0
    3.2353   -2.0486    0.6790 C   0  0  0  0  0  0  0  0  0  0  0  0
    4.0851   -0.7768    0.4826 C   0  0  2  0  0  0  0  0  0  0  0  0
    3.4349    0.1126    0.5228 H   0  0  0  0  0  0  0  0  0  0  0  0
    4.6956   -0.7500   -0.8464 N   0  0  0  0  0  0  0  0  0  0  0  0
    4.2575    0.1248   -1.8169 C   0  0  0  0  0  0  0  0  0  0  0  0
    3.5223    1.0682   -1.6020 O   0  0  0  0  0  0  0  0  0  0  0  0
    4.8030   -0.1814   -3.2237 C   0  0  0  0  0  0  0  0  0  0  0  0
    4.1940   -1.3526   -3.8398 N   0  0  0  0  0  0  0  0  0  0  0  0
    4.5933   -2.6204   -3.5444 C   0  0  0  0  0  0  0  0  0  0  0  0
    5.4402   -2.8411   -2.6790 O   0  0  0  0  0  0  0  0  0  0  0  0
    3.9716   -3.7341   -4.3689 C   0  0  0  0  0  0  0  0  0  0  0  0
    4.8715   -4.2066   -5.5295 C   0  0  0  0  0  0  0  0  0  0  0  0
    6.2559   -4.7598   -5.1304 C   0  0  1  0  0  0  0  0  0  0  0  0
    6.2300   -6.0474   -4.2890 C   0  0  0  0  0  0  0  0  0  0  0  0
    5.8712   -7.2820   -5.1259 C   0  0  0  0  0  0  0  0  0  0  0  0
    6.7889   -7.3582   -6.3519 C   0  0  0  0  0  0  0  0  0  0  0  0
    6.7593   -6.0356   -7.1173 C   0  0  0  0  0  0  0  0  0  0  0  0
    7.0713   -4.9275   -6.2900 O   0  0  0  0  0  0  0  0  0  0  0  0
    5.1443   -0.5673    1.5845 C   0  0  0  0  0  0  0  0  0  0  0  0
    4.9377   -0.7786    2.7504 O   0  0  0  0  0  0  0  0  0  0  0  0
    6.3200   -0.0848    1.1552 O   0  0  0  0  0  0  0  0  0  0  0  0
    0.6375   -1.0392    2.8178 H   0  0  0  0  0  0  0  0  0  0  0  0
    0.7094   -0.8752    1.0474 H   0  0  0  0  0  0  0  0  0  0  0  0
    1.8404    0.0329    2.0854 H   0  0  0  0  0  0  0  0  0  0  0  0
    2.9422   -2.0583    2.8061 H   0  0  0  0  0  0  0  0  0  0  0  0
    0.9013   -3.5478    1.0382 H   0  0  0  0  0  0  0  0  0  0  0  0
    0.9310   -3.5449    2.8170 H   0  0  0  0  0  0  0  0  0  0  0  0
    2.2598   -4.3017    1.9088 H   0  0  0  0  0  0  0  0  0  0  0  0
    2.6151   -2.1513   -0.2300 H   0  0  0  0  0  0  0  0  0  0  0  0
    3.9094   -2.9236    0.6928 H   0  0  0  0  0  0  0  0  0  0  0  0
    5.1325   -1.6099   -1.1998 H   0  0  0  0  0  0  0  0  0  0  0  0
    5.8920   -0.3410   -3.1723 H   0  0  0  0  0  0  0  0  0  0  0  0
    4.5951    0.6973   -3.8461 H   0  0  0  0  0  0  0  0  0  0  0  0
    3.4422   -1.2106   -4.5030 H   0  0  0  0  0  0  0  0  0  0  0  0
    3.0010   -3.4089   -4.7781 H   0  0  0  0  0  0  0  0  0  0  0  0
    3.7679   -4.5653   -3.6773 H   0  0  0  0  0  0  0  0  0  0  0  0
    5.0506   -3.3666   -6.2218 H   0  0  0  0  0  0  0  0  0  0  0  0
    4.3041   -4.9597   -6.0995 H   0  0  0  0  0  0  0  0  0  0  0  0
    6.7717   -3.9839   -4.5461 H   0  0  0  0  0  0  0  0  0  0  0  0
    5.5535   -5.9259   -3.4286 H   0  0  0  0  0  0  0  0  0  0  0  0
    7.2399   -6.1851   -3.8668 H   0  0  0  0  0  0  0  0  0  0  0  0
    4.8169   -7.2328   -5.4555 H   0  0  0  0  0  0  0  0  0  0  0  0
    5.9576   -8.1953   -4.5148 H   0  0  0  0  0  0  0  0  0  0  0  0
    6.4961   -8.1833   -7.0233 H   0  0  0  0  0  0  0  0  0  0  0  0
    7.8244   -7.5575   -6.0244 H   0  0  0  0  0  0  0  0  0  0  0  0
    5.7674   -5.9062   -7.5988 H   0  0  0  0  0  0  0  0  0  0  0  0
    7.5089   -6.0270   -7.9239 H   0  0  0  0  0  0  0  0  0  0  0  0
    6.2682   -0.0173    0.1840 H   0  0  0  0  0  0  0  0  0  0  0  0
  1  2  1  0
  1 25  1  0
  1 26  1  0
  1 27  1  0
  2  3  1  0
  2  4  1  0
  2 28  1  1
  3 29  1  0
  3 30  1  0
  3 31  1  0
  4  5  1  0
  4 32  1  0
  4 33  1  0
  5  6  1  6
  5  7  1  0
  5 22  1  0
  7  8  1  0
  7 34  1  0
  8  9  2  0
  8 10  1  0
 10 11  1  0
 10 35  1  0
 10 36  1  0
 11 12  1  0
 11 37  1  0
 12 13  2  0
 12 14  1  0
 14 15  1  0
 14 38  1  0
 14 39  1  0
 15 16  1  0
 15 40  1  0
 15 41  1  0
 16 17  1  0
 16 21  1  0
 16 42  1  1
 17 18  1  0
 17 43  1  0
 17 44  1  0
 18 19  1  0
 18 45  1  0
 18 46  1  0
 19 20  1  0
 19 47  1  0
 19 48  1  0
 20 21  1  0
 20 49  1  0
 20 50  1  0
 22 23  2  0
 22 24  1  0
 24 51  1  0
M  END

