
     RDKit          3D

 38 40  0  0  0  0  0  0  0  0999 V2000
    0.9617   -0.1846    0.6054 C   0  0  0  0  0  0  0  0  0  0  0  0
    2.4612   -0.0952    0.2878 C   0  0  1  0  0  0  0  0  0  0  0  0
    3.2491   -0.0210    1.4658 O   0  0  0  0  0  0  0  0  0  0  0  0
    2.9360   -1.2240   -0.6201 C   0  0  0  0  0  0  0  0  0  0  0  0
    3.4830   -1.0467   -1.8767 C   0  0  0  0  0  0  0  0  0  0  0  0
    3.7900    0.2320   -2.3488 N   0  0  0  0  0  0  0  0  0  0  0  0
    3.4880    0.6971   -3.6986 C   0  0  0  0  0  0  0  0  0  0  0  0
    3.0057    2.1490   -3.6502 C   0  0  0  0  0  0  0  0  0  0  0  0
    4.0347    2.9649   -3.0247 N   0  0  0  0  0  0  0  0  0  0  0  0
    4.2860    2.5570   -1.6492 C   0  0  0  0  0  0  0  0  0  0  0  0
    4.7282    1.0933   -1.6186 C   0  0  0  0  0  0  0  0  0  0  0  0
    3.7656   -2.2437   -2.6856 C   0  0  0  0  0  0  0  0  0  0  0  0
    4.3820   -2.2392   -3.9576 C   0  0  0  0  0  0  0  0  0  0  0  0
    4.5921   -3.4159   -4.6681 C   0  0  0  0  0  0  0  0  0  0  0  0
    4.2012   -4.6479   -4.1228 C   0  0  0  0  0  0  0  0  0  0  0  0
    3.6354   -4.6945   -2.8540 C   0  0  0  0  0  0  0  0  0  0  0  0
    3.4403   -3.5059   -2.1401 C   0  0  0  0  0  0  0  0  0  0  0  0
    2.9775   -3.6356   -0.8716 O   0  0  0  0  0  0  0  0  0  0  0  0
    2.8121   -2.5548   -0.0364 C   0  0  0  0  0  0  0  0  0  0  0  0
    2.5513   -2.7833    1.1272 O   0  0  0  0  0  0  0  0  0  0  0  0
    0.6883    0.6548    1.2636 H   0  0  0  0  0  0  0  0  0  0  0  0
    0.7138   -1.1228    1.1214 H   0  0  0  0  0  0  0  0  0  0  0  0
    0.3576   -0.1172   -0.3141 H   0  0  0  0  0  0  0  0  0  0  0  0
    2.6192    0.8533   -0.2363 H   0  0  0  0  0  0  0  0  0  0  0  0
    3.1578   -0.8889    1.8944 H   0  0  0  0  0  0  0  0  0  0  0  0
    2.7156    0.0547   -4.1440 H   0  0  0  0  0  0  0  0  0  0  0  0
    4.3836    0.6750   -4.3517 H   0  0  0  0  0  0  0  0  0  0  0  0
    2.0301    2.1832   -3.1133 H   0  0  0  0  0  0  0  0  0  0  0  0
    2.8337    2.5038   -4.6796 H   0  0  0  0  0  0  0  0  0  0  0  0
    3.7980    3.9533   -3.0730 H   0  0  0  0  0  0  0  0  0  0  0  0
    3.3926    2.6794   -0.9971 H   0  0  0  0  0  0  0  0  0  0  0  0
    5.0889    3.1804   -1.2234 H   0  0  0  0  0  0  0  0  0  0  0  0
    4.8213    0.7424   -0.5824 H   0  0  0  0  0  0  0  0  0  0  0  0
    5.7282    1.0213   -2.0935 H   0  0  0  0  0  0  0  0  0  0  0  0
    4.7121   -1.2986   -4.3903 H   0  0  0  0  0  0  0  0  0  0  0  0
    5.0687   -3.3768   -5.6501 H   0  0  0  0  0  0  0  0  0  0  0  0
    4.3590   -5.5734   -4.6818 H   0  0  0  0  0  0  0  0  0  0  0  0
    3.3544   -5.6356   -2.3782 H   0  0  0  0  0  0  0  0  0  0  0  0
  1  2  1  0
  1 21  1  0
  1 22  1  0
  1 23  1  0
  2  3  1  0
  2  4  1  0
  2 24  1  6
  3 25  1  0
  4  5  2  0
  4 19  1  0
  5  6  1  0
  5 12  1  0
  6  7  1  0
  6 11  1  0
  7  8  1  0
  7 26  1  0
  7 27  1  0
  8  9  1  0
  8 28  1  0
  8 29  1  0
  9 10  1  0
  9 30  1  0
 10 11  1  0
 10 31  1  0
 10 32  1  0
 11 33  1  0
 11 34  1  0
 12 13  2  0
 12 17  1  0
 13 14  1  0
 13 35  1  0
 14 15  2  0
 14 36  1  0
 15 16  1  0
 15 37  1  0
 16 17  2  0
 16 38  1  0
 17 18  1  0
 18 19  1  0
 19 20  2  0
M  END

