
     RDKit          3D

 69 72  0  0  0  0  0  0  0  0999 V2000
    4.6170   -1.1851    4.4773 C   0  0  0  0  0  0  0  0  0  0  0  0
    5.0580   -0.5665    3.1793 C   0  0  0  0  0  0  0  0  0  0  0  0
    5.1127    0.8100    2.9939 C   0  0  0  0  0  0  0  0  0  0  0  0
    5.5431    1.2542    1.7289 C   0  0  0  0  0  0  0  0  0  0  0  0
    5.6027    2.5762    1.5200 O   0  0  0  0  0  0  0  0  0  0  0  0
    6.0541    3.0445    0.2518 C   0  0  0  0  0  0  0  0  0  0  0  0
    6.1048    4.5581    0.3015 C   0  0  2  0  0  0  0  0  0  0  0  0
    6.3038    5.1617   -1.0927 C   0  0  0  0  0  0  0  0  0  0  0  0
    6.4894    6.6084   -0.9972 N   0  0  0  0  0  0  0  0  0  0  0  0
    5.7335    7.4287   -1.8122 C   0  0  0  0  0  0  0  0  0  0  0  0
    4.9050    6.9631   -2.5807 O   0  0  0  0  0  0  0  0  0  0  0  0
    5.9714    8.9422   -1.7634 C   0  0  2  0  0  0  0  0  0  0  0  0
    4.6706    9.7105   -2.0481 C   0  0  0  0  0  0  0  0  0  0  0  0
    4.8926   11.2237   -1.9449 C   0  0  0  0  0  0  0  0  0  0  0  0
    5.9969   11.7006   -2.8945 C   0  0  0  0  0  0  0  0  0  0  0  0
    7.2965   10.9095   -2.6950 C   0  0  0  0  0  0  0  0  0  0  0  0
    7.1245    9.3709   -2.7342 C   0  0  2  0  0  0  0  0  0  0  0  0
    6.8885    8.8486   -4.1583 C   0  0  0  0  0  0  0  0  0  0  0  0
    6.1193    9.4247   -4.9070 O   0  0  0  0  0  0  0  0  0  0  0  0
    7.6058    7.6171   -4.6424 C   0  0  0  0  0  0  0  0  0  0  0  0
    8.6415    6.9696   -3.9459 C   0  0  0  0  0  0  0  0  0  0  0  0
    9.2669    5.8382   -4.4739 C   0  0  0  0  0  0  0  0  0  0  0  0
    8.8444    5.3518   -5.7089 C   0  0  0  0  0  0  0  0  0  0  0  0
    9.4374    4.2670   -6.2185 F   0  0  0  0  0  0  0  0  0  0  0  0
    7.8197    5.9687   -6.4287 C   0  0  0  0  0  0  0  0  0  0  0  0
    7.2115    7.0979   -5.8916 C   0  0  0  0  0  0  0  0  0  0  0  0
    7.5345    6.9981   -0.0597 C   0  0  0  0  0  0  0  0  0  0  0  0
    7.2881    6.3329    1.2965 C   0  0  0  0  0  0  0  0  0  0  0  0
    7.1693    4.9354    1.1640 O   0  0  0  0  0  0  0  0  0  0  0  0
    5.8795    0.4152    0.7615 N   0  0  0  0  0  0  0  0  0  0  0  0
    5.7961   -0.9010    1.0324 C   0  0  0  0  0  0  0  0  0  0  0  0
    6.1845   -1.8590   -0.0798 C   0  0  1  0  0  0  0  0  0  0  0  0
    5.2609   -1.6943   -1.2970 C   0  0  0  0  0  0  0  0  0  0  0  0
    7.6617   -1.6836   -0.4662 C   0  0  0  0  0  0  0  0  0  0  0  0
    5.4025   -1.4204    2.1912 N   0  0  0  0  0  0  0  0  0  0  0  0
    4.3582   -0.4291    5.2317 H   0  0  0  0  0  0  0  0  0  0  0  0
    5.4162   -1.8316    4.8739 H   0  0  0  0  0  0  0  0  0  0  0  0
    3.7439   -1.8346    4.3041 H   0  0  0  0  0  0  0  0  0  0  0  0
    4.8434    1.5260    3.7709 H   0  0  0  0  0  0  0  0  0  0  0  0
    5.3679    2.7065   -0.5421 H   0  0  0  0  0  0  0  0  0  0  0  0
    7.0523    2.6360    0.0290 H   0  0  0  0  0  0  0  0  0  0  0  0
    5.1467    4.9338    0.7159 H   0  0  0  0  0  0  0  0  0  0  0  0
    5.4365    4.9802   -1.7392 H   0  0  0  0  0  0  0  0  0  0  0  0
    7.1947    4.7049   -1.5649 H   0  0  0  0  0  0  0  0  0  0  0  0
    6.3072    9.2384   -0.7565 H   0  0  0  0  0  0  0  0  0  0  0  0
    3.8986    9.3840   -1.3321 H   0  0  0  0  0  0  0  0  0  0  0  0
    4.3018    9.4390   -3.0478 H   0  0  0  0  0  0  0  0  0  0  0  0
    5.1610   11.4840   -0.9028 H   0  0  0  0  0  0  0  0  0  0  0  0
    3.9512   11.7554   -2.1613 H   0  0  0  0  0  0  0  0  0  0  0  0
    6.1987   12.7739   -2.7372 H   0  0  0  0  0  0  0  0  0  0  0  0
    5.6597   11.5811   -3.9342 H   0  0  0  0  0  0  0  0  0  0  0  0
    7.7253   11.1624   -1.7077 H   0  0  0  0  0  0  0  0  0  0  0  0
    8.0480   11.2120   -3.4432 H   0  0  0  0  0  0  0  0  0  0  0  0
    8.0558    8.9301   -2.3516 H   0  0  0  0  0  0  0  0  0  0  0  0
    8.9847    7.3433   -2.9808 H   0  0  0  0  0  0  0  0  0  0  0  0
   10.0772    5.3312   -3.9467 H   0  0  0  0  0  0  0  0  0  0  0  0
    7.5174    5.5542   -7.3924 H   0  0  0  0  0  0  0  0  0  0  0  0
    6.4085    7.6083   -6.4257 H   0  0  0  0  0  0  0  0  0  0  0  0
    7.5705    8.0870    0.0616 H   0  0  0  0  0  0  0  0  0  0  0  0
    8.5202    6.6678   -0.4421 H   0  0  0  0  0  0  0  0  0  0  0  0
    6.3715    6.7611    1.7526 H   0  0  0  0  0  0  0  0  0  0  0  0
    8.1339    6.5225    1.9754 H   0  0  0  0  0  0  0  0  0  0  0  0
    6.0439   -2.8667    0.3403 H   0  0  0  0  0  0  0  0  0  0  0  0
    5.3455   -0.6788   -1.7145 H   0  0  0  0  0  0  0  0  0  0  0  0
    4.2064   -1.8645   -1.0271 H   0  0  0  0  0  0  0  0  0  0  0  0
    5.5288   -2.4152   -2.0861 H   0  0  0  0  0  0  0  0  0  0  0  0
    7.8449   -0.6677   -0.8500 H   0  0  0  0  0  0  0  0  0  0  0  0
    7.9448   -2.4047   -1.2498 H   0  0  0  0  0  0  0  0  0  0  0  0
    8.3251   -1.8455    0.3984 H   0  0  0  0  0  0  0  0  0  0  0  0
  1  2  1  0
  1 36  1  0
  1 37  1  0
  1 38  1  0
  2  3  2  0
  2 35  1  0
  3  4  1  0
  3 39  1  0
  4  5  1  0
  4 30  2  0
  5  6  1  0
  6  7  1  0
  6 40  1  0
  6 41  1  0
  7  8  1  0
  7 29  1  0
  7 42  1  1
  8  9  1  0
  8 43  1  0
  8 44  1  0
  9 10  1  0
  9 27  1  0
 10 11  2  0
 10 12  1  0
 12 13  1  0
 12 17  1  0
 12 45  1  1
 13 14  1  0
 13 46  1  0
 13 47  1  0
 14 15  1  0
 14 48  1  0
 14 49  1  0
 15 16  1  0
 15 50  1  0
 15 51  1  0
 16 17  1  0
 16 52  1  0
 16 53  1  0
 17 18  1  0
 17 54  1  1
 18 19  2  0
 18 20  1  0
 20 21  2  0
 20 26  1  0
 21 22  1  0
 21 55  1  0
 22 23  2  0
 22 56  1  0
 23 24  1  0
 23 25  1  0
 25 26  2  0
 25 57  1  0
 26 58  1  0
 27 28  1  0
 27 59  1  0
 27 60  1  0
 28 29  1  0
 28 61  1  0
 28 62  1  0
 30 31  1  0
 31 32  1  0
 31 35  2  0
 32 33  1  0
 32 34  1  0
 32 63  1  1
 33 64  1  0
 33 65  1  0
 33 66  1  0
 34 67  1  0
 34 68  1  0
 34 69  1  0
M  END

