
     RDKit          3D

 56 59  0  0  0  0  0  0  0  0999 V2000
    0.7953    0.1834   -0.6190 C   0  0  0  0  0  0  0  0  0  0  0  0
    2.2968    0.2324   -0.5019 C   0  0  0  0  0  0  0  0  0  0  0  0
    2.9975    1.4312   -0.6799 C   0  0  0  0  0  0  0  0  0  0  0  0
    4.3862    1.5020   -0.5514 C   0  0  0  0  0  0  0  0  0  0  0  0
    5.1173    0.3421   -0.2645 C   0  0  0  0  0  0  0  0  0  0  0  0
    6.6290    0.3033   -0.2484 C   0  0  0  0  0  0  0  0  0  0  0  0
    7.2044   -0.6774   -0.6970 O   0  0  0  0  0  0  0  0  0  0  0  0
    7.2822    1.4273    0.2305 N   0  0  0  0  0  0  0  0  0  0  0  0
    6.8115    2.1070    1.4436 C   0  0  0  0  0  0  0  0  0  0  0  0
    7.5975    1.5919    2.6542 C   0  0  0  0  0  0  0  0  0  0  0  0
    8.9873    1.7362    2.4812 O   0  0  0  0  0  0  0  0  0  0  0  0
    9.4891    1.1053    1.3069 C   0  0  2  0  0  0  0  0  0  0  0  0
   10.9831    1.4050    1.2278 C   0  0  0  0  0  0  0  0  0  0  0  0
   11.5986    0.9212   -0.0900 C   0  0  0  0  0  0  0  0  0  0  0  0
   10.8465    1.4933   -1.2992 C   0  0  0  0  0  0  0  0  0  0  0  0
    9.3574    1.1264   -1.2467 C   0  0  0  0  0  0  0  0  0  0  0  0
    8.7389    1.6254    0.0645 C   0  0  1  0  0  0  0  0  0  0  0  0
    4.4388   -0.8773   -0.1341 C   0  0  0  0  0  0  0  0  0  0  0  0
    3.0396   -0.9431   -0.2166 C   0  0  0  0  0  0  0  0  0  0  0  0
    2.3461   -2.1596   -0.0737 N   0  0  0  0  0  0  0  0  0  0  0  0
    2.5382   -3.2598    0.7671 C   0  0  0  0  0  0  0  0  0  0  0  0
    1.8630   -4.2615    0.6107 O   0  0  0  0  0  0  0  0  0  0  0  0
    3.4828   -3.0899    1.7548 N   0  0  0  0  0  0  0  0  0  0  0  0
    3.8993   -4.0153    2.7317 C   0  0  0  0  0  0  0  0  0  0  0  0
    3.4040   -5.3284    2.8251 C   0  0  0  0  0  0  0  0  0  0  0  0
    3.8858   -6.1755    3.8264 C   0  0  0  0  0  0  0  0  0  0  0  0
    4.8504   -5.7461    4.7417 C   0  0  0  0  0  0  0  0  0  0  0  0
    5.3404   -4.4400    4.6477 C   0  0  0  0  0  0  0  0  0  0  0  0
    4.8715   -3.5826    3.6535 C   0  0  0  0  0  0  0  0  0  0  0  0
    0.3733    1.1922   -0.7281 H   0  0  0  0  0  0  0  0  0  0  0  0
    0.3372   -0.2882    0.2661 H   0  0  0  0  0  0  0  0  0  0  0  0
    0.4683   -0.4016   -1.4980 H   0  0  0  0  0  0  0  0  0  0  0  0
    2.4346    2.3378   -0.9189 H   0  0  0  0  0  0  0  0  0  0  0  0
    4.9020    2.4521   -0.7035 H   0  0  0  0  0  0  0  0  0  0  0  0
    5.7399    1.9296    1.5953 H   0  0  0  0  0  0  0  0  0  0  0  0
    6.9679    3.1943    1.3343 H   0  0  0  0  0  0  0  0  0  0  0  0
    7.3333    0.5267    2.8263 H   0  0  0  0  0  0  0  0  0  0  0  0
    7.3252    2.1606    3.5579 H   0  0  0  0  0  0  0  0  0  0  0  0
    9.3208    0.0101    1.3725 H   0  0  0  0  0  0  0  0  0  0  0  0
   11.4860    0.9551    2.0987 H   0  0  0  0  0  0  0  0  0  0  0  0
   11.1073    2.4983    1.3232 H   0  0  0  0  0  0  0  0  0  0  0  0
   11.5647   -0.1826   -0.1321 H   0  0  0  0  0  0  0  0  0  0  0  0
   12.6642    1.2007   -0.1287 H   0  0  0  0  0  0  0  0  0  0  0  0
   11.2858    1.1155   -2.2368 H   0  0  0  0  0  0  0  0  0  0  0  0
   10.9676    2.5924   -1.3183 H   0  0  0  0  0  0  0  0  0  0  0  0
    9.2372    0.0389   -1.3278 H   0  0  0  0  0  0  0  0  0  0  0  0
    8.8118    1.5693   -2.0964 H   0  0  0  0  0  0  0  0  0  0  0  0
    8.8679    2.7247    0.0840 H   0  0  0  0  0  0  0  0  0  0  0  0
    5.0324   -1.7844   -0.0123 H   0  0  0  0  0  0  0  0  0  0  0  0
    1.5224   -2.2988   -0.6488 H   0  0  0  0  0  0  0  0  0  0  0  0
    3.9115   -2.1745    1.8221 H   0  0  0  0  0  0  0  0  0  0  0  0
    2.6497   -5.6639    2.1175 H   0  0  0  0  0  0  0  0  0  0  0  0
    3.4925   -7.1938    3.8874 H   0  0  0  0  0  0  0  0  0  0  0  0
    5.2166   -6.4200    5.5196 H   0  0  0  0  0  0  0  0  0  0  0  0
    6.0957   -4.0821    5.3522 H   0  0  0  0  0  0  0  0  0  0  0  0
    5.2631   -2.5627    3.5863 H   0  0  0  0  0  0  0  0  0  0  0  0
  1  2  1  0
  1 30  1  0
  1 31  1  0
  1 32  1  0
  2  3  2  0
  2 19  1  0
  3  4  1  0
  3 33  1  0
  4  5  2  0
  4 34  1  0
  5  6  1  0
  5 18  1  0
  6  7  2  0
  6  8  1  0
  8  9  1  0
  8 17  1  0
  9 10  1  0
  9 35  1  0
  9 36  1  0
 10 11  1  0
 10 37  1  0
 10 38  1  0
 11 12  1  0
 12 13  1  0
 12 17  1  0
 12 39  1  1
 13 14  1  0
 13 40  1  0
 13 41  1  0
 14 15  1  0
 14 42  1  0
 14 43  1  0
 15 16  1  0
 15 44  1  0
 15 45  1  0
 16 17  1  0
 16 46  1  0
 16 47  1  0
 17 48  1  6
 18 19  2  0
 18 49  1  0
 19 20  1  0
 20 21  1  0
 20 50  1  0
 21 22  2  0
 21 23  1  0
 23 24  1  0
 23 51  1  0
 24 25  2  0
 24 29  1  0
 25 26  1  0
 25 52  1  0
 26 27  2  0
 26 53  1  0
 27 28  1  0
 27 54  1  0
 28 29  2  0
 28 55  1  0
 29 56  1  0
M  END

