
     RDKit          3D

 87 88  0  0  0  0  0  0  0  0999 V2000
   21.3838    3.8203   -2.6411 C   0  0  0  0  0  0  0  0  0  0  0  0
   21.1887    2.8811   -1.4499 C   0  0  0  0  0  0  0  0  0  0  0  0
   20.4067    3.5115   -0.2933 C   0  0  0  0  0  0  0  0  0  0  0  0
   20.2077    2.5799    0.9058 C   0  0  0  0  0  0  0  0  0  0  0  0
   19.4273    3.2157    2.0601 C   0  0  0  0  0  0  0  0  0  0  0  0
   19.2340    2.2817    3.2580 C   0  0  0  0  0  0  0  0  0  0  0  0
   18.5058    2.9158    4.4521 C   0  0  0  0  0  0  0  0  0  0  0  0
   17.1317    3.2999    4.1886 N   0  0  0  0  0  0  0  0  0  0  0  0
   16.7705    4.6114    3.9547 C   0  0  0  0  0  0  0  0  0  0  0  0
   17.5728    5.5312    3.9677 O   0  0  0  0  0  0  0  0  0  0  0  0
   15.4075    4.7569    3.7259 N   0  0  0  0  0  0  0  0  0  0  0  0
   14.7035    5.8902    3.2762 C   0  0  0  0  0  0  0  0  0  0  0  0
   15.3668    7.0419    2.8109 C   0  0  0  0  0  0  0  0  0  0  0  0
   14.6344    8.1235    2.3224 C   0  0  0  0  0  0  0  0  0  0  0  0
   13.2381    8.0846    2.2854 C   0  0  0  0  0  0  0  0  0  0  0  0
   12.5794    6.9529    2.7664 C   0  0  0  0  0  0  0  0  0  0  0  0
   13.2847    5.8529    3.2776 C   0  0  0  0  0  0  0  0  0  0  0  0
   12.4920    4.6853    3.8446 C   0  0  0  0  0  0  0  0  0  0  0  0
   12.1492    3.6145    2.8922 N   0  0  0  0  0  0  0  0  0  0  0  0
   10.8987    3.6806    2.2749 C   0  0  0  0  0  0  0  0  0  0  0  0
   10.1138    4.5945    2.4977 O   0  0  0  0  0  0  0  0  0  0  0  0
   10.5966    2.6458    1.4250 N   0  0  0  0  0  0  0  0  0  0  0  0
    9.3299    2.6023    0.7126 C   0  0  0  0  0  0  0  0  0  0  0  0
    9.3380    3.3378   -0.6369 C   0  0  0  0  0  0  0  0  0  0  0  0
   10.3391    2.8102   -1.6728 C   0  0  0  0  0  0  0  0  0  0  0  0
   10.0452    1.4029   -2.2054 C   0  0  0  0  0  0  0  0  0  0  0  0
   11.0410    0.9272   -3.2676 C   0  0  0  0  0  0  0  0  0  0  0  0
   10.7531   -0.4769   -3.8083 C   0  0  0  0  0  0  0  0  0  0  0  0
   11.7519   -0.9424   -4.8689 C   0  0  0  0  0  0  0  0  0  0  0  0
   13.1220    2.6175    2.5851 C   0  0  0  0  0  0  0  0  0  0  0  0
   13.8554    2.6502    1.3860 C   0  0  0  0  0  0  0  0  0  0  0  0
   14.8233    1.6918    1.0978 C   0  0  0  0  0  0  0  0  0  0  0  0
   15.1303    0.6546    2.0179 C   0  0  0  0  0  0  0  0  0  0  0  0
   16.1047   -0.2870    1.7471 N   0  0  0  0  0  0  0  0  0  0  0  0
   16.2953   -1.4078    2.6477 C   0  0  0  0  0  0  0  0  0  0  0  0
   16.7469   -0.3070    0.4460 C   0  0  0  0  0  0  0  0  0  0  0  0
   14.3894    0.6294    3.2292 C   0  0  0  0  0  0  0  0  0  0  0  0
   13.4070    1.5844    3.4931 C   0  0  0  0  0  0  0  0  0  0  0  0
   21.9496    3.3352   -3.4527 H   0  0  0  0  0  0  0  0  0  0  0  0
   21.9358    4.7291   -2.3481 H   0  0  0  0  0  0  0  0  0  0  0  0
   20.4159    4.1457   -3.0583 H   0  0  0  0  0  0  0  0  0  0  0  0
   22.1747    2.5448   -1.0802 H   0  0  0  0  0  0  0  0  0  0  0  0
   20.6679    1.9648   -1.7844 H   0  0  0  0  0  0  0  0  0  0  0  0
   19.4198    3.8497   -0.6610 H   0  0  0  0  0  0  0  0  0  0  0  0
   20.9271    4.4278    0.0418 H   0  0  0  0  0  0  0  0  0  0  0  0
   21.1954    2.2421    1.2721 H   0  0  0  0  0  0  0  0  0  0  0  0
   19.6871    1.6617    0.5714 H   0  0  0  0  0  0  0  0  0  0  0  0
   18.4404    3.5487    1.6938 H   0  0  0  0  0  0  0  0  0  0  0  0
   19.9403    4.1344    2.3944 H   0  0  0  0  0  0  0  0  0  0  0  0
   20.2189    1.9275    3.6142 H   0  0  0  0  0  0  0  0  0  0  0  0
   18.6846    1.3757    2.9369 H   0  0  0  0  0  0  0  0  0  0  0  0
   19.0289    3.8299    4.7682 H   0  0  0  0  0  0  0  0  0  0  0  0
   18.5235    2.2145    5.3053 H   0  0  0  0  0  0  0  0  0  0  0  0
   16.4563    2.5617    4.0210 H   0  0  0  0  0  0  0  0  0  0  0  0
   14.8578    3.9111    3.8012 H   0  0  0  0  0  0  0  0  0  0  0  0
   16.4533    7.0718    2.8483 H   0  0  0  0  0  0  0  0  0  0  0  0
   15.1698    9.0070    1.9640 H   0  0  0  0  0  0  0  0  0  0  0  0
   12.6666    8.9308    1.8965 H   0  0  0  0  0  0  0  0  0  0  0  0
   11.4879    6.8988    2.7531 H   0  0  0  0  0  0  0  0  0  0  0  0
   11.5385    5.0665    4.2287 H   0  0  0  0  0  0  0  0  0  0  0  0
   13.0250    4.2278    4.6940 H   0  0  0  0  0  0  0  0  0  0  0  0
   11.2709    1.9055    1.2856 H   0  0  0  0  0  0  0  0  0  0  0  0
    8.5694    3.0606    1.3613 H   0  0  0  0  0  0  0  0  0  0  0  0
    9.0527    1.5435    0.5803 H   0  0  0  0  0  0  0  0  0  0  0  0
    9.5447    4.4015   -0.4344 H   0  0  0  0  0  0  0  0  0  0  0  0
    8.3155    3.2948   -1.0549 H   0  0  0  0  0  0  0  0  0  0  0  0
   11.3555    2.8332   -1.2381 H   0  0  0  0  0  0  0  0  0  0  0  0
   10.3676    3.5125   -2.5248 H   0  0  0  0  0  0  0  0  0  0  0  0
    9.0230    1.3802   -2.6276 H   0  0  0  0  0  0  0  0  0  0  0  0
   10.0379    0.6749   -1.3731 H   0  0  0  0  0  0  0  0  0  0  0  0
   12.0637    0.9526   -2.8459 H   0  0  0  0  0  0  0  0  0  0  0  0
   11.0486    1.6465   -4.1079 H   0  0  0  0  0  0  0  0  0  0  0  0
    9.7312   -0.5005   -4.2289 H   0  0  0  0  0  0  0  0  0  0  0  0
   10.7457   -1.1952   -2.9678 H   0  0  0  0  0  0  0  0  0  0  0  0
   11.7552   -0.2665   -5.7405 H   0  0  0  0  0  0  0  0  0  0  0  0
   11.5142   -1.9543   -5.2344 H   0  0  0  0  0  0  0  0  0  0  0  0
   12.7799   -0.9662   -4.4692 H   0  0  0  0  0  0  0  0  0  0  0  0
   13.6615    3.4518    0.6698 H   0  0  0  0  0  0  0  0  0  0  0  0
   15.3563    1.7638    0.1509 H   0  0  0  0  0  0  0  0  0  0  0  0
   16.5621   -1.0730    3.6651 H   0  0  0  0  0  0  0  0  0  0  0  0
   17.1207   -2.0314    2.2818 H   0  0  0  0  0  0  0  0  0  0  0  0
   15.3952   -2.0473    2.7312 H   0  0  0  0  0  0  0  0  0  0  0  0
   16.0316   -0.4887   -0.3794 H   0  0  0  0  0  0  0  0  0  0  0  0
   17.4985   -1.1061    0.4247 H   0  0  0  0  0  0  0  0  0  0  0  0
   17.2686    0.6419    0.2352 H   0  0  0  0  0  0  0  0  0  0  0  0
   14.5612   -0.1545    3.9657 H   0  0  0  0  0  0  0  0  0  0  0  0
   12.8391    1.5268    4.4253 H   0  0  0  0  0  0  0  0  0  0  0  0
  1  2  1  0
  1 39  1  0
  1 40  1  0
  1 41  1  0
  2  3  1  0
  2 42  1  0
  2 43  1  0
  3  4  1  0
  3 44  1  0
  3 45  1  0
  4  5  1  0
  4 46  1  0
  4 47  1  0
  5  6  1  0
  5 48  1  0
  5 49  1  0
  6  7  1  0
  6 50  1  0
  6 51  1  0
  7  8  1  0
  7 52  1  0
  7 53  1  0
  8  9  1  0
  8 54  1  0
  9 10  2  0
  9 11  1  0
 11 12  1  0
 11 55  1  0
 12 13  2  0
 12 17  1  0
 13 14  1  0
 13 56  1  0
 14 15  2  0
 14 57  1  0
 15 16  1  0
 15 58  1  0
 16 17  2  0
 16 59  1  0
 17 18  1  0
 18 19  1  0
 18 60  1  0
 18 61  1  0
 19 20  1  0
 19 30  1  0
 20 21  2  0
 20 22  1  0
 22 23  1  0
 22 62  1  0
 23 24  1  0
 23 63  1  0
 23 64  1  0
 24 25  1  0
 24 65  1  0
 24 66  1  0
 25 26  1  0
 25 67  1  0
 25 68  1  0
 26 27  1  0
 26 69  1  0
 26 70  1  0
 27 28  1  0
 27 71  1  0
 27 72  1  0
 28 29  1  0
 28 73  1  0
 28 74  1  0
 29 75  1  0
 29 76  1  0
 29 77  1  0
 30 31  2  0
 30 38  1  0
 31 32  1  0
 31 78  1  0
 32 33  2  0
 32 79  1  0
 33 34  1  0
 33 37  1  0
 34 35  1  0
 34 36  1  0
 35 80  1  0
 35 81  1  0
 35 82  1  0
 36 83  1  0
 36 84  1  0
 36 85  1  0
 37 38  2  0
 37 86  1  0
 38 87  1  0
M  END

