
     RDKit          3D

 34 35  0  0  0  0  0  0  0  0999 V2000
    1.3790   -0.5728    0.5510 C   0  0  0  0  0  0  0  0  0  0  0  0
    2.8396   -0.3395    0.1230 C   0  0  1  0  0  0  0  0  0  0  0  0
    2.9672   -0.1153   -1.3076 N   0  0  0  0  0  0  0  0  0  0  0  0
    2.9740   -1.1459   -2.1972 C   0  0  0  0  0  0  0  0  0  0  0  0
    2.7882   -2.3033   -1.8393 O   0  0  0  0  0  0  0  0  0  0  0  0
    3.3534   -0.8077   -3.6694 C   0  0  1  0  0  0  0  0  0  0  0  0
    4.8070   -0.9776   -3.8113 N   0  0  0  0  0  0  0  0  0  0  0  0
    2.6444   -1.8033   -4.6057 C   0  0  0  0  0  0  0  0  0  0  0  0
    1.1507   -1.5049   -4.7231 C   0  0  0  0  0  0  0  0  0  0  0  0
    0.9053   -0.1754   -5.1463 O   0  0  0  0  0  0  0  0  0  0  0  0
    1.4531    0.7803   -4.2660 C   0  0  0  0  0  0  0  0  0  0  0  0
    2.9681    0.6137   -4.1216 C   0  0  0  0  0  0  0  0  0  0  0  0
    3.4644    0.8442    0.8299 C   0  0  0  0  0  0  0  0  0  0  0  0
    3.8126    1.9436    0.2250 N   0  0  0  0  0  0  0  0  0  0  0  0
    4.3305    2.8660    1.0995 C   0  0  0  0  0  0  0  0  0  0  0  0
    4.3815    2.4710    2.4081 C   0  0  0  0  0  0  0  0  0  0  0  0
    3.7533    0.8633    2.5580 S   0  0  0  0  0  0  0  0  0  0  0  0
    0.9863   -1.4470    0.0133 H   0  0  0  0  0  0  0  0  0  0  0  0
    0.7606    0.3072    0.3160 H   0  0  0  0  0  0  0  0  0  0  0  0
    1.3122   -0.7697    1.6325 H   0  0  0  0  0  0  0  0  0  0  0  0
    3.4068   -1.2537    0.3711 H   0  0  0  0  0  0  0  0  0  0  0  0
    3.1919    0.8349   -1.5851 H   0  0  0  0  0  0  0  0  0  0  0  0
    5.0667   -1.9253   -3.5313 H   0  0  0  0  0  0  0  0  0  0  0  0
    5.3010   -0.3463   -3.1775 H   0  0  0  0  0  0  0  0  0  0  0  0
    2.7890   -2.8263   -4.2266 H   0  0  0  0  0  0  0  0  0  0  0  0
    3.1208   -1.7248   -5.5955 H   0  0  0  0  0  0  0  0  0  0  0  0
    0.6484   -1.6965   -3.7523 H   0  0  0  0  0  0  0  0  0  0  0  0
    0.6825   -2.1620   -5.4715 H   0  0  0  0  0  0  0  0  0  0  0  0
    0.9656    0.7115   -3.2702 H   0  0  0  0  0  0  0  0  0  0  0  0
    1.2128    1.7705   -4.6831 H   0  0  0  0  0  0  0  0  0  0  0  0
    3.3779    1.3902   -3.4510 H   0  0  0  0  0  0  0  0  0  0  0  0
    3.4468    0.7754   -5.1004 H   0  0  0  0  0  0  0  0  0  0  0  0
    4.6657    3.8355    0.7272 H   0  0  0  0  0  0  0  0  0  0  0  0
    4.7479    3.0217    3.2726 H   0  0  0  0  0  0  0  0  0  0  0  0
  1  2  1  0
  1 18  1  0
  1 19  1  0
  1 20  1  0
  2  3  1  0
  2 13  1  0
  2 21  1  1
  3  4  1  0
  3 22  1  0
  4  5  2  0
  6  4  1  1
  6  7  1  0
  6  8  1  0
  6 12  1  0
  7 23  1  0
  7 24  1  0
  8  9  1  0
  8 25  1  0
  8 26  1  0
  9 10  1  0
  9 27  1  0
  9 28  1  0
 10 11  1  0
 11 12  1  0
 11 29  1  0
 11 30  1  0
 12 31  1  0
 12 32  1  0
 13 14  2  0
 13 17  1  0
 14 15  1  0
 15 16  2  0
 15 33  1  0
 16 17  1  0
 16 34  1  0
M  END

