
     RDKit          3D

 62 66  0  0  0  0  0  0  0  0999 V2000
    1.7785    0.1616   -0.6893 C   0  0  0  0  0  0  0  0  0  0  0  0
    3.1987    0.2343   -0.3914 N   0  0  0  0  0  0  0  0  0  0  0  0
    3.9344   -1.0034   -0.5558 C   0  0  0  0  0  0  0  0  0  0  0  0
    3.7218    1.4232    0.0558 C   0  0  0  0  0  0  0  0  0  0  0  0
    3.0492    2.4293    0.1914 O   0  0  0  0  0  0  0  0  0  0  0  0
    5.2358    1.4497    0.3563 C   0  0  0  0  0  0  0  0  0  0  0  0
    5.6296    2.7176    0.9720 N   0  0  0  0  0  0  0  0  0  0  0  0
    5.4557    2.7403    2.3437 C   0  0  0  0  0  0  0  0  0  0  0  0
    5.0692    1.7370    2.9263 O   0  0  0  0  0  0  0  0  0  0  0  0
    5.8245    3.9277    3.2766 C   0  0  1  0  0  0  0  0  0  0  0  0
    5.0478    3.8159    4.0434 H   0  0  0  0  0  0  0  0  0  0  0  0
    7.0820    3.6353    3.9607 N   0  0  0  0  0  0  0  0  0  0  0  0
    8.2963    3.6458    3.3405 C   0  0  0  0  0  0  0  0  0  0  0  0
    8.4450    3.9652    2.1626 O   0  0  0  0  0  0  0  0  0  0  0  0
    9.4674    3.2648    4.1642 C   0  0  0  0  0  0  0  0  0  0  0  0
    9.6384    2.9056    5.4905 C   0  0  0  0  0  0  0  0  0  0  0  0
   11.0362    2.6551    5.6782 C   0  0  0  0  0  0  0  0  0  0  0  0
   11.8270    2.2632    6.7797 C   0  0  0  0  0  0  0  0  0  0  0  0
   13.1956    2.1107    6.6042 C   0  0  0  0  0  0  0  0  0  0  0  0
   13.8022    2.3417    5.3459 C   0  0  0  0  0  0  0  0  0  0  0  0
   13.0541    2.7287    4.2407 C   0  0  0  0  0  0  0  0  0  0  0  0
   11.6688    2.8834    4.4159 C   0  0  0  0  0  0  0  0  0  0  0  0
   10.6910    3.2485    3.5292 N   0  0  0  0  0  0  0  0  0  0  0  0
   10.7853    3.4928    2.5499 H   0  0  0  0  0  0  0  0  0  0  0  0
    5.7551    5.3877    2.7886 C   0  0  2  0  0  0  0  0  0  0  0  0
    6.6622    5.6328    2.2258 H   0  0  0  0  0  0  0  0  0  0  0  0
    5.5968    6.3658    3.9331 C   0  0  0  0  0  0  0  0  0  0  0  0
    6.6056    7.3035    4.2000 C   0  0  0  0  0  0  0  0  0  0  0  0
    6.4820    8.2062    5.2603 C   0  0  0  0  0  0  0  0  0  0  0  0
    5.3419    8.1883    6.0679 C   0  0  0  0  0  0  0  0  0  0  0  0
    4.3261    7.2623    5.8080 C   0  0  0  0  0  0  0  0  0  0  0  0
    4.4537    6.3581    4.7515 C   0  0  0  0  0  0  0  0  0  0  0  0
    4.3460    5.5508    1.5863 S   0  0  0  0  0  0  0  0  0  0  0  0
    5.3000    5.0611    0.1655 C   0  0  0  0  0  0  0  0  0  0  0  0
    5.5136    6.0143   -0.8409 C   0  0  0  0  0  0  0  0  0  0  0  0
    6.3458    5.7275   -1.9211 C   0  0  0  0  0  0  0  0  0  0  0  0
    6.5829    6.9190   -3.1784 Cl  0  0  0  0  0  0  0  0  0  0  0  0
    7.0203    4.5056   -1.9815 C   0  0  0  0  0  0  0  0  0  0  0  0
    6.8088    3.5645   -0.9782 C   0  0  0  0  0  0  0  0  0  0  0  0
    5.9165    3.7940    0.0843 C   0  0  0  0  0  0  0  0  0  0  0  0
    1.6141   -0.1447   -1.7378 H   0  0  0  0  0  0  0  0  0  0  0  0
    1.3355    1.1503   -0.5252 H   0  0  0  0  0  0  0  0  0  0  0  0
    1.2782   -0.5745   -0.0347 H   0  0  0  0  0  0  0  0  0  0  0  0
    3.8299   -1.3837   -1.5882 H   0  0  0  0  0  0  0  0  0  0  0  0
    3.5538   -1.7858    0.1265 H   0  0  0  0  0  0  0  0  0  0  0  0
    5.0029   -0.8746   -0.3538 H   0  0  0  0  0  0  0  0  0  0  0  0
    5.7912    1.3070   -0.5793 H   0  0  0  0  0  0  0  0  0  0  0  0
    5.5000    0.6405    1.0463 H   0  0  0  0  0  0  0  0  0  0  0  0
    7.0202    3.2349    4.8877 H   0  0  0  0  0  0  0  0  0  0  0  0
    8.8638    2.8347    6.2521 H   0  0  0  0  0  0  0  0  0  0  0  0
   11.3663    2.0832    7.7544 H   0  0  0  0  0  0  0  0  0  0  0  0
   13.8199    1.8075    7.4483 H   0  0  0  0  0  0  0  0  0  0  0  0
   14.8826    2.2128    5.2426 H   0  0  0  0  0  0  0  0  0  0  0  0
   13.5254    2.9066    3.2712 H   0  0  0  0  0  0  0  0  0  0  0  0
    7.4987    7.3244    3.5697 H   0  0  0  0  0  0  0  0  0  0  0  0
    7.2804    8.9271    5.4543 H   0  0  0  0  0  0  0  0  0  0  0  0
    5.2426    8.8951    6.8957 H   0  0  0  0  0  0  0  0  0  0  0  0
    3.4271    7.2459    6.4297 H   0  0  0  0  0  0  0  0  0  0  0  0
    3.6458    5.6471    4.5543 H   0  0  0  0  0  0  0  0  0  0  0  0
    5.0343    6.9905   -0.7606 H   0  0  0  0  0  0  0  0  0  0  0  0
    7.7120    4.3006   -2.7999 H   0  0  0  0  0  0  0  0  0  0  0  0
    7.3569    2.6218   -1.0178 H   0  0  0  0  0  0  0  0  0  0  0  0
  1  2  1  0
  1 41  1  0
  1 42  1  0
  1 43  1  0
  2  3  1  0
  2  4  1  0
  3 44  1  0
  3 45  1  0
  3 46  1  0
  4  5  2  0
  4  6  1  0
  6  7  1  0
  6 47  1  0
  6 48  1  0
  7  8  1  0
  7 40  1  0
  8  9  2  0
  8 10  1  0
 10 11  1  1
 10 12  1  0
 10 25  1  0
 12 13  1  0
 12 49  1  0
 13 14  2  0
 13 15  1  0
 15 16  2  0
 15 23  1  0
 16 17  1  0
 16 50  1  0
 17 18  2  0
 17 22  1  0
 18 19  1  0
 18 51  1  0
 19 20  2  0
 19 52  1  0
 20 21  1  0
 20 53  1  0
 21 22  2  0
 21 54  1  0
 22 23  1  0
 23 24  1  0
 25 26  1  6
 25 27  1  0
 25 33  1  0
 27 28  2  0
 27 32  1  0
 28 29  1  0
 28 55  1  0
 29 30  2  0
 29 56  1  0
 30 31  1  0
 30 57  1  0
 31 32  2  0
 31 58  1  0
 32 59  1  0
 33 34  1  0
 34 35  2  0
 34 40  1  0
 35 36  1  0
 35 60  1  0
 36 37  1  0
 36 38  2  0
 38 39  1  0
 38 61  1  0
 39 40  2  0
 39 62  1  0
M  END

