
     RDKit          3D

 30 31  0  0  0  0  0  0  0  0999 V2000
    0.9155   -0.2648    0.2602 C   0  0  0  0  0  0  0  0  0  0  0  0
    2.4031   -0.1339    0.0396 C   0  0  0  0  0  0  0  0  0  0  0  0
    2.9252    0.4541   -1.1195 C   0  0  0  0  0  0  0  0  0  0  0  0
    4.3064    0.5576   -1.3174 C   0  0  0  0  0  0  0  0  0  0  0  0
    5.2158    0.0786   -0.3668 C   0  0  0  0  0  0  0  0  0  0  0  0
    6.7227    0.1776   -0.6179 C   0  0  1  0  0  0  0  0  0  0  0  0
    7.4678    0.9196    0.4890 C   0  0  0  0  0  0  0  0  0  0  0  0
    7.5128    0.1446    1.6456 F   0  0  0  0  0  0  0  0  0  0  0  0
    7.4251   -1.0808   -0.8542 N   0  0  0  0  0  0  0  0  0  0  0  0
    7.0512   -1.8425   -2.0099 C   0  0  1  0  0  0  0  0  0  0  0  0
    7.2842   -3.3237   -2.0289 C   0  0  0  0  0  0  0  0  0  0  0  0
    5.8680   -2.7915   -2.0595 C   0  0  0  0  0  0  0  0  0  0  0  0
    4.6939   -0.5091    0.8000 C   0  0  0  0  0  0  0  0  0  0  0  0
    3.3170   -0.6100    0.9964 C   0  0  0  0  0  0  0  0  0  0  0  0
    0.3427    0.2638   -0.5162 H   0  0  0  0  0  0  0  0  0  0  0  0
    0.6162    0.1444    1.2392 H   0  0  0  0  0  0  0  0  0  0  0  0
    0.6004   -1.3223    0.2451 H   0  0  0  0  0  0  0  0  0  0  0  0
    2.2426    0.8377   -1.8835 H   0  0  0  0  0  0  0  0  0  0  0  0
    4.6810    1.0206   -2.2357 H   0  0  0  0  0  0  0  0  0  0  0  0
    6.8560    0.7967   -1.5244 H   0  0  0  0  0  0  0  0  0  0  0  0
    6.9740    1.8742    0.7337 H   0  0  0  0  0  0  0  0  0  0  0  0
    8.5082    1.1019    0.1749 H   0  0  0  0  0  0  0  0  0  0  0  0
    7.4509   -1.6442   -0.0073 H   0  0  0  0  0  0  0  0  0  0  0  0
    7.2715   -1.3089   -2.9436 H   0  0  0  0  0  0  0  0  0  0  0  0
    7.6323   -3.7896   -1.1007 H   0  0  0  0  0  0  0  0  0  0  0  0
    7.7039   -3.7775   -2.9311 H   0  0  0  0  0  0  0  0  0  0  0  0
    5.2676   -2.8953   -1.1519 H   0  0  0  0  0  0  0  0  0  0  0  0
    5.2965   -2.8724   -2.9893 H   0  0  0  0  0  0  0  0  0  0  0  0
    5.3749   -0.8772    1.5696 H   0  0  0  0  0  0  0  0  0  0  0  0
    2.9405   -1.0663    1.9172 H   0  0  0  0  0  0  0  0  0  0  0  0
  1  2  1  0
  1 15  1  0
  1 16  1  0
  1 17  1  0
  2  3  2  0
  2 14  1  0
  3  4  1  0
  3 18  1  0
  4  5  2  0
  4 19  1  0
  5  6  1  0
  5 13  1  0
  6  7  1  0
  6  9  1  0
  6 20  1  6
  7  8  1  0
  7 21  1  0
  7 22  1  0
  9 10  1  0
  9 23  1  0
 10 11  1  0
 10 12  1  0
 10 24  1  6
 11 12  1  0
 11 25  1  0
 11 26  1  0
 12 27  1  0
 12 28  1  0
 13 14  2  0
 13 29  1  0
 14 30  1  0
M  END

