
     RDKit          3D

 42 43  0  0  0  0  0  0  0  0999 V2000
    1.1132    1.1702   -2.7796 C   0  0  0  0  0  0  0  0  0  0  0  0
    2.6239    0.9492   -2.7022 C   0  0  0  0  0  0  0  0  0  0  0  0
    3.1663    0.9723   -1.2594 C   0  0  0  0  0  0  0  0  0  0  0  0
    4.6575    0.7450   -1.1533 C   0  0  0  0  0  0  0  0  0  0  0  0
    5.5343    1.8408   -1.1480 C   0  0  0  0  0  0  0  0  0  0  0  0
    4.9485    3.0646   -1.2344 O   0  0  0  0  0  0  0  0  0  0  0  0
    5.7444    4.2433   -1.2042 C   0  0  0  0  0  0  0  0  0  0  0  0
    4.8371    5.4476   -1.2545 C   0  0  0  0  0  0  0  0  0  0  0  0
    3.8889    5.6612   -0.2410 C   0  0  0  0  0  0  0  0  0  0  0  0
    3.0514    6.7770   -0.2767 C   0  0  0  0  0  0  0  0  0  0  0  0
    3.1538    7.6995   -1.3247 C   0  0  0  0  0  0  0  0  0  0  0  0
    4.0947    7.4962   -2.3366 C   0  0  0  0  0  0  0  0  0  0  0  0
    4.9278    6.3728   -2.3022 C   0  0  0  0  0  0  0  0  0  0  0  0
    6.9329    1.6679   -1.0614 C   0  0  0  0  0  0  0  0  0  0  0  0
    7.4415    0.3818   -0.9888 C   0  0  0  0  0  0  0  0  0  0  0  0
    6.6209   -0.7627   -1.0037 C   0  0  0  0  0  0  0  0  0  0  0  0
    7.2083   -2.1127   -0.9249 C   0  0  0  0  0  0  0  0  0  0  0  0
    8.7210   -2.2601   -0.8200 C   0  0  0  0  0  0  0  0  0  0  0  0
    6.5267   -3.1400   -0.9384 O   0  0  0  0  0  0  0  0  0  0  0  0
    5.1956   -0.5714   -1.1004 C   0  0  0  0  0  0  0  0  0  0  0  0
    4.3725   -1.6493   -1.1400 N   0  0  0  0  0  0  0  0  0  0  0  0
    0.7557    1.1575   -3.8217 H   0  0  0  0  0  0  0  0  0  0  0  0
    0.8285    2.1414   -2.3413 H   0  0  0  0  0  0  0  0  0  0  0  0
    0.5613    0.3882   -2.2303 H   0  0  0  0  0  0  0  0  0  0  0  0
    3.1463    1.7292   -3.2810 H   0  0  0  0  0  0  0  0  0  0  0  0
    2.8880   -0.0109   -3.1798 H   0  0  0  0  0  0  0  0  0  0  0  0
    2.6274    0.2200   -0.6538 H   0  0  0  0  0  0  0  0  0  0  0  0
    2.9202    1.9448   -0.8087 H   0  0  0  0  0  0  0  0  0  0  0  0
    6.4439    4.2553   -2.0584 H   0  0  0  0  0  0  0  0  0  0  0  0
    6.3480    4.2572   -0.2774 H   0  0  0  0  0  0  0  0  0  0  0  0
    3.8066    4.9424    0.5786 H   0  0  0  0  0  0  0  0  0  0  0  0
    2.3165    6.9313    0.5178 H   0  0  0  0  0  0  0  0  0  0  0  0
    2.4997    8.5747   -1.3508 H   0  0  0  0  0  0  0  0  0  0  0  0
    4.1783    8.2101   -3.1601 H   0  0  0  0  0  0  0  0  0  0  0  0
    5.6569    6.2131   -3.1018 H   0  0  0  0  0  0  0  0  0  0  0  0
    7.6111    2.5191   -1.0566 H   0  0  0  0  0  0  0  0  0  0  0  0
    8.5234    0.2608   -0.9214 H   0  0  0  0  0  0  0  0  0  0  0  0
    9.1146   -1.7609    0.0795 H   0  0  0  0  0  0  0  0  0  0  0  0
    9.2309   -1.8206   -1.6919 H   0  0  0  0  0  0  0  0  0  0  0  0
    8.9539   -3.3311   -0.7689 H   0  0  0  0  0  0  0  0  0  0  0  0
    4.8109   -2.5676   -1.0706 H   0  0  0  0  0  0  0  0  0  0  0  0
    3.3726   -1.5344   -1.1889 H   0  0  0  0  0  0  0  0  0  0  0  0
  1  2  1  0
  1 22  1  0
  1 23  1  0
  1 24  1  0
  2  3  1  0
  2 25  1  0
  2 26  1  0
  3  4  1  0
  3 27  1  0
  3 28  1  0
  4  5  2  0
  4 20  1  0
  5  6  1  0
  5 14  1  0
  6  7  1  0
  7  8  1  0
  7 29  1  0
  7 30  1  0
  8  9  2  0
  8 13  1  0
  9 10  1  0
  9 31  1  0
 10 11  2  0
 10 32  1  0
 11 12  1  0
 11 33  1  0
 12 13  2  0
 12 34  1  0
 13 35  1  0
 14 15  2  0
 14 36  1  0
 15 16  1  0
 15 37  1  0
 16 17  1  0
 16 20  2  0
 17 18  1  0
 17 19  2  0
 18 38  1  0
 18 39  1  0
 18 40  1  0
 20 21  1  0
 21 41  1  0
 21 42  1  0
M  END

