
     RDKit          3D

 40 40  0  0  0  0  0  0  0  0999 V2000
    2.4627    0.9714    1.1633 C   0  0  0  0  0  0  0  0  0  0  0  0
    2.1616   -0.2148    0.2333 C   0  0  1  0  0  0  0  0  0  0  0  0
    1.1591    0.2159   -0.8484 C   0  0  0  0  0  0  0  0  0  0  0  0
    3.4774   -0.8974   -0.2515 C   0  0  1  0  0  0  0  0  0  0  0  0
    3.2977   -2.3470   -0.7710 C   0  0  0  0  0  0  0  0  0  0  0  0
    2.9641   -2.4857   -2.2648 C   0  0  0  0  0  0  0  0  0  0  0  0
    3.9356   -1.7082   -3.1752 C   0  0  2  0  0  0  0  0  0  0  0  0
    5.3425   -2.3503   -3.2568 C   0  0  0  0  0  0  0  0  0  0  0  0
    5.2709   -3.7369   -3.8686 C   0  0  0  0  0  0  0  0  0  0  0  0
    4.8713   -3.9632   -4.9848 O   0  0  0  0  0  0  0  0  0  0  0  0
    5.6973   -4.7746   -3.0242 N   0  0  0  0  0  0  0  0  0  0  0  0
    5.4323   -6.4244   -3.2976 S   0  0  1  0  0  0  0  0  0  0  0  0
    6.0253   -7.0752   -2.1371 O   0  0  0  0  0  0  0  0  0  0  0  0
    4.0756   -6.6661   -3.7483 O   0  0  0  0  0  0  0  0  0  0  0  0
    6.5788   -6.8044   -4.7592 C   0  0  1  0  0  0  0  0  0  0  0  0
    7.6761   -6.0592   -4.6711 F   0  0  0  0  0  0  0  0  0  0  0  0
    6.9072   -8.0866   -4.6705 F   0  0  0  0  0  0  0  0  0  0  0  0
    5.9704   -6.5772   -5.9048 F   0  0  0  0  0  0  0  0  0  0  0  0
    4.0017   -0.2385   -2.7211 C   0  0  0  0  0  0  0  0  0  0  0  0
    4.3496   -0.0720   -1.2317 C   0  0  0  0  0  0  0  0  0  0  0  0
    1.5343    1.3723    1.6010 H   0  0  0  0  0  0  0  0  0  0  0  0
    2.9502    1.8011    0.6241 H   0  0  0  0  0  0  0  0  0  0  0  0
    3.1250    0.6788    1.9943 H   0  0  0  0  0  0  0  0  0  0  0  0
    1.6554   -0.9797    0.8518 H   0  0  0  0  0  0  0  0  0  0  0  0
    1.5611    1.0243   -1.4806 H   0  0  0  0  0  0  0  0  0  0  0  0
    0.2407    0.6040   -0.3785 H   0  0  0  0  0  0  0  0  0  0  0  0
    0.8604   -0.6127   -1.5066 H   0  0  0  0  0  0  0  0  0  0  0  0
    4.0702   -0.9918    0.6751 H   0  0  0  0  0  0  0  0  0  0  0  0
    2.5293   -2.8628   -0.1707 H   0  0  0  0  0  0  0  0  0  0  0  0
    4.2356   -2.8962   -0.5700 H   0  0  0  0  0  0  0  0  0  0  0  0
    1.9467   -2.1127   -2.4608 H   0  0  0  0  0  0  0  0  0  0  0  0
    2.9415   -3.5534   -2.5421 H   0  0  0  0  0  0  0  0  0  0  0  0
    3.5398   -1.7383   -4.2034 H   0  0  0  0  0  0  0  0  0  0  0  0
    5.8394   -2.3755   -2.2752 H   0  0  0  0  0  0  0  0  0  0  0  0
    5.9715   -1.7423   -3.9274 H   0  0  0  0  0  0  0  0  0  0  0  0
    6.1223   -4.5918   -2.1180 H   0  0  0  0  0  0  0  0  0  0  0  0
    3.0249    0.2234   -2.9330 H   0  0  0  0  0  0  0  0  0  0  0  0
    4.7366    0.3130   -3.3329 H   0  0  0  0  0  0  0  0  0  0  0  0
    4.3157    0.9968   -0.9649 H   0  0  0  0  0  0  0  0  0  0  0  0
    5.4031   -0.3691   -1.0819 H   0  0  0  0  0  0  0  0  0  0  0  0
  1  2  1  0
  1 21  1  0
  1 22  1  0
  1 23  1  0
  2  3  1  0
  2  4  1  0
  2 24  1  1
  3 25  1  0
  3 26  1  0
  3 27  1  0
  4  5  1  0
  4 20  1  0
  4 28  1  1
  5  6  1  0
  5 29  1  0
  5 30  1  0
  6  7  1  0
  6 31  1  0
  6 32  1  0
  7  8  1  0
  7 19  1  0
  7 33  1  6
  8  9  1  0
  8 34  1  0
  8 35  1  0
  9 10  2  0
  9 11  1  0
 12 11  1  1
 11 36  1  0
 12 13  2  0
 12 14  2  0
 12 15  1  0
 15 16  1  1
 15 17  1  0
 15 18  1  0
 19 20  1  0
 19 37  1  0
 19 38  1  0
 20 39  1  0
 20 40  1  0
M  END

