
     RDKit          3D

 33 35  0  0  0  0  0  0  0  0999 V2000
    1.6553    0.2599    3.0070 C   0  0  0  0  0  0  0  0  0  0  0  0
    1.6968    0.3243    1.5998 O   0  0  0  0  0  0  0  0  0  0  0  0
    2.8695    0.8667    1.0472 C   0  0  1  0  0  0  0  0  0  0  0  0
    4.0728    0.0111    1.3739 C   0  0  0  0  0  0  0  0  0  0  0  0
    5.1870    0.4935    1.8681 N   0  0  0  0  0  0  0  0  0  0  0  0
    6.0090   -0.6212    1.9773 O   0  0  0  0  0  0  0  0  0  0  0  0
    5.2990   -1.6771    1.5414 C   0  0  0  0  0  0  0  0  0  0  0  0
    5.9178   -3.0023    1.5474 C   0  0  0  0  0  0  0  0  0  0  0  0
    7.2408   -3.1833    1.9865 C   0  0  0  0  0  0  0  0  0  0  0  0
    7.7871   -4.4649    1.9682 C   0  0  0  0  0  0  0  0  0  0  0  0
    7.0302   -5.5484    1.5237 C   0  0  0  0  0  0  0  0  0  0  0  0
    7.7471   -7.1495    1.4996 Cl  0  0  0  0  0  0  0  0  0  0  0  0
    5.6927   -5.3959    1.0812 C   0  0  0  0  0  0  0  0  0  0  0  0
    4.9370   -6.4739    0.6877 N   0  0  0  0  0  0  0  0  0  0  0  0
    5.1608   -4.0936    1.1024 C   0  0  0  0  0  0  0  0  0  0  0  0
    4.0985   -1.3438    1.1548 N   0  0  0  0  0  0  0  0  0  0  0  0
    2.7302    1.1117   -0.4789 C   0  0  0  0  0  0  0  0  0  0  0  0
    3.3873    2.5019   -0.2923 C   0  0  0  0  0  0  0  0  0  0  0  0
    3.1205    2.3953    1.2311 C   0  0  0  0  0  0  0  0  0  0  0  0
    0.6546   -0.1017    3.2841 H   0  0  0  0  0  0  0  0  0  0  0  0
    1.8133    1.2505    3.4751 H   0  0  0  0  0  0  0  0  0  0  0  0
    2.4051   -0.4415    3.4189 H   0  0  0  0  0  0  0  0  0  0  0  0
    7.8297   -2.3339    2.3329 H   0  0  0  0  0  0  0  0  0  0  0  0
    8.8128   -4.6384    2.2976 H   0  0  0  0  0  0  0  0  0  0  0  0
    5.4279   -7.3326    0.4708 H   0  0  0  0  0  0  0  0  0  0  0  0
    4.1013   -6.2928    0.1471 H   0  0  0  0  0  0  0  0  0  0  0  0
    4.1348   -3.9207    0.7710 H   0  0  0  0  0  0  0  0  0  0  0  0
    1.6597    1.1792   -0.7210 H   0  0  0  0  0  0  0  0  0  0  0  0
    3.2085    0.3831   -1.1495 H   0  0  0  0  0  0  0  0  0  0  0  0
    2.9207    3.3449   -0.8224 H   0  0  0  0  0  0  0  0  0  0  0  0
    4.4624    2.4949   -0.5251 H   0  0  0  0  0  0  0  0  0  0  0  0
    2.1772    2.8832    1.5176 H   0  0  0  0  0  0  0  0  0  0  0  0
    3.9219    2.7007    1.9169 H   0  0  0  0  0  0  0  0  0  0  0  0
  1  2  1  0
  1 20  1  0
  1 21  1  0
  1 22  1  0
  3  2  1  1
  3  4  1  0
  3 17  1  0
  3 19  1  0
  4  5  2  0
  4 16  1  0
  5  6  1  0
  6  7  1  0
  7  8  1  0
  7 16  2  0
  8  9  2  0
  8 15  1  0
  9 10  1  0
  9 23  1  0
 10 11  2  0
 10 24  1  0
 11 12  1  0
 11 13  1  0
 13 14  1  0
 13 15  2  0
 14 25  1  0
 14 26  1  0
 15 27  1  0
 17 18  1  0
 17 28  1  0
 17 29  1  0
 18 19  1  0
 18 30  1  0
 18 31  1  0
 19 32  1  0
 19 33  1  0
M  END

