
     RDKit          3D

 39 39  0  0  0  0  0  0  0  0999 V2000
    4.2816   -0.8144    6.4089 C   0  0  0  0  0  0  0  0  0  0  0  0
    4.7291   -1.4479    5.1069 C   0  0  0  0  0  0  0  0  0  0  0  0
    4.8305   -0.4079    4.1295 O   0  0  0  0  0  0  0  0  0  0  0  0
    5.2320   -0.7249    2.8870 C   0  0  0  0  0  0  0  0  0  0  0  0
    5.3160    0.3298    1.9515 C   0  0  0  0  0  0  0  0  0  0  0  0
    5.7301    0.0144    0.6675 C   0  0  0  0  0  0  0  0  0  0  0  0
    6.0467   -1.3159    0.3469 C   0  0  0  0  0  0  0  0  0  0  0  0
    5.9357   -2.2853    1.3449 C   0  0  0  0  0  0  0  0  0  0  0  0
    6.2453   -3.7419    1.0837 C   0  0  0  0  0  0  0  0  0  0  0  0
    4.9947   -4.6245    1.1803 C   0  0  0  0  0  0  0  0  0  0  0  0
    5.3537   -6.0339    0.9846 N   0  0  0  0  0  0  0  0  0  0  0  0
    4.1445   -7.1646    0.6787 S   0  0  1  0  0  0  0  0  0  0  0  0
    4.5370   -8.3898    1.3828 O   0  0  0  0  0  0  0  0  0  0  0  0
    2.8256   -6.5541    0.8769 O   0  0  0  0  0  0  0  0  0  0  0  0
    4.3288   -7.4737   -1.0980 C   0  0  0  0  0  0  0  0  0  0  0  0
    3.2543   -8.4451   -1.5815 C   0  0  0  0  0  0  0  0  0  0  0  0
    3.4042   -8.8176   -3.0690 C   0  0  0  0  0  0  0  0  0  0  0  0
    3.3153   -7.6660   -3.9723 C   0  0  0  0  0  0  0  0  0  0  0  0
    3.2549   -6.7363   -4.6611 N   0  0  0  0  0  0  0  0  0  0  0  0
    5.5312   -1.9819    2.5928 N   0  0  0  0  0  0  0  0  0  0  0  0
    4.1884   -1.5845    7.1904 H   0  0  0  0  0  0  0  0  0  0  0  0
    3.3045   -0.3210    6.2907 H   0  0  0  0  0  0  0  0  0  0  0  0
    5.0079   -0.0605    6.7498 H   0  0  0  0  0  0  0  0  0  0  0  0
    4.0139   -2.2112    4.7570 H   0  0  0  0  0  0  0  0  0  0  0  0
    5.7049   -1.9514    5.2095 H   0  0  0  0  0  0  0  0  0  0  0  0
    5.0586    1.3446    2.2577 H   0  0  0  0  0  0  0  0  0  0  0  0
    5.8096    0.7975   -0.0911 H   0  0  0  0  0  0  0  0  0  0  0  0
    6.3758   -1.5890   -0.6574 H   0  0  0  0  0  0  0  0  0  0  0  0
    6.9772   -4.0797    1.8385 H   0  0  0  0  0  0  0  0  0  0  0  0
    6.7102   -3.8684    0.0943 H   0  0  0  0  0  0  0  0  0  0  0  0
    4.2721   -4.3447    0.3995 H   0  0  0  0  0  0  0  0  0  0  0  0
    4.4973   -4.4518    2.1492 H   0  0  0  0  0  0  0  0  0  0  0  0
    5.9709   -6.4257    1.6963 H   0  0  0  0  0  0  0  0  0  0  0  0
    5.3474   -7.8700   -1.2235 H   0  0  0  0  0  0  0  0  0  0  0  0
    4.2599   -6.4959   -1.5984 H   0  0  0  0  0  0  0  0  0  0  0  0
    2.2623   -8.0031   -1.4020 H   0  0  0  0  0  0  0  0  0  0  0  0
    3.3100   -9.3705   -0.9873 H   0  0  0  0  0  0  0  0  0  0  0  0
    2.6197   -9.5388   -3.3509 H   0  0  0  0  0  0  0  0  0  0  0  0
    4.3707   -9.3191   -3.2476 H   0  0  0  0  0  0  0  0  0  0  0  0
  1  2  1  0
  1 21  1  0
  1 22  1  0
  1 23  1  0
  2  3  1  0
  2 24  1  0
  2 25  1  0
  3  4  1  0
  4  5  2  0
  4 20  1  0
  5  6  1  0
  5 26  1  0
  6  7  2  0
  6 27  1  0
  7  8  1  0
  7 28  1  0
  8  9  1  0
  8 20  2  0
  9 10  1  0
  9 29  1  0
  9 30  1  0
 10 11  1  0
 10 31  1  0
 10 32  1  0
 12 11  1  1
 11 33  1  0
 12 13  2  0
 12 14  2  0
 12 15  1  0
 15 16  1  0
 15 34  1  0
 15 35  1  0
 16 17  1  0
 16 36  1  0
 16 37  1  0
 17 18  1  0
 17 38  1  0
 17 39  1  0
 18 19  3  0
M  END

