
     RDKit          3D

 38 40  0  0  0  0  0  0  0  0999 V2000
    2.8999   -0.6911   -2.3851 C   0  0  0  0  0  0  0  0  0  0  0  0
    3.3049   -0.2372   -1.0679 N   0  0  0  0  0  0  0  0  0  0  0  0
    3.8222    1.0099   -0.7752 C   0  0  0  0  0  0  0  0  0  0  0  0
    4.0264    1.0217    0.5848 C   0  0  0  0  0  0  0  0  0  0  0  0
    3.6470   -0.1763    1.1302 N   0  0  0  0  0  0  0  0  0  0  0  0
    3.2079   -0.9078    0.1298 C   0  0  0  0  0  0  0  0  0  0  0  0
    2.7439   -2.3527    0.2526 C   0  0  1  0  0  0  0  0  0  0  0  0
    3.0458   -2.9613    1.5339 N   0  0  0  0  0  0  0  0  0  0  0  0
    2.4428   -2.6619    2.7589 C   0  0  0  0  0  0  0  0  0  0  0  0
    2.9682   -3.2734    3.9175 C   0  0  0  0  0  0  0  0  0  0  0  0
    2.3810   -3.0611    5.1619 C   0  0  0  0  0  0  0  0  0  0  0  0
    1.2550   -2.2425    5.2920 C   0  0  0  0  0  0  0  0  0  0  0  0
    0.7230   -1.6258    4.1522 C   0  0  0  0  0  0  0  0  0  0  0  0
   -0.4660   -0.6905    4.2745 C   0  0  0  0  0  0  0  0  0  0  0  0
   -1.3345   -1.0017    5.3437 O   0  0  0  0  0  0  0  0  0  0  0  0
    1.3140   -1.8354    2.8996 C   0  0  0  0  0  0  0  0  0  0  0  0
    1.3003   -2.5776   -0.1495 C   0  0  0  0  0  0  0  0  0  0  0  0
    0.5564   -3.7192   -0.2698 C   0  0  0  0  0  0  0  0  0  0  0  0
   -0.7589   -3.3066   -0.6651 C   0  0  0  0  0  0  0  0  0  0  0  0
   -0.7154   -1.9456   -0.7588 C   0  0  0  0  0  0  0  0  0  0  0  0
    0.5304   -1.4953   -0.4495 O   0  0  0  0  0  0  0  0  0  0  0  0
    3.4912   -0.1662   -3.1484 H   0  0  0  0  0  0  0  0  0  0  0  0
    1.8301   -0.5039   -2.5652 H   0  0  0  0  0  0  0  0  0  0  0  0
    3.0845   -1.7694   -2.4942 H   0  0  0  0  0  0  0  0  0  0  0  0
    3.9975    1.7530   -1.5499 H   0  0  0  0  0  0  0  0  0  0  0  0
    4.4328    1.8278    1.1946 H   0  0  0  0  0  0  0  0  0  0  0  0
    3.3453   -2.9336   -0.4728 H   0  0  0  0  0  0  0  0  0  0  0  0
    4.0192   -3.2270    1.6229 H   0  0  0  0  0  0  0  0  0  0  0  0
    3.8407   -3.9277    3.8283 H   0  0  0  0  0  0  0  0  0  0  0  0
    2.8094   -3.5442    6.0446 H   0  0  0  0  0  0  0  0  0  0  0  0
    0.7896   -2.0717    6.2644 H   0  0  0  0  0  0  0  0  0  0  0  0
   -1.0035   -0.6531    3.3050 H   0  0  0  0  0  0  0  0  0  0  0  0
   -0.1095    0.3362    4.4705 H   0  0  0  0  0  0  0  0  0  0  0  0
   -1.5897   -1.9299    5.2508 H   0  0  0  0  0  0  0  0  0  0  0  0
    0.8973   -1.3223    2.0336 H   0  0  0  0  0  0  0  0  0  0  0  0
    0.9048   -4.7312   -0.0765 H   0  0  0  0  0  0  0  0  0  0  0  0
   -1.6230   -3.9410   -0.8516 H   0  0  0  0  0  0  0  0  0  0  0  0
   -1.4469   -1.1864   -1.0219 H   0  0  0  0  0  0  0  0  0  0  0  0
  1  2  1  0
  1 22  1  0
  1 23  1  0
  1 24  1  0
  2  3  1  0
  2  6  1  0
  3  4  2  0
  3 25  1  0
  4  5  1  0
  4 26  1  0
  5  6  2  0
  6  7  1  0
  7  8  1  0
  7 17  1  0
  7 27  1  6
  8  9  1  0
  8 28  1  0
  9 10  2  0
  9 16  1  0
 10 11  1  0
 10 29  1  0
 11 12  2  0
 11 30  1  0
 12 13  1  0
 12 31  1  0
 13 14  1  0
 13 16  2  0
 14 15  1  0
 14 32  1  0
 14 33  1  0
 15 34  1  0
 16 35  1  0
 17 18  2  0
 17 21  1  0
 18 19  1  0
 18 36  1  0
 19 20  2  0
 19 37  1  0
 20 21  1  0
 20 38  1  0
M  END

