
     RDKit          3D

 34 36  0  0  0  0  0  0  0  0999 V2000
    0.8184    0.7763   -0.8939 O   0  0  0  0  0  0  0  0  0  0  0  0
    2.0132    0.5732   -0.7914 C   0  0  0  0  0  0  0  0  0  0  0  0
    3.0460    1.6920   -0.6995 C   0  0  0  0  0  0  0  0  0  0  0  0
    4.6894    0.9374   -0.4678 S   0  0  0  0  0  0  0  0  0  0  0  0
    4.0179   -0.8063   -0.5294 C   0  0  2  0  0  0  0  0  0  0  0  0
    4.7053   -1.6239   -1.6110 C   0  0  0  0  0  0  0  0  0  0  0  0
    4.4931   -1.3116   -2.9649 C   0  0  0  0  0  0  0  0  0  0  0  0
    5.1076   -2.0292   -3.9875 C   0  0  0  0  0  0  0  0  0  0  0  0
    5.9686   -3.0871   -3.6725 C   0  0  0  0  0  0  0  0  0  0  0  0
    6.2014   -3.4196   -2.3397 C   0  0  0  0  0  0  0  0  0  0  0  0
    5.5696   -2.6932   -1.3223 C   0  0  0  0  0  0  0  0  0  0  0  0
    5.8957   -3.1779    0.3371 Cl  0  0  0  0  0  0  0  0  0  0  0  0
    2.5877   -0.6707   -0.7411 N   0  0  0  0  0  0  0  0  0  0  0  0
    1.7317   -1.8608   -0.7135 C   0  0  0  0  0  0  0  0  0  0  0  0
    1.3571   -2.3146    0.6860 C   0  0  0  0  0  0  0  0  0  0  0  0
    0.3125   -1.6797    1.3786 C   0  0  0  0  0  0  0  0  0  0  0  0
   -0.0325   -2.0816    2.6711 C   0  0  0  0  0  0  0  0  0  0  0  0
    0.6628   -3.1218    3.2806 C   0  0  0  0  0  0  0  0  0  0  0  0
    0.3448   -3.5240    4.5140 F   0  0  0  0  0  0  0  0  0  0  0  0
    1.7038   -3.7593    2.5998 C   0  0  0  0  0  0  0  0  0  0  0  0
    2.3610   -4.7571    3.1987 F   0  0  0  0  0  0  0  0  0  0  0  0
    2.0512   -3.3612    1.3125 C   0  0  0  0  0  0  0  0  0  0  0  0
    2.7780    2.3389    0.1494 H   0  0  0  0  0  0  0  0  0  0  0  0
    2.9999    2.2999   -1.6161 H   0  0  0  0  0  0  0  0  0  0  0  0
    4.2138   -1.2650    0.4497 H   0  0  0  0  0  0  0  0  0  0  0  0
    3.8305   -0.4772   -3.2065 H   0  0  0  0  0  0  0  0  0  0  0  0
    4.9210   -1.7623   -5.0302 H   0  0  0  0  0  0  0  0  0  0  0  0
    6.4613   -3.6553   -4.4651 H   0  0  0  0  0  0  0  0  0  0  0  0
    6.8674   -4.2415   -2.0724 H   0  0  0  0  0  0  0  0  0  0  0  0
    2.2481   -2.6673   -1.2545 H   0  0  0  0  0  0  0  0  0  0  0  0
    0.8248   -1.5966   -1.2745 H   0  0  0  0  0  0  0  0  0  0  0  0
   -0.2272   -0.8612    0.8981 H   0  0  0  0  0  0  0  0  0  0  0  0
   -0.8438   -1.6020    3.2227 H   0  0  0  0  0  0  0  0  0  0  0  0
    2.8761   -3.8809    0.8199 H   0  0  0  0  0  0  0  0  0  0  0  0
  1  2  2  0
  2  3  1  0
  2 13  1  0
  3  4  1  0
  3 23  1  0
  3 24  1  0
  4  5  1  0
  5  6  1  0
  5 13  1  0
  5 25  1  1
  6  7  2  0
  6 11  1  0
  7  8  1  0
  7 26  1  0
  8  9  2  0
  8 27  1  0
  9 10  1  0
  9 28  1  0
 10 11  2  0
 10 29  1  0
 11 12  1  0
 13 14  1  0
 14 15  1  0
 14 30  1  0
 14 31  1  0
 15 16  2  0
 15 22  1  0
 16 17  1  0
 16 32  1  0
 17 18  2  0
 17 33  1  0
 18 19  1  0
 18 20  1  0
 20 21  1  0
 20 22  2  0
 22 34  1  0
M  END

