
     RDKit          3D

 66 72  0  0  0  0  0  0  0  0999 V2000
    0.9971   -0.4563    0.7621 O   0  0  0  0  0  0  0  0  0  0  0  0
    2.1949   -0.3335    0.5283 C   0  0  0  0  0  0  0  0  0  0  0  0
    2.7045    0.4763   -0.5977 C   0  0  0  0  0  0  0  0  0  0  0  0
    1.7826    1.1325   -1.4350 C   0  0  0  0  0  0  0  0  0  0  0  0
    2.2063    1.9054   -2.5050 C   0  0  0  0  0  0  0  0  0  0  0  0
    3.5848    2.0295   -2.7492 C   0  0  0  0  0  0  0  0  0  0  0  0
    4.5176    1.3937   -1.9403 C   0  0  0  0  0  0  0  0  0  0  0  0
    4.0945    0.6022   -0.8460 C   0  0  0  0  0  0  0  0  0  0  0  0
    5.0225   -0.0434   -0.0235 N   0  0  0  0  0  0  0  0  0  0  0  0
    6.4275    0.1005   -0.2979 C   0  0  0  0  0  0  0  0  0  0  0  0
    7.1584    1.1401    0.2877 C   0  0  0  0  0  0  0  0  0  0  0  0
    8.5201    1.2780    0.0191 C   0  0  0  0  0  0  0  0  0  0  0  0
    9.1923    0.3833   -0.8374 C   0  0  0  0  0  0  0  0  0  0  0  0
   10.6424    0.5317   -1.1199 C   0  0  0  0  0  0  0  0  0  0  0  0
   11.5381    0.9983   -0.1387 C   0  0  0  0  0  0  0  0  0  0  0  0
   12.8979    1.1448   -0.3996 C   0  0  0  0  0  0  0  0  0  0  0  0
   13.4286    0.8178   -1.6626 C   0  0  0  0  0  0  0  0  0  0  0  0
   14.8088    0.9600   -1.9317 N   0  0  0  0  0  0  0  0  0  0  0  0
   15.7708    0.6643   -0.9267 C   0  0  0  0  0  0  0  0  0  0  0  0
   15.6505   -0.4934   -0.1368 C   0  0  0  0  0  0  0  0  0  0  0  0
   16.5963   -0.7756    0.8503 C   0  0  0  0  0  0  0  0  0  0  0  0
   17.6853    0.0775    1.0562 C   0  0  0  0  0  0  0  0  0  0  0  0
   17.8141    1.2244    0.2662 C   0  0  0  0  0  0  0  0  0  0  0  0
   16.8637    1.5230   -0.7116 C   0  0  0  0  0  0  0  0  0  0  0  0
   15.2490    1.4009   -3.2106 C   0  0  0  0  0  0  0  0  0  0  0  0
   14.6204    2.4838   -3.8515 C   0  0  0  0  0  0  0  0  0  0  0  0
   15.0552    2.9091   -5.1078 C   0  0  0  0  0  0  0  0  0  0  0  0
   16.1318    2.2774   -5.7390 C   0  0  0  0  0  0  0  0  0  0  0  0
   16.7660    1.2068   -5.1006 C   0  0  0  0  0  0  0  0  0  0  0  0
   16.3269    0.7643   -3.8516 C   0  0  0  0  0  0  0  0  0  0  0  0
   12.5418    0.3446   -2.6492 C   0  0  0  0  0  0  0  0  0  0  0  0
   11.1821    0.2119   -2.3805 C   0  0  0  0  0  0  0  0  0  0  0  0
    8.4382   -0.6571   -1.4158 C   0  0  0  0  0  0  0  0  0  0  0  0
    7.0756   -0.7980   -1.1528 C   0  0  0  0  0  0  0  0  0  0  0  0
    4.6130   -0.8259    1.0603 C   0  0  0  0  0  0  0  0  0  0  0  0
    5.5591   -1.4765    1.8877 C   0  0  0  0  0  0  0  0  0  0  0  0
    5.1383   -2.2508    2.9610 C   0  0  0  0  0  0  0  0  0  0  0  0
    3.7724   -2.4083    3.2524 C   0  0  0  0  0  0  0  0  0  0  0  0
    2.8385   -1.7752    2.4471 C   0  0  0  0  0  0  0  0  0  0  0  0
    3.2348   -0.9840    1.3522 C   0  0  0  0  0  0  0  0  0  0  0  0
    0.7248    1.0011   -1.1980 H   0  0  0  0  0  0  0  0  0  0  0  0
    1.4833    2.4108   -3.1491 H   0  0  0  0  0  0  0  0  0  0  0  0
    3.9382    2.6352   -3.5880 H   0  0  0  0  0  0  0  0  0  0  0  0
    5.5800    1.5069   -2.1517 H   0  0  0  0  0  0  0  0  0  0  0  0
    6.6505    1.8468    0.9477 H   0  0  0  0  0  0  0  0  0  0  0  0
    9.0666    2.1116    0.4651 H   0  0  0  0  0  0  0  0  0  0  0  0
   11.1677    1.2426    0.8596 H   0  0  0  0  0  0  0  0  0  0  0  0
   13.5617    1.5116    0.3849 H   0  0  0  0  0  0  0  0  0  0  0  0
   14.8112   -1.1716   -0.3024 H   0  0  0  0  0  0  0  0  0  0  0  0
   16.4870   -1.6801    1.4545 H   0  0  0  0  0  0  0  0  0  0  0  0
   18.4275   -0.1499    1.8250 H   0  0  0  0  0  0  0  0  0  0  0  0
   18.6571    1.9032    0.4194 H   0  0  0  0  0  0  0  0  0  0  0  0
   16.9632    2.4261   -1.3167 H   0  0  0  0  0  0  0  0  0  0  0  0
   13.7892    2.9909   -3.3577 H   0  0  0  0  0  0  0  0  0  0  0  0
   14.5552    3.7526   -5.5910 H   0  0  0  0  0  0  0  0  0  0  0  0
   16.4740    2.6172   -6.7193 H   0  0  0  0  0  0  0  0  0  0  0  0
   17.6053    0.7001   -5.5842 H   0  0  0  0  0  0  0  0  0  0  0  0
   16.8183   -0.0796   -3.3637 H   0  0  0  0  0  0  0  0  0  0  0  0
   12.9248    0.0848   -3.6374 H   0  0  0  0  0  0  0  0  0  0  0  0
   10.5229   -0.1385   -3.1781 H   0  0  0  0  0  0  0  0  0  0  0  0
    8.9309   -1.3845   -2.0644 H   0  0  0  0  0  0  0  0  0  0  0  0
    6.5070   -1.6148   -1.6028 H   0  0  0  0  0  0  0  0  0  0  0  0
    6.6238   -1.3714    1.6840 H   0  0  0  0  0  0  0  0  0  0  0  0
    5.8896   -2.7428    3.5845 H   0  0  0  0  0  0  0  0  0  0  0  0
    3.4551   -3.0201    4.0997 H   0  0  0  0  0  0  0  0  0  0  0  0
    1.7648   -1.8625    2.6259 H   0  0  0  0  0  0  0  0  0  0  0  0
  1  2  2  0
  2  3  1  0
  2 40  1  0
  3  4  2  0
  3  8  1  0
  4  5  1  0
  4 41  1  0
  5  6  2  0
  5 42  1  0
  6  7  1  0
  6 43  1  0
  7  8  2  0
  7 44  1  0
  8  9  1  0
  9 10  1  0
  9 35  1  0
 10 11  2  0
 10 34  1  0
 11 12  1  0
 11 45  1  0
 12 13  2  0
 12 46  1  0
 13 14  1  0
 13 33  1  0
 14 15  2  0
 14 32  1  0
 15 16  1  0
 15 47  1  0
 16 17  2  0
 16 48  1  0
 17 18  1  0
 17 31  1  0
 18 19  1  0
 18 25  1  0
 19 20  2  0
 19 24  1  0
 20 21  1  0
 20 49  1  0
 21 22  2  0
 21 50  1  0
 22 23  1  0
 22 51  1  0
 23 24  2  0
 23 52  1  0
 24 53  1  0
 25 26  2  0
 25 30  1  0
 26 27  1  0
 26 54  1  0
 27 28  2  0
 27 55  1  0
 28 29  1  0
 28 56  1  0
 29 30  2  0
 29 57  1  0
 30 58  1  0
 31 32  2  0
 31 59  1  0
 32 60  1  0
 33 34  2  0
 33 61  1  0
 34 62  1  0
 35 36  1  0
 35 40  2  0
 36 37  2  0
 36 63  1  0
 37 38  1  0
 37 64  1  0
 38 39  2  0
 38 65  1  0
 39 40  1  0
 39 66  1  0
M  END

