
     RDKit          3D

 44 44  0  0  0  0  0  0  0  0999 V2000
    2.6984   -1.6482   -3.5790 C   0  0  0  0  0  0  0  0  0  0  0  0
    3.0490   -0.9867   -2.2455 C   0  0  0  0  0  0  0  0  0  0  0  0
    4.0264   -1.8024   -1.3926 C   0  0  0  0  0  0  0  0  0  0  0  0
    4.3766   -1.1347   -0.0610 C   0  0  0  0  0  0  0  0  0  0  0  0
    5.3328   -1.9212    0.8460 C   0  0  0  0  0  0  0  0  0  0  0  0
    6.6881   -2.1182    0.3195 N   0  0  0  0  0  0  0  0  0  0  0  0
    7.6230   -1.1364    0.5372 C   0  0  0  0  0  0  0  0  0  0  0  0
    8.9103   -1.3921    0.2144 N   0  0  0  0  0  0  0  0  0  0  0  0
    9.8049   -0.4275    0.4235 C   0  0  0  0  0  0  0  0  0  0  0  0
   11.2402   -0.7169    0.0624 C   0  0  0  0  0  0  0  0  0  0  0  0
    9.4361    0.8135    0.9679 C   0  0  0  0  0  0  0  0  0  0  0  0
    8.0873    0.9821    1.2841 C   0  0  0  0  0  0  0  0  0  0  0  0
    7.5497    2.2772    1.8625 C   0  0  0  0  0  0  0  0  0  0  0  0
    8.5916    3.1369    2.4043 N   0  0  0  0  0  0  0  0  0  0  0  0
    7.1868    0.0198    1.0725 N   0  0  0  0  0  0  0  0  0  0  0  0
    7.0313   -3.4494   -0.2311 C   0  0  1  0  0  0  0  0  0  0  0  0
    7.6545   -3.4114   -1.6329 C   0  0  0  0  0  0  0  0  0  0  0  0
    7.8554   -4.2957    0.7513 C   0  0  0  0  0  0  0  0  0  0  0  0
    1.9964   -1.0336   -4.1652 H   0  0  0  0  0  0  0  0  0  0  0  0
    2.2287   -2.6347   -3.4266 H   0  0  0  0  0  0  0  0  0  0  0  0
    3.5983   -1.8057   -4.1973 H   0  0  0  0  0  0  0  0  0  0  0  0
    2.1236   -0.8083   -1.6675 H   0  0  0  0  0  0  0  0  0  0  0  0
    3.4814    0.0133   -2.4313 H   0  0  0  0  0  0  0  0  0  0  0  0
    4.9497   -1.9753   -1.9729 H   0  0  0  0  0  0  0  0  0  0  0  0
    3.5938   -2.8037   -1.2038 H   0  0  0  0  0  0  0  0  0  0  0  0
    3.4471   -0.9634    0.5134 H   0  0  0  0  0  0  0  0  0  0  0  0
    4.8138   -0.1385   -0.2383 H   0  0  0  0  0  0  0  0  0  0  0  0
    4.9123   -2.9196    1.0506 H   0  0  0  0  0  0  0  0  0  0  0  0
    5.4069   -1.3931    1.8070 H   0  0  0  0  0  0  0  0  0  0  0  0
   11.3269   -1.7116   -0.3938 H   0  0  0  0  0  0  0  0  0  0  0  0
   11.8824   -0.6799    0.9582 H   0  0  0  0  0  0  0  0  0  0  0  0
   11.6273    0.0380   -0.6413 H   0  0  0  0  0  0  0  0  0  0  0  0
   10.1500    1.6183    1.1397 H   0  0  0  0  0  0  0  0  0  0  0  0
    6.7399    2.0022    2.5689 H   0  0  0  0  0  0  0  0  0  0  0  0
    7.0495    2.8157    1.0371 H   0  0  0  0  0  0  0  0  0  0  0  0
    8.9492    2.7575    3.2817 H   0  0  0  0  0  0  0  0  0  0  0  0
    8.2183    4.0603    2.6174 H   0  0  0  0  0  0  0  0  0  0  0  0
    6.0545   -3.9440   -0.3429 H   0  0  0  0  0  0  0  0  0  0  0  0
    8.6691   -2.9958   -1.6078 H   0  0  0  0  0  0  0  0  0  0  0  0
    7.0460   -2.8012   -2.3181 H   0  0  0  0  0  0  0  0  0  0  0  0
    7.6994   -4.4344   -2.0405 H   0  0  0  0  0  0  0  0  0  0  0  0
    8.8507   -3.8556    0.9024 H   0  0  0  0  0  0  0  0  0  0  0  0
    7.9809   -5.3188    0.3610 H   0  0  0  0  0  0  0  0  0  0  0  0
    7.3508   -4.3656    1.7284 H   0  0  0  0  0  0  0  0  0  0  0  0
  1  2  1  0
  1 19  1  0
  1 20  1  0
  1 21  1  0
  2  3  1  0
  2 22  1  0
  2 23  1  0
  3  4  1  0
  3 24  1  0
  3 25  1  0
  4  5  1  0
  4 26  1  0
  4 27  1  0
  5  6  1  0
  5 28  1  0
  5 29  1  0
  6  7  1  0
  6 16  1  0
  7  8  2  0
  7 15  1  0
  8  9  1  0
  9 10  1  0
  9 11  2  0
 10 30  1  0
 10 31  1  0
 10 32  1  0
 11 12  1  0
 11 33  1  0
 12 13  1  0
 12 15  2  0
 13 14  1  0
 13 34  1  0
 13 35  1  0
 14 36  1  0
 14 37  1  0
 16 17  1  0
 16 18  1  0
 16 38  1  6
 17 39  1  0
 17 40  1  0
 17 41  1  0
 18 42  1  0
 18 43  1  0
 18 44  1  0
M  END

