
     RDKit          3D

138149  0  0  0  0  0  0  0  0999 V2000
    1.2974    0.8469    0.1499 C   0  0  0  0  0  0  0  0  0  0  0  0
    2.4868   -0.0931    0.4167 C   0  0  1  0  0  0  0  0  0  0  0  0
    3.7897    0.7320    0.3012 C   0  0  0  0  0  0  0  0  0  0  0  0
    2.3538   -0.6440    1.8556 C   0  0  0  0  0  0  0  0  0  0  0  0
    2.5360   -1.2679   -0.5792 C   0  0  0  0  0  0  0  0  0  0  0  0
    1.5990   -1.4389   -1.6097 C   0  0  0  0  0  0  0  0  0  0  0  0
    1.6781   -2.5142   -2.5001 C   0  0  0  0  0  0  0  0  0  0  0  0
    2.6937   -3.4740   -2.3953 C   0  0  0  0  0  0  0  0  0  0  0  0
    2.7746   -4.6154   -3.3623 C   0  0  0  0  0  0  0  0  0  0  0  0
    3.0020   -4.3661   -4.7378 C   0  0  0  0  0  0  0  0  0  0  0  0
    3.2217   -2.9999   -5.3024 C   0  0  0  0  0  0  0  0  0  0  0  0
    4.2200   -2.1421   -4.8064 C   0  0  0  0  0  0  0  0  0  0  0  0
    4.4424   -0.8886   -5.3743 C   0  0  0  0  0  0  0  0  0  0  0  0
    3.6771   -0.4594   -6.4692 C   0  0  0  0  0  0  0  0  0  0  0  0
    3.9037    0.8169   -7.0504 N   0  0  0  0  0  0  0  0  0  0  0  0
    5.1129    1.2675   -7.5884 C   0  0  0  0  0  0  0  0  0  0  0  0
    6.3375    0.5984   -7.7130 C   0  0  0  0  0  0  0  0  0  0  0  0
    7.3950    1.2815   -8.3152 C   0  0  0  0  0  0  0  0  0  0  0  0
    7.2438    2.5986   -8.7888 C   0  0  0  0  0  0  0  0  0  0  0  0
    6.0202    3.2567   -8.6734 C   0  0  0  0  0  0  0  0  0  0  0  0
    4.9404    2.5932   -8.0725 C   0  0  0  0  0  0  0  0  0  0  0  0
    3.5615    2.9569   -7.8107 C   0  0  0  0  0  0  0  0  0  0  0  0
    2.8048    4.1154   -8.0394 C   0  0  0  0  0  0  0  0  0  0  0  0
    1.4699    4.1461   -7.6382 C   0  0  0  0  0  0  0  0  0  0  0  0
    0.8877    3.0319   -7.0045 C   0  0  0  0  0  0  0  0  0  0  0  0
    1.6176    1.8668   -6.7652 C   0  0  0  0  0  0  0  0  0  0  0  0
    2.9552    1.8356   -7.1808 C   0  0  0  0  0  0  0  0  0  0  0  0
    2.6860   -1.3079   -6.9815 C   0  0  0  0  0  0  0  0  0  0  0  0
    2.4624   -2.5569   -6.4001 C   0  0  0  0  0  0  0  0  0  0  0  0
    3.0393   -5.4500   -5.6234 C   0  0  0  0  0  0  0  0  0  0  0  0
    2.8692   -6.7756   -5.2064 C   0  0  0  0  0  0  0  0  0  0  0  0
    2.9074   -7.8435   -6.2505 C   0  0  0  0  0  0  0  0  0  0  0  0
    3.9832   -7.9129   -7.1537 C   0  0  0  0  0  0  0  0  0  0  0  0
    4.0285   -8.8824   -8.1566 C   0  0  0  0  0  0  0  0  0  0  0  0
    2.9768   -9.7982   -8.2991 C   0  0  0  0  0  0  0  0  0  0  0  0
    3.0141  -10.7877   -9.3170 N   0  0  0  0  0  0  0  0  0  0  0  0
    2.9428  -12.1692   -9.1135 C   0  0  0  0  0  0  0  0  0  0  0  0
    2.8527  -12.8899   -7.9153 C   0  0  0  0  0  0  0  0  0  0  0  0
    2.8164  -14.2827   -7.9946 C   0  0  0  0  0  0  0  0  0  0  0  0
    2.8724  -14.9499   -9.2331 C   0  0  0  0  0  0  0  0  0  0  0  0
    2.9745  -14.2291  -10.4221 C   0  0  0  0  0  0  0  0  0  0  0  0
    3.0136  -12.8279  -10.3714 C   0  0  0  0  0  0  0  0  0  0  0  0
    3.1319  -11.7920  -11.3789 C   0  0  0  0  0  0  0  0  0  0  0  0
    3.2257  -11.8077  -12.7782 C   0  0  0  0  0  0  0  0  0  0  0  0
    3.3105  -10.5989  -13.4677 C   0  0  0  0  0  0  0  0  0  0  0  0
    3.2953   -9.3756  -12.7713 C   0  0  0  0  0  0  0  0  0  0  0  0
    3.2032   -9.3313  -11.3795 C   0  0  0  0  0  0  0  0  0  0  0  0
    3.1302  -10.5484  -10.6896 C   0  0  0  0  0  0  0  0  0  0  0  0
    1.8866   -9.7262   -7.4187 C   0  0  0  0  0  0  0  0  0  0  0  0
    1.8607   -8.7703   -6.4048 C   0  0  0  0  0  0  0  0  0  0  0  0
    2.6588   -7.0371   -3.8301 C   0  0  0  0  0  0  0  0  0  0  0  0
    2.5091   -8.4476   -3.3469 C   0  0  0  0  0  0  0  0  0  0  0  0
    3.5603   -9.3657   -3.4718 C   0  0  0  0  0  0  0  0  0  0  0  0
    3.4289  -10.6864   -3.0306 C   0  0  0  0  0  0  0  0  0  0  0  0
    2.2380  -11.1529   -2.4528 C   0  0  0  0  0  0  0  0  0  0  0  0
    2.0532  -12.6001   -1.9569 C   0  0  1  0  0  0  0  0  0  0  0  0
    3.3165  -13.4540   -2.1679 C   0  0  0  0  0  0  0  0  0  0  0  0
    1.7262  -12.5872   -0.4455 C   0  0  0  0  0  0  0  0  0  0  0  0
    0.8879  -13.2629   -2.7279 C   0  0  0  0  0  0  0  0  0  0  0  0
    1.1850  -10.2257   -2.3357 C   0  0  0  0  0  0  0  0  0  0  0  0
    1.3149   -8.9064   -2.7659 C   0  0  0  0  0  0  0  0  0  0  0  0
    2.6091   -5.9525   -2.9162 C   0  0  0  0  0  0  0  0  0  0  0  0
    2.3776   -6.2229   -1.4585 C   0  0  0  0  0  0  0  0  0  0  0  0
    3.3306   -6.8952   -0.6827 C   0  0  0  0  0  0  0  0  0  0  0  0
    3.1148   -7.1462    0.6759 C   0  0  0  0  0  0  0  0  0  0  0  0
    1.9342   -6.7442    1.3194 C   0  0  0  0  0  0  0  0  0  0  0  0
    1.6567   -7.0096    2.8117 C   0  0  1  0  0  0  0  0  0  0  0  0
    2.8204   -7.7472    3.4983 C   0  0  0  0  0  0  0  0  0  0  0  0
    1.4397   -5.6643    3.5428 C   0  0  0  0  0  0  0  0  0  0  0  0
    0.3855   -7.8795    2.9496 C   0  0  0  0  0  0  0  0  0  0  0  0
    0.9809   -6.0715    0.5320 C   0  0  0  0  0  0  0  0  0  0  0  0
    1.1956   -5.8124   -0.8207 C   0  0  0  0  0  0  0  0  0  0  0  0
    3.6328   -3.3124   -1.3628 C   0  0  0  0  0  0  0  0  0  0  0  0
    3.5552   -2.2343   -0.4828 C   0  0  0  0  0  0  0  0  0  0  0  0
    1.3003    1.6693    0.8826 H   0  0  0  0  0  0  0  0  0  0  0  0
    0.3320    0.3250    0.2432 H   0  0  0  0  0  0  0  0  0  0  0  0
    1.3470    1.2988   -0.8532 H   0  0  0  0  0  0  0  0  0  0  0  0
    3.7756    1.5761    1.0103 H   0  0  0  0  0  0  0  0  0  0  0  0
    3.9081    1.1425   -0.7142 H   0  0  0  0  0  0  0  0  0  0  0  0
    4.6810    0.1255    0.5234 H   0  0  0  0  0  0  0  0  0  0  0  0
    2.3194    0.1837    2.5833 H   0  0  0  0  0  0  0  0  0  0  0  0
    3.2011   -1.2916    2.1279 H   0  0  0  0  0  0  0  0  0  0  0  0
    1.4313   -1.2355    1.9682 H   0  0  0  0  0  0  0  0  0  0  0  0
    0.7837   -0.7263   -1.7370 H   0  0  0  0  0  0  0  0  0  0  0  0
    0.9303   -2.6074   -3.2915 H   0  0  0  0  0  0  0  0  0  0  0  0
    4.8294   -2.4578   -3.9583 H   0  0  0  0  0  0  0  0  0  0  0  0
    5.2111   -0.2300   -4.9653 H   0  0  0  0  0  0  0  0  0  0  0  0
    6.4628   -0.4248   -7.3557 H   0  0  0  0  0  0  0  0  0  0  0  0
    8.3600    0.7793   -8.4224 H   0  0  0  0  0  0  0  0  0  0  0  0
    8.0926    3.1052   -9.2541 H   0  0  0  0  0  0  0  0  0  0  0  0
    5.9016    4.2761   -9.0495 H   0  0  0  0  0  0  0  0  0  0  0  0
    3.2580    4.9843   -8.5235 H   0  0  0  0  0  0  0  0  0  0  0  0
    0.8698    5.0424   -7.8119 H   0  0  0  0  0  0  0  0  0  0  0  0
   -0.1581    3.0784   -6.6899 H   0  0  0  0  0  0  0  0  0  0  0  0
    1.1598    1.0109   -6.2668 H   0  0  0  0  0  0  0  0  0  0  0  0
    2.0943   -0.9871   -7.8411 H   0  0  0  0  0  0  0  0  0  0  0  0
    1.6791   -3.2017   -6.8059 H   0  0  0  0  0  0  0  0  0  0  0  0
    3.2077   -5.2531   -6.6842 H   0  0  0  0  0  0  0  0  0  0  0  0
    4.8161   -7.2130   -7.0508 H   0  0  0  0  0  0  0  0  0  0  0  0
    4.8887   -8.9417   -8.8263 H   0  0  0  0  0  0  0  0  0  0  0  0
    2.8167  -12.3819   -6.9503 H   0  0  0  0  0  0  0  0  0  0  0  0
    2.7452  -14.8662   -7.0730 H   0  0  0  0  0  0  0  0  0  0  0  0
    2.8400  -16.0417   -9.2596 H   0  0  0  0  0  0  0  0  0  0  0  0
    3.0273  -14.7485  -11.3823 H   0  0  0  0  0  0  0  0  0  0  0  0
    3.2288  -12.7565  -13.3207 H   0  0  0  0  0  0  0  0  0  0  0  0
    3.3851  -10.5981  -14.5578 H   0  0  0  0  0  0  0  0  0  0  0  0
    3.3543   -8.4381  -13.3303 H   0  0  0  0  0  0  0  0  0  0  0  0
    3.1846   -8.3778  -10.8495 H   0  0  0  0  0  0  0  0  0  0  0  0
    1.0525  -10.4202   -7.5395 H   0  0  0  0  0  0  0  0  0  0  0  0
    1.0026   -8.7312   -5.7323 H   0  0  0  0  0  0  0  0  0  0  0  0
    4.5040   -9.0450   -3.9198 H   0  0  0  0  0  0  0  0  0  0  0  0
    4.2835  -11.3533   -3.1474 H   0  0  0  0  0  0  0  0  0  0  0  0
    4.1819  -13.0506   -1.6190 H   0  0  0  0  0  0  0  0  0  0  0  0
    3.5909  -13.5276   -3.2319 H   0  0  0  0  0  0  0  0  0  0  0  0
    3.1407  -14.4774   -1.8007 H   0  0  0  0  0  0  0  0  0  0  0  0
    2.5421  -12.1224    0.1306 H   0  0  0  0  0  0  0  0  0  0  0  0
    1.5876  -13.6154   -0.0723 H   0  0  0  0  0  0  0  0  0  0  0  0
    0.8036  -12.0273   -0.2295 H   0  0  0  0  0  0  0  0  0  0  0  0
    1.0954  -13.2917   -3.8095 H   0  0  0  0  0  0  0  0  0  0  0  0
   -0.0603  -12.7228   -2.5839 H   0  0  0  0  0  0  0  0  0  0  0  0
    0.7369  -14.2990   -2.3826 H   0  0  0  0  0  0  0  0  0  0  0  0
    0.2341  -10.5345   -1.8948 H   0  0  0  0  0  0  0  0  0  0  0  0
    0.4732   -8.2200   -2.6504 H   0  0  0  0  0  0  0  0  0  0  0  0
    4.2610   -7.2321   -1.1457 H   0  0  0  0  0  0  0  0  0  0  0  0
    3.8937   -7.6703    1.2303 H   0  0  0  0  0  0  0  0  0  0  0  0
    3.7554   -7.1666    3.4587 H   0  0  0  0  0  0  0  0  0  0  0  0
    3.0094   -8.7317    3.0426 H   0  0  0  0  0  0  0  0  0  0  0  0
    2.5809   -7.9154    4.5602 H   0  0  0  0  0  0  0  0  0  0  0  0
    2.3325   -5.0238    3.4637 H   0  0  0  0  0  0  0  0  0  0  0  0
    1.2361   -5.8355    4.6129 H   0  0  0  0  0  0  0  0  0  0  0  0
    0.5888   -5.1033    3.1275 H   0  0  0  0  0  0  0  0  0  0  0  0
    0.5134   -8.8477    2.4398 H   0  0  0  0  0  0  0  0  0  0  0  0
   -0.4980   -7.3870    2.5156 H   0  0  0  0  0  0  0  0  0  0  0  0
    0.1678   -8.0793    4.0119 H   0  0  0  0  0  0  0  0  0  0  0  0
    0.0427   -5.7360    0.9806 H   0  0  0  0  0  0  0  0  0  0  0  0
    0.4311   -5.2819   -1.3932 H   0  0  0  0  0  0  0  0  0  0  0  0
    4.4384   -4.0410   -1.2481 H   0  0  0  0  0  0  0  0  0  0  0  0
    4.3130   -2.1501    0.2999 H   0  0  0  0  0  0  0  0  0  0  0  0
  2  1  1  6
  1 75  1  0
  1 76  1  0
  1 77  1  0
  2  3  1  0
  2  4  1  0
  2  5  1  0
  3 78  1  0
  3 79  1  0
  3 80  1  0
  4 81  1  0
  4 82  1  0
  4 83  1  0
  5  6  2  0
  5 74  1  0
  6  7  1  0
  6 84  1  0
  7  8  2  0
  7 85  1  0
  8  9  1  0
  8 73  1  0
  9 10  1  0
  9 62  2  0
 10 11  1  0
 10 30  2  0
 11 12  2  0
 11 29  1  0
 12 13  1  0
 12 86  1  0
 13 14  2  0
 13 87  1  0
 14 15  1  0
 14 28  1  0
 15 16  1  0
 15 27  1  0
 16 17  2  0
 16 21  1  0
 17 18  1  0
 17 88  1  0
 18 19  2  0
 18 89  1  0
 19 20  1  0
 19 90  1  0
 20 21  2  0
 20 91  1  0
 21 22  1  0
 22 23  1  0
 22 27  2  0
 23 24  2  0
 23 92  1  0
 24 25  1  0
 24 93  1  0
 25 26  2  0
 25 94  1  0
 26 27  1  0
 26 95  1  0
 28 29  2  0
 28 96  1  0
 29 97  1  0
 30 31  1  0
 30 98  1  0
 31 32  1  0
 31 51  2  0
 32 33  2  0
 32 50  1  0
 33 34  1  0
 33 99  1  0
 34 35  2  0
 34100  1  0
 35 36  1  0
 35 49  1  0
 36 37  1  0
 36 48  1  0
 37 38  2  0
 37 42  1  0
 38 39  1  0
 38101  1  0
 39 40  2  0
 39102  1  0
 40 41  1  0
 40103  1  0
 41 42  2  0
 41104  1  0
 42 43  1  0
 43 44  1  0
 43 48  2  0
 44 45  2  0
 44105  1  0
 45 46  1  0
 45106  1  0
 46 47  2  0
 46107  1  0
 47 48  1  0
 47108  1  0
 49 50  2  0
 49109  1  0
 50110  1  0
 51 52  1  0
 51 62  1  0
 52 53  2  0
 52 61  1  0
 53 54  1  0
 53111  1  0
 54 55  2  0
 54112  1  0
 55 56  1  0
 55 60  1  0
 56 57  1  1
 56 58  1  0
 56 59  1  0
 57113  1  0
 57114  1  0
 57115  1  0
 58116  1  0
 58117  1  0
 58118  1  0
 59119  1  0
 59120  1  0
 59121  1  0
 60 61  2  0
 60122  1  0
 61123  1  0
 62 63  1  0
 63 64  2  0
 63 72  1  0
 64 65  1  0
 64124  1  0
 65 66  2  0
 65125  1  0
 66 67  1  0
 66 71  1  0
 67 68  1  1
 67 69  1  0
 67 70  1  0
 68126  1  0
 68127  1  0
 68128  1  0
 69129  1  0
 69130  1  0
 69131  1  0
 70132  1  0
 70133  1  0
 70134  1  0
 71 72  2  0
 71135  1  0
 72136  1  0
 73 74  2  0
 73137  1  0
 74138  1  0
M  END

