
     RDKit          3D

 49 51  0  0  0  0  0  0  0  0999 V2000
    1.7740    0.0654   -1.2485 C   0  0  0  0  0  0  0  0  0  0  0  0
    3.2240   -0.2268   -0.9940 C   0  0  0  0  0  0  0  0  0  0  0  0
    4.4133    0.9964   -1.3374 S   0  0  0  0  0  0  0  0  0  0  0  0
    5.7149   -0.0280   -0.7814 C   0  0  0  0  0  0  0  0  0  0  0  0
    7.0391    0.4516   -0.8831 N   0  0  0  0  0  0  0  0  0  0  0  0
    7.8177    0.8520    0.1701 C   0  0  0  0  0  0  0  0  0  0  0  0
    7.4761    0.6989    1.3348 O   0  0  0  0  0  0  0  0  0  0  0  0
    9.2040    1.4293   -0.1852 C   0  0  1  0  0  0  0  0  0  0  0  0
    9.8629    0.5409   -0.1585 H   0  0  0  0  0  0  0  0  0  0  0  0
    9.3478    2.0871   -1.5724 C   0  0  0  0  0  0  0  0  0  0  0  0
    8.5959    3.4207   -1.6738 C   0  0  0  0  0  0  0  0  0  0  0  0
    9.0670    4.3963   -0.5892 C   0  0  0  0  0  0  0  0  0  0  0  0
    8.9643    3.7782    0.8116 C   0  0  0  0  0  0  0  0  0  0  0  0
    9.6521    2.4064    0.9417 C   0  0  2  0  0  0  0  0  0  0  0  0
    9.3311    1.9498    1.8922 H   0  0  0  0  0  0  0  0  0  0  0  0
   11.1772    2.5021    0.9743 C   0  0  0  0  0  0  0  0  0  0  0  0
   11.8261    3.4316    0.5760 O   0  0  0  0  0  0  0  0  0  0  0  0
   11.8053    1.4097    1.4782 O   0  0  0  0  0  0  0  0  0  0  0  0
    5.2467   -1.2467   -0.3489 C   0  0  0  0  0  0  0  0  0  0  0  0
    6.1216   -2.4058    0.0722 C   0  0  0  0  0  0  0  0  0  0  0  0
    6.9785   -2.1348    1.0914 N   0  0  0  0  0  0  0  0  0  0  0  0
    6.0333   -3.4922   -0.4713 O   0  0  0  0  0  0  0  0  0  0  0  0
    3.8102   -1.3654   -0.4728 C   0  0  0  0  0  0  0  0  0  0  0  0
    3.0418   -2.5637   -0.0429 C   0  0  0  0  0  0  0  0  0  0  0  0
    3.1870   -3.0757    1.2592 C   0  0  0  0  0  0  0  0  0  0  0  0
    2.4537   -4.1874    1.6763 C   0  0  0  0  0  0  0  0  0  0  0  0
    1.5604   -4.8113    0.7996 C   0  0  0  0  0  0  0  0  0  0  0  0
    1.4105   -4.3165   -0.4986 C   0  0  0  0  0  0  0  0  0  0  0  0
    2.1453   -3.2038   -0.9159 C   0  0  0  0  0  0  0  0  0  0  0  0
    1.5207    1.1042   -0.9847 H   0  0  0  0  0  0  0  0  0  0  0  0
    1.1396   -0.6045   -0.6515 H   0  0  0  0  0  0  0  0  0  0  0  0
    1.5052   -0.0783   -2.3093 H   0  0  0  0  0  0  0  0  0  0  0  0
    7.3902    0.6331   -1.8171 H   0  0  0  0  0  0  0  0  0  0  0  0
    9.0466    1.3904   -2.3746 H   0  0  0  0  0  0  0  0  0  0  0  0
   10.4215    2.2666   -1.7487 H   0  0  0  0  0  0  0  0  0  0  0  0
    7.5088    3.2454   -1.5733 H   0  0  0  0  0  0  0  0  0  0  0  0
    8.7475    3.8571   -2.6747 H   0  0  0  0  0  0  0  0  0  0  0  0
    8.4700    5.3223   -0.6273 H   0  0  0  0  0  0  0  0  0  0  0  0
   10.1135    4.6795   -0.7798 H   0  0  0  0  0  0  0  0  0  0  0  0
    7.9020    3.6384    1.0769 H   0  0  0  0  0  0  0  0  0  0  0  0
    9.3862    4.4657    1.5611 H   0  0  0  0  0  0  0  0  0  0  0  0
   11.1598    0.7843    1.8377 H   0  0  0  0  0  0  0  0  0  0  0  0
    7.0413   -1.2048    1.5043 H   0  0  0  0  0  0  0  0  0  0  0  0
    7.5958   -2.8782    1.3979 H   0  0  0  0  0  0  0  0  0  0  0  0
    3.8804   -2.5924    1.9520 H   0  0  0  0  0  0  0  0  0  0  0  0
    2.5799   -4.5688    2.6929 H   0  0  0  0  0  0  0  0  0  0  0  0
    0.9875   -5.6830    1.1259 H   0  0  0  0  0  0  0  0  0  0  0  0
    0.7241   -4.8046   -1.1955 H   0  0  0  0  0  0  0  0  0  0  0  0
    2.0415   -2.8393   -1.9405 H   0  0  0  0  0  0  0  0  0  0  0  0
  1  2  1  0
  1 30  1  0
  1 31  1  0
  1 32  1  0
  2  3  1  0
  2 23  2  0
  3  4  2  0
  4  5  1  0
  4 19  1  0
  5  6  1  0
  5 33  1  0
  6  7  2  0
  6  8  1  0
  8  9  1  6
  8 10  1  0
  8 14  1  0
 10 11  1  0
 10 34  1  0
 10 35  1  0
 11 12  1  0
 11 36  1  0
 11 37  1  0
 12 13  1  0
 12 38  1  0
 12 39  1  0
 13 14  1  0
 13 40  1  0
 13 41  1  0
 14 15  1  1
 14 16  1  0
 16 17  2  0
 16 18  1  0
 18 42  1  0
 19 20  2  0
 19 23  1  0
 20 21  1  0
 20 22  1  0
 21 43  1  0
 21 44  1  0
 23 24  1  0
 24 25  2  0
 24 29  1  0
 25 26  1  0
 25 45  1  0
 26 27  2  0
 26 46  1  0
 27 28  1  0
 27 47  1  0
 28 29  2  0
 28 48  1  0
 29 49  1  0
M  CHG  2   3   1  22  -1
M  END

