
     RDKit          3D

 39 40  0  0  0  0  0  0  0  0999 V2000
    0.8187    0.0018   -0.7081 C   0  0  0  0  0  0  0  0  0  0  0  0
    2.5583    0.0436   -0.1921 S   0  0  0  0  0  0  0  0  0  0  0  0
    3.0474    1.7233   -0.4996 C   0  0  0  0  0  0  0  0  0  0  0  0
    2.2151    2.7208   -1.0254 C   0  0  0  0  0  0  0  0  0  0  0  0
    2.7091    4.0161   -1.2253 C   0  0  0  0  0  0  0  0  0  0  0  0
    4.0292    4.3610   -0.9133 C   0  0  0  0  0  0  0  0  0  0  0  0
    4.5603    5.7707   -1.1657 C   0  0  1  0  0  0  0  0  0  0  0  0
    5.1178    6.4369    0.1187 C   0  0  0  0  0  0  0  0  0  0  0  0
    5.2230    7.9457    0.0337 C   0  0  0  0  0  0  0  0  0  0  0  0
    6.3596    8.5329   -0.5433 C   0  0  0  0  0  0  0  0  0  0  0  0
    6.4872    9.9182   -0.6599 C   0  0  0  0  0  0  0  0  0  0  0  0
    5.4630   10.7450   -0.1947 C   0  0  0  0  0  0  0  0  0  0  0  0
    4.3250   10.1739    0.3784 C   0  0  0  0  0  0  0  0  0  0  0  0
    4.1813    8.7825    0.5010 C   0  0  0  0  0  0  0  0  0  0  0  0
    2.9305    8.2154    1.1339 C   0  0  0  0  0  0  0  0  0  0  0  0
    5.5820    5.8382   -2.2147 N   0  0  0  0  0  0  0  0  0  0  0  0
    5.1915    5.4186   -3.5029 N   0  0  0  0  0  0  0  0  0  0  0  0
    4.8563    3.3478   -0.3925 C   0  0  0  0  0  0  0  0  0  0  0  0
    4.3807    2.0572   -0.1853 C   0  0  0  0  0  0  0  0  0  0  0  0
    0.4838   -1.0294   -0.5277 H   0  0  0  0  0  0  0  0  0  0  0  0
    0.7039    0.2289   -1.7786 H   0  0  0  0  0  0  0  0  0  0  0  0
    0.1980    0.6852   -0.1096 H   0  0  0  0  0  0  0  0  0  0  0  0
    1.1781    2.5062   -1.2858 H   0  0  0  0  0  0  0  0  0  0  0  0
    2.0376    4.7789   -1.6322 H   0  0  0  0  0  0  0  0  0  0  0  0
    3.7130    6.3819   -1.5226 H   0  0  0  0  0  0  0  0  0  0  0  0
    6.1156    6.0106    0.3222 H   0  0  0  0  0  0  0  0  0  0  0  0
    4.4845    6.1406    0.9663 H   0  0  0  0  0  0  0  0  0  0  0  0
    7.1538    7.8836   -0.9179 H   0  0  0  0  0  0  0  0  0  0  0  0
    7.3840   10.3485   -1.1133 H   0  0  0  0  0  0  0  0  0  0  0  0
    5.5476   11.8319   -0.2761 H   0  0  0  0  0  0  0  0  0  0  0  0
    3.5229   10.8222    0.7435 H   0  0  0  0  0  0  0  0  0  0  0  0
    2.2214    9.0164    1.3893 H   0  0  0  0  0  0  0  0  0  0  0  0
    3.1540    7.6637    2.0632 H   0  0  0  0  0  0  0  0  0  0  0  0
    2.4078    7.5102    0.4668 H   0  0  0  0  0  0  0  0  0  0  0  0
    6.4071    5.3042   -1.9423 H   0  0  0  0  0  0  0  0  0  0  0  0
    4.7172    6.1936   -3.9662 H   0  0  0  0  0  0  0  0  0  0  0  0
    4.5320    4.6324   -3.4659 H   0  0  0  0  0  0  0  0  0  0  0  0
    5.8981    3.5678   -0.1407 H   0  0  0  0  0  0  0  0  0  0  0  0
    5.0462    1.2928    0.2252 H   0  0  0  0  0  0  0  0  0  0  0  0
  1  2  1  0
  1 20  1  0
  1 21  1  0
  1 22  1  0
  2  3  1  0
  3  4  2  0
  3 19  1  0
  4  5  1  0
  4 23  1  0
  5  6  2  0
  5 24  1  0
  6  7  1  0
  6 18  1  0
  7  8  1  0
  7 16  1  0
  7 25  1  6
  8  9  1  0
  8 26  1  0
  8 27  1  0
  9 10  2  0
  9 14  1  0
 10 11  1  0
 10 28  1  0
 11 12  2  0
 11 29  1  0
 12 13  1  0
 12 30  1  0
 13 14  2  0
 13 31  1  0
 14 15  1  0
 15 32  1  0
 15 33  1  0
 15 34  1  0
 16 17  1  0
 16 35  1  0
 17 36  1  0
 17 37  1  0
 18 19  2  0
 18 38  1  0
 19 39  1  0
M  END

