
     RDKit          3D

 44 46  0  0  0  0  0  0  0  0999 V2000
    2.0759   -2.1937    2.3760 C   0  0  0  0  0  0  0  0  0  0  0  0
    3.4450   -1.9120    1.8150 C   0  0  0  0  0  0  0  0  0  0  0  0
    4.6071   -2.0269    2.5986 C   0  0  0  0  0  0  0  0  0  0  0  0
    5.8791   -1.7731    2.0979 C   0  0  0  0  0  0  0  0  0  0  0  0
    6.0602   -1.3803    0.7532 C   0  0  0  0  0  0  0  0  0  0  0  0
    7.3347   -1.1622    0.2576 N   0  0  0  0  0  0  0  0  0  0  0  0
    7.5815   -0.5118   -1.0205 C   0  0  0  0  0  0  0  0  0  0  0  0
    9.0613   -0.3495   -1.2796 C   0  0  0  0  0  0  0  0  0  0  0  0
    9.6978    0.8826   -1.1079 C   0  0  0  0  0  0  0  0  0  0  0  0
   11.0719    1.0363   -1.3294 C   0  0  0  0  0  0  0  0  0  0  0  0
   11.8228   -0.0667   -1.7319 C   0  0  0  0  0  0  0  0  0  0  0  0
   11.2148   -1.3146   -1.9145 C   0  0  0  0  0  0  0  0  0  0  0  0
    9.8393   -1.4607   -1.6853 C   0  0  0  0  0  0  0  0  0  0  0  0
    9.1620   -2.6259   -1.8426 O   0  0  0  0  0  0  0  0  0  0  0  0
    9.8518   -3.8261   -2.1315 C   0  0  0  0  0  0  0  0  0  0  0  0
    8.8886   -4.9869   -2.0438 C   0  0  0  0  0  0  0  0  0  0  0  0
    9.1053   -6.1405   -2.8091 C   0  0  0  0  0  0  0  0  0  0  0  0
    8.2575   -7.2456   -2.7011 C   0  0  0  0  0  0  0  0  0  0  0  0
    7.1731   -7.1884   -1.8220 C   0  0  0  0  0  0  0  0  0  0  0  0
    6.0031   -8.6886   -1.6722 Br  0  0  0  0  0  0  0  0  0  0  0  0
    6.9328   -6.0442   -1.0568 C   0  0  0  0  0  0  0  0  0  0  0  0
    7.7938   -4.9497   -1.1687 C   0  0  0  0  0  0  0  0  0  0  0  0
    4.9109   -1.2490   -0.0510 C   0  0  0  0  0  0  0  0  0  0  0  0
    3.6486   -1.5172    0.4841 C   0  0  0  0  0  0  0  0  0  0  0  0
    2.2609   -1.3358   -0.5808 Cl  0  0  0  0  0  0  0  0  0  0  0  0
    2.1395   -2.4875    3.4340 H   0  0  0  0  0  0  0  0  0  0  0  0
    1.5707   -3.0041    1.8246 H   0  0  0  0  0  0  0  0  0  0  0  0
    1.4187   -1.3112    2.3037 H   0  0  0  0  0  0  0  0  0  0  0  0
    4.5028   -2.3288    3.6449 H   0  0  0  0  0  0  0  0  0  0  0  0
    6.7516   -1.8823    2.7482 H   0  0  0  0  0  0  0  0  0  0  0  0
    8.0520   -1.0136    0.9578 H   0  0  0  0  0  0  0  0  0  0  0  0
    7.0954    0.4834   -1.0684 H   0  0  0  0  0  0  0  0  0  0  0  0
    7.1386   -1.1262   -1.8216 H   0  0  0  0  0  0  0  0  0  0  0  0
    9.0983    1.7434   -0.7975 H   0  0  0  0  0  0  0  0  0  0  0  0
   11.5462    2.0102   -1.1904 H   0  0  0  0  0  0  0  0  0  0  0  0
   12.8959    0.0349   -1.9136 H   0  0  0  0  0  0  0  0  0  0  0  0
   11.8177   -2.1619   -2.2411 H   0  0  0  0  0  0  0  0  0  0  0  0
   10.6769   -3.9651   -1.4049 H   0  0  0  0  0  0  0  0  0  0  0  0
   10.3094   -3.7815   -3.1377 H   0  0  0  0  0  0  0  0  0  0  0  0
    9.9467   -6.1834   -3.5072 H   0  0  0  0  0  0  0  0  0  0  0  0
    8.4327   -8.1396   -3.3017 H   0  0  0  0  0  0  0  0  0  0  0  0
    6.0788   -6.0048   -0.3786 H   0  0  0  0  0  0  0  0  0  0  0  0
    7.6089   -4.0499   -0.5786 H   0  0  0  0  0  0  0  0  0  0  0  0
    4.9815   -0.9443   -1.0938 H   0  0  0  0  0  0  0  0  0  0  0  0
  1  2  1  0
  1 26  1  0
  1 27  1  0
  1 28  1  0
  2  3  2  0
  2 24  1  0
  3  4  1  0
  3 29  1  0
  4  5  2  0
  4 30  1  0
  5  6  1  0
  5 23  1  0
  6  7  1  0
  6 31  1  0
  7  8  1  0
  7 32  1  0
  7 33  1  0
  8  9  2  0
  8 13  1  0
  9 10  1  0
  9 34  1  0
 10 11  2  0
 10 35  1  0
 11 12  1  0
 11 36  1  0
 12 13  2  0
 12 37  1  0
 13 14  1  0
 14 15  1  0
 15 16  1  0
 15 38  1  0
 15 39  1  0
 16 17  2  0
 16 22  1  0
 17 18  1  0
 17 40  1  0
 18 19  2  0
 18 41  1  0
 19 20  1  0
 19 21  1  0
 21 22  2  0
 21 42  1  0
 22 43  1  0
 23 24  2  0
 23 44  1  0
 24 25  1  0
M  END

