
     RDKit          3D

 75 83  0  0  0  0  0  0  0  0999 V2000
   -1.3671    2.1478    5.6740 C   0  0  0  0  0  0  0  0  0  0  0  0
   -0.0978    2.9278    5.2691 C   0  0  2  0  0  0  0  0  0  0  0  0
    0.3019    3.9100    6.3939 C   0  0  0  0  0  0  0  0  0  0  0  0
   -0.2860    3.6574    3.9336 C   0  0  0  0  0  0  0  0  0  0  0  0
   -1.2214    4.6213    3.5781 C   0  0  0  0  0  0  0  0  0  0  0  0
   -1.2247    5.1339    2.2703 C   0  0  0  0  0  0  0  0  0  0  0  0
   -0.2989    4.6702    1.3327 C   0  0  0  0  0  0  0  0  0  0  0  0
    0.6553    3.6996    1.6719 C   0  0  0  0  0  0  0  0  0  0  0  0
    0.6550    3.2137    2.9788 C   0  0  0  0  0  0  0  0  0  0  0  0
    1.4743    2.2464    3.5898 N   0  0  0  0  0  0  0  0  0  0  0  0
    1.0431    1.9946    4.9096 C   0  0  0  0  0  0  0  0  0  0  0  0
    1.7772    0.9674    5.4532 C   0  0  0  0  0  0  0  0  0  0  0  0
    2.7174    0.5671    4.4390 C   0  0  0  0  0  0  0  0  0  0  0  0
    3.7490   -0.3683    4.0653 C   0  0  0  0  0  0  0  0  0  0  0  0
    4.4095   -1.4240    4.7142 C   0  0  0  0  0  0  0  0  0  0  0  0
    5.4086   -2.1244    4.0390 C   0  0  0  0  0  0  0  0  0  0  0  0
    5.7659   -1.7813    2.7225 C   0  0  0  0  0  0  0  0  0  0  0  0
    5.1244   -0.7392    2.0481 C   0  0  0  0  0  0  0  0  0  0  0  0
    4.1096   -0.0502    2.7175 C   0  0  0  0  0  0  0  0  0  0  0  0
    3.3256    1.0350    2.2589 N   0  0  0  0  0  0  0  0  0  0  0  0
    3.6279    1.8058    1.1050 C   0  0  0  0  0  0  0  0  0  0  0  0
    4.0337    3.1442    1.2303 C   0  0  0  0  0  0  0  0  0  0  0  0
    4.3442    3.8796    0.0855 C   0  0  0  0  0  0  0  0  0  0  0  0
    4.2687    3.2911   -1.1785 C   0  0  0  0  0  0  0  0  0  0  0  0
    3.8708    1.9495   -1.3174 C   0  0  0  0  0  0  0  0  0  0  0  0
    3.7797    1.2800   -2.6471 C   0  0  0  0  0  0  0  0  0  0  0  0
    3.7533    1.9979   -3.8510 C   0  0  0  0  0  0  0  0  0  0  0  0
    3.6718    1.2685   -5.0483 C   0  0  0  0  0  0  0  0  0  0  0  0
    3.6405    1.9286   -6.3834 C   0  0  0  0  0  0  0  0  0  0  0  0
    3.9293    1.1758   -7.5363 C   0  0  0  0  0  0  0  0  0  0  0  0
    3.9167    1.7708   -8.7978 C   0  0  0  0  0  0  0  0  0  0  0  0
    3.6049    3.1276   -8.9339 C   0  0  0  0  0  0  0  0  0  0  0  0
    3.3054    3.8846   -7.7973 C   0  0  0  0  0  0  0  0  0  0  0  0
    3.3248    3.2913   -6.5338 C   0  0  0  0  0  0  0  0  0  0  0  0
    3.6315   -0.0699   -5.0220 N   0  0  0  0  0  0  0  0  0  0  0  0
    3.6487   -0.6856   -3.8329 C   0  0  0  0  0  0  0  0  0  0  0  0
    3.5879   -2.1737   -3.8222 C   0  0  0  0  0  0  0  0  0  0  0  0
    3.4115   -2.8891   -5.0199 C   0  0  0  0  0  0  0  0  0  0  0  0
    3.3526   -4.2831   -5.0092 C   0  0  0  0  0  0  0  0  0  0  0  0
    3.4710   -4.9832   -3.8038 C   0  0  0  0  0  0  0  0  0  0  0  0
    3.6475   -4.2797   -2.6076 C   0  0  0  0  0  0  0  0  0  0  0  0
    3.7045   -2.8855   -2.6151 C   0  0  0  0  0  0  0  0  0  0  0  0
    3.7161   -0.0574   -2.6521 N   0  0  0  0  0  0  0  0  0  0  0  0
    3.5480    1.2185   -0.1619 C   0  0  0  0  0  0  0  0  0  0  0  0
    2.5084    1.3837    3.3275 C   0  0  0  0  0  0  0  0  0  0  0  0
   -2.2034    2.8360    5.8777 H   0  0  0  0  0  0  0  0  0  0  0  0
   -1.1809    1.5617    6.5882 H   0  0  0  0  0  0  0  0  0  0  0  0
   -1.6759    1.4526    4.8794 H   0  0  0  0  0  0  0  0  0  0  0  0
    0.5125    3.3608    7.3255 H   0  0  0  0  0  0  0  0  0  0  0  0
   -0.5109    4.6267    6.5958 H   0  0  0  0  0  0  0  0  0  0  0  0
    1.2035    4.4789    6.1216 H   0  0  0  0  0  0  0  0  0  0  0  0
   -1.9561    4.9752    4.3065 H   0  0  0  0  0  0  0  0  0  0  0  0
   -1.9593    5.8902    1.9841 H   0  0  0  0  0  0  0  0  0  0  0  0
   -0.3151    5.0635    0.3131 H   0  0  0  0  0  0  0  0  0  0  0  0
    1.3649    3.3373    0.9302 H   0  0  0  0  0  0  0  0  0  0  0  0
    1.6572    0.5494    6.4504 H   0  0  0  0  0  0  0  0  0  0  0  0
    4.1448   -1.6877    5.7412 H   0  0  0  0  0  0  0  0  0  0  0  0
    5.9253   -2.9473    4.5395 H   0  0  0  0  0  0  0  0  0  0  0  0
    6.5579   -2.3370    2.2143 H   0  0  0  0  0  0  0  0  0  0  0  0
    5.4101   -0.4771    1.0281 H   0  0  0  0  0  0  0  0  0  0  0  0
    4.1095    3.5957    2.2216 H   0  0  0  0  0  0  0  0  0  0  0  0
    4.6664    4.9191    0.1817 H   0  0  0  0  0  0  0  0  0  0  0  0
    4.5455    3.8803   -2.0542 H   0  0  0  0  0  0  0  0  0  0  0  0
    3.7975    3.0845   -3.8591 H   0  0  0  0  0  0  0  0  0  0  0  0
    4.1683    0.1184   -7.4194 H   0  0  0  0  0  0  0  0  0  0  0  0
    4.1514    1.1721   -9.6816 H   0  0  0  0  0  0  0  0  0  0  0  0
    3.5919    3.5930   -9.9228 H   0  0  0  0  0  0  0  0  0  0  0  0
    3.0494    4.9426   -7.8947 H   0  0  0  0  0  0  0  0  0  0  0  0
    3.0679    3.8972   -5.6628 H   0  0  0  0  0  0  0  0  0  0  0  0
    3.3167   -2.3333   -5.9531 H   0  0  0  0  0  0  0  0  0  0  0  0
    3.2121   -4.8274   -5.9467 H   0  0  0  0  0  0  0  0  0  0  0  0
    3.4252   -6.0755   -3.7966 H   0  0  0  0  0  0  0  0  0  0  0  0
    3.7414   -4.8206   -1.6625 H   0  0  0  0  0  0  0  0  0  0  0  0
    3.8438   -2.3299   -1.6875 H   0  0  0  0  0  0  0  0  0  0  0  0
    3.2236    0.1839   -0.2656 H   0  0  0  0  0  0  0  0  0  0  0  0
  2  1  1  1
  1 46  1  0
  1 47  1  0
  1 48  1  0
  2  3  1  0
  2  4  1  0
  2 11  1  0
  3 49  1  0
  3 50  1  0
  3 51  1  0
  4  5  2  0
  4  9  1  0
  5  6  1  0
  5 52  1  0
  6  7  2  0
  6 53  1  0
  7  8  1  0
  7 54  1  0
  8  9  2  0
  8 55  1  0
  9 10  1  0
 10 11  1  0
 10 45  1  0
 11 12  2  0
 12 13  1  0
 12 56  1  0
 13 14  1  0
 13 45  2  0
 14 15  2  0
 14 19  1  0
 15 16  1  0
 15 57  1  0
 16 17  2  0
 16 58  1  0
 17 18  1  0
 17 59  1  0
 18 19  2  0
 18 60  1  0
 19 20  1  0
 20 21  1  0
 20 45  1  0
 21 22  2  0
 21 44  1  0
 22 23  1  0
 22 61  1  0
 23 24  2  0
 23 62  1  0
 24 25  1  0
 24 63  1  0
 25 26  1  0
 25 44  2  0
 26 27  2  0
 26 43  1  0
 27 28  1  0
 27 64  1  0
 28 29  1  0
 28 35  2  0
 29 30  2  0
 29 34  1  0
 30 31  1  0
 30 65  1  0
 31 32  2  0
 31 66  1  0
 32 33  1  0
 32 67  1  0
 33 34  2  0
 33 68  1  0
 34 69  1  0
 35 36  1  0
 36 37  1  0
 36 43  2  0
 37 38  2  0
 37 42  1  0
 38 39  1  0
 38 70  1  0
 39 40  2  0
 39 71  1  0
 40 41  1  0
 40 72  1  0
 41 42  2  0
 41 73  1  0
 42 74  1  0
 44 75  1  0
M  END

