
     RDKit          3D

 40 41  0  0  0  0  0  0  0  0999 V2000
    3.1944    0.3971    1.6335 C   0  0  0  0  0  0  0  0  0  0  0  0
    2.6476   -0.2534    0.3525 C   0  0  0  0  0  0  0  0  0  0  0  0
    2.8942    0.4435   -0.9140 N   0  0  0  0  0  0  0  0  0  0  0  0
    2.2252    1.7346   -0.9959 C   0  0  0  0  0  0  0  0  0  0  0  0
    0.6946    1.6404   -1.1191 C   0  0  2  0  0  0  0  0  0  0  0  0
    0.2179    0.8504   -2.3624 C   0  0  0  0  0  0  0  0  0  0  0  0
   -0.1601    1.9653   -3.3086 C   0  0  0  0  0  0  0  0  0  0  0  0
   -0.5107    1.9665   -4.6551 C   0  0  0  0  0  0  0  0  0  0  0  0
   -0.8649    3.1879   -5.2485 C   0  0  0  0  0  0  0  0  0  0  0  0
   -1.3430    3.2210   -7.0992 Br  0  0  0  0  0  0  0  0  0  0  0  0
   -0.8758    4.3784   -4.5141 C   0  0  0  0  0  0  0  0  0  0  0  0
   -0.5222    4.3768   -3.1582 C   0  0  0  0  0  0  0  0  0  0  0  0
   -0.1665    3.1612   -2.5772 C   0  0  0  0  0  0  0  0  0  0  0  0
    0.1967    2.9953   -1.2798 O   0  0  0  0  0  0  0  0  0  0  0  0
    4.2881    0.4730   -1.4122 C   0  0  1  0  0  0  0  0  0  0  0  0
    5.0978   -0.7706   -1.0323 C   0  0  0  0  0  0  0  0  0  0  0  0
    4.2873    0.6110   -2.9487 C   0  0  0  0  0  0  0  0  0  0  0  0
    5.6168    1.0619   -3.5411 C   0  0  0  0  0  0  0  0  0  0  0  0
    6.5934    1.3541   -2.9063 O   0  0  0  0  0  0  0  0  0  0  0  0
    5.6408    1.1334   -4.8932 O   0  0  0  0  0  0  0  0  0  0  0  0
    2.9678   -0.2403    2.5036 H   0  0  0  0  0  0  0  0  0  0  0  0
    2.7454    1.3838    1.8273 H   0  0  0  0  0  0  0  0  0  0  0  0
    4.2870    0.5315    1.5956 H   0  0  0  0  0  0  0  0  0  0  0  0
    1.5567   -0.3763    0.4579 H   0  0  0  0  0  0  0  0  0  0  0  0
    3.0367   -1.2775    0.2681 H   0  0  0  0  0  0  0  0  0  0  0  0
    2.5759    2.2693   -1.8908 H   0  0  0  0  0  0  0  0  0  0  0  0
    2.4565    2.4057   -0.1433 H   0  0  0  0  0  0  0  0  0  0  0  0
    0.2498    1.2582   -0.1894 H   0  0  0  0  0  0  0  0  0  0  0  0
   -0.6535    0.2135   -2.1329 H   0  0  0  0  0  0  0  0  0  0  0  0
    1.0175    0.1891   -2.7290 H   0  0  0  0  0  0  0  0  0  0  0  0
   -0.5189    1.0454   -5.2411 H   0  0  0  0  0  0  0  0  0  0  0  0
   -1.1569    5.3134   -5.0017 H   0  0  0  0  0  0  0  0  0  0  0  0
   -0.5211    5.2977   -2.5726 H   0  0  0  0  0  0  0  0  0  0  0  0
    4.8299    1.3536   -1.0095 H   0  0  0  0  0  0  0  0  0  0  0  0
    4.6059   -1.6898   -1.3910 H   0  0  0  0  0  0  0  0  0  0  0  0
    5.2555   -0.8610    0.0509 H   0  0  0  0  0  0  0  0  0  0  0  0
    6.0901   -0.7010   -1.4977 H   0  0  0  0  0  0  0  0  0  0  0  0
    3.5302    1.3392   -3.2834 H   0  0  0  0  0  0  0  0  0  0  0  0
    3.9967   -0.3524   -3.4061 H   0  0  0  0  0  0  0  0  0  0  0  0
    4.7845    0.8769   -5.2647 H   0  0  0  0  0  0  0  0  0  0  0  0
  1  2  1  0
  1 21  1  0
  1 22  1  0
  1 23  1  0
  2  3  1  0
  2 24  1  0
  2 25  1  0
  3  4  1  0
  3 15  1  0
  4  5  1  0
  4 26  1  0
  4 27  1  0
  5  6  1  0
  5 14  1  0
  5 28  1  1
  6  7  1  0
  6 29  1  0
  6 30  1  0
  7  8  2  0
  7 13  1  0
  8  9  1  0
  8 31  1  0
  9 10  1  0
  9 11  2  0
 11 12  1  0
 11 32  1  0
 12 13  2  0
 12 33  1  0
 13 14  1  0
 15 16  1  0
 15 17  1  0
 15 34  1  1
 16 35  1  0
 16 36  1  0
 16 37  1  0
 17 18  1  0
 17 38  1  0
 17 39  1  0
 18 19  2  0
 18 20  1  0
 20 40  1  0
M  END

