
     RDKit          3D

 33 35  0  0  0  0  0  0  0  0999 V2000
    1.0637    0.3162    0.1737 O   0  0  0  0  0  0  0  0  0  0  0  0
    2.2494    0.0790    0.1298 C   0  0  0  0  0  0  0  0  0  0  0  0
    2.8082   -1.1045   -0.3491 N   0  0  0  0  0  0  0  0  0  0  0  0
    2.1944   -2.2509   -0.8696 C   0  0  0  0  0  0  0  0  0  0  0  0
    3.0231   -3.3329   -1.2692 C   0  0  0  0  0  0  0  0  0  0  0  0
    2.4141   -4.4512   -1.7778 C   0  0  0  0  0  0  0  0  0  0  0  0
    0.9948   -4.4458   -1.8674 C   0  0  0  0  0  0  0  0  0  0  0  0
    0.3647   -5.5657   -2.3762 N   0  0  0  0  0  0  0  0  0  0  0  0
   -0.9808   -5.8623   -2.5853 C   0  0  0  0  0  0  0  0  0  0  0  0
   -2.0400   -4.9784   -2.2875 C   0  0  0  0  0  0  0  0  0  0  0  0
   -3.3639   -5.3466   -2.5254 C   0  0  0  0  0  0  0  0  0  0  0  0
   -3.6822   -6.5955   -3.0633 C   0  0  0  0  0  0  0  0  0  0  0  0
   -2.6513   -7.4878   -3.3664 C   0  0  0  0  0  0  0  0  0  0  0  0
   -1.3275   -7.1240   -3.1303 C   0  0  0  0  0  0  0  0  0  0  0  0
    0.0475   -8.3961   -3.5682 Br  0  0  0  0  0  0  0  0  0  0  0  0
    0.2858   -3.3889   -1.4717 N   0  0  0  0  0  0  0  0  0  0  0  0
    0.8755   -2.3071   -0.9805 N   0  0  0  0  0  0  0  0  0  0  0  0
    3.2863    1.0637    0.6028 C   0  0  1  0  0  0  0  0  0  0  0  0
    2.9740    2.5360    0.4067 C   0  0  0  0  0  0  0  0  0  0  0  0
    2.9077    1.9484    1.7765 C   0  0  0  0  0  0  0  0  0  0  0  0
    3.8189   -1.1498   -0.3132 H   0  0  0  0  0  0  0  0  0  0  0  0
    4.1112   -3.2780   -1.1752 H   0  0  0  0  0  0  0  0  0  0  0  0
    2.9966   -5.3169   -2.1034 H   0  0  0  0  0  0  0  0  0  0  0  0
    0.9913   -6.3163   -2.6475 H   0  0  0  0  0  0  0  0  0  0  0  0
   -1.7895   -4.0065   -1.8684 H   0  0  0  0  0  0  0  0  0  0  0  0
   -4.1581   -4.6364   -2.2823 H   0  0  0  0  0  0  0  0  0  0  0  0
   -4.7203   -6.8801   -3.2481 H   0  0  0  0  0  0  0  0  0  0  0  0
   -2.8695   -8.4706   -3.7875 H   0  0  0  0  0  0  0  0  0  0  0  0
    4.3361    0.7630    0.5246 H   0  0  0  0  0  0  0  0  0  0  0  0
    2.0262    2.7564   -0.0914 H   0  0  0  0  0  0  0  0  0  0  0  0
    3.8075    3.1957    0.1510 H   0  0  0  0  0  0  0  0  0  0  0  0
    1.9154    1.7736    2.2005 H   0  0  0  0  0  0  0  0  0  0  0  0
    3.6944    2.1893    2.4966 H   0  0  0  0  0  0  0  0  0  0  0  0
  1  2  2  0
  2  3  1  0
  2 18  1  0
  3  4  1  0
  3 21  1  0
  4  5  2  0
  4 17  1  0
  5  6  1  0
  5 22  1  0
  6  7  2  0
  6 23  1  0
  7  8  1  0
  7 16  1  0
  8  9  1  0
  8 24  1  0
  9 10  2  0
  9 14  1  0
 10 11  1  0
 10 25  1  0
 11 12  2  0
 11 26  1  0
 12 13  1  0
 12 27  1  0
 13 14  2  0
 13 28  1  0
 14 15  1  0
 16 17  2  0
 18 19  1  0
 18 20  1  0
 18 29  1  1
 19 20  1  0
 19 30  1  0
 19 31  1  0
 20 32  1  0
 20 33  1  0
M  END

