
     RDKit          3D

 33 35  0  0  0  0  0  0  0  0999 V2000
    9.4141    2.5688    2.2496 N   0  0  0  0  0  0  0  0  0  0  0  0
    8.4604    1.8943    1.5503 C   0  0  0  0  0  0  0  0  0  0  0  0
    7.3984    2.5516    1.1307 N   0  0  0  0  0  0  0  0  0  0  0  0
    6.4858    1.8183    0.4568 C   0  0  0  0  0  0  0  0  0  0  0  0
    6.5772    0.4648    0.1864 C   0  0  0  0  0  0  0  0  0  0  0  0
    5.4440    0.1112   -0.5413 N   0  0  0  0  0  0  0  0  0  0  0  0
    5.2261   -0.8095   -0.8994 H   0  0  0  0  0  0  0  0  0  0  0  0
    4.6392    1.2163   -0.7528 C   0  0  0  0  0  0  0  0  0  0  0  0
    3.5885    1.2877   -1.3505 O   0  0  0  0  0  0  0  0  0  0  0  0
    5.3105    2.2841   -0.0939 N   0  0  0  0  0  0  0  0  0  0  0  0
    4.8441    3.6555   -0.1573 C   0  0  1  0  0  0  0  0  0  0  0  0
    3.9597    3.6216   -0.8157 H   0  0  0  0  0  0  0  0  0  0  0  0
    4.5047    4.3052    1.1928 C   0  0  0  0  0  0  0  0  0  0  0  0
    4.7178    5.7935    0.8967 C   0  0  2  0  0  0  0  0  0  0  0  0
    4.9957    6.3568    1.8055 H   0  0  0  0  0  0  0  0  0  0  0  0
    3.6006    6.3769    0.2447 O   0  0  0  0  0  0  0  0  0  0  0  0
    5.8758    5.7745   -0.1211 C   0  0  1  0  0  0  0  0  0  0  0  0
    5.6557    6.5223   -0.9030 H   0  0  0  0  0  0  0  0  0  0  0  0
    7.2601    6.0509    0.4655 C   0  0  0  0  0  0  0  0  0  0  0  0
    7.5539    5.2674    1.5966 O   0  0  0  0  0  0  0  0  0  0  0  0
    5.8636    4.4668   -0.7139 O   0  0  0  0  0  0  0  0  0  0  0  0
    7.6992   -0.2982    0.6264 C   0  0  0  0  0  0  0  0  0  0  0  0
    7.9491   -1.4826    0.4869 O   0  0  0  0  0  0  0  0  0  0  0  0
    8.6192    0.5564    1.3274 N   0  0  0  0  0  0  0  0  0  0  0  0
    9.4375    0.0672    1.6807 H   0  0  0  0  0  0  0  0  0  0  0  0
    9.3153    3.5813    2.2771 H   0  0  0  0  0  0  0  0  0  0  0  0
   10.3401    2.1810    2.3746 H   0  0  0  0  0  0  0  0  0  0  0  0
    5.2103    3.9715    1.9662 H   0  0  0  0  0  0  0  0  0  0  0  0
    3.4801    4.0766    1.5233 H   0  0  0  0  0  0  0  0  0  0  0  0
    2.8544    6.3729    0.8583 H   0  0  0  0  0  0  0  0  0  0  0  0
    7.9999    5.9057   -0.3482 H   0  0  0  0  0  0  0  0  0  0  0  0
    7.3121    7.1118    0.7667 H   0  0  0  0  0  0  0  0  0  0  0  0
    7.4215    4.3207    1.3526 H   0  0  0  0  0  0  0  0  0  0  0  0
  1  2  1  0
  1 26  1  0
  1 27  1  0
  2  3  2  0
  2 24  1  0
  3  4  1  0
  4  5  2  0
  4 10  1  0
  5  6  1  0
  5 22  1  0
  6  7  1  0
  6  8  1  0
  8  9  2  0
  8 10  1  0
 10 11  1  0
 11 12  1  6
 11 13  1  0
 11 21  1  0
 13 14  1  0
 13 28  1  0
 13 29  1  0
 14 15  1  1
 14 16  1  0
 14 17  1  0
 16 30  1  0
 17 18  1  6
 17 19  1  0
 17 21  1  0
 19 20  1  0
 19 31  1  0
 19 32  1  0
 20 33  1  0
 22 23  2  0
 22 24  1  0
 24 25  1  0
M  END

