
     RDKit          3D

 58 61  0  0  0  0  0  0  0  0999 V2000
    8.6058   -4.6346    6.7265 C   0  0  0  0  0  0  0  0  0  0  0  0
    7.6179   -3.6544    6.5300 O   0  0  0  0  0  0  0  0  0  0  0  0
    6.5209   -4.0848    5.7606 C   0  0  0  0  0  0  0  0  0  0  0  0
    5.4891   -2.9672    5.6744 C   0  0  0  0  0  0  0  0  0  0  0  0
    5.9819   -1.7962    4.9736 N   0  0  0  0  0  0  0  0  0  0  0  0
    6.1083   -0.5834    5.5727 C   0  0  0  0  0  0  0  0  0  0  0  0
    5.7219   -0.3325    6.7017 O   0  0  0  0  0  0  0  0  0  0  0  0
    6.8314    0.4633    4.6784 C   0  0  1  0  0  0  0  0  0  0  0  0
    6.3277    1.8901    4.8424 C   0  0  0  0  0  0  0  0  0  0  0  0
    6.1589    2.5008    6.0971 C   0  0  0  0  0  0  0  0  0  0  0  0
    5.7270    3.8273    6.1826 C   0  0  0  0  0  0  0  0  0  0  0  0
    5.4560    4.5645    5.0260 C   0  0  0  0  0  0  0  0  0  0  0  0
    5.6131    3.9650    3.7738 C   0  0  0  0  0  0  0  0  0  0  0  0
    6.0445    2.6387    3.6879 C   0  0  0  0  0  0  0  0  0  0  0  0
    8.3072    0.3432    4.8498 N   0  0  0  0  0  0  0  0  0  0  0  0
    9.2117    0.1160    3.8364 C   0  0  0  0  0  0  0  0  0  0  0  0
   10.4141    0.0611    4.0253 O   0  0  0  0  0  0  0  0  0  0  0  0
    8.7117   -0.1545    2.4013 C   0  0  0  0  0  0  0  0  0  0  0  0
    8.6704   -1.5820    2.1414 N   0  0  0  0  0  0  0  0  0  0  0  0
    7.5280   -2.2835    2.3420 N   0  0  0  0  0  0  0  0  0  0  0  0
    7.7319   -3.5331    2.1058 N   0  0  0  0  0  0  0  0  0  0  0  0
    9.0475   -3.6963    1.7419 C   0  0  0  0  0  0  0  0  0  0  0  0
    9.7701   -4.8499    1.3796 C   0  0  0  0  0  0  0  0  0  0  0  0
   11.1126   -4.6862    1.0749 C   0  0  0  0  0  0  0  0  0  0  0  0
   11.7382   -3.4119    1.1340 C   0  0  0  0  0  0  0  0  0  0  0  0
   11.0439   -2.2635    1.4886 C   0  0  0  0  0  0  0  0  0  0  0  0
    9.6791   -2.4324    1.7796 C   0  0  0  0  0  0  0  0  0  0  0  0
    8.8759    0.5187    6.1648 C   0  0  0  0  0  0  0  0  0  0  0  0
    9.4081    1.7567    6.5410 C   0  0  0  0  0  0  0  0  0  0  0  0
    9.9849    1.9132    7.8011 C   0  0  0  0  0  0  0  0  0  0  0  0
   10.0307    0.8321    8.6771 C   0  0  0  0  0  0  0  0  0  0  0  0
   10.5867    0.9846    9.8802 F   0  0  0  0  0  0  0  0  0  0  0  0
    9.5032   -0.4100    8.3043 C   0  0  0  0  0  0  0  0  0  0  0  0
    9.5929   -1.7437    9.4216 Cl  0  0  0  0  0  0  0  0  0  0  0  0
    8.9230   -0.5683    7.0450 C   0  0  0  0  0  0  0  0  0  0  0  0
    9.3901   -4.1919    7.3566 H   0  0  0  0  0  0  0  0  0  0  0  0
    9.0558   -4.9683    5.7700 H   0  0  0  0  0  0  0  0  0  0  0  0
    8.1991   -5.5268    7.2437 H   0  0  0  0  0  0  0  0  0  0  0  0
    6.0423   -4.9729    6.2245 H   0  0  0  0  0  0  0  0  0  0  0  0
    6.8475   -4.3850    4.7427 H   0  0  0  0  0  0  0  0  0  0  0  0
    5.1992   -2.6426    6.6835 H   0  0  0  0  0  0  0  0  0  0  0  0
    4.5891   -3.3631    5.1710 H   0  0  0  0  0  0  0  0  0  0  0  0
    6.3474   -1.9261    4.0285 H   0  0  0  0  0  0  0  0  0  0  0  0
    6.6184    0.1682    3.6477 H   0  0  0  0  0  0  0  0  0  0  0  0
    6.3380    1.9219    7.0012 H   0  0  0  0  0  0  0  0  0  0  0  0
    5.5950    4.2862    7.1659 H   0  0  0  0  0  0  0  0  0  0  0  0
    5.1166    5.6009    5.1006 H   0  0  0  0  0  0  0  0  0  0  0  0
    5.3948    4.5267    2.8620 H   0  0  0  0  0  0  0  0  0  0  0  0
    6.1525    2.1776    2.7011 H   0  0  0  0  0  0  0  0  0  0  0  0
    9.4593    0.2950    1.7351 H   0  0  0  0  0  0  0  0  0  0  0  0
    7.7314    0.2588    2.1443 H   0  0  0  0  0  0  0  0  0  0  0  0
    9.2805   -5.8247    1.3466 H   0  0  0  0  0  0  0  0  0  0  0  0
   11.7122   -5.5541    0.7909 H   0  0  0  0  0  0  0  0  0  0  0  0
   12.8039   -3.3379    0.9039 H   0  0  0  0  0  0  0  0  0  0  0  0
   11.5342   -1.2934    1.5754 H   0  0  0  0  0  0  0  0  0  0  0  0
    9.3765    2.5945    5.8437 H   0  0  0  0  0  0  0  0  0  0  0  0
   10.4102    2.8659    8.1221 H   0  0  0  0  0  0  0  0  0  0  0  0
    8.5120   -1.5387    6.7595 H   0  0  0  0  0  0  0  0  0  0  0  0
  1  2  1  0
  1 36  1  0
  1 37  1  0
  1 38  1  0
  2  3  1  0
  3  4  1  0
  3 39  1  0
  3 40  1  0
  4  5  1  0
  4 41  1  0
  4 42  1  0
  5  6  1  0
  5 43  1  0
  6  7  2  0
  6  8  1  0
  8  9  1  0
  8 15  1  0
  8 44  1  6
  9 10  2  0
  9 14  1  0
 10 11  1  0
 10 45  1  0
 11 12  2  0
 11 46  1  0
 12 13  1  0
 12 47  1  0
 13 14  2  0
 13 48  1  0
 14 49  1  0
 15 16  1  0
 15 28  1  0
 16 17  2  0
 16 18  1  0
 18 19  1  0
 18 50  1  0
 18 51  1  0
 19 20  1  0
 19 27  1  0
 20 21  2  0
 21 22  1  0
 22 23  1  0
 22 27  2  0
 23 24  2  0
 23 52  1  0
 24 25  1  0
 24 53  1  0
 25 26  2  0
 25 54  1  0
 26 27  1  0
 26 55  1  0
 28 29  2  0
 28 35  1  0
 29 30  1  0
 29 56  1  0
 30 31  2  0
 30 57  1  0
 31 32  1  0
 31 33  1  0
 33 34  1  0
 33 35  2  0
 35 58  1  0
M  END

