
     RDKit          3D

 60 61  0  0  0  0  0  0  0  0999 V2000
    4.0594   -9.0312    0.3053 C   0  0  0  0  0  0  0  0  0  0  0  0
    5.1655   -8.1728    0.3240 O   0  0  0  0  0  0  0  0  0  0  0  0
    6.0519   -8.3551   -0.7530 C   0  0  0  0  0  0  0  0  0  0  0  0
    7.2115   -7.3788   -0.6217 C   0  0  0  0  0  0  0  0  0  0  0  0
    8.0111   -7.5629    0.6750 C   0  0  0  0  0  0  0  0  0  0  0  0
    9.1719   -6.6976    0.7855 N   0  0  0  0  0  0  0  0  0  0  0  0
    9.0508   -5.4127    1.2928 C   0  0  0  0  0  0  0  0  0  0  0  0
    8.0145   -4.9982    1.7940 O   0  0  0  0  0  0  0  0  0  0  0  0
   10.2047   -4.6612    1.1824 N   0  0  0  0  0  0  0  0  0  0  0  0
   10.3605   -3.3482    1.8186 C   0  0  1  0  0  0  0  0  0  0  0  0
    9.4094   -2.3052    1.2238 C   0  0  0  0  0  0  0  0  0  0  0  0
   10.2671   -3.4072    3.3567 C   0  0  0  0  0  0  0  0  0  0  0  0
   11.1042   -4.5197    3.9997 C   0  0  0  0  0  0  0  0  0  0  0  0
   12.4804   -4.5914    3.5013 N   0  0  0  0  0  0  0  0  0  0  0  0
   13.3497   -3.4767    3.8647 C   0  0  0  0  0  0  0  0  0  0  0  0
   13.8884   -3.5404    5.3030 C   0  0  0  0  0  0  0  0  0  0  0  0
   14.5422   -4.8183    5.5525 N   0  0  0  0  0  0  0  0  0  0  0  0
   15.4215   -4.9278    6.6453 C   0  0  0  0  0  0  0  0  0  0  0  0
   15.5870   -3.8875    7.5823 C   0  0  0  0  0  0  0  0  0  0  0  0
   16.5043   -4.0175    8.6298 C   0  0  0  0  0  0  0  0  0  0  0  0
   17.2636   -5.1743    8.7851 C   0  0  0  0  0  0  0  0  0  0  0  0
   17.1147   -6.2319    7.8697 C   0  0  0  0  0  0  0  0  0  0  0  0
   17.9324   -7.4928    8.0228 C   0  0  0  0  0  0  0  0  0  0  0  0
   16.2051   -6.0933    6.8187 C   0  0  0  0  0  0  0  0  0  0  0  0
   13.6980   -5.9648    5.2117 C   0  0  0  0  0  0  0  0  0  0  0  0
   13.1721   -5.8462    3.7758 C   0  0  0  0  0  0  0  0  0  0  0  0
    3.4376   -8.8014    1.1830 H   0  0  0  0  0  0  0  0  0  0  0  0
    4.3582  -10.0991    0.3551 H   0  0  0  0  0  0  0  0  0  0  0  0
    3.4428   -8.8966   -0.6076 H   0  0  0  0  0  0  0  0  0  0  0  0
    5.5283   -8.1972   -1.7201 H   0  0  0  0  0  0  0  0  0  0  0  0
    6.4305   -9.4021   -0.7663 H   0  0  0  0  0  0  0  0  0  0  0  0
    6.8243   -6.3473   -0.6556 H   0  0  0  0  0  0  0  0  0  0  0  0
    7.8737   -7.5106   -1.4966 H   0  0  0  0  0  0  0  0  0  0  0  0
    8.3456   -8.6119    0.7659 H   0  0  0  0  0  0  0  0  0  0  0  0
    7.3575   -7.3491    1.5302 H   0  0  0  0  0  0  0  0  0  0  0  0
    9.9285   -6.8632    0.1306 H   0  0  0  0  0  0  0  0  0  0  0  0
   11.0726   -5.1798    1.1018 H   0  0  0  0  0  0  0  0  0  0  0  0
   11.3897   -3.0510    1.5632 H   0  0  0  0  0  0  0  0  0  0  0  0
    8.3637   -2.5706    1.4303 H   0  0  0  0  0  0  0  0  0  0  0  0
    9.5432   -2.2394    0.1327 H   0  0  0  0  0  0  0  0  0  0  0  0
    9.6147   -1.3122    1.6553 H   0  0  0  0  0  0  0  0  0  0  0  0
    9.2178   -3.5660    3.6506 H   0  0  0  0  0  0  0  0  0  0  0  0
   10.5565   -2.4193    3.7560 H   0  0  0  0  0  0  0  0  0  0  0  0
   10.6343   -5.4892    3.7692 H   0  0  0  0  0  0  0  0  0  0  0  0
   11.0389   -4.4124    5.1038 H   0  0  0  0  0  0  0  0  0  0  0  0
   12.8188   -2.5240    3.7181 H   0  0  0  0  0  0  0  0  0  0  0  0
   14.2135   -3.4770    3.1759 H   0  0  0  0  0  0  0  0  0  0  0  0
   13.0683   -3.3499    6.0304 H   0  0  0  0  0  0  0  0  0  0  0  0
   14.6219   -2.7308    5.4308 H   0  0  0  0  0  0  0  0  0  0  0  0
   14.9958   -2.9752    7.5123 H   0  0  0  0  0  0  0  0  0  0  0  0
   16.6135   -3.1957    9.3432 H   0  0  0  0  0  0  0  0  0  0  0  0
   17.9735   -5.2618    9.6121 H   0  0  0  0  0  0  0  0  0  0  0  0
   19.0095   -7.2663    8.0877 H   0  0  0  0  0  0  0  0  0  0  0  0
   17.7824   -8.1823    7.1787 H   0  0  0  0  0  0  0  0  0  0  0  0
   17.6632   -8.0319    8.9473 H   0  0  0  0  0  0  0  0  0  0  0  0
   16.1240   -6.9060    6.0943 H   0  0  0  0  0  0  0  0  0  0  0  0
   12.8471   -6.0463    5.9233 H   0  0  0  0  0  0  0  0  0  0  0  0
   14.2727   -6.8951    5.3024 H   0  0  0  0  0  0  0  0  0  0  0  0
   12.4965   -6.6899    3.5598 H   0  0  0  0  0  0  0  0  0  0  0  0
   14.0338   -5.9235    3.0876 H   0  0  0  0  0  0  0  0  0  0  0  0
  1  2  1  0
  1 27  1  0
  1 28  1  0
  1 29  1  0
  2  3  1  0
  3  4  1  0
  3 30  1  0
  3 31  1  0
  4  5  1  0
  4 32  1  0
  4 33  1  0
  5  6  1  0
  5 34  1  0
  5 35  1  0
  6  7  1  0
  6 36  1  0
  7  8  2  0
  7  9  1  0
  9 10  1  0
  9 37  1  0
 10 11  1  0
 10 12  1  0
 10 38  1  1
 11 39  1  0
 11 40  1  0
 11 41  1  0
 12 13  1  0
 12 42  1  0
 12 43  1  0
 13 14  1  0
 13 44  1  0
 13 45  1  0
 14 15  1  0
 14 26  1  0
 15 16  1  0
 15 46  1  0
 15 47  1  0
 16 17  1  0
 16 48  1  0
 16 49  1  0
 17 18  1  0
 17 25  1  0
 18 19  2  0
 18 24  1  0
 19 20  1  0
 19 50  1  0
 20 21  2  0
 20 51  1  0
 21 22  1  0
 21 52  1  0
 22 23  1  0
 22 24  2  0
 23 53  1  0
 23 54  1  0
 23 55  1  0
 24 56  1  0
 25 26  1  0
 25 57  1  0
 25 58  1  0
 26 59  1  0
 26 60  1  0
M  END

