
     RDKit          3D

 64 68  0  0  0  0  0  0  0  0999 V2000
    3.0482   -2.4630    0.7063 C   0  0  0  0  0  0  0  0  0  0  0  0
    4.3686   -2.9070    0.9185 O   0  0  0  0  0  0  0  0  0  0  0  0
    5.2642   -2.0702    1.5070 C   0  0  0  0  0  0  0  0  0  0  0  0
    4.9820   -0.7640    1.9130 C   0  0  0  0  0  0  0  0  0  0  0  0
    5.9526    0.0343    2.5457 C   0  0  0  0  0  0  0  0  0  0  0  0
    7.2338   -0.4835    2.7718 C   0  0  0  0  0  0  0  0  0  0  0  0
    7.5168   -1.7955    2.3560 C   0  0  0  0  0  0  0  0  0  0  0  0
    6.5644   -2.5941    1.7315 C   0  0  0  0  0  0  0  0  0  0  0  0
    6.8879   -3.8805    1.4113 O   0  0  0  0  0  0  0  0  0  0  0  0
    6.9041   -4.2316    0.0354 C   0  0  0  0  0  0  0  0  0  0  0  0
    8.3329    0.3184    3.4433 C   0  0  0  0  0  0  0  0  0  0  0  0
    7.9783    1.7208    3.6308 N   0  0  0  0  0  0  0  0  0  0  0  0
    8.9318    2.7005    3.6109 C   0  0  0  0  0  0  0  0  0  0  0  0
   10.5719    2.3475    3.5131 S   0  0  0  0  0  0  0  0  0  0  0  0
    8.4479    4.0956    3.6252 C   0  0  0  0  0  0  0  0  0  0  0  0
    9.2306    5.1456    3.9746 C   0  0  0  0  0  0  0  0  0  0  0  0
    8.8943    6.5500    3.9667 C   0  0  0  0  0  0  0  0  0  0  0  0
    9.8275    7.5778    4.1922 C   0  0  0  0  0  0  0  0  0  0  0  0
   11.2786    7.4516    4.4274 C   0  0  0  0  0  0  0  0  0  0  0  0
   12.0829    6.6838    3.5601 C   0  0  0  0  0  0  0  0  0  0  0  0
   13.4516    6.5568    3.7823 C   0  0  0  0  0  0  0  0  0  0  0  0
   14.0570    7.1739    4.8869 C   0  0  0  0  0  0  0  0  0  0  0  0
   15.5424    7.0137    5.0608 C   0  0  0  0  0  0  0  0  0  0  0  0
   16.2807    6.7113    4.1619 O   0  0  0  0  0  0  0  0  0  0  0  0
   16.0291    7.2306    6.3051 O   0  0  0  0  0  0  0  0  0  0  0  0
   13.2636    7.9450    5.7514 C   0  0  0  0  0  0  0  0  0  0  0  0
   11.8955    8.0836    5.5249 C   0  0  0  0  0  0  0  0  0  0  0  0
    9.1947    8.8078    4.1648 N   0  0  0  0  0  0  0  0  0  0  0  0
    9.7912   10.1299    4.2431 C   0  0  0  0  0  0  0  0  0  0  0  0
    7.8488    8.6035    3.9182 C   0  0  0  0  0  0  0  0  0  0  0  0
    6.9528    9.5759    3.8115 N   0  0  0  0  0  0  0  0  0  0  0  0
    5.7016    9.1794    3.5770 C   0  0  0  0  0  0  0  0  0  0  0  0
    5.3231    7.8285    3.4544 C   0  0  0  0  0  0  0  0  0  0  0  0
    6.2838    6.8228    3.5617 C   0  0  0  0  0  0  0  0  0  0  0  0
    7.6155    7.2047    3.7921 C   0  0  0  0  0  0  0  0  0  0  0  0
    6.5956    1.9124    4.0669 C   0  0  0  0  0  0  0  0  0  0  0  0
    5.6216    1.4435    2.9879 C   0  0  0  0  0  0  0  0  0  0  0  0
    2.5079   -3.2978    0.2402 H   0  0  0  0  0  0  0  0  0  0  0  0
    3.0096   -1.5897    0.0298 H   0  0  0  0  0  0  0  0  0  0  0  0
    2.5475   -2.1984    1.6551 H   0  0  0  0  0  0  0  0  0  0  0  0
    3.9863   -0.3468    1.7556 H   0  0  0  0  0  0  0  0  0  0  0  0
    8.5062   -2.2309    2.5189 H   0  0  0  0  0  0  0  0  0  0  0  0
    7.2462   -5.2748   -0.0181 H   0  0  0  0  0  0  0  0  0  0  0  0
    7.6110   -3.5962   -0.5292 H   0  0  0  0  0  0  0  0  0  0  0  0
    5.9047   -4.1545   -0.4206 H   0  0  0  0  0  0  0  0  0  0  0  0
    9.2578    0.2876    2.8499 H   0  0  0  0  0  0  0  0  0  0  0  0
    8.5964   -0.1357    4.4205 H   0  0  0  0  0  0  0  0  0  0  0  0
    7.4296    4.2747    3.2783 H   0  0  0  0  0  0  0  0  0  0  0  0
   10.2485    4.8914    4.2846 H   0  0  0  0  0  0  0  0  0  0  0  0
   11.6304    6.1929    2.6970 H   0  0  0  0  0  0  0  0  0  0  0  0
   14.0766    5.9768    3.1010 H   0  0  0  0  0  0  0  0  0  0  0  0
   15.3063    7.3087    6.9432 H   0  0  0  0  0  0  0  0  0  0  0  0
   13.7087    8.4695    6.6022 H   0  0  0  0  0  0  0  0  0  0  0  0
   11.2960    8.6733    6.2206 H   0  0  0  0  0  0  0  0  0  0  0  0
   10.7417   10.1559    3.6923 H   0  0  0  0  0  0  0  0  0  0  0  0
    9.9759   10.4368    5.2850 H   0  0  0  0  0  0  0  0  0  0  0  0
    9.0815   10.8393    3.7989 H   0  0  0  0  0  0  0  0  0  0  0  0
    4.9478    9.9689    3.4824 H   0  0  0  0  0  0  0  0  0  0  0  0
    4.2758    7.5787    3.2723 H   0  0  0  0  0  0  0  0  0  0  0  0
    5.9931    5.7760    3.4652 H   0  0  0  0  0  0  0  0  0  0  0  0
    6.4248    2.9581    4.3405 H   0  0  0  0  0  0  0  0  0  0  0  0
    6.4403    1.3163    4.9867 H   0  0  0  0  0  0  0  0  0  0  0  0
    5.6701    2.1361    2.1273 H   0  0  0  0  0  0  0  0  0  0  0  0
    4.5892    1.4923    3.3736 H   0  0  0  0  0  0  0  0  0  0  0  0
  1  2  1  0
  1 38  1  0
  1 39  1  0
  1 40  1  0
  2  3  1  0
  3  4  2  0
  3  8  1  0
  4  5  1  0
  4 41  1  0
  5  6  2  0
  5 37  1  0
  6  7  1  0
  6 11  1  0
  7  8  2  0
  7 42  1  0
  8  9  1  0
  9 10  1  0
 10 43  1  0
 10 44  1  0
 10 45  1  0
 11 12  1  0
 11 46  1  0
 11 47  1  0
 12 13  1  0
 12 36  1  0
 13 14  2  0
 13 15  1  0
 15 16  2  0
 15 48  1  0
 16 17  1  0
 16 49  1  0
 17 18  2  0
 17 35  1  0
 18 19  1  0
 18 28  1  0
 19 20  2  0
 19 27  1  0
 20 21  1  0
 20 50  1  0
 21 22  2  0
 21 51  1  0
 22 23  1  0
 22 26  1  0
 23 24  2  0
 23 25  1  0
 25 52  1  0
 26 27  2  0
 26 53  1  0
 27 54  1  0
 28 29  1  0
 28 30  1  0
 29 55  1  0
 29 56  1  0
 29 57  1  0
 30 31  2  0
 30 35  1  0
 31 32  1  0
 32 33  2  0
 32 58  1  0
 33 34  1  0
 33 59  1  0
 34 35  2  0
 34 60  1  0
 36 37  1  0
 36 61  1  0
 36 62  1  0
 37 63  1  0
 37 64  1  0
M  END

