
     RDKit          3D

 48 50  0  0  0  0  0  0  0  0999 V2000
    3.7552    0.4016    1.1827 O   0  0  0  0  0  0  0  0  0  0  0  0
    3.1198   -0.0905    0.2877 C   0  0  0  0  0  0  0  0  0  0  0  0
    2.2768   -1.1217    0.5378 O   0  0  0  0  0  0  0  0  0  0  0  0
    3.2030    0.3724   -1.1387 C   0  0  0  0  0  0  0  0  0  0  0  0
    4.3157    1.1376   -1.5211 C   0  0  0  0  0  0  0  0  0  0  0  0
    4.4438    1.6005   -2.8288 C   0  0  0  0  0  0  0  0  0  0  0  0
    3.4544    1.3282   -3.7881 C   0  0  0  0  0  0  0  0  0  0  0  0
    3.5612    1.8723   -5.1991 C   0  0  0  0  0  0  0  0  0  0  0  0
    4.9329    2.0079   -5.6495 N   0  0  0  0  0  0  0  0  0  0  0  0
    5.1062    2.6338   -6.9510 C   0  0  1  0  0  0  0  0  0  0  0  0
    4.9460    4.1648   -6.9505 C   0  0  0  0  0  0  0  0  0  0  0  0
    5.6715    4.5895   -8.2314 C   0  0  0  0  0  0  0  0  0  0  0  0
    6.9356    3.7065   -8.2414 C   0  0  0  0  0  0  0  0  0  0  0  0
    6.5377    2.3928   -7.5046 C   0  0  2  0  0  0  0  0  0  0  0  0
    6.6145    1.1178   -8.3778 C   0  0  0  0  0  0  0  0  0  0  0  0
    8.0183    0.6006   -8.6093 C   0  0  0  0  0  0  0  0  0  0  0  0
    8.6064    0.7639   -9.8762 C   0  0  0  0  0  0  0  0  0  0  0  0
    9.9078    0.3466  -10.1604 C   0  0  0  0  0  0  0  0  0  0  0  0
   10.6861   -0.2487   -9.1645 C   0  0  0  0  0  0  0  0  0  0  0  0
   10.1470   -0.4188   -7.8926 C   0  0  0  0  0  0  0  0  0  0  0  0
    8.8350   -0.0084   -7.6293 C   0  0  0  0  0  0  0  0  0  0  0  0
    8.3566   -0.2662   -6.2513 N   0  0  0  0  0  0  0  0  0  0  0  0
    7.1511   -0.3817   -6.0642 O   0  0  0  0  0  0  0  0  0  0  0  0
    9.1955   -0.3722   -5.3746 O   0  0  0  0  0  0  0  0  0  0  0  0
    2.3365    0.5747   -3.4005 C   0  0  0  0  0  0  0  0  0  0  0  0
    2.2082    0.1050   -2.0929 C   0  0  0  0  0  0  0  0  0  0  0  0
    1.9536   -1.4981   -0.2924 H   0  0  0  0  0  0  0  0  0  0  0  0
    5.0766    1.3570   -0.7696 H   0  0  0  0  0  0  0  0  0  0  0  0
    5.3188    2.1787   -3.1306 H   0  0  0  0  0  0  0  0  0  0  0  0
    3.0932    2.8745   -5.2156 H   0  0  0  0  0  0  0  0  0  0  0  0
    2.9346    1.2461   -5.8746 H   0  0  0  0  0  0  0  0  0  0  0  0
    5.4071    1.1047   -5.6171 H   0  0  0  0  0  0  0  0  0  0  0  0
    4.3807    2.2268   -7.6955 H   0  0  0  0  0  0  0  0  0  0  0  0
    5.4578    4.5683   -6.0598 H   0  0  0  0  0  0  0  0  0  0  0  0
    3.8967    4.4979   -6.9145 H   0  0  0  0  0  0  0  0  0  0  0  0
    5.8973    5.6664   -8.2686 H   0  0  0  0  0  0  0  0  0  0  0  0
    5.0404    4.3640   -9.1088 H   0  0  0  0  0  0  0  0  0  0  0  0
    7.7492    4.2116   -7.6974 H   0  0  0  0  0  0  0  0  0  0  0  0
    7.3116    3.5221   -9.2602 H   0  0  0  0  0  0  0  0  0  0  0  0
    7.1894    2.2631   -6.6266 H   0  0  0  0  0  0  0  0  0  0  0  0
    6.1652    1.3376   -9.3598 H   0  0  0  0  0  0  0  0  0  0  0  0
    6.0097    0.3282   -7.9150 H   0  0  0  0  0  0  0  0  0  0  0  0
    8.0116    1.2328  -10.6638 H   0  0  0  0  0  0  0  0  0  0  0  0
   10.3144    0.4896  -11.1646 H   0  0  0  0  0  0  0  0  0  0  0  0
   11.7055   -0.5793   -9.3744 H   0  0  0  0  0  0  0  0  0  0  0  0
   10.7230   -0.8705   -7.0856 H   0  0  0  0  0  0  0  0  0  0  0  0
    1.5520    0.3559   -4.1307 H   0  0  0  0  0  0  0  0  0  0  0  0
    1.3053   -0.4516   -1.8225 H   0  0  0  0  0  0  0  0  0  0  0  0
  1  2  2  0
  2  3  1  0
  2  4  1  0
  3 27  1  0
  4  5  2  0
  4 26  1  0
  5  6  1  0
  5 28  1  0
  6  7  2  0
  6 29  1  0
  7  8  1  0
  7 25  1  0
  8  9  1  0
  8 30  1  0
  8 31  1  0
  9 10  1  0
  9 32  1  0
 10 11  1  0
 10 14  1  0
 10 33  1  6
 11 12  1  0
 11 34  1  0
 11 35  1  0
 12 13  1  0
 12 36  1  0
 12 37  1  0
 13 14  1  0
 13 38  1  0
 13 39  1  0
 14 15  1  0
 14 40  1  1
 15 16  1  0
 15 41  1  0
 15 42  1  0
 16 17  2  0
 16 21  1  0
 17 18  1  0
 17 43  1  0
 18 19  2  0
 18 44  1  0
 19 20  1  0
 19 45  1  0
 20 21  2  0
 20 46  1  0
 21 22  1  0
 22 23  2  0
 22 24  1  0
 25 26  2  0
 25 47  1  0
 26 48  1  0
M  CHG  2  22   1  24  -1
M  END

