
     RDKit          3D

 40 42  0  0  0  0  0  0  0  0999 V2000
    0.6070   -5.0356    0.3977 O   0  0  0  0  0  0  0  0  0  0  0  0
    1.6541   -4.5735    0.7807 C   0  0  0  0  0  0  0  0  0  0  0  0
    1.8725   -4.3886    2.1096 O   0  0  0  0  0  0  0  0  0  0  0  0
    2.6866   -4.1998   -0.0605 N   0  0  0  0  0  0  0  0  0  0  0  0
    4.0672   -3.9357    0.3314 C   0  0  0  0  0  0  0  0  0  0  0  0
    5.0293   -4.9629   -0.2862 C   0  0  0  0  0  0  0  0  0  0  0  0
    4.8533   -5.0729   -1.7998 C   0  0  2  0  0  0  0  0  0  0  0  0
    5.3211   -3.8154   -2.3506 O   0  0  0  0  0  0  0  0  0  0  0  0
    5.7674   -3.7627   -3.6107 C   0  0  0  0  0  0  0  0  0  0  0  0
    6.2099   -2.5237   -4.0960 C   0  0  0  0  0  0  0  0  0  0  0  0
    6.6711   -2.5312   -5.4109 C   0  0  0  0  0  0  0  0  0  0  0  0
    7.1350   -1.3613   -5.9165 O   0  0  0  0  0  0  0  0  0  0  0  0
    7.4332   -1.2504   -7.2575 C   0  0  0  0  0  0  0  0  0  0  0  0
    8.7335   -0.9222   -7.6372 C   0  0  0  0  0  0  0  0  0  0  0  0
    9.0110   -0.7241   -8.9891 C   0  0  0  0  0  0  0  0  0  0  0  0
   10.2616   -0.4063   -9.3511 F   0  0  0  0  0  0  0  0  0  0  0  0
    8.0283   -0.8502   -9.9673 C   0  0  0  0  0  0  0  0  0  0  0  0
    6.7265   -1.1791   -9.5767 C   0  0  0  0  0  0  0  0  0  0  0  0
    6.4333   -1.3705   -8.2316 C   0  0  0  0  0  0  0  0  0  0  0  0
    5.1855   -1.6642   -7.8490 F   0  0  0  0  0  0  0  0  0  0  0  0
    6.7017   -3.6246   -6.1682 N   0  0  0  0  0  0  0  0  0  0  0  0
    6.2526   -4.7390   -5.5996 C   0  0  0  0  0  0  0  0  0  0  0  0
    5.7848   -4.8686   -4.3596 N   0  0  0  0  0  0  0  0  0  0  0  0
    3.3839   -5.3032   -2.1647 C   0  0  0  0  0  0  0  0  0  0  0  0
    2.4674   -4.2683   -1.5061 C   0  0  0  0  0  0  0  0  0  0  0  0
    2.6069   -3.7806    2.2645 H   0  0  0  0  0  0  0  0  0  0  0  0
    4.1762   -3.9694    1.4244 H   0  0  0  0  0  0  0  0  0  0  0  0
    4.3578   -2.9208    0.0050 H   0  0  0  0  0  0  0  0  0  0  0  0
    4.8342   -5.9546    0.1540 H   0  0  0  0  0  0  0  0  0  0  0  0
    6.0705   -4.6907   -0.0509 H   0  0  0  0  0  0  0  0  0  0  0  0
    5.4762   -5.8784   -2.2122 H   0  0  0  0  0  0  0  0  0  0  0  0
    6.1932   -1.6203   -3.4882 H   0  0  0  0  0  0  0  0  0  0  0  0
    9.5165   -0.8217   -6.8852 H   0  0  0  0  0  0  0  0  0  0  0  0
    8.2857   -0.6891  -11.0152 H   0  0  0  0  0  0  0  0  0  0  0  0
    5.9236   -1.2840  -10.3088 H   0  0  0  0  0  0  0  0  0  0  0  0
    6.2698   -5.6465   -6.2151 H   0  0  0  0  0  0  0  0  0  0  0  0
    3.1004   -6.3134   -1.8244 H   0  0  0  0  0  0  0  0  0  0  0  0
    3.2668   -5.2861   -3.2588 H   0  0  0  0  0  0  0  0  0  0  0  0
    1.4129   -4.5184   -1.6685 H   0  0  0  0  0  0  0  0  0  0  0  0
    2.6589   -3.2708   -1.9410 H   0  0  0  0  0  0  0  0  0  0  0  0
  1  2  2  0
  2  3  1  0
  2  4  1  0
  3 26  1  0
  4  5  1  0
  4 25  1  0
  5  6  1  0
  5 27  1  0
  5 28  1  0
  6  7  1  0
  6 29  1  0
  6 30  1  0
  7  8  1  0
  7 24  1  0
  7 31  1  6
  8  9  1  0
  9 10  2  0
  9 23  1  0
 10 11  1  0
 10 32  1  0
 11 12  1  0
 11 21  2  0
 12 13  1  0
 13 14  2  0
 13 19  1  0
 14 15  1  0
 14 33  1  0
 15 16  1  0
 15 17  2  0
 17 18  1  0
 17 34  1  0
 18 19  2  0
 18 35  1  0
 19 20  1  0
 21 22  1  0
 22 23  2  0
 22 36  1  0
 24 25  1  0
 24 37  1  0
 24 38  1  0
 25 39  1  0
 25 40  1  0
M  END

