
     RDKit          3D

 36 37  0  0  0  0  0  0  0  0999 V2000
    3.6216    1.1290    1.0127 C   0  0  0  0  0  0  0  0  0  0  0  0
    3.0433   -0.1550    1.0738 O   0  0  0  0  0  0  0  0  0  0  0  0
    3.5525   -1.1496    0.2993 C   0  0  0  0  0  0  0  0  0  0  0  0
    4.6190   -0.9947   -0.5943 C   0  0  0  0  0  0  0  0  0  0  0  0
    5.0981   -2.0857   -1.3295 C   0  0  0  0  0  0  0  0  0  0  0  0
    4.5302   -3.3547   -1.1900 C   0  0  0  0  0  0  0  0  0  0  0  0
    5.0260   -4.5408   -1.9848 C   0  0  0  0  0  0  0  0  0  0  0  0
    4.1857   -4.8815   -3.2338 C   0  0  1  0  0  0  0  0  0  0  0  0
    4.2648   -3.5204   -4.4402 Cl  0  0  0  0  0  0  0  0  0  0  0  0
    4.5960   -6.1987   -3.8597 C   0  0  0  0  0  0  0  0  0  0  0  0
    5.5293   -6.3125   -4.8975 C   0  0  0  0  0  0  0  0  0  0  0  0
    5.8853   -7.5703   -5.3775 C   0  0  0  0  0  0  0  0  0  0  0  0
    6.7778   -7.6545   -6.3752 F   0  0  0  0  0  0  0  0  0  0  0  0
    5.3389   -8.7412   -4.8567 C   0  0  0  0  0  0  0  0  0  0  0  0
    4.4095   -8.6416   -3.8192 C   0  0  0  0  0  0  0  0  0  0  0  0
    4.0585   -7.3841   -3.3390 C   0  0  0  0  0  0  0  0  0  0  0  0
    3.1707   -7.2991   -2.3273 F   0  0  0  0  0  0  0  0  0  0  0  0
    3.4536   -3.5010   -0.2984 C   0  0  0  0  0  0  0  0  0  0  0  0
    2.9566   -2.4288    0.4410 C   0  0  0  0  0  0  0  0  0  0  0  0
    1.9528   -2.6604    1.3371 O   0  0  0  0  0  0  0  0  0  0  0  0
    0.7082   -2.0157    1.1122 C   0  0  0  0  0  0  0  0  0  0  0  0
    3.0677    1.7559    1.7244 H   0  0  0  0  0  0  0  0  0  0  0  0
    3.5370    1.5728    0.0041 H   0  0  0  0  0  0  0  0  0  0  0  0
    4.6871    1.1124    1.3044 H   0  0  0  0  0  0  0  0  0  0  0  0
    5.0944   -0.0217   -0.7192 H   0  0  0  0  0  0  0  0  0  0  0  0
    5.9295   -1.9359   -2.0222 H   0  0  0  0  0  0  0  0  0  0  0  0
    5.0075   -5.4412   -1.3483 H   0  0  0  0  0  0  0  0  0  0  0  0
    6.0710   -4.3937   -2.2994 H   0  0  0  0  0  0  0  0  0  0  0  0
    3.1281   -4.9391   -2.9464 H   0  0  0  0  0  0  0  0  0  0  0  0
    5.9628   -5.4196   -5.3489 H   0  0  0  0  0  0  0  0  0  0  0  0
    5.6395   -9.7077   -5.2648 H   0  0  0  0  0  0  0  0  0  0  0  0
    3.9504   -9.5273   -3.3763 H   0  0  0  0  0  0  0  0  0  0  0  0
    2.9785   -4.4739   -0.1456 H   0  0  0  0  0  0  0  0  0  0  0  0
    0.0214   -2.3792    1.8897 H   0  0  0  0  0  0  0  0  0  0  0  0
    0.2956   -2.2809    0.1212 H   0  0  0  0  0  0  0  0  0  0  0  0
    0.7924   -0.9204    1.1869 H   0  0  0  0  0  0  0  0  0  0  0  0
  1  2  1  0
  1 22  1  0
  1 23  1  0
  1 24  1  0
  2  3  1  0
  3  4  2  0
  3 19  1  0
  4  5  1  0
  4 25  1  0
  5  6  2  0
  5 26  1  0
  6  7  1  0
  6 18  1  0
  7  8  1  0
  7 27  1  0
  7 28  1  0
  8  9  1  0
  8 10  1  0
  8 29  1  1
 10 11  2  0
 10 16  1  0
 11 12  1  0
 11 30  1  0
 12 13  1  0
 12 14  2  0
 14 15  1  0
 14 31  1  0
 15 16  2  0
 15 32  1  0
 16 17  1  0
 18 19  2  0
 18 33  1  0
 19 20  1  0
 20 21  1  0
 21 34  1  0
 21 35  1  0
 21 36  1  0
M  END

