
     RDKit          3D

 59 62  0  0  0  0  0  0  0  0999 V2000
    2.0915   -3.4120    4.9295 C   0  0  0  0  0  0  0  0  0  0  0  0
    3.2756   -4.0771    4.2791 C   0  0  0  0  0  0  0  0  0  0  0  0
    4.3795   -4.4678    5.0514 C   0  0  0  0  0  0  0  0  0  0  0  0
    5.5067   -5.0470    4.4701 C   0  0  0  0  0  0  0  0  0  0  0  0
    5.5460   -5.2488    3.0901 C   0  0  0  0  0  0  0  0  0  0  0  0
    4.4590   -4.8939    2.2819 C   0  0  0  0  0  0  0  0  0  0  0  0
    4.5003   -5.1376    0.7921 C   0  0  0  0  0  0  0  0  0  0  0  0
    3.3217   -4.3108    2.8865 C   0  0  0  0  0  0  0  0  0  0  0  0
    2.2413   -3.9122    2.0529 N   0  0  0  0  0  0  0  0  0  0  0  0
    0.9503   -4.4355    2.1402 C   0  0  0  0  0  0  0  0  0  0  0  0
    0.6049   -5.2382    2.9897 O   0  0  0  0  0  0  0  0  0  0  0  0
    0.1021   -3.9555    1.1640 N   0  0  0  0  0  0  0  0  0  0  0  0
   -1.3063   -4.3532    1.1384 C   0  0  1  0  0  0  0  0  0  0  0  0
   -2.2222   -3.5050    2.0562 C   0  0  0  0  0  0  0  0  0  0  0  0
   -2.7370   -2.2005    1.4086 C   0  0  1  0  0  0  0  0  0  0  0  0
   -1.6304   -1.1146    1.2098 C   0  0  0  0  0  0  0  0  0  0  0  0
   -1.4486   -0.7467   -0.2689 C   0  0  0  0  0  0  0  0  0  0  0  0
   -1.3354   -1.9886   -1.1653 C   0  0  0  0  0  0  0  0  0  0  0  0
   -2.4255   -3.0560   -0.8289 C   0  0  1  0  0  0  0  0  0  0  0  0
   -1.8681   -4.4008   -0.2993 C   0  0  0  0  0  0  0  0  0  0  0  0
   -3.3838   -2.4592    0.1133 N   0  0  0  0  0  0  0  0  0  0  0  0
   -4.6954   -3.0845    0.1706 C   0  0  0  0  0  0  0  0  0  0  0  0
   -5.5085   -2.8892   -1.0981 C   0  0  0  0  0  0  0  0  0  0  0  0
   -6.2064   -3.9559   -1.6812 C   0  0  0  0  0  0  0  0  0  0  0  0
   -6.9931   -3.7728   -2.8232 C   0  0  0  0  0  0  0  0  0  0  0  0
   -7.0717   -2.5023   -3.3849 C   0  0  0  0  0  0  0  0  0  0  0  0
   -7.8203   -2.3141   -4.4831 F   0  0  0  0  0  0  0  0  0  0  0  0
   -6.3864   -1.4192   -2.8352 C   0  0  0  0  0  0  0  0  0  0  0  0
   -5.6088   -1.6212   -1.6945 C   0  0  0  0  0  0  0  0  0  0  0  0
    2.3461   -3.0540    5.9377 H   0  0  0  0  0  0  0  0  0  0  0  0
    1.2436   -4.1107    5.0018 H   0  0  0  0  0  0  0  0  0  0  0  0
    1.7437   -2.5533    4.3324 H   0  0  0  0  0  0  0  0  0  0  0  0
    4.3531   -4.2953    6.1309 H   0  0  0  0  0  0  0  0  0  0  0  0
    6.3578   -5.3364    5.0917 H   0  0  0  0  0  0  0  0  0  0  0  0
    6.4278   -5.7014    2.6281 H   0  0  0  0  0  0  0  0  0  0  0  0
    5.4042   -5.6960    0.5102 H   0  0  0  0  0  0  0  0  0  0  0  0
    4.5139   -4.1954    0.2128 H   0  0  0  0  0  0  0  0  0  0  0  0
    3.6251   -5.7140    0.4494 H   0  0  0  0  0  0  0  0  0  0  0  0
    2.5060   -3.5499    1.1438 H   0  0  0  0  0  0  0  0  0  0  0  0
    0.3845   -3.1330    0.6484 H   0  0  0  0  0  0  0  0  0  0  0  0
   -1.2978   -5.3732    1.5472 H   0  0  0  0  0  0  0  0  0  0  0  0
   -1.6994   -3.3000    3.0039 H   0  0  0  0  0  0  0  0  0  0  0  0
   -3.0953   -4.1264    2.3205 H   0  0  0  0  0  0  0  0  0  0  0  0
   -3.5133   -1.7848    2.0712 H   0  0  0  0  0  0  0  0  0  0  0  0
   -0.6776   -1.4644    1.6373 H   0  0  0  0  0  0  0  0  0  0  0  0
   -1.8930   -0.2094    1.7799 H   0  0  0  0  0  0  0  0  0  0  0  0
   -0.5642   -0.1000   -0.3969 H   0  0  0  0  0  0  0  0  0  0  0  0
   -2.3174   -0.1567   -0.5967 H   0  0  0  0  0  0  0  0  0  0  0  0
   -0.3284   -2.4336   -1.0883 H   0  0  0  0  0  0  0  0  0  0  0  0
   -1.4307   -1.6838   -2.2195 H   0  0  0  0  0  0  0  0  0  0  0  0
   -2.9802   -3.2775   -1.7529 H   0  0  0  0  0  0  0  0  0  0  0  0
   -1.1029   -4.8000   -0.9854 H   0  0  0  0  0  0  0  0  0  0  0  0
   -2.6925   -5.1330   -0.3061 H   0  0  0  0  0  0  0  0  0  0  0  0
   -5.2362   -2.6145    1.0119 H   0  0  0  0  0  0  0  0  0  0  0  0
   -4.6717   -4.1709    0.4047 H   0  0  0  0  0  0  0  0  0  0  0  0
   -6.1367   -4.9529   -1.2366 H   0  0  0  0  0  0  0  0  0  0  0  0
   -7.5381   -4.5990   -3.2840 H   0  0  0  0  0  0  0  0  0  0  0  0
   -6.4727   -0.4375   -3.3057 H   0  0  0  0  0  0  0  0  0  0  0  0
   -5.0589   -0.7864   -1.2545 H   0  0  0  0  0  0  0  0  0  0  0  0
  1  2  1  0
  1 30  1  0
  1 31  1  0
  1 32  1  0
  2  3  2  0
  2  8  1  0
  3  4  1  0
  3 33  1  0
  4  5  2  0
  4 34  1  0
  5  6  1  0
  5 35  1  0
  6  7  1  0
  6  8  2  0
  7 36  1  0
  7 37  1  0
  7 38  1  0
  8  9  1  0
  9 10  1  0
  9 39  1  0
 10 11  2  0
 10 12  1  0
 12 13  1  0
 12 40  1  0
 13 14  1  0
 13 20  1  0
 13 41  1  1
 14 15  1  0
 14 42  1  0
 14 43  1  0
 15 16  1  0
 15 21  1  0
 15 44  1  1
 16 17  1  0
 16 45  1  0
 16 46  1  0
 17 18  1  0
 17 47  1  0
 17 48  1  0
 18 19  1  0
 18 49  1  0
 18 50  1  0
 19 20  1  0
 19 21  1  0
 19 51  1  6
 20 52  1  0
 20 53  1  0
 21 22  1  0
 22 23  1  0
 22 54  1  0
 22 55  1  0
 23 24  2  0
 23 29  1  0
 24 25  1  0
 24 56  1  0
 25 26  2  0
 25 57  1  0
 26 27  1  0
 26 28  1  0
 28 29  2  0
 28 58  1  0
 29 59  1  0
M  END

