
     RDKit          3D

 67 71  0  0  0  0  0  0  0  0999 V2000
    0.4407    0.6585    3.3323 C   0  0  0  0  0  0  0  0  0  0  0  0
    0.3498    0.6420    1.8420 C   0  0  0  0  0  0  0  0  0  0  0  0
   -0.2986    1.5799    1.1921 N   0  0  0  0  0  0  0  0  0  0  0  0
   -0.1767    1.2839   -0.1516 O   0  0  0  0  0  0  0  0  0  0  0  0
    0.5279    0.1468   -0.3211 C   0  0  0  0  0  0  0  0  0  0  0  0
    0.7480   -0.3051   -1.6944 C   0  0  0  0  0  0  0  0  0  0  0  0
    0.4535    0.5525   -2.7730 C   0  0  0  0  0  0  0  0  0  0  0  0
    0.6513    0.1382   -4.0863 C   0  0  0  0  0  0  0  0  0  0  0  0
    1.1461   -1.1467   -4.3839 C   0  0  0  0  0  0  0  0  0  0  0  0
    1.3582   -1.5855   -5.7869 C   0  0  0  0  0  0  0  0  0  0  0  0
    1.7953   -0.6776   -6.7722 C   0  0  0  0  0  0  0  0  0  0  0  0
    1.9961   -1.0826   -8.0910 C   0  0  0  0  0  0  0  0  0  0  0  0
    1.7660   -2.4170   -8.4420 C   0  0  0  0  0  0  0  0  0  0  0  0
    2.0668   -2.9585  -10.1324 S   0  0  1  0  0  0  0  0  0  0  0  0
    1.2907   -4.1842  -10.3315 O   0  0  0  0  0  0  0  0  0  0  0  0
    1.9201   -1.7811  -10.9909 O   0  0  0  0  0  0  0  0  0  0  0  0
    3.6628   -3.3948  -10.1922 N   0  0  0  0  0  0  0  0  0  0  0  0
    4.7475   -2.4553  -10.4980 C   0  0  0  0  0  0  0  0  0  0  0  0
    5.9235   -3.4037  -10.7606 C   0  0  0  0  0  0  0  0  0  0  0  0
    5.6638   -4.5627   -9.7848 C   0  0  0  0  0  0  0  0  0  0  0  0
    4.1347   -4.7343   -9.8087 C   0  0  0  0  0  0  0  0  0  0  0  0
    1.3137   -3.3364   -7.4900 C   0  0  0  0  0  0  0  0  0  0  0  0
    1.1173   -2.9187   -6.1740 C   0  0  0  0  0  0  0  0  0  0  0  0
    1.4291   -2.0020   -3.3022 C   0  0  0  0  0  0  0  0  0  0  0  0
    1.2366   -1.5943   -1.9846 C   0  0  0  0  0  0  0  0  0  0  0  0
    0.9059   -0.3121    0.9240 C   0  0  0  0  0  0  0  0  0  0  0  0
    1.7255   -1.4106    1.2236 N   0  0  0  0  0  0  0  0  0  0  0  0
    1.3858   -2.4147    2.1001 C   0  0  0  0  0  0  0  0  0  0  0  0
    0.3706   -2.4612    2.7560 O   0  0  0  0  0  0  0  0  0  0  0  0
    2.3681   -3.3436    2.1136 O   0  0  0  0  0  0  0  0  0  0  0  0
    2.1911   -4.4840    2.9882 C   0  0  2  0  0  0  0  0  0  0  0  0
    1.1102   -4.6635    3.0831 H   0  0  0  0  0  0  0  0  0  0  0  0
    2.7625   -4.1568    4.3674 C   0  0  0  0  0  0  0  0  0  0  0  0
    2.8518   -5.6809    2.3349 C   0  0  0  0  0  0  0  0  0  0  0  0
    2.2487   -6.9435    2.4220 C   0  0  0  0  0  0  0  0  0  0  0  0
    2.8679   -8.0700    1.8722 C   0  0  0  0  0  0  0  0  0  0  0  0
    4.0970   -7.9444    1.2192 C   0  0  0  0  0  0  0  0  0  0  0  0
    4.7025   -6.6873    1.1210 C   0  0  0  0  0  0  0  0  0  0  0  0
    4.0861   -5.5639    1.6773 C   0  0  0  0  0  0  0  0  0  0  0  0
   -0.0100    1.5804    3.7233 H   0  0  0  0  0  0  0  0  0  0  0  0
    1.4927    0.6085    3.6571 H   0  0  0  0  0  0  0  0  0  0  0  0
   -0.0742   -0.2177    3.7529 H   0  0  0  0  0  0  0  0  0  0  0  0
    0.0583    1.5486   -2.5690 H   0  0  0  0  0  0  0  0  0  0  0  0
    0.3915    0.8189   -4.8999 H   0  0  0  0  0  0  0  0  0  0  0  0
    1.9960    0.3606   -6.4994 H   0  0  0  0  0  0  0  0  0  0  0  0
    2.3156   -0.3698   -8.8533 H   0  0  0  0  0  0  0  0  0  0  0  0
    4.9624   -1.7851   -9.6418 H   0  0  0  0  0  0  0  0  0  0  0  0
    4.4850   -1.8298  -11.3620 H   0  0  0  0  0  0  0  0  0  0  0  0
    6.8990   -2.9180  -10.6086 H   0  0  0  0  0  0  0  0  0  0  0  0
    5.8839   -3.7645  -11.8016 H   0  0  0  0  0  0  0  0  0  0  0  0
    5.9940   -4.2799   -8.7714 H   0  0  0  0  0  0  0  0  0  0  0  0
    6.1908   -5.4889  -10.0581 H   0  0  0  0  0  0  0  0  0  0  0  0
    3.7383   -5.0458   -8.8275 H   0  0  0  0  0  0  0  0  0  0  0  0
    3.8079   -5.4827  -10.5495 H   0  0  0  0  0  0  0  0  0  0  0  0
    1.0887   -4.3602   -7.7940 H   0  0  0  0  0  0  0  0  0  0  0  0
    0.7348   -3.6332   -5.4420 H   0  0  0  0  0  0  0  0  0  0  0  0
    1.8256   -3.0017   -3.4923 H   0  0  0  0  0  0  0  0  0  0  0  0
    1.4557   -2.2931   -1.1768 H   0  0  0  0  0  0  0  0  0  0  0  0
    2.5945   -1.5295    0.7138 H   0  0  0  0  0  0  0  0  0  0  0  0
    2.6466   -5.0211    5.0388 H   0  0  0  0  0  0  0  0  0  0  0  0
    2.2271   -3.3024    4.8082 H   0  0  0  0  0  0  0  0  0  0  0  0
    3.8348   -3.9167    4.2981 H   0  0  0  0  0  0  0  0  0  0  0  0
    1.2812   -7.0463    2.9220 H   0  0  0  0  0  0  0  0  0  0  0  0
    2.3836   -9.0470    1.9476 H   0  0  0  0  0  0  0  0  0  0  0  0
    4.5805   -8.8229    0.7843 H   0  0  0  0  0  0  0  0  0  0  0  0
    5.6619   -6.5813    0.6077 H   0  0  0  0  0  0  0  0  0  0  0  0
    4.5591   -4.5831    1.5926 H   0  0  0  0  0  0  0  0  0  0  0  0
  1  2  1  0
  1 40  1  0
  1 41  1  0
  1 42  1  0
  2  3  2  0
  2 26  1  0
  3  4  1  0
  4  5  1  0
  5  6  1  0
  5 26  2  0
  6  7  2  0
  6 25  1  0
  7  8  1  0
  7 43  1  0
  8  9  2  0
  8 44  1  0
  9 10  1  0
  9 24  1  0
 10 11  2  0
 10 23  1  0
 11 12  1  0
 11 45  1  0
 12 13  2  0
 12 46  1  0
 14 13  1  1
 13 22  1  0
 14 15  2  0
 14 16  2  0
 14 17  1  0
 17 18  1  0
 17 21  1  0
 18 19  1  0
 18 47  1  0
 18 48  1  0
 19 20  1  0
 19 49  1  0
 19 50  1  0
 20 21  1  0
 20 51  1  0
 20 52  1  0
 21 53  1  0
 21 54  1  0
 22 23  2  0
 22 55  1  0
 23 56  1  0
 24 25  2  0
 24 57  1  0
 25 58  1  0
 26 27  1  0
 27 28  1  0
 27 59  1  0
 28 29  2  0
 28 30  1  0
 30 31  1  0
 31 32  1  1
 31 33  1  0
 31 34  1  0
 33 60  1  0
 33 61  1  0
 33 62  1  0
 34 35  2  0
 34 39  1  0
 35 36  1  0
 35 63  1  0
 36 37  2  0
 36 64  1  0
 37 38  1  0
 37 65  1  0
 38 39  2  0
 38 66  1  0
 39 67  1  0
M  END

