
     RDKit          3D

 77 81  0  0  0  0  0  0  0  0999 V2000
    0.8120   -1.8165    4.5877 N   0  0  0  0  0  0  0  0  0  0  0  0
    1.9853   -1.1195    4.5987 C   0  0  0  0  0  0  0  0  0  0  0  0
    2.7976   -1.2192    5.4993 O   0  0  0  0  0  0  0  0  0  0  0  0
    2.1926   -0.1656    3.4212 C   0  0  0  0  0  0  0  0  0  0  0  0
    3.6619   -0.1541    2.9485 C   0  0  1  0  0  0  0  0  0  0  0  0
    4.1392   -1.4907    2.3933 C   0  0  0  0  0  0  0  0  0  0  0  0
    3.3167   -2.3767    1.6843 C   0  0  0  0  0  0  0  0  0  0  0  0
    3.7913   -3.5831    1.1596 C   0  0  0  0  0  0  0  0  0  0  0  0
    5.1333   -3.9520    1.3498 C   0  0  0  0  0  0  0  0  0  0  0  0
    5.7001   -5.1433    0.8829 N   0  0  0  0  0  0  0  0  0  0  0  0
    5.1299   -6.2609    0.2730 C   0  0  0  0  0  0  0  0  0  0  0  0
    3.9513   -6.2208   -0.2231 N   0  0  0  0  0  0  0  0  0  0  0  0
    3.2240   -7.4103   -0.6262 C   0  0  1  0  0  0  0  0  0  0  0  0
    1.9160   -7.5218    0.1937 C   0  0  0  0  0  0  0  0  0  0  0  0
    0.8909   -6.4328   -0.1466 C   0  0  0  0  0  0  0  0  0  0  0  0
    0.5929   -6.3864   -1.6510 C   0  0  0  0  0  0  0  0  0  0  0  0
    1.8811   -6.2466   -2.4725 C   0  0  0  0  0  0  0  0  0  0  0  0
    2.8826   -7.3577   -2.1329 C   0  0  0  0  0  0  0  0  0  0  0  0
    6.0366   -7.3452    0.2788 N   0  0  0  0  0  0  0  0  0  0  0  0
    6.2716   -8.1833   -0.8867 C   0  0  0  0  0  0  0  0  0  0  0  0
    7.7740   -8.4327   -1.0322 C   0  0  0  0  0  0  0  0  0  0  0  0
    8.2935   -9.0134    0.1980 N   0  0  0  0  0  0  0  0  0  0  0  0
    8.1114   -8.1565    1.3651 C   0  0  2  0  0  0  0  0  0  0  0  0
    8.6786   -8.7931    2.6205 C   0  0  0  0  0  0  0  0  0  0  0  0
    9.2516   -7.9956    3.6230 C   0  0  0  0  0  0  0  0  0  0  0  0
    9.7305   -8.5655    4.8056 C   0  0  0  0  0  0  0  0  0  0  0  0
    9.6459   -9.9474    5.0012 C   0  0  0  0  0  0  0  0  0  0  0  0
    9.0804  -10.7519    4.0074 C   0  0  0  0  0  0  0  0  0  0  0  0
    8.5986  -10.1798    2.8266 C   0  0  0  0  0  0  0  0  0  0  0  0
    6.6003   -7.8725    1.5147 C   0  0  0  0  0  0  0  0  0  0  0  0
    5.9707   -3.0678    2.0621 C   0  0  0  0  0  0  0  0  0  0  0  0
    5.4816   -1.8685    2.5670 C   0  0  0  0  0  0  0  0  0  0  0  0
    3.9059    1.0172    1.9953 C   0  0  0  0  0  0  0  0  0  0  0  0
    3.8859    0.8542    0.6002 C   0  0  0  0  0  0  0  0  0  0  0  0
    4.0775    1.9164   -0.2840 C   0  0  0  0  0  0  0  0  0  0  0  0
    4.3040    3.1946    0.2293 C   0  0  0  0  0  0  0  0  0  0  0  0
    4.5549    4.5424   -0.8558 Cl  0  0  0  0  0  0  0  0  0  0  0  0
    4.3363    3.4086    1.6076 C   0  0  0  0  0  0  0  0  0  0  0  0
    4.1345    2.3249    2.4672 C   0  0  0  0  0  0  0  0  0  0  0  0
    4.1756    2.6572    4.1914 Cl  0  0  0  0  0  0  0  0  0  0  0  0
    0.6252   -2.4532    5.3538 H   0  0  0  0  0  0  0  0  0  0  0  0
    0.1598   -1.7724    3.8173 H   0  0  0  0  0  0  0  0  0  0  0  0
    1.9395    0.8419    3.7908 H   0  0  0  0  0  0  0  0  0  0  0  0
    1.5013   -0.3770    2.5902 H   0  0  0  0  0  0  0  0  0  0  0  0
    4.2486    0.0378    3.8585 H   0  0  0  0  0  0  0  0  0  0  0  0
    2.2641   -2.1337    1.5194 H   0  0  0  0  0  0  0  0  0  0  0  0
    3.1447   -4.2460    0.5909 H   0  0  0  0  0  0  0  0  0  0  0  0
    6.7062   -5.2000    0.9761 H   0  0  0  0  0  0  0  0  0  0  0  0
    3.8010   -8.3325   -0.4326 H   0  0  0  0  0  0  0  0  0  0  0  0
    2.1609   -7.5005    1.2685 H   0  0  0  0  0  0  0  0  0  0  0  0
    1.4738   -8.5143   -0.0111 H   0  0  0  0  0  0  0  0  0  0  0  0
    1.2794   -5.4532    0.1790 H   0  0  0  0  0  0  0  0  0  0  0  0
   -0.0384   -6.6042    0.4231 H   0  0  0  0  0  0  0  0  0  0  0  0
   -0.1005   -5.5590   -1.8796 H   0  0  0  0  0  0  0  0  0  0  0  0
    0.0722   -7.3167   -1.9477 H   0  0  0  0  0  0  0  0  0  0  0  0
    2.3472   -5.2693   -2.2621 H   0  0  0  0  0  0  0  0  0  0  0  0
    1.6515   -6.2648   -3.5516 H   0  0  0  0  0  0  0  0  0  0  0  0
    3.8074   -7.2294   -2.7196 H   0  0  0  0  0  0  0  0  0  0  0  0
    2.4574   -8.3358   -2.4236 H   0  0  0  0  0  0  0  0  0  0  0  0
    5.8824   -7.6788   -1.7812 H   0  0  0  0  0  0  0  0  0  0  0  0
    5.7627   -9.1634   -0.7953 H   0  0  0  0  0  0  0  0  0  0  0  0
    8.2662   -7.4688   -1.2953 H   0  0  0  0  0  0  0  0  0  0  0  0
    7.9510   -9.1358   -1.8624 H   0  0  0  0  0  0  0  0  0  0  0  0
    9.2732   -9.2732    0.0987 H   0  0  0  0  0  0  0  0  0  0  0  0
    8.6068   -7.1666    1.2266 H   0  0  0  0  0  0  0  0  0  0  0  0
    9.3293   -6.9143    3.4735 H   0  0  0  0  0  0  0  0  0  0  0  0
   10.1760   -7.9288    5.5744 H   0  0  0  0  0  0  0  0  0  0  0  0
   10.0233  -10.3957    5.9239 H   0  0  0  0  0  0  0  0  0  0  0  0
    9.0136  -11.8336    4.1520 H   0  0  0  0  0  0  0  0  0  0  0  0
    8.1626  -10.8037    2.0437 H   0  0  0  0  0  0  0  0  0  0  0  0
    6.4315   -7.1587    2.3323 H   0  0  0  0  0  0  0  0  0  0  0  0
    6.1007   -8.8225    1.7930 H   0  0  0  0  0  0  0  0  0  0  0  0
    7.0184   -3.3363    2.2307 H   0  0  0  0  0  0  0  0  0  0  0  0
    6.1571   -1.2103    3.1207 H   0  0  0  0  0  0  0  0  0  0  0  0
    3.7266   -0.1461    0.1933 H   0  0  0  0  0  0  0  0  0  0  0  0
    4.0577    1.7558   -1.3629 H   0  0  0  0  0  0  0  0  0  0  0  0
    4.5164    4.4039    2.0130 H   0  0  0  0  0  0  0  0  0  0  0  0
  1  2  1  0
  1 41  1  0
  1 42  1  0
  2  3  2  0
  2  4  1  0
  4  5  1  0
  4 43  1  0
  4 44  1  0
  5  6  1  0
  5 33  1  0
  5 45  1  1
  6  7  2  0
  6 32  1  0
  7  8  1  0
  7 46  1  0
  8  9  2  0
  8 47  1  0
  9 10  1  0
  9 31  1  0
 10 11  1  0
 10 48  1  0
 11 12  2  0
 11 19  1  0
 12 13  1  0
 13 14  1  0
 13 18  1  0
 13 49  1  6
 14 15  1  0
 14 50  1  0
 14 51  1  0
 15 16  1  0
 15 52  1  0
 15 53  1  0
 16 17  1  0
 16 54  1  0
 16 55  1  0
 17 18  1  0
 17 56  1  0
 17 57  1  0
 18 58  1  0
 18 59  1  0
 19 20  1  0
 19 30  1  0
 20 21  1  0
 20 60  1  0
 20 61  1  0
 21 22  1  0
 21 62  1  0
 21 63  1  0
 22 23  1  0
 22 64  1  0
 23 24  1  0
 23 30  1  0
 23 65  1  6
 24 25  2  0
 24 29  1  0
 25 26  1  0
 25 66  1  0
 26 27  2  0
 26 67  1  0
 27 28  1  0
 27 68  1  0
 28 29  2  0
 28 69  1  0
 29 70  1  0
 30 71  1  0
 30 72  1  0
 31 32  2  0
 31 73  1  0
 32 74  1  0
 33 34  2  0
 33 39  1  0
 34 35  1  0
 34 75  1  0
 35 36  2  0
 35 76  1  0
 36 37  1  0
 36 38  1  0
 38 39  2  0
 38 77  1  0
 39 40  1  0
M  END

