
     RDKit          3D

 40 42  0  0  0  0  0  0  0  0999 V2000
    1.4054    1.0957    2.6190 C   0  0  0  0  0  0  0  0  0  0  0  0
    2.8259    1.1053    2.4869 O   0  0  0  0  0  0  0  0  0  0  0  0
    3.3058    0.8310    1.2726 C   0  0  0  0  0  0  0  0  0  0  0  0
    2.6041    0.5927    0.3095 O   0  0  0  0  0  0  0  0  0  0  0  0
    4.7896    0.8411    1.2505 C   0  0  0  0  0  0  0  0  0  0  0  0
    5.5428    0.9546    2.3219 N   0  0  0  0  0  0  0  0  0  0  0  0
    6.8269    0.8557    1.8612 C   0  0  0  0  0  0  0  0  0  0  0  0
    8.0919    0.8960    2.4684 C   0  0  0  0  0  0  0  0  0  0  0  0
    9.1866    0.7587    1.7415 N   0  0  0  0  0  0  0  0  0  0  0  0
    9.0775    0.5776    0.3927 C   0  0  0  0  0  0  0  0  0  0  0  0
   10.2467    0.4103   -0.3006 N   0  0  0  0  0  0  0  0  0  0  0  0
   11.5451    0.5327    0.3338 C   0  0  0  0  0  0  0  0  0  0  0  0
   10.2570    0.2192   -1.7365 C   0  0  0  0  0  0  0  0  0  0  0  0
    7.9217    0.5469   -0.3001 N   0  0  0  0  0  0  0  0  0  0  0  0
    6.8397    0.6771    0.4573 C   0  0  0  0  0  0  0  0  0  0  0  0
    5.5244    0.6671    0.0697 N   0  0  0  0  0  0  0  0  0  0  0  0
    5.0747    0.5542   -1.3255 C   0  0  0  0  0  0  0  0  0  0  0  0
    4.8630    1.8926   -2.0125 C   0  0  0  0  0  0  0  0  0  0  0  0
    5.9651    2.6479   -2.4469 C   0  0  0  0  0  0  0  0  0  0  0  0
    5.7767    3.8769   -3.0834 C   0  0  0  0  0  0  0  0  0  0  0  0
    4.4837    4.3657   -3.2984 C   0  0  0  0  0  0  0  0  0  0  0  0
    3.3822    3.6197   -2.8711 C   0  0  0  0  0  0  0  0  0  0  0  0
    3.5698    2.3911   -2.2297 C   0  0  0  0  0  0  0  0  0  0  0  0
    1.1979    1.3370    3.6683 H   0  0  0  0  0  0  0  0  0  0  0  0
    0.9945    0.1065    2.3652 H   0  0  0  0  0  0  0  0  0  0  0  0
    0.9448    1.8438    1.9559 H   0  0  0  0  0  0  0  0  0  0  0  0
    8.2066    1.0417    3.5493 H   0  0  0  0  0  0  0  0  0  0  0  0
   11.4139    0.6637    1.4121 H   0  0  0  0  0  0  0  0  0  0  0  0
   12.0999    1.3996   -0.0716 H   0  0  0  0  0  0  0  0  0  0  0  0
   12.1510   -0.3716    0.1465 H   0  0  0  0  0  0  0  0  0  0  0  0
    9.2560   -0.0524   -2.0862 H   0  0  0  0  0  0  0  0  0  0  0  0
   10.9652   -0.5847   -2.0001 H   0  0  0  0  0  0  0  0  0  0  0  0
   10.5779    1.1372   -2.2659 H   0  0  0  0  0  0  0  0  0  0  0  0
    4.1509   -0.0326   -1.3341 H   0  0  0  0  0  0  0  0  0  0  0  0
    5.8649   -0.0097   -1.8410 H   0  0  0  0  0  0  0  0  0  0  0  0
    6.9751    2.2649   -2.2799 H   0  0  0  0  0  0  0  0  0  0  0  0
    6.6428    4.4542   -3.4176 H   0  0  0  0  0  0  0  0  0  0  0  0
    4.3362    5.3259   -3.7997 H   0  0  0  0  0  0  0  0  0  0  0  0
    2.3689    3.9954   -3.0366 H   0  0  0  0  0  0  0  0  0  0  0  0
    2.7102    1.8145   -1.8822 H   0  0  0  0  0  0  0  0  0  0  0  0
  1  2  1  0
  1 24  1  0
  1 25  1  0
  1 26  1  0
  2  3  1  0
  3  4  2  0
  3  5  1  0
  5  6  2  0
  5 16  1  0
  6  7  1  0
  7  8  2  0
  7 15  1  0
  8  9  1  0
  8 27  1  0
  9 10  2  0
 10 11  1  0
 10 14  1  0
 11 12  1  0
 11 13  1  0
 12 28  1  0
 12 29  1  0
 12 30  1  0
 13 31  1  0
 13 32  1  0
 13 33  1  0
 14 15  2  0
 15 16  1  0
 16 17  1  0
 17 18  1  0
 17 34  1  0
 17 35  1  0
 18 19  2  0
 18 23  1  0
 19 20  1  0
 19 36  1  0
 20 21  2  0
 20 37  1  0
 21 22  1  0
 21 38  1  0
 22 23  2  0
 22 39  1  0
 23 40  1  0
M  END

