
     RDKit          3D

 23 23  0  0  0  0  0  0  0  0999 V2000
    3.0514   -0.7415   -0.6742 C   0  0  0  0  0  0  0  0  0  0  0  0
    3.6638    0.3316   -1.3675 O   0  0  0  0  0  0  0  0  0  0  0  0
    3.9479    1.4284   -0.5991 C   0  0  0  0  0  0  0  0  0  0  0  0
    4.9505    1.0824    0.3511 O   0  0  0  0  0  0  0  0  0  0  0  0
    5.3050    1.9553    1.3166 C   0  0  0  0  0  0  0  0  0  0  0  0
    4.9231    3.3053    1.3451 C   0  0  0  0  0  0  0  0  0  0  0  0
    5.3281    4.1820    2.3653 C   0  0  0  0  0  0  0  0  0  0  0  0
    4.8980    5.6250    2.3595 C   0  0  0  0  0  0  0  0  0  0  0  0
    6.1460    3.6593    3.3785 C   0  0  0  0  0  0  0  0  0  0  0  0
    6.6929    4.6924    4.6862 Cl  0  0  0  0  0  0  0  0  0  0  0  0
    6.5443    2.3198    3.3787 C   0  0  0  0  0  0  0  0  0  0  0  0
    6.1259    1.4718    2.3578 C   0  0  0  0  0  0  0  0  0  0  0  0
    6.6112   -0.2023    2.3624 Cl  0  0  0  0  0  0  0  0  0  0  0  0
    2.8259   -1.5185   -1.4170 H   0  0  0  0  0  0  0  0  0  0  0  0
    2.1069   -0.4202   -0.1930 H   0  0  0  0  0  0  0  0  0  0  0  0
    3.7193   -1.1568    0.0982 H   0  0  0  0  0  0  0  0  0  0  0  0
    3.0551    1.8007   -0.0483 H   0  0  0  0  0  0  0  0  0  0  0  0
    4.3209    2.2154   -1.2778 H   0  0  0  0  0  0  0  0  0  0  0  0
    4.2971    3.7061    0.5469 H   0  0  0  0  0  0  0  0  0  0  0  0
    4.2704    5.8498    1.4855 H   0  0  0  0  0  0  0  0  0  0  0  0
    5.7697    6.2991    2.3448 H   0  0  0  0  0  0  0  0  0  0  0  0
    4.3281    5.8730    3.2698 H   0  0  0  0  0  0  0  0  0  0  0  0
    7.1780    1.9341    4.1772 H   0  0  0  0  0  0  0  0  0  0  0  0
  1  2  1  0
  1 14  1  0
  1 15  1  0
  1 16  1  0
  2  3  1  0
  3  4  1  0
  3 17  1  0
  3 18  1  0
  4  5  1  0
  5  6  2  0
  5 12  1  0
  6  7  1  0
  6 19  1  0
  7  8  1  0
  7  9  2  0
  8 20  1  0
  8 21  1  0
  8 22  1  0
  9 10  1  0
  9 11  1  0
 11 12  2  0
 11 23  1  0
 12 13  1  0
M  END

