
     RDKit          3D

 74 80  0  0  0  0  0  0  0  0999 V2000
    1.9223    0.4305    2.8719 C   0  0  0  0  0  0  0  0  0  0  0  0
    2.7670    0.2972    1.6974 N   0  0  0  0  0  0  0  0  0  0  0  0
    3.0895    1.2931    0.8333 C   0  0  0  0  0  0  0  0  0  0  0  0
    2.6166    2.6010    0.7510 C   0  0  0  0  0  0  0  0  0  0  0  0
    1.4690    3.2516    1.2157 C   0  0  0  0  0  0  0  0  0  0  0  0
    0.1009    2.9393    1.7370 C   0  0  0  0  0  0  0  0  0  0  0  0
   -0.5011    1.9858    2.1957 O   0  0  0  0  0  0  0  0  0  0  0  0
   -0.2941    4.3335    1.4296 C   0  0  0  0  0  0  0  0  0  0  0  0
   -1.6554    4.7082    1.4363 C   0  0  0  0  0  0  0  0  0  0  0  0
   -2.4785    5.5633    0.7189 C   0  0  0  0  0  0  0  0  0  0  0  0
   -3.8470    5.4857    0.8782 N   0  0  0  0  0  0  0  0  0  0  0  0
   -4.5172    4.7280    1.9128 C   0  0  0  0  0  0  0  0  0  0  0  0
   -4.5200    6.0622   -0.2120 C   0  0  0  0  0  0  0  0  0  0  0  0
   -5.8853    6.0692   -0.5014 C   0  0  0  0  0  0  0  0  0  0  0  0
   -6.2957    6.7020   -1.6840 C   0  0  0  0  0  0  0  0  0  0  0  0
   -5.3689    7.3034   -2.5406 C   0  0  0  0  0  0  0  0  0  0  0  0
   -3.9991    7.2909   -2.2261 C   0  0  0  0  0  0  0  0  0  0  0  0
   -3.5790    6.6612   -1.0620 C   0  0  0  0  0  0  0  0  0  0  0  0
   -2.2032    6.5637   -0.4155 C   0  0  2  0  0  0  0  0  0  0  0  0
   -1.1004    6.1096   -1.3806 C   0  0  0  0  0  0  0  0  0  0  0  0
   -1.8949    7.9678    0.1807 C   0  0  0  0  0  0  0  0  0  0  0  0
    1.0866    4.6581    1.1120 C   0  0  0  0  0  0  0  0  0  0  0  0
    1.8326    5.8327    0.9123 C   0  0  0  0  0  0  0  0  0  0  0  0
    1.4479    7.1203    1.4937 C   0  0  0  0  0  0  0  0  0  0  0  0
    0.4421    7.3949    2.1406 O   0  0  0  0  0  0  0  0  0  0  0  0
    2.5720    8.0783    1.2065 C   0  0  0  0  0  0  0  0  0  0  0  0
    2.7041    9.4227    1.5361 C   0  0  0  0  0  0  0  0  0  0  0  0
    3.8751   10.0852    1.1345 C   0  0  0  0  0  0  0  0  0  0  0  0
    4.8791    9.4065    0.4283 C   0  0  0  0  0  0  0  0  0  0  0  0
    4.7390    8.0473    0.1054 C   0  0  0  0  0  0  0  0  0  0  0  0
    3.5757    7.3999    0.5066 C   0  0  0  0  0  0  0  0  0  0  0  0
    3.1660    5.9631    0.3161 C   0  0  0  0  0  0  0  0  0  0  0  0
    3.8624    5.1357   -0.2713 O   0  0  0  0  0  0  0  0  0  0  0  0
    4.1993    0.7981   -0.1122 C   0  0  1  0  0  0  0  0  0  0  0  0
    3.7523    0.9053   -1.5860 C   0  0  0  0  0  0  0  0  0  0  0  0
    5.5005    1.6053    0.1138 C   0  0  0  0  0  0  0  0  0  0  0  0
    4.3530   -0.6449    0.3306 C   0  0  0  0  0  0  0  0  0  0  0  0
    5.1745   -1.6653   -0.1329 C   0  0  0  0  0  0  0  0  0  0  0  0
    5.1054   -2.9278    0.4788 C   0  0  0  0  0  0  0  0  0  0  0  0
    4.2220   -3.1533    1.5394 C   0  0  0  0  0  0  0  0  0  0  0  0
    3.3896   -2.1321    2.0186 C   0  0  0  0  0  0  0  0  0  0  0  0
    3.4786   -0.8845    1.4003 C   0  0  0  0  0  0  0  0  0  0  0  0
    2.0269    1.4490    3.2711 H   0  0  0  0  0  0  0  0  0  0  0  0
    2.2577   -0.2848    3.6345 H   0  0  0  0  0  0  0  0  0  0  0  0
    0.8604    0.2830    2.6365 H   0  0  0  0  0  0  0  0  0  0  0  0
    3.2419    3.2587    0.1393 H   0  0  0  0  0  0  0  0  0  0  0  0
   -2.2089    3.9576    2.0120 H   0  0  0  0  0  0  0  0  0  0  0  0
   -3.9990    4.8617    2.8723 H   0  0  0  0  0  0  0  0  0  0  0  0
   -4.5516    3.6486    1.6797 H   0  0  0  0  0  0  0  0  0  0  0  0
   -5.5450    5.0968    2.0246 H   0  0  0  0  0  0  0  0  0  0  0  0
   -6.6175    5.5917    0.1517 H   0  0  0  0  0  0  0  0  0  0  0  0
   -7.3583    6.7157   -1.9390 H   0  0  0  0  0  0  0  0  0  0  0  0
   -5.7106    7.7837   -3.4603 H   0  0  0  0  0  0  0  0  0  0  0  0
   -3.2777    7.7683   -2.8943 H   0  0  0  0  0  0  0  0  0  0  0  0
   -1.3106    5.1088   -1.7875 H   0  0  0  0  0  0  0  0  0  0  0  0
   -0.1210    6.0875   -0.8835 H   0  0  0  0  0  0  0  0  0  0  0  0
   -1.0289    6.8134   -2.2245 H   0  0  0  0  0  0  0  0  0  0  0  0
   -2.7353    8.3148    0.8013 H   0  0  0  0  0  0  0  0  0  0  0  0
   -1.7654    8.6871   -0.6434 H   0  0  0  0  0  0  0  0  0  0  0  0
   -0.9961    7.9495    0.8061 H   0  0  0  0  0  0  0  0  0  0  0  0
    1.9141    9.9362    2.0895 H   0  0  0  0  0  0  0  0  0  0  0  0
    4.0097   11.1434    1.3744 H   0  0  0  0  0  0  0  0  0  0  0  0
    5.7824    9.9452    0.1291 H   0  0  0  0  0  0  0  0  0  0  0  0
    5.5139    7.5029   -0.4397 H   0  0  0  0  0  0  0  0  0  0  0  0
    3.5938    1.9571   -1.8671 H   0  0  0  0  0  0  0  0  0  0  0  0
    2.8171    0.3526   -1.7614 H   0  0  0  0  0  0  0  0  0  0  0  0
    4.5280    0.4860   -2.2460 H   0  0  0  0  0  0  0  0  0  0  0  0
    5.3520    2.6672   -0.1337 H   0  0  0  0  0  0  0  0  0  0  0  0
    6.3012    1.2073   -0.5294 H   0  0  0  0  0  0  0  0  0  0  0  0
    5.8358    1.5344    1.1595 H   0  0  0  0  0  0  0  0  0  0  0  0
    5.8655   -1.4938   -0.9624 H   0  0  0  0  0  0  0  0  0  0  0  0
    5.7427   -3.7398    0.1212 H   0  0  0  0  0  0  0  0  0  0  0  0
    4.1725   -4.1418    2.0024 H   0  0  0  0  0  0  0  0  0  0  0  0
    2.6942   -2.3213    2.8375 H   0  0  0  0  0  0  0  0  0  0  0  0
  1  2  1  0
  1 43  1  0
  1 44  1  0
  1 45  1  0
  2  3  1  0
  2 42  1  0
  3  4  2  0
  3 34  1  0
  4  5  1  0
  4 46  1  0
  5  6  1  0
  5 22  2  0
  6  7  2  0
  6  8  1  0
  8  9  2  0
  8 22  1  0
  9 10  1  0
  9 47  1  0
 10 11  2  0
 10 19  1  0
 11 12  1  0
 11 13  1  0
 12 48  1  0
 12 49  1  0
 12 50  1  0
 13 14  1  0
 13 18  2  0
 14 15  2  0
 14 51  1  0
 15 16  1  0
 15 52  1  0
 16 17  2  0
 16 53  1  0
 17 18  1  0
 17 54  1  0
 18 19  1  0
 19 20  1  6
 19 21  1  0
 20 55  1  0
 20 56  1  0
 20 57  1  0
 21 58  1  0
 21 59  1  0
 21 60  1  0
 22 23  1  0
 23 24  1  0
 23 32  2  0
 24 25  2  0
 24 26  1  0
 26 27  1  0
 26 31  2  0
 27 28  2  0
 27 61  1  0
 28 29  1  0
 28 62  1  0
 29 30  2  0
 29 63  1  0
 30 31  1  0
 30 64  1  0
 31 32  1  0
 32 33  1  0
 34 35  1  6
 34 36  1  0
 34 37  1  0
 35 65  1  0
 35 66  1  0
 35 67  1  0
 36 68  1  0
 36 69  1  0
 36 70  1  0
 37 38  2  0
 37 42  1  0
 38 39  1  0
 38 71  1  0
 39 40  2  0
 39 72  1  0
 40 41  1  0
 40 73  1  0
 41 42  2  0
 41 74  1  0
M  CHG  2  11   1  33  -1
M  END

