
     RDKit          3D

 55 59  0  0  0  0  0  0  0  0999 V2000
   15.7735    7.5429   -0.2361 C   0  0  0  0  0  0  0  0  0  0  0  0
   15.5983    6.4300    0.6387 O   0  0  0  0  0  0  0  0  0  0  0  0
   16.7101    5.9640    1.2377 C   0  0  0  0  0  0  0  0  0  0  0  0
   17.8058    6.4438    1.0598 O   0  0  0  0  0  0  0  0  0  0  0  0
   16.4356    4.7994    2.1368 C   0  0  0  0  0  0  0  0  0  0  0  0
   17.5310    4.2280    2.8221 C   0  0  0  0  0  0  0  0  0  0  0  0
   17.3321    3.1477    3.6679 C   0  0  0  0  0  0  0  0  0  0  0  0
   16.0417    2.6197    3.8450 C   0  0  0  0  0  0  0  0  0  0  0  0
   15.8256    1.4683    4.7455 C   0  0  0  0  0  0  0  0  0  0  0  0
   16.6877    0.8912    5.3796 O   0  0  0  0  0  0  0  0  0  0  0  0
   14.4829    1.0819    4.8115 N   0  0  0  0  0  0  0  0  0  0  0  0
   14.2396    0.2656    5.3980 H   0  0  0  0  0  0  0  0  0  0  0  0
   13.4785    1.6855    4.1021 C   0  0  0  0  0  0  0  0  0  0  0  0
   12.0857    1.1401    4.2904 C   0  0  0  0  0  0  0  0  0  0  0  0
   11.7520   -0.4703    3.4514 S   0  0  0  0  0  0  0  0  0  0  0  0
   12.3486   -1.5838    4.6771 C   0  0  0  0  0  0  0  0  0  0  0  0
   13.0864   -1.2835    5.7239 N   0  0  0  0  0  0  0  0  0  0  0  0
   13.3249   -2.4345    6.4142 N   0  0  0  0  0  0  0  0  0  0  0  0
   12.7368   -3.4228    5.7786 C   0  0  0  0  0  0  0  0  0  0  0  0
   12.8232   -4.8279    6.2007 C   0  0  0  0  0  0  0  0  0  0  0  0
   11.7991   -5.7730    6.0268 C   0  0  0  0  0  0  0  0  0  0  0  0
   11.9949   -7.0727    6.4952 C   0  0  0  0  0  0  0  0  0  0  0  0
   13.1991   -7.3822    7.1323 C   0  0  0  0  0  0  0  0  0  0  0  0
   14.1774   -6.4905    7.3171 N   0  0  0  0  0  0  0  0  0  0  0  0
   13.9950   -5.2537    6.8644 C   0  0  0  0  0  0  0  0  0  0  0  0
   12.0905   -2.9309    4.6486 N   0  0  0  0  0  0  0  0  0  0  0  0
   11.3976   -3.6507    3.5876 C   0  0  0  0  0  0  0  0  0  0  0  0
    9.8941   -3.8032    3.7641 C   0  0  0  0  0  0  0  0  0  0  0  0
    9.1794   -3.1466    4.7732 C   0  0  0  0  0  0  0  0  0  0  0  0
    7.7932   -3.3087    4.8792 C   0  0  0  0  0  0  0  0  0  0  0  0
    7.1078   -4.1250    3.9776 C   0  0  0  0  0  0  0  0  0  0  0  0
    7.8159   -4.7838    2.9662 C   0  0  0  0  0  0  0  0  0  0  0  0
    9.1984   -4.6244    2.8620 C   0  0  0  0  0  0  0  0  0  0  0  0
   13.6471    2.6920    3.3058 N   0  0  0  0  0  0  0  0  0  0  0  0
   14.9350    3.1836    3.1620 C   0  0  0  0  0  0  0  0  0  0  0  0
   15.1525    4.2826    2.3054 C   0  0  0  0  0  0  0  0  0  0  0  0
   14.7775    7.7843   -0.6275 H   0  0  0  0  0  0  0  0  0  0  0  0
   16.4571    7.2892   -1.0606 H   0  0  0  0  0  0  0  0  0  0  0  0
   16.1905    8.4053    0.3059 H   0  0  0  0  0  0  0  0  0  0  0  0
   18.5225    4.6569    2.6679 H   0  0  0  0  0  0  0  0  0  0  0  0
   18.1579    2.6845    4.2117 H   0  0  0  0  0  0  0  0  0  0  0  0
   11.3877    1.8410    3.8173 H   0  0  0  0  0  0  0  0  0  0  0  0
   11.8343    1.0136    5.3531 H   0  0  0  0  0  0  0  0  0  0  0  0
   10.8497   -5.4984    5.5637 H   0  0  0  0  0  0  0  0  0  0  0  0
   11.2175   -7.8313    6.3804 H   0  0  0  0  0  0  0  0  0  0  0  0
   13.3792   -8.3940    7.5143 H   0  0  0  0  0  0  0  0  0  0  0  0
   14.8047   -4.5340    7.0229 H   0  0  0  0  0  0  0  0  0  0  0  0
   11.8699   -4.6400    3.4931 H   0  0  0  0  0  0  0  0  0  0  0  0
   11.6076   -3.1225    2.6427 H   0  0  0  0  0  0  0  0  0  0  0  0
    9.7016   -2.5044    5.4852 H   0  0  0  0  0  0  0  0  0  0  0  0
    7.2495   -2.7907    5.6731 H   0  0  0  0  0  0  0  0  0  0  0  0
    6.0256   -4.2501    4.0614 H   0  0  0  0  0  0  0  0  0  0  0  0
    7.2889   -5.4265    2.2566 H   0  0  0  0  0  0  0  0  0  0  0  0
    9.7446   -5.1447    2.0690 H   0  0  0  0  0  0  0  0  0  0  0  0
   14.2988    4.7131    1.7832 H   0  0  0  0  0  0  0  0  0  0  0  0
  1  2  1  0
  1 37  1  0
  1 38  1  0
  1 39  1  0
  2  3  1  0
  3  4  2  0
  3  5  1  0
  5  6  2  0
  5 36  1  0
  6  7  1  0
  6 40  1  0
  7  8  2  0
  7 41  1  0
  8  9  1  0
  8 35  1  0
  9 10  2  0
  9 11  1  0
 11 12  1  0
 11 13  1  0
 13 14  1  0
 13 34  2  0
 14 15  1  0
 14 42  1  0
 14 43  1  0
 15 16  1  0
 16 17  2  0
 16 26  1  0
 17 18  1  0
 18 19  2  0
 19 20  1  0
 19 26  1  0
 20 21  2  0
 20 25  1  0
 21 22  1  0
 21 44  1  0
 22 23  2  0
 22 45  1  0
 23 24  1  0
 23 46  1  0
 24 25  2  0
 25 47  1  0
 26 27  1  0
 27 28  1  0
 27 48  1  0
 27 49  1  0
 28 29  2  0
 28 33  1  0
 29 30  1  0
 29 50  1  0
 30 31  2  0
 30 51  1  0
 31 32  1  0
 31 52  1  0
 32 33  2  0
 32 53  1  0
 33 54  1  0
 34 35  1  0
 35 36  2  0
 36 55  1  0
M  END

