
     RDKit          3D

 41 43  0  0  0  0  0  0  0  0999 V2000
    1.3706    0.8651    1.6723 C   0  0  0  0  0  0  0  0  0  0  0  0
    2.7594    0.5241    1.1958 C   0  0  0  0  0  0  0  0  0  0  0  0
    3.2880   -0.7480    1.4788 C   0  0  0  0  0  0  0  0  0  0  0  0
    4.5566   -1.1665    1.0842 C   0  0  0  0  0  0  0  0  0  0  0  0
    5.3857   -0.2850    0.3656 C   0  0  0  0  0  0  0  0  0  0  0  0
    6.6817   -0.6102   -0.0706 N   0  0  0  0  0  0  0  0  0  0  0  0
    7.3697   -1.7970    0.0901 C   0  0  0  0  0  0  0  0  0  0  0  0
    6.9120   -2.7868    0.6287 O   0  0  0  0  0  0  0  0  0  0  0  0
    8.7698   -1.7386   -0.4297 C   0  0  0  0  0  0  0  0  0  0  0  0
    9.6923   -0.6669   -0.3177 C   0  0  0  0  0  0  0  0  0  0  0  0
   10.8851   -0.9958   -0.7859 N   0  0  0  0  0  0  0  0  0  0  0  0
   10.7762   -2.2658   -1.2150 N   0  0  0  0  0  0  0  0  0  0  0  0
   11.9445   -2.8932   -1.7574 C   0  0  0  0  0  0  0  0  0  0  0  0
   12.7286   -2.1747   -2.6665 C   0  0  0  0  0  0  0  0  0  0  0  0
   13.8900   -2.7594   -3.1723 C   0  0  0  0  0  0  0  0  0  0  0  0
   14.2714   -4.0462   -2.7838 C   0  0  0  0  0  0  0  0  0  0  0  0
   13.4772   -4.7427   -1.8683 C   0  0  0  0  0  0  0  0  0  0  0  0
   13.9483   -6.3435   -1.3572 Cl  0  0  0  0  0  0  0  0  0  0  0  0
   12.3158   -4.1746   -1.3392 C   0  0  0  0  0  0  0  0  0  0  0  0
    9.5089   -2.7567   -1.0293 C   0  0  0  0  0  0  0  0  0  0  0  0
    9.0435   -4.1117   -1.5011 C   0  0  1  0  0  0  0  0  0  0  0  0
    7.7289   -4.1129   -1.7178 F   0  0  0  0  0  0  0  0  0  0  0  0
    9.6416   -4.4539   -2.6572 F   0  0  0  0  0  0  0  0  0  0  0  0
    9.3183   -5.0802   -0.6092 F   0  0  0  0  0  0  0  0  0  0  0  0
    4.8990    0.9924    0.0697 C   0  0  0  0  0  0  0  0  0  0  0  0
    3.6193    1.3782    0.4731 C   0  0  0  0  0  0  0  0  0  0  0  0
    3.2214    2.7543    0.0929 N   0  0  0  0  0  0  0  0  0  0  0  0
    2.0681    3.0988    0.2983 O   0  0  0  0  0  0  0  0  0  0  0  0
    4.0712    3.4725   -0.4120 O   0  0  0  0  0  0  0  0  0  0  0  0
    0.9679    0.0323    2.2665 H   0  0  0  0  0  0  0  0  0  0  0  0
    0.6911    1.0623    0.8302 H   0  0  0  0  0  0  0  0  0  0  0  0
    1.3598    1.7780    2.2851 H   0  0  0  0  0  0  0  0  0  0  0  0
    2.6649   -1.4492    2.0396 H   0  0  0  0  0  0  0  0  0  0  0  0
    4.9150   -2.1655    1.3209 H   0  0  0  0  0  0  0  0  0  0  0  0
    7.1476    0.1072   -0.6141 H   0  0  0  0  0  0  0  0  0  0  0  0
    9.5361    0.3174    0.1245 H   0  0  0  0  0  0  0  0  0  0  0  0
   12.4258   -1.1693   -2.9588 H   0  0  0  0  0  0  0  0  0  0  0  0
   14.5072   -2.2067   -3.8842 H   0  0  0  0  0  0  0  0  0  0  0  0
   15.1762   -4.5097   -3.1794 H   0  0  0  0  0  0  0  0  0  0  0  0
   11.7223   -4.7258   -0.6112 H   0  0  0  0  0  0  0  0  0  0  0  0
    5.4998    1.7194   -0.4769 H   0  0  0  0  0  0  0  0  0  0  0  0
  1  2  1  0
  1 30  1  0
  1 31  1  0
  1 32  1  0
  2  3  2  0
  2 26  1  0
  3  4  1  0
  3 33  1  0
  4  5  2  0
  4 34  1  0
  5  6  1  0
  5 25  1  0
  6  7  1  0
  6 35  1  0
  7  8  2  0
  7  9  1  0
  9 10  1  0
  9 20  2  0
 10 11  2  0
 10 36  1  0
 11 12  1  0
 12 13  1  0
 12 20  1  0
 13 14  2  0
 13 19  1  0
 14 15  1  0
 14 37  1  0
 15 16  2  0
 15 38  1  0
 16 17  1  0
 16 39  1  0
 17 18  1  0
 17 19  2  0
 19 40  1  0
 20 21  1  0
 21 22  1  6
 21 23  1  0
 21 24  1  0
 25 26  2  0
 25 41  1  0
 26 27  1  0
 27 28  2  0
 27 29  1  0
M  CHG  2  27   1  29  -1
M  END

