
     RDKit          3D

 16 16  0  0  0  0  0  0  0  0999 V2000
    1.0499    0.0780    0.3112 N   0  0  0  0  0  0  0  0  0  0  0  0
    2.2050    0.0424    0.1924 C   0  0  0  0  0  0  0  0  0  0  0  0
    3.6285    0.0386    0.0452 C   0  0  0  0  0  0  0  0  0  0  0  0
    4.3376    1.2531   -0.0090 C   0  0  0  0  0  0  0  0  0  0  0  0
    5.7171    1.2795   -0.1518 C   0  0  0  0  0  0  0  0  0  0  0  0
    6.4605    0.0803   -0.2471 C   0  0  0  0  0  0  0  0  0  0  0  0
    7.8236    0.1004   -0.3569 N   0  0  0  0  0  0  0  0  0  0  0  0
    5.7573   -1.1419   -0.1943 C   0  0  0  0  0  0  0  0  0  0  0  0
    4.3671   -1.1698   -0.0507 C   0  0  0  0  0  0  0  0  0  0  0  0
    3.7041   -2.4442   -0.0045 C   0  0  0  0  0  0  0  0  0  0  0  0
    3.1978   -3.4878    0.0288 N   0  0  0  0  0  0  0  0  0  0  0  0
    3.7836    2.1909    0.0623 H   0  0  0  0  0  0  0  0  0  0  0  0
    6.2378    2.2396   -0.1894 H   0  0  0  0  0  0  0  0  0  0  0  0
    8.2965    0.9696   -0.5640 H   0  0  0  0  0  0  0  0  0  0  0  0
    8.3218   -0.7481   -0.5893 H   0  0  0  0  0  0  0  0  0  0  0  0
    6.3010   -2.0861   -0.2645 H   0  0  0  0  0  0  0  0  0  0  0  0
  1  2  3  0
  2  3  1  0
  3  4  2  0
  3  9  1  0
  4  5  1  0
  4 12  1  0
  5  6  2  0
  5 13  1  0
  6  7  1  0
  6  8  1  0
  7 14  1  0
  7 15  1  0
  8  9  2  0
  8 16  1  0
  9 10  1  0
 10 11  3  0
M  END

