
     RDKit          3D

 40 43  0  0  0  0  0  0  0  0999 V2000
    3.4611   -4.6393    1.5195 C   0  0  0  0  0  0  0  0  0  0  0  0
    2.5788   -3.8821    0.7168 O   0  0  0  0  0  0  0  0  0  0  0  0
    3.0718   -3.1348   -0.2929 C   0  0  0  0  0  0  0  0  0  0  0  0
    4.4113   -3.1267   -0.7077 C   0  0  0  0  0  0  0  0  0  0  0  0
    4.8055   -2.3305   -1.7889 C   0  0  0  0  0  0  0  0  0  0  0  0
    3.8830   -1.5336   -2.4666 C   0  0  0  0  0  0  0  0  0  0  0  0
    2.5482   -1.5283   -2.0478 C   0  0  0  0  0  0  0  0  0  0  0  0
    2.1422   -2.3194   -0.9761 C   0  0  0  0  0  0  0  0  0  0  0  0
    0.7701   -2.3254   -0.5464 N   0  0  0  0  0  0  0  0  0  0  0  0
   -0.1524   -3.0301   -1.2688 C   0  0  0  0  0  0  0  0  0  0  0  0
   -1.4670   -3.0979   -0.9169 C   0  0  0  0  0  0  0  0  0  0  0  0
   -1.8632   -2.4103    0.2634 C   0  0  0  0  0  0  0  0  0  0  0  0
   -0.9577   -1.6789    1.0585 C   0  0  0  0  0  0  0  0  0  0  0  0
   -1.4493   -1.0106    2.2449 C   0  0  0  0  0  0  0  0  0  0  0  0
   -0.5475   -0.2110    3.1434 C   0  0  0  0  0  0  0  0  0  0  0  0
   -2.7209   -1.0689    2.6010 N   0  0  0  0  0  0  0  0  0  0  0  0
   -3.5758   -1.7672    1.8401 C   0  0  0  0  0  0  0  0  0  0  0  0
   -4.8797   -1.9676    1.9922 N   0  0  0  0  0  0  0  0  0  0  0  0
   -5.2035   -2.7425    0.9281 C   0  0  0  0  0  0  0  0  0  0  0  0
   -6.8264   -3.3302    0.6038 S   0  0  0  0  0  0  0  0  0  0  0  0
   -7.7135   -2.6001    2.0175 C   0  0  0  0  0  0  0  0  0  0  0  0
   -4.2038   -3.0575    0.0995 N   0  0  0  0  0  0  0  0  0  0  0  0
   -3.1596   -2.4308    0.6859 N   0  0  0  0  0  0  0  0  0  0  0  0
    0.4560   -1.6183    0.6546 C   0  0  0  0  0  0  0  0  0  0  0  0
    1.3408   -1.0226    1.2409 O   0  0  0  0  0  0  0  0  0  0  0  0
    2.8444   -5.1183    2.2910 H   0  0  0  0  0  0  0  0  0  0  0  0
    4.2150   -3.9976    2.0076 H   0  0  0  0  0  0  0  0  0  0  0  0
    3.9762   -5.4223    0.9351 H   0  0  0  0  0  0  0  0  0  0  0  0
    5.1509   -3.7422   -0.1957 H   0  0  0  0  0  0  0  0  0  0  0  0
    5.8533   -2.3387   -2.0995 H   0  0  0  0  0  0  0  0  0  0  0  0
    4.1965   -0.9119   -3.3075 H   0  0  0  0  0  0  0  0  0  0  0  0
    1.8088   -0.8975   -2.5465 H   0  0  0  0  0  0  0  0  0  0  0  0
    0.2371   -3.5385   -2.1526 H   0  0  0  0  0  0  0  0  0  0  0  0
   -2.1973   -3.6571   -1.4970 H   0  0  0  0  0  0  0  0  0  0  0  0
    0.2741   -0.8289    3.5348 H   0  0  0  0  0  0  0  0  0  0  0  0
   -1.1498    0.1905    3.9680 H   0  0  0  0  0  0  0  0  0  0  0  0
   -0.0596    0.6066    2.5924 H   0  0  0  0  0  0  0  0  0  0  0  0
   -8.7600   -2.9160    1.9042 H   0  0  0  0  0  0  0  0  0  0  0  0
   -7.6460   -1.5048    1.9973 H   0  0  0  0  0  0  0  0  0  0  0  0
   -7.3080   -2.9721    2.9672 H   0  0  0  0  0  0  0  0  0  0  0  0
  1  2  1  0
  1 26  1  0
  1 27  1  0
  1 28  1  0
  2  3  1  0
  3  4  2  0
  3  8  1  0
  4  5  1  0
  4 29  1  0
  5  6  2  0
  5 30  1  0
  6  7  1  0
  6 31  1  0
  7  8  2  0
  7 32  1  0
  8  9  1  0
  9 10  1  0
  9 24  1  0
 10 11  2  0
 10 33  1  0
 11 12  1  0
 11 34  1  0
 12 13  2  0
 12 23  1  0
 13 14  1  0
 13 24  1  0
 14 15  1  0
 14 16  2  0
 15 35  1  0
 15 36  1  0
 15 37  1  0
 16 17  1  0
 17 18  2  0
 17 23  1  0
 18 19  1  0
 19 20  1  0
 19 22  2  0
 20 21  1  0
 21 38  1  0
 21 39  1  0
 21 40  1  0
 22 23  1  0
 24 25  2  0
M  END

