
     RDKit          3D

 79 82  0  0  0  0  0  0  0  0999 V2000
    4.1111    0.0200   -1.4996 C   0  0  0  0  0  0  0  0  0  0  0  0
    3.6984    1.5011   -1.5022 C   0  0  0  0  0  0  0  0  0  0  0  0
    3.7540    2.1263   -0.1261 C   0  0  0  0  0  0  0  0  0  0  0  0
    4.9414    2.6846    0.3739 C   0  0  0  0  0  0  0  0  0  0  0  0
    5.0068    3.1914    1.6717 C   0  0  0  0  0  0  0  0  0  0  0  0
    3.8902    3.1569    2.5241 C   0  0  0  0  0  0  0  0  0  0  0  0
    4.0778    3.6745    3.9560 C   0  0  1  0  0  0  0  0  0  0  0  0
    2.7762    3.8653    4.7798 C   0  0  0  0  0  0  0  0  0  0  0  0
    1.7602    4.2899    4.2613 O   0  0  0  0  0  0  0  0  0  0  0  0
    2.9150    3.6064    6.1188 N   0  0  0  0  0  0  0  0  0  0  0  0
    1.9739    3.7684    7.1569 C   0  0  0  0  0  0  0  0  0  0  0  0
    2.4169    3.4366    8.4725 C   0  0  0  0  0  0  0  0  0  0  0  0
    1.5717    3.5551    9.5505 C   0  0  0  0  0  0  0  0  0  0  0  0
    0.2338    4.0110    9.3873 C   0  0  0  0  0  0  0  0  0  0  0  0
   -0.6675    4.1461   10.4787 C   0  0  0  0  0  0  0  0  0  0  0  0
   -1.9573    4.5924   10.2774 C   0  0  0  0  0  0  0  0  0  0  0  0
   -2.4004    4.9234    8.9714 C   0  0  0  0  0  0  0  0  0  0  0  0
   -1.5495    4.8027    7.8925 C   0  0  0  0  0  0  0  0  0  0  0  0
   -0.2117    4.3450    8.0650 C   0  0  0  0  0  0  0  0  0  0  0  0
    0.6768    4.2159    6.9619 C   0  0  0  0  0  0  0  0  0  0  0  0
    5.1598    2.9950    4.6992 N   0  0  0  0  0  0  0  0  0  0  0  0
    5.2574    1.6169    4.8469 C   0  0  0  0  0  0  0  0  0  0  0  0
    6.2899    1.1066    5.2462 O   0  0  0  0  0  0  0  0  0  0  0  0
    4.0370    0.7135    4.5603 C   0  0  1  0  0  0  0  0  0  0  0  0
    4.4179   -0.2447    3.4059 C   0  0  0  0  0  0  0  0  0  0  0  0
    3.3879   -1.1213    3.0593 O   0  0  0  0  0  0  0  0  0  0  0  0
    3.6534    0.0549    5.8071 N   0  0  0  0  0  0  0  0  0  0  0  0
    3.8084   -1.2458    6.1835 C   0  0  0  0  0  0  0  0  0  0  0  0
    4.1069   -2.1785    5.4522 O   0  0  0  0  0  0  0  0  0  0  0  0
    3.5447   -1.3556    7.5007 O   0  0  0  0  0  0  0  0  0  0  0  0
    3.5337   -2.6480    8.1953 C   0  0  1  0  0  0  0  0  0  0  0  0
    4.9291   -3.2784    8.1478 C   0  0  0  0  0  0  0  0  0  0  0  0
    3.1641   -2.2558    9.6274 C   0  0  0  0  0  0  0  0  0  0  0  0
    2.4632   -3.5628    7.5917 C   0  0  0  0  0  0  0  0  0  0  0  0
    6.4049    3.7332    4.9798 C   0  0  1  0  0  0  0  0  0  0  0  0
    6.3563    5.2730    5.1336 C   0  0  0  0  0  0  0  0  0  0  0  0
    7.4440    5.1415    6.2310 C   0  0  0  0  0  0  0  0  0  0  0  0
    7.0442    3.6538    6.3878 C   0  0  0  0  0  0  0  0  0  0  0  0
    2.6944    2.6307    2.0178 C   0  0  0  0  0  0  0  0  0  0  0  0
    2.6353    2.1217    0.7181 C   0  0  0  0  0  0  0  0  0  0  0  0
    4.0303   -0.4151   -2.5088 H   0  0  0  0  0  0  0  0  0  0  0  0
    3.4751   -0.5680   -0.8190 H   0  0  0  0  0  0  0  0  0  0  0  0
    5.1525   -0.1009   -1.1607 H   0  0  0  0  0  0  0  0  0  0  0  0
    2.6752    1.5939   -1.9029 H   0  0  0  0  0  0  0  0  0  0  0  0
    4.3544    2.0628   -2.1890 H   0  0  0  0  0  0  0  0  0  0  0  0
    5.8309    2.7221   -0.2619 H   0  0  0  0  0  0  0  0  0  0  0  0
    5.9507    3.6129    2.0283 H   0  0  0  0  0  0  0  0  0  0  0  0
    4.4215    4.7137    3.8430 H   0  0  0  0  0  0  0  0  0  0  0  0
    3.8437    3.3047    6.3951 H   0  0  0  0  0  0  0  0  0  0  0  0
    3.4430    3.0860    8.6206 H   0  0  0  0  0  0  0  0  0  0  0  0
    1.9270    3.2971   10.5517 H   0  0  0  0  0  0  0  0  0  0  0  0
   -0.3205    3.8896   11.4837 H   0  0  0  0  0  0  0  0  0  0  0  0
   -2.6420    4.6926   11.1233 H   0  0  0  0  0  0  0  0  0  0  0  0
   -3.4242    5.2760    8.8222 H   0  0  0  0  0  0  0  0  0  0  0  0
   -1.8911    5.0576    6.8859 H   0  0  0  0  0  0  0  0  0  0  0  0
    0.3387    4.4700    5.9597 H   0  0  0  0  0  0  0  0  0  0  0  0
    3.1652    1.2873    4.2225 H   0  0  0  0  0  0  0  0  0  0  0  0
    5.3478   -0.7679    3.6844 H   0  0  0  0  0  0  0  0  0  0  0  0
    4.6378    0.3906    2.5339 H   0  0  0  0  0  0  0  0  0  0  0  0
    3.4288   -1.8222    3.7356 H   0  0  0  0  0  0  0  0  0  0  0  0
    3.3197    0.6603    6.5485 H   0  0  0  0  0  0  0  0  0  0  0  0
    5.6790   -2.5790    8.5492 H   0  0  0  0  0  0  0  0  0  0  0  0
    5.2088   -3.5431    7.1205 H   0  0  0  0  0  0  0  0  0  0  0  0
    4.9452   -4.1895    8.7664 H   0  0  0  0  0  0  0  0  0  0  0  0
    3.9102   -1.5617   10.0430 H   0  0  0  0  0  0  0  0  0  0  0  0
    3.1237   -3.1494   10.2685 H   0  0  0  0  0  0  0  0  0  0  0  0
    2.1807   -1.7623    9.6530 H   0  0  0  0  0  0  0  0  0  0  0  0
    2.7160   -3.8451    6.5621 H   0  0  0  0  0  0  0  0  0  0  0  0
    1.4833   -3.0599    7.5927 H   0  0  0  0  0  0  0  0  0  0  0  0
    2.3762   -4.4791    8.1963 H   0  0  0  0  0  0  0  0  0  0  0  0
    7.1666    3.4478    4.2329 H   0  0  0  0  0  0  0  0  0  0  0  0
    5.4050    5.6078    5.5765 H   0  0  0  0  0  0  0  0  0  0  0  0
    6.5701    5.8898    4.2471 H   0  0  0  0  0  0  0  0  0  0  0  0
    7.3481    5.7955    7.1098 H   0  0  0  0  0  0  0  0  0  0  0  0
    8.4592    5.2538    5.8209 H   0  0  0  0  0  0  0  0  0  0  0  0
    6.2763    3.5220    7.1680 H   0  0  0  0  0  0  0  0  0  0  0  0
    7.8259    2.8988    6.5360 H   0  0  0  0  0  0  0  0  0  0  0  0
    1.7949    2.6239    2.6317 H   0  0  0  0  0  0  0  0  0  0  0  0
    1.6910    1.7045    0.3570 H   0  0  0  0  0  0  0  0  0  0  0  0
  1  2  1  0
  1 41  1  0
  1 42  1  0
  1 43  1  0
  2  3  1  0
  2 44  1  0
  2 45  1  0
  3  4  2  0
  3 40  1  0
  4  5  1  0
  4 46  1  0
  5  6  2  0
  5 47  1  0
  6  7  1  0
  6 39  1  0
  7  8  1  0
  7 21  1  0
  7 48  1  6
  8  9  2  0
  8 10  1  0
 10 11  1  0
 10 49  1  0
 11 12  2  0
 11 20  1  0
 12 13  1  0
 12 50  1  0
 13 14  2  0
 13 51  1  0
 14 15  1  0
 14 19  1  0
 15 16  2  0
 15 52  1  0
 16 17  1  0
 16 53  1  0
 17 18  2  0
 17 54  1  0
 18 19  1  0
 18 55  1  0
 19 20  2  0
 20 56  1  0
 21 22  1  0
 21 35  1  0
 22 23  2  0
 22 24  1  0
 24 25  1  0
 24 27  1  0
 24 57  1  6
 25 26  1  0
 25 58  1  0
 25 59  1  0
 26 60  1  0
 27 28  1  0
 27 61  1  0
 28 29  2  0
 28 30  1  0
 31 30  1  6
 31 32  1  0
 31 33  1  0
 31 34  1  0
 32 62  1  0
 32 63  1  0
 32 64  1  0
 33 65  1  0
 33 66  1  0
 33 67  1  0
 34 68  1  0
 34 69  1  0
 34 70  1  0
 35 36  1  0
 35 38  1  0
 35 71  1  6
 36 37  1  0
 36 72  1  0
 36 73  1  0
 37 38  1  0
 37 74  1  0
 37 75  1  0
 38 76  1  0
 38 77  1  0
 39 40  2  0
 39 78  1  0
 40 79  1  0
M  END

