
     RDKit          3D

 35 34  0  0  0  0  0  0  0  0999 V2000
    0.6905   -3.7050   -3.2488 C   0  0  0  0  0  0  0  0  0  0  0  0
    2.2195   -3.6833   -3.2763 C   0  0  0  0  0  0  0  0  0  0  0  0
    2.8175   -2.2912   -3.0499 C   0  0  0  0  0  0  0  0  0  0  0  0
    4.3488   -2.2603   -3.0727 C   0  0  0  0  0  0  0  0  0  0  0  0
    4.9383   -0.8631   -2.8451 C   0  0  0  0  0  0  0  0  0  0  0  0
    6.4712   -0.8004   -2.7830 C   0  0  0  0  0  0  0  0  0  0  0  0
    7.1652   -1.1016   -4.1147 C   0  0  0  0  0  0  0  0  0  0  0  0
    8.7175   -1.0493   -4.0863 C   0  0  1  0  0  0  0  0  0  0  0  0
    9.2658   -1.2903   -5.5162 C   0  0  0  0  0  0  0  0  0  0  0  0
    9.1454    0.3088   -3.6580 C   0  0  0  0  0  0  0  0  0  0  0  0
    9.4849    1.3742   -3.3545 N   0  0  0  0  0  0  0  0  0  0  0  0
    9.1942   -2.0130   -3.0905 N   0  0  0  0  0  0  0  0  0  0  0  0
   10.6265   -2.1361   -2.8790 C   0  0  0  0  0  0  0  0  0  0  0  0
    0.2960   -4.7203   -3.4151 H   0  0  0  0  0  0  0  0  0  0  0  0
    0.2660   -3.0514   -4.0294 H   0  0  0  0  0  0  0  0  0  0  0  0
    0.3019   -3.3522   -2.2787 H   0  0  0  0  0  0  0  0  0  0  0  0
    2.5765   -4.0783   -4.2452 H   0  0  0  0  0  0  0  0  0  0  0  0
    2.6121   -4.3755   -2.5090 H   0  0  0  0  0  0  0  0  0  0  0  0
    2.4594   -1.8939   -2.0817 H   0  0  0  0  0  0  0  0  0  0  0  0
    2.4273   -1.5979   -3.8186 H   0  0  0  0  0  0  0  0  0  0  0  0
    4.6974   -2.6681   -4.0391 H   0  0  0  0  0  0  0  0  0  0  0  0
    4.7388   -2.9473   -2.2982 H   0  0  0  0  0  0  0  0  0  0  0  0
    4.5373   -0.4637   -1.8968 H   0  0  0  0  0  0  0  0  0  0  0  0
    4.5723   -0.1789   -3.6335 H   0  0  0  0  0  0  0  0  0  0  0  0
    6.8462   -1.4961   -2.0148 H   0  0  0  0  0  0  0  0  0  0  0  0
    6.7729    0.2070   -2.4503 H   0  0  0  0  0  0  0  0  0  0  0  0
    6.8119   -0.3987   -4.8878 H   0  0  0  0  0  0  0  0  0  0  0  0
    6.8959   -2.1107   -4.4741 H   0  0  0  0  0  0  0  0  0  0  0  0
    8.8717   -0.5457   -6.2241 H   0  0  0  0  0  0  0  0  0  0  0  0
    8.9593   -2.2916   -5.8593 H   0  0  0  0  0  0  0  0  0  0  0  0
   10.3634   -1.2334   -5.5435 H   0  0  0  0  0  0  0  0  0  0  0  0
    8.7695   -2.9188   -3.2818 H   0  0  0  0  0  0  0  0  0  0  0  0
   11.0420   -1.1639   -2.5699 H   0  0  0  0  0  0  0  0  0  0  0  0
   11.2098   -2.4871   -3.7557 H   0  0  0  0  0  0  0  0  0  0  0  0
   10.8064   -2.8425   -2.0538 H   0  0  0  0  0  0  0  0  0  0  0  0
  1  2  1  0
  1 14  1  0
  1 15  1  0
  1 16  1  0
  2  3  1  0
  2 17  1  0
  2 18  1  0
  3  4  1  0
  3 19  1  0
  3 20  1  0
  4  5  1  0
  4 21  1  0
  4 22  1  0
  5  6  1  0
  5 23  1  0
  5 24  1  0
  6  7  1  0
  6 25  1  0
  6 26  1  0
  7  8  1  0
  7 27  1  0
  7 28  1  0
  8  9  1  0
  8 10  1  1
  8 12  1  0
  9 29  1  0
  9 30  1  0
  9 31  1  0
 10 11  3  0
 12 13  1  0
 12 32  1  0
 13 33  1  0
 13 34  1  0
 13 35  1  0
M  END

