
     RDKit          3D

 43 44  0  0  0  0  0  0  0  0999 V2000
    2.8368   -1.1819   -1.0268 C   0  0  0  0  0  0  0  0  0  0  0  0
    3.6534   -0.0950   -1.7210 C   0  0  0  0  0  0  0  0  0  0  0  0
    3.3820    1.2383   -1.1998 N   0  0  0  0  0  0  0  0  0  0  0  0
    2.6506    2.2288   -1.7824 C   0  0  0  0  0  0  0  0  0  0  0  0
    2.6485    3.2805   -0.8786 C   0  0  0  0  0  0  0  0  0  0  0  0
    2.1145    4.5206   -1.0905 O   0  0  0  0  0  0  0  0  0  0  0  0
    1.0178    4.9385   -0.3900 C   0  0  0  0  0  0  0  0  0  0  0  0
    0.2438    4.1080    0.4272 C   0  0  0  0  0  0  0  0  0  0  0  0
   -0.8771    4.6152    1.0900 C   0  0  0  0  0  0  0  0  0  0  0  0
   -1.2531    5.9576    0.9621 C   0  0  0  0  0  0  0  0  0  0  0  0
   -2.4400    6.5159    1.7269 C   0  0  0  0  0  0  0  0  0  0  0  0
   -3.1433    7.5354    0.9663 N   0  0  0  0  0  0  0  0  0  0  0  0
   -4.2403    8.2860    1.6077 C   0  0  1  0  0  0  0  0  0  0  0  0
   -3.6743    9.1564    2.7437 C   0  0  0  0  0  0  0  0  0  0  0  0
   -4.8251    9.2008    0.5192 C   0  0  0  0  0  0  0  0  0  0  0  0
   -5.3551    7.3681    2.1580 C   0  0  0  0  0  0  0  0  0  0  0  0
   -0.4800    6.7856    0.1346 C   0  0  0  0  0  0  0  0  0  0  0  0
    0.6371    6.2872   -0.5326 C   0  0  0  0  0  0  0  0  0  0  0  0
    1.5780    7.3397   -1.5604 Cl  0  0  0  0  0  0  0  0  0  0  0  0
    3.4061    2.8213    0.2263 C   0  0  0  0  0  0  0  0  0  0  0  0
    3.8353    1.5797    0.0137 N   0  0  0  0  0  0  0  0  0  0  0  0
    3.1013   -2.1724   -1.4293 H   0  0  0  0  0  0  0  0  0  0  0  0
    1.7568   -1.0255   -1.1763 H   0  0  0  0  0  0  0  0  0  0  0  0
    3.0416   -1.1790    0.0539 H   0  0  0  0  0  0  0  0  0  0  0  0
    3.4450   -0.0701   -2.8014 H   0  0  0  0  0  0  0  0  0  0  0  0
    4.7310   -0.2829   -1.5953 H   0  0  0  0  0  0  0  0  0  0  0  0
    2.2108    2.1368   -2.7725 H   0  0  0  0  0  0  0  0  0  0  0  0
    0.5202    3.0583    0.5358 H   0  0  0  0  0  0  0  0  0  0  0  0
   -1.4700    3.9438    1.7178 H   0  0  0  0  0  0  0  0  0  0  0  0
   -2.0703    6.9758    2.6606 H   0  0  0  0  0  0  0  0  0  0  0  0
   -3.0762    5.6627    2.0471 H   0  0  0  0  0  0  0  0  0  0  0  0
   -3.4741    7.1344    0.0888 H   0  0  0  0  0  0  0  0  0  0  0  0
   -2.8566    9.7911    2.3692 H   0  0  0  0  0  0  0  0  0  0  0  0
   -3.2837    8.5495    3.5754 H   0  0  0  0  0  0  0  0  0  0  0  0
   -4.4607    9.8069    3.1576 H   0  0  0  0  0  0  0  0  0  0  0  0
   -4.0444    9.8604    0.1110 H   0  0  0  0  0  0  0  0  0  0  0  0
   -5.6392    9.8243    0.9202 H   0  0  0  0  0  0  0  0  0  0  0  0
   -5.2393    8.6074   -0.3139 H   0  0  0  0  0  0  0  0  0  0  0  0
   -4.9840    6.7123    2.9614 H   0  0  0  0  0  0  0  0  0  0  0  0
   -5.7646    6.7270    1.3592 H   0  0  0  0  0  0  0  0  0  0  0  0
   -6.1873    7.9585    2.5741 H   0  0  0  0  0  0  0  0  0  0  0  0
   -0.7649    7.8302    0.0050 H   0  0  0  0  0  0  0  0  0  0  0  0
    3.6520    3.3496    1.1468 H   0  0  0  0  0  0  0  0  0  0  0  0
  1  2  1  0
  1 22  1  0
  1 23  1  0
  1 24  1  0
  2  3  1  0
  2 25  1  0
  2 26  1  0
  3  4  1  0
  3 21  1  0
  4  5  2  0
  4 27  1  0
  5  6  1  0
  5 20  1  0
  6  7  1  0
  7  8  2  0
  7 18  1  0
  8  9  1  0
  8 28  1  0
  9 10  2  0
  9 29  1  0
 10 11  1  0
 10 17  1  0
 11 12  1  0
 11 30  1  0
 11 31  1  0
 13 12  1  6
 12 32  1  0
 13 14  1  0
 13 15  1  0
 13 16  1  0
 14 33  1  0
 14 34  1  0
 14 35  1  0
 15 36  1  0
 15 37  1  0
 15 38  1  0
 16 39  1  0
 16 40  1  0
 16 41  1  0
 17 18  2  0
 17 42  1  0
 18 19  1  0
 20 21  2  0
 20 43  1  0
M  END

