
     RDKit          3D

 69 72  0  0  0  0  0  0  0  0999 V2000
    2.8536    1.2417   -2.8452 C   0  0  0  0  0  0  0  0  0  0  0  0
    3.3760    0.6917   -1.5933 N   0  0  0  0  0  0  0  0  0  0  0  0
    3.7145   -0.6469   -1.5990 C   0  0  0  0  0  0  0  0  0  0  0  0
    3.5397   -1.3645   -2.5668 O   0  0  0  0  0  0  0  0  0  0  0  0
    4.2858   -1.1925   -0.2773 C   0  0  2  0  0  0  0  0  0  0  0  0
    5.1205   -0.5558    0.0692 H   0  0  0  0  0  0  0  0  0  0  0  0
    4.8119   -2.5022   -0.5172 N   0  0  0  0  0  0  0  0  0  0  0  0
    6.0162   -2.8948    0.0272 C   0  0  0  0  0  0  0  0  0  0  0  0
    6.6665   -2.1834    0.7756 O   0  0  0  0  0  0  0  0  0  0  0  0
    6.3899   -4.1737   -0.3604 N   0  0  0  0  0  0  0  0  0  0  0  0
    7.5571   -4.8825   -0.0327 C   0  0  0  0  0  0  0  0  0  0  0  0
    8.5901   -4.3578    0.7645 C   0  0  0  0  0  0  0  0  0  0  0  0
    9.7105   -5.1480    1.0309 C   0  0  0  0  0  0  0  0  0  0  0  0
    9.8323   -6.4433    0.5245 C   0  0  0  0  0  0  0  0  0  0  0  0
    8.8079   -6.9755   -0.2721 C   0  0  0  0  0  0  0  0  0  0  0  0
    8.9178   -8.3631   -0.8792 C   0  0  0  0  0  0  0  0  0  0  0  0
    9.5136   -9.3389    0.0073 N   0  0  0  0  0  0  0  0  0  0  0  0
   10.5360  -10.1614   -0.3749 C   0  0  0  0  0  0  0  0  0  0  0  0
   11.0596  -10.1490   -1.4715 O   0  0  0  0  0  0  0  0  0  0  0  0
   10.8645  -10.9759    0.6538 O   0  0  0  0  0  0  0  0  0  0  0  0
   11.9351  -11.9673    0.5421 C   0  0  1  0  0  0  0  0  0  0  0  0
   13.2737  -11.2690    0.2780 C   0  0  0  0  0  0  0  0  0  0  0  0
   11.9329  -12.6278    1.9225 C   0  0  0  0  0  0  0  0  0  0  0  0
   11.5947  -12.9894   -0.5480 C   0  0  0  0  0  0  0  0  0  0  0  0
    7.6810   -6.1917   -0.5361 C   0  0  0  0  0  0  0  0  0  0  0  0
    3.2014   -1.2013    0.6874 N   0  0  0  0  0  0  0  0  0  0  0  0
    2.8068   -0.0892    1.1938 C   0  0  0  0  0  0  0  0  0  0  0  0
    1.7090   -0.1404    2.2084 C   0  0  0  0  0  0  0  0  0  0  0  0
    1.5122   -1.3222    2.9471 C   0  0  0  0  0  0  0  0  0  0  0  0
    0.4750   -1.4159    3.8734 C   0  0  0  0  0  0  0  0  0  0  0  0
   -0.3925   -0.3350    4.0722 C   0  0  0  0  0  0  0  0  0  0  0  0
   -0.2142    0.8395    3.3368 C   0  0  0  0  0  0  0  0  0  0  0  0
    0.8310    0.9384    2.4140 C   0  0  0  0  0  0  0  0  0  0  0  0
    3.4014    1.2300    0.8281 C   0  0  0  0  0  0  0  0  0  0  0  0
    3.7154    2.1619    1.8366 C   0  0  0  0  0  0  0  0  0  0  0  0
    4.2730    3.4017    1.5385 C   0  0  0  0  0  0  0  0  0  0  0  0
    4.5129    3.7426    0.2032 C   0  0  0  0  0  0  0  0  0  0  0  0
    4.2183    2.8378   -0.8130 C   0  0  0  0  0  0  0  0  0  0  0  0
    3.6779    1.5712   -0.5207 C   0  0  0  0  0  0  0  0  0  0  0  0
    2.3059    0.4478   -3.3668 H   0  0  0  0  0  0  0  0  0  0  0  0
    3.6589    1.5894   -3.5144 H   0  0  0  0  0  0  0  0  0  0  0  0
    2.1805    2.0805   -2.6243 H   0  0  0  0  0  0  0  0  0  0  0  0
    4.3934   -2.9946   -1.3010 H   0  0  0  0  0  0  0  0  0  0  0  0
    5.7264   -4.6857   -0.9294 H   0  0  0  0  0  0  0  0  0  0  0  0
    8.4958   -3.3517    1.1655 H   0  0  0  0  0  0  0  0  0  0  0  0
   10.5095   -4.7343    1.6524 H   0  0  0  0  0  0  0  0  0  0  0  0
   10.7164   -7.0447    0.7464 H   0  0  0  0  0  0  0  0  0  0  0  0
    9.5560   -8.3412   -1.7772 H   0  0  0  0  0  0  0  0  0  0  0  0
    7.9169   -8.6935   -1.2139 H   0  0  0  0  0  0  0  0  0  0  0  0
    9.1488   -9.4522    0.9457 H   0  0  0  0  0  0  0  0  0  0  0  0
   13.4719  -10.5152    1.0563 H   0  0  0  0  0  0  0  0  0  0  0  0
   13.2726  -10.7746   -0.7016 H   0  0  0  0  0  0  0  0  0  0  0  0
   14.0905  -12.0073    0.3026 H   0  0  0  0  0  0  0  0  0  0  0  0
   12.1336  -11.8835    2.7081 H   0  0  0  0  0  0  0  0  0  0  0  0
   12.7073  -13.4081    1.9743 H   0  0  0  0  0  0  0  0  0  0  0  0
   10.9559  -13.0910    2.1284 H   0  0  0  0  0  0  0  0  0  0  0  0
   11.5738  -12.5164   -1.5379 H   0  0  0  0  0  0  0  0  0  0  0  0
   10.6115  -13.4453   -0.3512 H   0  0  0  0  0  0  0  0  0  0  0  0
   12.3481  -13.7928   -0.5539 H   0  0  0  0  0  0  0  0  0  0  0  0
    6.8741   -6.6069   -1.1499 H   0  0  0  0  0  0  0  0  0  0  0  0
    2.1897   -2.1599    2.7735 H   0  0  0  0  0  0  0  0  0  0  0  0
    0.3410   -2.3371    4.4464 H   0  0  0  0  0  0  0  0  0  0  0  0
   -1.2062   -0.4098    4.7983 H   0  0  0  0  0  0  0  0  0  0  0  0
   -0.8936    1.6839    3.4782 H   0  0  0  0  0  0  0  0  0  0  0  0
    0.9526    1.8575    1.8373 H   0  0  0  0  0  0  0  0  0  0  0  0
    3.5156    1.8927    2.8756 H   0  0  0  0  0  0  0  0  0  0  0  0
    4.5178    4.1003    2.3416 H   0  0  0  0  0  0  0  0  0  0  0  0
    4.9448    4.7141   -0.0493 H   0  0  0  0  0  0  0  0  0  0  0  0
    4.4275    3.1059   -1.8492 H   0  0  0  0  0  0  0  0  0  0  0  0
  1  2  1  0
  1 40  1  0
  1 41  1  0
  1 42  1  0
  2  3  1  0
  2 39  1  0
  3  4  2  0
  3  5  1  0
  5  6  1  1
  5  7  1  0
  5 26  1  0
  7  8  1  0
  7 43  1  0
  8  9  2  0
  8 10  1  0
 10 11  1  0
 10 44  1  0
 11 12  2  0
 11 25  1  0
 12 13  1  0
 12 45  1  0
 13 14  2  0
 13 46  1  0
 14 15  1  0
 14 47  1  0
 15 16  1  0
 15 25  2  0
 16 17  1  0
 16 48  1  0
 16 49  1  0
 17 18  1  0
 17 50  1  0
 18 19  2  0
 18 20  1  0
 21 20  1  1
 21 22  1  0
 21 23  1  0
 21 24  1  0
 22 51  1  0
 22 52  1  0
 22 53  1  0
 23 54  1  0
 23 55  1  0
 23 56  1  0
 24 57  1  0
 24 58  1  0
 24 59  1  0
 25 60  1  0
 26 27  2  0
 27 28  1  0
 27 34  1  0
 28 29  2  0
 28 33  1  0
 29 30  1  0
 29 61  1  0
 30 31  2  0
 30 62  1  0
 31 32  1  0
 31 63  1  0
 32 33  2  0
 32 64  1  0
 33 65  1  0
 34 35  2  0
 34 39  1  0
 35 36  1  0
 35 66  1  0
 36 37  2  0
 36 67  1  0
 37 38  1  0
 37 68  1  0
 38 39  2  0
 38 69  1  0
M  END

