
     RDKit          3D

 46 49  0  0  0  0  0  0  0  0999 V2000
    6.5140    4.8098    4.1928 C   0  0  0  0  0  0  0  0  0  0  0  0
    6.8748    3.6559    3.2891 C   0  0  0  0  0  0  0  0  0  0  0  0
    8.1254    3.0271    3.3577 C   0  0  0  0  0  0  0  0  0  0  0  0
    8.4755    1.9642    2.5205 C   0  0  0  0  0  0  0  0  0  0  0  0
    7.5526    1.4974    1.5709 C   0  0  0  0  0  0  0  0  0  0  0  0
    7.8165    0.4311    0.6856 N   0  0  0  0  0  0  0  0  0  0  0  0
    8.9566   -0.3214    0.5476 C   0  0  0  0  0  0  0  0  0  0  0  0
    9.9556   -0.1905    1.2328 O   0  0  0  0  0  0  0  0  0  0  0  0
    8.8888   -1.3389   -0.5926 C   0  0  0  0  0  0  0  0  0  0  0  0
    9.8523   -2.5034   -0.4012 C   0  0  1  0  0  0  0  0  0  0  0  0
   10.8210   -2.0916   -0.0755 H   0  0  0  0  0  0  0  0  0  0  0  0
    9.3326   -3.7481    0.8351 S   0  0  0  0  0  0  0  0  0  0  0  0
    9.5402   -5.0063   -0.4001 C   0  0  0  0  0  0  0  0  0  0  0  0
    9.2672   -6.2788    0.0729 N   0  0  0  0  0  0  0  0  0  0  0  0
    9.4573   -7.1952   -0.8018 N   0  0  0  0  0  0  0  0  0  0  0  0
    9.2185   -8.4648   -0.4574 C   0  0  0  0  0  0  0  0  0  0  0  0
    9.4482   -9.4341   -1.4650 C   0  0  0  0  0  0  0  0  0  0  0  0
    9.8666   -9.2089   -2.6884 O   0  0  0  0  0  0  0  0  0  0  0  0
    9.1735  -10.6654   -0.9973 N   0  0  0  0  0  0  0  0  0  0  0  0
    9.2624  -11.5207   -1.5335 H   0  0  0  0  0  0  0  0  0  0  0  0
    8.7493  -10.5642    0.3456 C   0  0  0  0  0  0  0  0  0  0  0  0
    8.3653  -11.5712    1.2247 C   0  0  0  0  0  0  0  0  0  0  0  0
    7.9870  -11.1842    2.5166 C   0  0  0  0  0  0  0  0  0  0  0  0
    7.9969   -9.8344    2.9034 C   0  0  0  0  0  0  0  0  0  0  0  0
    8.3844   -8.8275    2.0135 C   0  0  0  0  0  0  0  0  0  0  0  0
    8.7655   -9.1945    0.7177 C   0  0  0  0  0  0  0  0  0  0  0  0
    9.9113   -4.6651   -1.5942 N   0  0  0  0  0  0  0  0  0  0  0  0
   10.0714   -3.2918   -1.7255 C   0  0  0  0  0  0  0  0  0  0  0  0
   10.3432   -2.7151   -2.7533 O   0  0  0  0  0  0  0  0  0  0  0  0
    6.2920    2.1169    1.4902 C   0  0  0  0  0  0  0  0  0  0  0  0
    5.9637    3.1742    2.3342 C   0  0  0  0  0  0  0  0  0  0  0  0
    7.2957    4.9921    4.9451 H   0  0  0  0  0  0  0  0  0  0  0  0
    5.5683    4.6237    4.7285 H   0  0  0  0  0  0  0  0  0  0  0  0
    6.3795    5.7436    3.6200 H   0  0  0  0  0  0  0  0  0  0  0  0
    8.8588    3.3749    4.0912 H   0  0  0  0  0  0  0  0  0  0  0  0
    9.4519    1.4913    2.5936 H   0  0  0  0  0  0  0  0  0  0  0  0
    7.0573    0.2048    0.0537 H   0  0  0  0  0  0  0  0  0  0  0  0
    9.1997   -0.8266   -1.5218 H   0  0  0  0  0  0  0  0  0  0  0  0
    7.8600   -1.7019   -0.7510 H   0  0  0  0  0  0  0  0  0  0  0  0
    9.9844   -8.2342   -2.7510 H   0  0  0  0  0  0  0  0  0  0  0  0
    8.3577  -12.6217    0.9248 H   0  0  0  0  0  0  0  0  0  0  0  0
    7.6797  -11.9493    3.2334 H   0  0  0  0  0  0  0  0  0  0  0  0
    7.6965   -9.5671    3.9193 H   0  0  0  0  0  0  0  0  0  0  0  0
    8.3967   -7.7764    2.3030 H   0  0  0  0  0  0  0  0  0  0  0  0
    5.5606    1.7637    0.7563 H   0  0  0  0  0  0  0  0  0  0  0  0
    4.9751    3.6350    2.2479 H   0  0  0  0  0  0  0  0  0  0  0  0
  1  2  1  0
  1 32  1  0
  1 33  1  0
  1 34  1  0
  2  3  2  0
  2 31  1  0
  3  4  1  0
  3 35  1  0
  4  5  2  0
  4 36  1  0
  5  6  1  0
  5 30  1  0
  6  7  1  0
  6 37  1  0
  7  8  2  0
  7  9  1  0
  9 10  1  0
  9 38  1  0
  9 39  1  0
 10 11  1  1
 10 12  1  0
 10 28  1  0
 12 13  2  0
 13 14  1  0
 13 27  1  0
 14 15  2  0
 15 16  1  0
 16 17  2  0
 16 26  1  0
 17 18  1  0
 17 19  1  0
 18 40  1  0
 19 20  1  0
 19 21  1  0
 21 22  1  0
 21 26  2  0
 22 23  2  0
 22 41  1  0
 23 24  1  0
 23 42  1  0
 24 25  2  0
 24 43  1  0
 25 26  1  0
 25 44  1  0
 27 28  2  0
 28 29  1  0
 30 31  2  0
 30 45  1  0
 31 46  1  0
M  CHG  2  12   1  29  -1
M  END

