
     RDKit          3D

 50 52  0  0  0  0  0  0  0  0999 V2000
    2.3293    1.1531    1.0608 C   0  0  0  0  0  0  0  0  0  0  0  0
    1.8671   -0.1772    1.0142 O   0  0  0  0  0  0  0  0  0  0  0  0
    2.6518   -1.1706    1.5033 C   0  0  0  0  0  0  0  0  0  0  0  0
    2.1306   -2.4738    1.4239 C   0  0  0  0  0  0  0  0  0  0  0  0
    2.8488   -3.5669    1.8942 C   0  0  0  0  0  0  0  0  0  0  0  0
    4.1236   -3.3761    2.4628 C   0  0  0  0  0  0  0  0  0  0  0  0
    4.9061   -4.4367    2.9582 N   0  0  0  0  0  0  0  0  0  0  0  0
    4.6369   -5.7596    2.9982 C   0  0  0  0  0  0  0  0  0  0  0  0
    3.6307   -6.3389    2.6049 O   0  0  0  0  0  0  0  0  0  0  0  0
    5.8104   -6.5340    3.6396 C   0  0  0  0  0  0  0  0  0  0  0  0
    6.8168   -5.9842    4.0414 O   0  0  0  0  0  0  0  0  0  0  0  0
    5.5330   -7.8706    3.6730 N   0  0  0  0  0  0  0  0  0  0  0  0
    6.3930   -8.7686    4.1835 N   0  0  0  0  0  0  0  0  0  0  0  0
    6.0409  -10.0027    4.1709 C   0  0  0  0  0  0  0  0  0  0  0  0
    6.9223  -11.0472    4.7017 C   0  0  0  0  0  0  0  0  0  0  0  0
    8.1923  -10.7235    5.2198 C   0  0  0  0  0  0  0  0  0  0  0  0
    9.0209  -11.7241    5.7129 C   0  0  0  0  0  0  0  0  0  0  0  0
   10.7380  -11.2716    6.4062 Br  0  0  0  0  0  0  0  0  0  0  0  0
    8.6123  -13.0645    5.7101 C   0  0  0  0  0  0  0  0  0  0  0  0
    7.3563  -13.3978    5.2066 C   0  0  0  0  0  0  0  0  0  0  0  0
    6.5191  -12.3971    4.7068 C   0  0  0  0  0  0  0  0  0  0  0  0
    5.2345  -12.6783    4.2659 O   0  0  0  0  0  0  0  0  0  0  0  0
    4.9921  -13.6788    3.3591 C   0  0  0  0  0  0  0  0  0  0  0  0
    5.8607  -14.3419    2.8563 O   0  0  0  0  0  0  0  0  0  0  0  0
    3.5370  -13.8202    3.0790 C   0  0  0  0  0  0  0  0  0  0  0  0
    2.5531  -13.0864    3.7622 C   0  0  0  0  0  0  0  0  0  0  0  0
    1.2037  -13.2658    3.4617 C   0  0  0  0  0  0  0  0  0  0  0  0
    0.8375  -14.1839    2.4708 C   0  0  0  0  0  0  0  0  0  0  0  0
   -0.8485  -14.4097    2.0908 Cl  0  0  0  0  0  0  0  0  0  0  0  0
    1.8052  -14.9250    1.7813 C   0  0  0  0  0  0  0  0  0  0  0  0
    3.1501  -14.7408    2.0908 C   0  0  0  0  0  0  0  0  0  0  0  0
    4.6436   -2.0773    2.5426 C   0  0  0  0  0  0  0  0  0  0  0  0
    3.9212   -0.9792    2.0698 C   0  0  0  0  0  0  0  0  0  0  0  0
    1.5410    1.7749    0.6157 H   0  0  0  0  0  0  0  0  0  0  0  0
    3.2599    1.2870    0.4795 H   0  0  0  0  0  0  0  0  0  0  0  0
    2.5078    1.4915    2.0978 H   0  0  0  0  0  0  0  0  0  0  0  0
    1.1416   -2.6074    0.9808 H   0  0  0  0  0  0  0  0  0  0  0  0
    2.4378   -4.5724    1.8286 H   0  0  0  0  0  0  0  0  0  0  0  0
    5.8187   -4.2099    3.3535 H   0  0  0  0  0  0  0  0  0  0  0  0
    4.6247   -8.1438    3.2807 H   0  0  0  0  0  0  0  0  0  0  0  0
    5.0697  -10.3218    3.7592 H   0  0  0  0  0  0  0  0  0  0  0  0
    8.5011   -9.6777    5.2188 H   0  0  0  0  0  0  0  0  0  0  0  0
    9.2705  -13.8419    6.1006 H   0  0  0  0  0  0  0  0  0  0  0  0
    7.0286  -14.4367    5.1982 H   0  0  0  0  0  0  0  0  0  0  0  0
    2.8470  -12.3773    4.5368 H   0  0  0  0  0  0  0  0  0  0  0  0
    0.4331  -12.7015    3.9890 H   0  0  0  0  0  0  0  0  0  0  0  0
    1.4982  -15.6363    1.0131 H   0  0  0  0  0  0  0  0  0  0  0  0
    3.9240  -15.3083    1.5705 H   0  0  0  0  0  0  0  0  0  0  0  0
    5.6322   -1.9163    2.9821 H   0  0  0  0  0  0  0  0  0  0  0  0
    4.3602    0.0152    2.1501 H   0  0  0  0  0  0  0  0  0  0  0  0
  1  2  1  0
  1 34  1  0
  1 35  1  0
  1 36  1  0
  2  3  1  0
  3  4  2  0
  3 33  1  0
  4  5  1  0
  4 37  1  0
  5  6  2  0
  5 38  1  0
  6  7  1  0
  6 32  1  0
  7  8  1  0
  7 39  1  0
  8  9  2  0
  8 10  1  0
 10 11  2  0
 10 12  1  0
 12 13  1  0
 12 40  1  0
 13 14  2  0
 14 15  1  0
 14 41  1  0
 15 16  2  0
 15 21  1  0
 16 17  1  0
 16 42  1  0
 17 18  1  0
 17 19  2  0
 19 20  1  0
 19 43  1  0
 20 21  2  0
 20 44  1  0
 21 22  1  0
 22 23  1  0
 23 24  2  0
 23 25  1  0
 25 26  2  0
 25 31  1  0
 26 27  1  0
 26 45  1  0
 27 28  2  0
 27 46  1  0
 28 29  1  0
 28 30  1  0
 30 31  2  0
 30 47  1  0
 31 48  1  0
 32 33  2  0
 32 49  1  0
 33 50  1  0
M  END

