
     RDKit          3D

 44 46  0  0  0  0  0  0  0  0999 V2000
    1.2349    1.0920    0.1464 C   0  0  0  0  0  0  0  0  0  0  0  0
    2.6782    0.6013   -0.0336 C   0  0  1  0  0  0  0  0  0  0  0  0
    2.7796   -0.9363   -0.1264 C   0  0  0  0  0  0  0  0  0  0  0  0
    2.3038   -1.4722   -1.4828 C   0  0  2  0  0  0  0  0  0  0  0  0
    2.4780   -2.9834   -1.6035 C   0  0  0  0  0  0  0  0  0  0  0  0
    3.1025   -3.6641   -0.8365 O   0  0  0  0  0  0  0  0  0  0  0  0
    1.8879   -3.5388   -2.6888 O   0  0  0  0  0  0  0  0  0  0  0  0
    3.0547   -0.7409   -2.6211 C   0  0  0  0  0  0  0  0  0  0  0  0
    2.8682    0.6979   -2.5172 N   0  0  0  0  0  0  0  0  0  0  0  0
    1.8802    1.2539   -3.3190 C   0  0  0  0  0  0  0  0  0  0  0  0
    1.1951    0.5624   -4.0632 O   0  0  0  0  0  0  0  0  0  0  0  0
    1.7600    2.6306   -3.2211 N   0  0  0  0  0  0  0  0  0  0  0  0
    0.8408    3.4520   -3.8808 C   0  0  0  0  0  0  0  0  0  0  0  0
    0.0768    3.0258   -4.9822 C   0  0  0  0  0  0  0  0  0  0  0  0
   -0.7959    3.9068   -5.6162 C   0  0  0  0  0  0  0  0  0  0  0  0
   -0.9167    5.2314   -5.1984 C   0  0  0  0  0  0  0  0  0  0  0  0
   -0.1645    5.6665   -4.1066 C   0  0  0  0  0  0  0  0  0  0  0  0
   -0.3047    7.3490   -3.6407 Cl  0  0  0  0  0  0  0  0  0  0  0  0
    0.6913    4.7899   -3.4139 C   0  0  0  0  0  0  0  0  0  0  0  0
    1.3847    5.2119   -2.2408 N   0  0  0  0  0  0  0  0  0  0  0  0
    0.8655    5.8274   -1.1377 C   0  0  0  0  0  0  0  0  0  0  0  0
    1.9087    6.0232   -0.2527 C   0  0  0  0  0  0  0  0  0  0  0  0
    3.0357    5.4777   -0.9106 C   0  0  0  0  0  0  0  0  0  0  0  0
    2.7144    4.9875   -2.1039 N   0  0  0  0  0  0  0  0  0  0  0  0
    3.3670    1.2492   -1.2562 C   0  0  0  0  0  0  0  0  0  0  0  0
    0.7812    0.6449    1.0452 H   0  0  0  0  0  0  0  0  0  0  0  0
    0.5926    0.8311   -0.7099 H   0  0  0  0  0  0  0  0  0  0  0  0
    1.1984    2.1870    0.2621 H   0  0  0  0  0  0  0  0  0  0  0  0
    3.2523    0.9193    0.8546 H   0  0  0  0  0  0  0  0  0  0  0  0
    2.2100   -1.4089    0.6893 H   0  0  0  0  0  0  0  0  0  0  0  0
    3.8264   -1.2533    0.0140 H   0  0  0  0  0  0  0  0  0  0  0  0
    1.2289   -1.2567   -1.6222 H   0  0  0  0  0  0  0  0  0  0  0  0
    1.3964   -2.8715   -3.1911 H   0  0  0  0  0  0  0  0  0  0  0  0
    2.7072   -1.0605   -3.6099 H   0  0  0  0  0  0  0  0  0  0  0  0
    4.1335   -0.9643   -2.5431 H   0  0  0  0  0  0  0  0  0  0  0  0
    2.4823    3.1551   -2.7262 H   0  0  0  0  0  0  0  0  0  0  0  0
    0.1844    1.9973   -5.3157 H   0  0  0  0  0  0  0  0  0  0  0  0
   -1.3809    3.5570   -6.4702 H   0  0  0  0  0  0  0  0  0  0  0  0
   -1.5739    5.9351   -5.7098 H   0  0  0  0  0  0  0  0  0  0  0  0
   -0.1880    6.0844   -1.0759 H   0  0  0  0  0  0  0  0  0  0  0  0
    1.8622    6.4935    0.7263 H   0  0  0  0  0  0  0  0  0  0  0  0
    4.0668    5.4195   -0.5618 H   0  0  0  0  0  0  0  0  0  0  0  0
    3.2443    2.3391   -1.2264 H   0  0  0  0  0  0  0  0  0  0  0  0
    4.4531    1.0543   -1.2099 H   0  0  0  0  0  0  0  0  0  0  0  0
  1  2  1  0
  1 26  1  0
  1 27  1  0
  1 28  1  0
  2  3  1  0
  2 25  1  0
  2 29  1  1
  3  4  1  0
  3 30  1  0
  3 31  1  0
  4  5  1  0
  4  8  1  0
  4 32  1  6
  5  6  2  0
  5  7  1  0
  7 33  1  0
  8  9  1  0
  8 34  1  0
  8 35  1  0
  9 10  1  0
  9 25  1  0
 10 11  2  0
 10 12  1  0
 12 13  1  0
 12 36  1  0
 13 14  2  0
 13 19  1  0
 14 15  1  0
 14 37  1  0
 15 16  2  0
 15 38  1  0
 16 17  1  0
 16 39  1  0
 17 18  1  0
 17 19  2  0
 19 20  1  0
 20 21  1  0
 20 24  1  0
 21 22  2  0
 21 40  1  0
 22 23  1  0
 22 41  1  0
 23 24  2  0
 23 42  1  0
 25 43  1  0
 25 44  1  0
M  END

