
     RDKit          3D

 36 38  0  0  0  0  0  0  0  0999 V2000
    1.4262    0.2647    1.1743 C   0  0  0  0  0  0  0  0  0  0  0  0
    2.5786    0.0667    0.3080 N   0  0  0  0  0  0  0  0  0  0  0  0
    3.3200    1.0764   -0.2341 C   0  0  0  0  0  0  0  0  0  0  0  0
    4.3688    0.5156   -0.9570 C   0  0  0  0  0  0  0  0  0  0  0  0
    5.3636    1.2357   -1.6776 C   0  0  0  0  0  0  0  0  0  0  0  0
    6.1747    1.8196   -2.2709 N   0  0  0  0  0  0  0  0  0  0  0  0
    4.2514   -0.9042   -0.8271 C   0  0  0  0  0  0  0  0  0  0  0  0
    3.1343   -1.1517   -0.0551 C   0  0  0  0  0  0  0  0  0  0  0  0
    2.6162   -2.4841    0.4135 C   0  0  0  0  0  0  0  0  0  0  0  0
    3.2552   -3.1814    1.1870 O   0  0  0  0  0  0  0  0  0  0  0  0
    1.4006   -2.8735   -0.0751 N   0  0  0  0  0  0  0  0  0  0  0  0
    0.8280   -4.1684    0.3224 C   0  0  0  0  0  0  0  0  0  0  0  0
   -0.3872   -4.3366   -0.6076 C   0  0  0  0  0  0  0  0  0  0  0  0
   -0.7454   -2.9024   -1.0307 C   0  0  1  0  0  0  0  0  0  0  0  0
   -1.6387   -2.7197   -2.2708 C   0  0  0  0  0  0  0  0  0  0  0  0
   -2.3239   -1.3518   -2.0293 C   0  0  0  0  0  0  0  0  0  0  0  0
   -2.0221   -0.9743   -0.6844 O   0  0  0  0  0  0  0  0  0  0  0  0
   -1.5784   -2.1238    0.0055 C   0  0  0  0  0  0  0  0  0  0  0  0
    0.6517   -2.2692   -1.1754 C   0  0  0  0  0  0  0  0  0  0  0  0
    1.4888    1.2605    1.6326 H   0  0  0  0  0  0  0  0  0  0  0  0
    1.4282   -0.4842    1.9783 H   0  0  0  0  0  0  0  0  0  0  0  0
    0.4766    0.1953    0.6192 H   0  0  0  0  0  0  0  0  0  0  0  0
    3.0727    2.1212   -0.0614 H   0  0  0  0  0  0  0  0  0  0  0  0
    4.9145   -1.6536   -1.2517 H   0  0  0  0  0  0  0  0  0  0  0  0
    0.5456   -4.1417    1.3888 H   0  0  0  0  0  0  0  0  0  0  0  0
    1.5750   -4.9705    0.2175 H   0  0  0  0  0  0  0  0  0  0  0  0
   -1.2244   -4.8586   -0.1191 H   0  0  0  0  0  0  0  0  0  0  0  0
   -0.1089   -4.9240   -1.4978 H   0  0  0  0  0  0  0  0  0  0  0  0
   -2.3851   -3.5287   -2.3129 H   0  0  0  0  0  0  0  0  0  0  0  0
   -1.0673   -2.7511   -3.2110 H   0  0  0  0  0  0  0  0  0  0  0  0
   -3.4183   -1.4170   -2.1707 H   0  0  0  0  0  0  0  0  0  0  0  0
   -1.9473   -0.5598   -2.6967 H   0  0  0  0  0  0  0  0  0  0  0  0
   -2.4295   -2.7467    0.3536 H   0  0  0  0  0  0  0  0  0  0  0  0
   -1.0074   -1.8016    0.8892 H   0  0  0  0  0  0  0  0  0  0  0  0
    0.6248   -1.1739   -1.1113 H   0  0  0  0  0  0  0  0  0  0  0  0
    1.0952   -2.5335   -2.1544 H   0  0  0  0  0  0  0  0  0  0  0  0
  1  2  1  0
  1 20  1  0
  1 21  1  0
  1 22  1  0
  2  3  1  0
  2  8  1  0
  3  4  2  0
  3 23  1  0
  4  5  1  0
  4  7  1  0
  5  6  3  0
  7  8  2  0
  7 24  1  0
  8  9  1  0
  9 10  2  0
  9 11  1  0
 11 12  1  0
 11 19  1  0
 12 13  1  0
 12 25  1  0
 12 26  1  0
 14 13  1  1
 13 27  1  0
 13 28  1  0
 14 15  1  0
 14 18  1  0
 14 19  1  0
 15 16  1  0
 15 29  1  0
 15 30  1  0
 16 17  1  0
 16 31  1  0
 16 32  1  0
 17 18  1  0
 18 33  1  0
 18 34  1  0
 19 35  1  0
 19 36  1  0
M  END

