
     RDKit          3D

 35 37  0  0  0  0  0  0  0  0999 V2000
    5.3558   -0.2342    2.8792 C   0  0  0  0  0  0  0  0  0  0  0  0
    4.5738   -0.1498    1.5974 C   0  0  0  0  0  0  0  0  0  0  0  0
    4.2193   -1.2790    0.8553 C   0  0  0  0  0  0  0  0  0  0  0  0
    3.4810   -1.1743   -0.3426 C   0  0  0  0  0  0  0  0  0  0  0  0
    3.0799   -2.6466   -1.2097 Cl  0  0  0  0  0  0  0  0  0  0  0  0
    3.0607    0.0474   -0.8630 C   0  0  0  0  0  0  0  0  0  0  0  0
    3.4198    1.1772   -0.1192 C   0  0  0  0  0  0  0  0  0  0  0  0
    3.1993    2.5269   -0.2988 N   0  0  0  0  0  0  0  0  0  0  0  0
    2.6633    3.0024   -1.0155 H   0  0  0  0  0  0  0  0  0  0  0  0
    3.7775    3.1800    0.7648 C   0  0  0  0  0  0  0  0  0  0  0  0
    3.7535    4.6813    0.8395 C   0  0  0  0  0  0  0  0  0  0  0  0
    2.5629    5.2231    0.1901 N   0  0  0  0  0  0  0  0  0  0  0  0
    1.3351    5.1145    0.9893 C   0  0  0  0  0  0  0  0  0  0  0  0
    1.2071    6.2206    2.0441 C   0  0  0  0  0  0  0  0  0  0  0  0
    1.3113    7.5189    1.3877 N   0  0  0  0  0  0  0  0  0  0  0  0
    2.5770    7.6791    0.6828 C   0  0  0  0  0  0  0  0  0  0  0  0
    2.6987    6.5697   -0.3691 C   0  0  0  0  0  0  0  0  0  0  0  0
    4.3562    2.3664    1.6124 N   0  0  0  0  0  0  0  0  0  0  0  0
    4.1594    1.0992    1.0899 C   0  0  0  0  0  0  0  0  0  0  0  0
    5.6243   -1.2725    3.1221 H   0  0  0  0  0  0  0  0  0  0  0  0
    4.7773    0.1832    3.7197 H   0  0  0  0  0  0  0  0  0  0  0  0
    6.2801    0.3625    2.8150 H   0  0  0  0  0  0  0  0  0  0  0  0
    4.5148   -2.2717    1.2001 H   0  0  0  0  0  0  0  0  0  0  0  0
    2.4922    0.1009   -1.7919 H   0  0  0  0  0  0  0  0  0  0  0  0
    4.6390    5.0704    0.3062 H   0  0  0  0  0  0  0  0  0  0  0  0
    3.8887    4.9629    1.9015 H   0  0  0  0  0  0  0  0  0  0  0  0
    1.2981    4.1215    1.4643 H   0  0  0  0  0  0  0  0  0  0  0  0
    0.4727    5.1895    0.3041 H   0  0  0  0  0  0  0  0  0  0  0  0
    1.9800    6.0710    2.8330 H   0  0  0  0  0  0  0  0  0  0  0  0
    0.2257    6.1393    2.5399 H   0  0  0  0  0  0  0  0  0  0  0  0
    1.1684    8.2743    2.0544 H   0  0  0  0  0  0  0  0  0  0  0  0
    3.4619    7.6418    1.3608 H   0  0  0  0  0  0  0  0  0  0  0  0
    2.5954    8.6625    0.1839 H   0  0  0  0  0  0  0  0  0  0  0  0
    3.6590    6.6447   -0.9039 H   0  0  0  0  0  0  0  0  0  0  0  0
    1.8915    6.7121   -1.1091 H   0  0  0  0  0  0  0  0  0  0  0  0
  1  2  1  0
  1 20  1  0
  1 21  1  0
  1 22  1  0
  2  3  2  0
  2 19  1  0
  3  4  1  0
  3 23  1  0
  4  5  1  0
  4  6  2  0
  6  7  1  0
  6 24  1  0
  7  8  1  0
  7 19  2  0
  8  9  1  0
  8 10  1  0
 10 11  1  0
 10 18  2  0
 11 12  1  0
 11 25  1  0
 11 26  1  0
 12 13  1  0
 12 17  1  0
 13 14  1  0
 13 27  1  0
 13 28  1  0
 14 15  1  0
 14 29  1  0
 14 30  1  0
 15 16  1  0
 15 31  1  0
 16 17  1  0
 16 32  1  0
 16 33  1  0
 17 34  1  0
 17 35  1  0
 18 19  1  0
M  END

