
     RDKit          3D

 39 41  0  0  0  0  0  0  0  0999 V2000
    1.3935    2.3719    1.4432 C   0  0  0  0  0  0  0  0  0  0  0  0
    1.9344    1.0079    1.0058 C   0  0  2  0  0  0  0  0  0  0  0  0
    1.1964    0.5128    0.3581 H   0  0  0  0  0  0  0  0  0  0  0  0
    2.0682    0.1211    2.1626 N   0  0  0  0  0  0  0  0  0  0  0  0
    1.7207   -1.1895    2.1118 C   0  0  0  0  0  0  0  0  0  0  0  0
    1.2105   -1.7381    1.1487 O   0  0  0  0  0  0  0  0  0  0  0  0
    2.0326   -2.0050    3.3662 C   0  0  0  0  0  0  0  0  0  0  0  0
    2.3895   -1.1674    4.4458 O   0  0  0  0  0  0  0  0  0  0  0  0
    2.7678   -1.7146    5.6356 C   0  0  0  0  0  0  0  0  0  0  0  0
    2.8978   -3.0746    5.8559 C   0  0  0  0  0  0  0  0  0  0  0  0
    3.3208   -3.5500    7.1238 C   0  0  0  0  0  0  0  0  0  0  0  0
    3.6062   -2.6806    8.1509 C   0  0  0  0  0  0  0  0  0  0  0  0
    3.4688   -1.2755    7.9593 C   0  0  0  0  0  0  0  0  0  0  0  0
    3.7433   -0.3421    8.9977 C   0  0  0  0  0  0  0  0  0  0  0  0
    3.5914    1.0141    8.7964 C   0  0  0  0  0  0  0  0  0  0  0  0
    3.1506    1.5024    7.5422 C   0  0  0  0  0  0  0  0  0  0  0  0
    2.8780    0.6262    6.5109 C   0  0  0  0  0  0  0  0  0  0  0  0
    3.0355   -0.7748    6.6874 C   0  0  0  0  0  0  0  0  0  0  0  0
    3.2171    1.0816    0.2043 C   0  0  0  0  0  0  0  0  0  0  0  0
    3.5851    0.2727   -0.8452 C   0  0  0  0  0  0  0  0  0  0  0  0
    4.8949    0.5516   -1.3421 C   0  0  0  0  0  0  0  0  0  0  0  0
    5.5128    1.5689   -0.6609 C   0  0  0  0  0  0  0  0  0  0  0  0
    4.5008    2.2014    0.5923 S   0  0  0  0  0  0  0  0  0  0  0  0
    2.0927    2.8827    2.1271 H   0  0  0  0  0  0  0  0  0  0  0  0
    0.4334    2.2514    1.9669 H   0  0  0  0  0  0  0  0  0  0  0  0
    1.2414    3.0266    0.5725 H   0  0  0  0  0  0  0  0  0  0  0  0
    2.5688    0.4430    2.9845 H   0  0  0  0  0  0  0  0  0  0  0  0
    2.8534   -2.6998    3.1083 H   0  0  0  0  0  0  0  0  0  0  0  0
    1.1416   -2.6130    3.6008 H   0  0  0  0  0  0  0  0  0  0  0  0
    2.6827   -3.7934    5.0657 H   0  0  0  0  0  0  0  0  0  0  0  0
    3.4198   -4.6281    7.2733 H   0  0  0  0  0  0  0  0  0  0  0  0
    3.9355   -3.0541    9.1235 H   0  0  0  0  0  0  0  0  0  0  0  0
    4.0771   -0.7227    9.9668 H   0  0  0  0  0  0  0  0  0  0  0  0
    3.8063    1.7157    9.6065 H   0  0  0  0  0  0  0  0  0  0  0  0
    3.0227    2.5775    7.3933 H   0  0  0  0  0  0  0  0  0  0  0  0
    2.5243    0.9993    5.5494 H   0  0  0  0  0  0  0  0  0  0  0  0
    2.9308   -0.5095   -1.2341 H   0  0  0  0  0  0  0  0  0  0  0  0
    5.3578    0.0203   -2.1754 H   0  0  0  0  0  0  0  0  0  0  0  0
    6.5016    1.9932   -0.8301 H   0  0  0  0  0  0  0  0  0  0  0  0
  1  2  1  0
  1 24  1  0
  1 25  1  0
  1 26  1  0
  2  3  1  6
  2  4  1  0
  2 19  1  0
  4  5  1  0
  4 27  1  0
  5  6  2  0
  5  7  1  0
  7  8  1  0
  7 28  1  0
  7 29  1  0
  8  9  1  0
  9 10  2  0
  9 18  1  0
 10 11  1  0
 10 30  1  0
 11 12  2  0
 11 31  1  0
 12 13  1  0
 12 32  1  0
 13 14  1  0
 13 18  2  0
 14 15  2  0
 14 33  1  0
 15 16  1  0
 15 34  1  0
 16 17  2  0
 16 35  1  0
 17 18  1  0
 17 36  1  0
 19 20  2  0
 19 23  1  0
 20 21  1  0
 20 37  1  0
 21 22  2  0
 21 38  1  0
 22 23  1  0
 22 39  1  0
M  END

