
     RDKit          3D

 44 46  0  0  0  0  0  0  0  0999 V2000
    8.6737   -2.3571    0.4974 C   0  0  0  0  0  0  0  0  0  0  0  0
    8.4906   -1.5203   -0.7782 C   0  0  0  0  0  0  0  0  0  0  0  0
    7.0379   -1.2874   -1.1384 C   0  0  0  0  0  0  0  0  0  0  0  0
    6.3265   -0.2003   -0.6046 C   0  0  0  0  0  0  0  0  0  0  0  0
    4.9766   -0.0241   -0.9141 C   0  0  0  0  0  0  0  0  0  0  0  0
    4.3007   -0.9113   -1.7552 C   0  0  0  0  0  0  0  0  0  0  0  0
    5.0018   -2.0023   -2.2972 C   0  0  0  0  0  0  0  0  0  0  0  0
    4.4187   -2.9511   -3.1603 N   0  0  0  0  0  0  0  0  0  0  0  0
    3.1206   -3.0381   -3.5848 C   0  0  0  0  0  0  0  0  0  0  0  0
    2.2285   -2.2562   -3.3122 O   0  0  0  0  0  0  0  0  0  0  0  0
    2.8501   -4.2398   -4.5176 C   0  0  0  0  0  0  0  0  0  0  0  0
    3.1061   -5.5470   -3.9293 N   0  0  0  0  0  0  0  0  0  0  0  0
    4.3896   -6.1029   -3.7735 C   0  0  0  0  0  0  0  0  0  0  0  0
    5.4344   -5.5261   -4.0216 O   0  0  0  0  0  0  0  0  0  0  0  0
    4.2148   -7.3655   -3.3002 N   0  0  0  0  0  0  0  0  0  0  0  0
    2.8245   -7.7095   -3.0415 C   0  0  1  0  0  0  0  0  0  0  0  0
    2.3010   -8.9960   -3.7648 C   0  0  0  0  0  0  0  0  0  0  0  0
    1.7043   -9.8974   -2.6645 C   0  0  0  0  0  0  0  0  0  0  0  0
    1.3200   -8.9180   -1.5460 C   0  0  0  0  0  0  0  0  0  0  0  0
    2.4967   -7.9390   -1.5354 C   0  0  0  0  0  0  0  0  0  0  0  0
    2.1152   -6.4450   -3.5608 C   0  0  0  0  0  0  0  0  0  0  0  0
    0.9235   -6.2700   -3.6419 O   0  0  0  0  0  0  0  0  0  0  0  0
    6.3618   -2.1772   -1.9800 C   0  0  0  0  0  0  0  0  0  0  0  0
    9.7420   -2.5002    0.7285 H   0  0  0  0  0  0  0  0  0  0  0  0
    8.2136   -3.3525    0.3884 H   0  0  0  0  0  0  0  0  0  0  0  0
    8.2012   -1.8683    1.3645 H   0  0  0  0  0  0  0  0  0  0  0  0
    9.0007   -2.0215   -1.6180 H   0  0  0  0  0  0  0  0  0  0  0  0
    8.9924   -0.5466   -0.6478 H   0  0  0  0  0  0  0  0  0  0  0  0
    6.8357    0.5120    0.0509 H   0  0  0  0  0  0  0  0  0  0  0  0
    4.4321    0.8276   -0.4974 H   0  0  0  0  0  0  0  0  0  0  0  0
    3.2508   -0.7723   -2.0013 H   0  0  0  0  0  0  0  0  0  0  0  0
    5.0450   -3.6849   -3.5001 H   0  0  0  0  0  0  0  0  0  0  0  0
    3.4555   -4.1401   -5.4335 H   0  0  0  0  0  0  0  0  0  0  0  0
    1.7847   -4.2043   -4.7740 H   0  0  0  0  0  0  0  0  0  0  0  0
    5.0100   -7.9181   -3.0039 H   0  0  0  0  0  0  0  0  0  0  0  0
    3.1157   -9.4749   -4.3273 H   0  0  0  0  0  0  0  0  0  0  0  0
    1.5240   -8.7113   -4.4898 H   0  0  0  0  0  0  0  0  0  0  0  0
    2.4662  -10.6046   -2.2933 H   0  0  0  0  0  0  0  0  0  0  0  0
    0.8563  -10.4977   -3.0266 H   0  0  0  0  0  0  0  0  0  0  0  0
    1.1607   -9.4046   -0.5715 H   0  0  0  0  0  0  0  0  0  0  0  0
    0.3951   -8.3814   -1.8121 H   0  0  0  0  0  0  0  0  0  0  0  0
    3.3776   -8.4088   -1.0644 H   0  0  0  0  0  0  0  0  0  0  0  0
    2.3006   -6.9985   -0.9989 H   0  0  0  0  0  0  0  0  0  0  0  0
    6.8997   -3.0303   -2.4064 H   0  0  0  0  0  0  0  0  0  0  0  0
  1  2  1  0
  1 24  1  0
  1 25  1  0
  1 26  1  0
  2  3  1  0
  2 27  1  0
  2 28  1  0
  3  4  2  0
  3 23  1  0
  4  5  1  0
  4 29  1  0
  5  6  2  0
  5 30  1  0
  6  7  1  0
  6 31  1  0
  7  8  1  0
  7 23  2  0
  8  9  1  0
  8 32  1  0
  9 10  2  0
  9 11  1  0
 11 12  1  0
 11 33  1  0
 11 34  1  0
 12 13  1  0
 12 21  1  0
 13 14  2  0
 13 15  1  0
 15 16  1  0
 15 35  1  0
 16 17  1  0
 16 20  1  0
 16 21  1  6
 17 18  1  0
 17 36  1  0
 17 37  1  0
 18 19  1  0
 18 38  1  0
 18 39  1  0
 19 20  1  0
 19 40  1  0
 19 41  1  0
 20 42  1  0
 20 43  1  0
 21 22  2  0
 23 44  1  0
M  END

