
     RDKit          3D

101106  0  0  0  0  0  0  0  0999 V2000
    1.6025    1.7822    1.2425 C   0  0  0  0  0  0  0  0  0  0  0  0
    1.4185    1.0394   -0.0934 C   0  0  1  0  0  0  0  0  0  0  0  0
   -0.0639    0.9764   -0.4977 C   0  0  0  0  0  0  0  0  0  0  0  0
    2.6190    1.6922   -1.4456 Si  0  0  1  0  0  4  0  0  0  0  0  0
    2.1178    0.9381   -3.0631 C   0  0  0  0  0  0  0  0  0  0  0  0
    1.7825    0.4983   -4.1566 C   0  0  0  0  0  0  0  0  0  0  0  0
    1.3661    0.0507   -5.4329 C   0  0  0  0  0  0  0  0  0  0  0  0
    0.5027    0.8492   -6.2429 C   0  0  0  0  0  0  0  0  0  0  0  0
    0.0094    2.0500   -5.9067 N   0  0  0  0  0  0  0  0  0  0  0  0
   -0.9131    2.5481   -7.1572 S   0  0  0  0  0  0  0  0  0  0  0  0
   -0.7362    1.2846   -8.1748 N   0  0  0  0  0  0  0  0  0  0  0  0
    0.0692    0.4038   -7.5635 C   0  0  0  0  0  0  0  0  0  0  0  0
    0.4889   -0.8499   -8.1041 C   0  0  0  0  0  0  0  0  0  0  0  0
    0.0630   -1.2609   -9.3899 C   0  0  0  0  0  0  0  0  0  0  0  0
   -0.3363   -1.5536  -10.5107 C   0  0  0  0  0  0  0  0  0  0  0  0
   -0.9510   -1.9264  -12.2212 Si  0  0  1  0  0  4  0  0  0  0  0  0
    0.5029   -2.7089  -13.1979 C   0  0  1  0  0  0  0  0  0  0  0  0
    1.6850   -1.7400  -13.3757 C   0  0  0  0  0  0  0  0  0  0  0  0
    0.9734   -4.0345  -12.5733 C   0  0  0  0  0  0  0  0  0  0  0  0
   -2.3622   -3.2143  -12.0219 C   0  0  1  0  0  0  0  0  0  0  0  0
   -3.5531   -2.7148  -11.1865 C   0  0  0  0  0  0  0  0  0  0  0  0
   -2.8339   -3.8331  -13.3497 C   0  0  0  0  0  0  0  0  0  0  0  0
   -1.4323   -0.2377  -12.9946 C   0  0  1  0  0  0  0  0  0  0  0  0
   -1.9545   -0.3507  -14.4381 C   0  0  0  0  0  0  0  0  0  0  0  0
   -2.3674    0.6204  -12.1246 C   0  0  0  0  0  0  0  0  0  0  0  0
    1.3435   -1.6330   -7.2894 C   0  0  0  0  0  0  0  0  0  0  0  0
    1.7686   -2.8378   -7.7465 N   0  0  0  0  0  0  0  0  0  0  0  0
    2.5763   -3.5947   -7.0415 C   0  0  0  0  0  0  0  0  0  0  0  0
    2.9164   -4.9017   -7.6679 C   0  0  0  0  0  0  0  0  0  0  0  0
    1.9712   -5.4372   -8.5688 C   0  0  0  0  0  0  0  0  0  0  0  0
    2.2277   -6.5989   -9.2891 C   0  0  0  0  0  0  0  0  0  0  0  0
    3.4649   -7.2405   -9.1601 C   0  0  0  0  0  0  0  0  0  0  0  0
    4.4175   -6.7166   -8.2932 C   0  0  0  0  0  0  0  0  0  0  0  0
    4.1517   -5.5716   -7.5175 C   0  0  0  0  0  0  0  0  0  0  0  0
    5.2637   -5.1794   -6.5894 C   0  0  0  0  0  0  0  0  0  0  0  0
    6.4212   -5.3829   -6.9103 O   0  0  0  0  0  0  0  0  0  0  0  0
    4.9403   -4.7674   -5.1831 C   0  0  0  0  0  0  0  0  0  0  0  0
    5.8001   -5.3068   -4.2066 C   0  0  0  0  0  0  0  0  0  0  0  0
    5.5982   -5.0663   -2.8520 C   0  0  0  0  0  0  0  0  0  0  0  0
    4.5379   -4.2451   -2.4516 C   0  0  0  0  0  0  0  0  0  0  0  0
    3.7132   -3.6626   -3.4078 C   0  0  0  0  0  0  0  0  0  0  0  0
    3.8880   -3.9116   -4.7861 C   0  0  0  0  0  0  0  0  0  0  0  0
    3.0189   -3.1430   -5.7189 C   0  0  0  0  0  0  0  0  0  0  0  0
    2.5962   -1.9903   -5.2557 N   0  0  0  0  0  0  0  0  0  0  0  0
    1.7753   -1.1901   -5.9809 C   0  0  0  0  0  0  0  0  0  0  0  0
    2.5215    3.6008   -1.6344 C   0  0  1  0  0  0  0  0  0  0  0  0
    3.6298    4.1910   -2.5234 C   0  0  0  0  0  0  0  0  0  0  0  0
    1.1384    4.0807   -2.1113 C   0  0  0  0  0  0  0  0  0  0  0  0
    4.4210    1.1312   -1.0533 C   0  0  1  0  0  0  0  0  0  0  0  0
    4.5026   -0.1707   -0.2366 C   0  0  0  0  0  0  0  0  0  0  0  0
    5.2944    1.0103   -2.3170 C   0  0  0  0  0  0  0  0  0  0  0  0
    1.0131    1.3049    2.0450 H   0  0  0  0  0  0  0  0  0  0  0  0
    1.2624    2.8291    1.1732 H   0  0  0  0  0  0  0  0  0  0  0  0
    2.6530    1.8010    1.5771 H   0  0  0  0  0  0  0  0  0  0  0  0
    1.7511   -0.0042    0.0566 H   0  0  0  0  0  0  0  0  0  0  0  0
   -0.5012    1.9796   -0.6239 H   0  0  0  0  0  0  0  0  0  0  0  0
   -0.6563    0.4632    0.2804 H   0  0  0  0  0  0  0  0  0  0  0  0
   -0.2105    0.4329   -1.4437 H   0  0  0  0  0  0  0  0  0  0  0  0
    0.0964   -2.9329  -14.2030 H   0  0  0  0  0  0  0  0  0  0  0  0
    2.1046   -1.4365  -12.4020 H   0  0  0  0  0  0  0  0  0  0  0  0
    1.3995   -0.8226  -13.9142 H   0  0  0  0  0  0  0  0  0  0  0  0
    2.4997   -2.2155  -13.9493 H   0  0  0  0  0  0  0  0  0  0  0  0
    1.3541   -3.8813  -11.5498 H   0  0  0  0  0  0  0  0  0  0  0  0
    1.7932   -4.4788  -13.1647 H   0  0  0  0  0  0  0  0  0  0  0  0
    0.1671   -4.7835  -12.5197 H   0  0  0  0  0  0  0  0  0  0  0  0
   -1.8716   -4.0169  -11.4387 H   0  0  0  0  0  0  0  0  0  0  0  0
   -4.1354   -1.9507  -11.7267 H   0  0  0  0  0  0  0  0  0  0  0  0
   -3.2331   -2.2735  -10.2296 H   0  0  0  0  0  0  0  0  0  0  0  0
   -4.2455   -3.5439  -10.9568 H   0  0  0  0  0  0  0  0  0  0  0  0
   -3.3419   -3.0922  -13.9886 H   0  0  0  0  0  0  0  0  0  0  0  0
   -3.5564   -4.6479  -13.1663 H   0  0  0  0  0  0  0  0  0  0  0  0
   -2.0043   -4.2593  -13.9361 H   0  0  0  0  0  0  0  0  0  0  0  0
   -0.4606    0.2903  -13.0350 H   0  0  0  0  0  0  0  0  0  0  0  0
   -2.9439   -0.8359  -14.4752 H   0  0  0  0  0  0  0  0  0  0  0  0
   -1.2791   -0.9283  -15.0904 H   0  0  0  0  0  0  0  0  0  0  0  0
   -2.0710    0.6489  -14.8923 H   0  0  0  0  0  0  0  0  0  0  0  0
   -3.3764    0.1828  -12.0540 H   0  0  0  0  0  0  0  0  0  0  0  0
   -2.4845    1.6280  -12.5615 H   0  0  0  0  0  0  0  0  0  0  0  0
   -1.9833    0.7440  -11.1001 H   0  0  0  0  0  0  0  0  0  0  0  0
    1.0291   -4.9053   -8.6994 H   0  0  0  0  0  0  0  0  0  0  0  0
    1.4658   -6.9979   -9.9632 H   0  0  0  0  0  0  0  0  0  0  0  0
    3.6846   -8.1436   -9.7347 H   0  0  0  0  0  0  0  0  0  0  0  0
    5.3964   -7.1867   -8.1871 H   0  0  0  0  0  0  0  0  0  0  0  0
    6.6295   -5.9286   -4.5470 H   0  0  0  0  0  0  0  0  0  0  0  0
    6.2641   -5.5147   -2.1107 H   0  0  0  0  0  0  0  0  0  0  0  0
    4.3619   -4.0475   -1.3913 H   0  0  0  0  0  0  0  0  0  0  0  0
    2.9164   -2.9826   -3.1072 H   0  0  0  0  0  0  0  0  0  0  0  0
    2.6804    3.9851   -0.6077 H   0  0  0  0  0  0  0  0  0  0  0  0
    3.5674    3.8073   -3.5555 H   0  0  0  0  0  0  0  0  0  0  0  0
    4.6387    3.9692   -2.1430 H   0  0  0  0  0  0  0  0  0  0  0  0
    3.5368    5.2899   -2.5794 H   0  0  0  0  0  0  0  0  0  0  0  0
    0.8871    3.6667   -3.1019 H   0  0  0  0  0  0  0  0  0  0  0  0
    1.1177    5.1815   -2.1966 H   0  0  0  0  0  0  0  0  0  0  0  0
    0.3325    3.7935   -1.4193 H   0  0  0  0  0  0  0  0  0  0  0  0
    4.8377    1.9448   -0.4277 H   0  0  0  0  0  0  0  0  0  0  0  0
    4.0544   -1.0180   -0.7837 H   0  0  0  0  0  0  0  0  0  0  0  0
    3.9958   -0.0969    0.7379 H   0  0  0  0  0  0  0  0  0  0  0  0
    5.5554   -0.4380   -0.0381 H   0  0  0  0  0  0  0  0  0  0  0  0
    4.9357    0.1969   -2.9681 H   0  0  0  0  0  0  0  0  0  0  0  0
    6.3403    0.7825   -2.0461 H   0  0  0  0  0  0  0  0  0  0  0  0
    5.3028    1.9294   -2.9209 H   0  0  0  0  0  0  0  0  0  0  0  0
  1  2  1  0
  1 52  1  0
  1 53  1  0
  1 54  1  0
  2  3  1  0
  2  4  1  0
  2 55  1  1
  3 56  1  0
  3 57  1  0
  3 58  1  0
  4  5  1  6
  4 46  1  0
  4 49  1  0
  5  6  3  0
  6  7  1  0
  7  8  2  0
  7 45  1  0
  8  9  1  0
  8 12  1  0
  9 10  2  0
 10 11  1  0
 11 12  2  0
 12 13  1  0
 13 14  1  0
 13 26  2  0
 14 15  3  0
 16 15  1  1
 16 17  1  0
 16 20  1  0
 16 23  1  0
 17 18  1  0
 17 19  1  0
 17 59  1  6
 18 60  1  0
 18 61  1  0
 18 62  1  0
 19 63  1  0
 19 64  1  0
 19 65  1  0
 20 21  1  0
 20 22  1  0
 20 66  1  1
 21 67  1  0
 21 68  1  0
 21 69  1  0
 22 70  1  0
 22 71  1  0
 22 72  1  0
 23 24  1  0
 23 25  1  0
 23 73  1  6
 24 74  1  0
 24 75  1  0
 24 76  1  0
 25 77  1  0
 25 78  1  0
 25 79  1  0
 26 27  1  0
 26 45  1  0
 27 28  2  0
 28 29  1  0
 28 43  1  0
 29 30  2  0
 29 34  1  0
 30 31  1  0
 30 80  1  0
 31 32  2  0
 31 81  1  0
 32 33  1  0
 32 82  1  0
 33 34  2  0
 33 83  1  0
 34 35  1  0
 35 36  1  0
 35 37  2  0
 37 38  1  0
 37 42  1  0
 38 39  2  0
 38 84  1  0
 39 40  1  0
 39 85  1  0
 40 41  2  0
 40 86  1  0
 41 42  1  0
 41 87  1  0
 42 43  2  0
 43 44  1  0
 44 45  2  0
 46 47  1  0
 46 48  1  0
 46 88  1  1
 47 89  1  0
 47 90  1  0
 47 91  1  0
 48 92  1  0
 48 93  1  0
 48 94  1  0
 49 50  1  0
 49 51  1  0
 49 95  1  1
 50 96  1  0
 50 97  1  0
 50 98  1  0
 51 99  1  0
 51100  1  0
 51101  1  0
M  CHG  2  10   1  36  -1
M  END

