
     RDKit          3D

 55 61  0  0  0  0  0  0  0  0999 V2000
    1.0127    0.1191   -0.0934 N   0  0  0  0  0  0  0  0  0  0  0  0
    2.1743    0.1106   -0.1481 C   0  0  0  0  0  0  0  0  0  0  0  0
    3.6039    0.1292   -0.1984 C   0  0  0  0  0  0  0  0  0  0  0  0
    4.3437   -1.0948   -0.2289 C   0  0  0  0  0  0  0  0  0  0  0  0
    3.6763   -2.3220   -0.3005 N   0  0  0  0  0  0  0  0  0  0  0  0
    4.3480   -3.5205    0.1922 C   0  0  0  0  0  0  0  0  0  0  0  0
    3.3229   -4.5893    0.5882 C   0  0  0  0  0  0  0  0  0  0  0  0
    2.3672   -4.9100   -0.5651 C   0  0  0  0  0  0  0  0  0  0  0  0
    1.7306   -3.6253   -1.1052 C   0  0  0  0  0  0  0  0  0  0  0  0
    2.8008   -2.5907   -1.4509 C   0  0  0  0  0  0  0  0  0  0  0  0
    5.7458   -1.0157   -0.1558 C   0  0  0  0  0  0  0  0  0  0  0  0
    6.4499    0.2005   -0.0789 C   0  0  0  0  0  0  0  0  0  0  0  0
    7.9412    0.1515   -0.0646 C   0  0  0  0  0  0  0  0  0  0  0  0
    8.6148   -0.5623    0.9389 C   0  0  0  0  0  0  0  0  0  0  0  0
   10.0193   -0.6676    0.9674 C   0  0  0  0  0  0  0  0  0  0  0  0
   10.7163   -0.0409   -0.0492 C   0  0  0  0  0  0  0  0  0  0  0  0
   10.0567    0.6661   -1.0597 C   0  0  0  0  0  0  0  0  0  0  0  0
    8.6804    0.7809   -1.0981 C   0  0  0  0  0  0  0  0  0  0  0  0
   10.9786    1.1494   -1.9465 O   0  0  0  0  0  0  0  0  0  0  0  0
   12.2584    0.8597   -1.3917 C   0  0  0  0  0  0  0  0  0  0  0  0
   12.0624   -0.0097   -0.2789 O   0  0  0  0  0  0  0  0  0  0  0  0
    5.7165    1.3994   -0.0573 C   0  0  0  0  0  0  0  0  0  0  0  0
    4.2893    1.3530   -0.1272 C   0  0  0  0  0  0  0  0  0  0  0  0
    3.7713    2.7337   -0.0516 C   0  0  0  0  0  0  0  0  0  0  0  0
    2.5156    3.3215   -0.0714 C   0  0  0  0  0  0  0  0  0  0  0  0
    2.4242    4.7372    0.0410 C   0  0  0  0  0  0  0  0  0  0  0  0
    3.5420    5.5464    0.1793 C   0  0  0  0  0  0  0  0  0  0  0  0
    4.8453    4.9703    0.2091 C   0  0  0  0  0  0  0  0  0  0  0  0
    6.0885    5.6502    0.3679 C   0  0  0  0  0  0  0  0  0  0  0  0
    7.2700    4.9271    0.3987 C   0  0  0  0  0  0  0  0  0  0  0  0
    7.3059    3.5094    0.2638 C   0  0  0  0  0  0  0  0  0  0  0  0
    6.1166    2.8177    0.0922 C   0  0  0  0  0  0  0  0  0  0  0  0
    4.9103    3.5705    0.0804 C   0  0  0  0  0  0  0  0  0  0  0  0
    4.9573   -3.2489    1.0663 H   0  0  0  0  0  0  0  0  0  0  0  0
    5.0401   -3.9397   -0.5724 H   0  0  0  0  0  0  0  0  0  0  0  0
    2.7473   -4.2179    1.4534 H   0  0  0  0  0  0  0  0  0  0  0  0
    3.8578   -5.4955    0.9186 H   0  0  0  0  0  0  0  0  0  0  0  0
    1.5921   -5.6225   -0.2380 H   0  0  0  0  0  0  0  0  0  0  0  0
    2.9288   -5.4087   -1.3770 H   0  0  0  0  0  0  0  0  0  0  0  0
    1.0525   -3.1900   -0.3518 H   0  0  0  0  0  0  0  0  0  0  0  0
    1.1266   -3.8351   -2.0035 H   0  0  0  0  0  0  0  0  0  0  0  0
    2.3313   -1.6583   -1.7848 H   0  0  0  0  0  0  0  0  0  0  0  0
    3.4179   -2.9633   -2.2988 H   0  0  0  0  0  0  0  0  0  0  0  0
    6.3293   -1.9339   -0.2150 H   0  0  0  0  0  0  0  0  0  0  0  0
    8.0324   -1.0372    1.7312 H   0  0  0  0  0  0  0  0  0  0  0  0
   10.5374   -1.2187    1.7536 H   0  0  0  0  0  0  0  0  0  0  0  0
    8.1827    1.3248   -1.9017 H   0  0  0  0  0  0  0  0  0  0  0  0
   12.7394    1.7978   -1.0512 H   0  0  0  0  0  0  0  0  0  0  0  0
   12.8879    0.3608   -2.1471 H   0  0  0  0  0  0  0  0  0  0  0  0
    1.6039    2.7299   -0.1648 H   0  0  0  0  0  0  0  0  0  0  0  0
    1.4326    5.1964    0.0232 H   0  0  0  0  0  0  0  0  0  0  0  0
    3.4261    6.6299    0.2711 H   0  0  0  0  0  0  0  0  0  0  0  0
    6.1051    6.7385    0.4718 H   0  0  0  0  0  0  0  0  0  0  0  0
    8.2162    5.4587    0.5302 H   0  0  0  0  0  0  0  0  0  0  0  0
    8.2674    2.9971    0.3004 H   0  0  0  0  0  0  0  0  0  0  0  0
  1  2  3  0
  2  3  1  0
  3  4  2  0
  3 23  1  0
  4  5  1  0
  4 11  1  0
  5  6  1  0
  5 10  1  0
  6  7  1  0
  6 34  1  0
  6 35  1  0
  7  8  1  0
  7 36  1  0
  7 37  1  0
  8  9  1  0
  8 38  1  0
  8 39  1  0
  9 10  1  0
  9 40  1  0
  9 41  1  0
 10 42  1  0
 10 43  1  0
 11 12  2  0
 11 44  1  0
 12 13  1  0
 12 22  1  0
 13 14  2  0
 13 18  1  0
 14 15  1  0
 14 45  1  0
 15 16  2  0
 15 46  1  0
 16 17  1  0
 16 21  1  0
 17 18  2  0
 17 19  1  0
 18 47  1  0
 19 20  1  0
 20 21  1  0
 20 48  1  0
 20 49  1  0
 22 23  2  0
 22 32  1  0
 23 24  1  0
 24 25  2  0
 24 33  1  0
 25 26  1  0
 25 50  1  0
 26 27  2  0
 26 51  1  0
 27 28  1  0
 27 52  1  0
 28 29  1  0
 28 33  2  0
 29 30  2  0
 29 53  1  0
 30 31  1  0
 30 54  1  0
 31 32  2  0
 31 55  1  0
 32 33  1  0
M  END

