
     RDKit          3D

 38 38  0  0  0  0  0  0  0  0999 V2000
    4.2864    5.2797    0.5894 C   0  0  0  0  0  0  0  0  0  0  0  0
    4.0446    3.8850    0.0091 C   0  0  0  0  0  0  0  0  0  0  0  0
    4.9838    2.8287    0.6025 C   0  0  0  0  0  0  0  0  0  0  0  0
    4.7415    1.3841    0.1171 C   0  0  1  0  0  0  0  0  0  0  0  0
    5.0645    1.1907   -1.3732 C   0  0  0  0  0  0  0  0  0  0  0  0
    4.7291   -0.1727   -1.7892 N   0  0  0  0  0  0  0  0  0  0  0  0
    5.4337   -0.7840   -3.2091 S   0  0  1  0  0  0  0  0  0  0  0  0
    4.5061   -1.8309   -3.6477 O   0  0  0  0  0  0  0  0  0  0  0  0
    5.7789    0.3260   -4.1042 O   0  0  0  0  0  0  0  0  0  0  0  0
    6.9721   -1.5114   -2.6354 C   0  0  0  0  0  0  0  0  0  0  0  0
    8.1449   -0.9655   -3.1701 C   0  0  0  0  0  0  0  0  0  0  0  0
    9.3885   -1.4895   -2.8222 C   0  0  0  0  0  0  0  0  0  0  0  0
    9.4207   -2.5633   -1.9380 C   0  0  0  0  0  0  0  0  0  0  0  0
   10.6001   -3.0860   -1.5887 F   0  0  0  0  0  0  0  0  0  0  0  0
    8.2587   -3.1180   -1.4047 C   0  0  0  0  0  0  0  0  0  0  0  0
    6.9985   -2.6078   -1.7412 C   0  0  0  0  0  0  0  0  0  0  0  0
    5.7609   -3.2241   -1.1420 C   0  0  0  0  0  0  0  0  0  0  0  0
    5.6287    0.4253    0.9215 C   0  0  0  0  0  0  0  0  0  0  0  0
    6.8259    0.5042    0.9317 O   0  0  0  0  0  0  0  0  0  0  0  0
    4.9977   -0.5301    1.6428 O   0  0  0  0  0  0  0  0  0  0  0  0
    3.6024    6.0219    0.1488 H   0  0  0  0  0  0  0  0  0  0  0  0
    5.3171    5.6195    0.3957 H   0  0  0  0  0  0  0  0  0  0  0  0
    4.1349    5.2924    1.6816 H   0  0  0  0  0  0  0  0  0  0  0  0
    4.1604    3.9250   -1.0872 H   0  0  0  0  0  0  0  0  0  0  0  0
    2.9961    3.5860    0.1925 H   0  0  0  0  0  0  0  0  0  0  0  0
    4.8830    2.8444    1.7021 H   0  0  0  0  0  0  0  0  0  0  0  0
    6.0361    3.0882    0.3967 H   0  0  0  0  0  0  0  0  0  0  0  0
    3.6748    1.1353    0.2785 H   0  0  0  0  0  0  0  0  0  0  0  0
    6.1467    1.3348   -1.5097 H   0  0  0  0  0  0  0  0  0  0  0  0
    4.5522    1.9464   -1.9905 H   0  0  0  0  0  0  0  0  0  0  0  0
    3.7290   -0.3653   -1.8656 H   0  0  0  0  0  0  0  0  0  0  0  0
    8.0675   -0.1274   -3.8636 H   0  0  0  0  0  0  0  0  0  0  0  0
   10.3182   -1.0826   -3.2227 H   0  0  0  0  0  0  0  0  0  0  0  0
    8.3492   -3.9608   -0.7166 H   0  0  0  0  0  0  0  0  0  0  0  0
    6.0123   -4.1470   -0.6015 H   0  0  0  0  0  0  0  0  0  0  0  0
    5.0166   -3.4495   -1.9183 H   0  0  0  0  0  0  0  0  0  0  0  0
    5.2921   -2.5260   -0.4305 H   0  0  0  0  0  0  0  0  0  0  0  0
    4.0417   -0.4736    1.5076 H   0  0  0  0  0  0  0  0  0  0  0  0
  1  2  1  0
  1 21  1  0
  1 22  1  0
  1 23  1  0
  2  3  1  0
  2 24  1  0
  2 25  1  0
  3  4  1  0
  3 26  1  0
  3 27  1  0
  4  5  1  0
  4 18  1  0
  4 28  1  6
  5  6  1  0
  5 29  1  0
  5 30  1  0
  7  6  1  1
  6 31  1  0
  7  8  2  0
  7  9  2  0
  7 10  1  0
 10 11  2  0
 10 16  1  0
 11 12  1  0
 11 32  1  0
 12 13  2  0
 12 33  1  0
 13 14  1  0
 13 15  1  0
 15 16  2  0
 15 34  1  0
 16 17  1  0
 17 35  1  0
 17 36  1  0
 17 37  1  0
 18 19  2  0
 18 20  1  0
 20 38  1  0
M  END

