
     RDKit          3D

 36 36  0  0  0  0  0  0  0  0999 V2000
    1.5796    2.2134    0.7685 C   0  0  0  0  0  0  0  0  0  0  0  0
    2.9414    1.7724    1.0146 N   0  0  0  0  0  0  0  0  0  0  0  0
    3.9563    2.8117    1.0698 C   0  0  0  0  0  0  0  0  0  0  0  0
    3.2016    0.4260    1.0592 C   0  0  0  0  0  0  0  0  0  0  0  0
    2.3235   -0.4207    0.9633 O   0  0  0  0  0  0  0  0  0  0  0  0
    4.6612   -0.0161    1.2368 C   0  0  0  0  0  0  0  0  0  0  0  0
    5.1974    0.3553    2.5373 N   0  0  0  0  0  0  0  0  0  0  0  0
    6.5763   -0.0633    2.7623 C   0  0  0  0  0  0  0  0  0  0  0  0
    7.0970    0.4635    4.0771 C   0  0  0  0  0  0  0  0  0  0  0  0
    7.2527   -0.3471    5.2071 C   0  0  0  0  0  0  0  0  0  0  0  0
    7.7005    0.1717    6.4256 C   0  0  0  0  0  0  0  0  0  0  0  0
    8.0001    1.5378    6.5477 C   0  0  0  0  0  0  0  0  0  0  0  0
    8.4770    2.1071    7.8331 C   0  0  0  0  0  0  0  0  0  0  0  0
    8.2338    1.4055    8.9940 N   0  0  0  0  0  0  0  0  0  0  0  0
    9.1472    3.2123    7.7900 N   0  0  0  0  0  0  0  0  0  0  0  0
    9.4918    3.6273    9.0846 O   0  0  0  0  0  0  0  0  0  0  0  0
    7.8548    2.3681    5.4224 C   0  0  0  0  0  0  0  0  0  0  0  0
    7.4136    1.8226    4.2271 C   0  0  0  0  0  0  0  0  0  0  0  0
    7.2904    2.6320    3.1594 F   0  0  0  0  0  0  0  0  0  0  0  0
    1.5075    2.7563   -0.1919 H   0  0  0  0  0  0  0  0  0  0  0  0
    1.2388    2.8927    1.5695 H   0  0  0  0  0  0  0  0  0  0  0  0
    0.9269    1.3336    0.7332 H   0  0  0  0  0  0  0  0  0  0  0  0
    3.5574    3.6763    1.6258 H   0  0  0  0  0  0  0  0  0  0  0  0
    4.2396    3.1688    0.0609 H   0  0  0  0  0  0  0  0  0  0  0  0
    4.8432    2.4589    1.6087 H   0  0  0  0  0  0  0  0  0  0  0  0
    5.2925    0.4452    0.4562 H   0  0  0  0  0  0  0  0  0  0  0  0
    4.6555   -1.1079    1.0499 H   0  0  0  0  0  0  0  0  0  0  0  0
    4.5984   -0.0025    3.2808 H   0  0  0  0  0  0  0  0  0  0  0  0
    7.1850    0.3463    1.9382 H   0  0  0  0  0  0  0  0  0  0  0  0
    6.7091   -1.1667    2.7336 H   0  0  0  0  0  0  0  0  0  0  0  0
    7.0298   -1.4148    5.1250 H   0  0  0  0  0  0  0  0  0  0  0  0
    7.8447   -0.4966    7.2763 H   0  0  0  0  0  0  0  0  0  0  0  0
    7.3699    0.8781    9.0371 H   0  0  0  0  0  0  0  0  0  0  0  0
    8.4683    1.9138    9.8406 H   0  0  0  0  0  0  0  0  0  0  0  0
    9.9888    4.4384    8.9250 H   0  0  0  0  0  0  0  0  0  0  0  0
    8.0885    3.4307    5.4873 H   0  0  0  0  0  0  0  0  0  0  0  0
  1  2  1  0
  1 20  1  0
  1 21  1  0
  1 22  1  0
  2  3  1  0
  2  4  1  0
  3 23  1  0
  3 24  1  0
  3 25  1  0
  4  5  2  0
  4  6  1  0
  6  7  1  0
  6 26  1  0
  6 27  1  0
  7  8  1  0
  7 28  1  0
  8  9  1  0
  8 29  1  0
  8 30  1  0
  9 10  2  0
  9 18  1  0
 10 11  1  0
 10 31  1  0
 11 12  2  0
 11 32  1  0
 12 13  1  0
 12 17  1  0
 13 14  1  0
 13 15  2  0
 14 33  1  0
 14 34  1  0
 15 16  1  0
 16 35  1  0
 17 18  2  0
 17 36  1  0
 18 19  1  0
M  END

