
     RDKit          3D

 26 26  0  0  0  0  0  0  0  0999 V2000
    3.4426    0.7035    0.3138 N   0  0  0  0  0  0  0  0  0  0  0  0
    3.1714   -0.7157    0.1157 C   0  0  0  0  0  0  0  0  0  0  0  0
    3.5159   -1.2072   -1.2954 C   0  0  0  0  0  0  0  0  0  0  0  0
    3.1150   -2.2865   -1.7096 O   0  0  0  0  0  0  0  0  0  0  0  0
    4.3194   -0.3650   -1.9925 N   0  0  0  0  0  0  0  0  0  0  0  0
    4.7497   -0.6060   -3.3526 C   0  0  0  0  0  0  0  0  0  0  0  0
    6.2731   -0.7837   -3.4671 C   0  0  0  0  0  0  0  0  0  0  0  0
    6.9360    0.1023   -3.9721 O   0  0  0  0  0  0  0  0  0  0  0  0
    6.9183   -2.0296   -2.9405 C   0  0  0  0  0  0  0  0  0  0  0  0
    8.3234   -2.0995   -2.9754 C   0  0  0  0  0  0  0  0  0  0  0  0
    8.9972   -3.2309   -2.5252 C   0  0  0  0  0  0  0  0  0  0  0  0
    8.2551   -4.3125   -2.0341 C   0  0  0  0  0  0  0  0  0  0  0  0
    9.1655   -5.8672   -1.4154 Br  0  0  0  0  0  0  0  0  0  0  0  0
    6.8592   -4.2686   -1.9910 C   0  0  0  0  0  0  0  0  0  0  0  0
    6.1927   -3.1271   -2.4440 C   0  0  0  0  0  0  0  0  0  0  0  0
    3.6530    0.9129    1.2875 H   0  0  0  0  0  0  0  0  0  0  0  0
    2.6375    1.2735    0.0553 H   0  0  0  0  0  0  0  0  0  0  0  0
    2.1307   -1.0345    0.3097 H   0  0  0  0  0  0  0  0  0  0  0  0
    3.8028   -1.3057    0.8010 H   0  0  0  0  0  0  0  0  0  0  0  0
    4.5603    0.5002   -1.5104 H   0  0  0  0  0  0  0  0  0  0  0  0
    4.4960    0.2502   -3.9966 H   0  0  0  0  0  0  0  0  0  0  0  0
    4.2123   -1.4959   -3.7118 H   0  0  0  0  0  0  0  0  0  0  0  0
    8.8734   -1.2424   -3.3692 H   0  0  0  0  0  0  0  0  0  0  0  0
   10.0869   -3.2803   -2.5538 H   0  0  0  0  0  0  0  0  0  0  0  0
    6.2938   -5.1189   -1.6066 H   0  0  0  0  0  0  0  0  0  0  0  0
    5.1009   -3.1079   -2.3930 H   0  0  0  0  0  0  0  0  0  0  0  0
  1  2  1  0
  1 16  1  0
  1 17  1  0
  2  3  1  0
  2 18  1  0
  2 19  1  0
  3  4  2  0
  3  5  1  0
  5  6  1  0
  5 20  1  0
  6  7  1  0
  6 21  1  0
  6 22  1  0
  7  8  2  0
  7  9  1  0
  9 10  2  0
  9 15  1  0
 10 11  1  0
 10 23  1  0
 11 12  2  0
 11 24  1  0
 12 13  1  0
 12 14  1  0
 14 15  2  0
 14 25  1  0
 15 26  1  0
M  END

