
     RDKit          3D

 79 79  0  0  0  0  0  0  0  0999 V2000
   -0.5138    0.3656   -1.2404 C   0  0  0  0  0  0  0  0  0  0  0  0
   -1.4490    1.4811   -0.8318 C   0  0  0  0  0  0  0  0  0  0  0  0
   -1.6076    2.0521    0.3807 C   0  0  0  0  0  0  0  0  0  0  0  0
   -0.9670    1.8459    1.7320 C   0  0  1  0  0  0  0  0  0  0  0  0
    0.1131    0.8745    1.7640 N   0  0  0  0  0  0  0  0  0  0  0  0
    0.3111   -0.3032    2.4394 C   0  0  0  0  0  0  0  0  0  0  0  0
    1.3129   -0.9623    2.2066 O   0  0  0  0  0  0  0  0  0  0  0  0
   -0.6948   -0.8631    3.4774 C   0  0  1  0  0  0  0  0  0  0  0  0
   -0.0076   -1.4244    4.1301 H   0  0  0  0  0  0  0  0  0  0  0  0
   -1.3669    0.1310    4.3008 N   0  0  0  0  0  0  0  0  0  0  0  0
   -0.6942    0.8384    5.2554 C   0  0  0  0  0  0  0  0  0  0  0  0
    0.5216    0.8041    5.3523 O   0  0  0  0  0  0  0  0  0  0  0  0
   -1.6055    1.7465    6.1334 C   0  0  1  0  0  0  0  0  0  0  0  0
   -2.9370    1.1500    6.2536 N   0  0  0  0  0  0  0  0  0  0  0  0
   -3.1193   -0.0232    7.0867 C   0  0  0  0  0  0  0  0  0  0  0  0
   -4.1004    2.0160    6.2026 C   0  0  0  0  0  0  0  0  0  0  0  0
   -0.8629    2.2905    7.4272 C   0  0  1  0  0  0  0  0  0  0  0  0
   -1.8802    3.0368    8.3246 C   0  0  0  0  0  0  0  0  0  0  0  0
   -0.2537    1.1575    8.2782 C   0  0  0  0  0  0  0  0  0  0  0  0
    0.2125    3.3108    6.9817 C   0  0  0  0  0  0  0  0  0  0  0  0
   -0.1724    4.5180    6.3684 C   0  0  0  0  0  0  0  0  0  0  0  0
    0.7660    5.4788    5.9807 C   0  0  0  0  0  0  0  0  0  0  0  0
    2.1278    5.2578    6.2001 C   0  0  0  0  0  0  0  0  0  0  0  0
    2.5299    4.0655    6.8059 C   0  0  0  0  0  0  0  0  0  0  0  0
    1.5865    3.1076    7.1878 C   0  0  0  0  0  0  0  0  0  0  0  0
   -1.7067   -1.9079    2.8869 C   0  0  1  0  0  0  0  0  0  0  0  0
   -0.9495   -2.9584    2.0512 C   0  0  0  0  0  0  0  0  0  0  0  0
   -2.3918   -2.6379    4.0614 C   0  0  0  0  0  0  0  0  0  0  0  0
   -2.7796   -1.2442    2.0022 C   0  0  0  0  0  0  0  0  0  0  0  0
   -0.5063    3.2040    2.3632 C   0  0  1  0  0  0  0  0  0  0  0  0
    0.5949    3.8953    1.5504 C   0  0  0  0  0  0  0  0  0  0  0  0
   -1.6785    4.1575    2.6271 C   0  0  0  0  0  0  0  0  0  0  0  0
   -2.3405    2.0538   -1.8991 C   0  0  0  0  0  0  0  0  0  0  0  0
   -3.1857    2.9343   -1.7210 O   0  0  0  0  0  0  0  0  0  0  0  0
   -2.2232    1.5222   -3.1498 N   0  0  0  0  0  0  0  0  0  0  0  0
   -2.9382    2.1566   -4.1505 O   0  0  0  0  0  0  0  0  0  0  0  0
   -0.0147   -0.1043   -0.3886 H   0  0  0  0  0  0  0  0  0  0  0  0
    0.2741    0.7314   -1.9238 H   0  0  0  0  0  0  0  0  0  0  0  0
   -1.0675   -0.4230   -1.7762 H   0  0  0  0  0  0  0  0  0  0  0  0
   -2.3748    2.8330    0.3913 H   0  0  0  0  0  0  0  0  0  0  0  0
   -1.7615    1.4686    2.3910 H   0  0  0  0  0  0  0  0  0  0  0  0
    0.9310    1.0991    1.2038 H   0  0  0  0  0  0  0  0  0  0  0  0
   -2.3785    0.1449    4.3916 H   0  0  0  0  0  0  0  0  0  0  0  0
   -1.7597    2.6347    5.4996 H   0  0  0  0  0  0  0  0  0  0  0  0
   -2.2601   -0.7033    6.9926 H   0  0  0  0  0  0  0  0  0  0  0  0
   -4.0187   -0.5733    6.7584 H   0  0  0  0  0  0  0  0  0  0  0  0
   -3.2566    0.2020    8.1648 H   0  0  0  0  0  0  0  0  0  0  0  0
   -3.9244    2.8487    5.5046 H   0  0  0  0  0  0  0  0  0  0  0  0
   -4.3926    2.4516    7.1796 H   0  0  0  0  0  0  0  0  0  0  0  0
   -4.9714    1.4475    5.8305 H   0  0  0  0  0  0  0  0  0  0  0  0
   -2.6321    2.3474    8.7359 H   0  0  0  0  0  0  0  0  0  0  0  0
   -2.4136    3.8375    7.7935 H   0  0  0  0  0  0  0  0  0  0  0  0
   -1.3527    3.4995    9.1729 H   0  0  0  0  0  0  0  0  0  0  0  0
   -1.0393    0.4985    8.6718 H   0  0  0  0  0  0  0  0  0  0  0  0
    0.2726    1.5793    9.1485 H   0  0  0  0  0  0  0  0  0  0  0  0
    0.4565    0.5472    7.7077 H   0  0  0  0  0  0  0  0  0  0  0  0
   -1.2296    4.7304    6.1902 H   0  0  0  0  0  0  0  0  0  0  0  0
    0.4272    6.4072    5.5125 H   0  0  0  0  0  0  0  0  0  0  0  0
    2.8666    6.0060    5.9020 H   0  0  0  0  0  0  0  0  0  0  0  0
    3.5916    3.8704    6.9790 H   0  0  0  0  0  0  0  0  0  0  0  0
    1.9407    2.1804    7.6352 H   0  0  0  0  0  0  0  0  0  0  0  0
   -0.1346   -3.4206    2.6276 H   0  0  0  0  0  0  0  0  0  0  0  0
   -0.4990   -2.5259    1.1472 H   0  0  0  0  0  0  0  0  0  0  0  0
   -1.6474   -3.7516    1.7382 H   0  0  0  0  0  0  0  0  0  0  0  0
   -1.6483   -3.1305    4.7082 H   0  0  0  0  0  0  0  0  0  0  0  0
   -3.0731   -3.4148    3.6798 H   0  0  0  0  0  0  0  0  0  0  0  0
   -2.9888   -1.9611    4.6914 H   0  0  0  0  0  0  0  0  0  0  0  0
   -2.3371   -0.7236    1.1402 H   0  0  0  0  0  0  0  0  0  0  0  0
   -3.3969   -0.5170    2.5552 H   0  0  0  0  0  0  0  0  0  0  0  0
   -3.4676   -2.0089    1.6078 H   0  0  0  0  0  0  0  0  0  0  0  0
   -0.0732    2.9229    3.3374 H   0  0  0  0  0  0  0  0  0  0  0  0
    0.2329    4.2007    0.5545 H   0  0  0  0  0  0  0  0  0  0  0  0
    1.4758    3.2481    1.4122 H   0  0  0  0  0  0  0  0  0  0  0  0
    0.9452    4.7991    2.0728 H   0  0  0  0  0  0  0  0  0  0  0  0
   -2.0910    4.5829    1.6982 H   0  0  0  0  0  0  0  0  0  0  0  0
   -1.3457    5.0003    3.2527 H   0  0  0  0  0  0  0  0  0  0  0  0
   -2.5038    3.6542    3.1586 H   0  0  0  0  0  0  0  0  0  0  0  0
   -1.3874    1.0717   -3.5024 H   0  0  0  0  0  0  0  0  0  0  0  0
   -3.4371    2.8193   -3.6182 H   0  0  0  0  0  0  0  0  0  0  0  0
  1  2  1  0
  1 37  1  0
  1 38  1  0
  1 39  1  0
  2  3  2  0
  2 33  1  0
  3  4  1  0
  3 40  1  0
  4  5  1  0
  4 30  1  0
  4 41  1  1
  5  6  1  0
  5 42  1  0
  6  7  2  0
  6  8  1  0
  8  9  1  1
  8 10  1  0
  8 26  1  0
 10 11  1  0
 10 43  1  0
 11 12  2  0
 11 13  1  0
 13 14  1  0
 13 17  1  0
 13 44  1  6
 14 15  1  0
 14 16  1  0
 15 45  1  0
 15 46  1  0
 15 47  1  0
 16 48  1  0
 16 49  1  0
 16 50  1  0
 17 18  1  1
 17 19  1  0
 17 20  1  0
 18 51  1  0
 18 52  1  0
 18 53  1  0
 19 54  1  0
 19 55  1  0
 19 56  1  0
 20 21  2  0
 20 25  1  0
 21 22  1  0
 21 57  1  0
 22 23  2  0
 22 58  1  0
 23 24  1  0
 23 59  1  0
 24 25  2  0
 24 60  1  0
 25 61  1  0
 26 27  1  6
 26 28  1  0
 26 29  1  0
 27 62  1  0
 27 63  1  0
 27 64  1  0
 28 65  1  0
 28 66  1  0
 28 67  1  0
 29 68  1  0
 29 69  1  0
 29 70  1  0
 30 31  1  0
 30 32  1  0
 30 71  1  1
 31 72  1  0
 31 73  1  0
 31 74  1  0
 32 75  1  0
 32 76  1  0
 32 77  1  0
 33 34  2  0
 33 35  1  0
 35 36  1  0
 35 78  1  0
 36 79  1  0
M  END

