
     RDKit          3D

 42 43  0  0  0  0  0  0  0  0999 V2000
    1.1116   -0.1337    1.0720 C   0  0  0  0  0  0  0  0  0  0  0  0
    2.5468   -0.0813    0.6196 C   0  0  0  0  0  0  0  0  0  0  0  0
    2.9257    0.1282   -0.7130 C   0  0  0  0  0  0  0  0  0  0  0  0
    4.2700    0.1653   -1.0969 C   0  0  0  0  0  0  0  0  0  0  0  0
    5.2919   -0.0025   -0.1527 C   0  0  0  0  0  0  0  0  0  0  0  0
    6.7569    0.0861   -0.5572 C   0  0  1  0  0  0  0  0  0  0  0  0
    7.3082    1.4961   -0.2850 C   0  0  0  0  0  0  0  0  0  0  0  0
    7.5281   -0.9350    0.1506 N   0  0  0  0  0  0  0  0  0  0  0  0
    8.9195   -1.1645   -0.2670 C   0  0  1  0  0  0  0  0  0  0  0  0
    9.9027   -0.6860    0.8099 C   0  0  0  0  0  0  0  0  0  0  0  0
    9.1609   -2.6453   -0.6044 C   0  0  0  0  0  0  0  0  0  0  0  0
    8.3956   -3.1487   -1.8420 C   0  0  0  0  0  0  0  0  0  0  0  0
    8.6446   -4.5841   -2.1632 C   0  0  0  0  0  0  0  0  0  0  0  0
    7.8461   -5.6955   -2.2070 C   0  0  0  0  0  0  0  0  0  0  0  0
    8.6928   -6.7949   -2.5775 C   0  0  0  0  0  0  0  0  0  0  0  0
    9.9426   -6.2698   -2.7284 C   0  0  0  0  0  0  0  0  0  0  0  0
    9.9247   -4.9337   -2.4799 O   0  0  0  0  0  0  0  0  0  0  0  0
    4.9325   -0.2138    1.1878 C   0  0  0  0  0  0  0  0  0  0  0  0
    3.5892   -0.2499    1.5405 C   0  0  0  0  0  0  0  0  0  0  0  0
    3.2658   -0.4581    2.8320 F   0  0  0  0  0  0  0  0  0  0  0  0
    0.4254    0.0203    0.2269 H   0  0  0  0  0  0  0  0  0  0  0  0
    0.9019    0.6382    1.8307 H   0  0  0  0  0  0  0  0  0  0  0  0
    0.8723   -1.1043    1.5371 H   0  0  0  0  0  0  0  0  0  0  0  0
    2.1452    0.2597   -1.4679 H   0  0  0  0  0  0  0  0  0  0  0  0
    4.5262    0.3249   -2.1478 H   0  0  0  0  0  0  0  0  0  0  0  0
    6.7970   -0.0662   -1.6599 H   0  0  0  0  0  0  0  0  0  0  0  0
    7.2709    1.7235    0.7917 H   0  0  0  0  0  0  0  0  0  0  0  0
    6.7136    2.2502   -0.8229 H   0  0  0  0  0  0  0  0  0  0  0  0
    8.3524    1.5893   -0.6224 H   0  0  0  0  0  0  0  0  0  0  0  0
    7.0050   -1.8067    0.1605 H   0  0  0  0  0  0  0  0  0  0  0  0
    9.1171   -0.5860   -1.1926 H   0  0  0  0  0  0  0  0  0  0  0  0
    9.7645   -1.2666    1.7364 H   0  0  0  0  0  0  0  0  0  0  0  0
    9.7316    0.3724    1.0552 H   0  0  0  0  0  0  0  0  0  0  0  0
   10.9486   -0.8003    0.4800 H   0  0  0  0  0  0  0  0  0  0  0  0
    8.8918   -3.2620    0.2730 H   0  0  0  0  0  0  0  0  0  0  0  0
   10.2385   -2.8046   -0.7689 H   0  0  0  0  0  0  0  0  0  0  0  0
    8.6748   -2.5259   -2.7119 H   0  0  0  0  0  0  0  0  0  0  0  0
    7.3101   -3.0212   -1.7059 H   0  0  0  0  0  0  0  0  0  0  0  0
    6.7778   -5.7253   -2.0019 H   0  0  0  0  0  0  0  0  0  0  0  0
    8.4058   -7.8358   -2.7125 H   0  0  0  0  0  0  0  0  0  0  0  0
   10.9060   -6.6947   -2.9981 H   0  0  0  0  0  0  0  0  0  0  0  0
    5.6953   -0.3582    1.9546 H   0  0  0  0  0  0  0  0  0  0  0  0
  1  2  1  0
  1 21  1  0
  1 22  1  0
  1 23  1  0
  2  3  2  0
  2 19  1  0
  3  4  1  0
  3 24  1  0
  4  5  2  0
  4 25  1  0
  5  6  1  0
  5 18  1  0
  6  7  1  0
  6  8  1  0
  6 26  1  6
  7 27  1  0
  7 28  1  0
  7 29  1  0
  8  9  1  0
  8 30  1  0
  9 10  1  0
  9 11  1  0
  9 31  1  6
 10 32  1  0
 10 33  1  0
 10 34  1  0
 11 12  1  0
 11 35  1  0
 11 36  1  0
 12 13  1  0
 12 37  1  0
 12 38  1  0
 13 14  2  0
 13 17  1  0
 14 15  1  0
 14 39  1  0
 15 16  2  0
 15 40  1  0
 16 17  1  0
 16 41  1  0
 18 19  2  0
 18 42  1  0
 19 20  1  0
M  END

