
     RDKit          3D

 54 58  0  0  0  0  0  0  0  0999 V2000
    1.9556    0.2740    0.6111 C   0  0  0  0  0  0  0  0  0  0  0  0
    2.1009    0.8580   -0.6635 O   0  0  0  0  0  0  0  0  0  0  0  0
    2.6149    0.1220   -1.6788 C   0  0  0  0  0  0  0  0  0  0  0  0
    2.7305    0.7710   -2.9227 C   0  0  0  0  0  0  0  0  0  0  0  0
    3.2452    0.0987   -4.0200 C   0  0  0  0  0  0  0  0  0  0  0  0
    3.6664   -1.2463   -3.9278 C   0  0  0  0  0  0  0  0  0  0  0  0
    4.2125   -1.9236   -5.1359 C   0  0  0  0  0  0  0  0  0  0  0  0
    4.6450   -3.2888   -5.0986 C   0  0  0  0  0  0  0  0  0  0  0  0
    5.1430   -3.8690   -6.2410 C   0  0  0  0  0  0  0  0  0  0  0  0
    5.2199   -3.1099   -7.4345 C   0  0  0  0  0  0  0  0  0  0  0  0
    5.7150   -3.5925   -8.6720 C   0  0  0  0  0  0  0  0  0  0  0  0
    5.7401   -2.7582   -9.7631 C   0  0  0  0  0  0  0  0  0  0  0  0
    5.2621   -1.4124   -9.6332 C   0  0  0  0  0  0  0  0  0  0  0  0
    5.2674   -0.4740  -10.7830 C   0  0  0  0  0  0  0  0  0  0  0  0
    4.8447    0.8552  -10.6009 C   0  0  0  0  0  0  0  0  0  0  0  0
    4.8365    1.7738  -11.6441 C   0  0  0  0  0  0  0  0  0  0  0  0
    5.2423    1.4101  -12.9513 C   0  0  0  0  0  0  0  0  0  0  0  0
    5.1982    2.3081  -14.0200 N   0  0  0  0  0  0  0  0  0  0  0  0
    6.2440    2.2742  -15.0432 C   0  0  0  0  0  0  0  0  0  0  0  0
    5.7586    2.8916  -16.3519 C   0  0  0  0  0  0  0  0  0  0  0  0
    5.2851    4.2428  -16.1000 N   0  0  0  0  0  0  0  0  0  0  0  0
    4.1793    4.2378  -15.1568 C   0  0  0  0  0  0  0  0  0  0  0  0
    4.6294    3.6366  -13.8249 C   0  0  0  0  0  0  0  0  0  0  0  0
    5.6696    0.0722  -13.1326 C   0  0  0  0  0  0  0  0  0  0  0  0
    5.6798   -0.8353  -12.0801 C   0  0  0  0  0  0  0  0  0  0  0  0
    4.7992   -0.9525   -8.4796 N   0  0  0  0  0  0  0  0  0  0  0  0
    4.7648   -1.7503   -7.3876 C   0  0  0  0  0  0  0  0  0  0  0  0
    4.2797   -1.2061   -6.2465 N   0  0  0  0  0  0  0  0  0  0  0  0
    3.5447   -1.8786   -2.6809 C   0  0  0  0  0  0  0  0  0  0  0  0
    3.0276   -1.2140   -1.5647 C   0  0  0  0  0  0  0  0  0  0  0  0
    1.5259    1.0467    1.2628 H   0  0  0  0  0  0  0  0  0  0  0  0
    2.9264   -0.0472    1.0300 H   0  0  0  0  0  0  0  0  0  0  0  0
    1.2737   -0.5954    0.5903 H   0  0  0  0  0  0  0  0  0  0  0  0
    2.4050    1.8109   -2.9955 H   0  0  0  0  0  0  0  0  0  0  0  0
    3.3380    0.5953   -4.9867 H   0  0  0  0  0  0  0  0  0  0  0  0
    4.5828   -3.8686   -4.1783 H   0  0  0  0  0  0  0  0  0  0  0  0
    5.4805   -4.9099   -6.2391 H   0  0  0  0  0  0  0  0  0  0  0  0
    6.0743   -4.6233   -8.7461 H   0  0  0  0  0  0  0  0  0  0  0  0
    6.1251   -3.1214  -10.7155 H   0  0  0  0  0  0  0  0  0  0  0  0
    4.5314    1.1568   -9.6003 H   0  0  0  0  0  0  0  0  0  0  0  0
    4.5250    2.7950  -11.4276 H   0  0  0  0  0  0  0  0  0  0  0  0
    6.5571    1.2402  -15.2275 H   0  0  0  0  0  0  0  0  0  0  0  0
    7.1360    2.8360  -14.6941 H   0  0  0  0  0  0  0  0  0  0  0  0
    4.9726    2.2297  -16.7829 H   0  0  0  0  0  0  0  0  0  0  0  0
    6.5979    2.9223  -17.0655 H   0  0  0  0  0  0  0  0  0  0  0  0
    5.0218    4.7056  -16.9674 H   0  0  0  0  0  0  0  0  0  0  0  0
    3.3037    3.6538  -15.5219 H   0  0  0  0  0  0  0  0  0  0  0  0
    3.8396    5.2715  -14.9821 H   0  0  0  0  0  0  0  0  0  0  0  0
    3.7543    3.5606  -13.1655 H   0  0  0  0  0  0  0  0  0  0  0  0
    5.3594    4.3216  -13.3437 H   0  0  0  0  0  0  0  0  0  0  0  0
    5.9721   -0.2778  -14.1199 H   0  0  0  0  0  0  0  0  0  0  0  0
    6.0073   -1.8540  -12.2958 H   0  0  0  0  0  0  0  0  0  0  0  0
    3.8553   -2.9166   -2.5512 H   0  0  0  0  0  0  0  0  0  0  0  0
    2.9530   -1.7476   -0.6171 H   0  0  0  0  0  0  0  0  0  0  0  0
  1  2  1  0
  1 31  1  0
  1 32  1  0
  1 33  1  0
  2  3  1  0
  3  4  2  0
  3 30  1  0
  4  5  1  0
  4 34  1  0
  5  6  2  0
  5 35  1  0
  6  7  1  0
  6 29  1  0
  7  8  2  0
  7 28  1  0
  8  9  1  0
  8 36  1  0
  9 10  2  0
  9 37  1  0
 10 11  1  0
 10 27  1  0
 11 12  2  0
 11 38  1  0
 12 13  1  0
 12 39  1  0
 13 14  1  0
 13 26  2  0
 14 15  2  0
 14 25  1  0
 15 16  1  0
 15 40  1  0
 16 17  2  0
 16 41  1  0
 17 18  1  0
 17 24  1  0
 18 19  1  0
 18 23  1  0
 19 20  1  0
 19 42  1  0
 19 43  1  0
 20 21  1  0
 20 44  1  0
 20 45  1  0
 21 22  1  0
 21 46  1  0
 22 23  1  0
 22 47  1  0
 22 48  1  0
 23 49  1  0
 23 50  1  0
 24 25  2  0
 24 51  1  0
 25 52  1  0
 26 27  1  0
 27 28  2  0
 29 30  2  0
 29 53  1  0
 30 54  1  0
M  END

