
     RDKit          3D

 16 15  0  0  0  0  0  0  0  0999 V2000
    1.7000   -0.0933   -0.6558 O   0  0  0  0  0  0  0  0  0  0  0  0
    2.6681   -0.0827    0.4748 P   0  0  1  0  0  0  0  0  0  0  0  0
    2.5545    1.2270    1.4365 O   0  0  0  0  0  0  0  0  0  0  0  0
    2.5081   -1.3576    1.4814 O   0  0  0  0  0  0  0  0  0  0  0  0
    4.4397   -0.1112    0.1139 C   0  0  0  0  0  0  0  0  0  0  0  0
    4.8636   -1.3207   -0.7243 C   0  0  0  0  0  0  0  0  0  0  0  0
    6.2770   -1.2032   -1.0722 N   0  0  0  0  0  0  0  0  0  0  0  0
    6.9076   -2.4164   -2.1330 S   0  0  0  0  0  0  0  0  0  0  0  0
    1.7130    1.6834    1.2834 H   0  0  0  0  0  0  0  0  0  0  0  0
    1.6572   -1.7973    1.3318 H   0  0  0  0  0  0  0  0  0  0  0  0
    4.9732   -0.0803    1.0793 H   0  0  0  0  0  0  0  0  0  0  0  0
    4.6749    0.8229   -0.4206 H   0  0  0  0  0  0  0  0  0  0  0  0
    4.2822   -1.3387   -1.6594 H   0  0  0  0  0  0  0  0  0  0  0  0
    4.6155   -2.2511   -0.1750 H   0  0  0  0  0  0  0  0  0  0  0  0
    6.8676   -1.1431   -0.2439 H   0  0  0  0  0  0  0  0  0  0  0  0
    7.1545   -1.6128   -3.2013 H   0  0  0  0  0  0  0  0  0  0  0  0
  1  2  2  0
  2  3  1  1
  2  4  1  0
  2  5  1  0
  3  9  1  0
  4 10  1  0
  5  6  1  0
  5 11  1  0
  5 12  1  0
  6  7  1  0
  6 13  1  0
  6 14  1  0
  7  8  1  0
  7 15  1  0
  8 16  1  0
M  END

