
     RDKit          3D

 56 60  0  0  0  0  0  0  0  0999 V2000
    1.8641    0.7503    1.6075 O   0  0  0  0  0  0  0  0  0  0  0  0
    2.6202    0.5703    0.6901 C   0  0  0  0  0  0  0  0  0  0  0  0
    2.8201   -0.7261   -0.0962 C   0  0  2  0  0  0  0  0  0  0  0  0
    1.8828   -0.9170   -0.6405 H   0  0  0  0  0  0  0  0  0  0  0  0
    3.2477   -1.9726    0.7240 C   0  0  2  0  0  0  0  0  0  0  0  0
    3.0066   -2.8499    0.0912 H   0  0  0  0  0  0  0  0  0  0  0  0
    2.5613   -2.1863    2.0601 C   0  0  0  0  0  0  0  0  0  0  0  0
    1.3185   -2.8389    2.0982 C   0  0  0  0  0  0  0  0  0  0  0  0
    0.6511   -3.0415    3.3037 C   0  0  0  0  0  0  0  0  0  0  0  0
    1.2501   -2.5938    4.4819 C   0  0  0  0  0  0  0  0  0  0  0  0
    0.5555   -2.8107    5.7678 N   0  0  0  0  0  0  0  0  0  0  0  0
   -0.5280   -3.3718    5.7364 O   0  0  0  0  0  0  0  0  0  0  0  0
    1.1080   -2.4149    6.7818 O   0  0  0  0  0  0  0  0  0  0  0  0
    2.4897   -1.9549    4.4792 C   0  0  0  0  0  0  0  0  0  0  0  0
    3.1389   -1.7523    3.2623 C   0  0  0  0  0  0  0  0  0  0  0  0
    4.6881   -1.7675    0.8322 N   0  0  0  0  0  0  0  0  0  0  0  0
    5.2072   -1.2975   -0.4435 C   0  0  1  0  0  0  0  0  0  0  0  0
    6.5399   -0.5174   -0.2298 C   0  0  0  0  0  0  0  0  0  0  0  0
    7.6595   -1.3562    0.3518 C   0  0  0  0  0  0  0  0  0  0  0  0
    8.5428   -2.0664   -0.4780 C   0  0  0  0  0  0  0  0  0  0  0  0
    9.5647   -2.8485    0.0665 C   0  0  0  0  0  0  0  0  0  0  0  0
    9.7221   -2.9330    1.4526 C   0  0  0  0  0  0  0  0  0  0  0  0
    8.8528   -2.2279    2.2901 C   0  0  0  0  0  0  0  0  0  0  0  0
    7.8317   -1.4461    1.7433 C   0  0  0  0  0  0  0  0  0  0  0  0
    5.4492   -2.4790   -1.4225 C   0  0  0  0  0  0  0  0  0  0  0  0
    5.2761   -3.6281   -1.1244 O   0  0  0  0  0  0  0  0  0  0  0  0
    5.8699   -2.1425   -2.6618 O   0  0  0  0  0  0  0  0  0  0  0  0
    4.0136   -0.4321   -1.0169 C   0  0  2  0  0  0  0  0  0  0  0  0
    3.8282   -0.6736   -2.0723 H   0  0  0  0  0  0  0  0  0  0  0  0
    4.2325    1.0713   -0.9279 C   0  0  0  0  0  0  0  0  0  0  0  0
    4.9602    1.7205   -1.6414 O   0  0  0  0  0  0  0  0  0  0  0  0
    3.4441    1.5672    0.1156 N   0  0  0  0  0  0  0  0  0  0  0  0
    3.4398    2.9357    0.5353 C   0  0  0  0  0  0  0  0  0  0  0  0
    3.4308    3.2467    1.9027 C   0  0  0  0  0  0  0  0  0  0  0  0
    3.4222    4.5790    2.3157 C   0  0  0  0  0  0  0  0  0  0  0  0
    3.4327    5.5880    1.3552 C   0  0  0  0  0  0  0  0  0  0  0  0
    3.4298    6.8668    1.7503 F   0  0  0  0  0  0  0  0  0  0  0  0
    3.4460    5.2969   -0.0070 C   0  0  0  0  0  0  0  0  0  0  0  0
    3.4440    3.9639   -0.4181 C   0  0  0  0  0  0  0  0  0  0  0  0
    0.8663   -3.1995    1.1702 H   0  0  0  0  0  0  0  0  0  0  0  0
   -0.3148   -3.5432    3.3521 H   0  0  0  0  0  0  0  0  0  0  0  0
    2.9220   -1.6267    5.4240 H   0  0  0  0  0  0  0  0  0  0  0  0
    4.1088   -1.2541    3.2345 H   0  0  0  0  0  0  0  0  0  0  0  0
    5.1731   -2.6117    1.1355 H   0  0  0  0  0  0  0  0  0  0  0  0
    6.3145    0.3133    0.4538 H   0  0  0  0  0  0  0  0  0  0  0  0
    6.8613   -0.0532   -1.1749 H   0  0  0  0  0  0  0  0  0  0  0  0
    8.4320   -2.0090   -1.5640 H   0  0  0  0  0  0  0  0  0  0  0  0
   10.2420   -3.3922   -0.5968 H   0  0  0  0  0  0  0  0  0  0  0  0
   10.5227   -3.5425    1.8789 H   0  0  0  0  0  0  0  0  0  0  0  0
    8.9733   -2.2816    3.3751 H   0  0  0  0  0  0  0  0  0  0  0  0
    7.1609   -0.8902    2.4033 H   0  0  0  0  0  0  0  0  0  0  0  0
    5.9913   -1.1840   -2.7432 H   0  0  0  0  0  0  0  0  0  0  0  0
    3.4150    2.4499    2.6450 H   0  0  0  0  0  0  0  0  0  0  0  0
    3.4096    4.8442    3.3743 H   0  0  0  0  0  0  0  0  0  0  0  0
    3.4543    6.1135   -0.7312 H   0  0  0  0  0  0  0  0  0  0  0  0
    3.4606    3.7254   -1.4806 H   0  0  0  0  0  0  0  0  0  0  0  0
  1  2  2  0
  2  3  1  0
  2 32  1  0
  3  4  1  6
  3  5  1  0
  3 28  1  0
  5  6  1  6
  5  7  1  0
  5 16  1  0
  7  8  2  0
  7 15  1  0
  8  9  1  0
  8 40  1  0
  9 10  2  0
  9 41  1  0
 10 11  1  0
 10 14  1  0
 11 12  2  0
 11 13  1  0
 14 15  2  0
 14 42  1  0
 15 43  1  0
 16 17  1  0
 16 44  1  0
 17 18  1  0
 17 25  1  6
 17 28  1  0
 18 19  1  0
 18 45  1  0
 18 46  1  0
 19 20  2  0
 19 24  1  0
 20 21  1  0
 20 47  1  0
 21 22  2  0
 21 48  1  0
 22 23  1  0
 22 49  1  0
 23 24  2  0
 23 50  1  0
 24 51  1  0
 25 26  2  0
 25 27  1  0
 27 52  1  0
 28 29  1  6
 28 30  1  0
 30 31  2  0
 30 32  1  0
 32 33  1  0
 33 34  2  0
 33 39  1  0
 34 35  1  0
 34 53  1  0
 35 36  2  0
 35 54  1  0
 36 37  1  0
 36 38  1  0
 38 39  2  0
 38 55  1  0
 39 56  1  0
M  CHG  2  11   1  13  -1
M  END

