
     RDKit          3D

 57 60  0  0  0  0  0  0  0  0999 V2000
    5.6375    0.6428    5.0881 C   0  0  0  0  0  0  0  0  0  0  0  0
    5.9100    0.7035    3.5924 C   0  0  0  0  0  0  0  0  0  0  0  0
    5.4018    1.5321    2.8653 O   0  0  0  0  0  0  0  0  0  0  0  0
    6.7933   -0.2704    3.1523 N   0  0  0  0  0  0  0  0  0  0  0  0
    7.2765   -0.5126    1.8597 C   0  0  0  0  0  0  0  0  0  0  0  0
    6.9076    0.2547    0.7354 C   0  0  0  0  0  0  0  0  0  0  0  0
    7.4373   -0.0606   -0.5105 C   0  0  0  0  0  0  0  0  0  0  0  0
    8.3377   -1.1275   -0.6900 C   0  0  0  0  0  0  0  0  0  0  0  0
    8.8367   -1.3932   -2.0712 C   0  0  0  0  0  0  0  0  0  0  0  0
    8.4452   -0.7437   -3.0230 O   0  0  0  0  0  0  0  0  0  0  0  0
    9.8698   -2.5133   -2.3059 C   0  0  1  0  0  0  0  0  0  0  0  0
    9.8647   -3.0127   -3.7457 C   0  0  0  0  0  0  0  0  0  0  0  0
   11.5354   -1.8096   -1.8656 S   0  0  0  0  0  0  0  0  0  0  0  0
   12.1165   -3.0147   -0.7274 C   0  0  0  0  0  0  0  0  0  0  0  0
   11.4571   -4.0515   -0.3011 N   0  0  0  0  0  0  0  0  0  0  0  0
   12.3129   -4.7463    0.5545 C   0  0  0  0  0  0  0  0  0  0  0  0
   12.0964   -5.8927    1.2548 C   0  0  0  0  0  0  0  0  0  0  0  0
   10.9209   -6.7470    1.3255 C   0  0  0  0  0  0  0  0  0  0  0  0
    9.7456   -6.5245    0.5709 C   0  0  0  0  0  0  0  0  0  0  0  0
    8.6565   -7.3858    0.6879 C   0  0  0  0  0  0  0  0  0  0  0  0
    8.7079   -8.4851    1.5543 C   0  0  0  0  0  0  0  0  0  0  0  0
    9.8638   -8.7214    2.3059 C   0  0  0  0  0  0  0  0  0  0  0  0
   10.9565   -7.8637    2.1911 C   0  0  0  0  0  0  0  0  0  0  0  0
   13.6204   -4.0261    0.6272 C   0  0  0  0  0  0  0  0  0  0  0  0
   14.6390   -4.2786    1.2269 O   0  0  0  0  0  0  0  0  0  0  0  0
   13.4099   -2.9036   -0.2193 N   0  0  0  0  0  0  0  0  0  0  0  0
   14.3756   -1.8849   -0.4618 C   0  0  0  0  0  0  0  0  0  0  0  0
   15.6494   -2.2377   -0.9297 C   0  0  0  0  0  0  0  0  0  0  0  0
   16.6145   -1.2539   -1.1423 C   0  0  0  0  0  0  0  0  0  0  0  0
   16.2900    0.0788   -0.8942 C   0  0  0  0  0  0  0  0  0  0  0  0
   17.2123    1.0253   -1.1072 F   0  0  0  0  0  0  0  0  0  0  0  0
   15.0317    0.4498   -0.4254 C   0  0  0  0  0  0  0  0  0  0  0  0
   14.0764   -0.5411   -0.1950 C   0  0  0  0  0  0  0  0  0  0  0  0
    8.6999   -1.8871    0.4380 C   0  0  0  0  0  0  0  0  0  0  0  0
    8.1769   -1.5832    1.6898 C   0  0  0  0  0  0  0  0  0  0  0  0
    4.8967    1.4115    5.3375 H   0  0  0  0  0  0  0  0  0  0  0  0
    6.5596    0.8312    5.6625 H   0  0  0  0  0  0  0  0  0  0  0  0
    5.2504   -0.3458    5.3843 H   0  0  0  0  0  0  0  0  0  0  0  0
    7.1456   -0.9027    3.8622 H   0  0  0  0  0  0  0  0  0  0  0  0
    6.2128    1.0816    0.8595 H   0  0  0  0  0  0  0  0  0  0  0  0
    7.1564    0.5251   -1.3880 H   0  0  0  0  0  0  0  0  0  0  0  0
    9.7304   -3.3410   -1.5993 H   0  0  0  0  0  0  0  0  0  0  0  0
   10.0409   -2.1890   -4.4510 H   0  0  0  0  0  0  0  0  0  0  0  0
    8.8792   -3.4448   -3.9834 H   0  0  0  0  0  0  0  0  0  0  0  0
   10.6311   -3.7874   -3.8891 H   0  0  0  0  0  0  0  0  0  0  0  0
   12.9555   -6.2058    1.8575 H   0  0  0  0  0  0  0  0  0  0  0  0
    9.7093   -5.6725   -0.1070 H   0  0  0  0  0  0  0  0  0  0  0  0
    7.7563   -7.2011    0.0959 H   0  0  0  0  0  0  0  0  0  0  0  0
    7.8499   -9.1567    1.6406 H   0  0  0  0  0  0  0  0  0  0  0  0
    9.9133   -9.5787    2.9820 H   0  0  0  0  0  0  0  0  0  0  0  0
   11.8595   -8.0518    2.7782 H   0  0  0  0  0  0  0  0  0  0  0  0
   15.8853   -3.2857   -1.1172 H   0  0  0  0  0  0  0  0  0  0  0  0
   17.6136   -1.5049   -1.5030 H   0  0  0  0  0  0  0  0  0  0  0  0
   14.8175    1.5027   -0.2337 H   0  0  0  0  0  0  0  0  0  0  0  0
   13.0940   -0.2683    0.1938 H   0  0  0  0  0  0  0  0  0  0  0  0
    9.3966   -2.7235    0.3567 H   0  0  0  0  0  0  0  0  0  0  0  0
    8.4694   -2.1866    2.5545 H   0  0  0  0  0  0  0  0  0  0  0  0
  1  2  1  0
  1 36  1  0
  1 37  1  0
  1 38  1  0
  2  3  2  0
  2  4  1  0
  4  5  1  0
  4 39  1  0
  5  6  2  0
  5 35  1  0
  6  7  1  0
  6 40  1  0
  7  8  2  0
  7 41  1  0
  8  9  1  0
  8 34  1  0
  9 10  2  0
  9 11  1  0
 11 12  1  0
 11 13  1  0
 11 42  1  1
 12 43  1  0
 12 44  1  0
 12 45  1  0
 13 14  1  0
 14 15  2  0
 14 26  1  0
 15 16  1  0
 16 17  2  0
 16 24  1  0
 17 18  1  0
 17 46  1  0
 18 19  2  0
 18 23  1  0
 19 20  1  0
 19 47  1  0
 20 21  2  0
 20 48  1  0
 21 22  1  0
 21 49  1  0
 22 23  2  0
 22 50  1  0
 23 51  1  0
 24 25  2  0
 24 26  1  0
 26 27  1  0
 27 28  2  0
 27 33  1  0
 28 29  1  0
 28 52  1  0
 29 30  2  0
 29 53  1  0
 30 31  1  0
 30 32  1  0
 32 33  2  0
 32 54  1  0
 33 55  1  0
 34 35  2  0
 34 56  1  0
 35 57  1  0
M  END

