
     RDKit          3D

 57 61  0  0  0  0  0  0  0  0999 V2000
    2.1806    3.0374   -2.9335 O   0  0  0  0  0  0  0  0  0  0  0  0
    1.0641    3.1384   -2.4495 C   0  0  0  0  0  0  0  0  0  0  0  0
    0.8229    2.8893   -0.9501 C   0  0  0  0  0  0  0  0  0  0  0  0
    2.3053    2.3021   -0.0621 S   0  0  0  0  0  0  0  0  0  0  0  0
    3.2811    3.7714   -0.1517 C   0  0  0  0  0  0  0  0  0  0  0  0
    2.8966    4.9025    0.3760 N   0  0  0  0  0  0  0  0  0  0  0  0
    3.8522    5.8484    0.1469 N   0  0  0  0  0  0  0  0  0  0  0  0
    4.8303    5.2661   -0.5051 C   0  0  0  0  0  0  0  0  0  0  0  0
    6.0182    5.8429   -0.9025 N   0  0  0  0  0  0  0  0  0  0  0  0
    6.3653    7.2724   -0.6270 C   0  0  1  0  0  0  0  0  0  0  0  0
    5.4931    8.3088   -1.3778 C   0  0  0  0  0  0  0  0  0  0  0  0
    4.3229    8.9208   -0.5942 C   0  0  0  0  0  0  0  0  0  0  0  0
    4.7659    9.3949    0.7957 C   0  0  0  0  0  0  0  0  0  0  0  0
    5.3799    8.2447    1.6039 C   0  0  0  0  0  0  0  0  0  0  0  0
    6.5728    7.6163    0.8689 C   0  0  0  0  0  0  0  0  0  0  0  0
    6.9788    5.0854   -1.5937 C   0  0  0  0  0  0  0  0  0  0  0  0
    8.0468    5.5608   -1.9402 O   0  0  0  0  0  0  0  0  0  0  0  0
    6.6179    3.6750   -1.8923 C   0  0  0  0  0  0  0  0  0  0  0  0
    7.5370    2.9022   -2.6211 C   0  0  0  0  0  0  0  0  0  0  0  0
    7.2463    1.5842   -2.9504 C   0  0  0  0  0  0  0  0  0  0  0  0
    6.0199    1.0310   -2.5565 C   0  0  0  0  0  0  0  0  0  0  0  0
    5.0933    1.7764   -1.8323 C   0  0  0  0  0  0  0  0  0  0  0  0
    5.3959    3.1023   -1.4893 C   0  0  0  0  0  0  0  0  0  0  0  0
    4.5358    3.9367   -0.7490 N   0  0  0  0  0  0  0  0  0  0  0  0
   -0.0314    3.4943   -3.1923 N   0  0  0  0  0  0  0  0  0  0  0  0
    0.1339    3.7825   -4.6191 C   0  0  0  0  0  0  0  0  0  0  0  0
   -0.8421    2.9572   -5.4634 C   0  0  0  0  0  0  0  0  0  0  0  0
   -2.2873    3.1474   -4.9861 C   0  0  0  0  0  0  0  0  0  0  0  0
   -2.4047    2.8708   -3.4824 C   0  0  0  0  0  0  0  0  0  0  0  0
   -1.3868    3.6979   -2.6861 C   0  0  0  0  0  0  0  0  0  0  0  0
    0.0656    2.1078   -0.7828 H   0  0  0  0  0  0  0  0  0  0  0  0
    0.4768    3.8063   -0.4505 H   0  0  0  0  0  0  0  0  0  0  0  0
    7.3558    7.3139   -1.0893 H   0  0  0  0  0  0  0  0  0  0  0  0
    5.1497    7.8732   -2.3304 H   0  0  0  0  0  0  0  0  0  0  0  0
    6.1806    9.1281   -1.6559 H   0  0  0  0  0  0  0  0  0  0  0  0
    3.5183    8.1810   -0.4808 H   0  0  0  0  0  0  0  0  0  0  0  0
    3.9151    9.7672   -1.1735 H   0  0  0  0  0  0  0  0  0  0  0  0
    3.9081    9.8237    1.3404 H   0  0  0  0  0  0  0  0  0  0  0  0
    5.5063   10.2120    0.6907 H   0  0  0  0  0  0  0  0  0  0  0  0
    4.6082    7.4847    1.7887 H   0  0  0  0  0  0  0  0  0  0  0  0
    5.7246    8.6111    2.5863 H   0  0  0  0  0  0  0  0  0  0  0  0
    6.9415    6.7234    1.3998 H   0  0  0  0  0  0  0  0  0  0  0  0
    7.4063    8.3414    0.8924 H   0  0  0  0  0  0  0  0  0  0  0  0
    8.4738    3.3784   -2.9145 H   0  0  0  0  0  0  0  0  0  0  0  0
    7.9642    0.9868   -3.5169 H   0  0  0  0  0  0  0  0  0  0  0  0
    5.7755   -0.0005   -2.8223 H   0  0  0  0  0  0  0  0  0  0  0  0
    4.1345    1.3496   -1.5506 H   0  0  0  0  0  0  0  0  0  0  0  0
    1.1786    3.5745   -4.8780 H   0  0  0  0  0  0  0  0  0  0  0  0
   -0.0480    4.8622   -4.7866 H   0  0  0  0  0  0  0  0  0  0  0  0
   -0.5629    1.8912   -5.3929 H   0  0  0  0  0  0  0  0  0  0  0  0
   -0.7399    3.2452   -6.5228 H   0  0  0  0  0  0  0  0  0  0  0  0
   -2.9736    2.4964   -5.5519 H   0  0  0  0  0  0  0  0  0  0  0  0
   -2.6048    4.1870   -5.1892 H   0  0  0  0  0  0  0  0  0  0  0  0
   -2.2239    1.7990   -3.2860 H   0  0  0  0  0  0  0  0  0  0  0  0
   -3.4207    3.0985   -3.1193 H   0  0  0  0  0  0  0  0  0  0  0  0
   -1.4380    3.4472   -1.6206 H   0  0  0  0  0  0  0  0  0  0  0  0
   -1.6417    4.7729   -2.7709 H   0  0  0  0  0  0  0  0  0  0  0  0
  1  2  2  0
  2  3  1  0
  2 25  1  0
  3  4  1  0
  3 31  1  0
  3 32  1  0
  4  5  1  0
  5  6  2  0
  5 24  1  0
  6  7  1  0
  7  8  2  0
  8  9  1  0
  8 24  1  0
  9 10  1  0
  9 16  1  0
 10 11  1  0
 10 15  1  0
 10 33  1  6
 11 12  1  0
 11 34  1  0
 11 35  1  0
 12 13  1  0
 12 36  1  0
 12 37  1  0
 13 14  1  0
 13 38  1  0
 13 39  1  0
 14 15  1  0
 14 40  1  0
 14 41  1  0
 15 42  1  0
 15 43  1  0
 16 17  2  0
 16 18  1  0
 18 19  1  0
 18 23  2  0
 19 20  2  0
 19 44  1  0
 20 21  1  0
 20 45  1  0
 21 22  2  0
 21 46  1  0
 22 23  1  0
 22 47  1  0
 23 24  1  0
 25 26  1  0
 25 30  1  0
 26 27  1  0
 26 48  1  0
 26 49  1  0
 27 28  1  0
 27 50  1  0
 27 51  1  0
 28 29  1  0
 28 52  1  0
 28 53  1  0
 29 30  1  0
 29 54  1  0
 29 55  1  0
 30 56  1  0
 30 57  1  0
M  END

