
     RDKit          3D

 57 58  0  0  0  0  0  0  0  0999 V2000
    0.9507   -2.7880    1.2070 C   0  0  0  0  0  0  0  0  0  0  0  0
    2.0347   -1.8971    1.8029 C   0  0  0  0  0  0  0  0  0  0  0  0
    3.1662   -1.7555    0.8829 N   0  0  0  0  0  0  0  0  0  0  0  0
    4.3901   -1.1986    1.2996 C   0  0  0  0  0  0  0  0  0  0  0  0
    5.0008   -0.2053    0.7645 N   0  0  0  0  0  0  0  0  0  0  0  0
    4.4071    0.6181   -0.2581 C   0  0  0  0  0  0  0  0  0  0  0  0
    5.0883    0.4224   -1.6434 C   0  0  1  0  0  0  0  0  0  0  0  0
    4.7127   -0.9110   -2.2732 C   0  0  1  0  0  0  0  0  0  0  0  0
    5.5917   -1.5142   -3.3359 C   0  0  0  0  0  0  0  0  0  0  0  0
    5.5177   -2.1537   -1.9741 C   0  0  0  0  0  0  0  0  0  0  0  0
    4.8887    1.5360   -2.5775 N   0  0  0  0  0  0  0  0  0  0  0  0
    3.5235    1.8294   -2.9595 C   0  0  0  0  0  0  0  0  0  0  0  0
    5.6576    2.7256   -2.2847 C   0  0  0  0  0  0  0  0  0  0  0  0
    4.9269   -1.9017    2.3671 N   0  0  0  0  0  0  0  0  0  0  0  0
    5.9959   -1.6060    3.2297 C   0  0  0  0  0  0  0  0  0  0  0  0
    6.2524   -2.4932    4.2817 C   0  0  0  0  0  0  0  0  0  0  0  0
    7.2968   -2.2485    5.1832 C   0  0  0  0  0  0  0  0  0  0  0  0
    8.1010   -1.1148    5.0621 C   0  0  0  0  0  0  0  0  0  0  0  0
    9.1330   -0.7901    5.8862 O   0  0  0  0  0  0  0  0  0  0  0  0
    9.4524   -1.6476    6.9628 C   0  0  0  0  0  0  0  0  0  0  0  0
   10.6339   -1.0518    7.7054 C   0  0  0  0  0  0  0  0  0  0  0  0
    7.8422   -0.2142    3.9941 C   0  0  0  0  0  0  0  0  0  0  0  0
    8.6625    0.8639    3.9243 O   0  0  0  0  0  0  0  0  0  0  0  0
    8.4708    1.7984    2.8894 C   0  0  0  0  0  0  0  0  0  0  0  0
    6.8088   -0.4625    3.0896 C   0  0  0  0  0  0  0  0  0  0  0  0
    0.1061   -2.8951    1.9053 H   0  0  0  0  0  0  0  0  0  0  0  0
    1.3471   -3.7895    0.9778 H   0  0  0  0  0  0  0  0  0  0  0  0
    0.5528   -2.3613    0.2706 H   0  0  0  0  0  0  0  0  0  0  0  0
    2.3991   -2.3330    2.7455 H   0  0  0  0  0  0  0  0  0  0  0  0
    1.6039   -0.9113    2.0730 H   0  0  0  0  0  0  0  0  0  0  0  0
    2.8802   -1.3882   -0.0183 H   0  0  0  0  0  0  0  0  0  0  0  0
    4.5463    1.6741    0.0353 H   0  0  0  0  0  0  0  0  0  0  0  0
    3.3100    0.4810   -0.3725 H   0  0  0  0  0  0  0  0  0  0  0  0
    6.1722    0.3898   -1.4403 H   0  0  0  0  0  0  0  0  0  0  0  0
    3.6348   -1.0679   -2.4064 H   0  0  0  0  0  0  0  0  0  0  0  0
    6.4980   -0.9625   -3.6020 H   0  0  0  0  0  0  0  0  0  0  0  0
    5.1153   -2.0212   -4.1798 H   0  0  0  0  0  0  0  0  0  0  0  0
    6.3747   -2.0479   -1.3037 H   0  0  0  0  0  0  0  0  0  0  0  0
    4.9838   -3.1022   -1.8664 H   0  0  0  0  0  0  0  0  0  0  0  0
    2.9985    0.9119   -3.2649 H   0  0  0  0  0  0  0  0  0  0  0  0
    3.5196    2.5096   -3.8282 H   0  0  0  0  0  0  0  0  0  0  0  0
    2.9164    2.3195   -2.1633 H   0  0  0  0  0  0  0  0  0  0  0  0
    6.7117    2.4617   -2.1024 H   0  0  0  0  0  0  0  0  0  0  0  0
    5.3001    3.3056   -1.4017 H   0  0  0  0  0  0  0  0  0  0  0  0
    5.6294    3.4105   -3.1492 H   0  0  0  0  0  0  0  0  0  0  0  0
    4.5176   -2.8169    2.5036 H   0  0  0  0  0  0  0  0  0  0  0  0
    5.6327   -3.3853    4.4105 H   0  0  0  0  0  0  0  0  0  0  0  0
    7.4699   -2.9609    5.9899 H   0  0  0  0  0  0  0  0  0  0  0  0
    9.6986   -2.6602    6.5864 H   0  0  0  0  0  0  0  0  0  0  0  0
    8.5811   -1.7552    7.6389 H   0  0  0  0  0  0  0  0  0  0  0  0
   11.5028   -0.9554    7.0365 H   0  0  0  0  0  0  0  0  0  0  0  0
   10.9153   -1.6929    8.5555 H   0  0  0  0  0  0  0  0  0  0  0  0
   10.3852   -0.0505    8.0890 H   0  0  0  0  0  0  0  0  0  0  0  0
    9.2322    2.5784    3.0280 H   0  0  0  0  0  0  0  0  0  0  0  0
    7.4687    2.2626    2.9320 H   0  0  0  0  0  0  0  0  0  0  0  0
    8.6009    1.3426    1.8910 H   0  0  0  0  0  0  0  0  0  0  0  0
    6.6123    0.1969    2.2497 H   0  0  0  0  0  0  0  0  0  0  0  0
  1  2  1  0
  1 26  1  0
  1 27  1  0
  1 28  1  0
  2  3  1  0
  2 29  1  0
  2 30  1  0
  3  4  1  0
  3 31  1  0
  4  5  2  0
  4 14  1  0
  5  6  1  0
  6  7  1  0
  6 32  1  0
  6 33  1  0
  7  8  1  0
  7 11  1  0
  7 34  1  1
  8  9  1  0
  8 10  1  0
  8 35  1  6
  9 10  1  0
  9 36  1  0
  9 37  1  0
 10 38  1  0
 10 39  1  0
 11 12  1  0
 11 13  1  0
 12 40  1  0
 12 41  1  0
 12 42  1  0
 13 43  1  0
 13 44  1  0
 13 45  1  0
 14 15  1  0
 14 46  1  0
 15 16  2  0
 15 25  1  0
 16 17  1  0
 16 47  1  0
 17 18  2  0
 17 48  1  0
 18 19  1  0
 18 22  1  0
 19 20  1  0
 20 21  1  0
 20 49  1  0
 20 50  1  0
 21 51  1  0
 21 52  1  0
 21 53  1  0
 22 23  1  0
 22 25  2  0
 23 24  1  0
 24 54  1  0
 24 55  1  0
 24 56  1  0
 25 57  1  0
M  END

