
     RDKit          3D

 43 46  0  0  0  0  0  0  0  0999 V2000
    1.2266   -0.5888   -0.1136 C   0  0  0  0  0  0  0  0  0  0  0  0
    2.7205   -0.2747    0.0609 C   0  0  1  0  0  0  0  0  0  0  0  0
    2.9486    1.1423    0.3862 N   0  0  0  0  0  0  0  0  0  0  0  0
    2.5495    2.1163   -0.6053 C   0  0  1  0  0  0  0  0  0  0  0  0
    2.9271    3.5857   -0.3229 C   0  0  0  0  0  0  0  0  0  0  0  0
    3.2093    3.7839   -1.8444 C   0  0  2  0  0  0  0  0  0  0  0  0
    2.1449    4.5064   -2.6530 C   0  0  0  0  0  0  0  0  0  0  0  0
    1.4510    5.6082   -2.1248 C   0  0  0  0  0  0  0  0  0  0  0  0
    0.5156    6.3102   -2.8907 C   0  0  0  0  0  0  0  0  0  0  0  0
    0.2535    5.9260   -4.2084 C   0  0  0  0  0  0  0  0  0  0  0  0
    0.9412    4.8376   -4.7523 C   0  0  0  0  0  0  0  0  0  0  0  0
    1.8751    4.1386   -3.9825 C   0  0  0  0  0  0  0  0  0  0  0  0
    3.2656    2.2314   -1.9872 C   0  0  0  0  0  0  0  0  0  0  0  0
    3.3331   -1.1144    1.1444 C   0  0  0  0  0  0  0  0  0  0  0  0
    4.1829   -2.1060    0.9620 N   0  0  0  0  0  0  0  0  0  0  0  0
    4.5136   -2.6363    2.1903 N   0  0  0  0  0  0  0  0  0  0  0  0
    3.8559   -1.9408    3.0810 C   0  0  0  0  0  0  0  0  0  0  0  0
    3.1000   -0.9713    2.4866 N   0  0  0  0  0  0  0  0  0  0  0  0
    2.3364   -0.1563    3.4240 C   0  0  0  0  0  0  0  0  0  0  0  0
    3.0272   -0.5028    4.7716 C   0  0  0  0  0  0  0  0  0  0  0  0
    3.6802   -1.9010    4.5703 C   0  0  0  0  0  0  0  0  0  0  0  0
    0.8042   -0.0721   -0.9885 H   0  0  0  0  0  0  0  0  0  0  0  0
    0.6511   -0.2797    0.7737 H   0  0  0  0  0  0  0  0  0  0  0  0
    1.0880   -1.6692   -0.2662 H   0  0  0  0  0  0  0  0  0  0  0  0
    3.2417   -0.5853   -0.8670 H   0  0  0  0  0  0  0  0  0  0  0  0
    3.9398    1.2682    0.5943 H   0  0  0  0  0  0  0  0  0  0  0  0
    1.4624    2.0406   -0.7627 H   0  0  0  0  0  0  0  0  0  0  0  0
    3.8561    3.6521    0.2664 H   0  0  0  0  0  0  0  0  0  0  0  0
    2.1668    4.2169    0.1595 H   0  0  0  0  0  0  0  0  0  0  0  0
    4.1762    4.2756   -2.0471 H   0  0  0  0  0  0  0  0  0  0  0  0
    1.6469    5.9314   -1.0996 H   0  0  0  0  0  0  0  0  0  0  0  0
   -0.0109    7.1629   -2.4535 H   0  0  0  0  0  0  0  0  0  0  0  0
   -0.4795    6.4719   -4.8078 H   0  0  0  0  0  0  0  0  0  0  0  0
    0.7505    4.5287   -5.7836 H   0  0  0  0  0  0  0  0  0  0  0  0
    2.4078    3.2955   -4.4292 H   0  0  0  0  0  0  0  0  0  0  0  0
    4.3013    1.8594   -1.9329 H   0  0  0  0  0  0  0  0  0  0  0  0
    2.7744    1.7743   -2.8588 H   0  0  0  0  0  0  0  0  0  0  0  0
    1.2742   -0.4564    3.4131 H   0  0  0  0  0  0  0  0  0  0  0  0
    2.3918    0.9055    3.1486 H   0  0  0  0  0  0  0  0  0  0  0  0
    2.3221   -0.4755    5.6144 H   0  0  0  0  0  0  0  0  0  0  0  0
    3.8127    0.2418    4.9755 H   0  0  0  0  0  0  0  0  0  0  0  0
    3.0126   -2.7150    4.9031 H   0  0  0  0  0  0  0  0  0  0  0  0
    4.6282   -2.0159    5.1147 H   0  0  0  0  0  0  0  0  0  0  0  0
  1  2  1  0
  1 22  1  0
  1 23  1  0
  1 24  1  0
  2  3  1  0
  2 14  1  0
  2 25  1  6
  3  4  1  0
  3 26  1  0
  4  5  1  0
  4 13  1  0
  4 27  1  6
  5  6  1  0
  5 28  1  0
  5 29  1  0
  6  7  1  0
  6 13  1  0
  6 30  1  1
  7  8  2  0
  7 12  1  0
  8  9  1  0
  8 31  1  0
  9 10  2  0
  9 32  1  0
 10 11  1  0
 10 33  1  0
 11 12  2  0
 11 34  1  0
 12 35  1  0
 13 36  1  0
 13 37  1  0
 14 15  2  0
 14 18  1  0
 15 16  1  0
 16 17  2  0
 17 18  1  0
 17 21  1  0
 18 19  1  0
 19 20  1  0
 19 38  1  0
 19 39  1  0
 20 21  1  0
 20 40  1  0
 20 41  1  0
 21 42  1  0
 21 43  1  0
M  END

