
     RDKit          3D

 33 35  0  0  0  0  0  0  0  0999 V2000
    3.7241    0.3124   -0.6373 N   0  0  0  0  0  0  0  0  0  0  0  0
    2.5343   -0.1119    0.0974 C   0  0  1  0  0  0  0  0  0  0  0  0
    2.8113   -0.8198    1.4291 C   0  0  0  0  0  0  0  0  0  0  0  0
    3.7093   -0.2522    2.3454 C   0  0  0  0  0  0  0  0  0  0  0  0
    3.9976   -0.8387    3.5769 C   0  0  0  0  0  0  0  0  0  0  0  0
    3.3829   -2.0588    3.9233 C   0  0  0  0  0  0  0  0  0  0  0  0
    2.4809   -2.6443    3.0349 C   0  0  0  0  0  0  0  0  0  0  0  0
    2.1988   -2.0267    1.8139 C   0  0  0  0  0  0  0  0  0  0  0  0
    1.0462   -2.8419    0.7583 Cl  0  0  0  0  0  0  0  0  0  0  0  0
    3.6489   -2.6870    5.1063 O   0  0  0  0  0  0  0  0  0  0  0  0
    4.8083   -2.2118    5.7747 C   0  0  0  0  0  0  0  0  0  0  0  0
    4.8429   -0.6927    5.7561 C   0  0  0  0  0  0  0  0  0  0  0  0
    4.8776   -0.2173    4.4187 O   0  0  0  0  0  0  0  0  0  0  0  0
    1.6161    1.1009    0.2856 C   0  0  1  0  0  0  0  0  0  0  0  0
    1.0335    1.7866   -0.9781 C   0  0  0  0  0  0  0  0  0  0  0  0
   -0.3058    1.9706   -0.2187 C   0  0  0  0  0  0  0  0  0  0  0  0
    0.1657    0.9049    0.8052 C   0  0  0  0  0  0  0  0  0  0  0  0
    4.3692   -0.4672   -0.7653 H   0  0  0  0  0  0  0  0  0  0  0  0
    4.2342    1.0340   -0.1267 H   0  0  0  0  0  0  0  0  0  0  0  0
    2.0015   -0.8301   -0.5446 H   0  0  0  0  0  0  0  0  0  0  0  0
    4.2178    0.6860    2.1105 H   0  0  0  0  0  0  0  0  0  0  0  0
    2.0105   -3.5895    3.3071 H   0  0  0  0  0  0  0  0  0  0  0  0
    5.7167   -2.6134    5.2871 H   0  0  0  0  0  0  0  0  0  0  0  0
    4.7640   -2.5954    6.8044 H   0  0  0  0  0  0  0  0  0  0  0  0
    5.7450   -0.3106    6.2560 H   0  0  0  0  0  0  0  0  0  0  0  0
    3.9535   -0.2914    6.2776 H   0  0  0  0  0  0  0  0  0  0  0  0
    2.1396    1.8460    0.9133 H   0  0  0  0  0  0  0  0  0  0  0  0
    0.9454    1.0711   -1.8111 H   0  0  0  0  0  0  0  0  0  0  0  0
    1.5450    2.6860   -1.3526 H   0  0  0  0  0  0  0  0  0  0  0  0
   -1.2358    1.7647   -0.7708 H   0  0  0  0  0  0  0  0  0  0  0  0
   -0.3894    2.9708    0.2356 H   0  0  0  0  0  0  0  0  0  0  0  0
   -0.2168   -0.0986    0.5633 H   0  0  0  0  0  0  0  0  0  0  0  0
   -0.0226    1.0980    1.8726 H   0  0  0  0  0  0  0  0  0  0  0  0
  1  2  1  0
  1 18  1  0
  1 19  1  0
  2  3  1  0
  2 14  1  0
  2 20  1  6
  3  4  2  0
  3  8  1  0
  4  5  1  0
  4 21  1  0
  5  6  2  0
  5 13  1  0
  6  7  1  0
  6 10  1  0
  7  8  2  0
  7 22  1  0
  8  9  1  0
 10 11  1  0
 11 12  1  0
 11 23  1  0
 11 24  1  0
 12 13  1  0
 12 25  1  0
 12 26  1  0
 14 15  1  0
 14 17  1  0
 14 27  1  1
 15 16  1  0
 15 28  1  0
 15 29  1  0
 16 17  1  0
 16 30  1  0
 16 31  1  0
 17 32  1  0
 17 33  1  0
M  END

