
     RDKit          3D

 30 30  0  0  0  0  0  0  0  0999 V2000
    1.0809   -0.8001    0.1105 C   0  0  0  0  0  0  0  0  0  0  0  0
    2.4186   -0.3783    0.2409 O   0  0  0  0  0  0  0  0  0  0  0  0
    2.6614    0.6009    1.2103 C   0  0  1  0  0  0  0  0  0  0  0  0
    2.4832    0.0709    2.6424 C   0  0  0  0  0  0  0  0  0  0  0  0
    2.4574   -1.1101    2.8975 O   0  0  0  0  0  0  0  0  0  0  0  0
    2.2807    1.1194    3.7485 C   0  0  0  0  0  0  0  0  0  0  0  0
    0.8093    1.3946    3.9313 C   0  0  0  0  0  0  0  0  0  0  0  0
   -0.1793    0.5100    4.2923 C   0  0  0  0  0  0  0  0  0  0  0  0
   -1.4809    1.0944    4.3474 C   0  0  0  0  0  0  0  0  0  0  0  0
   -1.4635    2.4254    4.0170 C   0  0  0  0  0  0  0  0  0  0  0  0
   -2.8062    3.5083    3.9617 Cl  0  0  0  0  0  0  0  0  0  0  0  0
    0.1428    2.9823    3.6393 S   0  0  0  0  0  0  0  0  0  0  0  0
    4.0949    1.1508    0.9857 C   0  0  1  0  0  0  0  0  0  0  0  0
    5.1511    0.0431    1.0926 C   0  0  0  0  0  0  0  0  0  0  0  0
    4.1761    1.8794   -0.3617 C   0  0  0  0  0  0  0  0  0  0  0  0
    1.0431   -1.5014   -0.7355 H   0  0  0  0  0  0  0  0  0  0  0  0
    0.4053    0.0513   -0.1074 H   0  0  0  0  0  0  0  0  0  0  0  0
    0.7165   -1.3195    1.0138 H   0  0  0  0  0  0  0  0  0  0  0  0
    1.9483    1.4480    1.0960 H   0  0  0  0  0  0  0  0  0  0  0  0
    2.8164    2.0512    3.5157 H   0  0  0  0  0  0  0  0  0  0  0  0
    2.7051    0.7000    4.6740 H   0  0  0  0  0  0  0  0  0  0  0  0
    0.0263   -0.5397    4.5090 H   0  0  0  0  0  0  0  0  0  0  0  0
   -2.3917    0.5609    4.6195 H   0  0  0  0  0  0  0  0  0  0  0  0
    4.2825    1.8919    1.7835 H   0  0  0  0  0  0  0  0  0  0  0  0
    4.9758   -0.7290    0.3290 H   0  0  0  0  0  0  0  0  0  0  0  0
    5.1347   -0.4536    2.0751 H   0  0  0  0  0  0  0  0  0  0  0  0
    6.1599    0.4584    0.9404 H   0  0  0  0  0  0  0  0  0  0  0  0
    3.9492    1.1867   -1.1858 H   0  0  0  0  0  0  0  0  0  0  0  0
    5.1853    2.2902   -0.5234 H   0  0  0  0  0  0  0  0  0  0  0  0
    3.4589    2.7149   -0.4133 H   0  0  0  0  0  0  0  0  0  0  0  0
  1  2  1  0
  1 16  1  0
  1 17  1  0
  1 18  1  0
  2  3  1  0
  3  4  1  0
  3 13  1  0
  3 19  1  6
  4  5  2  0
  4  6  1  0
  6  7  1  0
  6 20  1  0
  6 21  1  0
  7  8  2  0
  7 12  1  0
  8  9  1  0
  8 22  1  0
  9 10  2  0
  9 23  1  0
 10 11  1  0
 10 12  1  0
 13 14  1  0
 13 15  1  0
 13 24  1  1
 14 25  1  0
 14 26  1  0
 14 27  1  0
 15 28  1  0
 15 29  1  0
 15 30  1  0
M  END

