
     RDKit          3D

 35 35  0  0  0  0  0  0  0  0999 V2000
    1.5323   -1.6537   -0.1975 C   0  0  0  0  0  0  0  0  0  0  0  0
    3.0331   -1.4613   -0.4198 C   0  0  0  0  0  0  0  0  0  0  0  0
    3.3270   -0.5638   -1.6164 C   0  0  0  0  0  0  0  0  0  0  0  0
    4.7300   -0.3129   -1.7744 O   0  0  0  0  0  0  0  0  0  0  0  0
    5.4398   -1.2329   -2.4730 C   0  0  0  0  0  0  0  0  0  0  0  0
    4.9465   -2.2257   -2.9760 O   0  0  0  0  0  0  0  0  0  0  0  0
    6.7681   -0.9158   -2.5549 N   0  0  0  0  0  0  0  0  0  0  0  0
    7.3782    0.2365   -1.9148 C   0  0  0  0  0  0  0  0  0  0  0  0
    7.6279   -1.8311   -3.2947 C   0  0  0  0  0  0  0  0  0  0  0  0
    8.1155   -3.0290   -2.4526 C   0  0  0  0  0  0  0  0  0  0  0  0
    8.9819   -3.9772   -3.2495 C   0  0  0  0  0  0  0  0  0  0  0  0
    8.3994   -4.9419   -4.0883 C   0  0  0  0  0  0  0  0  0  0  0  0
    9.1963   -5.7921   -4.8575 C   0  0  0  0  0  0  0  0  0  0  0  0
   10.5908   -5.7002   -4.8095 C   0  0  0  0  0  0  0  0  0  0  0  0
   11.1683   -4.7401   -3.9761 C   0  0  0  0  0  0  0  0  0  0  0  0
   13.0717   -4.5960   -3.8863 Br  0  0  0  0  0  0  0  0  0  0  0  0
   10.3816   -3.8834   -3.2023 C   0  0  0  0  0  0  0  0  0  0  0  0
    1.3397   -2.3039    0.6697 H   0  0  0  0  0  0  0  0  0  0  0  0
    1.0519   -2.1197   -1.0738 H   0  0  0  0  0  0  0  0  0  0  0  0
    1.0228   -0.6932   -0.0109 H   0  0  0  0  0  0  0  0  0  0  0  0
    3.5172   -2.4367   -0.5893 H   0  0  0  0  0  0  0  0  0  0  0  0
    3.4991   -1.0200    0.4782 H   0  0  0  0  0  0  0  0  0  0  0  0
    2.8751    0.4311   -1.4809 H   0  0  0  0  0  0  0  0  0  0  0  0
    2.9337   -1.0122   -2.5412 H   0  0  0  0  0  0  0  0  0  0  0  0
    6.6306    0.7745   -1.3240 H   0  0  0  0  0  0  0  0  0  0  0  0
    7.8006    0.9294   -2.6647 H   0  0  0  0  0  0  0  0  0  0  0  0
    8.1968   -0.0747   -1.2424 H   0  0  0  0  0  0  0  0  0  0  0  0
    8.4904   -1.2588   -3.6725 H   0  0  0  0  0  0  0  0  0  0  0  0
    7.0718   -2.2071   -4.1649 H   0  0  0  0  0  0  0  0  0  0  0  0
    7.2250   -3.5596   -2.0819 H   0  0  0  0  0  0  0  0  0  0  0  0
    8.6698   -2.6591   -1.5745 H   0  0  0  0  0  0  0  0  0  0  0  0
    7.3101   -5.0272   -4.1322 H   0  0  0  0  0  0  0  0  0  0  0  0
    8.7305   -6.5415   -5.5027 H   0  0  0  0  0  0  0  0  0  0  0  0
   11.2185   -6.3642   -5.4058 H   0  0  0  0  0  0  0  0  0  0  0  0
   10.8603   -3.1453   -2.5549 H   0  0  0  0  0  0  0  0  0  0  0  0
  1  2  1  0
  1 18  1  0
  1 19  1  0
  1 20  1  0
  2  3  1  0
  2 21  1  0
  2 22  1  0
  3  4  1  0
  3 23  1  0
  3 24  1  0
  4  5  1  0
  5  6  2  0
  5  7  1  0
  7  8  1  0
  7  9  1  0
  8 25  1  0
  8 26  1  0
  8 27  1  0
  9 10  1  0
  9 28  1  0
  9 29  1  0
 10 11  1  0
 10 30  1  0
 10 31  1  0
 11 12  2  0
 11 17  1  0
 12 13  1  0
 12 32  1  0
 13 14  2  0
 13 33  1  0
 14 15  1  0
 14 34  1  0
 15 16  1  0
 15 17  2  0
 17 35  1  0
M  END

