
     RDKit          3D

 47 48  0  0  0  0  0  0  0  0999 V2000
    1.1369   -2.1457    1.3904 C   0  0  0  0  0  0  0  0  0  0  0  0
    2.6215   -2.1897    1.0266 C   0  0  0  0  0  0  0  0  0  0  0  0
    3.0654   -1.0294    0.1316 C   0  0  0  0  0  0  0  0  0  0  0  0
    4.5579   -1.0367   -0.2308 C   0  0  0  0  0  0  0  0  0  0  0  0
    5.0026   -2.2605   -0.9083 N   0  0  0  0  0  0  0  0  0  0  0  0
    4.4020   -2.4771   -2.2236 C   0  0  0  0  0  0  0  0  0  0  0  0
    4.8202   -1.5661   -3.3911 C   0  0  1  0  0  0  0  0  0  0  0  0
    4.3254   -2.0773   -4.7713 C   0  0  0  0  0  0  0  0  0  0  0  0
    4.2116   -0.7991   -5.6400 C   0  0  0  0  0  0  0  0  0  0  0  0
    4.4861    0.3632   -4.6398 C   0  0  0  0  0  0  0  0  0  0  0  0
    4.3313   -0.1842   -3.2908 N   0  0  0  0  0  0  0  0  0  0  0  0
    6.4501   -2.5450   -0.8655 C   0  0  1  0  0  0  0  0  0  0  0  0
    7.0718   -2.3209    0.5256 C   0  0  0  0  0  0  0  0  0  0  0  0
    6.7308   -3.9653   -1.3072 C   0  0  0  0  0  0  0  0  0  0  0  0
    7.7133   -4.4235   -2.2207 C   0  0  0  0  0  0  0  0  0  0  0  0
    7.7232   -5.7517   -2.3220 N   0  0  0  0  0  0  0  0  0  0  0  0
    6.7625   -6.1702   -1.4878 N   0  0  0  0  0  0  0  0  0  0  0  0
    6.4806   -7.5852   -1.3710 C   0  0  0  0  0  0  0  0  0  0  0  0
    6.1380   -5.1377   -0.8556 C   0  0  0  0  0  0  0  0  0  0  0  0
    0.8515   -2.9918    2.0364 H   0  0  0  0  0  0  0  0  0  0  0  0
    0.5011   -2.1886    0.4896 H   0  0  0  0  0  0  0  0  0  0  0  0
    0.8795   -1.2170    1.9276 H   0  0  0  0  0  0  0  0  0  0  0  0
    2.8597   -3.1416    0.5236 H   0  0  0  0  0  0  0  0  0  0  0  0
    3.2298   -2.1828    1.9499 H   0  0  0  0  0  0  0  0  0  0  0  0
    2.8603   -0.0706    0.6415 H   0  0  0  0  0  0  0  0  0  0  0  0
    2.4383   -1.0090   -0.7780 H   0  0  0  0  0  0  0  0  0  0  0  0
    5.1109   -0.9527    0.7135 H   0  0  0  0  0  0  0  0  0  0  0  0
    4.7881   -0.1301   -0.8247 H   0  0  0  0  0  0  0  0  0  0  0  0
    3.3036   -2.4230   -2.1236 H   0  0  0  0  0  0  0  0  0  0  0  0
    4.6199   -3.5114   -2.5287 H   0  0  0  0  0  0  0  0  0  0  0  0
    5.9242   -1.5140   -3.4261 H   0  0  0  0  0  0  0  0  0  0  0  0
    3.3381   -2.5573   -4.6521 H   0  0  0  0  0  0  0  0  0  0  0  0
    4.9995   -2.8340   -5.2019 H   0  0  0  0  0  0  0  0  0  0  0  0
    3.2095   -0.7105   -6.0886 H   0  0  0  0  0  0  0  0  0  0  0  0
    4.9334   -0.7942   -6.4717 H   0  0  0  0  0  0  0  0  0  0  0  0
    3.8286    1.2340   -4.7850 H   0  0  0  0  0  0  0  0  0  0  0  0
    5.5239    0.7211   -4.7570 H   0  0  0  0  0  0  0  0  0  0  0  0
    3.3369   -0.2094   -3.0543 H   0  0  0  0  0  0  0  0  0  0  0  0
    7.0074   -1.8797   -1.5630 H   0  0  0  0  0  0  0  0  0  0  0  0
    6.5121   -2.8722    1.2984 H   0  0  0  0  0  0  0  0  0  0  0  0
    7.1121   -1.2589    0.8088 H   0  0  0  0  0  0  0  0  0  0  0  0
    8.1045   -2.6989    0.5203 H   0  0  0  0  0  0  0  0  0  0  0  0
    8.4148   -3.8276   -2.8063 H   0  0  0  0  0  0  0  0  0  0  0  0
    7.3989   -8.1314   -1.1090 H   0  0  0  0  0  0  0  0  0  0  0  0
    6.0949   -7.9844   -2.3222 H   0  0  0  0  0  0  0  0  0  0  0  0
    5.7305   -7.7411   -0.5842 H   0  0  0  0  0  0  0  0  0  0  0  0
    5.3243   -5.3007   -0.1521 H   0  0  0  0  0  0  0  0  0  0  0  0
  1  2  1  0
  1 20  1  0
  1 21  1  0
  1 22  1  0
  2  3  1  0
  2 23  1  0
  2 24  1  0
  3  4  1  0
  3 25  1  0
  3 26  1  0
  4  5  1  0
  4 27  1  0
  4 28  1  0
  5  6  1  0
  5 12  1  0
  6  7  1  0
  6 29  1  0
  6 30  1  0
  7  8  1  0
  7 11  1  0
  7 31  1  6
  8  9  1  0
  8 32  1  0
  8 33  1  0
  9 10  1  0
  9 34  1  0
  9 35  1  0
 10 11  1  0
 10 36  1  0
 10 37  1  0
 11 38  1  0
 12 13  1  0
 12 14  1  0
 12 39  1  6
 13 40  1  0
 13 41  1  0
 13 42  1  0
 14 15  1  0
 14 19  2  0
 15 16  2  0
 15 43  1  0
 16 17  1  0
 17 18  1  0
 17 19  1  0
 18 44  1  0
 18 45  1  0
 18 46  1  0
 19 47  1  0
M  END

