
     RDKit          3D

 40 43  0  0  0  0  0  0  0  0999 V2000
    2.9793    0.6783    1.3084 O   0  0  0  0  0  0  0  0  0  0  0  0
    2.6839    0.1306    0.2580 C   0  0  0  0  0  0  0  0  0  0  0  0
    2.1947   -1.3171    0.1892 C   0  0  0  0  0  0  0  0  0  0  0  0
    2.2459   -2.0160    1.5278 C   0  0  1  0  0  0  0  0  0  0  0  0
    2.1814   -3.5206    1.6003 C   0  0  0  0  0  0  0  0  0  0  0  0
    3.4647   -2.7999    1.9360 C   0  0  0  0  0  0  0  0  0  0  0  0
    2.7519    0.8011   -0.9359 N   0  0  0  0  0  0  0  0  0  0  0  0
    3.1712    2.2050   -0.9823 C   0  0  0  0  0  0  0  0  0  0  0  0
    2.6580    2.6738   -2.3457 C   0  0  0  0  0  0  0  0  0  0  0  0
    2.7838    1.4117   -3.2061 C   0  0  2  0  0  0  0  0  0  0  0  0
    4.1315    1.2635   -3.5461 F   0  0  0  0  0  0  0  0  0  0  0  0
    2.0118    1.4518   -4.4955 C   0  0  0  0  0  0  0  0  0  0  0  0
    1.0492    0.6093   -4.7788 N   0  0  0  0  0  0  0  0  0  0  0  0
    0.6270    1.0075   -6.0342 O   0  0  0  0  0  0  0  0  0  0  0  0
    1.3846    2.0604   -6.3896 C   0  0  0  0  0  0  0  0  0  0  0  0
    1.1574    2.6948   -7.6891 C   0  0  0  0  0  0  0  0  0  0  0  0
    0.1613    2.2415   -8.5666 C   0  0  0  0  0  0  0  0  0  0  0  0
    0.0079    2.9018   -9.7884 C   0  0  0  0  0  0  0  0  0  0  0  0
    0.7575    3.9401  -10.1659 N   0  0  0  0  0  0  0  0  0  0  0  0
    1.7049    4.3661   -9.3254 C   0  0  0  0  0  0  0  0  0  0  0  0
    1.9494    3.7848   -8.0797 C   0  0  0  0  0  0  0  0  0  0  0  0
    2.2549    2.3789   -5.4733 N   0  0  0  0  0  0  0  0  0  0  0  0
    2.4043    0.2730   -2.2521 C   0  0  0  0  0  0  0  0  0  0  0  0
    2.7897   -1.8720   -0.5573 H   0  0  0  0  0  0  0  0  0  0  0  0
    1.1610   -1.3120   -0.2063 H   0  0  0  0  0  0  0  0  0  0  0  0
    1.7493   -1.4611    2.3291 H   0  0  0  0  0  0  0  0  0  0  0  0
    2.1377   -4.0811    0.6608 H   0  0  0  0  0  0  0  0  0  0  0  0
    1.6103   -3.9767    2.4140 H   0  0  0  0  0  0  0  0  0  0  0  0
    4.2927   -2.8677    1.2230 H   0  0  0  0  0  0  0  0  0  0  0  0
    3.7826   -2.7532    2.9810 H   0  0  0  0  0  0  0  0  0  0  0  0
    4.2698    2.2889   -0.9155 H   0  0  0  0  0  0  0  0  0  0  0  0
    2.7465    2.7560   -0.1320 H   0  0  0  0  0  0  0  0  0  0  0  0
    3.2289    3.5026   -2.7857 H   0  0  0  0  0  0  0  0  0  0  0  0
    1.5985    2.9701   -2.2858 H   0  0  0  0  0  0  0  0  0  0  0  0
   -0.4769    1.3965   -8.3033 H   0  0  0  0  0  0  0  0  0  0  0  0
   -0.7621    2.5703  -10.4946 H   0  0  0  0  0  0  0  0  0  0  0  0
    2.3075    5.2190   -9.6581 H   0  0  0  0  0  0  0  0  0  0  0  0
    2.7337    4.1592   -7.4199 H   0  0  0  0  0  0  0  0  0  0  0  0
    2.9811   -0.6261   -2.5212 H   0  0  0  0  0  0  0  0  0  0  0  0
    1.3332    0.0264   -2.3413 H   0  0  0  0  0  0  0  0  0  0  0  0
  1  2  2  0
  2  3  1  0
  2  7  1  0
  3  4  1  0
  3 24  1  0
  3 25  1  0
  4  5  1  0
  4  6  1  0
  4 26  1  1
  5  6  1  0
  5 27  1  0
  5 28  1  0
  6 29  1  0
  6 30  1  0
  7  8  1  0
  7 23  1  0
  8  9  1  0
  8 31  1  0
  8 32  1  0
  9 10  1  0
  9 33  1  0
  9 34  1  0
 10 11  1  6
 10 12  1  0
 10 23  1  0
 12 13  2  0
 12 22  1  0
 13 14  1  0
 14 15  1  0
 15 16  1  0
 15 22  2  0
 16 17  2  0
 16 21  1  0
 17 18  1  0
 17 35  1  0
 18 19  2  0
 18 36  1  0
 19 20  1  0
 20 21  2  0
 20 37  1  0
 21 38  1  0
 23 39  1  0
 23 40  1  0
M  END

