
     RDKit          3D

 80 82  0  0  0  0  0  0  0  0999 V2000
    4.1843   -2.4228    1.4790 C   0  0  0  0  0  0  0  0  0  0  0  0
    4.0393   -1.3718    0.3775 C   0  0  0  0  0  0  0  0  0  0  0  0
    4.6114   -0.0018    0.7569 C   0  0  0  0  0  0  0  0  0  0  0  0
    4.4696    1.0484   -0.3507 C   0  0  0  0  0  0  0  0  0  0  0  0
    4.9175    2.4691    0.0279 C   0  0  0  0  0  0  0  0  0  0  0  0
    6.4044    2.6297    0.4034 C   0  0  1  0  0  0  0  0  0  0  0  0
    7.3846    2.2016   -0.7228 C   0  0  0  0  0  0  0  0  0  0  0  0
    7.2466    2.9365   -2.0601 C   0  0  0  0  0  0  0  0  0  0  0  0
    8.3082    2.5176   -3.0794 C   0  0  0  0  0  0  0  0  0  0  0  0
    6.7515    4.0075    0.9589 C   0  0  0  0  0  0  0  0  0  0  0  0
    6.0488    5.1173    0.6772 C   0  0  0  0  0  0  0  0  0  0  0  0
    6.3063    6.4860    1.2771 C   0  0  1  0  0  0  0  0  0  0  0  0
    6.8724    7.4178    0.3333 O   0  0  0  0  0  0  0  0  0  0  0  0
    6.4738    7.3647   -1.0282 C   0  0  0  0  0  0  0  0  0  0  0  0
    7.1028    8.5414   -1.7607 C   0  0  0  0  0  0  0  0  0  0  0  0
    6.7730    8.5632   -3.2565 C   0  0  0  0  0  0  0  0  0  0  0  0
    7.4040    9.7433   -3.9967 C   0  0  0  0  0  0  0  0  0  0  0  0
    5.0081    7.0912    1.8324 C   0  0  0  0  0  0  0  0  0  0  0  0
    4.6229    8.3704    1.5562 C   0  0  0  0  0  0  0  0  0  0  0  0
    3.4068    8.8741    2.1019 C   0  0  0  0  0  0  0  0  0  0  0  0
    2.6300    8.1738    2.8748 N   0  0  0  0  0  0  0  0  0  0  0  0
    3.0000    6.9245    3.1969 N   0  0  0  0  0  0  0  0  0  0  0  0
    2.0467    6.2242    4.0186 C   0  0  0  0  0  0  0  0  0  0  0  0
    2.4394    5.3229    5.0177 C   0  0  0  0  0  0  0  0  0  0  0  0
    1.4675    4.6935    5.8000 C   0  0  0  0  0  0  0  0  0  0  0  0
    0.1185    4.9558    5.5937 C   0  0  0  0  0  0  0  0  0  0  0  0
   -0.8169    4.3575    6.3345 F   0  0  0  0  0  0  0  0  0  0  0  0
   -0.2675    5.8600    4.5985 C   0  0  0  0  0  0  0  0  0  0  0  0
   -1.5667    6.1069    4.4084 F   0  0  0  0  0  0  0  0  0  0  0  0
    0.6845    6.4926    3.8125 C   0  0  0  0  0  0  0  0  0  0  0  0
    4.1940    6.2854    2.7521 C   0  0  0  0  0  0  0  0  0  0  0  0
    4.4869    5.1615    3.1333 O   0  0  0  0  0  0  0  0  0  0  0  0
    7.3590    6.4164    2.4195 C   0  0  2  0  0  0  0  0  0  0  0  0
    7.8580    7.7006    2.7293 O   0  0  0  0  0  0  0  0  0  0  0  0
    8.5114    5.4200    2.1485 C   0  0  1  0  0  0  0  0  0  0  0  0
    9.4199    5.8188    0.9765 C   0  0  0  0  0  0  0  0  0  0  0  0
    9.2914    5.3619    3.3375 O   0  0  0  0  0  0  0  0  0  0  0  0
    7.8985    4.0342    1.9417 C   0  0  0  0  0  0  0  0  0  0  0  0
    3.7616   -3.3929    1.1723 H   0  0  0  0  0  0  0  0  0  0  0  0
    3.6658   -2.1108    2.4012 H   0  0  0  0  0  0  0  0  0  0  0  0
    5.2435   -2.5888    1.7385 H   0  0  0  0  0  0  0  0  0  0  0  0
    2.9718   -1.2583    0.1139 H   0  0  0  0  0  0  0  0  0  0  0  0
    4.5368   -1.7304   -0.5424 H   0  0  0  0  0  0  0  0  0  0  0  0
    5.6749   -0.1254    1.0309 H   0  0  0  0  0  0  0  0  0  0  0  0
    4.1073    0.3639    1.6711 H   0  0  0  0  0  0  0  0  0  0  0  0
    3.4075    1.0989   -0.6508 H   0  0  0  0  0  0  0  0  0  0  0  0
    5.0100    0.7036   -1.2508 H   0  0  0  0  0  0  0  0  0  0  0  0
    4.3153    2.8205    0.8829 H   0  0  0  0  0  0  0  0  0  0  0  0
    4.6689    3.1402   -0.8113 H   0  0  0  0  0  0  0  0  0  0  0  0
    6.6004    1.9357    1.2407 H   0  0  0  0  0  0  0  0  0  0  0  0
    7.2695    1.1173   -0.8963 H   0  0  0  0  0  0  0  0  0  0  0  0
    8.4182    2.3264   -0.3552 H   0  0  0  0  0  0  0  0  0  0  0  0
    7.3099    4.0252   -1.8883 H   0  0  0  0  0  0  0  0  0  0  0  0
    6.2450    2.7556   -2.4872 H   0  0  0  0  0  0  0  0  0  0  0  0
    9.3258    2.7273   -2.7091 H   0  0  0  0  0  0  0  0  0  0  0  0
    8.1855    3.0517   -4.0354 H   0  0  0  0  0  0  0  0  0  0  0  0
    8.2545    1.4370   -3.2944 H   0  0  0  0  0  0  0  0  0  0  0  0
    5.1824    5.0557    0.0155 H   0  0  0  0  0  0  0  0  0  0  0  0
    5.3704    7.4041   -1.1149 H   0  0  0  0  0  0  0  0  0  0  0  0
    6.8001    6.4132   -1.4859 H   0  0  0  0  0  0  0  0  0  0  0  0
    8.1967    8.4992   -1.6162 H   0  0  0  0  0  0  0  0  0  0  0  0
    6.7665    9.4825   -1.2894 H   0  0  0  0  0  0  0  0  0  0  0  0
    5.6761    8.5892   -3.3899 H   0  0  0  0  0  0  0  0  0  0  0  0
    7.1092    7.6172   -3.7181 H   0  0  0  0  0  0  0  0  0  0  0  0
    7.0588   10.7062   -3.5846 H   0  0  0  0  0  0  0  0  0  0  0  0
    7.1492    9.7294   -5.0681 H   0  0  0  0  0  0  0  0  0  0  0  0
    8.5036    9.7254   -3.9152 H   0  0  0  0  0  0  0  0  0  0  0  0
    5.2406    9.0052    0.9205 H   0  0  0  0  0  0  0  0  0  0  0  0
    3.0655    9.8907    1.8867 H   0  0  0  0  0  0  0  0  0  0  0  0
    3.4906    5.1039    5.1798 H   0  0  0  0  0  0  0  0  0  0  0  0
    1.7492    3.9893    6.5853 H   0  0  0  0  0  0  0  0  0  0  0  0
    0.3621    7.2036    3.0533 H   0  0  0  0  0  0  0  0  0  0  0  0
    6.8569    6.0429    3.3232 H   0  0  0  0  0  0  0  0  0  0  0  0
    7.9885    8.1473    1.8775 H   0  0  0  0  0  0  0  0  0  0  0  0
    9.7908    6.8477    1.1050 H   0  0  0  0  0  0  0  0  0  0  0  0
    8.9103    5.7570    0.0052 H   0  0  0  0  0  0  0  0  0  0  0  0
   10.2923    5.1481    0.9678 H   0  0  0  0  0  0  0  0  0  0  0  0
    9.4643    6.2833    3.5856 H   0  0  0  0  0  0  0  0  0  0  0  0
    7.5233    3.6803    2.9193 H   0  0  0  0  0  0  0  0  0  0  0  0
    8.6857    3.3201    1.6479 H   0  0  0  0  0  0  0  0  0  0  0  0
  1  2  1  0
  1 39  1  0
  1 40  1  0
  1 41  1  0
  2  3  1  0
  2 42  1  0
  2 43  1  0
  3  4  1  0
  3 44  1  0
  3 45  1  0
  4  5  1  0
  4 46  1  0
  4 47  1  0
  5  6  1  0
  5 48  1  0
  5 49  1  0
  6  7  1  0
  6 10  1  0
  6 50  1  1
  7  8  1  0
  7 51  1  0
  7 52  1  0
  8  9  1  0
  8 53  1  0
  8 54  1  0
  9 55  1  0
  9 56  1  0
  9 57  1  0
 10 11  2  0
 10 38  1  0
 11 12  1  0
 11 58  1  0
 12 13  1  6
 12 18  1  0
 12 33  1  0
 13 14  1  0
 14 15  1  0
 14 59  1  0
 14 60  1  0
 15 16  1  0
 15 61  1  0
 15 62  1  0
 16 17  1  0
 16 63  1  0
 16 64  1  0
 17 65  1  0
 17 66  1  0
 17 67  1  0
 18 19  2  0
 18 31  1  0
 19 20  1  0
 19 68  1  0
 20 21  2  0
 20 69  1  0
 21 22  1  0
 22 23  1  0
 22 31  1  0
 23 24  2  0
 23 30  1  0
 24 25  1  0
 24 70  1  0
 25 26  2  0
 25 71  1  0
 26 27  1  0
 26 28  1  0
 28 29  1  0
 28 30  2  0
 30 72  1  0
 31 32  2  0
 33 34  1  0
 33 35  1  0
 33 73  1  1
 34 74  1  0
 35 36  1  0
 35 37  1  1
 35 38  1  0
 36 75  1  0
 36 76  1  0
 36 77  1  0
 37 78  1  0
 38 79  1  0
 38 80  1  0
M  END

