
     RDKit          3D

 48 49  0  0  0  0  0  0  0  0999 V2000
    2.2599   -2.6944   11.3969 C   0  0  0  0  0  0  0  0  0  0  0  0
    1.9353   -3.5641   10.3314 O   0  0  0  0  0  0  0  0  0  0  0  0
    2.6134   -3.4803    9.1684 C   0  0  0  0  0  0  0  0  0  0  0  0
    2.2244   -4.3852    8.1579 C   0  0  0  0  0  0  0  0  0  0  0  0
    2.8616   -4.3713    6.9297 C   0  0  0  0  0  0  0  0  0  0  0  0
    3.9136   -3.4665    6.6618 C   0  0  0  0  0  0  0  0  0  0  0  0
    4.5108   -3.4931    5.2964 C   0  0  0  0  0  0  0  0  0  0  0  0
    4.0196   -4.1499    4.4002 O   0  0  0  0  0  0  0  0  0  0  0  0
    5.7165   -2.5778    4.9601 C   0  0  2  0  0  0  0  0  0  0  0  0
    5.3532   -1.5401    5.0340 H   0  0  0  0  0  0  0  0  0  0  0  0
    6.2718   -2.8298    3.5686 C   0  0  0  0  0  0  0  0  0  0  0  0
    6.7754   -2.6003    5.9585 O   0  0  0  0  0  0  0  0  0  0  0  0
    7.2975   -3.7683    6.3335 C   0  0  0  0  0  0  0  0  0  0  0  0
    6.9075   -4.8451    5.9232 O   0  0  0  0  0  0  0  0  0  0  0  0
    8.3919   -3.6143    7.3636 C   0  0  0  0  0  0  0  0  0  0  0  0
    7.7392   -3.7511    9.0767 S   0  0  0  0  0  0  0  0  0  0  0  0
    6.9969   -5.4330    9.0864 C   0  0  0  0  0  0  0  0  0  0  0  0
    8.0111   -6.5667    8.9162 C   0  0  0  0  0  0  0  0  0  0  0  0
    8.5862   -7.0555    9.8721 O   0  0  0  0  0  0  0  0  0  0  0  0
    8.1894   -6.9424    7.6080 N   0  0  0  0  0  0  0  0  0  0  0  0
    9.0463   -7.9337    7.0883 C   0  0  0  0  0  0  0  0  0  0  0  0
    9.0549   -8.1143    5.6919 C   0  0  0  0  0  0  0  0  0  0  0  0
    9.8737   -9.0745    5.1000 C   0  0  0  0  0  0  0  0  0  0  0  0
   10.6901   -9.8599    5.9107 C   0  0  0  0  0  0  0  0  0  0  0  0
   11.4817  -10.7873    5.3460 F   0  0  0  0  0  0  0  0  0  0  0  0
   10.6988   -9.6995    7.2931 C   0  0  0  0  0  0  0  0  0  0  0  0
    9.8794   -8.7376    7.8884 C   0  0  0  0  0  0  0  0  0  0  0  0
    4.2928   -2.5717    7.6755 C   0  0  0  0  0  0  0  0  0  0  0  0
    3.6530   -2.5698    8.9172 C   0  0  0  0  0  0  0  0  0  0  0  0
    1.5830   -2.9490   12.2229 H   0  0  0  0  0  0  0  0  0  0  0  0
    2.1079   -1.6361   11.1208 H   0  0  0  0  0  0  0  0  0  0  0  0
    3.3032   -2.8309   11.7322 H   0  0  0  0  0  0  0  0  0  0  0  0
    1.4135   -5.0836    8.3740 H   0  0  0  0  0  0  0  0  0  0  0  0
    2.5614   -5.0589    6.1369 H   0  0  0  0  0  0  0  0  0  0  0  0
    7.1095   -2.1452    3.3693 H   0  0  0  0  0  0  0  0  0  0  0  0
    5.4844   -2.6566    2.8229 H   0  0  0  0  0  0  0  0  0  0  0  0
    6.6075   -3.8700    3.4631 H   0  0  0  0  0  0  0  0  0  0  0  0
    8.8362   -2.6114    7.3132 H   0  0  0  0  0  0  0  0  0  0  0  0
    9.1677   -4.3718    7.1866 H   0  0  0  0  0  0  0  0  0  0  0  0
    6.1753   -5.4831    8.3569 H   0  0  0  0  0  0  0  0  0  0  0  0
    6.5798   -5.5196   10.0989 H   0  0  0  0  0  0  0  0  0  0  0  0
    7.6494   -6.4232    6.9133 H   0  0  0  0  0  0  0  0  0  0  0  0
    8.4102   -7.4930    5.0643 H   0  0  0  0  0  0  0  0  0  0  0  0
    9.8854   -9.2218    4.0183 H   0  0  0  0  0  0  0  0  0  0  0  0
   11.3504  -10.3317    7.8999 H   0  0  0  0  0  0  0  0  0  0  0  0
    9.8749   -8.5988    8.9669 H   0  0  0  0  0  0  0  0  0  0  0  0
    5.1058   -1.8631    7.5156 H   0  0  0  0  0  0  0  0  0  0  0  0
    3.9777   -1.8622    9.6796 H   0  0  0  0  0  0  0  0  0  0  0  0
  1  2  1  0
  1 30  1  0
  1 31  1  0
  1 32  1  0
  2  3  1  0
  3  4  2  0
  3 29  1  0
  4  5  1  0
  4 33  1  0
  5  6  2  0
  5 34  1  0
  6  7  1  0
  6 28  1  0
  7  8  2  0
  7  9  1  0
  9 10  1  6
  9 11  1  0
  9 12  1  0
 11 35  1  0
 11 36  1  0
 11 37  1  0
 12 13  1  0
 13 14  2  0
 13 15  1  0
 15 16  1  0
 15 38  1  0
 15 39  1  0
 16 17  1  0
 17 18  1  0
 17 40  1  0
 17 41  1  0
 18 19  2  0
 18 20  1  0
 20 21  1  0
 20 42  1  0
 21 22  2  0
 21 27  1  0
 22 23  1  0
 22 43  1  0
 23 24  2  0
 23 44  1  0
 24 25  1  0
 24 26  1  0
 26 27  2  0
 26 45  1  0
 27 46  1  0
 28 29  2  0
 28 47  1  0
 29 48  1  0
M  END

