
     RDKit          3D

 41 42  0  0  0  0  0  0  0  0999 V2000
    1.4206   -0.9393   -0.2657 C   0  0  0  0  0  0  0  0  0  0  0  0
    2.6672   -0.0893    0.0352 C   0  0  1  0  0  0  0  0  0  0  0  0
    3.8840   -0.9762    0.3514 C   0  0  0  0  0  0  0  0  0  0  0  0
    2.9615    0.9088   -1.0778 C   0  0  0  0  0  0  0  0  0  0  0  0
    2.9310    2.2866   -0.8378 C   0  0  0  0  0  0  0  0  0  0  0  0
    3.2011    3.1935   -1.8645 C   0  0  0  0  0  0  0  0  0  0  0  0
    3.5076    2.7689   -3.1656 C   0  0  0  0  0  0  0  0  0  0  0  0
    3.7609    3.7808   -4.2835 C   0  0  1  0  0  0  0  0  0  0  0  0
    2.7906    3.6441   -5.3252 O   0  0  0  0  0  0  0  0  0  0  0  0
    3.8656    5.2281   -3.8423 C   0  0  1  0  0  0  0  0  0  0  0  0
    5.1783    5.7908   -3.3564 C   0  0  0  0  0  0  0  0  0  0  0  0
    4.6311    6.1993   -4.7003 C   0  0  0  0  0  0  0  0  0  0  0  0
    3.5554    1.3742   -3.4270 C   0  0  0  0  0  0  0  0  0  0  0  0
    3.8806    0.8053   -4.8095 C   0  0  1  0  0  0  0  0  0  0  0  0
    5.0235   -0.2238   -4.7692 C   0  0  0  0  0  0  0  0  0  0  0  0
    2.6240    0.2212   -5.4799 C   0  0  0  0  0  0  0  0  0  0  0  0
    3.2794    0.4860   -2.3775 C   0  0  0  0  0  0  0  0  0  0  0  0
    1.1873   -1.6049    0.5816 H   0  0  0  0  0  0  0  0  0  0  0  0
    1.5711   -1.5744   -1.1543 H   0  0  0  0  0  0  0  0  0  0  0  0
    0.5398   -0.3056   -0.4541 H   0  0  0  0  0  0  0  0  0  0  0  0
    2.4491    0.5031    0.9410 H   0  0  0  0  0  0  0  0  0  0  0  0
    4.1528   -1.6121   -0.5082 H   0  0  0  0  0  0  0  0  0  0  0  0
    3.6713   -1.6429    1.2034 H   0  0  0  0  0  0  0  0  0  0  0  0
    4.7667   -0.3688    0.6056 H   0  0  0  0  0  0  0  0  0  0  0  0
    2.6961    2.6591    0.1637 H   0  0  0  0  0  0  0  0  0  0  0  0
    3.1816    4.2602   -1.6366 H   0  0  0  0  0  0  0  0  0  0  0  0
    4.7173    3.5227   -4.7702 H   0  0  0  0  0  0  0  0  0  0  0  0
    1.9165    3.7208   -4.9185 H   0  0  0  0  0  0  0  0  0  0  0  0
    2.9594    5.6219   -3.3666 H   0  0  0  0  0  0  0  0  0  0  0  0
    6.0414    5.1181   -3.3339 H   0  0  0  0  0  0  0  0  0  0  0  0
    5.1620    6.5177   -2.5395 H   0  0  0  0  0  0  0  0  0  0  0  0
    5.1160    5.8072   -5.5993 H   0  0  0  0  0  0  0  0  0  0  0  0
    4.2343    7.2119   -4.8145 H   0  0  0  0  0  0  0  0  0  0  0  0
    4.2114    1.6325   -5.4513 H   0  0  0  0  0  0  0  0  0  0  0  0
    4.7457   -1.1331   -4.2118 H   0  0  0  0  0  0  0  0  0  0  0  0
    5.9262    0.1944   -4.2958 H   0  0  0  0  0  0  0  0  0  0  0  0
    5.2913   -0.5382   -5.7912 H   0  0  0  0  0  0  0  0  0  0  0  0
    2.2034   -0.6135   -4.8949 H   0  0  0  0  0  0  0  0  0  0  0  0
    2.8607   -0.1590   -6.4875 H   0  0  0  0  0  0  0  0  0  0  0  0
    1.8498    0.9952   -5.5841 H   0  0  0  0  0  0  0  0  0  0  0  0
    3.3148   -0.5871   -2.5838 H   0  0  0  0  0  0  0  0  0  0  0  0
  1  2  1  0
  1 18  1  0
  1 19  1  0
  1 20  1  0
  2  3  1  0
  2  4  1  0
  2 21  1  1
  3 22  1  0
  3 23  1  0
  3 24  1  0
  4  5  2  0
  4 17  1  0
  5  6  1  0
  5 25  1  0
  6  7  2  0
  6 26  1  0
  7  8  1  0
  7 13  1  0
  8  9  1  0
  8 10  1  0
  8 27  1  6
  9 28  1  0
 10 11  1  0
 10 12  1  0
 10 29  1  1
 11 12  1  0
 11 30  1  0
 11 31  1  0
 12 32  1  0
 12 33  1  0
 13 14  1  0
 13 17  2  0
 14 15  1  0
 14 16  1  0
 14 34  1  6
 15 35  1  0
 15 36  1  0
 15 37  1  0
 16 38  1  0
 16 39  1  0
 16 40  1  0
 17 41  1  0
M  END

