
     RDKit          3D

 44 45  0  0  0  0  0  0  0  0999 V2000
   -2.4778   -2.6468    2.6947 C   0  0  0  0  0  0  0  0  0  0  0  0
   -2.3603   -4.1038    2.2629 C   0  0  0  0  0  0  0  0  0  0  0  0
   -2.5049   -4.2725    0.4606 S   0  0  1  0  0  0  0  0  0  0  0  0
   -3.8649   -3.8753    0.0909 O   0  0  0  0  0  0  0  0  0  0  0  0
   -1.3324   -3.5851   -0.1169 O   0  0  0  0  0  0  0  0  0  0  0  0
   -2.3281   -5.8845    0.1041 N   0  0  0  0  0  0  0  0  0  0  0  0
   -3.4814   -6.7841    0.0119 C   0  0  0  0  0  0  0  0  0  0  0  0
   -3.3903   -7.6164   -1.2708 C   0  0  0  0  0  0  0  0  0  0  0  0
   -2.0360   -8.3263   -1.3847 C   0  0  0  0  0  0  0  0  0  0  0  0
   -0.8633   -7.3301   -1.2744 C   0  0  1  0  0  0  0  0  0  0  0  0
    0.0706   -7.9113   -1.1849 H   0  0  0  0  0  0  0  0  0  0  0  0
   -0.6822   -6.5736   -2.6082 C   0  0  0  0  0  0  0  0  0  0  0  0
   -0.5635   -7.2276   -3.6380 O   0  0  0  0  0  0  0  0  0  0  0  0
   -0.6534   -5.2162   -2.5870 N   0  0  0  0  0  0  0  0  0  0  0  0
   -0.3194   -4.4593   -3.7747 C   0  0  0  0  0  0  0  0  0  0  0  0
    1.1801   -4.0925   -3.8461 C   0  0  2  0  0  0  0  0  0  0  0  0
    1.4007   -3.3558   -3.0545 H   0  0  0  0  0  0  0  0  0  0  0  0
    1.5973   -3.5999   -5.2395 C   0  0  0  0  0  0  0  0  0  0  0  0
    1.8993   -4.9205   -5.9737 C   0  0  0  0  0  0  0  0  0  0  0  0
    2.3094   -5.8797   -4.8318 C   0  0  0  0  0  0  0  0  0  0  0  0
    2.0134   -5.2124   -3.6034 O   0  0  0  0  0  0  0  0  0  0  0  0
   -1.0001   -6.4970    0.0081 C   0  0  0  0  0  0  0  0  0  0  0  0
   -2.3990   -2.5729    3.7903 H   0  0  0  0  0  0  0  0  0  0  0  0
   -3.4465   -2.2277    2.3858 H   0  0  0  0  0  0  0  0  0  0  0  0
   -1.6763   -2.0424    2.2455 H   0  0  0  0  0  0  0  0  0  0  0  0
   -3.1634   -4.7306    2.6801 H   0  0  0  0  0  0  0  0  0  0  0  0
   -1.3875   -4.5437    2.5312 H   0  0  0  0  0  0  0  0  0  0  0  0
   -4.3947   -6.1758    0.0247 H   0  0  0  0  0  0  0  0  0  0  0  0
   -3.5008   -7.4541    0.8956 H   0  0  0  0  0  0  0  0  0  0  0  0
   -3.5394   -6.9494   -2.1365 H   0  0  0  0  0  0  0  0  0  0  0  0
   -4.2129   -8.3506   -1.2834 H   0  0  0  0  0  0  0  0  0  0  0  0
   -1.9516   -8.8619   -2.3408 H   0  0  0  0  0  0  0  0  0  0  0  0
   -1.9447   -9.0760   -0.5780 H   0  0  0  0  0  0  0  0  0  0  0  0
   -0.7910   -4.6922   -1.7253 H   0  0  0  0  0  0  0  0  0  0  0  0
   -0.9166   -3.5326   -3.7970 H   0  0  0  0  0  0  0  0  0  0  0  0
   -0.6011   -5.0713   -4.6434 H   0  0  0  0  0  0  0  0  0  0  0  0
    2.5052   -2.9822   -5.1546 H   0  0  0  0  0  0  0  0  0  0  0  0
    0.8241   -2.9940   -5.7373 H   0  0  0  0  0  0  0  0  0  0  0  0
    2.6880   -4.8071   -6.7323 H   0  0  0  0  0  0  0  0  0  0  0  0
    1.0028   -5.2950   -6.4912 H   0  0  0  0  0  0  0  0  0  0  0  0
    3.3897   -6.1049   -4.8390 H   0  0  0  0  0  0  0  0  0  0  0  0
    1.7526   -6.8304   -4.8817 H   0  0  0  0  0  0  0  0  0  0  0  0
   -0.2381   -5.7085    0.0566 H   0  0  0  0  0  0  0  0  0  0  0  0
   -0.8383   -7.1651    0.8769 H   0  0  0  0  0  0  0  0  0  0  0  0
  1  2  1  0
  1 23  1  0
  1 24  1  0
  1 25  1  0
  3  2  1  1
  2 26  1  0
  2 27  1  0
  3  4  2  0
  3  5  2  0
  3  6  1  0
  6  7  1  0
  6 22  1  0
  7  8  1  0
  7 28  1  0
  7 29  1  0
  8  9  1  0
  8 30  1  0
  8 31  1  0
  9 10  1  0
  9 32  1  0
  9 33  1  0
 10 11  1  1
 10 12  1  0
 10 22  1  0
 12 13  2  0
 12 14  1  0
 14 15  1  0
 14 34  1  0
 15 16  1  0
 15 35  1  0
 15 36  1  0
 16 17  1  1
 16 18  1  0
 16 21  1  0
 18 19  1  0
 18 37  1  0
 18 38  1  0
 19 20  1  0
 19 39  1  0
 19 40  1  0
 20 21  1  0
 20 41  1  0
 20 42  1  0
 22 43  1  0
 22 44  1  0
M  END

