
     RDKit          3D

 42 44  0  0  0  0  0  0  0  0999 V2000
    1.1246    0.8862    0.3256 C   0  0  0  0  0  0  0  0  0  0  0  0
    2.5746    0.5254    0.1148 C   0  0  0  0  0  0  0  0  0  0  0  0
    3.4533    1.3788   -0.5614 C   0  0  0  0  0  0  0  0  0  0  0  0
    4.7801    1.0049   -0.7742 C   0  0  0  0  0  0  0  0  0  0  0  0
    5.2877   -0.2323   -0.3467 C   0  0  0  0  0  0  0  0  0  0  0  0
    6.7802   -0.5257   -0.5744 C   0  0  1  0  0  0  0  0  0  0  0  0
    7.1712   -1.9190   -1.1088 C   0  0  0  0  0  0  0  0  0  0  0  0
    6.8882   -2.0671   -2.5311 N   0  0  0  0  0  0  0  0  0  0  0  0
    6.0156   -3.0426   -2.9481 C   0  0  0  0  0  0  0  0  0  0  0  0
    5.3928   -3.7411   -2.1566 O   0  0  0  0  0  0  0  0  0  0  0  0
    5.8488   -3.2744   -4.4219 C   0  0  0  0  0  0  0  0  0  0  0  0
    6.8575   -3.4880   -5.3335 C   0  0  0  0  0  0  0  0  0  0  0  0
    6.1759   -3.8979   -6.8566 S   0  0  0  0  0  0  0  0  0  0  0  0
    4.5933   -3.7898   -6.3254 N   0  0  0  0  0  0  0  0  0  0  0  0
    4.5581   -3.4764   -5.0470 C   0  0  0  0  0  0  0  0  0  0  0  0
    3.2382   -3.3480   -4.3440 C   0  0  0  0  0  0  0  0  0  0  0  0
    7.5275   -1.0399   -3.3415 C   0  0  0  0  0  0  0  0  0  0  0  0
    7.1564    0.3363   -2.7894 C   0  0  0  0  0  0  0  0  0  0  0  0
    7.4103    0.4572   -1.4004 O   0  0  0  0  0  0  0  0  0  0  0  0
    4.4267   -1.0851    0.3901 C   0  0  0  0  0  0  0  0  0  0  0  0
    4.8609   -2.3981    1.0056 C   0  0  0  0  0  0  0  0  0  0  0  0
    3.0958   -0.6848    0.5899 C   0  0  0  0  0  0  0  0  0  0  0  0
    0.9696    1.9754    0.2914 H   0  0  0  0  0  0  0  0  0  0  0  0
    0.7514    0.5176    1.2939 H   0  0  0  0  0  0  0  0  0  0  0  0
    0.4862    0.4403   -0.4576 H   0  0  0  0  0  0  0  0  0  0  0  0
    3.1047    2.3529   -0.9167 H   0  0  0  0  0  0  0  0  0  0  0  0
    5.4553    1.7064   -1.2637 H   0  0  0  0  0  0  0  0  0  0  0  0
    7.2866   -0.4183    0.4017 H   0  0  0  0  0  0  0  0  0  0  0  0
    6.6760   -2.7313   -0.5764 H   0  0  0  0  0  0  0  0  0  0  0  0
    8.2622   -2.0203   -0.9640 H   0  0  0  0  0  0  0  0  0  0  0  0
    7.9341   -3.4453   -5.1680 H   0  0  0  0  0  0  0  0  0  0  0  0
    2.4223   -3.5377   -5.0534 H   0  0  0  0  0  0  0  0  0  0  0  0
    3.1148   -2.3410   -3.9131 H   0  0  0  0  0  0  0  0  0  0  0  0
    3.1852   -4.0603   -3.5079 H   0  0  0  0  0  0  0  0  0  0  0  0
    7.2012   -1.1122   -4.3857 H   0  0  0  0  0  0  0  0  0  0  0  0
    8.6254   -1.1752   -3.3099 H   0  0  0  0  0  0  0  0  0  0  0  0
    6.0918    0.5294   -3.0164 H   0  0  0  0  0  0  0  0  0  0  0  0
    7.7591    1.1162   -3.2805 H   0  0  0  0  0  0  0  0  0  0  0  0
    5.8496   -2.3306    1.4874 H   0  0  0  0  0  0  0  0  0  0  0  0
    4.9057   -3.1982    0.2488 H   0  0  0  0  0  0  0  0  0  0  0  0
    4.1434   -2.7114    1.7779 H   0  0  0  0  0  0  0  0  0  0  0  0
    2.4396   -1.3510    1.1591 H   0  0  0  0  0  0  0  0  0  0  0  0
  1  2  1  0
  1 23  1  0
  1 24  1  0
  1 25  1  0
  2  3  2  0
  2 22  1  0
  3  4  1  0
  3 26  1  0
  4  5  2  0
  4 27  1  0
  5  6  1  0
  5 20  1  0
  6  7  1  0
  6 19  1  0
  6 28  1  1
  7  8  1  0
  7 29  1  0
  7 30  1  0
  8  9  1  0
  8 17  1  0
  9 10  2  0
  9 11  1  0
 11 12  2  0
 11 15  1  0
 12 13  1  0
 12 31  1  0
 13 14  1  0
 14 15  2  0
 15 16  1  0
 16 32  1  0
 16 33  1  0
 16 34  1  0
 17 18  1  0
 17 35  1  0
 17 36  1  0
 18 19  1  0
 18 37  1  0
 18 38  1  0
 20 21  1  0
 20 22  2  0
 21 39  1  0
 21 40  1  0
 21 41  1  0
 22 42  1  0
M  END

