
     RDKit          3D

 39 39  0  0  0  0  0  0  0  0999 V2000
    0.9937    1.4567   -3.0374 C   0  0  0  0  0  0  0  0  0  0  0  0
    2.4690    1.3031   -2.6673 C   0  0  0  0  0  0  0  0  0  0  0  0
    2.7079    1.2122   -1.1569 C   0  0  0  0  0  0  0  0  0  0  0  0
    4.1672    1.0833   -0.7565 C   0  0  0  0  0  0  0  0  0  0  0  0
    4.8485    2.2733   -1.1887 O   0  0  0  0  0  0  0  0  0  0  0  0
    6.1636    2.3526   -1.3299 C   0  0  0  0  0  0  0  0  0  0  0  0
    7.1697    1.6159   -0.7791 C   0  0  0  0  0  0  0  0  0  0  0  0
    7.1362    0.6708    0.3513 C   0  0  0  0  0  0  0  0  0  0  0  0
    6.2455    0.6618    1.1939 O   0  0  0  0  0  0  0  0  0  0  0  0
    8.3003   -0.2739    0.4956 C   0  0  0  0  0  0  0  0  0  0  0  0
    9.2632   -0.5011   -0.4988 C   0  0  0  0  0  0  0  0  0  0  0  0
   10.2837   -1.4205   -0.2547 C   0  0  0  0  0  0  0  0  0  0  0  0
   10.3069   -2.0790    0.9784 C   0  0  0  0  0  0  0  0  0  0  0  0
    9.3976   -1.8772    1.9377 N   0  0  0  0  0  0  0  0  0  0  0  0
    8.4239   -1.0014    1.6954 C   0  0  0  0  0  0  0  0  0  0  0  0
    6.5824    3.4431   -2.3065 C   0  0  0  0  0  0  0  0  0  0  0  0
    7.7359    3.6814   -2.5792 O   0  0  0  0  0  0  0  0  0  0  0  0
    5.5340    4.0884   -2.8229 O   0  0  0  0  0  0  0  0  0  0  0  0
    5.8057    5.1624   -3.7466 C   0  0  0  0  0  0  0  0  0  0  0  0
    6.0644    6.4721   -3.0215 C   0  0  0  0  0  0  0  0  0  0  0  0
    0.8559    1.5194   -4.1286 H   0  0  0  0  0  0  0  0  0  0  0  0
    0.5635    2.3711   -2.5955 H   0  0  0  0  0  0  0  0  0  0  0  0
    0.3949    0.6038   -2.6754 H   0  0  0  0  0  0  0  0  0  0  0  0
    3.0470    2.1543   -3.0640 H   0  0  0  0  0  0  0  0  0  0  0  0
    2.8810    0.3991   -3.1531 H   0  0  0  0  0  0  0  0  0  0  0  0
    2.1756    0.3392   -0.7383 H   0  0  0  0  0  0  0  0  0  0  0  0
    2.2840    2.1001   -0.6552 H   0  0  0  0  0  0  0  0  0  0  0  0
    4.6474    0.2167   -1.2471 H   0  0  0  0  0  0  0  0  0  0  0  0
    4.2977    0.9651    0.3276 H   0  0  0  0  0  0  0  0  0  0  0  0
    8.1493    1.8664   -1.1879 H   0  0  0  0  0  0  0  0  0  0  0  0
    9.2142    0.0191   -1.4577 H   0  0  0  0  0  0  0  0  0  0  0  0
   11.0485   -1.6268   -1.0067 H   0  0  0  0  0  0  0  0  0  0  0  0
   11.0976   -2.8061    1.1998 H   0  0  0  0  0  0  0  0  0  0  0  0
    7.6794   -0.8417    2.4818 H   0  0  0  0  0  0  0  0  0  0  0  0
    4.9029    5.2215   -4.3706 H   0  0  0  0  0  0  0  0  0  0  0  0
    6.6633    4.8817   -4.3757 H   0  0  0  0  0  0  0  0  0  0  0  0
    5.2222    6.7291   -2.3606 H   0  0  0  0  0  0  0  0  0  0  0  0
    6.1876    7.2847   -3.7553 H   0  0  0  0  0  0  0  0  0  0  0  0
    6.9835    6.4135   -2.4202 H   0  0  0  0  0  0  0  0  0  0  0  0
  1  2  1  0
  1 21  1  0
  1 22  1  0
  1 23  1  0
  2  3  1  0
  2 24  1  0
  2 25  1  0
  3  4  1  0
  3 26  1  0
  3 27  1  0
  4  5  1  0
  4 28  1  0
  4 29  1  0
  5  6  1  0
  6  7  2  0
  6 16  1  0
  7  8  1  0
  7 30  1  0
  8  9  2  0
  8 10  1  0
 10 11  2  0
 10 15  1  0
 11 12  1  0
 11 31  1  0
 12 13  2  0
 12 32  1  0
 13 14  1  0
 13 33  1  0
 14 15  2  0
 15 34  1  0
 16 17  2  0
 16 18  1  0
 18 19  1  0
 19 20  1  0
 19 35  1  0
 19 36  1  0
 20 37  1  0
 20 38  1  0
 20 39  1  0
M  END

