
     RDKit          3D

 37 37  0  0  0  0  0  0  0  0999 V2000
    1.1413   -0.0384   -0.0176 C   0  0  0  0  0  0  0  0  0  0  0  0
    2.6559   -0.0857    0.1535 C   0  0  0  0  0  0  0  0  0  0  0  0
    3.1591    1.1735    0.6839 N   0  0  0  0  0  0  0  0  0  0  0  0
    4.5823    1.2031    1.0285 C   0  0  1  0  0  0  0  0  0  0  0  0
    5.4660    1.0584   -0.2230 C   0  0  0  0  0  0  0  0  0  0  0  0
    4.9105    2.4995    1.7582 C   0  0  0  0  0  0  0  0  0  0  0  0
    4.1911    3.6755    1.5204 C   0  0  0  0  0  0  0  0  0  0  0  0
    4.5064    4.8747    2.1702 C   0  0  0  0  0  0  0  0  0  0  0  0
    5.5641    4.9062    3.0762 C   0  0  0  0  0  0  0  0  0  0  0  0
    6.3083    3.7482    3.3312 C   0  0  0  0  0  0  0  0  0  0  0  0
    5.9883    2.5537    2.6724 C   0  0  0  0  0  0  0  0  0  0  0  0
    6.6759    1.3856    2.8612 O   0  0  0  0  0  0  0  0  0  0  0  0
    7.7577    1.3401    3.7665 C   0  0  0  0  0  0  0  0  0  0  0  0
    8.3149   -0.0708    3.7635 C   0  0  0  0  0  0  0  0  0  0  0  0
    8.8826   -0.5291    2.0711 S   0  0  0  0  0  0  0  0  0  0  0  0
   10.1790   -1.7079    2.5511 C   0  0  1  0  0  0  0  0  0  0  0  0
   11.1466   -1.1460    3.2965 F   0  0  0  0  0  0  0  0  0  0  0  0
    9.7016   -2.7387    3.2658 F   0  0  0  0  0  0  0  0  0  0  0  0
   10.7378   -2.1898    1.4400 F   0  0  0  0  0  0  0  0  0  0  0  0
    0.7629   -0.9755   -0.4549 H   0  0  0  0  0  0  0  0  0  0  0  0
    0.8517    0.7966   -0.6747 H   0  0  0  0  0  0  0  0  0  0  0  0
    0.6329    0.1037    0.9518 H   0  0  0  0  0  0  0  0  0  0  0  0
    3.1218   -0.2736   -0.8279 H   0  0  0  0  0  0  0  0  0  0  0  0
    2.9316   -0.9573    0.7926 H   0  0  0  0  0  0  0  0  0  0  0  0
    2.6217    1.4156    1.5170 H   0  0  0  0  0  0  0  0  0  0  0  0
    4.8477    0.3655    1.7080 H   0  0  0  0  0  0  0  0  0  0  0  0
    5.2268    1.8494   -0.9511 H   0  0  0  0  0  0  0  0  0  0  0  0
    5.3240    0.0809   -0.7090 H   0  0  0  0  0  0  0  0  0  0  0  0
    6.5276    1.1381    0.0512 H   0  0  0  0  0  0  0  0  0  0  0  0
    3.3648    3.6311    0.8082 H   0  0  0  0  0  0  0  0  0  0  0  0
    3.9261    5.7775    1.9652 H   0  0  0  0  0  0  0  0  0  0  0  0
    5.8231    5.8333    3.5941 H   0  0  0  0  0  0  0  0  0  0  0  0
    7.1344    3.7902    4.0410 H   0  0  0  0  0  0  0  0  0  0  0  0
    7.4225    1.5930    4.7909 H   0  0  0  0  0  0  0  0  0  0  0  0
    8.5420    2.0627    3.4751 H   0  0  0  0  0  0  0  0  0  0  0  0
    7.5521   -0.7900    4.0951 H   0  0  0  0  0  0  0  0  0  0  0  0
    9.1771   -0.1191    4.4433 H   0  0  0  0  0  0  0  0  0  0  0  0
  1  2  1  0
  1 20  1  0
  1 21  1  0
  1 22  1  0
  2  3  1  0
  2 23  1  0
  2 24  1  0
  3  4  1  0
  3 25  1  0
  4  5  1  0
  4  6  1  0
  4 26  1  1
  5 27  1  0
  5 28  1  0
  5 29  1  0
  6  7  2  0
  6 11  1  0
  7  8  1  0
  7 30  1  0
  8  9  2  0
  8 31  1  0
  9 10  1  0
  9 32  1  0
 10 11  2  0
 10 33  1  0
 11 12  1  0
 12 13  1  0
 13 14  1  0
 13 34  1  0
 13 35  1  0
 14 15  1  0
 14 36  1  0
 14 37  1  0
 15 16  1  0
 16 17  1  1
 16 18  1  0
 16 19  1  0
M  END

