
     RDKit          3D

 64 67  0  0  0  0  0  0  0  0999 V2000
    1.5473    1.7929    0.8557 C   0  0  0  0  0  0  0  0  0  0  0  0
    2.9027    2.4871    0.7156 C   0  0  0  0  0  0  0  0  0  0  0  0
    3.0186    3.3603   -0.5386 C   0  0  0  0  0  0  0  0  0  0  0  0
    4.3783    4.0529   -0.6726 C   0  0  0  0  0  0  0  0  0  0  0  0
    4.5874    4.8406   -1.9797 C   0  0  1  0  0  0  0  0  0  0  0  0
    3.5958    6.0053   -2.1958 C   0  0  0  0  0  0  0  0  0  0  0  0
    3.6035    7.1125   -1.1362 C   0  0  0  0  0  0  0  0  0  0  0  0
    6.0345    5.3242   -2.1050 C   0  0  0  0  0  0  0  0  0  0  0  0
    6.8841    4.1907   -2.1917 O   0  0  0  0  0  0  0  0  0  0  0  0
    8.2291    4.3489   -2.2945 C   0  0  0  0  0  0  0  0  0  0  0  0
    8.8758    5.6049   -2.3342 C   0  0  0  0  0  0  0  0  0  0  0  0
   10.2627    5.6844   -2.4432 C   0  0  0  0  0  0  0  0  0  0  0  0
   11.0311    4.5132   -2.5154 C   0  0  0  0  0  0  0  0  0  0  0  0
   12.4014    4.4492   -2.6247 N   0  0  0  0  0  0  0  0  0  0  0  0
   12.8293    3.2242   -2.6709 C   0  0  0  0  0  0  0  0  0  0  0  0
   14.2180    2.8398   -2.7862 C   0  0  0  0  0  0  0  0  0  0  0  0
   14.7859    1.5782   -2.8286 C   0  0  0  0  0  0  0  0  0  0  0  0
   16.1965    1.6039   -2.9392 C   0  0  0  0  0  0  0  0  0  0  0  0
   16.7278    2.8851   -2.9828 C   0  0  0  0  0  0  0  0  0  0  0  0
   18.1320    3.2860   -3.0941 C   0  0  0  0  0  0  0  0  0  0  0  0
   19.1127    2.3885   -3.5633 C   0  0  0  0  0  0  0  0  0  0  0  0
   20.4513    2.7457   -3.6668 C   0  0  0  0  0  0  0  0  0  0  0  0
   20.8963    4.0443   -3.3077 C   0  0  0  0  0  0  0  0  0  0  0  0
   22.2245    4.4083   -3.4104 N   0  0  0  0  0  0  0  0  0  0  0  0
   22.6407    5.7460   -3.0426 C   0  0  0  0  0  0  0  0  0  0  0  0
   23.2059    3.4508   -3.8769 C   0  0  0  0  0  0  0  0  0  0  0  0
   19.9113    4.9507   -2.8394 C   0  0  0  0  0  0  0  0  0  0  0  0
   18.5773    4.5746   -2.7378 C   0  0  0  0  0  0  0  0  0  0  0  0
   15.4487    4.0745   -2.8964 S   0  0  0  0  0  0  0  0  0  0  0  0
   11.5469    1.9734   -2.5829 S   0  0  0  0  0  0  0  0  0  0  0  0
   10.3624    3.2566   -2.4751 C   0  0  0  0  0  0  0  0  0  0  0  0
    8.9771    3.1629   -2.3658 C   0  0  0  0  0  0  0  0  0  0  0  0
    1.5005    1.1745    1.7663 H   0  0  0  0  0  0  0  0  0  0  0  0
    1.3438    1.1333   -0.0047 H   0  0  0  0  0  0  0  0  0  0  0  0
    0.7243    2.5256    0.9091 H   0  0  0  0  0  0  0  0  0  0  0  0
    3.7071    1.7295    0.7043 H   0  0  0  0  0  0  0  0  0  0  0  0
    3.0925    3.1097    1.6091 H   0  0  0  0  0  0  0  0  0  0  0  0
    2.2063    4.1092   -0.5268 H   0  0  0  0  0  0  0  0  0  0  0  0
    2.8380    2.7356   -1.4336 H   0  0  0  0  0  0  0  0  0  0  0  0
    5.1738    3.2922   -0.6110 H   0  0  0  0  0  0  0  0  0  0  0  0
    4.5372    4.7220    0.1932 H   0  0  0  0  0  0  0  0  0  0  0  0
    4.4362    4.1355   -2.8177 H   0  0  0  0  0  0  0  0  0  0  0  0
    2.5780    5.5878   -2.2696 H   0  0  0  0  0  0  0  0  0  0  0  0
    3.7986    6.4523   -3.1855 H   0  0  0  0  0  0  0  0  0  0  0  0
    3.3463    6.7294   -0.1358 H   0  0  0  0  0  0  0  0  0  0  0  0
    2.8661    7.8920   -1.3857 H   0  0  0  0  0  0  0  0  0  0  0  0
    4.5845    7.6090   -1.0569 H   0  0  0  0  0  0  0  0  0  0  0  0
    6.3221    5.9417   -1.2334 H   0  0  0  0  0  0  0  0  0  0  0  0
    6.1493    5.9490   -3.0111 H   0  0  0  0  0  0  0  0  0  0  0  0
    8.2957    6.5256   -2.2808 H   0  0  0  0  0  0  0  0  0  0  0  0
   10.7668    6.6523   -2.4741 H   0  0  0  0  0  0  0  0  0  0  0  0
   14.1998    0.6592   -2.7703 H   0  0  0  0  0  0  0  0  0  0  0  0
   16.8114    0.7038   -2.9598 H   0  0  0  0  0  0  0  0  0  0  0  0
   18.8191    1.3839   -3.8760 H   0  0  0  0  0  0  0  0  0  0  0  0
   21.1564    2.0058   -4.0436 H   0  0  0  0  0  0  0  0  0  0  0  0
   22.1359    6.5211   -3.6485 H   0  0  0  0  0  0  0  0  0  0  0  0
   23.7214    5.8490   -3.2036 H   0  0  0  0  0  0  0  0  0  0  0  0
   22.4363    5.9715   -1.9791 H   0  0  0  0  0  0  0  0  0  0  0  0
   23.2589    2.5565   -3.2282 H   0  0  0  0  0  0  0  0  0  0  0  0
   24.1986    3.9186   -3.8812 H   0  0  0  0  0  0  0  0  0  0  0  0
   22.9951    3.1021   -4.9052 H   0  0  0  0  0  0  0  0  0  0  0  0
   20.1878    5.9612   -2.5411 H   0  0  0  0  0  0  0  0  0  0  0  0
   17.8609    5.3051   -2.3526 H   0  0  0  0  0  0  0  0  0  0  0  0
    8.4531    2.2066   -2.3347 H   0  0  0  0  0  0  0  0  0  0  0  0
  1  2  1  0
  1 33  1  0
  1 34  1  0
  1 35  1  0
  2  3  1  0
  2 36  1  0
  2 37  1  0
  3  4  1  0
  3 38  1  0
  3 39  1  0
  4  5  1  0
  4 40  1  0
  4 41  1  0
  5  6  1  0
  5  8  1  0
  5 42  1  6
  6  7  1  0
  6 43  1  0
  6 44  1  0
  7 45  1  0
  7 46  1  0
  7 47  1  0
  8  9  1  0
  8 48  1  0
  8 49  1  0
  9 10  1  0
 10 11  2  0
 10 32  1  0
 11 12  1  0
 11 50  1  0
 12 13  2  0
 12 51  1  0
 13 14  1  0
 13 31  1  0
 14 15  2  0
 15 16  1  0
 15 30  1  0
 16 17  2  0
 16 29  1  0
 17 18  1  0
 17 52  1  0
 18 19  2  0
 18 53  1  0
 19 20  1  0
 19 29  1  0
 20 21  2  0
 20 28  1  0
 21 22  1  0
 21 54  1  0
 22 23  2  0
 22 55  1  0
 23 24  1  0
 23 27  1  0
 24 25  1  0
 24 26  1  0
 25 56  1  0
 25 57  1  0
 25 58  1  0
 26 59  1  0
 26 60  1  0
 26 61  1  0
 27 28  2  0
 27 62  1  0
 28 63  1  0
 30 31  1  0
 31 32  2  0
 32 64  1  0
M  END

