
     RDKit          3D

 55 57  0  0  0  0  0  0  0  0999 V2000
   -0.8107    4.0007    8.6019 C   0  0  0  0  0  0  0  0  0  0  0  0
   -0.6632    5.2622    7.9627 O   0  0  0  0  0  0  0  0  0  0  0  0
    0.5258    5.5638    7.4336 C   0  0  0  0  0  0  0  0  0  0  0  0
    1.5200    4.6888    7.5219 N   0  0  0  0  0  0  0  0  0  0  0  0
    2.6791    5.0639    6.9652 C   0  0  0  0  0  0  0  0  0  0  0  0
    2.8862    6.2828    6.3186 C   0  0  0  0  0  0  0  0  0  0  0  0
    4.1852    6.6293    5.6934 C   0  0  0  0  0  0  0  0  0  0  0  0
    4.9260    5.6480    5.0087 C   0  0  0  0  0  0  0  0  0  0  0  0
    6.1715    5.9394    4.4502 C   0  0  0  0  0  0  0  0  0  0  0  0
    6.7257    7.2229    4.5498 C   0  0  0  0  0  0  0  0  0  0  0  0
    8.0604    7.5500    3.9225 C   0  0  0  0  0  0  0  0  0  0  0  0
    7.9493    8.2139    2.5196 C   0  0  2  0  0  0  0  0  0  0  0  0
    7.3456    9.1346    2.5984 H   0  0  0  0  0  0  0  0  0  0  0  0
    7.2754    7.3807    1.5635 N   0  0  0  0  0  0  0  0  0  0  0  0
    6.2588    7.8498    0.7846 C   0  0  0  0  0  0  0  0  0  0  0  0
    5.7183    8.9321    0.9437 O   0  0  0  0  0  0  0  0  0  0  0  0
    5.8046    6.8636   -0.3183 C   0  0  1  0  0  0  0  0  0  0  0  0
    4.4925    6.2131    0.1207 C   0  0  0  0  0  0  0  0  0  0  0  0
    5.7129    7.5980   -1.6907 C   0  0  0  0  0  0  0  0  0  0  0  0
    6.6653    6.8061   -2.6046 C   0  0  0  0  0  0  0  0  0  0  0  0
    7.6160    6.1568   -1.6009 C   0  0  0  0  0  0  0  0  0  0  0  0
    6.7845    5.8279   -0.4890 O   0  0  0  0  0  0  0  0  0  0  0  0
    9.3517    8.5810    2.0007 C   0  0  0  0  0  0  0  0  0  0  0  0
    9.9013    8.0088    1.0999 O   0  0  0  0  0  0  0  0  0  0  0  0
    9.9726    9.5809    2.6628 O   0  0  0  0  0  0  0  0  0  0  0  0
    5.9864    8.2043    5.2281 C   0  0  0  0  0  0  0  0  0  0  0  0
    4.7423    7.9193    5.7875 C   0  0  0  0  0  0  0  0  0  0  0  0
    1.7320    7.1225    6.3085 C   0  0  0  0  0  0  0  0  0  0  0  0
    1.8216    8.3152    5.7121 O   0  0  0  0  0  0  0  0  0  0  0  0
    0.6553    9.1345    5.6592 C   0  0  0  0  0  0  0  0  0  0  0  0
    0.5827    6.7666    6.8526 N   0  0  0  0  0  0  0  0  0  0  0  0
   -1.8482    3.9657    8.9590 H   0  0  0  0  0  0  0  0  0  0  0  0
   -0.1136    3.8977    9.4479 H   0  0  0  0  0  0  0  0  0  0  0  0
   -0.6224    3.1730    7.9006 H   0  0  0  0  0  0  0  0  0  0  0  0
    3.5084    4.3530    7.0516 H   0  0  0  0  0  0  0  0  0  0  0  0
    4.5134    4.6428    4.8938 H   0  0  0  0  0  0  0  0  0  0  0  0
    6.7190    5.1538    3.9224 H   0  0  0  0  0  0  0  0  0  0  0  0
    8.6672    6.6350    3.8222 H   0  0  0  0  0  0  0  0  0  0  0  0
    8.6272    8.2244    4.5859 H   0  0  0  0  0  0  0  0  0  0  0  0
    7.7304    6.5340    1.2311 H   0  0  0  0  0  0  0  0  0  0  0  0
    3.7379    6.9872    0.3214 H   0  0  0  0  0  0  0  0  0  0  0  0
    4.6439    5.6238    1.0377 H   0  0  0  0  0  0  0  0  0  0  0  0
    4.1255    5.5417   -0.6706 H   0  0  0  0  0  0  0  0  0  0  0  0
    6.0226    8.6467   -1.5813 H   0  0  0  0  0  0  0  0  0  0  0  0
    4.6805    7.6076   -2.0685 H   0  0  0  0  0  0  0  0  0  0  0  0
    7.1848    7.4397   -3.3390 H   0  0  0  0  0  0  0  0  0  0  0  0
    6.1183    6.0256   -3.1573 H   0  0  0  0  0  0  0  0  0  0  0  0
    8.4182    6.8553   -1.2910 H   0  0  0  0  0  0  0  0  0  0  0  0
    8.0854    5.2280   -1.9580 H   0  0  0  0  0  0  0  0  0  0  0  0
    9.3776    9.9877    3.3091 H   0  0  0  0  0  0  0  0  0  0  0  0
    6.3927    9.2157    5.3287 H   0  0  0  0  0  0  0  0  0  0  0  0
    4.1961    8.7039    6.3111 H   0  0  0  0  0  0  0  0  0  0  0  0
    0.9550   10.0421    5.1202 H   0  0  0  0  0  0  0  0  0  0  0  0
    0.3019    9.3856    6.6704 H   0  0  0  0  0  0  0  0  0  0  0  0
   -0.1606    8.6241    5.1261 H   0  0  0  0  0  0  0  0  0  0  0  0
  1  2  1  0
  1 32  1  0
  1 33  1  0
  1 34  1  0
  2  3  1  0
  3  4  2  0
  3 31  1  0
  4  5  1  0
  5  6  2  0
  5 35  1  0
  6  7  1  0
  6 28  1  0
  7  8  2  0
  7 27  1  0
  8  9  1  0
  8 36  1  0
  9 10  2  0
  9 37  1  0
 10 11  1  0
 10 26  1  0
 11 12  1  0
 11 38  1  0
 11 39  1  0
 12 13  1  1
 12 14  1  0
 12 23  1  0
 14 15  1  0
 14 40  1  0
 15 16  2  0
 17 15  1  1
 17 18  1  0
 17 19  1  0
 17 22  1  0
 18 41  1  0
 18 42  1  0
 18 43  1  0
 19 20  1  0
 19 44  1  0
 19 45  1  0
 20 21  1  0
 20 46  1  0
 20 47  1  0
 21 22  1  0
 21 48  1  0
 21 49  1  0
 23 24  2  0
 23 25  1  0
 25 50  1  0
 26 27  2  0
 26 51  1  0
 27 52  1  0
 28 29  1  0
 28 31  2  0
 29 30  1  0
 30 53  1  0
 30 54  1  0
 30 55  1  0
M  END

