
     RDKit          3D

 51 53  0  0  0  0  0  0  0  0999 V2000
    1.9433   -9.0229   -1.0558 C   0  0  0  0  0  0  0  0  0  0  0  0
    2.9419   -7.8933   -1.2446 C   0  0  0  0  0  0  0  0  0  0  0  0
    3.7856   -7.7256   -0.0941 O   0  0  0  0  0  0  0  0  0  0  0  0
    3.2969   -6.9607    0.9131 C   0  0  0  0  0  0  0  0  0  0  0  0
    2.2116   -6.4149    0.8793 O   0  0  0  0  0  0  0  0  0  0  0  0
    4.1787   -6.8734    1.9578 N   0  0  0  0  0  0  0  0  0  0  0  0
    5.4589   -7.5700    2.0312 C   0  0  0  0  0  0  0  0  0  0  0  0
    6.5585   -6.5958    2.4812 C   0  0  0  0  0  0  0  0  0  0  0  0
    6.2243   -5.8692    3.7100 N   0  0  0  0  0  0  0  0  0  0  0  0
    6.4385   -6.6261    4.9351 C   0  0  0  0  0  0  0  0  0  0  0  0
    7.8893   -6.6025    5.4416 C   0  0  0  0  0  0  0  0  0  0  0  0
    8.2804   -7.3984    6.2803 O   0  0  0  0  0  0  0  0  0  0  0  0
    8.6545   -5.6141    4.9067 N   0  0  0  0  0  0  0  0  0  0  0  0
   10.0271   -5.3875    5.2951 C   0  0  0  0  0  0  0  0  0  0  0  0
   10.2217   -4.1743    6.2013 C   0  0  2  0  0  0  0  0  0  0  0  0
    9.4581   -4.2359    7.5195 C   0  0  0  0  0  0  0  0  0  0  0  0
    9.7081   -3.0707    8.2916 O   0  0  0  0  0  0  0  0  0  0  0  0
    9.6269   -1.8975    7.5981 C   0  0  0  0  0  0  0  0  0  0  0  0
    9.5118   -0.6969    8.3067 C   0  0  0  0  0  0  0  0  0  0  0  0
    9.4209    0.5177    7.6247 C   0  0  0  0  0  0  0  0  0  0  0  0
    9.4379    0.5383    6.2250 C   0  0  0  0  0  0  0  0  0  0  0  0
    9.5637   -0.6553    5.5115 C   0  0  0  0  0  0  0  0  0  0  0  0
    9.6644   -1.8741    6.1894 C   0  0  0  0  0  0  0  0  0  0  0  0
    9.8015   -3.0261    5.4623 O   0  0  0  0  0  0  0  0  0  0  0  0
    4.9300   -5.1970    3.5779 C   0  0  0  0  0  0  0  0  0  0  0  0
    3.7947   -6.1395    3.1583 C   0  0  0  0  0  0  0  0  0  0  0  0
    1.3671   -9.1741   -1.9830 H   0  0  0  0  0  0  0  0  0  0  0  0
    1.2359   -8.7821   -0.2487 H   0  0  0  0  0  0  0  0  0  0  0  0
    2.4559   -9.9668   -0.8118 H   0  0  0  0  0  0  0  0  0  0  0  0
    2.4246   -6.9448   -1.4503 H   0  0  0  0  0  0  0  0  0  0  0  0
    3.6369   -8.1094   -2.0696 H   0  0  0  0  0  0  0  0  0  0  0  0
    5.6985   -7.9913    1.0488 H   0  0  0  0  0  0  0  0  0  0  0  0
    5.3822   -8.4143    2.7443 H   0  0  0  0  0  0  0  0  0  0  0  0
    6.7213   -5.8568    1.6768 H   0  0  0  0  0  0  0  0  0  0  0  0
    7.5070   -7.1365    2.6255 H   0  0  0  0  0  0  0  0  0  0  0  0
    6.1490   -7.6934    4.8886 H   0  0  0  0  0  0  0  0  0  0  0  0
    5.8302   -6.1866    5.7431 H   0  0  0  0  0  0  0  0  0  0  0  0
    8.1848   -4.9837    4.2612 H   0  0  0  0  0  0  0  0  0  0  0  0
   10.6488   -5.2410    4.3967 H   0  0  0  0  0  0  0  0  0  0  0  0
   10.3775   -6.2913    5.8151 H   0  0  0  0  0  0  0  0  0  0  0  0
   11.3012   -4.0774    6.4303 H   0  0  0  0  0  0  0  0  0  0  0  0
    9.7767   -5.0982    8.1207 H   0  0  0  0  0  0  0  0  0  0  0  0
    8.3761   -4.3307    7.3174 H   0  0  0  0  0  0  0  0  0  0  0  0
    9.4899   -0.7459    9.3975 H   0  0  0  0  0  0  0  0  0  0  0  0
    9.3301    1.4490    8.1884 H   0  0  0  0  0  0  0  0  0  0  0  0
    9.3610    1.4854    5.6861 H   0  0  0  0  0  0  0  0  0  0  0  0
    9.5944   -0.6700    4.4198 H   0  0  0  0  0  0  0  0  0  0  0  0
    5.0318   -4.4079    2.8121 H   0  0  0  0  0  0  0  0  0  0  0  0
    4.6801   -4.7002    4.5285 H   0  0  0  0  0  0  0  0  0  0  0  0
    2.8748   -5.5830    2.9383 H   0  0  0  0  0  0  0  0  0  0  0  0
    3.5701   -6.8523    3.9767 H   0  0  0  0  0  0  0  0  0  0  0  0
  1  2  1  0
  1 27  1  0
  1 28  1  0
  1 29  1  0
  2  3  1  0
  2 30  1  0
  2 31  1  0
  3  4  1  0
  4  5  2  0
  4  6  1  0
  6  7  1  0
  6 26  1  0
  7  8  1  0
  7 32  1  0
  7 33  1  0
  8  9  1  0
  8 34  1  0
  8 35  1  0
  9 10  1  0
  9 25  1  0
 10 11  1  0
 10 36  1  0
 10 37  1  0
 11 12  2  0
 11 13  1  0
 13 14  1  0
 13 38  1  0
 14 15  1  0
 14 39  1  0
 14 40  1  0
 15 16  1  0
 15 24  1  0
 15 41  1  1
 16 17  1  0
 16 42  1  0
 16 43  1  0
 17 18  1  0
 18 19  2  0
 18 23  1  0
 19 20  1  0
 19 44  1  0
 20 21  2  0
 20 45  1  0
 21 22  1  0
 21 46  1  0
 22 23  2  0
 22 47  1  0
 23 24  1  0
 25 26  1  0
 25 48  1  0
 25 49  1  0
 26 50  1  0
 26 51  1  0
M  END

