
     RDKit          3D

 48 51  0  0  0  0  0  0  0  0999 V2000
    6.6048   -0.5614    5.1190 C   0  0  0  0  0  0  0  0  0  0  0  0
    6.8890   -0.7658    3.6655 C   0  0  0  0  0  0  0  0  0  0  0  0
    8.0339   -0.5138    2.9224 C   0  0  0  0  0  0  0  0  0  0  0  0
    7.7720   -0.8389    1.5598 C   0  0  0  0  0  0  0  0  0  0  0  0
    8.7367   -0.7139    0.4175 C   0  0  0  0  0  0  0  0  0  0  0  0
    6.4591   -1.3094    1.5092 C   0  0  0  0  0  0  0  0  0  0  0  0
    5.6548   -1.7224    0.3387 C   0  0  0  0  0  0  0  0  0  0  0  0
    5.8414   -1.2295   -0.7699 O   0  0  0  0  0  0  0  0  0  0  0  0
    4.6281   -2.6373    0.5607 N   0  0  0  0  0  0  0  0  0  0  0  0
    3.6956   -2.8688   -0.5419 C   0  0  0  0  0  0  0  0  0  0  0  0
    4.0991   -4.0872   -1.3792 C   0  0  0  0  0  0  0  0  0  0  0  0
    4.2296   -5.3628   -0.5049 C   0  0  2  0  0  0  0  0  0  0  0  0
    2.8865   -5.9149   -0.1076 C   0  0  0  0  0  0  0  0  0  0  0  0
    2.2405   -5.6938    1.0155 N   0  0  0  0  0  0  0  0  0  0  0  0
    1.0468   -6.3709    0.9723 N   0  0  0  0  0  0  0  0  0  0  0  0
    0.9900   -6.9873   -0.1801 C   0  0  0  0  0  0  0  0  0  0  0  0
    2.1216   -6.7281   -0.9175 N   0  0  0  0  0  0  0  0  0  0  0  0
    2.4348   -7.3495   -2.2004 C   0  0  0  0  0  0  0  0  0  0  0  0
    1.1491   -7.9479   -2.8032 C   0  0  0  0  0  0  0  0  0  0  0  0
    0.3377   -8.6841   -1.8481 N   0  0  0  0  0  0  0  0  0  0  0  0
   -0.1133   -7.8418   -0.7425 C   0  0  0  0  0  0  0  0  0  0  0  0
    5.1331   -5.0641    0.7106 C   0  0  0  0  0  0  0  0  0  0  0  0
    4.7369   -3.7858    1.4690 C   0  0  0  0  0  0  0  0  0  0  0  0
    5.9517   -1.2613    2.8005 N   0  0  0  0  0  0  0  0  0  0  0  0
    4.9834   -1.4431    3.0327 H   0  0  0  0  0  0  0  0  0  0  0  0
    7.4982   -0.1744    5.6282 H   0  0  0  0  0  0  0  0  0  0  0  0
    6.3135   -1.5008    5.6204 H   0  0  0  0  0  0  0  0  0  0  0  0
    5.7882    0.1642    5.2821 H   0  0  0  0  0  0  0  0  0  0  0  0
    8.9696   -0.1261    3.3236 H   0  0  0  0  0  0  0  0  0  0  0  0
    9.5982   -1.3929    0.5414 H   0  0  0  0  0  0  0  0  0  0  0  0
    9.1432    0.3098    0.3604 H   0  0  0  0  0  0  0  0  0  0  0  0
    8.2443   -0.9326   -0.5380 H   0  0  0  0  0  0  0  0  0  0  0  0
    3.6811   -1.9702   -1.1701 H   0  0  0  0  0  0  0  0  0  0  0  0
    2.6910   -3.0213   -0.1118 H   0  0  0  0  0  0  0  0  0  0  0  0
    5.0695   -3.8762   -1.8573 H   0  0  0  0  0  0  0  0  0  0  0  0
    3.3654   -4.2427   -2.1884 H   0  0  0  0  0  0  0  0  0  0  0  0
    4.7281   -6.1393   -1.1110 H   0  0  0  0  0  0  0  0  0  0  0  0
    3.1903   -8.1413   -2.0467 H   0  0  0  0  0  0  0  0  0  0  0  0
    2.8739   -6.6038   -2.8816 H   0  0  0  0  0  0  0  0  0  0  0  0
    1.4212   -8.6023   -3.6463 H   0  0  0  0  0  0  0  0  0  0  0  0
    0.5309   -7.1328   -3.2193 H   0  0  0  0  0  0  0  0  0  0  0  0
    0.8469   -9.4937   -1.4946 H   0  0  0  0  0  0  0  0  0  0  0  0
   -0.5460   -8.4603    0.0572 H   0  0  0  0  0  0  0  0  0  0  0  0
   -0.9297   -7.1885   -1.1034 H   0  0  0  0  0  0  0  0  0  0  0  0
    6.1680   -4.9498    0.3454 H   0  0  0  0  0  0  0  0  0  0  0  0
    5.1227   -5.9151    1.4097 H   0  0  0  0  0  0  0  0  0  0  0  0
    5.4899   -3.5793    2.2383 H   0  0  0  0  0  0  0  0  0  0  0  0
    3.7670   -3.9496    1.9634 H   0  0  0  0  0  0  0  0  0  0  0  0
  1  2  1  0
  1 26  1  0
  1 27  1  0
  1 28  1  0
  2  3  2  0
  2 24  1  0
  3  4  1  0
  3 29  1  0
  4  5  1  0
  4  6  2  0
  5 30  1  0
  5 31  1  0
  5 32  1  0
  6  7  1  0
  6 24  1  0
  7  8  2  0
  7  9  1  0
  9 10  1  0
  9 23  1  0
 10 11  1  0
 10 33  1  0
 10 34  1  0
 11 12  1  0
 11 35  1  0
 11 36  1  0
 12 13  1  0
 12 22  1  0
 12 37  1  6
 13 14  2  0
 13 17  1  0
 14 15  1  0
 15 16  2  0
 16 17  1  0
 16 21  1  0
 17 18  1  0
 18 19  1  0
 18 38  1  0
 18 39  1  0
 19 20  1  0
 19 40  1  0
 19 41  1  0
 20 21  1  0
 20 42  1  0
 21 43  1  0
 21 44  1  0
 22 23  1  0
 22 45  1  0
 22 46  1  0
 23 47  1  0
 23 48  1  0
 24 25  1  0
M  END

