
     RDKit          3D

 58 60  0  0  0  0  0  0  0  0999 V2000
    1.0002   -0.7352    3.4147 C   0  0  0  0  0  0  0  0  0  0  0  0
    1.0903   -1.3405    2.0209 C   0  0  0  0  0  0  0  0  0  0  0  0
    0.0735   -1.7366    1.4684 O   0  0  0  0  0  0  0  0  0  0  0  0
    2.3170   -1.4096    1.3871 N   0  0  0  0  0  0  0  0  0  0  0  0
    2.3305   -2.1094    0.0944 C   0  0  0  0  0  0  0  0  0  0  0  0
    2.4855   -3.6290    0.2315 C   0  0  0  0  0  0  0  0  0  0  0  0
    3.6612   -4.1073    1.1002 C   0  0  0  0  0  0  0  0  0  0  0  0
    3.5635   -3.7114    2.5876 C   0  0  0  0  0  0  0  0  0  0  0  0
    4.0760   -2.3065    2.9537 C   0  0  0  0  0  0  0  0  0  0  0  0
    3.6518   -1.1806    1.9784 C   0  0  2  0  0  0  0  0  0  0  0  0
    3.8938    0.2516    2.5393 C   0  0  1  0  0  0  0  0  0  0  0  0
    5.3879    0.5162    2.8524 C   0  0  0  0  0  0  0  0  0  0  0  0
    6.2356    0.7427    1.5876 C   0  0  0  0  0  0  0  0  0  0  0  0
    5.7127    1.7954    0.7187 N   0  0  0  0  0  0  0  0  0  0  0  0
    6.0699    3.1516    1.1067 C   0  0  0  0  0  0  0  0  0  0  0  0
    7.3621    3.5843    0.4171 C   0  0  0  0  0  0  0  0  0  0  0  0
    7.6827    4.8888    0.8762 O   0  0  0  0  0  0  0  0  0  0  0  0
    8.7848    5.5218    0.4142 C   0  0  0  0  0  0  0  0  0  0  0  0
    9.6779    4.9823   -0.5264 C   0  0  0  0  0  0  0  0  0  0  0  0
   10.7907    5.7270   -0.9357 C   0  0  0  0  0  0  0  0  0  0  0  0
   11.0343    6.9997   -0.4280 C   0  0  0  0  0  0  0  0  0  0  0  0
   10.1365    7.5396    0.5159 C   0  0  0  0  0  0  0  0  0  0  0  0
   10.3662    8.8527    1.0558 C   0  0  0  0  0  0  0  0  0  0  0  0
   10.5557    9.9130    1.4892 N   0  0  0  0  0  0  0  0  0  0  0  0
    9.0192    6.8053    0.9340 C   0  0  0  0  0  0  0  0  0  0  0  0
    4.3124    1.5601    0.3756 C   0  0  0  0  0  0  0  0  0  0  0  0
    3.3952    1.3693    1.5959 C   0  0  0  0  0  0  0  0  0  0  0  0
    1.0905    0.3611    3.3701 H   0  0  0  0  0  0  0  0  0  0  0  0
    1.7671   -1.1119    4.1050 H   0  0  0  0  0  0  0  0  0  0  0  0
    0.0054   -0.9820    3.8051 H   0  0  0  0  0  0  0  0  0  0  0  0
    3.1566   -1.6916   -0.5045 H   0  0  0  0  0  0  0  0  0  0  0  0
    1.3893   -1.8851   -0.4235 H   0  0  0  0  0  0  0  0  0  0  0  0
    2.5780   -4.0569   -0.7824 H   0  0  0  0  0  0  0  0  0  0  0  0
    1.5477   -4.0296    0.6520 H   0  0  0  0  0  0  0  0  0  0  0  0
    4.6230   -3.7589    0.6776 H   0  0  0  0  0  0  0  0  0  0  0  0
    3.6956   -5.2078    1.0370 H   0  0  0  0  0  0  0  0  0  0  0  0
    4.1325   -4.4365    3.1935 H   0  0  0  0  0  0  0  0  0  0  0  0
    2.5130   -3.8214    2.9083 H   0  0  0  0  0  0  0  0  0  0  0  0
    5.1779   -2.3286    2.9815 H   0  0  0  0  0  0  0  0  0  0  0  0
    3.7595   -2.0659    3.9838 H   0  0  0  0  0  0  0  0  0  0  0  0
    4.3182   -1.2783    1.1105 H   0  0  0  0  0  0  0  0  0  0  0  0
    3.3509    0.3380    3.4918 H   0  0  0  0  0  0  0  0  0  0  0  0
    5.8236   -0.2942    3.4575 H   0  0  0  0  0  0  0  0  0  0  0  0
    5.4438    1.4217    3.4810 H   0  0  0  0  0  0  0  0  0  0  0  0
    6.3009   -0.1922    1.0007 H   0  0  0  0  0  0  0  0  0  0  0  0
    7.2719    0.9883    1.8703 H   0  0  0  0  0  0  0  0  0  0  0  0
    6.1956    3.2850    2.2002 H   0  0  0  0  0  0  0  0  0  0  0  0
    5.2725    3.8493    0.8062 H   0  0  0  0  0  0  0  0  0  0  0  0
    7.2208    3.5745   -0.6784 H   0  0  0  0  0  0  0  0  0  0  0  0
    8.1820    2.8814    0.6558 H   0  0  0  0  0  0  0  0  0  0  0  0
    9.5149    3.9891   -0.9445 H   0  0  0  0  0  0  0  0  0  0  0  0
   11.4780    5.2967   -1.6681 H   0  0  0  0  0  0  0  0  0  0  0  0
   11.9019    7.5778   -0.7485 H   0  0  0  0  0  0  0  0  0  0  0  0
    8.3183    7.2131    1.6634 H   0  0  0  0  0  0  0  0  0  0  0  0
    4.2639    0.6633   -0.2690 H   0  0  0  0  0  0  0  0  0  0  0  0
    3.9525    2.3956   -0.2452 H   0  0  0  0  0  0  0  0  0  0  0  0
    2.3681    1.1655    1.2568 H   0  0  0  0  0  0  0  0  0  0  0  0
    3.3593    2.3149    2.1654 H   0  0  0  0  0  0  0  0  0  0  0  0
  1  2  1  0
  1 28  1  0
  1 29  1  0
  1 30  1  0
  2  3  2  0
  2  4  1  0
  4  5  1  0
  4 10  1  0
  5  6  1  0
  5 31  1  0
  5 32  1  0
  6  7  1  0
  6 33  1  0
  6 34  1  0
  7  8  1  0
  7 35  1  0
  7 36  1  0
  8  9  1  0
  8 37  1  0
  8 38  1  0
  9 10  1  0
  9 39  1  0
  9 40  1  0
 10 11  1  0
 10 41  1  6
 11 12  1  0
 11 27  1  0
 11 42  1  1
 12 13  1  0
 12 43  1  0
 12 44  1  0
 13 14  1  0
 13 45  1  0
 13 46  1  0
 14 15  1  0
 14 26  1  0
 15 16  1  0
 15 47  1  0
 15 48  1  0
 16 17  1  0
 16 49  1  0
 16 50  1  0
 17 18  1  0
 18 19  2  0
 18 25  1  0
 19 20  1  0
 19 51  1  0
 20 21  2  0
 20 52  1  0
 21 22  1  0
 21 53  1  0
 22 23  1  0
 22 25  2  0
 23 24  3  0
 25 54  1  0
 26 27  1  0
 26 55  1  0
 26 56  1  0
 27 57  1  0
 27 58  1  0
M  END

