
     RDKit          3D

 35 36  0  0  0  0  0  0  0  0999 V2000
    1.5121   -0.6412   -1.5038 C   0  0  0  0  0  0  0  0  0  0  0  0
    2.0594    0.1440   -0.3102 C   0  0  0  0  0  0  0  0  0  0  0  0
    2.8540    1.4043   -0.7102 C   0  0  1  0  0  0  0  0  0  0  0  0
    1.9397    2.5549   -1.1755 C   0  0  0  0  0  0  0  0  0  0  0  0
    1.1789    3.0861   -0.1127 O   0  0  0  0  0  0  0  0  0  0  0  0
    2.0080    3.6267    0.9009 C   0  0  0  0  0  0  0  0  0  0  0  0
    2.9481    2.5676    1.4700 C   0  0  0  0  0  0  0  0  0  0  0  0
    3.6905    1.9089    0.3925 N   0  0  0  0  0  0  0  0  0  0  0  0
    5.0583    2.0960    0.3401 C   0  0  0  0  0  0  0  0  0  0  0  0
    5.6452    2.8213    1.1306 O   0  0  0  0  0  0  0  0  0  0  0  0
    5.8511    1.3580   -0.7127 C   0  0  0  0  0  0  0  0  0  0  0  0
    6.8309    2.0738   -1.4173 C   0  0  0  0  0  0  0  0  0  0  0  0
    7.6356    1.4095   -2.3415 C   0  0  0  0  0  0  0  0  0  0  0  0
    7.4916    0.0369   -2.5433 C   0  0  0  0  0  0  0  0  0  0  0  0
    8.6171   -0.8401   -3.8205 Br  0  0  0  0  0  0  0  0  0  0  0  0
    6.5416   -0.7234   -1.8228 C   0  0  0  0  0  0  0  0  0  0  0  0
    6.4361   -2.0878   -1.9585 N   0  0  0  0  0  0  0  0  0  0  0  0
    5.7212   -0.0192   -0.9146 C   0  0  0  0  0  0  0  0  0  0  0  0
    0.9655   -1.5366   -1.1688 H   0  0  0  0  0  0  0  0  0  0  0  0
    2.3230   -0.9755   -2.1732 H   0  0  0  0  0  0  0  0  0  0  0  0
    0.8115   -0.0430   -2.1082 H   0  0  0  0  0  0  0  0  0  0  0  0
    2.7206   -0.5052    0.2877 H   0  0  0  0  0  0  0  0  0  0  0  0
    1.2289    0.4353    0.3531 H   0  0  0  0  0  0  0  0  0  0  0  0
    3.5192    1.1536   -1.5476 H   0  0  0  0  0  0  0  0  0  0  0  0
    1.2266    2.2034   -1.9361 H   0  0  0  0  0  0  0  0  0  0  0  0
    2.5673    3.3466   -1.6341 H   0  0  0  0  0  0  0  0  0  0  0  0
    1.3434    4.0187    1.6859 H   0  0  0  0  0  0  0  0  0  0  0  0
    2.6026    4.4707    0.4952 H   0  0  0  0  0  0  0  0  0  0  0  0
    2.3643    1.8138    2.0263 H   0  0  0  0  0  0  0  0  0  0  0  0
    3.6797    3.0196    2.1512 H   0  0  0  0  0  0  0  0  0  0  0  0
    6.9615    3.1406   -1.2313 H   0  0  0  0  0  0  0  0  0  0  0  0
    8.3898    1.9558   -2.9108 H   0  0  0  0  0  0  0  0  0  0  0  0
    6.8747   -2.5170   -2.7641 H   0  0  0  0  0  0  0  0  0  0  0  0
    5.5933   -2.5345   -1.6228 H   0  0  0  0  0  0  0  0  0  0  0  0
    4.9877   -0.5869   -0.3370 H   0  0  0  0  0  0  0  0  0  0  0  0
  1  2  1  0
  1 19  1  0
  1 20  1  0
  1 21  1  0
  2  3  1  0
  2 22  1  0
  2 23  1  0
  3  4  1  0
  3  8  1  0
  3 24  1  6
  4  5  1  0
  4 25  1  0
  4 26  1  0
  5  6  1  0
  6  7  1  0
  6 27  1  0
  6 28  1  0
  7  8  1  0
  7 29  1  0
  7 30  1  0
  8  9  1  0
  9 10  2  0
  9 11  1  0
 11 12  2  0
 11 18  1  0
 12 13  1  0
 12 31  1  0
 13 14  2  0
 13 32  1  0
 14 15  1  0
 14 16  1  0
 16 17  1  0
 16 18  2  0
 17 33  1  0
 17 34  1  0
 18 35  1  0
M  END

