
     RDKit          3D

 68 71  0  0  0  0  0  0  0  0999 V2000
    3.5225   -2.3958   -1.2600 C   0  0  0  0  0  0  0  0  0  0  0  0
    4.3177   -1.3359   -2.0231 C   0  0  0  0  0  0  0  0  0  0  0  0
    4.5960   -0.0812   -1.1888 C   0  0  0  0  0  0  0  0  0  0  0  0
    5.4869    0.9741   -1.8569 C   0  0  0  0  0  0  0  0  0  0  0  0
    4.9232    1.6793   -3.0226 N   0  0  0  0  0  0  0  0  0  0  0  0
    4.0690    2.8272   -2.7584 C   0  0  0  0  0  0  0  0  0  0  0  0
    2.5733    2.5854   -2.4940 C   0  0  0  0  0  0  0  0  0  0  0  0
    1.9227    3.4171   -1.8967 O   0  0  0  0  0  0  0  0  0  0  0  0
    2.0414    1.4464   -3.0508 N   0  0  0  0  0  0  0  0  0  0  0  0
    0.6827    1.1031   -2.9595 C   0  0  0  0  0  0  0  0  0  0  0  0
    0.0529    0.1078   -2.2361 C   0  0  0  0  0  0  0  0  0  0  0  0
   -1.3277    0.2542   -2.5427 C   0  0  0  0  0  0  0  0  0  0  0  0
   -2.4701   -0.5417   -2.0552 C   0  0  0  0  0  0  0  0  0  0  0  0
   -3.7749   -0.2587   -2.5010 C   0  0  0  0  0  0  0  0  0  0  0  0
   -4.8599   -1.0071   -2.0454 C   0  0  0  0  0  0  0  0  0  0  0  0
   -4.6668   -2.0535   -1.1363 C   0  0  0  0  0  0  0  0  0  0  0  0
   -3.3754   -2.3439   -0.6873 C   0  0  0  0  0  0  0  0  0  0  0  0
   -2.2876   -1.5953   -1.1423 C   0  0  0  0  0  0  0  0  0  0  0  0
   -1.5119    1.2719   -3.3892 N   0  0  0  0  0  0  0  0  0  0  0  0
   -0.2964    1.7772   -3.6469 N   0  0  0  0  0  0  0  0  0  0  0  0
   -0.1386    2.8640   -4.5686 C   0  0  0  0  0  0  0  0  0  0  0  0
    0.4342    2.6099   -5.8178 C   0  0  0  0  0  0  0  0  0  0  0  0
    0.6008    3.6431   -6.7393 C   0  0  0  0  0  0  0  0  0  0  0  0
    0.1847    4.9456   -6.4268 C   0  0  0  0  0  0  0  0  0  0  0  0
    0.3356    6.0641   -7.4294 C   0  0  0  0  0  0  0  0  0  0  0  0
   -0.3940    5.1728   -5.1688 C   0  0  0  0  0  0  0  0  0  0  0  0
   -0.5676    4.1582   -4.2163 C   0  0  0  0  0  0  0  0  0  0  0  0
   -1.1663    4.4431   -2.8644 C   0  0  0  0  0  0  0  0  0  0  0  0
    5.3269    1.2627   -4.2781 C   0  0  0  0  0  0  0  0  0  0  0  0
    5.9372    0.2187   -4.4458 O   0  0  0  0  0  0  0  0  0  0  0  0
    4.9921    2.1221   -5.4765 C   0  0  0  0  0  0  0  0  0  0  0  0
    5.4574    3.4376   -5.6248 C   0  0  0  0  0  0  0  0  0  0  0  0
    5.1904    4.1523   -6.7917 C   0  0  0  0  0  0  0  0  0  0  0  0
    4.4455    3.5703   -7.8227 C   0  0  0  0  0  0  0  0  0  0  0  0
    4.0788    4.5057   -9.2421 Cl  0  0  0  0  0  0  0  0  0  0  0  0
    4.0001    2.2441   -7.6914 C   0  0  0  0  0  0  0  0  0  0  0  0
    3.0731    1.4780   -8.9491 Cl  0  0  0  0  0  0  0  0  0  0  0  0
    4.2917    1.5249   -6.5304 C   0  0  0  0  0  0  0  0  0  0  0  0
    3.3293   -3.2819   -1.8846 H   0  0  0  0  0  0  0  0  0  0  0  0
    2.5467   -2.0067   -0.9234 H   0  0  0  0  0  0  0  0  0  0  0  0
    4.0658   -2.7334   -0.3616 H   0  0  0  0  0  0  0  0  0  0  0  0
    3.7758   -1.0650   -2.9469 H   0  0  0  0  0  0  0  0  0  0  0  0
    5.2743   -1.7582   -2.3728 H   0  0  0  0  0  0  0  0  0  0  0  0
    5.1112   -0.3810   -0.2582 H   0  0  0  0  0  0  0  0  0  0  0  0
    3.6447    0.3757   -0.8623 H   0  0  0  0  0  0  0  0  0  0  0  0
    6.4195    0.5010   -2.1936 H   0  0  0  0  0  0  0  0  0  0  0  0
    5.7462    1.7465   -1.1139 H   0  0  0  0  0  0  0  0  0  0  0  0
    4.0912    3.5269   -3.6039 H   0  0  0  0  0  0  0  0  0  0  0  0
    4.4409    3.3806   -1.8829 H   0  0  0  0  0  0  0  0  0  0  0  0
    2.6850    0.7664   -3.4419 H   0  0  0  0  0  0  0  0  0  0  0  0
    0.5325   -0.6046   -1.5712 H   0  0  0  0  0  0  0  0  0  0  0  0
   -3.9198    0.5568   -3.2114 H   0  0  0  0  0  0  0  0  0  0  0  0
   -5.8662   -0.7729   -2.4031 H   0  0  0  0  0  0  0  0  0  0  0  0
   -5.5183   -2.6391   -0.7803 H   0  0  0  0  0  0  0  0  0  0  0  0
   -3.2122   -3.1586    0.0231 H   0  0  0  0  0  0  0  0  0  0  0  0
   -1.2858   -1.8354   -0.7793 H   0  0  0  0  0  0  0  0  0  0  0  0
    0.7421    1.5928   -6.0700 H   0  0  0  0  0  0  0  0  0  0  0  0
    1.0534    3.4298   -7.7107 H   0  0  0  0  0  0  0  0  0  0  0  0
    1.2525    5.9455   -8.0271 H   0  0  0  0  0  0  0  0  0  0  0  0
    0.3676    7.0482   -6.9379 H   0  0  0  0  0  0  0  0  0  0  0  0
   -0.5130    6.0782   -8.1357 H   0  0  0  0  0  0  0  0  0  0  0  0
   -0.7173    6.1855   -4.9096 H   0  0  0  0  0  0  0  0  0  0  0  0
   -1.4299    5.5059   -2.7670 H   0  0  0  0  0  0  0  0  0  0  0  0
   -0.4451    4.1848   -2.0728 H   0  0  0  0  0  0  0  0  0  0  0  0
   -2.0706    3.8381   -2.6973 H   0  0  0  0  0  0  0  0  0  0  0  0
    6.0448    3.9093   -4.8336 H   0  0  0  0  0  0  0  0  0  0  0  0
    5.5507    5.1749   -6.9140 H   0  0  0  0  0  0  0  0  0  0  0  0
    3.9663    0.4866   -6.4532 H   0  0  0  0  0  0  0  0  0  0  0  0
  1  2  1  0
  1 39  1  0
  1 40  1  0
  1 41  1  0
  2  3  1  0
  2 42  1  0
  2 43  1  0
  3  4  1  0
  3 44  1  0
  3 45  1  0
  4  5  1  0
  4 46  1  0
  4 47  1  0
  5  6  1  0
  5 29  1  0
  6  7  1  0
  6 48  1  0
  6 49  1  0
  7  8  2  0
  7  9  1  0
  9 10  1  0
  9 50  1  0
 10 11  2  0
 10 20  1  0
 11 12  1  0
 11 51  1  0
 12 13  1  0
 12 19  2  0
 13 14  2  0
 13 18  1  0
 14 15  1  0
 14 52  1  0
 15 16  2  0
 15 53  1  0
 16 17  1  0
 16 54  1  0
 17 18  2  0
 17 55  1  0
 18 56  1  0
 19 20  1  0
 20 21  1  0
 21 22  2  0
 21 27  1  0
 22 23  1  0
 22 57  1  0
 23 24  2  0
 23 58  1  0
 24 25  1  0
 24 26  1  0
 25 59  1  0
 25 60  1  0
 25 61  1  0
 26 27  2  0
 26 62  1  0
 27 28  1  0
 28 63  1  0
 28 64  1  0
 28 65  1  0
 29 30  2  0
 29 31  1  0
 31 32  2  0
 31 38  1  0
 32 33  1  0
 32 66  1  0
 33 34  2  0
 33 67  1  0
 34 35  1  0
 34 36  1  0
 36 37  1  0
 36 38  2  0
 38 68  1  0
M  END

