
     RDKit          3D

 57 59  0  0  0  0  0  0  0  0999 V2000
    2.2579    0.6022    0.9745 C   0  0  0  0  0  0  0  0  0  0  0  0
    2.1141    0.0600   -0.4379 C   0  0  0  0  0  0  0  0  0  0  0  0
    3.0022   -1.0414   -0.6823 O   0  0  0  0  0  0  0  0  0  0  0  0
    4.2657   -0.7351   -1.0735 C   0  0  0  0  0  0  0  0  0  0  0  0
    4.6719    0.3942   -1.2454 O   0  0  0  0  0  0  0  0  0  0  0  0
    4.9680   -1.8990   -1.2358 N   0  0  0  0  0  0  0  0  0  0  0  0
    6.3098   -2.0801   -1.6335 C   0  0  0  0  0  0  0  0  0  0  0  0
    7.1668   -0.9817   -1.9301 C   0  0  0  0  0  0  0  0  0  0  0  0
    8.4851   -1.1752   -2.3188 C   0  0  0  0  0  0  0  0  0  0  0  0
    8.9644   -2.4939   -2.4192 C   0  0  0  0  0  0  0  0  0  0  0  0
    8.1203   -3.5907   -2.1185 C   0  0  0  0  0  0  0  0  0  0  0  0
    6.7881   -3.3878   -1.7277 C   0  0  0  0  0  0  0  0  0  0  0  0
    8.9635   -4.7329   -2.3295 C   0  0  0  0  0  0  0  0  0  0  0  0
    8.5633   -6.0010   -2.1651 O   0  0  0  0  0  0  0  0  0  0  0  0
    9.5261   -7.0279   -2.4124 C   0  0  0  0  0  0  0  0  0  0  0  0
    8.8438   -8.3687   -2.1984 C   0  0  0  0  0  0  0  0  0  0  0  0
    9.7734   -9.5571   -2.4613 C   0  0  0  0  0  0  0  0  0  0  0  0
   10.9778   -9.5668   -1.6390 N   0  0  0  0  0  0  0  0  0  0  0  0
   10.7199   -9.8444   -0.2389 C   0  0  0  0  0  0  0  0  0  0  0  0
   12.0107  -10.4300   -2.1775 C   0  0  0  0  0  0  0  0  0  0  0  0
   10.1721   -4.3821   -2.7156 N   0  0  0  0  0  0  0  0  0  0  0  0
   10.1774   -3.0167   -2.7882 N   0  0  0  0  0  0  0  0  0  0  0  0
   11.4059   -2.3156   -3.0980 C   0  0  0  0  0  0  0  0  0  0  0  0
   12.2280   -1.9019   -1.8875 C   0  0  0  0  0  0  0  0  0  0  0  0
   12.5989   -2.8507   -0.9200 C   0  0  0  0  0  0  0  0  0  0  0  0
   13.3671   -2.4839    0.1851 C   0  0  0  0  0  0  0  0  0  0  0  0
   13.7696   -1.1551    0.3175 C   0  0  0  0  0  0  0  0  0  0  0  0
   14.5100   -0.7990    1.3781 F   0  0  0  0  0  0  0  0  0  0  0  0
   13.4205   -0.1911   -0.6232 C   0  0  0  0  0  0  0  0  0  0  0  0
   12.6460   -0.5749   -1.7226 C   0  0  0  0  0  0  0  0  0  0  0  0
    1.5104    1.3924    1.1516 H   0  0  0  0  0  0  0  0  0  0  0  0
    3.2571    1.0376    1.1233 H   0  0  0  0  0  0  0  0  0  0  0  0
    2.1015   -0.1929    1.7205 H   0  0  0  0  0  0  0  0  0  0  0  0
    2.3078    0.8475   -1.1813 H   0  0  0  0  0  0  0  0  0  0  0  0
    1.1077   -0.3509   -0.6070 H   0  0  0  0  0  0  0  0  0  0  0  0
    4.4382   -2.7412   -1.0436 H   0  0  0  0  0  0  0  0  0  0  0  0
    6.7639    0.0253   -1.8427 H   0  0  0  0  0  0  0  0  0  0  0  0
    9.1223   -0.3149   -2.5310 H   0  0  0  0  0  0  0  0  0  0  0  0
    6.1443   -4.2418   -1.5020 H   0  0  0  0  0  0  0  0  0  0  0  0
   10.3897   -6.9051   -1.7395 H   0  0  0  0  0  0  0  0  0  0  0  0
    9.9110   -6.9312   -3.4435 H   0  0  0  0  0  0  0  0  0  0  0  0
    7.9768   -8.4457   -2.8757 H   0  0  0  0  0  0  0  0  0  0  0  0
    8.4338   -8.4026   -1.1754 H   0  0  0  0  0  0  0  0  0  0  0  0
   10.0951   -9.5215   -3.5161 H   0  0  0  0  0  0  0  0  0  0  0  0
    9.1920  -10.5032   -2.3495 H   0  0  0  0  0  0  0  0  0  0  0  0
   10.0128   -9.1156    0.1841 H   0  0  0  0  0  0  0  0  0  0  0  0
   11.6552   -9.7673    0.3378 H   0  0  0  0  0  0  0  0  0  0  0  0
   10.2988  -10.8632   -0.0664 H   0  0  0  0  0  0  0  0  0  0  0  0
   12.2522  -10.1375   -3.2116 H   0  0  0  0  0  0  0  0  0  0  0  0
   11.7252  -11.5085   -2.1886 H   0  0  0  0  0  0  0  0  0  0  0  0
   12.9307  -10.3378   -1.5784 H   0  0  0  0  0  0  0  0  0  0  0  0
   11.1580   -1.4280   -3.7013 H   0  0  0  0  0  0  0  0  0  0  0  0
   11.9870   -2.9937   -3.7420 H   0  0  0  0  0  0  0  0  0  0  0  0
   12.2744   -3.8876   -1.0364 H   0  0  0  0  0  0  0  0  0  0  0  0
   13.6616   -3.2102    0.9454 H   0  0  0  0  0  0  0  0  0  0  0  0
   13.7501    0.8403   -0.4843 H   0  0  0  0  0  0  0  0  0  0  0  0
   12.3650    0.1789   -2.4641 H   0  0  0  0  0  0  0  0  0  0  0  0
  1  2  1  0
  1 31  1  0
  1 32  1  0
  1 33  1  0
  2  3  1  0
  2 34  1  0
  2 35  1  0
  3  4  1  0
  4  5  2  0
  4  6  1  0
  6  7  1  0
  6 36  1  0
  7  8  2  0
  7 12  1  0
  8  9  1  0
  8 37  1  0
  9 10  2  0
  9 38  1  0
 10 11  1  0
 10 22  1  0
 11 12  2  0
 11 13  1  0
 12 39  1  0
 13 14  1  0
 13 21  2  0
 14 15  1  0
 15 16  1  0
 15 40  1  0
 15 41  1  0
 16 17  1  0
 16 42  1  0
 16 43  1  0
 17 18  1  0
 17 44  1  0
 17 45  1  0
 18 19  1  0
 18 20  1  0
 19 46  1  0
 19 47  1  0
 19 48  1  0
 20 49  1  0
 20 50  1  0
 20 51  1  0
 21 22  1  0
 22 23  1  0
 23 24  1  0
 23 52  1  0
 23 53  1  0
 24 25  2  0
 24 30  1  0
 25 26  1  0
 25 54  1  0
 26 27  2  0
 26 55  1  0
 27 28  1  0
 27 29  1  0
 29 30  2  0
 29 56  1  0
 30 57  1  0
M  END

