
     RDKit          3D

 50 52  0  0  0  0  0  0  0  0999 V2000
    2.3827   -0.6534   -1.8919 C   0  0  0  0  0  0  0  0  0  0  0  0
    2.9829   -0.2747   -0.5318 C   0  0  1  0  0  0  0  0  0  0  0  0
    3.8598   -1.4119    0.0116 C   0  0  0  0  0  0  0  0  0  0  0  0
    3.7381    1.0633   -0.6387 C   0  0  0  0  0  0  0  0  0  0  0  0
    4.2138    1.6241    0.7060 C   0  0  0  0  0  0  0  0  0  0  0  0
    4.8495    2.9465    0.5843 N   0  0  0  0  0  0  0  0  0  0  0  0
    6.2105    3.1100    0.4006 C   0  0  0  0  0  0  0  0  0  0  0  0
    7.1902    1.6082    0.3484 S   0  0  0  0  0  0  0  0  0  0  0  0
    8.8675    2.3220    0.0039 C   0  0  1  0  0  0  0  0  0  0  0  0
    9.5032    3.1358    1.1521 C   0  0  0  0  0  0  0  0  0  0  0  0
    9.1245    2.8124    2.4190 N   0  0  0  0  0  0  0  0  0  0  0  0
   10.3526    3.9625    0.8910 O   0  0  0  0  0  0  0  0  0  0  0  0
    9.7512    1.1739   -0.4524 C   0  0  0  0  0  0  0  0  0  0  0  0
    9.9658    0.9660   -1.8235 C   0  0  0  0  0  0  0  0  0  0  0  0
   10.7614   -0.0923   -2.2679 C   0  0  0  0  0  0  0  0  0  0  0  0
   11.3520   -0.9610   -1.3453 C   0  0  0  0  0  0  0  0  0  0  0  0
   11.1439   -0.7627    0.0227 C   0  0  0  0  0  0  0  0  0  0  0  0
   10.3487    0.2966    0.4669 C   0  0  0  0  0  0  0  0  0  0  0  0
    6.8057    4.2446    0.2665 N   0  0  0  0  0  0  0  0  0  0  0  0
    6.0575    5.4033    0.3049 C   0  0  0  0  0  0  0  0  0  0  0  0
    6.6999    6.6527    0.1676 C   0  0  0  0  0  0  0  0  0  0  0  0
    5.9533    7.8224    0.2076 C   0  0  0  0  0  0  0  0  0  0  0  0
    4.5555    7.7814    0.3839 C   0  0  0  0  0  0  0  0  0  0  0  0
    3.9106    6.5593    0.5206 C   0  0  0  0  0  0  0  0  0  0  0  0
    4.6549    5.3661    0.4835 C   0  0  0  0  0  0  0  0  0  0  0  0
    3.9814    4.0695    0.6259 C   0  0  0  0  0  0  0  0  0  0  0  0
    2.7815    3.9134    0.7712 O   0  0  0  0  0  0  0  0  0  0  0  0
    1.7989   -1.5856   -1.8254 H   0  0  0  0  0  0  0  0  0  0  0  0
    3.1759   -0.8105   -2.6431 H   0  0  0  0  0  0  0  0  0  0  0  0
    1.7148    0.1361   -2.2722 H   0  0  0  0  0  0  0  0  0  0  0  0
    2.1437   -0.1254    0.1742 H   0  0  0  0  0  0  0  0  0  0  0  0
    4.7362   -1.5796   -0.6378 H   0  0  0  0  0  0  0  0  0  0  0  0
    3.2942   -2.3565    0.0571 H   0  0  0  0  0  0  0  0  0  0  0  0
    4.2323   -1.2089    1.0282 H   0  0  0  0  0  0  0  0  0  0  0  0
    3.0725    1.8126   -1.0965 H   0  0  0  0  0  0  0  0  0  0  0  0
    4.6047    0.9436   -1.3133 H   0  0  0  0  0  0  0  0  0  0  0  0
    4.9262    0.9500    1.2010 H   0  0  0  0  0  0  0  0  0  0  0  0
    3.3531    1.7585    1.3748 H   0  0  0  0  0  0  0  0  0  0  0  0
    8.7317    3.0415   -0.8113 H   0  0  0  0  0  0  0  0  0  0  0  0
    8.3045    2.2401    2.5808 H   0  0  0  0  0  0  0  0  0  0  0  0
    9.4892    3.3799    3.1755 H   0  0  0  0  0  0  0  0  0  0  0  0
    9.5070    1.6440   -2.5481 H   0  0  0  0  0  0  0  0  0  0  0  0
   10.9232   -0.2365   -3.3391 H   0  0  0  0  0  0  0  0  0  0  0  0
   11.9765   -1.7884   -1.6917 H   0  0  0  0  0  0  0  0  0  0  0  0
   11.6067   -1.4341    0.7505 H   0  0  0  0  0  0  0  0  0  0  0  0
   10.2000    0.4520    1.5380 H   0  0  0  0  0  0  0  0  0  0  0  0
    7.7835    6.6630    0.0352 H   0  0  0  0  0  0  0  0  0  0  0  0
    6.4562    8.7873    0.1015 H   0  0  0  0  0  0  0  0  0  0  0  0
    3.9823    8.7110    0.4129 H   0  0  0  0  0  0  0  0  0  0  0  0
    2.8296    6.4911    0.6584 H   0  0  0  0  0  0  0  0  0  0  0  0
  1  2  1  0
  1 28  1  0
  1 29  1  0
  1 30  1  0
  2  3  1  0
  2  4  1  0
  2 31  1  1
  3 32  1  0
  3 33  1  0
  3 34  1  0
  4  5  1  0
  4 35  1  0
  4 36  1  0
  5  6  1  0
  5 37  1  0
  5 38  1  0
  6  7  1  0
  6 26  1  0
  7  8  2  0
  7 19  1  0
  8  9  1  0
  9 10  1  0
  9 13  1  0
  9 39  1  6
 10 11  1  0
 10 12  2  0
 11 40  1  0
 11 41  1  0
 13 14  2  0
 13 18  1  0
 14 15  1  0
 14 42  1  0
 15 16  2  0
 15 43  1  0
 16 17  1  0
 16 44  1  0
 17 18  2  0
 17 45  1  0
 18 46  1  0
 19 20  2  0
 20 21  1  0
 20 25  1  0
 21 22  2  0
 21 47  1  0
 22 23  1  0
 22 48  1  0
 23 24  2  0
 23 49  1  0
 24 25  1  0
 24 50  1  0
 25 26  2  0
 26 27  1  0
M  CHG  2   8   1  27  -1
M  END

