
     RDKit          3D

 45 47  0  0  0  0  0  0  0  0999 V2000
    3.1579   -0.5206   -0.0514 C   0  0  0  0  0  0  0  0  0  0  0  0
    3.4539    0.1747   -1.3862 C   0  0  1  0  0  0  0  0  0  0  0  0
    3.7915    1.5849   -1.2000 N   0  0  0  0  0  0  0  0  0  0  0  0
    2.7962    2.5418   -1.1107 C   0  0  0  0  0  0  0  0  0  0  0  0
    1.6185    2.2923   -1.3341 O   0  0  0  0  0  0  0  0  0  0  0  0
    3.2254    3.8094   -0.7764 N   0  0  0  0  0  0  0  0  0  0  0  0
    4.6210    4.2480   -0.6893 C   0  0  0  0  0  0  0  0  0  0  0  0
    4.4512    5.7226   -0.3432 C   0  0  1  0  0  0  0  0  0  0  0  0
    5.5391    6.5479   -0.6592 O   0  0  0  0  0  0  0  0  0  0  0  0
    5.2041    7.8895   -0.3290 C   0  0  0  0  0  0  0  0  0  0  0  0
    3.9123    8.3550   -1.0093 C   0  0  0  0  0  0  0  0  0  0  0  0
    2.7917    7.4536   -0.7365 N   0  0  0  0  0  0  0  0  0  0  0  0
    1.5588    7.9039   -1.3555 C   0  0  0  0  0  0  0  0  0  0  0  0
    3.1867    6.1099   -1.1094 C   0  0  2  0  0  0  0  0  0  0  0  0
    2.2711    4.9301   -0.7831 C   0  0  0  0  0  0  0  0  0  0  0  0
    4.5616   -0.5126   -2.1939 C   0  0  1  0  0  0  0  0  0  0  0  0
    4.2764   -1.9641   -2.6138 C   0  0  0  0  0  0  0  0  0  0  0  0
    5.2487   -2.1547   -3.7807 C   0  0  0  0  0  0  0  0  0  0  0  0
    5.3935   -0.8782   -4.3895 O   0  0  0  0  0  0  0  0  0  0  0  0
    4.8430    0.1362   -3.5604 C   0  0  0  0  0  0  0  0  0  0  0  0
    2.3493    0.0086    0.4744 H   0  0  0  0  0  0  0  0  0  0  0  0
    4.0497   -0.5316    0.5991 H   0  0  0  0  0  0  0  0  0  0  0  0
    2.8362   -1.5629   -0.2025 H   0  0  0  0  0  0  0  0  0  0  0  0
    2.5297    0.1752   -1.9848 H   0  0  0  0  0  0  0  0  0  0  0  0
    4.6933    1.7835   -0.7822 H   0  0  0  0  0  0  0  0  0  0  0  0
    5.1634    4.1356   -1.6470 H   0  0  0  0  0  0  0  0  0  0  0  0
    5.1841    3.7071    0.0914 H   0  0  0  0  0  0  0  0  0  0  0  0
    4.2158    5.8161    0.7382 H   0  0  0  0  0  0  0  0  0  0  0  0
    6.0468    8.5194   -0.6498 H   0  0  0  0  0  0  0  0  0  0  0  0
    5.0934    7.9853    0.7697 H   0  0  0  0  0  0  0  0  0  0  0  0
    4.0972    8.4409   -2.1056 H   0  0  0  0  0  0  0  0  0  0  0  0
    3.6631    9.3646   -0.6418 H   0  0  0  0  0  0  0  0  0  0  0  0
    1.3046    8.9121   -0.9914 H   0  0  0  0  0  0  0  0  0  0  0  0
    0.7283    7.2333   -1.0880 H   0  0  0  0  0  0  0  0  0  0  0  0
    1.6184    7.9493   -2.4672 H   0  0  0  0  0  0  0  0  0  0  0  0
    3.4363    6.0574   -2.1971 H   0  0  0  0  0  0  0  0  0  0  0  0
    1.4816    4.7396   -1.5214 H   0  0  0  0  0  0  0  0  0  0  0  0
    1.7900    5.0663    0.2034 H   0  0  0  0  0  0  0  0  0  0  0  0
    5.4950   -0.5026   -1.5970 H   0  0  0  0  0  0  0  0  0  0  0  0
    3.2319   -2.0524   -2.9598 H   0  0  0  0  0  0  0  0  0  0  0  0
    4.4294   -2.6982   -1.8088 H   0  0  0  0  0  0  0  0  0  0  0  0
    4.8855   -2.8780   -4.5306 H   0  0  0  0  0  0  0  0  0  0  0  0
    6.2331   -2.5151   -3.4200 H   0  0  0  0  0  0  0  0  0  0  0  0
    3.9033    0.5239   -4.0022 H   0  0  0  0  0  0  0  0  0  0  0  0
    5.5507    0.9790   -3.4985 H   0  0  0  0  0  0  0  0  0  0  0  0
  1  2  1  0
  1 21  1  0
  1 22  1  0
  1 23  1  0
  2  3  1  0
  2 16  1  0
  2 24  1  6
  3  4  1  0
  3 25  1  0
  4  5  2  0
  4  6  1  0
  6  7  1  0
  6 15  1  0
  7  8  1  0
  7 26  1  0
  7 27  1  0
  8  9  1  0
  8 14  1  0
  8 28  1  1
  9 10  1  0
 10 11  1  0
 10 29  1  0
 10 30  1  0
 11 12  1  0
 11 31  1  0
 11 32  1  0
 12 13  1  0
 12 14  1  0
 13 33  1  0
 13 34  1  0
 13 35  1  0
 14 15  1  0
 14 36  1  6
 15 37  1  0
 15 38  1  0
 16 17  1  0
 16 20  1  0
 16 39  1  1
 17 18  1  0
 17 40  1  0
 17 41  1  0
 18 19  1  0
 18 42  1  0
 18 43  1  0
 19 20  1  0
 20 44  1  0
 20 45  1  0
M  END

