
     RDKit          3D

 53 54  0  0  0  0  0  0  0  0999 V2000
    1.8305   -2.2231   -1.5654 C   0  0  0  0  0  0  0  0  0  0  0  0
    3.1542   -1.6230   -1.1229 C   0  0  0  0  0  0  0  0  0  0  0  0
    3.8529   -0.9984   -2.2131 O   0  0  0  0  0  0  0  0  0  0  0  0
    3.5071    0.2784   -2.5063 C   0  0  0  0  0  0  0  0  0  0  0  0
    2.6747    0.9104   -1.8877 O   0  0  0  0  0  0  0  0  0  0  0  0
    4.2070    0.7610   -3.5838 N   0  0  0  0  0  0  0  0  0  0  0  0
    5.2618    0.0325   -4.2749 C   0  0  0  0  0  0  0  0  0  0  0  0
    5.0704    0.1027   -5.7968 C   0  0  0  0  0  0  0  0  0  0  0  0
    4.8825    1.5397   -6.3065 C   0  0  2  0  0  0  0  0  0  0  0  0
    6.1537    2.2699   -6.2524 N   0  0  0  0  0  0  0  0  0  0  0  0
    6.4312    3.3181   -7.0648 C   0  0  0  0  0  0  0  0  0  0  0  0
    5.6227    3.7347   -7.8928 O   0  0  0  0  0  0  0  0  0  0  0  0
    7.7993    3.9651   -6.8688 C   0  0  0  0  0  0  0  0  0  0  0  0
    8.7881    4.1017   -8.4021 S   0  0  0  0  0  0  0  0  0  0  0  0
    8.1051    5.6567   -9.1767 C   0  0  1  0  0  0  0  0  0  0  0  0
    9.1780    6.7348   -9.2573 C   0  0  0  0  0  0  0  0  0  0  0  0
    7.5326    5.3317  -10.5746 C   0  0  0  0  0  0  0  0  0  0  0  0
    8.1010    5.6654  -11.5901 O   0  0  0  0  0  0  0  0  0  0  0  0
    6.3333    4.6576  -10.5210 N   0  0  0  0  0  0  0  0  0  0  0  0
    5.5745    4.1919  -11.5849 C   0  0  0  0  0  0  0  0  0  0  0  0
    4.3744    3.4231  -11.4162 C   0  0  0  0  0  0  0  0  0  0  0  0
    3.9600    3.1953  -12.6959 C   0  0  0  0  0  0  0  0  0  0  0  0
    2.7989    2.4730  -13.2854 C   0  0  0  0  0  0  0  0  0  0  0  0
    4.8233    3.7681  -13.5509 O   0  0  0  0  0  0  0  0  0  0  0  0
    5.8507    4.4035  -12.8547 N   0  0  0  0  0  0  0  0  0  0  0  0
    3.7741    2.2451   -5.5004 C   0  0  0  0  0  0  0  0  0  0  0  0
    4.0142    2.1492   -3.9929 C   0  0  0  0  0  0  0  0  0  0  0  0
    1.3610   -2.7574   -0.7237 H   0  0  0  0  0  0  0  0  0  0  0  0
    1.9763   -2.9403   -2.3885 H   0  0  0  0  0  0  0  0  0  0  0  0
    1.1396   -1.4341   -1.8970 H   0  0  0  0  0  0  0  0  0  0  0  0
    3.8439   -2.4000   -0.7613 H   0  0  0  0  0  0  0  0  0  0  0  0
    3.0005   -0.8805   -0.3263 H   0  0  0  0  0  0  0  0  0  0  0  0
    5.2581   -1.0087   -3.9366 H   0  0  0  0  0  0  0  0  0  0  0  0
    6.2503    0.4520   -3.9889 H   0  0  0  0  0  0  0  0  0  0  0  0
    4.1692   -0.4723   -6.0634 H   0  0  0  0  0  0  0  0  0  0  0  0
    5.9231   -0.3756   -6.3065 H   0  0  0  0  0  0  0  0  0  0  0  0
    4.5890    1.5237   -7.3665 H   0  0  0  0  0  0  0  0  0  0  0  0
    6.8599    1.9752   -5.5888 H   0  0  0  0  0  0  0  0  0  0  0  0
    8.4219    3.3963   -6.1616 H   0  0  0  0  0  0  0  0  0  0  0  0
    7.6506    4.9694   -6.4400 H   0  0  0  0  0  0  0  0  0  0  0  0
    7.2752    5.9698   -8.5263 H   0  0  0  0  0  0  0  0  0  0  0  0
    9.9999    6.4121   -9.9120 H   0  0  0  0  0  0  0  0  0  0  0  0
    9.5809    6.9595   -8.2591 H   0  0  0  0  0  0  0  0  0  0  0  0
    8.7586    7.6560   -9.6917 H   0  0  0  0  0  0  0  0  0  0  0  0
    6.0029    4.3786   -9.5917 H   0  0  0  0  0  0  0  0  0  0  0  0
    3.9170    3.1067  -10.4828 H   0  0  0  0  0  0  0  0  0  0  0  0
    2.1669    2.0495  -12.4933 H   0  0  0  0  0  0  0  0  0  0  0  0
    3.1383    1.6550  -13.9413 H   0  0  0  0  0  0  0  0  0  0  0  0
    2.1859    3.1527  -13.8992 H   0  0  0  0  0  0  0  0  0  0  0  0
    2.8103    1.7679   -5.7454 H   0  0  0  0  0  0  0  0  0  0  0  0
    3.7047    3.2979   -5.8142 H   0  0  0  0  0  0  0  0  0  0  0  0
    3.1675    2.5512   -3.4239 H   0  0  0  0  0  0  0  0  0  0  0  0
    4.9085    2.7432   -3.7164 H   0  0  0  0  0  0  0  0  0  0  0  0
  1  2  1  0
  1 28  1  0
  1 29  1  0
  1 30  1  0
  2  3  1  0
  2 31  1  0
  2 32  1  0
  3  4  1  0
  4  5  2  0
  4  6  1  0
  6  7  1  0
  6 27  1  0
  7  8  1  0
  7 33  1  0
  7 34  1  0
  8  9  1  0
  8 35  1  0
  8 36  1  0
  9 10  1  0
  9 26  1  0
  9 37  1  6
 10 11  1  0
 10 38  1  0
 11 12  2  0
 11 13  1  0
 13 14  1  0
 13 39  1  0
 13 40  1  0
 14 15  1  0
 15 16  1  0
 15 17  1  0
 15 41  1  1
 16 42  1  0
 16 43  1  0
 16 44  1  0
 17 18  2  0
 17 19  1  0
 19 20  1  0
 19 45  1  0
 20 21  1  0
 20 25  2  0
 21 22  2  0
 21 46  1  0
 22 23  1  0
 22 24  1  0
 23 47  1  0
 23 48  1  0
 23 49  1  0
 24 25  1  0
 26 27  1  0
 26 50  1  0
 26 51  1  0
 27 52  1  0
 27 53  1  0
M  END

