
     RDKit          3D

 56 56  0  0  0  0  0  0  0  0999 V2000
    1.8381   -6.0547    9.5585 C   0  0  0  0  0  0  0  0  0  0  0  0
    1.9702   -6.3744    8.2669 C   0  0  0  0  0  0  0  0  0  0  0  0
    2.1132   -5.4066    7.1365 C   0  0  1  0  0  0  0  0  0  0  0  0
    3.3074   -5.5860    6.1517 C   0  0  0  0  0  0  0  0  0  0  0  0
    2.3533   -5.3377    4.9346 C   0  0  2  0  0  0  0  0  0  0  0  0
    2.4248   -3.9616    4.3543 C   0  0  0  0  0  0  0  0  0  0  0  0
    2.7522   -3.5713    3.1016 C   0  0  0  0  0  0  0  0  0  0  0  0
    3.1872   -4.3687    1.9540 C   0  0  0  0  0  0  0  0  0  0  0  0
    3.1428   -3.8232    0.7072 C   0  0  0  0  0  0  0  0  0  0  0  0
    3.5399   -4.5271   -0.4188 N   0  0  0  0  0  0  0  0  0  0  0  0
    3.5210   -3.9484   -1.5563 C   0  0  0  0  0  0  0  0  0  0  0  0
    3.7859   -5.7470    2.1248 C   0  0  0  0  0  0  0  0  0  0  0  0
    4.9344   -5.9829    2.6377 N   0  0  0  0  0  0  0  0  0  0  0  0
    5.7867   -4.9206    3.1117 C   0  0  0  0  0  0  0  0  0  0  0  0
    7.1666   -5.3622    2.8953 N   0  0  0  0  0  0  0  0  0  0  0  0
    8.2574   -4.8791    3.6096 C   0  0  0  0  0  0  0  0  0  0  0  0
    8.3662   -3.4238    3.8259 C   0  0  0  0  0  0  0  0  0  0  0  0
    7.5514   -2.5671    3.3504 N   0  0  0  0  0  0  0  0  0  0  0  0
    7.7713   -1.1733    3.6385 C   0  0  0  0  0  0  0  0  0  0  0  0
    9.2424   -5.7198    4.0435 C   0  0  0  0  0  0  0  0  0  0  0  0
   10.5739   -5.3972    4.6542 C   0  0  0  0  0  0  0  0  0  0  0  0
    2.9727   -6.7822    1.7182 N   0  0  0  0  0  0  0  0  0  0  0  0
    3.4898   -8.1374    1.6185 C   0  0  0  0  0  0  0  0  0  0  0  0
    2.3757   -9.1261    1.2985 C   0  0  0  0  0  0  0  0  0  0  0  0
    1.1537   -5.5431    5.9166 C   0  0  0  0  0  0  0  0  0  0  0  0
    1.7394   -6.8210   10.3325 H   0  0  0  0  0  0  0  0  0  0  0  0
    1.8247   -5.0110    9.8908 H   0  0  0  0  0  0  0  0  0  0  0  0
    1.9790   -7.4362    7.9820 H   0  0  0  0  0  0  0  0  0  0  0  0
    2.0913   -4.3778    7.5321 H   0  0  0  0  0  0  0  0  0  0  0  0
    3.6966   -6.6158    6.1483 H   0  0  0  0  0  0  0  0  0  0  0  0
    4.1563   -4.8965    6.2723 H   0  0  0  0  0  0  0  0  0  0  0  0
    2.4163   -6.0949    4.1455 H   0  0  0  0  0  0  0  0  0  0  0  0
    2.1457   -3.1545    5.0450 H   0  0  0  0  0  0  0  0  0  0  0  0
    2.6671   -2.4996    2.8875 H   0  0  0  0  0  0  0  0  0  0  0  0
    2.7792   -2.7885    0.5812 H   0  0  0  0  0  0  0  0  0  0  0  0
    3.8286   -4.5032   -2.4523 H   0  0  0  0  0  0  0  0  0  0  0  0
    3.2089   -2.8941   -1.6956 H   0  0  0  0  0  0  0  0  0  0  0  0
    5.5939   -4.7468    4.1929 H   0  0  0  0  0  0  0  0  0  0  0  0
    5.6250   -3.9553    2.6064 H   0  0  0  0  0  0  0  0  0  0  0  0
    7.1772   -6.3721    2.7815 H   0  0  0  0  0  0  0  0  0  0  0  0
    9.2198   -3.1007    4.4514 H   0  0  0  0  0  0  0  0  0  0  0  0
    6.8848   -0.7514    4.1444 H   0  0  0  0  0  0  0  0  0  0  0  0
    7.8810   -0.6117    2.6940 H   0  0  0  0  0  0  0  0  0  0  0  0
    8.6631   -0.9740    4.2699 H   0  0  0  0  0  0  0  0  0  0  0  0
    9.0678   -6.7898    3.8699 H   0  0  0  0  0  0  0  0  0  0  0  0
   10.7334   -4.3263    4.8398 H   0  0  0  0  0  0  0  0  0  0  0  0
   11.4031   -5.7397    4.0068 H   0  0  0  0  0  0  0  0  0  0  0  0
   10.7047   -5.9222    5.6179 H   0  0  0  0  0  0  0  0  0  0  0  0
    2.2864   -6.5192    1.0189 H   0  0  0  0  0  0  0  0  0  0  0  0
    3.9718   -8.3823    2.5770 H   0  0  0  0  0  0  0  0  0  0  0  0
    4.2927   -8.1942    0.8571 H   0  0  0  0  0  0  0  0  0  0  0  0
    1.5946   -9.1134    2.0755 H   0  0  0  0  0  0  0  0  0  0  0  0
    2.7751  -10.1497    1.2292 H   0  0  0  0  0  0  0  0  0  0  0  0
    1.8958   -8.8948    0.3319 H   0  0  0  0  0  0  0  0  0  0  0  0
    0.7351   -6.5581    5.8332 H   0  0  0  0  0  0  0  0  0  0  0  0
    0.3238   -4.8215    5.8556 H   0  0  0  0  0  0  0  0  0  0  0  0
  1  2  2  0
  1 26  1  0
  1 27  1  0
  2  3  1  0
  2 28  1  0
  3  4  1  0
  3 25  1  0
  3 29  1  1
  4  5  1  0
  4 30  1  0
  4 31  1  0
  5  6  1  0
  5 25  1  0
  5 32  1  6
  6  7  2  0
  6 33  1  0
  7  8  1  0
  7 34  1  0
  8  9  2  0
  8 12  1  0
  9 10  1  0
  9 35  1  0
 10 11  2  0
 11 36  1  0
 11 37  1  0
 12 13  2  0
 12 22  1  0
 13 14  1  0
 14 15  1  0
 14 38  1  0
 14 39  1  0
 15 16  1  0
 15 40  1  0
 16 17  1  0
 16 20  2  0
 17 18  2  0
 17 41  1  0
 18 19  1  0
 19 42  1  0
 19 43  1  0
 19 44  1  0
 20 21  1  0
 20 45  1  0
 21 46  1  0
 21 47  1  0
 21 48  1  0
 22 23  1  0
 22 49  1  0
 23 24  1  0
 23 50  1  0
 23 51  1  0
 24 52  1  0
 24 53  1  0
 24 54  1  0
 25 55  1  0
 25 56  1  0
M  END

