
     RDKit          3D

 44 44  0  0  0  0  0  0  0  0999 V2000
    2.5416    1.0777   -1.1841 C   0  0  0  0  0  0  0  0  0  0  0  0
    2.4935    0.3360    0.1577 C   0  0  2  0  0  0  0  0  0  0  0  0
    1.4354    0.2850    0.4712 H   0  0  0  0  0  0  0  0  0  0  0  0
    3.1763    1.2573    1.2004 C   0  0  0  0  0  0  0  0  0  0  0  0
    2.5516    2.1712    1.7211 O   0  0  0  0  0  0  0  0  0  0  0  0
    4.4941    0.9999    1.4012 N   0  0  0  0  0  0  0  0  0  0  0  0
    5.4155    1.7670    2.2610 C   0  0  1  0  0  0  0  0  0  0  0  0
    4.9257    1.7343    3.7215 C   0  0  0  0  0  0  0  0  0  0  0  0
    6.7879    1.0863    2.1528 C   0  0  0  0  0  0  0  0  0  0  0  0
    5.5086    3.2221    1.7635 C   0  0  0  0  0  0  0  0  0  0  0  0
    3.1302   -0.9916    0.1348 N   0  0  0  0  0  0  0  0  0  0  0  0
    2.8959   -1.7953    1.3383 C   0  0  0  0  0  0  0  0  0  0  0  0
    1.5992   -2.6151    1.2868 C   0  0  0  0  0  0  0  0  0  0  0  0
    1.5950   -3.5339    0.0592 C   0  0  0  0  0  0  0  0  0  0  0  0
    1.9202   -2.7802   -1.2376 C   0  0  1  0  0  0  0  0  0  0  0  0
    2.1654   -3.4872   -2.0461 H   0  0  0  0  0  0  0  0  0  0  0  0
    0.4563   -1.9446   -1.9493 S   0  0  1  0  0  0  0  0  0  0  0  0
   -0.5474   -3.2537   -2.3429 N   0  0  0  0  0  0  0  0  0  0  0  0
   -0.2489   -1.1718   -0.9181 O   0  0  0  0  0  0  0  0  0  0  0  0
    0.8877   -1.3213   -3.2085 O   0  0  0  0  0  0  0  0  0  0  0  0
    3.1198   -1.8092   -1.0657 C   0  0  0  0  0  0  0  0  0  0  0  0
    3.5757    1.1612   -1.5568 H   0  0  0  0  0  0  0  0  0  0  0  0
    2.1516    2.0932   -1.0267 H   0  0  0  0  0  0  0  0  0  0  0  0
    1.9216    0.5978   -1.9530 H   0  0  0  0  0  0  0  0  0  0  0  0
    4.8405    0.1847    0.9015 H   0  0  0  0  0  0  0  0  0  0  0  0
    4.8796    0.6975    4.0924 H   0  0  0  0  0  0  0  0  0  0  0  0
    3.9233    2.1772    3.7967 H   0  0  0  0  0  0  0  0  0  0  0  0
    5.6131    2.3005    4.3701 H   0  0  0  0  0  0  0  0  0  0  0  0
    6.7404    0.0396    2.4962 H   0  0  0  0  0  0  0  0  0  0  0  0
    7.5272    1.6123    2.7753 H   0  0  0  0  0  0  0  0  0  0  0  0
    7.1547    1.0947    1.1130 H   0  0  0  0  0  0  0  0  0  0  0  0
    4.5199    3.6996    1.7974 H   0  0  0  0  0  0  0  0  0  0  0  0
    5.8769    3.2535    0.7255 H   0  0  0  0  0  0  0  0  0  0  0  0
    6.2031    3.8007    2.3933 H   0  0  0  0  0  0  0  0  0  0  0  0
    2.8986   -1.1332    2.2160 H   0  0  0  0  0  0  0  0  0  0  0  0
    3.7528   -2.4864    1.4648 H   0  0  0  0  0  0  0  0  0  0  0  0
    0.7302   -1.9410    1.2510 H   0  0  0  0  0  0  0  0  0  0  0  0
    1.5055   -3.2202    2.2039 H   0  0  0  0  0  0  0  0  0  0  0  0
    0.6449   -4.0809   -0.0434 H   0  0  0  0  0  0  0  0  0  0  0  0
    2.3790   -4.3038    0.1787 H   0  0  0  0  0  0  0  0  0  0  0  0
   -0.6256   -3.3302   -3.3576 H   0  0  0  0  0  0  0  0  0  0  0  0
   -1.4611   -3.1132   -1.9106 H   0  0  0  0  0  0  0  0  0  0  0  0
    3.2274   -1.1896   -1.9640 H   0  0  0  0  0  0  0  0  0  0  0  0
    4.0080   -2.4695   -1.0342 H   0  0  0  0  0  0  0  0  0  0  0  0
  1  2  1  0
  1 22  1  0
  1 23  1  0
  1 24  1  0
  2  3  1  1
  2  4  1  0
  2 11  1  0
  4  5  2  0
  4  6  1  0
  7  6  1  6
  6 25  1  0
  7  8  1  0
  7  9  1  0
  7 10  1  0
  8 26  1  0
  8 27  1  0
  8 28  1  0
  9 29  1  0
  9 30  1  0
  9 31  1  0
 10 32  1  0
 10 33  1  0
 10 34  1  0
 11 12  1  0
 11 21  1  0
 12 13  1  0
 12 35  1  0
 12 36  1  0
 13 14  1  0
 13 37  1  0
 13 38  1  0
 14 15  1  0
 14 39  1  0
 14 40  1  0
 15 16  1  6
 15 17  1  0
 15 21  1  0
 17 18  1  6
 17 19  2  0
 17 20  2  0
 18 41  1  0
 18 42  1  0
 21 43  1  0
 21 44  1  0
M  END

