
     RDKit          3D

 43 45  0  0  0  0  0  0  0  0999 V2000
    2.5243   -1.1744   -4.3734 C   0  0  0  0  0  0  0  0  0  0  0  0
    2.0282   -0.3195   -3.2014 C   0  0  1  0  0  0  0  0  0  0  0  0
    1.9206   -1.1411   -1.9101 C   0  0  0  0  0  0  0  0  0  0  0  0
    2.8731    0.9581   -3.0081 C   0  0  0  0  0  0  0  0  0  0  0  0
    4.2748    0.7281   -2.6946 N   0  0  0  0  0  0  0  0  0  0  0  0
    5.2662    0.8306   -3.6391 C   0  0  0  0  0  0  0  0  0  0  0  0
    5.0338    1.1819   -4.7870 O   0  0  0  0  0  0  0  0  0  0  0  0
    6.6652    0.4448   -3.2108 C   0  0  0  0  0  0  0  0  0  0  0  0
    7.4939   -0.0128   -4.2488 C   0  0  0  0  0  0  0  0  0  0  0  0
    8.7947   -0.4495   -4.0149 C   0  0  0  0  0  0  0  0  0  0  0  0
    9.2982   -0.4002   -2.7115 C   0  0  0  0  0  0  0  0  0  0  0  0
    8.5148    0.0871   -1.6679 C   0  0  0  0  0  0  0  0  0  0  0  0
    7.1917    0.5183   -1.8910 C   0  0  0  0  0  0  0  0  0  0  0  0
    6.4169    1.0561   -0.8484 N   0  0  0  0  0  0  0  0  0  0  0  0
    6.7004    1.0342    0.5328 C   0  0  0  0  0  0  0  0  0  0  0  0
    6.5056    2.2345    1.2767 C   0  0  0  0  0  0  0  0  0  0  0  0
    6.6923    2.2949    2.6494 C   0  0  0  0  0  0  0  0  0  0  0  0
    7.1135    1.1211    3.2958 C   0  0  0  0  0  0  0  0  0  0  0  0
    7.3974    0.8285    4.6037 N   0  0  0  0  0  0  0  0  0  0  0  0
    7.3627    1.4471    5.4034 H   0  0  0  0  0  0  0  0  0  0  0  0
    7.7668   -0.4551    4.7780 N   0  0  0  0  0  0  0  0  0  0  0  0
    7.7300   -1.0212    3.5861 C   0  0  0  0  0  0  0  0  0  0  0  0
    7.3238   -0.0860    2.5780 C   0  0  0  0  0  0  0  0  0  0  0  0
    7.1001   -0.1316    1.1887 C   0  0  0  0  0  0  0  0  0  0  0  0
    1.8447   -2.0227   -4.5550 H   0  0  0  0  0  0  0  0  0  0  0  0
    3.5239   -1.5903   -4.1655 H   0  0  0  0  0  0  0  0  0  0  0  0
    2.6008   -0.5862   -5.3002 H   0  0  0  0  0  0  0  0  0  0  0  0
    1.0135    0.0442   -3.4503 H   0  0  0  0  0  0  0  0  0  0  0  0
    2.9019   -1.5452   -1.6067 H   0  0  0  0  0  0  0  0  0  0  0  0
    1.2468   -2.0026   -2.0432 H   0  0  0  0  0  0  0  0  0  0  0  0
    1.5294   -0.5380   -1.0737 H   0  0  0  0  0  0  0  0  0  0  0  0
    2.4258    1.5662   -2.2017 H   0  0  0  0  0  0  0  0  0  0  0  0
    2.8563    1.5570   -3.9290 H   0  0  0  0  0  0  0  0  0  0  0  0
    4.5138    0.3100   -1.8021 H   0  0  0  0  0  0  0  0  0  0  0  0
    7.0697   -0.0202   -5.2544 H   0  0  0  0  0  0  0  0  0  0  0  0
    9.4106   -0.8187   -4.8378 H   0  0  0  0  0  0  0  0  0  0  0  0
   10.3214   -0.7243   -2.5027 H   0  0  0  0  0  0  0  0  0  0  0  0
    8.9394    0.1625   -0.6669 H   0  0  0  0  0  0  0  0  0  0  0  0
    5.7980    1.8060   -1.1358 H   0  0  0  0  0  0  0  0  0  0  0  0
    6.2011    3.1366    0.7388 H   0  0  0  0  0  0  0  0  0  0  0  0
    6.5284    3.2272    3.1944 H   0  0  0  0  0  0  0  0  0  0  0  0
    7.9907   -2.0732    3.4725 H   0  0  0  0  0  0  0  0  0  0  0  0
    7.2244   -1.0637    0.6351 H   0  0  0  0  0  0  0  0  0  0  0  0
  1  2  1  0
  1 25  1  0
  1 26  1  0
  1 27  1  0
  2  3  1  0
  2  4  1  0
  2 28  1  6
  3 29  1  0
  3 30  1  0
  3 31  1  0
  4  5  1  0
  4 32  1  0
  4 33  1  0
  5  6  1  0
  5 34  1  0
  6  7  2  0
  6  8  1  0
  8  9  2  0
  8 13  1  0
  9 10  1  0
  9 35  1  0
 10 11  2  0
 10 36  1  0
 11 12  1  0
 11 37  1  0
 12 13  2  0
 12 38  1  0
 13 14  1  0
 14 15  1  0
 14 39  1  0
 15 16  2  0
 15 24  1  0
 16 17  1  0
 16 40  1  0
 17 18  2  0
 17 41  1  0
 18 19  1  0
 18 23  1  0
 19 20  1  0
 19 21  1  0
 21 22  2  0
 22 23  1  0
 22 42  1  0
 23 24  2  0
 24 43  1  0
M  END

