
     RDKit          3D

 46 49  0  0  0  0  0  0  0  0999 V2000
    0.9132    0.2160    0.5630 C   0  0  0  0  0  0  0  0  0  0  0  0
    2.2858   -0.3935    0.7231 C   0  0  0  0  0  0  0  0  0  0  0  0
    2.5065   -1.5637    0.9028 O   0  0  0  0  0  0  0  0  0  0  0  0
    3.2267    0.5771    0.6333 O   0  0  0  0  0  0  0  0  0  0  0  0
    4.6063    0.4052    0.7289 C   0  0  0  0  0  0  0  0  0  0  0  0
    5.3236    1.6099    0.5547 C   0  0  0  0  0  0  0  0  0  0  0  0
    6.7119    1.6372    0.6224 C   0  0  0  0  0  0  0  0  0  0  0  0
    7.3780    0.4314    0.8765 C   0  0  0  0  0  0  0  0  0  0  0  0
    6.6627   -0.7871    1.0400 C   0  0  0  0  0  0  0  0  0  0  0  0
    5.2561   -0.8038    0.9686 C   0  0  0  0  0  0  0  0  0  0  0  0
    7.6442   -1.8189    1.2448 C   0  0  0  0  0  0  0  0  0  0  0  0
    8.8792   -1.2156    1.2041 C   0  0  0  0  0  0  0  0  0  0  0  0
    8.7403    0.1519    0.9779 N   0  0  0  0  0  0  0  0  0  0  0  0
    9.7932    1.1061    0.9089 C   0  0  0  0  0  0  0  0  0  0  0  0
   10.8026    0.9792   -0.0568 C   0  0  0  0  0  0  0  0  0  0  0  0
   11.8410    1.9122   -0.1105 C   0  0  0  0  0  0  0  0  0  0  0  0
   11.8691    2.9877    0.7820 C   0  0  0  0  0  0  0  0  0  0  0  0
   10.8562    3.1222    1.7368 C   0  0  0  0  0  0  0  0  0  0  0  0
    9.8254    2.1827    1.8086 C   0  0  0  0  0  0  0  0  0  0  0  0
   10.1841   -1.9198    1.4325 C   0  0  0  0  0  0  0  0  0  0  0  0
    9.9229   -3.2627    1.9444 N   0  0  0  0  0  0  0  0  0  0  0  0
   10.6690   -3.7109    3.0134 C   0  0  0  0  0  0  0  0  0  0  0  0
   10.3566   -5.0989    3.5568 C   0  0  0  0  0  0  0  0  0  0  0  0
   11.5524   -3.0287    3.5089 O   0  0  0  0  0  0  0  0  0  0  0  0
    8.8376   -3.9884    1.2907 C   0  0  0  0  0  0  0  0  0  0  0  0
    7.4834   -3.2890    1.4963 C   0  0  0  0  0  0  0  0  0  0  0  0
    0.1535   -0.5709    0.6382 H   0  0  0  0  0  0  0  0  0  0  0  0
    0.8371    0.7228   -0.4114 H   0  0  0  0  0  0  0  0  0  0  0  0
    0.7462    0.9782    1.3397 H   0  0  0  0  0  0  0  0  0  0  0  0
    4.7561    2.5222    0.3627 H   0  0  0  0  0  0  0  0  0  0  0  0
    7.2559    2.5723    0.4790 H   0  0  0  0  0  0  0  0  0  0  0  0
    4.6907   -1.7232    1.0904 H   0  0  0  0  0  0  0  0  0  0  0  0
   10.7618    0.1556   -0.7723 H   0  0  0  0  0  0  0  0  0  0  0  0
   12.6257    1.8031   -0.8632 H   0  0  0  0  0  0  0  0  0  0  0  0
   12.6791    3.7195    0.7342 H   0  0  0  0  0  0  0  0  0  0  0  0
   10.8749    3.9570    2.4419 H   0  0  0  0  0  0  0  0  0  0  0  0
    9.0460    2.2694    2.5682 H   0  0  0  0  0  0  0  0  0  0  0  0
   10.8128   -1.4006    2.1703 H   0  0  0  0  0  0  0  0  0  0  0  0
   10.7796   -1.9780    0.4990 H   0  0  0  0  0  0  0  0  0  0  0  0
    9.3115   -5.1871    3.8926 H   0  0  0  0  0  0  0  0  0  0  0  0
   11.0224   -5.2696    4.4110 H   0  0  0  0  0  0  0  0  0  0  0  0
   10.5365   -5.8824    2.8035 H   0  0  0  0  0  0  0  0  0  0  0  0
    8.8046   -5.0195    1.6587 H   0  0  0  0  0  0  0  0  0  0  0  0
    9.0554   -4.0416    0.2074 H   0  0  0  0  0  0  0  0  0  0  0  0
    7.1174   -3.4737    2.5237 H   0  0  0  0  0  0  0  0  0  0  0  0
    6.7346   -3.7321    0.8169 H   0  0  0  0  0  0  0  0  0  0  0  0
  1  2  1  0
  1 27  1  0
  1 28  1  0
  1 29  1  0
  2  3  2  0
  2  4  1  0
  4  5  1  0
  5  6  2  0
  5 10  1  0
  6  7  1  0
  6 30  1  0
  7  8  2  0
  7 31  1  0
  8  9  1  0
  8 13  1  0
  9 10  2  0
  9 11  1  0
 10 32  1  0
 11 12  2  0
 11 26  1  0
 12 13  1  0
 12 20  1  0
 13 14  1  0
 14 15  2  0
 14 19  1  0
 15 16  1  0
 15 33  1  0
 16 17  2  0
 16 34  1  0
 17 18  1  0
 17 35  1  0
 18 19  2  0
 18 36  1  0
 19 37  1  0
 20 21  1  0
 20 38  1  0
 20 39  1  0
 21 22  1  0
 21 25  1  0
 22 23  1  0
 22 24  2  0
 23 40  1  0
 23 41  1  0
 23 42  1  0
 25 26  1  0
 25 43  1  0
 25 44  1  0
 26 45  1  0
 26 46  1  0
M  END

