
     RDKit          3D

 56 59  0  0  0  0  0  0  0  0999 V2000
    7.7676    0.7782    4.1821 C   0  0  0  0  0  0  0  0  0  0  0  0
    6.7984    0.8153    3.0133 C   0  0  0  0  0  0  0  0  0  0  0  0
    5.6614    0.3689    3.1251 O   0  0  0  0  0  0  0  0  0  0  0  0
    7.2823    1.4018    1.8771 N   0  0  0  0  0  0  0  0  0  0  0  0
    6.7114    1.5296    0.5729 C   0  0  0  0  0  0  0  0  0  0  0  0
    7.5725    1.2871   -0.5196 C   0  0  0  0  0  0  0  0  0  0  0  0
    8.9875    0.8075   -0.2951 C   0  0  0  0  0  0  0  0  0  0  0  0
    7.1074    1.5121   -1.8198 C   0  0  0  0  0  0  0  0  0  0  0  0
    5.8060    1.9642   -2.0676 C   0  0  0  0  0  0  0  0  0  0  0  0
    5.3136    2.2105   -3.4732 C   0  0  0  0  0  0  0  0  0  0  0  0
    4.9558    2.1800   -0.9791 C   0  0  0  0  0  0  0  0  0  0  0  0
    5.3821    1.9683    0.3417 C   0  0  0  0  0  0  0  0  0  0  0  0
    4.5220    2.1701    1.4339 N   0  0  0  0  0  0  0  0  0  0  0  0
    3.4283    3.0031    1.5018 C   0  0  0  0  0  0  0  0  0  0  0  0
    3.0750    3.7449    0.5980 O   0  0  0  0  0  0  0  0  0  0  0  0
    2.6900    2.9467    2.8363 C   0  0  0  0  0  0  0  0  0  0  0  0
    2.9332    4.1583    3.7712 C   0  0  2  0  0  0  0  0  0  0  0  0
    2.4346    5.4839    3.1441 C   0  0  0  0  0  0  0  0  0  0  0  0
    2.6507    6.6587    4.1179 C   0  0  1  0  0  0  0  0  0  0  0  0
    1.8667    6.4035    5.4195 C   0  0  0  0  0  0  0  0  0  0  0  0
    2.3651    5.0981    6.0690 C   0  0  2  0  0  0  0  0  0  0  0  0
    3.8657    5.2278    6.3947 C   0  0  0  0  0  0  0  0  0  0  0  0
    4.6516    5.4854    5.0946 C   0  0  2  0  0  0  0  0  0  0  0  0
    4.1519    6.7888    4.4413 C   0  0  0  0  0  0  0  0  0  0  0  0
    4.4349    4.3111    4.1200 C   0  0  0  0  0  0  0  0  0  0  0  0
    2.1552    3.9260    5.0914 C   0  0  0  0  0  0  0  0  0  0  0  0
    7.7132   -0.2180    4.6431 H   0  0  0  0  0  0  0  0  0  0  0  0
    7.4374    1.5061    4.9403 H   0  0  0  0  0  0  0  0  0  0  0  0
    8.8097    0.9997    3.9093 H   0  0  0  0  0  0  0  0  0  0  0  0
    8.2537    1.6855    1.9279 H   0  0  0  0  0  0  0  0  0  0  0  0
    9.0208   -0.0913    0.3426 H   0  0  0  0  0  0  0  0  0  0  0  0
    9.6201    1.5742    0.1913 H   0  0  0  0  0  0  0  0  0  0  0  0
    9.4715    0.5616   -1.2506 H   0  0  0  0  0  0  0  0  0  0  0  0
    7.7825    1.3259   -2.6597 H   0  0  0  0  0  0  0  0  0  0  0  0
    6.0940    2.0012   -4.2198 H   0  0  0  0  0  0  0  0  0  0  0  0
    4.9909    3.2568   -3.6033 H   0  0  0  0  0  0  0  0  0  0  0  0
    4.4425    1.5766   -3.7082 H   0  0  0  0  0  0  0  0  0  0  0  0
    3.9431    2.5462   -1.1363 H   0  0  0  0  0  0  0  0  0  0  0  0
    4.6915    1.5315    2.2189 H   0  0  0  0  0  0  0  0  0  0  0  0
    2.9505    2.0233    3.3794 H   0  0  0  0  0  0  0  0  0  0  0  0
    1.6153    2.8986    2.5967 H   0  0  0  0  0  0  0  0  0  0  0  0
    1.3629    5.3901    2.8953 H   0  0  0  0  0  0  0  0  0  0  0  0
    2.9547    5.6680    2.1920 H   0  0  0  0  0  0  0  0  0  0  0  0
    2.2927    7.5898    3.6461 H   0  0  0  0  0  0  0  0  0  0  0  0
    0.7864    6.3317    5.2037 H   0  0  0  0  0  0  0  0  0  0  0  0
    1.9969    7.2490    6.1176 H   0  0  0  0  0  0  0  0  0  0  0  0
    1.7995    4.9040    6.9967 H   0  0  0  0  0  0  0  0  0  0  0  0
    4.2295    4.3065    6.8830 H   0  0  0  0  0  0  0  0  0  0  0  0
    4.0302    6.0534    7.1090 H   0  0  0  0  0  0  0  0  0  0  0  0
    5.7279    5.5745    5.3238 H   0  0  0  0  0  0  0  0  0  0  0  0
    4.7218    6.9932    3.5183 H   0  0  0  0  0  0  0  0  0  0  0  0
    4.3241    7.6433    5.1191 H   0  0  0  0  0  0  0  0  0  0  0  0
    4.8060    3.3716    4.5688 H   0  0  0  0  0  0  0  0  0  0  0  0
    5.0204    4.4765    3.1999 H   0  0  0  0  0  0  0  0  0  0  0  0
    1.0803    3.8061    4.8684 H   0  0  0  0  0  0  0  0  0  0  0  0
    2.4892    2.9817    5.5575 H   0  0  0  0  0  0  0  0  0  0  0  0
  1  2  1  0
  1 27  1  0
  1 28  1  0
  1 29  1  0
  2  3  2  0
  2  4  1  0
  4  5  1  0
  4 30  1  0
  5  6  2  0
  5 12  1  0
  6  7  1  0
  6  8  1  0
  7 31  1  0
  7 32  1  0
  7 33  1  0
  8  9  2  0
  8 34  1  0
  9 10  1  0
  9 11  1  0
 10 35  1  0
 10 36  1  0
 10 37  1  0
 11 12  2  0
 11 38  1  0
 12 13  1  0
 13 14  1  0
 13 39  1  0
 14 15  2  0
 14 16  1  0
 17 16  1  6
 16 40  1  0
 16 41  1  0
 17 18  1  0
 17 25  1  0
 17 26  1  0
 18 19  1  0
 18 42  1  0
 18 43  1  0
 19 20  1  0
 19 24  1  0
 19 44  1  6
 20 21  1  0
 20 45  1  0
 20 46  1  0
 21 22  1  0
 21 26  1  0
 21 47  1  1
 22 23  1  0
 22 48  1  0
 22 49  1  0
 23 24  1  0
 23 25  1  0
 23 50  1  1
 24 51  1  0
 24 52  1  0
 25 53  1  0
 25 54  1  0
 26 55  1  0
 26 56  1  0
M  END

