
     RDKit          3D

 64 65  0  0  0  0  0  0  0  0999 V2000
    1.9370    1.1104    0.2391 C   0  0  0  0  0  0  0  0  0  0  0  0
    3.2599    0.3573    0.3938 C   0  0  0  0  0  0  0  0  0  0  0  0
    3.3250   -0.8858   -0.5040 C   0  0  0  0  0  0  0  0  0  0  0  0
    4.6344   -1.5336   -0.5380 N   0  0  0  0  0  0  0  0  0  0  0  0
    5.0990   -2.0360    0.7663 C   0  0  0  0  0  0  0  0  0  0  0  0
    4.3910   -3.2719    1.3102 C   0  0  0  0  0  0  0  0  0  0  0  0
    4.9146   -4.5580    1.0930 C   0  0  0  0  0  0  0  0  0  0  0  0
    4.2569   -5.6979    1.5655 C   0  0  0  0  0  0  0  0  0  0  0  0
    3.0583   -5.5729    2.2731 C   0  0  0  0  0  0  0  0  0  0  0  0
    2.5300   -4.3005    2.5116 C   0  0  0  0  0  0  0  0  0  0  0  0
    3.1922   -3.1648    2.0368 C   0  0  0  0  0  0  0  0  0  0  0  0
    4.9543   -2.4359   -1.6689 C   0  0  1  0  0  0  0  0  0  0  0  0
    4.1279   -2.1578   -2.9415 C   0  0  0  0  0  0  0  0  0  0  0  0
    4.4302   -3.1072   -4.1049 C   0  0  0  0  0  0  0  0  0  0  0  0
    6.4791   -2.4104   -1.9475 C   0  0  0  0  0  0  0  0  0  0  0  0
    7.0156   -1.0329   -2.3478 C   0  0  0  0  0  0  0  0  0  0  0  0
    8.5743   -0.8916   -2.2770 C   0  0  1  0  0  0  0  0  0  0  0  0
    8.9087   -0.9678   -0.8369 C   0  0  0  0  0  0  0  0  0  0  0  0
    9.1204   -0.9766    0.3031 N   0  0  0  0  0  0  0  0  0  0  0  0
    9.2964   -2.0367   -3.0370 C   0  0  0  0  0  0  0  0  0  0  0  0
   10.1462   -2.9097   -2.3280 C   0  0  0  0  0  0  0  0  0  0  0  0
   10.8325   -3.9629   -2.9317 C   0  0  0  0  0  0  0  0  0  0  0  0
   10.6909   -4.1877   -4.2997 C   0  0  0  0  0  0  0  0  0  0  0  0
    9.8600   -3.3488   -5.0400 C   0  0  0  0  0  0  0  0  0  0  0  0
    9.1761   -2.2949   -4.4211 C   0  0  0  0  0  0  0  0  0  0  0  0
    8.0848   -1.2678   -5.6347 Br  0  0  0  0  0  0  0  0  0  0  0  0
    9.0656    0.5287   -2.7796 C   0  0  1  0  0  0  0  0  0  0  0  0
    8.3550    1.6938   -2.0767 C   0  0  0  0  0  0  0  0  0  0  0  0
   10.5882    0.6842   -2.6691 C   0  0  0  0  0  0  0  0  0  0  0  0
    1.8984    1.9930    0.8968 H   0  0  0  0  0  0  0  0  0  0  0  0
    1.0758    0.4700    0.4943 H   0  0  0  0  0  0  0  0  0  0  0  0
    1.7895    1.4612   -0.7963 H   0  0  0  0  0  0  0  0  0  0  0  0
    3.3921    0.0881    1.4549 H   0  0  0  0  0  0  0  0  0  0  0  0
    4.1074    1.0167    0.1383 H   0  0  0  0  0  0  0  0  0  0  0  0
    3.0852   -0.5455   -1.5189 H   0  0  0  0  0  0  0  0  0  0  0  0
    2.5035   -1.5811   -0.2166 H   0  0  0  0  0  0  0  0  0  0  0  0
    5.0074   -1.2198    1.4966 H   0  0  0  0  0  0  0  0  0  0  0  0
    6.1761   -2.2442    0.6981 H   0  0  0  0  0  0  0  0  0  0  0  0
    5.8632   -4.6682    0.5597 H   0  0  0  0  0  0  0  0  0  0  0  0
    4.6871   -6.6870    1.3866 H   0  0  0  0  0  0  0  0  0  0  0  0
    2.5433   -6.4619    2.6463 H   0  0  0  0  0  0  0  0  0  0  0  0
    1.6012   -4.1909    3.0780 H   0  0  0  0  0  0  0  0  0  0  0  0
    2.7777   -2.1761    2.2508 H   0  0  0  0  0  0  0  0  0  0  0  0
    4.7097   -3.4833   -1.3917 H   0  0  0  0  0  0  0  0  0  0  0  0
    4.2697   -1.1142   -3.2729 H   0  0  0  0  0  0  0  0  0  0  0  0
    3.0600   -2.2583   -2.6949 H   0  0  0  0  0  0  0  0  0  0  0  0
    5.4310   -2.9492   -4.5340 H   0  0  0  0  0  0  0  0  0  0  0  0
    3.7025   -2.9589   -4.9185 H   0  0  0  0  0  0  0  0  0  0  0  0
    4.3617   -4.1622   -3.7900 H   0  0  0  0  0  0  0  0  0  0  0  0
    6.7110   -3.1589   -2.7201 H   0  0  0  0  0  0  0  0  0  0  0  0
    7.0094   -2.7561   -1.0465 H   0  0  0  0  0  0  0  0  0  0  0  0
    6.5749   -0.2928   -1.6659 H   0  0  0  0  0  0  0  0  0  0  0  0
    6.6926   -0.7673   -3.3632 H   0  0  0  0  0  0  0  0  0  0  0  0
   10.2738   -2.7532   -1.2562 H   0  0  0  0  0  0  0  0  0  0  0  0
   11.4768   -4.6035   -2.3252 H   0  0  0  0  0  0  0  0  0  0  0  0
   11.2185   -5.0064   -4.7946 H   0  0  0  0  0  0  0  0  0  0  0  0
    9.7332   -3.5054   -6.1122 H   0  0  0  0  0  0  0  0  0  0  0  0
    8.7968    0.5691   -3.8448 H   0  0  0  0  0  0  0  0  0  0  0  0
    8.5216    1.6740   -0.9874 H   0  0  0  0  0  0  0  0  0  0  0  0
    7.2706    1.6984   -2.2568 H   0  0  0  0  0  0  0  0  0  0  0  0
    8.7529    2.6484   -2.4553 H   0  0  0  0  0  0  0  0  0  0  0  0
   10.9209    0.6560   -1.6183 H   0  0  0  0  0  0  0  0  0  0  0  0
   10.8975    1.6545   -3.0882 H   0  0  0  0  0  0  0  0  0  0  0  0
   11.1282   -0.1018   -3.2174 H   0  0  0  0  0  0  0  0  0  0  0  0
  1  2  1  0
  1 30  1  0
  1 31  1  0
  1 32  1  0
  2  3  1  0
  2 33  1  0
  2 34  1  0
  3  4  1  0
  3 35  1  0
  3 36  1  0
  4  5  1  0
  4 12  1  0
  5  6  1  0
  5 37  1  0
  5 38  1  0
  6  7  2  0
  6 11  1  0
  7  8  1  0
  7 39  1  0
  8  9  2  0
  8 40  1  0
  9 10  1  0
  9 41  1  0
 10 11  2  0
 10 42  1  0
 11 43  1  0
 12 13  1  0
 12 15  1  0
 12 44  1  1
 13 14  1  0
 13 45  1  0
 13 46  1  0
 14 47  1  0
 14 48  1  0
 14 49  1  0
 15 16  1  0
 15 50  1  0
 15 51  1  0
 16 17  1  0
 16 52  1  0
 16 53  1  0
 17 18  1  1
 17 20  1  0
 17 27  1  0
 18 19  3  0
 20 21  2  0
 20 25  1  0
 21 22  1  0
 21 54  1  0
 22 23  2  0
 22 55  1  0
 23 24  1  0
 23 56  1  0
 24 25  2  0
 24 57  1  0
 25 26  1  0
 27 28  1  0
 27 29  1  0
 27 58  1  6
 28 59  1  0
 28 60  1  0
 28 61  1  0
 29 62  1  0
 29 63  1  0
 29 64  1  0
M  END

