
     RDKit          3D

 35 37  0  0  0  0  0  0  0  0999 V2000
    1.0134    0.2771    0.4549 C   0  0  0  0  0  0  0  0  0  0  0  0
    2.4818    0.1203    0.1427 C   0  0  0  0  0  0  0  0  0  0  0  0
    3.4457    0.9933    0.6646 C   0  0  0  0  0  0  0  0  0  0  0  0
    4.8003    0.8258    0.3751 C   0  0  0  0  0  0  0  0  0  0  0  0
    5.2576   -0.2152   -0.4465 C   0  0  0  0  0  0  0  0  0  0  0  0
    6.7385   -0.3897   -0.7152 C   0  0  2  0  0  0  0  0  0  0  0  0
    7.4117   -1.3917    0.2287 C   0  0  0  0  0  0  0  0  0  0  0  0
    8.8946   -1.5376   -0.1415 C   0  0  1  0  0  0  0  0  0  0  0  0
    9.4078   -2.0736    0.6846 H   0  0  0  0  0  0  0  0  0  0  0  0
    9.0062   -2.2341   -1.4273 N   0  0  0  0  0  0  0  0  0  0  0  0
    9.5192   -0.1608   -0.2458 C   0  0  0  0  0  0  0  0  0  0  0  0
   10.9007    0.0337   -0.1156 C   0  0  0  0  0  0  0  0  0  0  0  0
   11.4869    1.2956   -0.2168 C   0  0  0  0  0  0  0  0  0  0  0  0
   10.6536    2.3954   -0.4500 C   0  0  0  0  0  0  0  0  0  0  0  0
   11.4201    4.1386   -0.5891 Br  0  0  0  0  0  0  0  0  0  0  0  0
    9.2761    2.2480   -0.5805 C   0  0  0  0  0  0  0  0  0  0  0  0
    8.7088    0.9661   -0.4833 C   0  0  0  0  0  0  0  0  0  0  0  0
    7.3591    0.8990   -0.5956 O   0  0  0  0  0  0  0  0  0  0  0  0
    4.2820   -1.0826   -0.9671 C   0  0  0  0  0  0  0  0  0  0  0  0
    4.7695   -2.5409   -2.1171 Br  0  0  0  0  0  0  0  0  0  0  0  0
    2.9247   -0.9239   -0.6829 C   0  0  0  0  0  0  0  0  0  0  0  0
    0.8100    1.2310    0.9632 H   0  0  0  0  0  0  0  0  0  0  0  0
    0.6571   -0.5342    1.1127 H   0  0  0  0  0  0  0  0  0  0  0  0
    0.4010    0.2420   -0.4605 H   0  0  0  0  0  0  0  0  0  0  0  0
    3.1333    1.8223    1.3054 H   0  0  0  0  0  0  0  0  0  0  0  0
    5.5346    1.5247    0.7776 H   0  0  0  0  0  0  0  0  0  0  0  0
    6.8936   -0.7491   -1.7458 H   0  0  0  0  0  0  0  0  0  0  0  0
    6.8999   -2.3626    0.1500 H   0  0  0  0  0  0  0  0  0  0  0  0
    7.3078   -1.0432    1.2696 H   0  0  0  0  0  0  0  0  0  0  0  0
    8.7812   -3.2240   -1.3195 H   0  0  0  0  0  0  0  0  0  0  0  0
    9.9581   -2.1785   -1.7875 H   0  0  0  0  0  0  0  0  0  0  0  0
   11.5383   -0.8333    0.0847 H   0  0  0  0  0  0  0  0  0  0  0  0
   12.5641    1.4264   -0.1101 H   0  0  0  0  0  0  0  0  0  0  0  0
    8.6222    3.1014   -0.7610 H   0  0  0  0  0  0  0  0  0  0  0  0
    2.2049   -1.6214   -1.1163 H   0  0  0  0  0  0  0  0  0  0  0  0
  1  2  1  0
  1 22  1  0
  1 23  1  0
  1 24  1  0
  2  3  2  0
  2 21  1  0
  3  4  1  0
  3 25  1  0
  4  5  2  0
  4 26  1  0
  5  6  1  0
  5 19  1  0
  6  7  1  0
  6 18  1  0
  6 27  1  6
  7  8  1  0
  7 28  1  0
  7 29  1  0
  8  9  1  1
  8 10  1  0
  8 11  1  0
 10 30  1  0
 10 31  1  0
 11 12  2  0
 11 17  1  0
 12 13  1  0
 12 32  1  0
 13 14  2  0
 13 33  1  0
 14 15  1  0
 14 16  1  0
 16 17  2  0
 16 34  1  0
 17 18  1  0
 19 20  1  0
 19 21  2  0
 21 35  1  0
M  END

