
     RDKit          3D

112115  0  0  0  0  0  0  0  0999 V2000
    0.9768    7.5880   -6.3803 C   0  0  0  0  0  0  0  0  0  0  0  0
    1.8345    6.3398   -6.1674 C   0  0  0  0  0  0  0  0  0  0  0  0
    3.1164    6.6040   -5.3714 C   0  0  0  0  0  0  0  0  0  0  0  0
    3.9812    5.3589   -5.1519 C   0  0  0  0  0  0  0  0  0  0  0  0
    5.2628    5.6342   -4.3573 C   0  0  0  0  0  0  0  0  0  0  0  0
    6.1132    4.3940   -4.0391 C   0  0  0  0  0  0  0  0  0  0  0  0
    6.7024    3.6432   -5.2436 C   0  0  0  0  0  0  0  0  0  0  0  0
    7.7474    4.4184   -6.0764 C   0  0  0  0  0  0  0  0  0  0  0  0
    9.0221    4.8008   -5.3435 C   0  0  0  0  0  0  0  0  0  0  0  0
    9.1662    6.1215   -4.8890 C   0  0  0  0  0  0  0  0  0  0  0  0
   10.3034    6.5756   -4.2076 C   0  0  0  0  0  0  0  0  0  0  0  0
   10.3979    8.0090   -3.7089 C   0  0  0  0  0  0  0  0  0  0  0  0
   10.1541    9.0755   -4.7616 C   0  0  0  0  0  0  0  0  0  0  0  0
   10.9711    9.1732   -5.9006 C   0  0  0  0  0  0  0  0  0  0  0  0
   10.7674   10.1570   -6.8647 C   0  0  0  0  0  0  0  0  0  0  0  0
    9.7228   11.0954   -6.7310 C   0  0  0  0  0  0  0  0  0  0  0  0
    9.4841   12.0455   -7.7174 N   0  0  0  0  0  0  0  0  0  0  0  0
    8.9003   11.0027   -5.5934 C   0  0  0  0  0  0  0  0  0  0  0  0
    9.1180   10.0108   -4.6348 C   0  0  0  0  0  0  0  0  0  0  0  0
   11.3413    5.6606   -3.9958 C   0  0  0  0  0  0  0  0  0  0  0  0
   11.2251    4.3458   -4.4484 C   0  0  0  0  0  0  0  0  0  0  0  0
   10.0796    3.8845   -5.1152 C   0  0  0  0  0  0  0  0  0  0  0  0
   10.0411    2.4319   -5.5538 C   0  0  0  0  0  0  0  0  0  0  0  0
    9.8332    1.4363   -4.3947 C   0  0  0  0  0  0  0  0  0  0  0  0
    9.7417   -0.0353   -4.8206 C   0  0  0  0  0  0  0  0  0  0  0  0
   11.0484   -0.6281   -5.3859 C   0  0  0  0  0  0  0  0  0  0  0  0
   10.9394   -2.1029   -5.7239 C   0  0  0  0  0  0  0  0  0  0  0  0
   11.2209   -3.0495   -4.7285 C   0  0  0  0  0  0  0  0  0  0  0  0
   11.0923   -4.4216   -4.9557 C   0  0  0  0  0  0  0  0  0  0  0  0
   10.6656   -4.8962   -6.2010 C   0  0  0  0  0  0  0  0  0  0  0  0
   10.5059   -6.3829   -6.4721 C   0  0  0  0  0  0  0  0  0  0  0  0
   11.3341   -6.9121   -7.6305 C   0  0  0  0  0  0  0  0  0  0  0  0
   12.7320   -6.7709   -7.6494 C   0  0  0  0  0  0  0  0  0  0  0  0
   13.5031   -7.2641   -8.6992 C   0  0  0  0  0  0  0  0  0  0  0  0
   12.9013   -7.9256   -9.7902 C   0  0  0  0  0  0  0  0  0  0  0  0
   13.6721   -8.4617  -10.8153 N   0  0  0  0  0  0  0  0  0  0  0  0
   11.5016   -8.0682   -9.7784 C   0  0  0  0  0  0  0  0  0  0  0  0
   10.7424   -7.5694   -8.7178 C   0  0  0  0  0  0  0  0  0  0  0  0
   10.3832   -3.9500   -7.1970 C   0  0  0  0  0  0  0  0  0  0  0  0
   10.5125   -2.5686   -6.9925 C   0  0  0  0  0  0  0  0  0  0  0  0
   10.2281   -1.6220   -8.1450 C   0  0  0  0  0  0  0  0  0  0  0  0
   11.4694   -1.2139   -8.9693 C   0  0  0  0  0  0  0  0  0  0  0  0
   12.1108   -2.3499   -9.7712 C   0  0  0  0  0  0  0  0  0  0  0  0
   13.3408   -1.9148  -10.5737 C   0  0  0  0  0  0  0  0  0  0  0  0
   13.9741   -3.0453  -11.3904 C   0  0  0  0  0  0  0  0  0  0  0  0
   15.2170   -2.6232  -12.1790 C   0  0  0  0  0  0  0  0  0  0  0  0
   15.8476   -3.7537  -12.9983 C   0  0  0  0  0  0  0  0  0  0  0  0
   17.0897   -3.3258  -13.7813 C   0  0  0  0  0  0  0  0  0  0  0  0
    0.0649    7.3611   -6.9557 H   0  0  0  0  0  0  0  0  0  0  0  0
    1.5317    8.3668   -6.9302 H   0  0  0  0  0  0  0  0  0  0  0  0
    0.6621    8.0271   -5.4185 H   0  0  0  0  0  0  0  0  0  0  0  0
    2.0999    5.9033   -7.1478 H   0  0  0  0  0  0  0  0  0  0  0  0
    1.2384    5.5668   -5.6486 H   0  0  0  0  0  0  0  0  0  0  0  0
    2.8517    7.0426   -4.3908 H   0  0  0  0  0  0  0  0  0  0  0  0
    3.7143    7.3763   -5.8909 H   0  0  0  0  0  0  0  0  0  0  0  0
    4.2320    4.9217   -6.1351 H   0  0  0  0  0  0  0  0  0  0  0  0
    3.3855    4.5892   -4.6257 H   0  0  0  0  0  0  0  0  0  0  0  0
    4.9883    6.1172   -3.4021 H   0  0  0  0  0  0  0  0  0  0  0  0
    5.8696    6.3829   -4.8974 H   0  0  0  0  0  0  0  0  0  0  0  0
    5.4938    3.6843   -3.4611 H   0  0  0  0  0  0  0  0  0  0  0  0
    6.9355    4.6913   -3.3656 H   0  0  0  0  0  0  0  0  0  0  0  0
    5.8893    3.3283   -5.9206 H   0  0  0  0  0  0  0  0  0  0  0  0
    7.1581    2.7082   -4.8780 H   0  0  0  0  0  0  0  0  0  0  0  0
    7.2857    5.3373   -6.4723 H   0  0  0  0  0  0  0  0  0  0  0  0
    7.9962    3.8109   -6.9621 H   0  0  0  0  0  0  0  0  0  0  0  0
    8.3600    6.8330   -5.0903 H   0  0  0  0  0  0  0  0  0  0  0  0
   11.3940    8.1542   -3.2562 H   0  0  0  0  0  0  0  0  0  0  0  0
    9.6721    8.1538   -2.8899 H   0  0  0  0  0  0  0  0  0  0  0  0
   11.7875    8.4581   -6.0387 H   0  0  0  0  0  0  0  0  0  0  0  0
   11.4212   10.2031   -7.7408 H   0  0  0  0  0  0  0  0  0  0  0  0
   10.2684   12.2736   -8.3176 H   0  0  0  0  0  0  0  0  0  0  0  0
    8.9590   12.8641   -7.4322 H   0  0  0  0  0  0  0  0  0  0  0  0
    8.0794   11.7141   -5.4622 H   0  0  0  0  0  0  0  0  0  0  0  0
    8.4621    9.9700   -3.7596 H   0  0  0  0  0  0  0  0  0  0  0  0
   12.2516    5.9788   -3.4789 H   0  0  0  0  0  0  0  0  0  0  0  0
   12.0572    3.6532   -4.2865 H   0  0  0  0  0  0  0  0  0  0  0  0
   10.9927    2.1990   -6.0613 H   0  0  0  0  0  0  0  0  0  0  0  0
    9.2518    2.2719   -6.3044 H   0  0  0  0  0  0  0  0  0  0  0  0
    8.9108    1.7086   -3.8546 H   0  0  0  0  0  0  0  0  0  0  0  0
   10.6516    1.5570   -3.6624 H   0  0  0  0  0  0  0  0  0  0  0  0
    8.9321   -0.1561   -5.5630 H   0  0  0  0  0  0  0  0  0  0  0  0
    9.4371   -0.6408   -3.9499 H   0  0  0  0  0  0  0  0  0  0  0  0
   11.8440   -0.4934   -4.6327 H   0  0  0  0  0  0  0  0  0  0  0  0
   11.3686   -0.0536   -6.2677 H   0  0  0  0  0  0  0  0  0  0  0  0
   11.5544   -2.7007   -3.7460 H   0  0  0  0  0  0  0  0  0  0  0  0
   11.3242   -5.1288   -4.1537 H   0  0  0  0  0  0  0  0  0  0  0  0
    9.4432   -6.6033   -6.6722 H   0  0  0  0  0  0  0  0  0  0  0  0
   10.7602   -6.9351   -5.5509 H   0  0  0  0  0  0  0  0  0  0  0  0
   13.2308   -6.2561   -6.8230 H   0  0  0  0  0  0  0  0  0  0  0  0
   14.5903   -7.1424   -8.6788 H   0  0  0  0  0  0  0  0  0  0  0  0
   14.5920   -8.0552  -10.9419 H   0  0  0  0  0  0  0  0  0  0  0  0
   13.1944   -8.6271  -11.6938 H   0  0  0  0  0  0  0  0  0  0  0  0
   11.0048   -8.5775  -10.6095 H   0  0  0  0  0  0  0  0  0  0  0  0
    9.6558   -7.6982   -8.7405 H   0  0  0  0  0  0  0  0  0  0  0  0
   10.0525   -4.3046   -8.1779 H   0  0  0  0  0  0  0  0  0  0  0  0
    9.7395   -0.7083   -7.7726 H   0  0  0  0  0  0  0  0  0  0  0  0
    9.4994   -2.0971   -8.8236 H   0  0  0  0  0  0  0  0  0  0  0  0
   12.2269   -0.7718   -8.2975 H   0  0  0  0  0  0  0  0  0  0  0  0
   11.1732   -0.4064   -9.6634 H   0  0  0  0  0  0  0  0  0  0  0  0
   11.3586   -2.7774  -10.4605 H   0  0  0  0  0  0  0  0  0  0  0  0
   12.3948   -3.1717   -9.0914 H   0  0  0  0  0  0  0  0  0  0  0  0
   14.0969   -1.4972   -9.8827 H   0  0  0  0  0  0  0  0  0  0  0  0
   13.0657   -1.0847  -11.2513 H   0  0  0  0  0  0  0  0  0  0  0  0
   13.2207   -3.4549  -12.0891 H   0  0  0  0  0  0  0  0  0  0  0  0
   14.2351   -3.8798  -10.7133 H   0  0  0  0  0  0  0  0  0  0  0  0
   15.9720   -2.2156  -11.4808 H   0  0  0  0  0  0  0  0  0  0  0  0
   14.9553   -1.7875  -12.8551 H   0  0  0  0  0  0  0  0  0  0  0  0
   15.0928   -4.1594  -13.6967 H   0  0  0  0  0  0  0  0  0  0  0  0
   16.1078   -4.5887  -12.3217 H   0  0  0  0  0  0  0  0  0  0  0  0
   16.8551   -2.5172  -14.4939 H   0  0  0  0  0  0  0  0  0  0  0  0
   17.5159   -4.1627  -14.3578 H   0  0  0  0  0  0  0  0  0  0  0  0
   17.8785   -2.9503  -13.1079 H   0  0  0  0  0  0  0  0  0  0  0  0
  1  2  1  0
  1 49  1  0
  1 50  1  0
  1 51  1  0
  2  3  1  0
  2 52  1  0
  2 53  1  0
  3  4  1  0
  3 54  1  0
  3 55  1  0
  4  5  1  0
  4 56  1  0
  4 57  1  0
  5  6  1  0
  5 58  1  0
  5 59  1  0
  6  7  1  0
  6 60  1  0
  6 61  1  0
  7  8  1  0
  7 62  1  0
  7 63  1  0
  8  9  1  0
  8 64  1  0
  8 65  1  0
  9 10  2  0
  9 22  1  0
 10 11  1  0
 10 66  1  0
 11 12  1  0
 11 20  2  0
 12 13  1  0
 12 67  1  0
 12 68  1  0
 13 14  2  0
 13 19  1  0
 14 15  1  0
 14 69  1  0
 15 16  2  0
 15 70  1  0
 16 17  1  0
 16 18  1  0
 17 71  1  0
 17 72  1  0
 18 19  2  0
 18 73  1  0
 19 74  1  0
 20 21  1  0
 20 75  1  0
 21 22  2  0
 21 76  1  0
 22 23  1  0
 23 24  1  0
 23 77  1  0
 23 78  1  0
 24 25  1  0
 24 79  1  0
 24 80  1  0
 25 26  1  0
 25 81  1  0
 25 82  1  0
 26 27  1  0
 26 83  1  0
 26 84  1  0
 27 28  2  0
 27 40  1  0
 28 29  1  0
 28 85  1  0
 29 30  2  0
 29 86  1  0
 30 31  1  0
 30 39  1  0
 31 32  1  0
 31 87  1  0
 31 88  1  0
 32 33  2  0
 32 38  1  0
 33 34  1  0
 33 89  1  0
 34 35  2  0
 34 90  1  0
 35 36  1  0
 35 37  1  0
 36 91  1  0
 36 92  1  0
 37 38  2  0
 37 93  1  0
 38 94  1  0
 39 40  2  0
 39 95  1  0
 40 41  1  0
 41 42  1  0
 41 96  1  0
 41 97  1  0
 42 43  1  0
 42 98  1  0
 42 99  1  0
 43 44  1  0
 43100  1  0
 43101  1  0
 44 45  1  0
 44102  1  0
 44103  1  0
 45 46  1  0
 45104  1  0
 45105  1  0
 46 47  1  0
 46106  1  0
 46107  1  0
 47 48  1  0
 47108  1  0
 47109  1  0
 48110  1  0
 48111  1  0
 48112  1  0
M  END

