
     RDKit          3D

 29 29  0  0  0  0  0  0  0  0999 V2000
    2.0305    1.3702   -0.5885 C   0  0  0  0  0  0  0  0  0  0  0  0
    1.9875    0.0013   -0.2315 O   0  0  0  0  0  0  0  0  0  0  0  0
    2.5890   -0.9107   -1.0172 C   0  0  0  0  0  0  0  0  0  0  0  0
    3.3010   -0.6017   -2.1814 C   0  0  0  0  0  0  0  0  0  0  0  0
    3.8706   -1.6221   -2.9424 C   0  0  0  0  0  0  0  0  0  0  0  0
    4.5311   -1.2290   -4.0447 F   0  0  0  0  0  0  0  0  0  0  0  0
    3.7652   -2.9762   -2.5917 C   0  0  0  0  0  0  0  0  0  0  0  0
    4.3243   -4.1550   -3.3249 C   0  0  0  0  0  0  0  0  0  0  0  0
    4.1485   -5.2824   -2.8858 O   0  0  0  0  0  0  0  0  0  0  0  0
    5.0992   -3.9683   -4.5945 C   0  0  0  0  0  0  0  0  0  0  0  0
    5.5889   -5.0325   -5.2488 C   0  0  0  0  0  0  0  0  0  0  0  0
    6.3643   -4.8681   -6.5167 C   0  0  0  0  0  0  0  0  0  0  0  0
    6.6064   -3.8078   -7.0301 O   0  0  0  0  0  0  0  0  0  0  0  0
    6.7970   -6.0205   -7.0788 O   0  0  0  0  0  0  0  0  0  0  0  0
    3.0487   -3.2552   -1.4036 C   0  0  0  0  0  0  0  0  0  0  0  0
    2.4671   -2.2735   -0.6202 C   0  0  0  0  0  0  0  0  0  0  0  0
    1.7322   -2.6244    0.4722 O   0  0  0  0  0  0  0  0  0  0  0  0
    2.2608   -2.2875    1.7476 C   0  0  0  0  0  0  0  0  0  0  0  0
    1.4639    1.9089    0.1817 H   0  0  0  0  0  0  0  0  0  0  0  0
    1.5604    1.5451   -1.5715 H   0  0  0  0  0  0  0  0  0  0  0  0
    3.0659    1.7522   -0.6095 H   0  0  0  0  0  0  0  0  0  0  0  0
    3.4256    0.4213   -2.5328 H   0  0  0  0  0  0  0  0  0  0  0  0
    5.2730   -2.9724   -4.9997 H   0  0  0  0  0  0  0  0  0  0  0  0
    5.4095   -6.0313   -4.8351 H   0  0  0  0  0  0  0  0  0  0  0  0
    6.5219   -6.7823   -6.5495 H   0  0  0  0  0  0  0  0  0  0  0  0
    2.9449   -4.2992   -1.1058 H   0  0  0  0  0  0  0  0  0  0  0  0
    1.5614   -2.6895    2.4936 H   0  0  0  0  0  0  0  0  0  0  0  0
    2.3436   -1.1971    1.8828 H   0  0  0  0  0  0  0  0  0  0  0  0
    3.2525   -2.7502    1.9020 H   0  0  0  0  0  0  0  0  0  0  0  0
  1  2  1  0
  1 19  1  0
  1 20  1  0
  1 21  1  0
  2  3  1  0
  3  4  2  0
  3 16  1  0
  4  5  1  0
  4 22  1  0
  5  6  1  0
  5  7  2  0
  7  8  1  0
  7 15  1  0
  8  9  2  0
  8 10  1  0
 10 11  2  0
 10 23  1  0
 11 12  1  0
 11 24  1  0
 12 13  2  0
 12 14  1  0
 14 25  1  0
 15 16  2  0
 15 26  1  0
 16 17  1  0
 17 18  1  0
 18 27  1  0
 18 28  1  0
 18 29  1  0
M  END

