
     RDKit          3D

 34 35  0  0  0  0  0  0  0  0999 V2000
    2.3991   -0.9855   -0.8848 N   0  0  0  0  0  0  0  0  0  0  0  0
    2.2444   -0.0972    0.1409 C   0  0  0  0  0  0  0  0  0  0  0  0
    1.3888    0.7660    0.1464 O   0  0  0  0  0  0  0  0  0  0  0  0
    3.2094   -0.2834    1.3304 C   0  0  0  0  0  0  0  0  0  0  0  0
    4.6863   -0.2888    0.9872 C   0  0  0  0  0  0  0  0  0  0  0  0
    5.4123    0.9045    1.0792 C   0  0  0  0  0  0  0  0  0  0  0  0
    6.7664    0.9768    0.7403 C   0  0  0  0  0  0  0  0  0  0  0  0
    7.4177   -0.1767    0.3056 C   0  0  0  0  0  0  0  0  0  0  0  0
    6.7244   -1.3865    0.2159 C   0  0  0  0  0  0  0  0  0  0  0  0
    5.3590   -1.4599    0.5446 C   0  0  0  0  0  0  0  0  0  0  0  0
    4.6254   -2.6547    0.4009 N   0  0  0  0  0  0  0  0  0  0  0  0
    5.2960   -3.9099    0.1183 C   0  0  0  0  0  0  0  0  0  0  0  0
    4.3253   -5.0665    0.0001 C   0  0  0  0  0  0  0  0  0  0  0  0
    2.9639   -4.9010   -0.2907 C   0  0  0  0  0  0  0  0  0  0  0  0
    2.1218   -6.0122   -0.4050 C   0  0  0  0  0  0  0  0  0  0  0  0
    0.4287   -5.7692   -0.7666 Cl  0  0  0  0  0  0  0  0  0  0  0  0
    2.6132   -7.3087   -0.2367 C   0  0  0  0  0  0  0  0  0  0  0  0
    3.9682   -7.4887    0.0492 C   0  0  0  0  0  0  0  0  0  0  0  0
    4.7958   -6.3770    0.1605 C   0  0  0  0  0  0  0  0  0  0  0  0
    6.1002   -6.5629    0.4305 F   0  0  0  0  0  0  0  0  0  0  0  0
    1.8354   -0.8455   -1.7157 H   0  0  0  0  0  0  0  0  0  0  0  0
    3.1863   -1.6280   -0.9112 H   0  0  0  0  0  0  0  0  0  0  0  0
    2.9097   -1.2051    1.8633 H   0  0  0  0  0  0  0  0  0  0  0  0
    2.9857    0.5481    2.0101 H   0  0  0  0  0  0  0  0  0  0  0  0
    4.8931    1.8033    1.4237 H   0  0  0  0  0  0  0  0  0  0  0  0
    7.3033    1.9247    0.8188 H   0  0  0  0  0  0  0  0  0  0  0  0
    8.4778   -0.1466    0.0410 H   0  0  0  0  0  0  0  0  0  0  0  0
    7.2582   -2.2786   -0.1120 H   0  0  0  0  0  0  0  0  0  0  0  0
    3.9074   -2.7584    1.1146 H   0  0  0  0  0  0  0  0  0  0  0  0
    6.0638   -4.1628    0.8751 H   0  0  0  0  0  0  0  0  0  0  0  0
    5.8433   -3.8109   -0.8365 H   0  0  0  0  0  0  0  0  0  0  0  0
    2.5506   -3.9022   -0.4337 H   0  0  0  0  0  0  0  0  0  0  0  0
    1.9437   -8.1650   -0.3281 H   0  0  0  0  0  0  0  0  0  0  0  0
    4.3932   -8.4845    0.1884 H   0  0  0  0  0  0  0  0  0  0  0  0
  1  2  1  0
  1 21  1  0
  1 22  1  0
  2  3  2  0
  2  4  1  0
  4  5  1  0
  4 23  1  0
  4 24  1  0
  5  6  2  0
  5 10  1  0
  6  7  1  0
  6 25  1  0
  7  8  2  0
  7 26  1  0
  8  9  1  0
  8 27  1  0
  9 10  2  0
  9 28  1  0
 10 11  1  0
 11 12  1  0
 11 29  1  0
 12 13  1  0
 12 30  1  0
 12 31  1  0
 13 14  2  0
 13 19  1  0
 14 15  1  0
 14 32  1  0
 15 16  1  0
 15 17  2  0
 17 18  1  0
 17 33  1  0
 18 19  2  0
 18 34  1  0
 19 20  1  0
M  END

