
     RDKit          3D

 31 32  0  0  0  0  0  0  0  0999 V2000
    1.0615    0.0279    0.0146 C   0  0  0  0  0  0  0  0  0  0  0  0
    2.5849   -0.1008    0.0796 C   0  0  0  0  0  0  0  0  0  0  0  0
    3.1394   -1.1328   -0.9087 C   0  0  0  0  0  0  0  0  0  0  0  0
    4.6780   -1.2223   -0.9563 C   0  0  1  0  0  0  0  0  0  0  0  0
    5.0495   -0.2168   -1.2440 H   0  0  0  0  0  0  0  0  0  0  0  0
    5.2044   -1.6973    0.3223 N   0  0  0  0  0  0  0  0  0  0  0  0
    5.1027   -2.1480   -2.0912 C   0  0  0  0  0  0  0  0  0  0  0  0
    5.3899   -3.5233   -1.8471 C   0  0  0  0  0  0  0  0  0  0  0  0
    5.7260   -4.3337   -2.9072 C   0  0  0  0  0  0  0  0  0  0  0  0
    5.7799   -3.7910   -4.2189 C   0  0  0  0  0  0  0  0  0  0  0  0
    6.1182   -4.5501   -5.3726 C   0  0  0  0  0  0  0  0  0  0  0  0
    6.1500   -3.9556   -6.6172 C   0  0  0  0  0  0  0  0  0  0  0  0
    5.8460   -2.5766   -6.7590 C   0  0  0  0  0  0  0  0  0  0  0  0
    5.5155   -1.8141   -5.6582 C   0  0  0  0  0  0  0  0  0  0  0  0
    5.4723   -2.3971   -4.3604 C   0  0  0  0  0  0  0  0  0  0  0  0
    5.1451   -1.6150   -3.2963 N   0  0  0  0  0  0  0  0  0  0  0  0
    0.6868    0.7729    0.7347 H   0  0  0  0  0  0  0  0  0  0  0  0
    0.5694   -0.9326    0.2418 H   0  0  0  0  0  0  0  0  0  0  0  0
    0.7299    0.3377   -0.9904 H   0  0  0  0  0  0  0  0  0  0  0  0
    2.8738   -0.3703    1.1116 H   0  0  0  0  0  0  0  0  0  0  0  0
    3.0478    0.8823   -0.1238 H   0  0  0  0  0  0  0  0  0  0  0  0
    2.7949   -0.8810   -1.9254 H   0  0  0  0  0  0  0  0  0  0  0  0
    2.7351   -2.1328   -0.6704 H   0  0  0  0  0  0  0  0  0  0  0  0
    4.8742   -1.1052    1.0826 H   0  0  0  0  0  0  0  0  0  0  0  0
    6.2230   -1.6323    0.3327 H   0  0  0  0  0  0  0  0  0  0  0  0
    5.3378   -3.8943   -0.8230 H   0  0  0  0  0  0  0  0  0  0  0  0
    5.9523   -5.3933   -2.7541 H   0  0  0  0  0  0  0  0  0  0  0  0
    6.3516   -5.6125   -5.2573 H   0  0  0  0  0  0  0  0  0  0  0  0
    6.4098   -4.5453   -7.5000 H   0  0  0  0  0  0  0  0  0  0  0  0
    5.8753   -2.1189   -7.7512 H   0  0  0  0  0  0  0  0  0  0  0  0
    5.2785   -0.7515   -5.7420 H   0  0  0  0  0  0  0  0  0  0  0  0
  1  2  1  0
  1 17  1  0
  1 18  1  0
  1 19  1  0
  2  3  1  0
  2 20  1  0
  2 21  1  0
  3  4  1  0
  3 22  1  0
  3 23  1  0
  4  5  1  6
  4  6  1  0
  4  7  1  0
  6 24  1  0
  6 25  1  0
  7  8  2  0
  7 16  1  0
  8  9  1  0
  8 26  1  0
  9 10  2  0
  9 27  1  0
 10 11  1  0
 10 15  1  0
 11 12  2  0
 11 28  1  0
 12 13  1  0
 12 29  1  0
 13 14  2  0
 13 30  1  0
 14 15  1  0
 14 31  1  0
 15 16  2  0
M  END

