
     RDKit          3D

 39 41  0  0  0  0  0  0  0  0999 V2000
    1.3645    0.9587    0.1137 C   0  0  0  0  0  0  0  0  0  0  0  0
    2.7670    0.6885    0.0405 O   0  0  0  0  0  0  0  0  0  0  0  0
    3.1187   -0.5977   -0.2236 C   0  0  0  0  0  0  0  0  0  0  0  0
    2.3024   -1.4754   -0.3841 O   0  0  0  0  0  0  0  0  0  0  0  0
    4.5733   -0.7999   -0.2706 C   0  0  0  0  0  0  0  0  0  0  0  0
    5.0957   -2.4608   -0.4682 S   0  0  0  0  0  0  0  0  0  0  0  0
    6.7640   -1.9655   -0.4103 C   0  0  0  0  0  0  0  0  0  0  0  0
    7.8693   -2.8283   -0.4774 C   0  0  0  0  0  0  0  0  0  0  0  0
    9.1425   -2.2866   -0.3621 C   0  0  0  0  0  0  0  0  0  0  0  0
    9.3173   -0.8994   -0.1791 C   0  0  0  0  0  0  0  0  0  0  0  0
    8.2290   -0.0409   -0.1225 C   0  0  0  0  0  0  0  0  0  0  0  0
    6.9187   -0.5608   -0.2464 C   0  0  0  0  0  0  0  0  0  0  0  0
    5.6282    0.1015   -0.1815 C   0  0  0  0  0  0  0  0  0  0  0  0
    5.3918    1.4685    0.0168 N   0  0  0  0  0  0  0  0  0  0  0  0
    6.0872    2.5527   -0.4629 C   0  0  0  0  0  0  0  0  0  0  0  0
    7.1361    2.5102   -1.0723 O   0  0  0  0  0  0  0  0  0  0  0  0
    5.3957    3.9056   -0.2328 C   0  0  0  0  0  0  0  0  0  0  0  0
    4.5378    4.0479    1.3833 S   0  0  0  0  0  0  0  0  0  0  0  0
    3.2962    5.2920    1.0642 C   0  0  0  0  0  0  0  0  0  0  0  0
    3.4719    6.3509    0.1588 C   0  0  0  0  0  0  0  0  0  0  0  0
    2.4710    7.3110   -0.0111 C   0  0  0  0  0  0  0  0  0  0  0  0
    1.3057    7.2222    0.7459 C   0  0  0  0  0  0  0  0  0  0  0  0
    0.3482    8.1461    0.5885 F   0  0  0  0  0  0  0  0  0  0  0  0
    1.1147    6.1911    1.6640 C   0  0  0  0  0  0  0  0  0  0  0  0
    2.1085    5.2231    1.8138 C   0  0  0  0  0  0  0  0  0  0  0  0
    1.2747    2.0257    0.3509 H   0  0  0  0  0  0  0  0  0  0  0  0
    0.8916    0.3480    0.8969 H   0  0  0  0  0  0  0  0  0  0  0  0
    0.8756    0.7354   -0.8461 H   0  0  0  0  0  0  0  0  0  0  0  0
    7.7254   -3.9031   -0.6093 H   0  0  0  0  0  0  0  0  0  0  0  0
   10.0154   -2.9425   -0.4102 H   0  0  0  0  0  0  0  0  0  0  0  0
   10.3265   -0.4914   -0.0869 H   0  0  0  0  0  0  0  0  0  0  0  0
    8.3794    1.0301   -0.0133 H   0  0  0  0  0  0  0  0  0  0  0  0
    4.4527    1.6724    0.3597 H   0  0  0  0  0  0  0  0  0  0  0  0
    4.6514    4.0464   -1.0341 H   0  0  0  0  0  0  0  0  0  0  0  0
    6.1768    4.6688   -0.3449 H   0  0  0  0  0  0  0  0  0  0  0  0
    4.3947    6.4444   -0.4160 H   0  0  0  0  0  0  0  0  0  0  0  0
    2.5914    8.1362   -0.7158 H   0  0  0  0  0  0  0  0  0  0  0  0
    0.1884    6.1496    2.2404 H   0  0  0  0  0  0  0  0  0  0  0  0
    1.9601    4.4020    2.5195 H   0  0  0  0  0  0  0  0  0  0  0  0
  1  2  1  0
  1 26  1  0
  1 27  1  0
  1 28  1  0
  2  3  1  0
  3  4  2  0
  3  5  1  0
  5  6  1  0
  5 13  2  0
  6  7  1  0
  7  8  2  0
  7 12  1  0
  8  9  1  0
  8 29  1  0
  9 10  2  0
  9 30  1  0
 10 11  1  0
 10 31  1  0
 11 12  2  0
 11 32  1  0
 12 13  1  0
 13 14  1  0
 14 15  1  0
 14 33  1  0
 15 16  2  0
 15 17  1  0
 17 18  1  0
 17 34  1  0
 17 35  1  0
 18 19  1  0
 19 20  2  0
 19 25  1  0
 20 21  1  0
 20 36  1  0
 21 22  2  0
 21 37  1  0
 22 23  1  0
 22 24  1  0
 24 25  2  0
 24 38  1  0
 25 39  1  0
M  END

