
     RDKit          3D

 39 40  0  0  0  0  0  0  0  0999 V2000
    1.9880    0.1651    1.9159 C   0  0  0  0  0  0  0  0  0  0  0  0
    2.8731    0.0642    0.7032 C   0  0  0  0  0  0  0  0  0  0  0  0
    3.6884    1.1394    0.3073 C   0  0  0  0  0  0  0  0  0  0  0  0
    3.6781    2.6369    1.2128 Cl  0  0  0  0  0  0  0  0  0  0  0  0
    4.5222    1.0358   -0.8097 C   0  0  0  0  0  0  0  0  0  0  0  0
    4.5998   -0.0732   -1.5426 N   0  0  0  0  0  0  0  0  0  0  0  0
    3.8460   -1.1101   -1.1832 C   0  0  0  0  0  0  0  0  0  0  0  0
    2.9587   -1.0941   -0.0951 C   0  0  0  0  0  0  0  0  0  0  0  0
    2.2419   -2.3869    0.2406 C   0  0  0  0  0  0  0  0  0  0  0  0
    2.8959   -3.3334    0.6553 O   0  0  0  0  0  0  0  0  0  0  0  0
    0.8849   -2.4477    0.0424 N   0  0  0  0  0  0  0  0  0  0  0  0
    0.0720   -1.3845   -0.5442 C   0  0  0  0  0  0  0  0  0  0  0  0
   -0.7356   -1.9311   -1.7336 C   0  0  0  0  0  0  0  0  0  0  0  0
   -1.5261   -3.1015   -1.3981 N   0  0  0  0  0  0  0  0  0  0  0  0
   -2.8217   -2.8199   -0.8084 C   0  0  0  0  0  0  0  0  0  0  0  0
   -0.6753   -4.1518   -0.8274 C   0  0  2  0  0  0  0  0  0  0  0  0
   -1.4194   -5.4627   -0.5822 C   0  0  0  0  0  0  0  0  0  0  0  0
    0.1780   -3.6967    0.3942 C   0  0  2  0  0  0  0  0  0  0  0  0
   -0.5532   -3.5503    1.7361 C   0  0  0  0  0  0  0  0  0  0  0  0
    2.5848    0.4215    2.8055 H   0  0  0  0  0  0  0  0  0  0  0  0
    1.4533   -0.7719    2.1131 H   0  0  0  0  0  0  0  0  0  0  0  0
    1.2492    0.9740    1.7943 H   0  0  0  0  0  0  0  0  0  0  0  0
    5.1452    1.8882   -1.1013 H   0  0  0  0  0  0  0  0  0  0  0  0
    3.9392   -2.0209   -1.7852 H   0  0  0  0  0  0  0  0  0  0  0  0
    0.7240   -0.5670   -0.8767 H   0  0  0  0  0  0  0  0  0  0  0  0
   -0.6122   -0.9671    0.2177 H   0  0  0  0  0  0  0  0  0  0  0  0
   -0.0239   -2.1994   -2.5365 H   0  0  0  0  0  0  0  0  0  0  0  0
   -1.3939   -1.1409   -2.1295 H   0  0  0  0  0  0  0  0  0  0  0  0
   -3.3994   -2.1830   -1.4990 H   0  0  0  0  0  0  0  0  0  0  0  0
   -2.8053   -2.3018    0.1751 H   0  0  0  0  0  0  0  0  0  0  0  0
   -3.3942   -3.7489   -0.6770 H   0  0  0  0  0  0  0  0  0  0  0  0
    0.0747   -4.3589   -1.6142 H   0  0  0  0  0  0  0  0  0  0  0  0
   -2.1666   -5.3921    0.2224 H   0  0  0  0  0  0  0  0  0  0  0  0
   -0.7064   -6.2533   -0.3015 H   0  0  0  0  0  0  0  0  0  0  0  0
   -1.9373   -5.7775   -1.5008 H   0  0  0  0  0  0  0  0  0  0  0  0
    0.9726   -4.4433    0.5292 H   0  0  0  0  0  0  0  0  0  0  0  0
   -1.3110   -2.7526    1.7267 H   0  0  0  0  0  0  0  0  0  0  0  0
    0.1752   -3.3196    2.5291 H   0  0  0  0  0  0  0  0  0  0  0  0
   -1.0579   -4.4867    2.0172 H   0  0  0  0  0  0  0  0  0  0  0  0
  1  2  1  0
  1 20  1  0
  1 21  1  0
  1 22  1  0
  2  3  2  0
  2  8  1  0
  3  4  1  0
  3  5  1  0
  5  6  2  0
  5 23  1  0
  6  7  1  0
  7  8  2  0
  7 24  1  0
  8  9  1  0
  9 10  2  0
  9 11  1  0
 11 12  1  0
 11 18  1  0
 12 13  1  0
 12 25  1  0
 12 26  1  0
 13 14  1  0
 13 27  1  0
 13 28  1  0
 14 15  1  0
 14 16  1  0
 15 29  1  0
 15 30  1  0
 15 31  1  0
 16 17  1  0
 16 18  1  0
 16 32  1  6
 17 33  1  0
 17 34  1  0
 17 35  1  0
 18 19  1  0
 18 36  1  1
 19 37  1  0
 19 38  1  0
 19 39  1  0
M  END

