
     RDKit          3D

 75 78  0  0  0  0  0  0  0  0999 V2000
    1.1956    0.6515   -2.0941 C   0  0  0  0  0  0  0  0  0  0  0  0
    2.4819    0.3010   -2.0132 C   0  0  0  0  0  0  0  0  0  0  0  0
    3.5752    1.1260   -1.3918 C   0  0  0  0  0  0  0  0  0  0  0  0
    4.2763    0.4140   -0.2244 C   0  0  0  0  0  0  0  0  0  0  0  0
    5.4099    1.2374    0.3679 C   0  0  0  0  0  0  0  0  0  0  0  0
    5.9903    0.4934    1.4257 O   0  0  0  0  0  0  0  0  0  0  0  0
    7.0274    1.0149    2.1256 C   0  0  0  0  0  0  0  0  0  0  0  0
    7.6066    2.2689    1.8894 C   0  0  0  0  0  0  0  0  0  0  0  0
    8.6807    2.6991    2.6807 C   0  0  0  0  0  0  0  0  0  0  0  0
    9.2256    1.9265    3.7134 C   0  0  0  0  0  0  0  0  0  0  0  0
   10.3728    2.3449    4.6302 C   0  0  1  0  0  0  0  0  0  0  0  0
   11.6303    1.4483    4.4678 C   0  0  0  0  0  0  0  0  0  0  0  0
   12.4610    1.7943    3.2278 C   0  0  0  0  0  0  0  0  0  0  0  0
   12.9248    3.2716    3.2077 C   0  0  2  0  0  0  0  0  0  0  0  0
   13.9786    3.5626    4.2460 C   0  0  0  0  0  0  0  0  0  0  0  0
   15.2279    3.9672    3.9546 C   0  0  0  0  0  0  0  0  0  0  0  0
   16.3051    4.2669    4.9089 C   0  0  0  0  0  0  0  0  0  0  0  0
   16.2222    4.0780    6.3021 C   0  0  0  0  0  0  0  0  0  0  0  0
   17.2804    4.3898    7.1529 C   0  0  0  0  0  0  0  0  0  0  0  0
   18.4955    4.9153    6.6760 C   0  0  0  0  0  0  0  0  0  0  0  0
   19.7114    5.2607    7.5316 C   0  0  1  0  0  0  0  0  0  0  0  0
   20.0411    6.7789    7.5175 C   0  0  0  0  0  0  0  0  0  0  0  0
   19.1307    7.5991    8.4383 C   0  0  0  0  0  0  0  0  0  0  0  0
   19.1696    7.1152    9.9021 C   0  0  2  0  0  0  0  0  0  0  0  0
   20.4954    7.4426   10.6052 C   0  0  0  0  0  0  0  0  0  0  0  0
   18.8212    5.6130    9.9502 C   0  0  0  0  0  0  0  0  0  0  0  0
   19.6639    4.7529    8.9901 C   0  0  0  0  0  0  0  0  0  0  0  0
   18.5813    5.0804    5.2880 C   0  0  0  0  0  0  0  0  0  0  0  0
   19.7176    5.5370    4.7341 F   0  0  0  0  0  0  0  0  0  0  0  0
   17.5242    4.7728    4.4310 C   0  0  0  0  0  0  0  0  0  0  0  0
   17.7049    4.9693    3.1166 F   0  0  0  0  0  0  0  0  0  0  0  0
   11.6848    4.1891    3.3477 C   0  0  0  0  0  0  0  0  0  0  0  0
   10.7830    3.8318    4.5427 C   0  0  0  0  0  0  0  0  0  0  0  0
    8.5961    0.6846    3.9210 C   0  0  0  0  0  0  0  0  0  0  0  0
    9.0370   -0.0987    4.9272 F   0  0  0  0  0  0  0  0  0  0  0  0
    7.5339    0.2169    3.1652 C   0  0  0  0  0  0  0  0  0  0  0  0
    0.4524   -0.0017   -2.5597 H   0  0  0  0  0  0  0  0  0  0  0  0
    0.8356    1.6081   -1.6998 H   0  0  0  0  0  0  0  0  0  0  0  0
    2.7928   -0.6706   -2.4208 H   0  0  0  0  0  0  0  0  0  0  0  0
    3.1621    2.0919   -1.0521 H   0  0  0  0  0  0  0  0  0  0  0  0
    4.3293    1.3642   -2.1667 H   0  0  0  0  0  0  0  0  0  0  0  0
    4.6846   -0.5549   -0.5594 H   0  0  0  0  0  0  0  0  0  0  0  0
    3.5472    0.1872    0.5709 H   0  0  0  0  0  0  0  0  0  0  0  0
    5.0302    2.2060    0.7465 H   0  0  0  0  0  0  0  0  0  0  0  0
    6.1717    1.4614   -0.4037 H   0  0  0  0  0  0  0  0  0  0  0  0
    7.2356    2.9223    1.1006 H   0  0  0  0  0  0  0  0  0  0  0  0
    9.0940    3.6867    2.4756 H   0  0  0  0  0  0  0  0  0  0  0  0
   10.0011    2.1727    5.6551 H   0  0  0  0  0  0  0  0  0  0  0  0
   11.3341    0.3899    4.4439 H   0  0  0  0  0  0  0  0  0  0  0  0
   12.2519    1.5645    5.3728 H   0  0  0  0  0  0  0  0  0  0  0  0
   11.8570    1.6092    2.3216 H   0  0  0  0  0  0  0  0  0  0  0  0
   13.3360    1.1270    3.1620 H   0  0  0  0  0  0  0  0  0  0  0  0
   13.3799    3.4715    2.2230 H   0  0  0  0  0  0  0  0  0  0  0  0
   13.6895    3.4370    5.2956 H   0  0  0  0  0  0  0  0  0  0  0  0
   15.4963    4.1013    2.9021 H   0  0  0  0  0  0  0  0  0  0  0  0
   15.3058    3.6678    6.7301 H   0  0  0  0  0  0  0  0  0  0  0  0
   17.1575    4.2069    8.2197 H   0  0  0  0  0  0  0  0  0  0  0  0
   20.5600    4.7552    7.0390 H   0  0  0  0  0  0  0  0  0  0  0  0
   19.9929    7.1638    6.4886 H   0  0  0  0  0  0  0  0  0  0  0  0
   21.0914    6.8985    7.8344 H   0  0  0  0  0  0  0  0  0  0  0  0
   18.0912    7.5365    8.0695 H   0  0  0  0  0  0  0  0  0  0  0  0
   19.4118    8.6650    8.3848 H   0  0  0  0  0  0  0  0  0  0  0  0
   18.3774    7.6537   10.4523 H   0  0  0  0  0  0  0  0  0  0  0  0
   21.3587    6.9356   10.1456 H   0  0  0  0  0  0  0  0  0  0  0  0
   20.4637    7.1374   11.6639 H   0  0  0  0  0  0  0  0  0  0  0  0
   20.6995    8.5256   10.5770 H   0  0  0  0  0  0  0  0  0  0  0  0
   17.7504    5.5048    9.7122 H   0  0  0  0  0  0  0  0  0  0  0  0
   18.9416    5.2304   10.9786 H   0  0  0  0  0  0  0  0  0  0  0  0
   19.3187    3.7060    9.0194 H   0  0  0  0  0  0  0  0  0  0  0  0
   20.7036    4.7297    9.3583 H   0  0  0  0  0  0  0  0  0  0  0  0
   11.1153    4.1175    2.4067 H   0  0  0  0  0  0  0  0  0  0  0  0
   12.0063    5.2406    3.4318 H   0  0  0  0  0  0  0  0  0  0  0  0
    9.8878    4.4755    4.5416 H   0  0  0  0  0  0  0  0  0  0  0  0
   11.3199    4.0789    5.4746 H   0  0  0  0  0  0  0  0  0  0  0  0
    7.0901   -0.7558    3.3797 H   0  0  0  0  0  0  0  0  0  0  0  0
  1  2  2  0
  1 37  1  0
  1 38  1  0
  2  3  1  0
  2 39  1  0
  3  4  1  0
  3 40  1  0
  3 41  1  0
  4  5  1  0
  4 42  1  0
  4 43  1  0
  5  6  1  0
  5 44  1  0
  5 45  1  0
  6  7  1  0
  7  8  2  0
  7 36  1  0
  8  9  1  0
  8 46  1  0
  9 10  2  0
  9 47  1  0
 10 11  1  0
 10 34  1  0
 11 12  1  0
 11 33  1  0
 11 48  1  1
 12 13  1  0
 12 49  1  0
 12 50  1  0
 13 14  1  0
 13 51  1  0
 13 52  1  0
 14 15  1  0
 14 32  1  0
 14 53  1  6
 15 16  2  0
 15 54  1  0
 16 17  1  0
 16 55  1  0
 17 18  2  0
 17 30  1  0
 18 19  1  0
 18 56  1  0
 19 20  2  0
 19 57  1  0
 20 21  1  0
 20 28  1  0
 21 22  1  0
 21 27  1  0
 21 58  1  6
 22 23  1  0
 22 59  1  0
 22 60  1  0
 23 24  1  0
 23 61  1  0
 23 62  1  0
 24 25  1  0
 24 26  1  0
 24 63  1  1
 25 64  1  0
 25 65  1  0
 25 66  1  0
 26 27  1  0
 26 67  1  0
 26 68  1  0
 27 69  1  0
 27 70  1  0
 28 29  1  0
 28 30  2  0
 30 31  1  0
 32 33  1  0
 32 71  1  0
 32 72  1  0
 33 73  1  0
 33 74  1  0
 34 35  1  0
 34 36  2  0
 36 75  1  0
M  END

