
     RDKit          3D

 34 36  0  0  0  0  0  0  0  0999 V2000
    1.1424    0.0700   -0.1342 N   0  0  0  0  0  0  0  0  0  0  0  0
    2.4307   -0.1256    0.3365 C   0  0  0  0  0  0  0  0  0  0  0  0
    2.9799    0.7253    1.3138 C   0  0  0  0  0  0  0  0  0  0  0  0
    4.2614    0.4799    1.8104 C   0  0  0  0  0  0  0  0  0  0  0  0
    5.0227   -0.5963    1.3589 C   0  0  0  0  0  0  0  0  0  0  0  0
    4.4773   -1.4455    0.3837 C   0  0  0  0  0  0  0  0  0  0  0  0
    5.2739   -2.4817   -0.0198 O   0  0  0  0  0  0  0  0  0  0  0  0
    4.8022   -3.3934   -0.9866 C   0  0  0  0  0  0  0  0  0  0  0  0
    5.8781   -4.4088   -1.2127 C   0  0  0  0  0  0  0  0  0  0  0  0
    5.8453   -5.4200   -2.0559 N   0  0  0  0  0  0  0  0  0  0  0  0
    7.0584   -6.0291   -1.8683 C   0  0  0  0  0  0  0  0  0  0  0  0
    7.4797   -7.2282   -2.6090 C   0  0  0  0  0  0  0  0  0  0  0  0
    6.6213   -7.8065   -3.5592 C   0  0  0  0  0  0  0  0  0  0  0  0
    7.0073   -8.9439   -4.2691 C   0  0  0  0  0  0  0  0  0  0  0  0
    8.2606   -9.4998   -4.0212 C   0  0  0  0  0  0  0  0  0  0  0  0
    8.6377  -10.5939   -4.7008 F   0  0  0  0  0  0  0  0  0  0  0  0
    9.1339   -8.9481   -3.0844 C   0  0  0  0  0  0  0  0  0  0  0  0
    8.7386   -7.8116   -2.3804 C   0  0  0  0  0  0  0  0  0  0  0  0
    7.8220   -5.4357   -0.9542 N   0  0  0  0  0  0  0  0  0  0  0  0
    7.0542   -4.4085   -0.5489 N   0  0  0  0  0  0  0  0  0  0  0  0
    7.3622   -3.7510    0.1584 H   0  0  0  0  0  0  0  0  0  0  0  0
    3.1956   -1.2186   -0.1275 C   0  0  0  0  0  0  0  0  0  0  0  0
    0.7452    0.9925   -0.0028 H   0  0  0  0  0  0  0  0  0  0  0  0
    0.9092   -0.3447   -1.0284 H   0  0  0  0  0  0  0  0  0  0  0  0
    2.3978    1.5734    1.6831 H   0  0  0  0  0  0  0  0  0  0  0  0
    4.6769    1.1487    2.5688 H   0  0  0  0  0  0  0  0  0  0  0  0
    6.0254   -0.7944    1.7402 H   0  0  0  0  0  0  0  0  0  0  0  0
    4.5670   -2.8885   -1.9423 H   0  0  0  0  0  0  0  0  0  0  0  0
    3.8797   -3.9019   -0.6483 H   0  0  0  0  0  0  0  0  0  0  0  0
    5.6456   -7.3498   -3.7327 H   0  0  0  0  0  0  0  0  0  0  0  0
    6.3532   -9.4064   -5.0108 H   0  0  0  0  0  0  0  0  0  0  0  0
   10.1072   -9.4145   -2.9202 H   0  0  0  0  0  0  0  0  0  0  0  0
    9.4053   -7.3623   -1.6423 H   0  0  0  0  0  0  0  0  0  0  0  0
    2.7638   -1.8782   -0.8809 H   0  0  0  0  0  0  0  0  0  0  0  0
  1  2  1  0
  1 23  1  0
  1 24  1  0
  2  3  2  0
  2 22  1  0
  3  4  1  0
  3 25  1  0
  4  5  2  0
  4 26  1  0
  5  6  1  0
  5 27  1  0
  6  7  1  0
  6 22  2  0
  7  8  1  0
  8  9  1  0
  8 28  1  0
  8 29  1  0
  9 10  2  0
  9 20  1  0
 10 11  1  0
 11 12  1  0
 11 19  2  0
 12 13  2  0
 12 18  1  0
 13 14  1  0
 13 30  1  0
 14 15  2  0
 14 31  1  0
 15 16  1  0
 15 17  1  0
 17 18  2  0
 17 32  1  0
 18 33  1  0
 19 20  1  0
 20 21  1  0
 22 34  1  0
M  END

