
     RDKit          3D

 40 42  0  0  0  0  0  0  0  0999 V2000
    1.9863   -0.2383    2.0059 C   0  0  0  0  0  0  0  0  0  0  0  0
    2.8171   -0.1591    0.7565 C   0  0  0  0  0  0  0  0  0  0  0  0
    3.6640    0.8823    0.4260 C   0  0  0  0  0  0  0  0  0  0  0  0
    4.3040    0.5732   -0.7538 N   0  0  0  0  0  0  0  0  0  0  0  0
    4.9781    1.1652   -1.2217 H   0  0  0  0  0  0  0  0  0  0  0  0
    3.9055   -0.6518   -1.1891 C   0  0  0  0  0  0  0  0  0  0  0  0
    2.9654   -1.1437   -0.2911 C   0  0  0  0  0  0  0  0  0  0  0  0
    2.4074   -2.5133   -0.4343 C   0  0  0  0  0  0  0  0  0  0  0  0
    3.0768   -3.4149   -0.9226 O   0  0  0  0  0  0  0  0  0  0  0  0
    1.1050   -2.7256    0.0333 N   0  0  0  0  0  0  0  0  0  0  0  0
    0.0740   -1.7503   -0.3317 C   0  0  0  0  0  0  0  0  0  0  0  0
   -0.4512   -1.9922   -1.7543 C   0  0  0  0  0  0  0  0  0  0  0  0
   -1.1496   -3.6617   -1.9218 S   0  0  1  0  0  0  0  0  0  0  0  0
   -2.3124   -3.7189   -1.0123 O   0  0  0  0  0  0  0  0  0  0  0  0
   -1.3019   -3.9811   -3.3484 O   0  0  0  0  0  0  0  0  0  0  0  0
    0.1709   -4.7095   -1.1960 C   0  0  2  0  0  0  0  0  0  0  0  0
   -0.3758   -6.1386   -1.0791 C   0  0  0  0  0  0  0  0  0  0  0  0
    0.5858   -7.0416   -0.2981 C   0  0  0  0  0  0  0  0  0  0  0  0
    0.9056   -6.4460    1.0778 C   0  0  0  0  0  0  0  0  0  0  0  0
    1.5216   -5.0483    0.9446 C   0  0  0  0  0  0  0  0  0  0  0  0
    0.5906   -4.1038    0.1649 C   0  0  1  0  0  0  0  0  0  0  0  0
    2.3431    0.4828    2.7567 H   0  0  0  0  0  0  0  0  0  0  0  0
    2.0263   -1.2432    2.4529 H   0  0  0  0  0  0  0  0  0  0  0  0
    0.9212   -0.0154    1.8234 H   0  0  0  0  0  0  0  0  0  0  0  0
    3.8736    1.8084    0.9575 H   0  0  0  0  0  0  0  0  0  0  0  0
    4.3017   -1.1108   -2.0915 H   0  0  0  0  0  0  0  0  0  0  0  0
    0.4868   -0.7358   -0.2815 H   0  0  0  0  0  0  0  0  0  0  0  0
   -0.7608   -1.8147    0.3829 H   0  0  0  0  0  0  0  0  0  0  0  0
    0.3394   -1.8968   -2.5134 H   0  0  0  0  0  0  0  0  0  0  0  0
   -1.2874   -1.3245   -2.0131 H   0  0  0  0  0  0  0  0  0  0  0  0
    1.0135   -4.6566   -1.9023 H   0  0  0  0  0  0  0  0  0  0  0  0
   -0.5700   -6.5358   -2.0873 H   0  0  0  0  0  0  0  0  0  0  0  0
   -1.3478   -6.0979   -0.5590 H   0  0  0  0  0  0  0  0  0  0  0  0
    1.5227   -7.1709   -0.8688 H   0  0  0  0  0  0  0  0  0  0  0  0
    0.1403   -8.0445   -0.1925 H   0  0  0  0  0  0  0  0  0  0  0  0
    1.5997   -7.1019    1.6282 H   0  0  0  0  0  0  0  0  0  0  0  0
   -0.0214   -6.3974    1.6785 H   0  0  0  0  0  0  0  0  0  0  0  0
    2.4881   -5.1198    0.4292 H   0  0  0  0  0  0  0  0  0  0  0  0
    1.7102   -4.6061    1.9369 H   0  0  0  0  0  0  0  0  0  0  0  0
   -0.3350   -4.0099    0.7588 H   0  0  0  0  0  0  0  0  0  0  0  0
  1  2  1  0
  1 22  1  0
  1 23  1  0
  1 24  1  0
  2  3  2  0
  2  7  1  0
  3  4  1  0
  3 25  1  0
  4  5  1  0
  4  6  1  0
  6  7  2  0
  6 26  1  0
  7  8  1  0
  8  9  2  0
  8 10  1  0
 10 11  1  0
 10 21  1  0
 11 12  1  0
 11 27  1  0
 11 28  1  0
 13 12  1  6
 12 29  1  0
 12 30  1  0
 13 14  2  0
 13 15  2  0
 13 16  1  0
 16 17  1  0
 16 21  1  0
 16 31  1  6
 17 18  1  0
 17 32  1  0
 17 33  1  0
 18 19  1  0
 18 34  1  0
 18 35  1  0
 19 20  1  0
 19 36  1  0
 19 37  1  0
 20 21  1  0
 20 38  1  0
 20 39  1  0
 21 40  1  1
M  END

