
     RDKit          3D

 56 58  0  0  0  0  0  0  0  0999 V2000
   -0.3394  -11.1735    5.7899 C   0  0  0  0  0  0  0  0  0  0  0  0
   -1.2039  -10.1356    5.0626 C   0  0  0  0  0  0  0  0  0  0  0  0
   -0.4490   -8.8842    4.7025 C   0  0  0  0  0  0  0  0  0  0  0  0
   -0.7193   -7.6145    5.1466 C   0  0  0  0  0  0  0  0  0  0  0  0
    0.4185   -6.4878    4.4864 S   0  0  0  0  0  0  0  0  0  0  0  0
    1.2067   -7.8221    3.6452 C   0  0  0  0  0  0  0  0  0  0  0  0
    2.4031   -7.6596    2.7383 C   0  0  1  0  0  0  0  0  0  0  0  0
    2.0130   -7.2823    1.2878 C   0  0  0  0  0  0  0  0  0  0  0  0
    1.6229   -5.8067    1.1611 C   0  0  0  0  0  0  0  0  0  0  0  0
    2.6950   -4.8976    1.7691 C   0  0  0  0  0  0  0  0  0  0  0  0
    3.0024   -5.2931    3.1437 N   0  0  0  0  0  0  0  0  0  0  0  0
    3.4301   -4.3991    4.1315 C   0  0  0  0  0  0  0  0  0  0  0  0
    4.1496   -4.7568    5.0551 O   0  0  0  0  0  0  0  0  0  0  0  0
    2.9749   -3.1059    4.0097 N   0  0  0  0  0  0  0  0  0  0  0  0
    3.3392   -2.0637    4.9680 C   0  0  1  0  0  0  0  0  0  0  0  0
    4.0340   -0.8927    4.2381 C   0  0  0  0  0  0  0  0  0  0  0  0
    3.1578   -0.0882    3.2748 C   0  0  0  0  0  0  0  0  0  0  0  0
    2.1167   -1.6540    5.8384 C   0  0  1  0  0  0  0  0  0  0  0  0
    1.5015   -2.8451    6.6078 C   0  0  0  0  0  0  0  0  0  0  0  0
    2.3561   -3.2590    7.8078 C   0  0  0  0  0  0  0  0  0  0  0  0
    2.5892   -2.1700    8.6865 O   0  0  0  0  0  0  0  0  0  0  0  0
    3.2433   -1.0911    8.0541 C   0  0  0  0  0  0  0  0  0  0  0  0
    2.4334   -0.5500    6.8720 C   0  0  0  0  0  0  0  0  0  0  0  0
    3.4599   -6.6745    3.2659 C   0  0  0  0  0  0  0  0  0  0  0  0
    0.6381   -8.9729    3.8603 N   0  0  0  0  0  0  0  0  0  0  0  0
   -0.9091  -12.0964    5.9832 H   0  0  0  0  0  0  0  0  0  0  0  0
    0.0203  -10.7853    6.7564 H   0  0  0  0  0  0  0  0  0  0  0  0
    0.5412  -11.4317    5.1824 H   0  0  0  0  0  0  0  0  0  0  0  0
   -2.0784   -9.8657    5.6762 H   0  0  0  0  0  0  0  0  0  0  0  0
   -1.5969  -10.5820    4.1318 H   0  0  0  0  0  0  0  0  0  0  0  0
   -1.5108   -7.2916    5.8208 H   0  0  0  0  0  0  0  0  0  0  0  0
    2.8566   -8.6626    2.7160 H   0  0  0  0  0  0  0  0  0  0  0  0
    1.2017   -7.9376    0.9341 H   0  0  0  0  0  0  0  0  0  0  0  0
    2.8881   -7.4814    0.6433 H   0  0  0  0  0  0  0  0  0  0  0  0
    0.6633   -5.6236    1.6725 H   0  0  0  0  0  0  0  0  0  0  0  0
    1.4785   -5.5397    0.1011 H   0  0  0  0  0  0  0  0  0  0  0  0
    2.3685   -3.8509    1.7316 H   0  0  0  0  0  0  0  0  0  0  0  0
    3.6185   -4.9553    1.1540 H   0  0  0  0  0  0  0  0  0  0  0  0
    2.1921   -2.9219    3.3961 H   0  0  0  0  0  0  0  0  0  0  0  0
    4.0934   -2.5366    5.6109 H   0  0  0  0  0  0  0  0  0  0  0  0
    4.8848   -1.3220    3.6833 H   0  0  0  0  0  0  0  0  0  0  0  0
    4.4775   -0.2135    4.9845 H   0  0  0  0  0  0  0  0  0  0  0  0
    2.7056   -0.7314    2.5010 H   0  0  0  0  0  0  0  0  0  0  0  0
    3.7533    0.6741    2.7480 H   0  0  0  0  0  0  0  0  0  0  0  0
    2.3392    0.4376    3.7919 H   0  0  0  0  0  0  0  0  0  0  0  0
    1.3460   -1.2629    5.1486 H   0  0  0  0  0  0  0  0  0  0  0  0
    1.3477   -3.7119    5.9472 H   0  0  0  0  0  0  0  0  0  0  0  0
    0.5065   -2.5430    6.9779 H   0  0  0  0  0  0  0  0  0  0  0  0
    3.3142   -3.6955    7.4631 H   0  0  0  0  0  0  0  0  0  0  0  0
    1.8399   -4.0300    8.4004 H   0  0  0  0  0  0  0  0  0  0  0  0
    4.2584   -1.3975    7.7220 H   0  0  0  0  0  0  0  0  0  0  0  0
    3.3752   -0.3107    8.8202 H   0  0  0  0  0  0  0  0  0  0  0  0
    2.9578    0.3053    6.4175 H   0  0  0  0  0  0  0  0  0  0  0  0
    1.4792   -0.1601    7.2658 H   0  0  0  0  0  0  0  0  0  0  0  0
    3.7029   -6.8603    4.3181 H   0  0  0  0  0  0  0  0  0  0  0  0
    4.3941   -6.8199    2.6855 H   0  0  0  0  0  0  0  0  0  0  0  0
  1  2  1  0
  1 26  1  0
  1 27  1  0
  1 28  1  0
  2  3  1  0
  2 29  1  0
  2 30  1  0
  3  4  2  0
  3 25  1  0
  4  5  1  0
  4 31  1  0
  5  6  1  0
  6  7  1  0
  6 25  2  0
  7  8  1  0
  7 24  1  0
  7 32  1  6
  8  9  1  0
  8 33  1  0
  8 34  1  0
  9 10  1  0
  9 35  1  0
  9 36  1  0
 10 11  1  0
 10 37  1  0
 10 38  1  0
 11 12  1  0
 11 24  1  0
 12 13  2  0
 12 14  1  0
 14 15  1  0
 14 39  1  0
 15 16  1  0
 15 18  1  0
 15 40  1  1
 16 17  1  0
 16 41  1  0
 16 42  1  0
 17 43  1  0
 17 44  1  0
 17 45  1  0
 18 19  1  0
 18 23  1  0
 18 46  1  6
 19 20  1  0
 19 47  1  0
 19 48  1  0
 20 21  1  0
 20 49  1  0
 20 50  1  0
 21 22  1  0
 22 23  1  0
 22 51  1  0
 22 52  1  0
 23 53  1  0
 23 54  1  0
 24 55  1  0
 24 56  1  0
M  END

