
     RDKit          3D

 50 53  0  0  0  0  0  0  0  0999 V2000
    1.2654   -2.1763    4.4507 C   0  0  0  0  0  0  0  0  0  0  0  0
    1.7809   -2.4410    3.1618 O   0  0  0  0  0  0  0  0  0  0  0  0
    2.0666   -1.3974    2.3214 C   0  0  0  0  0  0  0  0  0  0  0  0
    1.8369   -0.0601    2.6695 C   0  0  0  0  0  0  0  0  0  0  0  0
    2.1405    0.9647    1.7655 C   0  0  0  0  0  0  0  0  0  0  0  0
    2.6718    0.6597    0.5149 C   0  0  0  0  0  0  0  0  0  0  0  0
    2.8973   -0.6792    0.1778 C   0  0  0  0  0  0  0  0  0  0  0  0
    2.6135   -1.7315    1.0573 C   0  0  0  0  0  0  0  0  0  0  0  0
    2.9026   -3.1585    0.6208 C   0  0  1  0  0  0  0  0  0  0  0  0
    4.0008   -3.9006    1.4328 C   0  0  0  0  0  0  0  0  0  0  0  0
    3.3880   -5.3029    1.6349 C   0  0  2  0  0  0  0  0  0  0  0  0
    3.7499   -6.2335    0.4531 C   0  0  0  0  0  0  0  0  0  0  0  0
    4.6708   -5.9494   -0.2979 O   0  0  0  0  0  0  0  0  0  0  0  0
    3.0640   -7.4039    0.2911 N   0  0  0  0  0  0  0  0  0  0  0  0
    1.9430   -7.9750    1.0163 C   0  0  0  0  0  0  0  0  0  0  0  0
    0.7026   -8.1401    0.1568 C   0  0  0  0  0  0  0  0  0  0  0  0
    0.2202   -7.0823   -0.6293 C   0  0  0  0  0  0  0  0  0  0  0  0
   -0.9416   -7.2892   -1.3783 C   0  0  0  0  0  0  0  0  0  0  0  0
   -1.6265   -8.4322   -1.3951 N   0  0  0  0  0  0  0  0  0  0  0  0
   -1.1702   -9.4487   -0.6459 C   0  0  0  0  0  0  0  0  0  0  0  0
   -1.9459  -10.6861   -0.6945 C   0  0  0  0  0  0  0  0  0  0  0  0
   -3.0872  -11.0298   -1.3779 C   0  0  0  0  0  0  0  0  0  0  0  0
   -3.3755  -12.3847   -1.0239 C   0  0  0  0  0  0  0  0  0  0  0  0
   -2.3909  -12.7663   -0.1542 C   0  0  0  0  0  0  0  0  0  0  0  0
   -1.5220  -11.7470    0.0521 O   0  0  0  0  0  0  0  0  0  0  0  0
   -0.0076   -9.3421    0.1418 C   0  0  0  0  0  0  0  0  0  0  0  0
    1.9505   -5.0459    1.7439 N   0  0  0  0  0  0  0  0  0  0  0  0
    1.7495   -4.1098    0.6740 N   0  0  0  0  0  0  0  0  0  0  0  0
    1.1303   -3.1504    4.9401 H   0  0  0  0  0  0  0  0  0  0  0  0
    0.2894   -1.6623    4.4044 H   0  0  0  0  0  0  0  0  0  0  0  0
    1.9623   -1.5672    5.0525 H   0  0  0  0  0  0  0  0  0  0  0  0
    1.4191    0.1963    3.6427 H   0  0  0  0  0  0  0  0  0  0  0  0
    1.9530    2.0029    2.0508 H   0  0  0  0  0  0  0  0  0  0  0  0
    2.9087    1.4528   -0.1978 H   0  0  0  0  0  0  0  0  0  0  0  0
    3.3123   -0.9254   -0.8036 H   0  0  0  0  0  0  0  0  0  0  0  0
    3.2201   -3.1040   -0.4319 H   0  0  0  0  0  0  0  0  0  0  0  0
    4.1532   -3.4231    2.4102 H   0  0  0  0  0  0  0  0  0  0  0  0
    4.9538   -3.9411    0.8940 H   0  0  0  0  0  0  0  0  0  0  0  0
    3.7388   -5.7824    2.5646 H   0  0  0  0  0  0  0  0  0  0  0  0
    3.3915   -7.9219   -0.5209 H   0  0  0  0  0  0  0  0  0  0  0  0
    1.6958   -7.3003    1.8453 H   0  0  0  0  0  0  0  0  0  0  0  0
    2.2269   -8.9555    1.4379 H   0  0  0  0  0  0  0  0  0  0  0  0
    0.7369   -6.1190   -0.6483 H   0  0  0  0  0  0  0  0  0  0  0  0
   -1.3400   -6.4780   -2.0001 H   0  0  0  0  0  0  0  0  0  0  0  0
   -3.6349  -10.3725   -2.0475 H   0  0  0  0  0  0  0  0  0  0  0  0
   -4.2051  -12.9977   -1.3699 H   0  0  0  0  0  0  0  0  0  0  0  0
   -2.1818  -13.6900    0.3793 H   0  0  0  0  0  0  0  0  0  0  0  0
    0.3266  -10.1999    0.7290 H   0  0  0  0  0  0  0  0  0  0  0  0
    1.8218   -4.5501    2.6335 H   0  0  0  0  0  0  0  0  0  0  0  0
    0.8459   -3.6557    0.7860 H   0  0  0  0  0  0  0  0  0  0  0  0
  1  2  1  0
  1 29  1  0
  1 30  1  0
  1 31  1  0
  2  3  1  0
  3  4  2  0
  3  8  1  0
  4  5  1  0
  4 32  1  0
  5  6  2  0
  5 33  1  0
  6  7  1  0
  6 34  1  0
  7  8  2  0
  7 35  1  0
  8  9  1  0
  9 10  1  0
  9 28  1  0
  9 36  1  6
 10 11  1  0
 10 37  1  0
 10 38  1  0
 11 12  1  0
 11 27  1  0
 11 39  1  1
 12 13  2  0
 12 14  1  0
 14 15  1  0
 14 40  1  0
 15 16  1  0
 15 41  1  0
 15 42  1  0
 16 17  2  0
 16 26  1  0
 17 18  1  0
 17 43  1  0
 18 19  2  0
 18 44  1  0
 19 20  1  0
 20 21  1  0
 20 26  2  0
 21 22  2  0
 21 25  1  0
 22 23  1  0
 22 45  1  0
 23 24  2  0
 23 46  1  0
 24 25  1  0
 24 47  1  0
 26 48  1  0
 27 28  1  0
 27 49  1  0
 28 50  1  0
M  END

