
     RDKit          3D

 26 25  0  0  0  0  0  0  0  0999 V2000
    1.0486   -1.3559    1.2272 C   0  0  0  0  0  0  0  0  0  0  0  0
    2.3849   -1.2467    1.3091 C   0  0  0  0  0  0  0  0  0  0  0  0
    3.1427   -1.3576    2.6072 C   0  0  0  0  0  0  0  0  0  0  0  0
    3.1354   -1.0010    0.0192 C   0  0  0  0  0  0  0  0  0  0  0  0
    2.5562   -0.7743   -1.0248 O   0  0  0  0  0  0  0  0  0  0  0  0
    4.6657   -1.0680    0.0358 C   0  0  0  0  0  0  0  0  0  0  0  0
    5.1184   -2.4229    0.3049 N   0  0  0  0  0  0  0  0  0  0  0  0
    6.5620   -2.5711    0.3864 C   0  0  0  0  0  0  0  0  0  0  0  0
    6.9369   -4.0350    0.5321 C   0  0  0  0  0  0  0  0  0  0  0  0
    6.4820   -4.7208   -0.6117 O   0  0  0  0  0  0  0  0  0  0  0  0
    6.7010   -6.1058   -0.5787 C   0  0  0  0  0  0  0  0  0  0  0  0
    0.4328   -1.5350    2.1130 H   0  0  0  0  0  0  0  0  0  0  0  0
    0.5517   -1.2652    0.2582 H   0  0  0  0  0  0  0  0  0  0  0  0
    2.4654   -1.5938    3.4409 H   0  0  0  0  0  0  0  0  0  0  0  0
    3.6593   -0.4134    2.8529 H   0  0  0  0  0  0  0  0  0  0  0  0
    3.9145   -2.1386    2.5346 H   0  0  0  0  0  0  0  0  0  0  0  0
    5.0518   -0.4047    0.8305 H   0  0  0  0  0  0  0  0  0  0  0  0
    5.0138   -0.6589   -0.9347 H   0  0  0  0  0  0  0  0  0  0  0  0
    4.7755   -3.0566   -0.4176 H   0  0  0  0  0  0  0  0  0  0  0  0
    6.9392   -2.0181    1.2651 H   0  0  0  0  0  0  0  0  0  0  0  0
    7.0886   -2.1580   -0.5028 H   0  0  0  0  0  0  0  0  0  0  0  0
    6.4687   -4.4536    1.4469 H   0  0  0  0  0  0  0  0  0  0  0  0
    8.0372   -4.1351    0.6411 H   0  0  0  0  0  0  0  0  0  0  0  0
    6.3046   -6.5328   -1.5115 H   0  0  0  0  0  0  0  0  0  0  0  0
    6.1865   -6.5876    0.2775 H   0  0  0  0  0  0  0  0  0  0  0  0
    7.7800   -6.3528   -0.5092 H   0  0  0  0  0  0  0  0  0  0  0  0
  1  2  2  0
  1 12  1  0
  1 13  1  0
  2  3  1  0
  2  4  1  0
  3 14  1  0
  3 15  1  0
  3 16  1  0
  4  5  2  0
  4  6  1  0
  6  7  1  0
  6 17  1  0
  6 18  1  0
  7  8  1  0
  7 19  1  0
  8  9  1  0
  8 20  1  0
  8 21  1  0
  9 10  1  0
  9 22  1  0
  9 23  1  0
 10 11  1  0
 11 24  1  0
 11 25  1  0
 11 26  1  0
M  END

