
     RDKit          3D

 35 37  0  0  0  0  0  0  0  0999 V2000
    1.0055   -0.1585   -0.4733 C   0  0  0  0  0  0  0  0  0  0  0  0
    2.4844   -0.0498   -0.2114 C   0  0  0  0  0  0  0  0  0  0  0  0
    3.2452   -1.1819   -0.2152 C   0  0  0  0  0  0  0  0  0  0  0  0
    4.6777   -1.1955    0.0248 C   0  0  0  0  0  0  0  0  0  0  0  0
    5.4004   -2.1567    0.0351 O   0  0  0  0  0  0  0  0  0  0  0  0
    5.2500    0.0520    0.2661 O   0  0  0  0  0  0  0  0  0  0  0  0
    4.5471    1.2087    0.2825 C   0  0  0  0  0  0  0  0  0  0  0  0
    5.2862    2.3604    0.5417 C   0  0  0  0  0  0  0  0  0  0  0  0
    4.6362    3.5973    0.5773 C   0  0  0  0  0  0  0  0  0  0  0  0
    5.4120    4.6736    0.8322 O   0  0  0  0  0  0  0  0  0  0  0  0
    4.8354    5.9663    0.9124 C   0  0  0  0  0  0  0  0  0  0  0  0
    5.9011    6.9810    1.2547 C   0  0  0  0  0  0  0  0  0  0  0  0
    5.7711    8.3031    0.8063 C   0  0  0  0  0  0  0  0  0  0  0  0
    6.7166    9.2701    1.1581 C   0  0  0  0  0  0  0  0  0  0  0  0
    7.8105    8.9216    1.9554 C   0  0  0  0  0  0  0  0  0  0  0  0
    7.9509    7.6027    2.3980 C   0  0  0  0  0  0  0  0  0  0  0  0
    7.0012    6.6376    2.0531 C   0  0  0  0  0  0  0  0  0  0  0  0
    3.2501    3.6657    0.3507 C   0  0  0  0  0  0  0  0  0  0  0  0
    2.5223    2.4998    0.0921 C   0  0  0  0  0  0  0  0  0  0  0  0
    1.1844    2.5731   -0.1255 O   0  0  0  0  0  0  0  0  0  0  0  0
    3.1446    1.2251    0.0486 C   0  0  0  0  0  0  0  0  0  0  0  0
    0.7261   -1.2075   -0.6428 H   0  0  0  0  0  0  0  0  0  0  0  0
    0.7111    0.4362   -1.3506 H   0  0  0  0  0  0  0  0  0  0  0  0
    0.4208    0.2355    0.3710 H   0  0  0  0  0  0  0  0  0  0  0  0
    2.8019   -2.1605   -0.4039 H   0  0  0  0  0  0  0  0  0  0  0  0
    6.3596    2.2914    0.7125 H   0  0  0  0  0  0  0  0  0  0  0  0
    4.0458    5.9704    1.6899 H   0  0  0  0  0  0  0  0  0  0  0  0
    4.3536    6.2325   -0.0464 H   0  0  0  0  0  0  0  0  0  0  0  0
    4.9242    8.5807    0.1713 H   0  0  0  0  0  0  0  0  0  0  0  0
    6.6028   10.2965    0.7999 H   0  0  0  0  0  0  0  0  0  0  0  0
    8.5548    9.6747    2.2264 H   0  0  0  0  0  0  0  0  0  0  0  0
    8.8074    7.3217    3.0164 H   0  0  0  0  0  0  0  0  0  0  0  0
    7.1150    5.6066    2.3926 H   0  0  0  0  0  0  0  0  0  0  0  0
    2.7195    4.6183    0.3692 H   0  0  0  0  0  0  0  0  0  0  0  0
    0.8998    3.4942   -0.0645 H   0  0  0  0  0  0  0  0  0  0  0  0
  1  2  1  0
  1 22  1  0
  1 23  1  0
  1 24  1  0
  2  3  2  0
  2 21  1  0
  3  4  1  0
  3 25  1  0
  4  5  2  0
  4  6  1  0
  6  7  1  0
  7  8  1  0
  7 21  2  0
  8  9  2  0
  8 26  1  0
  9 10  1  0
  9 18  1  0
 10 11  1  0
 11 12  1  0
 11 27  1  0
 11 28  1  0
 12 13  2  0
 12 17  1  0
 13 14  1  0
 13 29  1  0
 14 15  2  0
 14 30  1  0
 15 16  1  0
 15 31  1  0
 16 17  2  0
 16 32  1  0
 17 33  1  0
 18 19  2  0
 18 34  1  0
 19 20  1  0
 19 21  1  0
 20 35  1  0
M  END

