
     RDKit          3D

 30 31  0  0  0  0  0  0  0  0999 V2000
    0.9785   -0.0750    0.1243 C   0  0  0  0  0  0  0  0  0  0  0  0
    2.4885   -0.0072    0.1044 C   0  0  0  0  0  0  0  0  0  0  0  0
    3.2397   -1.2088    0.0366 C   0  0  0  0  0  0  0  0  0  0  0  0
    4.6340   -1.2328    0.0119 C   0  0  0  0  0  0  0  0  0  0  0  0
    5.4257   -2.5132   -0.0610 C   0  0  0  0  0  0  0  0  0  0  0  0
    5.2756    0.0185    0.0571 C   0  0  0  0  0  0  0  0  0  0  0  0
    6.6202    0.3267    0.0504 N   0  0  0  0  0  0  0  0  0  0  0  0
    7.3760   -0.3438    0.0242 H   0  0  0  0  0  0  0  0  0  0  0  0
    6.7944    1.6985    0.1178 C   0  0  0  0  0  0  0  0  0  0  0  0
    8.1625    2.3011    0.0972 C   0  0  0  0  0  0  0  0  0  0  0  0
    5.5496    2.3051    0.1679 C   0  0  0  0  0  0  0  0  0  0  0  0
    5.2616    3.7815    0.2298 C   0  0  0  0  0  0  0  0  0  0  0  0
    6.0530    4.4602    1.2618 N   0  0  0  0  0  0  0  0  0  0  0  0
    4.5661    1.2471    0.1291 C   0  0  0  0  0  0  0  0  0  0  0  0
    3.1565    1.2155    0.1496 C   0  0  0  0  0  0  0  0  0  0  0  0
    0.6099   -0.6572    0.9864 H   0  0  0  0  0  0  0  0  0  0  0  0
    0.5825   -0.5641   -0.7825 H   0  0  0  0  0  0  0  0  0  0  0  0
    0.5301    0.9281    0.1837 H   0  0  0  0  0  0  0  0  0  0  0  0
    2.7020   -2.1619    0.0009 H   0  0  0  0  0  0  0  0  0  0  0  0
    4.7653   -3.3920   -0.0869 H   0  0  0  0  0  0  0  0  0  0  0  0
    6.0967   -2.6282    0.8093 H   0  0  0  0  0  0  0  0  0  0  0  0
    6.0612   -2.5488   -0.9641 H   0  0  0  0  0  0  0  0  0  0  0  0
    8.8524    1.7566    0.7651 H   0  0  0  0  0  0  0  0  0  0  0  0
    8.1035    3.3435    0.4368 H   0  0  0  0  0  0  0  0  0  0  0  0
    8.6036    2.2803   -0.9160 H   0  0  0  0  0  0  0  0  0  0  0  0
    4.1666    3.9124    0.3531 H   0  0  0  0  0  0  0  0  0  0  0  0
    5.5073    4.2597   -0.7372 H   0  0  0  0  0  0  0  0  0  0  0  0
    5.8321    4.0704    2.1792 H   0  0  0  0  0  0  0  0  0  0  0  0
    5.8125    5.4515    1.2981 H   0  0  0  0  0  0  0  0  0  0  0  0
    2.5830    2.1455    0.1981 H   0  0  0  0  0  0  0  0  0  0  0  0
  1  2  1  0
  1 16  1  0
  1 17  1  0
  1 18  1  0
  2  3  2  0
  2 15  1  0
  3  4  1  0
  3 19  1  0
  4  5  1  0
  4  6  2  0
  5 20  1  0
  5 21  1  0
  5 22  1  0
  6  7  1  0
  6 14  1  0
  7  8  1  0
  7  9  1  0
  9 10  1  0
  9 11  2  0
 10 23  1  0
 10 24  1  0
 10 25  1  0
 11 12  1  0
 11 14  1  0
 12 13  1  0
 12 26  1  0
 12 27  1  0
 13 28  1  0
 13 29  1  0
 14 15  2  0
 15 30  1  0
M  END

