
     RDKit          3D

 37 39  0  0  0  0  0  0  0  0999 V2000
    5.3841   -0.9071   -1.1764 C   0  0  0  0  0  0  0  0  0  0  0  0
    4.2330   -0.4152   -0.3673 C   0  0  0  0  0  0  0  0  0  0  0  0
    4.1963    0.8690    0.1609 N   0  0  0  0  0  0  0  0  0  0  0  0
    3.0707    0.9442    0.7916 C   0  0  0  0  0  0  0  0  0  0  0  0
    2.3273   -0.1791    0.7436 O   0  0  0  0  0  0  0  0  0  0  0  0
    3.0758   -1.0606   -0.0057 C   0  0  0  0  0  0  0  0  0  0  0  0
    2.5533   -2.4230   -0.2656 C   0  0  0  0  0  0  0  0  0  0  0  0
    3.1926   -3.2301   -0.9314 O   0  0  0  0  0  0  0  0  0  0  0  0
    1.3326   -2.6832    0.2840 N   0  0  0  0  0  0  0  0  0  0  0  0
    0.6216   -3.9491    0.1597 C   0  0  1  0  0  0  0  0  0  0  0  0
    0.3822   -4.4574   -1.2947 C   0  0  0  0  0  0  0  0  0  0  0  0
    0.7385   -5.9565   -1.2405 C   0  0  0  0  0  0  0  0  0  0  0  0
    0.6918   -6.2779    0.1793 N   0  0  0  0  0  0  0  0  0  0  0  0
    1.2213   -7.5663    0.5794 C   0  0  0  0  0  0  0  0  0  0  0  0
    1.0450   -7.7654    2.0890 C   0  0  0  0  0  0  0  0  0  0  0  0
    1.6465   -6.5959    2.8806 C   0  0  0  0  0  0  0  0  0  0  0  0
    1.0986   -5.2532    2.3753 C   0  0  0  0  0  0  0  0  0  0  0  0
    1.2987   -5.1438    0.8666 C   0  0  2  0  0  0  0  0  0  0  0  0
    6.3139   -0.8507   -0.5874 H   0  0  0  0  0  0  0  0  0  0  0  0
    5.5262   -0.2674   -2.0627 H   0  0  0  0  0  0  0  0  0  0  0  0
    5.2123   -1.9422   -1.4945 H   0  0  0  0  0  0  0  0  0  0  0  0
    2.6584    1.7867    1.3456 H   0  0  0  0  0  0  0  0  0  0  0  0
    0.8950   -1.9409    0.8149 H   0  0  0  0  0  0  0  0  0  0  0  0
   -0.3533   -3.7883    0.6433 H   0  0  0  0  0  0  0  0  0  0  0  0
    1.0186   -3.9245   -2.0109 H   0  0  0  0  0  0  0  0  0  0  0  0
   -0.6678   -4.3013   -1.5831 H   0  0  0  0  0  0  0  0  0  0  0  0
    1.7554   -6.1189   -1.6616 H   0  0  0  0  0  0  0  0  0  0  0  0
    0.0381   -6.5907   -1.8090 H   0  0  0  0  0  0  0  0  0  0  0  0
    2.3033   -7.6598    0.3153 H   0  0  0  0  0  0  0  0  0  0  0  0
    0.6920   -8.3592    0.0239 H   0  0  0  0  0  0  0  0  0  0  0  0
    1.5072   -8.7187    2.3946 H   0  0  0  0  0  0  0  0  0  0  0  0
   -0.0339   -7.8415    2.3098 H   0  0  0  0  0  0  0  0  0  0  0  0
    2.7457   -6.6038    2.7636 H   0  0  0  0  0  0  0  0  0  0  0  0
    1.4461   -6.7157    3.9583 H   0  0  0  0  0  0  0  0  0  0  0  0
    1.5963   -4.4105    2.8843 H   0  0  0  0  0  0  0  0  0  0  0  0
    0.0186   -5.1853    2.5989 H   0  0  0  0  0  0  0  0  0  0  0  0
    2.3909   -5.0921    0.6537 H   0  0  0  0  0  0  0  0  0  0  0  0
  1  2  1  0
  1 19  1  0
  1 20  1  0
  1 21  1  0
  2  3  1  0
  2  6  2  0
  3  4  2  0
  4  5  1  0
  4 22  1  0
  5  6  1  0
  6  7  1  0
  7  8  2  0
  7  9  1  0
  9 10  1  0
  9 23  1  0
 10 11  1  0
 10 18  1  0
 10 24  1  1
 11 12  1  0
 11 25  1  0
 11 26  1  0
 12 13  1  0
 12 27  1  0
 12 28  1  0
 13 14  1  0
 13 18  1  0
 14 15  1  0
 14 29  1  0
 14 30  1  0
 15 16  1  0
 15 31  1  0
 15 32  1  0
 16 17  1  0
 16 33  1  0
 16 34  1  0
 17 18  1  0
 17 35  1  0
 17 36  1  0
 18 37  1  1
M  END

