
     RDKit          3D

 35 37  0  0  0  0  0  0  0  0999 V2000
    1.4923   -0.1861    0.4178 C   0  0  0  0  0  0  0  0  0  0  0  0
    2.9786   -0.2581    0.2524 C   0  0  0  0  0  0  0  0  0  0  0  0
    3.7801   -1.4203    0.0884 C   0  0  0  0  0  0  0  0  0  0  0  0
    5.0803   -0.9448   -0.0209 C   0  0  0  0  0  0  0  0  0  0  0  0
    6.2816   -1.5639   -0.1726 N   0  0  0  0  0  0  0  0  0  0  0  0
    7.3769   -0.8405   -0.2576 C   0  0  0  0  0  0  0  0  0  0  0  0
    8.5674   -1.4765   -0.4292 N   0  0  0  0  0  0  0  0  0  0  0  0
    8.7255   -2.8867   -0.7754 C   0  0  0  0  0  0  0  0  0  0  0  0
    8.4566   -3.9199    0.3425 C   0  0  1  0  0  0  0  0  0  0  0  0
    9.1334   -3.5512    1.6658 C   0  0  0  0  0  0  0  0  0  0  0  0
    7.0856   -4.1813    0.5077 O   0  0  0  0  0  0  0  0  0  0  0  0
    7.3504    0.6296   -0.1738 C   0  0  0  0  0  0  0  0  0  0  0  0
    8.4878    1.4588   -0.2743 C   0  0  0  0  0  0  0  0  0  0  0  0
    8.3834    2.8397   -0.1733 C   0  0  0  0  0  0  0  0  0  0  0  0
    7.1240    3.4344    0.0256 C   0  0  0  0  0  0  0  0  0  0  0  0
    5.9803    2.6547    0.1165 C   0  0  0  0  0  0  0  0  0  0  0  0
    6.0906    1.2561    0.0140 C   0  0  0  0  0  0  0  0  0  0  0  0
    4.9826    0.4365    0.0811 N   0  0  0  0  0  0  0  0  0  0  0  0
    3.7088    0.8579    0.2478 N   0  0  0  0  0  0  0  0  0  0  0  0
    1.1622   -0.7473    1.3073 H   0  0  0  0  0  0  0  0  0  0  0  0
    0.9723   -0.6193   -0.4524 H   0  0  0  0  0  0  0  0  0  0  0  0
    1.1773    0.8608    0.5278 H   0  0  0  0  0  0  0  0  0  0  0  0
    3.4651   -2.4596    0.0545 H   0  0  0  0  0  0  0  0  0  0  0  0
    9.4040   -0.9146   -0.3962 H   0  0  0  0  0  0  0  0  0  0  0  0
    9.7628   -3.0004   -1.1263 H   0  0  0  0  0  0  0  0  0  0  0  0
    8.0582   -3.1304   -1.6199 H   0  0  0  0  0  0  0  0  0  0  0  0
    8.9121   -4.8616   -0.0218 H   0  0  0  0  0  0  0  0  0  0  0  0
    8.7333   -2.6033    2.0600 H   0  0  0  0  0  0  0  0  0  0  0  0
   10.2266   -3.4471    1.5538 H   0  0  0  0  0  0  0  0  0  0  0  0
    8.9339   -4.3365    2.4097 H   0  0  0  0  0  0  0  0  0  0  0  0
    6.6067   -3.3414    0.3459 H   0  0  0  0  0  0  0  0  0  0  0  0
    9.4758    1.0235   -0.4406 H   0  0  0  0  0  0  0  0  0  0  0  0
    9.2777    3.4613   -0.2527 H   0  0  0  0  0  0  0  0  0  0  0  0
    7.0427    4.5213    0.1047 H   0  0  0  0  0  0  0  0  0  0  0  0
    4.9897    3.0846    0.2627 H   0  0  0  0  0  0  0  0  0  0  0  0
  1  2  1  0
  1 20  1  0
  1 21  1  0
  1 22  1  0
  2  3  1  0
  2 19  2  0
  3  4  2  0
  3 23  1  0
  4  5  1  0
  4 18  1  0
  5  6  2  0
  6  7  1  0
  6 12  1  0
  7  8  1  0
  7 24  1  0
  8  9  1  0
  8 25  1  0
  8 26  1  0
  9 10  1  0
  9 11  1  0
  9 27  1  6
 10 28  1  0
 10 29  1  0
 10 30  1  0
 11 31  1  0
 12 13  1  0
 12 17  2  0
 13 14  2  0
 13 32  1  0
 14 15  1  0
 14 33  1  0
 15 16  2  0
 15 34  1  0
 16 17  1  0
 16 35  1  0
 17 18  1  0
 18 19  1  0
M  END

