
     RDKit          3D

 30 31  0  0  0  0  0  0  0  0999 V2000
    3.9042    2.5167   -0.8280 Cl  0  0  0  0  0  0  0  0  0  0  0  0
    3.0866    2.1284    0.7457 C   0  0  0  0  0  0  0  0  0  0  0  0
    3.2464    0.6513    1.1109 C   0  0  1  0  0  0  0  0  0  0  0  0
    4.6255    0.1893    1.1970 N   0  0  0  0  0  0  0  0  0  0  0  0
    5.5232    0.9195    2.0765 C   0  0  0  0  0  0  0  0  0  0  0  0
    6.8377    0.1919    2.3023 C   0  0  0  0  0  0  0  0  0  0  0  0
    8.0111    0.9127    2.5692 C   0  0  0  0  0  0  0  0  0  0  0  0
    9.2125    0.2474    2.8248 C   0  0  0  0  0  0  0  0  0  0  0  0
    9.2690   -1.1491    2.8109 C   0  0  0  0  0  0  0  0  0  0  0  0
    8.0990   -1.8613    2.5358 C   0  0  0  0  0  0  0  0  0  0  0  0
    8.1532   -3.7722    2.5026 Br  0  0  0  0  0  0  0  0  0  0  0  0
    6.8907   -1.2095    2.2831 C   0  0  0  0  0  0  0  0  0  0  0  0
    2.4184    0.2103    2.3636 C   0  0  0  0  0  0  0  0  0  0  0  0
    1.9175   -1.0228    1.5723 C   0  0  0  0  0  0  0  0  0  0  0  0
    2.4186   -0.3608    0.2653 C   0  0  0  0  0  0  0  0  0  0  0  0
    2.0293    2.3998    0.6263 H   0  0  0  0  0  0  0  0  0  0  0  0
    3.5335    2.7874    1.5034 H   0  0  0  0  0  0  0  0  0  0  0  0
    5.0215    0.1473    0.2574 H   0  0  0  0  0  0  0  0  0  0  0  0
    5.0195    1.0399    3.0536 H   0  0  0  0  0  0  0  0  0  0  0  0
    5.7525    1.9471    1.7248 H   0  0  0  0  0  0  0  0  0  0  0  0
    7.9843    2.0060    2.5729 H   0  0  0  0  0  0  0  0  0  0  0  0
   10.1207    0.8198    3.0305 H   0  0  0  0  0  0  0  0  0  0  0  0
   10.2050   -1.6755    3.0037 H   0  0  0  0  0  0  0  0  0  0  0  0
    5.9842   -1.7718    2.0586 H   0  0  0  0  0  0  0  0  0  0  0  0
    1.6091    0.9197    2.5984 H   0  0  0  0  0  0  0  0  0  0  0  0
    2.9965    0.0227    3.2801 H   0  0  0  0  0  0  0  0  0  0  0  0
    0.8421   -1.2462    1.6349 H   0  0  0  0  0  0  0  0  0  0  0  0
    2.4813   -1.9323    1.8220 H   0  0  0  0  0  0  0  0  0  0  0  0
    1.6137    0.1340   -0.2991 H   0  0  0  0  0  0  0  0  0  0  0  0
    3.0001   -0.9866   -0.4277 H   0  0  0  0  0  0  0  0  0  0  0  0
  1  2  1  0
  2  3  1  0
  2 16  1  0
  2 17  1  0
  3  4  1  1
  3 13  1  0
  3 15  1  0
  4  5  1  0
  4 18  1  0
  5  6  1  0
  5 19  1  0
  5 20  1  0
  6  7  2  0
  6 12  1  0
  7  8  1  0
  7 21  1  0
  8  9  2  0
  8 22  1  0
  9 10  1  0
  9 23  1  0
 10 11  1  0
 10 12  2  0
 12 24  1  0
 13 14  1  0
 13 25  1  0
 13 26  1  0
 14 15  1  0
 14 27  1  0
 14 28  1  0
 15 29  1  0
 15 30  1  0
M  END

