
     RDKit          3D

 36 37  0  0  0  0  0  0  0  0999 V2000
    6.4607   -1.1260    1.3871 C   0  0  0  0  0  0  0  0  0  0  0  0
    5.1760   -0.3573    1.0742 C   0  0  1  0  0  0  0  0  0  0  0  0
    4.3853   -0.0615    2.3532 C   0  0  0  0  0  0  0  0  0  0  0  0
    5.5222    0.8784    0.3732 N   0  0  0  0  0  0  0  0  0  0  0  0
    4.4131    1.5833   -0.2595 C   0  0  0  0  0  0  0  0  0  0  0  0
    4.8765    2.7069   -1.1457 C   0  0  0  0  0  0  0  0  0  0  0  0
    4.6769    4.0921   -0.9217 C   0  0  0  0  0  0  0  0  0  0  0  0
    5.2385    4.8440   -1.8633 N   0  0  0  0  0  0  0  0  0  0  0  0
    5.8199    3.9686   -2.6850 N   0  0  0  0  0  0  0  0  0  0  0  0
    6.2694    4.3038   -3.5289 H   0  0  0  0  0  0  0  0  0  0  0  0
    5.6377    2.6608   -2.3215 C   0  0  0  0  0  0  0  0  0  0  0  0
    6.2245    1.5600   -3.0977 C   0  0  0  0  0  0  0  0  0  0  0  0
    7.4257    1.7408   -3.8114 C   0  0  0  0  0  0  0  0  0  0  0  0
    7.9832    0.7043   -4.5600 C   0  0  0  0  0  0  0  0  0  0  0  0
    7.3578   -0.5446   -4.6017 C   0  0  0  0  0  0  0  0  0  0  0  0
    7.9443   -1.6886   -5.3896 C   0  0  1  0  0  0  0  0  0  0  0  0
    9.0535   -1.3308   -6.0571 F   0  0  0  0  0  0  0  0  0  0  0  0
    8.2727   -2.7209   -4.5891 F   0  0  0  0  0  0  0  0  0  0  0  0
    7.0665   -2.1656   -6.2924 F   0  0  0  0  0  0  0  0  0  0  0  0
    6.1663   -0.7447   -3.8909 C   0  0  0  0  0  0  0  0  0  0  0  0
    5.6065    0.2932   -3.1520 C   0  0  0  0  0  0  0  0  0  0  0  0
    6.2395   -2.0723    1.9041 H   0  0  0  0  0  0  0  0  0  0  0  0
    7.1219   -0.5232    2.0306 H   0  0  0  0  0  0  0  0  0  0  0  0
    7.0138   -1.3704    0.4646 H   0  0  0  0  0  0  0  0  0  0  0  0
    4.5357   -1.0095    0.4316 H   0  0  0  0  0  0  0  0  0  0  0  0
    4.9739    0.5875    3.0219 H   0  0  0  0  0  0  0  0  0  0  0  0
    4.1475   -0.9950    2.8872 H   0  0  0  0  0  0  0  0  0  0  0  0
    3.4311    0.4458    2.1416 H   0  0  0  0  0  0  0  0  0  0  0  0
    6.2421    0.6858   -0.3210 H   0  0  0  0  0  0  0  0  0  0  0  0
    3.7677    2.0190    0.5203 H   0  0  0  0  0  0  0  0  0  0  0  0
    3.7492    0.8937   -0.8332 H   0  0  0  0  0  0  0  0  0  0  0  0
    4.1386    4.5588   -0.0962 H   0  0  0  0  0  0  0  0  0  0  0  0
    7.9514    2.6971   -3.7605 H   0  0  0  0  0  0  0  0  0  0  0  0
    8.9156    0.8631   -5.1037 H   0  0  0  0  0  0  0  0  0  0  0  0
    5.6676   -1.7160   -3.9255 H   0  0  0  0  0  0  0  0  0  0  0  0
    4.6643    0.1278   -2.6282 H   0  0  0  0  0  0  0  0  0  0  0  0
  1  2  1  0
  1 22  1  0
  1 23  1  0
  1 24  1  0
  2  3  1  0
  2  4  1  0
  2 25  1  6
  3 26  1  0
  3 27  1  0
  3 28  1  0
  4  5  1  0
  4 29  1  0
  5  6  1  0
  5 30  1  0
  5 31  1  0
  6  7  1  0
  6 11  2  0
  7  8  2  0
  7 32  1  0
  8  9  1  0
  9 10  1  0
  9 11  1  0
 11 12  1  0
 12 13  2  0
 12 21  1  0
 13 14  1  0
 13 33  1  0
 14 15  2  0
 14 34  1  0
 15 16  1  0
 15 20  1  0
 16 17  1  6
 16 18  1  0
 16 19  1  0
 20 21  2  0
 20 35  1  0
 21 36  1  0
M  END

