
     RDKit          3D

 33 33  0  0  0  0  0  0  0  0999 V2000
    0.5502   -3.8989   -0.8285 C   0  0  0  0  0  0  0  0  0  0  0  0
    1.9865   -3.8052   -0.6730 N   0  0  0  0  0  0  0  0  0  0  0  0
    2.8148   -3.3756   -1.6718 C   0  0  0  0  0  0  0  0  0  0  0  0
    2.4067   -3.0028   -2.7609 O   0  0  0  0  0  0  0  0  0  0  0  0
    4.3045   -3.4088   -1.3405 C   0  0  0  0  0  0  0  0  0  0  0  0
    5.0599   -2.2404   -1.9986 C   0  0  0  0  0  0  0  0  0  0  0  0
    6.5109   -2.2540   -1.8619 N   0  0  0  0  0  0  0  0  0  0  0  0
    7.1967   -3.3503   -2.5448 C   0  0  0  0  0  0  0  0  0  0  0  0
    8.6852   -3.2139   -2.4148 C   0  0  0  0  0  0  0  0  0  0  0  0
    9.6155   -3.9842   -1.7045 C   0  0  0  0  0  0  0  0  0  0  0  0
    9.3075   -5.1395   -0.8359 C   0  0  0  0  0  0  0  0  0  0  0  0
    8.2020   -5.4221   -0.4403 O   0  0  0  0  0  0  0  0  0  0  0  0
   10.3662   -5.9040   -0.4733 O   0  0  0  0  0  0  0  0  0  0  0  0
   10.8632   -3.3537   -1.9675 C   0  0  0  0  0  0  0  0  0  0  0  0
   10.7183   -2.2984   -2.7531 N   0  0  0  0  0  0  0  0  0  0  0  0
    9.3990   -2.2275   -3.0138 N   0  0  0  0  0  0  0  0  0  0  0  0
    8.8844   -1.1721   -3.8694 C   0  0  0  0  0  0  0  0  0  0  0  0
    0.0210   -3.2951   -0.0720 H   0  0  0  0  0  0  0  0  0  0  0  0
    0.1969   -4.9418   -0.7511 H   0  0  0  0  0  0  0  0  0  0  0  0
    0.2999   -3.5159   -1.8264 H   0  0  0  0  0  0  0  0  0  0  0  0
    2.4035   -4.1137    0.1964 H   0  0  0  0  0  0  0  0  0  0  0  0
    4.6952   -4.3698   -1.7189 H   0  0  0  0  0  0  0  0  0  0  0  0
    4.4713   -3.4128   -0.2494 H   0  0  0  0  0  0  0  0  0  0  0  0
    4.6869   -1.2893   -1.5827 H   0  0  0  0  0  0  0  0  0  0  0  0
    4.8002   -2.2261   -3.0688 H   0  0  0  0  0  0  0  0  0  0  0  0
    6.7792   -2.2528   -0.8776 H   0  0  0  0  0  0  0  0  0  0  0  0
    6.9156   -3.3073   -3.6127 H   0  0  0  0  0  0  0  0  0  0  0  0
    6.9281   -4.3545   -2.1752 H   0  0  0  0  0  0  0  0  0  0  0  0
   11.1632   -5.6231   -0.9440 H   0  0  0  0  0  0  0  0  0  0  0  0
   11.8561   -3.6049   -1.5895 H   0  0  0  0  0  0  0  0  0  0  0  0
    9.6140   -0.3536   -3.8639 H   0  0  0  0  0  0  0  0  0  0  0  0
    7.9214   -0.8302   -3.4670 H   0  0  0  0  0  0  0  0  0  0  0  0
    8.7535   -1.5296   -4.9037 H   0  0  0  0  0  0  0  0  0  0  0  0
  1  2  1  0
  1 18  1  0
  1 19  1  0
  1 20  1  0
  2  3  1  0
  2 21  1  0
  3  4  2  0
  3  5  1  0
  5  6  1  0
  5 22  1  0
  5 23  1  0
  6  7  1  0
  6 24  1  0
  6 25  1  0
  7  8  1  0
  7 26  1  0
  8  9  1  0
  8 27  1  0
  8 28  1  0
  9 10  2  0
  9 16  1  0
 10 11  1  0
 10 14  1  0
 11 12  2  0
 11 13  1  0
 13 29  1  0
 14 15  2  0
 14 30  1  0
 15 16  1  0
 16 17  1  0
 17 31  1  0
 17 32  1  0
 17 33  1  0
M  END

