
     RDKit          3D

 43 45  0  0  0  0  0  0  0  0999 V2000
    2.5502    2.0453    0.6977 C   0  0  0  0  0  0  0  0  0  0  0  0
    3.3511    0.7848    0.3813 C   0  0  1  0  0  0  0  0  0  0  0  0
    2.4539   -0.7871    0.7881 S   0  0  0  0  0  0  0  0  0  0  0  0
    1.0503   -0.7380   -0.2702 C   0  0  0  0  0  0  0  0  0  0  0  0
    0.8873    0.0412   -1.3027 N   0  0  0  0  0  0  0  0  0  0  0  0
   -0.2894   -0.1674   -1.9533 N   0  0  0  0  0  0  0  0  0  0  0  0
   -1.0083   -1.1027   -1.4167 C   0  0  0  0  0  0  0  0  0  0  0  0
   -0.2971   -1.8360   -0.0001 S   0  0  0  0  0  0  0  0  0  0  0  0
    4.0249    0.8567   -1.0131 C   0  0  0  0  0  0  0  0  0  0  0  0
    4.3980    1.9413   -1.4294 O   0  0  0  0  0  0  0  0  0  0  0  0
    4.2522   -0.3107   -1.6606 N   0  0  0  0  0  0  0  0  0  0  0  0
    4.9330   -0.3598   -2.9563 C   0  0  1  0  0  0  0  0  0  0  0  0
    5.3645   -1.7974   -3.2680 C   0  0  0  0  0  0  0  0  0  0  0  0
    4.1731   -2.6974   -3.6094 C   0  0  0  0  0  0  0  0  0  0  0  0
    3.3582   -2.1416   -4.6873 N   0  0  0  0  0  0  0  0  0  0  0  0
    2.5061   -3.0209   -5.3826 C   0  0  0  0  0  0  0  0  0  0  0  0
    1.1518   -2.7128   -5.6347 C   0  0  0  0  0  0  0  0  0  0  0  0
    0.3410   -3.5872   -6.3654 C   0  0  0  0  0  0  0  0  0  0  0  0
    0.8414   -4.7957   -6.8512 C   0  0  0  0  0  0  0  0  0  0  0  0
    2.1808   -5.1167   -6.5999 C   0  0  0  0  0  0  0  0  0  0  0  0
    3.0008   -4.2469   -5.8849 C   0  0  0  0  0  0  0  0  0  0  0  0
    2.8896   -0.7819   -4.4236 C   0  0  0  0  0  0  0  0  0  0  0  0
    4.0531    0.1582   -4.1064 C   0  0  0  0  0  0  0  0  0  0  0  0
    2.2225    2.0457    1.7470 H   0  0  0  0  0  0  0  0  0  0  0  0
    1.6745    2.1277    0.0401 H   0  0  0  0  0  0  0  0  0  0  0  0
    3.1929    2.9176    0.5152 H   0  0  0  0  0  0  0  0  0  0  0  0
    4.1864    0.7001    1.0999 H   0  0  0  0  0  0  0  0  0  0  0  0
   -1.9766   -1.4201   -1.8077 H   0  0  0  0  0  0  0  0  0  0  0  0
    3.8611   -1.1593   -1.2667 H   0  0  0  0  0  0  0  0  0  0  0  0
    5.8176    0.2917   -2.8745 H   0  0  0  0  0  0  0  0  0  0  0  0
    5.9240   -2.2263   -2.4194 H   0  0  0  0  0  0  0  0  0  0  0  0
    6.0475   -1.7709   -4.1319 H   0  0  0  0  0  0  0  0  0  0  0  0
    3.5483   -2.8636   -2.7001 H   0  0  0  0  0  0  0  0  0  0  0  0
    4.5427   -3.6890   -3.8986 H   0  0  0  0  0  0  0  0  0  0  0  0
    0.7154   -1.7926   -5.2467 H   0  0  0  0  0  0  0  0  0  0  0  0
   -0.7035   -3.3164   -6.5442 H   0  0  0  0  0  0  0  0  0  0  0  0
    0.2028   -5.4764   -7.4189 H   0  0  0  0  0  0  0  0  0  0  0  0
    2.6000   -6.0524   -6.9804 H   0  0  0  0  0  0  0  0  0  0  0  0
    4.0511   -4.5064   -5.7387 H   0  0  0  0  0  0  0  0  0  0  0  0
    2.1529   -0.7522   -3.5945 H   0  0  0  0  0  0  0  0  0  0  0  0
    2.3716   -0.4128   -5.3200 H   0  0  0  0  0  0  0  0  0  0  0  0
    3.6706    1.1579   -3.8543 H   0  0  0  0  0  0  0  0  0  0  0  0
    4.6897    0.2631   -5.0013 H   0  0  0  0  0  0  0  0  0  0  0  0
  1  2  1  0
  1 24  1  0
  1 25  1  0
  1 26  1  0
  2  3  1  0
  2  9  1  0
  2 27  1  1
  3  4  1  0
  4  5  2  0
  4  8  1  0
  5  6  1  0
  6  7  2  0
  7  8  1  0
  7 28  1  0
  9 10  2  0
  9 11  1  0
 11 12  1  0
 11 29  1  0
 12 13  1  0
 12 23  1  0
 12 30  1  1
 13 14  1  0
 13 31  1  0
 13 32  1  0
 14 15  1  0
 14 33  1  0
 14 34  1  0
 15 16  1  0
 15 22  1  0
 16 17  2  0
 16 21  1  0
 17 18  1  0
 17 35  1  0
 18 19  2  0
 18 36  1  0
 19 20  1  0
 19 37  1  0
 20 21  2  0
 20 38  1  0
 21 39  1  0
 22 23  1  0
 22 40  1  0
 22 41  1  0
 23 42  1  0
 23 43  1  0
M  END

