
     RDKit          3D

 41 42  0  0  0  0  0  0  0  0999 V2000
    2.7812   -6.5934   -1.2896 C   0  0  0  0  0  0  0  0  0  0  0  0
    2.5383   -5.3911   -0.5933 O   0  0  0  0  0  0  0  0  0  0  0  0
    3.0543   -4.2243   -1.0647 C   0  0  0  0  0  0  0  0  0  0  0  0
    3.8519   -4.1276   -2.2126 C   0  0  0  0  0  0  0  0  0  0  0  0
    4.3565   -2.8860   -2.6109 C   0  0  0  0  0  0  0  0  0  0  0  0
    4.0708   -1.7257   -1.8805 C   0  0  0  0  0  0  0  0  0  0  0  0
    4.5798   -0.3835   -2.3096 C   0  0  0  0  0  0  0  0  0  0  0  0
    3.9733    0.7355   -2.1476 N   0  0  0  0  0  0  0  0  0  0  0  0
    5.7927   -0.4071   -2.9795 N   0  0  0  0  0  0  0  0  0  0  0  0
    3.2663   -1.8438   -0.7324 C   0  0  0  0  0  0  0  0  0  0  0  0
    2.7484   -3.0656   -0.3107 C   0  0  0  0  0  0  0  0  0  0  0  0
    1.9081   -3.1954    0.9509 C   0  0  0  0  0  0  0  0  0  0  0  0
    1.3510   -1.9293    1.4108 N   0  0  0  0  0  0  0  0  0  0  0  0
    0.1685   -1.4871    0.6650 C   0  0  0  0  0  0  0  0  0  0  0  0
   -1.1282   -2.1069    1.1908 C   0  0  0  0  0  0  0  0  0  0  0  0
   -1.2556   -1.8849    2.5891 O   0  0  0  0  0  0  0  0  0  0  0  0
   -0.1644   -2.4522    3.3105 C   0  0  0  0  0  0  0  0  0  0  0  0
    1.1529   -1.8006    2.8650 C   0  0  2  0  0  0  0  0  0  0  0  0
    1.2101   -0.2960    3.2953 C   0  0  0  0  0  0  0  0  0  0  0  0
    0.0809    0.1671    3.9974 O   0  0  0  0  0  0  0  0  0  0  0  0
    2.3807   -6.5603   -2.3186 H   0  0  0  0  0  0  0  0  0  0  0  0
    2.2659   -7.3873   -0.7324 H   0  0  0  0  0  0  0  0  0  0  0  0
    3.8592   -6.8300   -1.3353 H   0  0  0  0  0  0  0  0  0  0  0  0
    4.0825   -5.0118   -2.8069 H   0  0  0  0  0  0  0  0  0  0  0  0
    4.9612   -2.8180   -3.5178 H   0  0  0  0  0  0  0  0  0  0  0  0
    3.0464    0.5842   -1.7454 H   0  0  0  0  0  0  0  0  0  0  0  0
    6.4777   -1.0874   -2.6694 H   0  0  0  0  0  0  0  0  0  0  0  0
    6.1697    0.5175   -3.1660 H   0  0  0  0  0  0  0  0  0  0  0  0
    3.0391   -0.9640   -0.1268 H   0  0  0  0  0  0  0  0  0  0  0  0
    2.5511   -3.5987    1.7530 H   0  0  0  0  0  0  0  0  0  0  0  0
    1.1463   -3.9812    0.7785 H   0  0  0  0  0  0  0  0  0  0  0  0
    0.3036   -1.7178   -0.4033 H   0  0  0  0  0  0  0  0  0  0  0  0
    0.0843   -0.3882    0.7428 H   0  0  0  0  0  0  0  0  0  0  0  0
   -1.1591   -3.1962    0.9849 H   0  0  0  0  0  0  0  0  0  0  0  0
   -2.0074   -1.6493    0.7109 H   0  0  0  0  0  0  0  0  0  0  0  0
   -0.1306   -3.5468    3.1411 H   0  0  0  0  0  0  0  0  0  0  0  0
   -0.3596   -2.2668    4.3752 H   0  0  0  0  0  0  0  0  0  0  0  0
    1.9815   -2.3394    3.3519 H   0  0  0  0  0  0  0  0  0  0  0  0
    1.4174    0.3063    2.3898 H   0  0  0  0  0  0  0  0  0  0  0  0
    2.0704   -0.1458    3.9666 H   0  0  0  0  0  0  0  0  0  0  0  0
   -0.7029   -0.0645    3.4740 H   0  0  0  0  0  0  0  0  0  0  0  0
  1  2  1  0
  1 21  1  0
  1 22  1  0
  1 23  1  0
  2  3  1  0
  3  4  2  0
  3 11  1  0
  4  5  1  0
  4 24  1  0
  5  6  2  0
  5 25  1  0
  6  7  1  0
  6 10  1  0
  7  8  2  0
  7  9  1  0
  8 26  1  0
  9 27  1  0
  9 28  1  0
 10 11  2  0
 10 29  1  0
 11 12  1  0
 12 13  1  0
 12 30  1  0
 12 31  1  0
 13 14  1  0
 13 18  1  0
 14 15  1  0
 14 32  1  0
 14 33  1  0
 15 16  1  0
 15 34  1  0
 15 35  1  0
 16 17  1  0
 17 18  1  0
 17 36  1  0
 17 37  1  0
 18 19  1  0
 18 38  1  1
 19 20  1  0
 19 39  1  0
 19 40  1  0
 20 41  1  0
M  END

