
     RDKit          3D

 57 59  0  0  0  0  0  0  0  0999 V2000
    6.3640   -1.4481   -0.0202 C   0  0  0  0  0  0  0  0  0  0  0  0
    4.9502   -1.0947   -0.4824 C   0  0  0  0  0  0  0  0  0  0  0  0
    4.8569    0.2048   -1.2994 C   0  0  1  0  0  0  0  0  0  0  0  0
    3.4427    0.3988   -1.8772 C   0  0  0  0  0  0  0  0  0  0  0  0
    5.2126    1.4150   -0.4160 C   0  0  0  0  0  0  0  0  0  0  0  0
    4.9425    1.3983    0.7778 O   0  0  0  0  0  0  0  0  0  0  0  0
    5.8121    2.5108   -0.9989 N   0  0  0  0  0  0  0  0  0  0  0  0
    6.0823    2.7144   -2.4165 C   0  0  0  0  0  0  0  0  0  0  0  0
    5.3413    3.9515   -2.9422 C   0  0  0  0  0  0  0  0  0  0  0  0
    5.6424    5.1918   -2.0944 C   0  0  0  0  0  0  0  0  0  0  0  0
    5.3966    4.9175   -0.5939 C   0  0  2  0  0  0  0  0  0  0  0  0
    5.8510    6.1092    0.2551 C   0  0  0  0  0  0  0  0  0  0  0  0
    6.9958    6.1512    0.6860 O   0  0  0  0  0  0  0  0  0  0  0  0
    4.9553    7.1295    0.4966 N   0  0  0  0  0  0  0  0  0  0  0  0
    5.3719    8.2561    1.3294 C   0  0  0  0  0  0  0  0  0  0  0  0
    5.1937    9.5839    0.5885 C   0  0  0  0  0  0  0  0  0  0  0  0
    3.7672    9.7348    0.0478 C   0  0  0  0  0  0  0  0  0  0  0  0
    3.3637    8.5161   -0.7993 C   0  0  2  0  0  0  0  0  0  0  0  0
    1.9144    8.6472   -1.2918 C   0  0  0  0  0  0  0  0  0  0  0  0
    1.5687    7.7603   -2.3934 N   0  0  0  0  0  0  0  0  0  0  0  0
    1.2888    8.0766   -3.6818 C   0  0  0  0  0  0  0  0  0  0  0  0
    1.0227    6.9870   -4.3761 N   0  0  0  0  0  0  0  0  0  0  0  0
    1.1552    6.0030   -3.4501 C   0  0  0  0  0  0  0  0  0  0  0  0
    1.4835    6.4226   -2.2361 N   0  0  0  0  0  0  0  0  0  0  0  0
    3.5894    7.2177    0.0049 C   0  0  0  0  0  0  0  0  0  0  0  0
    6.1651    3.6550   -0.1610 C   0  0  0  0  0  0  0  0  0  0  0  0
    6.3733   -2.4046    0.5266 H   0  0  0  0  0  0  0  0  0  0  0  0
    6.7635   -0.6775    0.6571 H   0  0  0  0  0  0  0  0  0  0  0  0
    7.0578   -1.5486   -0.8728 H   0  0  0  0  0  0  0  0  0  0  0  0
    4.2896   -0.9982    0.3936 H   0  0  0  0  0  0  0  0  0  0  0  0
    4.5474   -1.9144   -1.1030 H   0  0  0  0  0  0  0  0  0  0  0  0
    5.5714    0.1252   -2.1349 H   0  0  0  0  0  0  0  0  0  0  0  0
    2.7089    0.4956   -1.0613 H   0  0  0  0  0  0  0  0  0  0  0  0
    3.1525   -0.4649   -2.4964 H   0  0  0  0  0  0  0  0  0  0  0  0
    3.3681    1.3023   -2.5031 H   0  0  0  0  0  0  0  0  0  0  0  0
    5.7969    1.8286   -2.9938 H   0  0  0  0  0  0  0  0  0  0  0  0
    7.1720    2.8550   -2.5571 H   0  0  0  0  0  0  0  0  0  0  0  0
    4.2557    3.7516   -2.9294 H   0  0  0  0  0  0  0  0  0  0  0  0
    5.6239    4.1290   -3.9935 H   0  0  0  0  0  0  0  0  0  0  0  0
    5.0340    6.0429   -2.4414 H   0  0  0  0  0  0  0  0  0  0  0  0
    6.6998    5.4848   -2.2222 H   0  0  0  0  0  0  0  0  0  0  0  0
    4.3250    4.7153   -0.4427 H   0  0  0  0  0  0  0  0  0  0  0  0
    6.4168    8.0871    1.6145 H   0  0  0  0  0  0  0  0  0  0  0  0
    4.7607    8.2609    2.2533 H   0  0  0  0  0  0  0  0  0  0  0  0
    5.9128    9.6267   -0.2479 H   0  0  0  0  0  0  0  0  0  0  0  0
    5.4386   10.4193    1.2649 H   0  0  0  0  0  0  0  0  0  0  0  0
    3.6756   10.6602   -0.5464 H   0  0  0  0  0  0  0  0  0  0  0  0
    3.0609    9.8342    0.8941 H   0  0  0  0  0  0  0  0  0  0  0  0
    4.0192    8.4817   -1.6885 H   0  0  0  0  0  0  0  0  0  0  0  0
    1.7368    9.6717   -1.6522 H   0  0  0  0  0  0  0  0  0  0  0  0
    1.2075    8.4623   -0.4659 H   0  0  0  0  0  0  0  0  0  0  0  0
    1.2879    9.1021   -4.0521 H   0  0  0  0  0  0  0  0  0  0  0  0
    1.0017    4.9460   -3.6683 H   0  0  0  0  0  0  0  0  0  0  0  0
    3.3307    6.3511   -0.6087 H   0  0  0  0  0  0  0  0  0  0  0  0
    2.8894    7.2153    0.8653 H   0  0  0  0  0  0  0  0  0  0  0  0
    5.9379    3.3908    0.8775 H   0  0  0  0  0  0  0  0  0  0  0  0
    7.2471    3.8529   -0.2366 H   0  0  0  0  0  0  0  0  0  0  0  0
  1  2  1  0
  1 27  1  0
  1 28  1  0
  1 29  1  0
  2  3  1  0
  2 30  1  0
  2 31  1  0
  3  4  1  0
  3  5  1  0
  3 32  1  6
  4 33  1  0
  4 34  1  0
  4 35  1  0
  5  6  2  0
  5  7  1  0
  7  8  1  0
  7 26  1  0
  8  9  1  0
  8 36  1  0
  8 37  1  0
  9 10  1  0
  9 38  1  0
  9 39  1  0
 10 11  1  0
 10 40  1  0
 10 41  1  0
 11 12  1  0
 11 26  1  0
 11 42  1  6
 12 13  2  0
 12 14  1  0
 14 15  1  0
 14 25  1  0
 15 16  1  0
 15 43  1  0
 15 44  1  0
 16 17  1  0
 16 45  1  0
 16 46  1  0
 17 18  1  0
 17 47  1  0
 17 48  1  0
 18 19  1  0
 18 25  1  0
 18 49  1  6
 19 20  1  0
 19 50  1  0
 19 51  1  0
 20 21  1  0
 20 24  1  0
 21 22  2  0
 21 52  1  0
 22 23  1  0
 23 24  2  0
 23 53  1  0
 25 54  1  0
 25 55  1  0
 26 56  1  0
 26 57  1  0
M  END

