
     RDKit          3D

 42 44  0  0  0  0  0  0  0  0999 V2000
    1.7875   -1.9641    0.9274 O   0  0  0  0  0  0  0  0  0  0  0  0
    2.8754   -1.4378    0.8302 C   0  0  0  0  0  0  0  0  0  0  0  0
    3.5708   -1.2918   -0.5288 C   0  0  0  0  0  0  0  0  0  0  0  0
    2.7580   -1.7759   -1.5779 O   0  0  0  0  0  0  0  0  0  0  0  0
    2.7029   -3.1112   -1.7262 C   0  0  0  0  0  0  0  0  0  0  0  0
    3.4054   -3.8734   -1.1064 O   0  0  0  0  0  0  0  0  0  0  0  0
    1.7456   -3.5663   -2.7897 C   0  0  0  0  0  0  0  0  0  0  0  0
    1.9850   -4.8656   -3.2710 C   0  0  0  0  0  0  0  0  0  0  0  0
    1.1786   -5.4291   -4.2554 C   0  0  0  0  0  0  0  0  0  0  0  0
    1.4987   -7.1123   -4.8189 S   0  0  1  0  0  0  0  0  0  0  0  0
    0.7935   -7.2633   -6.0933 O   0  0  0  0  0  0  0  0  0  0  0  0
    2.9366   -7.3420   -4.6758 O   0  0  0  0  0  0  0  0  0  0  0  0
    0.7436   -8.1053   -3.7352 N   0  0  0  0  0  0  0  0  0  0  0  0
    1.3717   -8.5644   -2.4888 C   0  0  0  0  0  0  0  0  0  0  0  0
    0.3842   -9.6372   -2.0153 C   0  0  0  0  0  0  0  0  0  0  0  0
   -0.9780   -9.0808   -2.4599 C   0  0  0  0  0  0  0  0  0  0  0  0
   -0.6889   -8.4330   -3.8255 C   0  0  0  0  0  0  0  0  0  0  0  0
    0.1145   -4.7039   -4.8015 C   0  0  0  0  0  0  0  0  0  0  0  0
   -0.1452   -3.4208   -4.3282 C   0  0  0  0  0  0  0  0  0  0  0  0
    0.6537   -2.8475   -3.3275 C   0  0  0  0  0  0  0  0  0  0  0  0
    0.1911   -1.2553   -2.7972 Cl  0  0  0  0  0  0  0  0  0  0  0  0
    3.5854   -0.9113    2.0145 C   0  0  0  0  0  0  0  0  0  0  0  0
    3.0998   -0.9503    3.3076 C   0  0  0  0  0  0  0  0  0  0  0  0
    3.9738   -0.3732    4.2623 C   0  0  0  0  0  0  0  0  0  0  0  0
    5.1275    0.1043    3.6790 C   0  0  0  0  0  0  0  0  0  0  0  0
    6.4447    0.8729    4.4752 Cl  0  0  0  0  0  0  0  0  0  0  0  0
    5.1599   -0.1459    1.9627 S   0  0  0  0  0  0  0  0  0  0  0  0
    4.5375   -1.8216   -0.5006 H   0  0  0  0  0  0  0  0  0  0  0  0
    3.7507   -0.2270   -0.7430 H   0  0  0  0  0  0  0  0  0  0  0  0
    2.8332   -5.4166   -2.8629 H   0  0  0  0  0  0  0  0  0  0  0  0
    1.4542   -7.7463   -1.7464 H   0  0  0  0  0  0  0  0  0  0  0  0
    2.3815   -8.9494   -2.6849 H   0  0  0  0  0  0  0  0  0  0  0  0
    0.4471   -9.8172   -0.9318 H   0  0  0  0  0  0  0  0  0  0  0  0
    0.5950  -10.5894   -2.5295 H   0  0  0  0  0  0  0  0  0  0  0  0
   -1.3199   -8.3136   -1.7456 H   0  0  0  0  0  0  0  0  0  0  0  0
   -1.7634   -9.8486   -2.5220 H   0  0  0  0  0  0  0  0  0  0  0  0
   -1.3072   -7.5357   -3.9968 H   0  0  0  0  0  0  0  0  0  0  0  0
   -0.8701   -9.1238   -4.6654 H   0  0  0  0  0  0  0  0  0  0  0  0
   -0.4886   -5.1415   -5.5989 H   0  0  0  0  0  0  0  0  0  0  0  0
   -0.9752   -2.8393   -4.7322 H   0  0  0  0  0  0  0  0  0  0  0  0
    2.1294   -1.3930    3.5349 H   0  0  0  0  0  0  0  0  0  0  0  0
    3.7781   -0.3056    5.3322 H   0  0  0  0  0  0  0  0  0  0  0  0
  1  2  2  0
  2  3  1  0
  2 22  1  0
  3  4  1  0
  3 28  1  0
  3 29  1  0
  4  5  1  0
  5  6  2  0
  5  7  1  0
  7  8  2  0
  7 20  1  0
  8  9  1  0
  8 30  1  0
 10  9  1  1
  9 18  2  0
 10 11  2  0
 10 12  2  0
 10 13  1  0
 13 14  1  0
 13 17  1  0
 14 15  1  0
 14 31  1  0
 14 32  1  0
 15 16  1  0
 15 33  1  0
 15 34  1  0
 16 17  1  0
 16 35  1  0
 16 36  1  0
 17 37  1  0
 17 38  1  0
 18 19  1  0
 18 39  1  0
 19 20  2  0
 19 40  1  0
 20 21  1  0
 22 23  2  0
 22 27  1  0
 23 24  1  0
 23 41  1  0
 24 25  2  0
 24 42  1  0
 25 26  1  0
 25 27  1  0
M  END

