
     RDKit          3D

 25 26  0  0  0  0  0  0  0  0999 V2000
    5.0054   -1.7862   -1.0760 N   0  0  0  0  0  0  0  0  0  0  0  0
    4.2431   -0.7720   -0.4911 C   0  0  0  0  0  0  0  0  0  0  0  0
    4.7504    0.4662   -0.1111 C   0  0  0  0  0  0  0  0  0  0  0  0
    3.8914    1.4013    0.4882 C   0  0  0  0  0  0  0  0  0  0  0  0
    4.5044    2.9663    0.9748 Cl  0  0  0  0  0  0  0  0  0  0  0  0
    2.5528    1.0772    0.6750 C   0  0  0  0  0  0  0  0  0  0  0  0
    2.0636   -0.1220    0.3321 N   0  0  0  0  0  0  0  0  0  0  0  0
    2.8628   -1.0292   -0.2131 C   0  0  0  0  0  0  0  0  0  0  0  0
    2.3439   -2.2622   -0.5791 N   0  0  0  0  0  0  0  0  0  0  0  0
    0.9780   -2.6069   -0.2058 C   0  0  0  0  0  0  0  0  0  0  0  0
    0.5924   -3.9327   -0.7678 C   0  0  0  0  0  0  0  0  0  0  0  0
   -0.4186   -4.3606   -1.5827 C   0  0  0  0  0  0  0  0  0  0  0  0
   -0.2450   -5.7781   -1.7379 C   0  0  0  0  0  0  0  0  0  0  0  0
    0.8623   -6.1032   -1.0108 C   0  0  0  0  0  0  0  0  0  0  0  0
    1.3762   -4.9936   -0.4160 O   0  0  0  0  0  0  0  0  0  0  0  0
    5.9419   -1.5049   -1.3502 H   0  0  0  0  0  0  0  0  0  0  0  0
    4.5277   -2.2528   -1.8462 H   0  0  0  0  0  0  0  0  0  0  0  0
    5.7972    0.7206   -0.2926 H   0  0  0  0  0  0  0  0  0  0  0  0
    1.8628    1.7984    1.1233 H   0  0  0  0  0  0  0  0  0  0  0  0
    3.0044   -3.0296   -0.4767 H   0  0  0  0  0  0  0  0  0  0  0  0
    0.2956   -1.8377   -0.5920 H   0  0  0  0  0  0  0  0  0  0  0  0
    0.8479   -2.6015    0.8959 H   0  0  0  0  0  0  0  0  0  0  0  0
   -1.1952   -3.7377   -2.0214 H   0  0  0  0  0  0  0  0  0  0  0  0
   -0.8632   -6.4606   -2.3173 H   0  0  0  0  0  0  0  0  0  0  0  0
    1.3884   -7.0356   -0.8233 H   0  0  0  0  0  0  0  0  0  0  0  0
  1  2  1  0
  1 16  1  0
  1 17  1  0
  2  3  2  0
  2  8  1  0
  3  4  1  0
  3 18  1  0
  4  5  1  0
  4  6  2  0
  6  7  1  0
  6 19  1  0
  7  8  2  0
  8  9  1  0
  9 10  1  0
  9 20  1  0
 10 11  1  0
 10 21  1  0
 10 22  1  0
 11 12  2  0
 11 15  1  0
 12 13  1  0
 12 23  1  0
 13 14  2  0
 13 24  1  0
 14 15  1  0
 14 25  1  0
M  END

