
     RDKit          3D

 35 35  0  0  0  0  0  0  0  0999 V2000
    2.9647    6.4212   -0.6929 C   0  0  0  0  0  0  0  0  0  0  0  0
    2.3416    5.0211   -0.7048 C   0  0  1  0  0  0  0  0  0  0  0  0
    0.9175    5.0435   -1.2705 C   0  0  0  0  0  0  0  0  0  0  0  0
    3.2019    4.0102   -1.4886 C   0  0  0  0  0  0  0  0  0  0  0  0
    4.5476    3.8348   -0.9737 N   0  0  0  0  0  0  0  0  0  0  0  0
    4.8844    2.8240   -0.1315 C   0  0  0  0  0  0  0  0  0  0  0  0
    4.1143    1.9690    0.2711 O   0  0  0  0  0  0  0  0  0  0  0  0
    6.3678    2.7729    0.2648 C   0  0  0  0  0  0  0  0  0  0  0  0
    7.0521    4.0562    0.1404 N   0  0  0  0  0  0  0  0  0  0  0  0
    8.6068    4.1464   -0.4653 S   0  0  1  0  0  0  0  0  0  0  0  0
    8.7042    3.1864   -1.5616 O   0  0  0  0  0  0  0  0  0  0  0  0
    8.9082    5.5633   -0.6362 O   0  0  0  0  0  0  0  0  0  0  0  0
    9.6679    3.5486    0.8955 C   0  0  0  0  0  0  0  0  0  0  0  0
    9.1065    3.4201    2.0871 N   0  0  0  0  0  0  0  0  0  0  0  0
    9.8568    3.0153    3.1162 C   0  0  0  0  0  0  0  0  0  0  0  0
   11.2175    2.7235    2.9812 C   0  0  0  0  0  0  0  0  0  0  0  0
   11.8169    2.8624    1.7274 C   0  0  0  0  0  0  0  0  0  0  0  0
   11.0246    3.2860    0.6650 C   0  0  0  0  0  0  0  0  0  0  0  0
   11.5513    3.4441   -0.5426 F   0  0  0  0  0  0  0  0  0  0  0  0
    2.3599    7.1218   -0.0950 H   0  0  0  0  0  0  0  0  0  0  0  0
    3.0360    6.8338   -1.7148 H   0  0  0  0  0  0  0  0  0  0  0  0
    3.9786    6.4113   -0.2618 H   0  0  0  0  0  0  0  0  0  0  0  0
    2.2929    4.6537    0.3363 H   0  0  0  0  0  0  0  0  0  0  0  0
    0.9113    5.3869   -2.3198 H   0  0  0  0  0  0  0  0  0  0  0  0
    0.2713    5.7262   -0.6960 H   0  0  0  0  0  0  0  0  0  0  0  0
    0.4562    4.0430   -1.2436 H   0  0  0  0  0  0  0  0  0  0  0  0
    3.2681    4.3226   -2.5461 H   0  0  0  0  0  0  0  0  0  0  0  0
    2.7173    3.0230   -1.4603 H   0  0  0  0  0  0  0  0  0  0  0  0
    5.2838    4.4844   -1.2283 H   0  0  0  0  0  0  0  0  0  0  0  0
    6.8569    2.0586   -0.4157 H   0  0  0  0  0  0  0  0  0  0  0  0
    6.4269    2.3598    1.2836 H   0  0  0  0  0  0  0  0  0  0  0  0
    6.9400    4.6949    0.9268 H   0  0  0  0  0  0  0  0  0  0  0  0
    9.3546    2.9195    4.0839 H   0  0  0  0  0  0  0  0  0  0  0  0
   11.8005    2.3936    3.8435 H   0  0  0  0  0  0  0  0  0  0  0  0
   12.8753    2.6528    1.5581 H   0  0  0  0  0  0  0  0  0  0  0  0
  1  2  1  0
  1 20  1  0
  1 21  1  0
  1 22  1  0
  2  3  1  0
  2  4  1  0
  2 23  1  1
  3 24  1  0
  3 25  1  0
  3 26  1  0
  4  5  1  0
  4 27  1  0
  4 28  1  0
  5  6  1  0
  5 29  1  0
  6  7  2  0
  6  8  1  0
  8  9  1  0
  8 30  1  0
  8 31  1  0
 10  9  1  1
  9 32  1  0
 10 11  2  0
 10 12  2  0
 10 13  1  0
 13 14  2  0
 13 18  1  0
 14 15  1  0
 15 16  2  0
 15 33  1  0
 16 17  1  0
 16 34  1  0
 17 18  2  0
 17 35  1  0
 18 19  1  0
M  END

