
     RDKit          3D

 33 34  0  0  0  0  0  0  0  0999 V2000
    1.0810   -0.2848    0.0221 C   0  0  0  0  0  0  0  0  0  0  0  0
    2.5841   -0.1542    0.0559 C   0  0  0  0  0  0  0  0  0  0  0  0
    3.2045    1.0928    0.0950 C   0  0  0  0  0  0  0  0  0  0  0  0
    4.6079    1.2364    0.1219 C   0  0  0  0  0  0  0  0  0  0  0  0
    5.1590    2.4985    0.2231 N   0  0  0  0  0  0  0  0  0  0  0  0
    5.4391    0.0862    0.0858 C   0  0  0  0  0  0  0  0  0  0  0  0
    6.9374    0.2674    0.0881 C   0  0  0  0  0  0  0  0  0  0  0  0
    4.7842   -1.1614    0.0721 C   0  0  0  0  0  0  0  0  0  0  0  0
    5.7099   -2.7132    0.0860 S   0  0  1  0  0  0  0  0  0  0  0  0
    4.7475   -3.8111    0.1746 O   0  0  0  0  0  0  0  0  0  0  0  0
    6.7472   -2.7006   -0.9417 O   0  0  0  0  0  0  0  0  0  0  0  0
    6.5840   -2.7135    1.5501 N   0  0  0  0  0  0  0  0  0  0  0  0
    6.0348   -2.6710    2.8334 C   0  0  0  0  0  0  0  0  0  0  0  0
    4.8555   -3.3613    3.1958 C   0  0  0  0  0  0  0  0  0  0  0  0
    4.4576   -3.2552    4.5121 C   0  0  0  0  0  0  0  0  0  0  0  0
    5.2701   -2.4882    5.3690 C   0  0  0  0  0  0  0  0  0  0  0  0
    4.8269   -2.3174    7.0471 Cl  0  0  0  0  0  0  0  0  0  0  0  0
    6.3713   -1.8806    4.9756 N   0  0  0  0  0  0  0  0  0  0  0  0
    6.7483   -1.9578    3.7085 N   0  0  0  0  0  0  0  0  0  0  0  0
    3.3948   -1.2997    0.0540 C   0  0  0  0  0  0  0  0  0  0  0  0
    0.5872    0.6978    0.0226 H   0  0  0  0  0  0  0  0  0  0  0  0
    0.7113   -0.8494    0.8940 H   0  0  0  0  0  0  0  0  0  0  0  0
    0.7502   -0.8302   -0.8771 H   0  0  0  0  0  0  0  0  0  0  0  0
    2.5888    1.9973    0.1122 H   0  0  0  0  0  0  0  0  0  0  0  0
    4.5675    3.2878   -0.0028 H   0  0  0  0  0  0  0  0  0  0  0  0
    6.1356    2.6244   -0.0049 H   0  0  0  0  0  0  0  0  0  0  0  0
    7.2337    1.0624   -0.6180 H   0  0  0  0  0  0  0  0  0  0  0  0
    7.4649   -0.6341   -0.2412 H   0  0  0  0  0  0  0  0  0  0  0  0
    7.3085    0.5628    1.0858 H   0  0  0  0  0  0  0  0  0  0  0  0
    7.4714   -2.2155    1.4841 H   0  0  0  0  0  0  0  0  0  0  0  0
    4.3115   -3.9542    2.4609 H   0  0  0  0  0  0  0  0  0  0  0  0
    3.5630   -3.7529    4.8888 H   0  0  0  0  0  0  0  0  0  0  0  0
    2.9564   -2.2973    0.0320 H   0  0  0  0  0  0  0  0  0  0  0  0
  1  2  1  0
  1 21  1  0
  1 22  1  0
  1 23  1  0
  2  3  2  0
  2 20  1  0
  3  4  1  0
  3 24  1  0
  4  5  1  0
  4  6  2  0
  5 25  1  0
  5 26  1  0
  6  7  1  0
  6  8  1  0
  7 27  1  0
  7 28  1  0
  7 29  1  0
  8  9  1  0
  8 20  2  0
  9 10  2  0
  9 11  2  0
  9 12  1  1
 12 13  1  0
 12 30  1  0
 13 14  2  0
 13 19  1  0
 14 15  1  0
 14 31  1  0
 15 16  2  0
 15 32  1  0
 16 17  1  0
 16 18  1  0
 18 19  2  0
 20 33  1  0
M  END

