
     RDKit          3D

 40 40  0  0  0  0  0  0  0  0999 V2000
    7.5921    1.6034   -2.8112 C   0  0  0  0  0  0  0  0  0  0  0  0
    6.7620    0.8279   -1.7877 C   0  0  0  0  0  0  0  0  0  0  0  0
    7.3704    0.8388   -0.3833 C   0  0  0  0  0  0  0  0  0  0  0  0
    6.5601    0.0456    0.6543 C   0  0  1  0  0  0  0  0  0  0  0  0
    6.4545   -1.3938    0.4115 N   0  0  0  0  0  0  0  0  0  0  0  0
    7.0824    0.3347    2.0838 C   0  0  0  0  0  0  0  0  0  0  0  0
    7.4790    1.4450    2.4003 O   0  0  0  0  0  0  0  0  0  0  0  0
    7.0044   -0.7504    2.9127 N   0  0  0  0  0  0  0  0  0  0  0  0
    7.3415   -0.8485    4.2650 C   0  0  0  0  0  0  0  0  0  0  0  0
    7.7566    0.2572    5.0317 C   0  0  0  0  0  0  0  0  0  0  0  0
    8.0756    0.1196    6.3875 C   0  0  0  0  0  0  0  0  0  0  0  0
    8.4023    1.3063    7.2643 C   0  0  0  0  0  0  0  0  0  0  0  0
    7.8967    1.3807    8.3767 O   0  0  0  0  0  0  0  0  0  0  0  0
    9.2343    2.2861    6.7716 N   0  0  0  0  0  0  0  0  0  0  0  0
   10.1353    2.1457    5.6406 C   0  0  0  0  0  0  0  0  0  0  0  0
    9.3952    3.5045    7.5469 C   0  0  0  0  0  0  0  0  0  0  0  0
    7.9598   -1.1327    7.0084 C   0  0  0  0  0  0  0  0  0  0  0  0
    7.5670   -2.2426    6.2646 C   0  0  0  0  0  0  0  0  0  0  0  0
    7.2633   -2.1025    4.9099 C   0  0  0  0  0  0  0  0  0  0  0  0
    6.7618   -3.5188    4.0014 Cl  0  0  0  0  0  0  0  0  0  0  0  0
    7.1247    1.5850   -3.8086 H   0  0  0  0  0  0  0  0  0  0  0  0
    8.6051    1.1788   -2.9100 H   0  0  0  0  0  0  0  0  0  0  0  0
    7.7062    2.6591   -2.5145 H   0  0  0  0  0  0  0  0  0  0  0  0
    6.6397   -0.2156   -2.1304 H   0  0  0  0  0  0  0  0  0  0  0  0
    5.7416    1.2513   -1.7421 H   0  0  0  0  0  0  0  0  0  0  0  0
    7.4701    1.8722   -0.0173 H   0  0  0  0  0  0  0  0  0  0  0  0
    8.3980    0.4282   -0.4164 H   0  0  0  0  0  0  0  0  0  0  0  0
    5.5292    0.4469    0.6606 H   0  0  0  0  0  0  0  0  0  0  0  0
    7.3258   -1.7690    0.0338 H   0  0  0  0  0  0  0  0  0  0  0  0
    5.7183   -1.6155   -0.2549 H   0  0  0  0  0  0  0  0  0  0  0  0
    6.6621   -1.5903    2.4382 H   0  0  0  0  0  0  0  0  0  0  0  0
    7.8026    1.2225    4.5340 H   0  0  0  0  0  0  0  0  0  0  0  0
   10.1706    1.1094    5.2880 H   0  0  0  0  0  0  0  0  0  0  0  0
   11.1568    2.4335    5.9467 H   0  0  0  0  0  0  0  0  0  0  0  0
    9.8417    2.7907    4.7930 H   0  0  0  0  0  0  0  0  0  0  0  0
    8.6250    3.5366    8.3255 H   0  0  0  0  0  0  0  0  0  0  0  0
    9.3013    4.3864    6.8902 H   0  0  0  0  0  0  0  0  0  0  0  0
   10.3878    3.5439    8.0330 H   0  0  0  0  0  0  0  0  0  0  0  0
    8.1667   -1.2219    8.0758 H   0  0  0  0  0  0  0  0  0  0  0  0
    7.4831   -3.2275    6.7267 H   0  0  0  0  0  0  0  0  0  0  0  0
  1  2  1  0
  1 21  1  0
  1 22  1  0
  1 23  1  0
  2  3  1  0
  2 24  1  0
  2 25  1  0
  3  4  1  0
  3 26  1  0
  3 27  1  0
  4  5  1  0
  4  6  1  0
  4 28  1  1
  5 29  1  0
  5 30  1  0
  6  7  2  0
  6  8  1  0
  8  9  1  0
  8 31  1  0
  9 10  2  0
  9 19  1  0
 10 11  1  0
 10 32  1  0
 11 12  1  0
 11 17  2  0
 12 13  2  0
 12 14  1  0
 14 15  1  0
 14 16  1  0
 15 33  1  0
 15 34  1  0
 15 35  1  0
 16 36  1  0
 16 37  1  0
 16 38  1  0
 17 18  1  0
 17 39  1  0
 18 19  2  0
 18 40  1  0
 19 20  1  0
M  END

