
     RDKit          3D

 31 31  0  0  0  0  0  0  0  0999 V2000
    1.0501    0.1118    0.1814 C   0  0  0  0  0  0  0  0  0  0  0  0
    2.4818    0.2161    0.7091 C   0  0  0  0  0  0  0  0  0  0  0  0
    3.1982   -1.1346    0.7857 C   0  0  0  0  0  0  0  0  0  0  0  0
    4.6223   -1.0330    1.3110 C   0  0  0  0  0  0  0  0  0  0  0  0
    5.1963   -2.3197    1.3439 O   0  0  0  0  0  0  0  0  0  0  0  0
    6.5151   -2.3601    1.8214 C   0  0  0  0  0  0  0  0  0  0  0  0
    6.9591   -3.8236    1.8370 C   0  0  0  0  0  0  0  0  0  0  0  0
    8.3378   -4.0017    2.2455 N   0  0  0  0  0  0  0  0  0  0  0  0
    8.7385   -4.0990    3.5402 C   0  0  0  0  0  0  0  0  0  0  0  0
    7.8319   -4.0360    4.5198 N   0  0  0  0  0  0  0  0  0  0  0  0
    8.2527   -4.1585    5.7827 C   0  0  0  0  0  0  0  0  0  0  0  0
    9.5940   -4.3376    6.1041 C   0  0  0  0  0  0  0  0  0  0  0  0
   10.5173   -4.3944    5.1268 N   0  0  0  0  0  0  0  0  0  0  0  0
   10.1159   -4.2823    3.8967 C   0  0  0  0  0  0  0  0  0  0  0  0
   11.3183   -4.3545    2.6032 Cl  0  0  0  0  0  0  0  0  0  0  0  0
    0.5624    1.0986    0.1384 H   0  0  0  0  0  0  0  0  0  0  0  0
    0.4330   -0.5375    0.8245 H   0  0  0  0  0  0  0  0  0  0  0  0
    1.0282   -0.3157   -0.8349 H   0  0  0  0  0  0  0  0  0  0  0  0
    2.4706    0.6825    1.7112 H   0  0  0  0  0  0  0  0  0  0  0  0
    3.0613    0.9027    0.0651 H   0  0  0  0  0  0  0  0  0  0  0  0
    3.2279   -1.6062   -0.2123 H   0  0  0  0  0  0  0  0  0  0  0  0
    2.6361   -1.8268    1.4369 H   0  0  0  0  0  0  0  0  0  0  0  0
    4.6274   -0.5827    2.3268 H   0  0  0  0  0  0  0  0  0  0  0  0
    5.2241   -0.3584    0.6640 H   0  0  0  0  0  0  0  0  0  0  0  0
    6.5864   -1.9408    2.8453 H   0  0  0  0  0  0  0  0  0  0  0  0
    7.1948   -1.7650    1.1737 H   0  0  0  0  0  0  0  0  0  0  0  0
    6.8321   -4.2452    0.8278 H   0  0  0  0  0  0  0  0  0  0  0  0
    6.3048   -4.3829    2.5211 H   0  0  0  0  0  0  0  0  0  0  0  0
    9.0689   -4.0154    1.5454 H   0  0  0  0  0  0  0  0  0  0  0  0
    7.4892   -4.1063    6.5668 H   0  0  0  0  0  0  0  0  0  0  0  0
    9.9382   -4.4333    7.1375 H   0  0  0  0  0  0  0  0  0  0  0  0
  1  2  1  0
  1 16  1  0
  1 17  1  0
  1 18  1  0
  2  3  1  0
  2 19  1  0
  2 20  1  0
  3  4  1  0
  3 21  1  0
  3 22  1  0
  4  5  1  0
  4 23  1  0
  4 24  1  0
  5  6  1  0
  6  7  1  0
  6 25  1  0
  6 26  1  0
  7  8  1  0
  7 27  1  0
  7 28  1  0
  8  9  1  0
  8 29  1  0
  9 10  2  0
  9 14  1  0
 10 11  1  0
 11 12  2  0
 11 30  1  0
 12 13  1  0
 12 31  1  0
 13 14  2  0
 14 15  1  0
M  END

