
     RDKit          3D

 38 39  0  0  0  0  0  0  0  0999 V2000
    2.9300    0.9508    1.8019 C   0  0  0  0  0  0  0  0  0  0  0  0
    3.3227    0.2533    0.4912 C   0  0  1  0  0  0  0  0  0  0  0  0
    2.5171   -0.9323    0.1898 N   0  0  0  0  0  0  0  0  0  0  0  0
    3.3389    1.1775   -0.7296 C   0  0  0  0  0  0  0  0  0  0  0  0
    3.3370    2.5781   -0.6299 C   0  0  0  0  0  0  0  0  0  0  0  0
    3.4043    3.3867   -1.7703 C   0  0  0  0  0  0  0  0  0  0  0  0
    3.4670    2.8153   -3.0414 C   0  0  0  0  0  0  0  0  0  0  0  0
    3.4542    1.4204   -3.1416 C   0  0  0  0  0  0  0  0  0  0  0  0
    3.5066    0.6500   -4.7703 S   0  0  1  0  0  0  0  0  0  0  0  0
    3.9464    1.6740   -5.7205 O   0  0  0  0  0  0  0  0  0  0  0  0
    4.1787   -0.6398   -4.6276 O   0  0  0  0  0  0  0  0  0  0  0  0
    1.9285    0.2774   -5.1811 N   0  0  0  0  0  0  0  0  0  0  0  0
    0.9593    1.3046   -5.5395 C   0  0  0  0  0  0  0  0  0  0  0  0
   -0.1096    0.7649   -6.4709 C   0  0  0  0  0  0  0  0  0  0  0  0
   -1.4600    1.0746   -6.2604 C   0  0  0  0  0  0  0  0  0  0  0  0
   -2.4448    0.6104   -7.1389 C   0  0  0  0  0  0  0  0  0  0  0  0
   -2.0882   -0.1771   -8.2361 C   0  0  0  0  0  0  0  0  0  0  0  0
   -0.7425   -0.4970   -8.4499 C   0  0  0  0  0  0  0  0  0  0  0  0
    0.2396   -0.0300   -7.5743 C   0  0  0  0  0  0  0  0  0  0  0  0
    3.3988    0.6045   -2.0106 C   0  0  0  0  0  0  0  0  0  0  0  0
    2.9207    0.2163    2.6226 H   0  0  0  0  0  0  0  0  0  0  0  0
    1.9223    1.3943    1.7327 H   0  0  0  0  0  0  0  0  0  0  0  0
    3.6350    1.7478    2.0865 H   0  0  0  0  0  0  0  0  0  0  0  0
    4.3607   -0.1115    0.6129 H   0  0  0  0  0  0  0  0  0  0  0  0
    1.5260   -0.6859    0.1556 H   0  0  0  0  0  0  0  0  0  0  0  0
    2.6212   -1.6287    0.9275 H   0  0  0  0  0  0  0  0  0  0  0  0
    3.2911    3.0584    0.3484 H   0  0  0  0  0  0  0  0  0  0  0  0
    3.4137    4.4743   -1.6629 H   0  0  0  0  0  0  0  0  0  0  0  0
    3.5427    3.4258   -3.9425 H   0  0  0  0  0  0  0  0  0  0  0  0
    1.5826   -0.5473   -4.6947 H   0  0  0  0  0  0  0  0  0  0  0  0
    1.5258    2.1013   -6.0483 H   0  0  0  0  0  0  0  0  0  0  0  0
    0.4806    1.7613   -4.6521 H   0  0  0  0  0  0  0  0  0  0  0  0
   -1.7458    1.6860   -5.3992 H   0  0  0  0  0  0  0  0  0  0  0  0
   -3.4939    0.8608   -6.9605 H   0  0  0  0  0  0  0  0  0  0  0  0
   -2.8560   -0.5445   -8.9219 H   0  0  0  0  0  0  0  0  0  0  0  0
   -0.4565   -1.1143   -9.3057 H   0  0  0  0  0  0  0  0  0  0  0  0
    1.2901   -0.2840   -7.7344 H   0  0  0  0  0  0  0  0  0  0  0  0
    3.4059   -0.4818   -2.1077 H   0  0  0  0  0  0  0  0  0  0  0  0
  1  2  1  0
  1 21  1  0
  1 22  1  0
  1 23  1  0
  2  3  1  0
  2  4  1  0
  2 24  1  1
  3 25  1  0
  3 26  1  0
  4  5  2  0
  4 20  1  0
  5  6  1  0
  5 27  1  0
  6  7  2  0
  6 28  1  0
  7  8  1  0
  7 29  1  0
  8  9  1  0
  8 20  2  0
  9 10  2  0
  9 11  2  0
  9 12  1  6
 12 13  1  0
 12 30  1  0
 13 14  1  0
 13 31  1  0
 13 32  1  0
 14 15  2  0
 14 19  1  0
 15 16  1  0
 15 33  1  0
 16 17  2  0
 16 34  1  0
 17 18  1  0
 17 35  1  0
 18 19  2  0
 18 36  1  0
 19 37  1  0
 20 38  1  0
M  END

