
     RDKit          3D

 51 54  0  0  0  0  0  0  0  0999 V2000
    3.6979   -0.0510    1.4008 C   0  0  0  0  0  0  0  0  0  0  0  0
    2.9407   -0.0694    0.0664 C   0  0  1  0  0  0  0  0  0  0  0  0
    1.4311   -0.2832    0.2367 C   0  0  0  0  0  0  0  0  0  0  0  0
    3.2374    1.1194   -0.7442 N   0  0  0  0  0  0  0  0  0  0  0  0
    3.9095    1.1467   -1.9677 C   0  0  0  0  0  0  0  0  0  0  0  0
    4.3921   -0.0808   -2.6836 C   0  0  0  0  0  0  0  0  0  0  0  0
    3.3138   -0.8266   -3.4913 C   0  0  1  0  0  0  0  0  0  0  0  0
    2.6703   -0.0227   -4.6336 C   0  0  0  0  0  0  0  0  0  0  0  0
    1.9464   -1.0903   -5.4745 C   0  0  0  0  0  0  0  0  0  0  0  0
    2.7842   -2.3922   -5.3084 C   0  0  0  0  0  0  0  0  0  0  0  0
    3.8417   -2.0764   -4.2220 C   0  0  0  0  0  0  0  0  0  0  0  0
    4.0525    2.3576   -2.4458 N   0  0  0  0  0  0  0  0  0  0  0  0
    3.4624    3.1966   -1.5226 C   0  0  0  0  0  0  0  0  0  0  0  0
    3.3316    4.5911   -1.5283 C   0  0  0  0  0  0  0  0  0  0  0  0
    2.6904    5.2144   -0.4596 C   0  0  0  0  0  0  0  0  0  0  0  0
    2.1860    4.4452    0.6071 C   0  0  0  0  0  0  0  0  0  0  0  0
    1.5404    5.0097    1.6980 O   0  0  0  0  0  0  0  0  0  0  0  0
    1.3600    6.3523    1.8024 C   0  0  0  0  0  0  0  0  0  0  0  0
    0.1845    6.9635    1.3259 C   0  0  0  0  0  0  0  0  0  0  0  0
   -1.1272    5.9019    0.4520 Br  0  0  0  0  0  0  0  0  0  0  0  0
   -0.0418    8.3309    1.5006 C   0  0  0  0  0  0  0  0  0  0  0  0
    0.9123    9.1092    2.1586 C   0  0  0  0  0  0  0  0  0  0  0  0
    2.0834    8.5277    2.6480 C   0  0  0  0  0  0  0  0  0  0  0  0
    2.3015    7.1596    2.4690 C   0  0  0  0  0  0  0  0  0  0  0  0
    3.8848    6.3663    3.1583 Br  0  0  0  0  0  0  0  0  0  0  0  0
    2.2992    3.0553    0.6443 C   0  0  0  0  0  0  0  0  0  0  0  0
    2.9431    2.4416   -0.4374 C   0  0  0  0  0  0  0  0  0  0  0  0
    3.5329   -0.9964    1.9409 H   0  0  0  0  0  0  0  0  0  0  0  0
    3.3649    0.7711    2.0514 H   0  0  0  0  0  0  0  0  0  0  0  0
    4.7796    0.0663    1.2348 H   0  0  0  0  0  0  0  0  0  0  0  0
    3.3257   -0.9181   -0.5160 H   0  0  0  0  0  0  0  0  0  0  0  0
    0.9644    0.5194    0.8263 H   0  0  0  0  0  0  0  0  0  0  0  0
    1.2428   -1.2355    0.7566 H   0  0  0  0  0  0  0  0  0  0  0  0
    0.9281   -0.3202   -0.7416 H   0  0  0  0  0  0  0  0  0  0  0  0
    4.8714   -0.7803   -1.9773 H   0  0  0  0  0  0  0  0  0  0  0  0
    5.1792    0.2619   -3.3723 H   0  0  0  0  0  0  0  0  0  0  0  0
    2.5071   -1.1454   -2.8030 H   0  0  0  0  0  0  0  0  0  0  0  0
    3.4689    0.4625   -5.2223 H   0  0  0  0  0  0  0  0  0  0  0  0
    2.0059    0.7810   -4.2826 H   0  0  0  0  0  0  0  0  0  0  0  0
    1.8351   -0.7882   -6.5273 H   0  0  0  0  0  0  0  0  0  0  0  0
    0.9268   -1.2446   -5.0843 H   0  0  0  0  0  0  0  0  0  0  0  0
    3.2626   -2.6976   -6.2519 H   0  0  0  0  0  0  0  0  0  0  0  0
    2.1413   -3.2325   -5.0022 H   0  0  0  0  0  0  0  0  0  0  0  0
    4.8098   -1.8274   -4.6911 H   0  0  0  0  0  0  0  0  0  0  0  0
    4.0274   -2.9231   -3.5414 H   0  0  0  0  0  0  0  0  0  0  0  0
    3.7299    5.1730   -2.3618 H   0  0  0  0  0  0  0  0  0  0  0  0
    2.5785    6.2992   -0.4469 H   0  0  0  0  0  0  0  0  0  0  0  0
   -0.9636    8.7757    1.1233 H   0  0  0  0  0  0  0  0  0  0  0  0
    0.7381   10.1786    2.2978 H   0  0  0  0  0  0  0  0  0  0  0  0
    2.8296    9.1271    3.1714 H   0  0  0  0  0  0  0  0  0  0  0  0
    1.8889    2.5188    1.4983 H   0  0  0  0  0  0  0  0  0  0  0  0
  1  2  1  0
  1 28  1  0
  1 29  1  0
  1 30  1  0
  2  3  1  0
  2  4  1  0
  2 31  1  6
  3 32  1  0
  3 33  1  0
  3 34  1  0
  4  5  1  0
  4 27  1  0
  5  6  1  0
  5 12  2  0
  6  7  1  0
  6 35  1  0
  6 36  1  0
  7  8  1  0
  7 11  1  0
  7 37  1  1
  8  9  1  0
  8 38  1  0
  8 39  1  0
  9 10  1  0
  9 40  1  0
  9 41  1  0
 10 11  1  0
 10 42  1  0
 10 43  1  0
 11 44  1  0
 11 45  1  0
 12 13  1  0
 13 14  1  0
 13 27  2  0
 14 15  2  0
 14 46  1  0
 15 16  1  0
 15 47  1  0
 16 17  1  0
 16 26  2  0
 17 18  1  0
 18 19  2  0
 18 24  1  0
 19 20  1  0
 19 21  1  0
 21 22  2  0
 21 48  1  0
 22 23  1  0
 22 49  1  0
 23 24  2  0
 23 50  1  0
 24 25  1  0
 26 27  1  0
 26 51  1  0
M  END

