
     RDKit          3D

 44 46  0  0  0  0  0  0  0  0999 V2000
    0.2301    0.4307    0.2746 C   0  0  0  0  0  0  0  0  0  0  0  0
    1.6786    0.3272    0.2033 N   0  0  0  0  0  0  0  0  0  0  0  0
    2.2546    1.1658   -0.8436 C   0  0  0  0  0  0  0  0  0  0  0  0
    1.8792    0.7132   -2.2252 C   0  0  0  0  0  0  0  0  0  0  0  0
    1.3996    1.5118   -3.2000 C   0  0  0  0  0  0  0  0  0  0  0  0
    1.0868    1.0719   -4.5462 C   0  0  0  0  0  0  0  0  0  0  0  0
    0.6102    1.8884   -5.5151 C   0  0  0  0  0  0  0  0  0  0  0  0
    0.2658    1.5364   -6.8958 C   0  0  0  0  0  0  0  0  0  0  0  0
    0.3970    0.2322   -7.4204 C   0  0  0  0  0  0  0  0  0  0  0  0
    0.0540   -0.0477   -8.7415 C   0  0  0  0  0  0  0  0  0  0  0  0
   -0.4301    0.9648   -9.5797 C   0  0  0  0  0  0  0  0  0  0  0  0
   -0.5668    2.2623   -9.0790 C   0  0  0  0  0  0  0  0  0  0  0  0
   -0.2230    2.5420   -7.7555 C   0  0  0  0  0  0  0  0  0  0  0  0
    2.3150    0.5128    1.4996 C   0  0  0  0  0  0  0  0  0  0  0  0
    2.1093   -0.6516    2.4482 C   0  0  0  0  0  0  0  0  0  0  0  0
    2.0154   -1.9794    2.0153 C   0  0  0  0  0  0  0  0  0  0  0  0
    1.8671   -3.0505    2.9185 C   0  0  0  0  0  0  0  0  0  0  0  0
    1.8083   -2.8410    4.2951 C   0  0  0  0  0  0  0  0  0  0  0  0
    1.8997   -1.5197    4.7661 C   0  0  0  0  0  0  0  0  0  0  0  0
    1.8811   -0.8766    6.0607 C   0  0  0  0  0  0  0  0  0  0  0  0
    2.0148    0.4549    5.8187 C   0  0  0  0  0  0  0  0  0  0  0  0
    2.1185    0.7281    4.4844 O   0  0  0  0  0  0  0  0  0  0  0  0
    2.0464   -0.4710    3.8335 C   0  0  0  0  0  0  0  0  0  0  0  0
   -0.2157    0.2054   -0.7054 H   0  0  0  0  0  0  0  0  0  0  0  0
   -0.1119    1.4469    0.5785 H   0  0  0  0  0  0  0  0  0  0  0  0
   -0.1657   -0.2912    1.0039 H   0  0  0  0  0  0  0  0  0  0  0  0
    3.3540    1.1009   -0.7426 H   0  0  0  0  0  0  0  0  0  0  0  0
    1.9937    2.2429   -0.7179 H   0  0  0  0  0  0  0  0  0  0  0  0
    2.0414   -0.3526   -2.4303 H   0  0  0  0  0  0  0  0  0  0  0  0
    1.2300    2.5738   -2.9789 H   0  0  0  0  0  0  0  0  0  0  0  0
    1.2571    0.0106   -4.7594 H   0  0  0  0  0  0  0  0  0  0  0  0
    0.4566    2.9430   -5.2562 H   0  0  0  0  0  0  0  0  0  0  0  0
    0.7726   -0.5742   -6.7867 H   0  0  0  0  0  0  0  0  0  0  0  0
    0.1647   -1.0659   -9.1239 H   0  0  0  0  0  0  0  0  0  0  0  0
   -0.6981    0.7413  -10.6153 H   0  0  0  0  0  0  0  0  0  0  0  0
   -0.9433    3.0618   -9.7225 H   0  0  0  0  0  0  0  0  0  0  0  0
   -0.3330    3.5602   -7.3714 H   0  0  0  0  0  0  0  0  0  0  0  0
    1.9861    1.4498    2.0012 H   0  0  0  0  0  0  0  0  0  0  0  0
    3.4000    0.6299    1.3291 H   0  0  0  0  0  0  0  0  0  0  0  0
    2.0491   -2.1677    0.9401 H   0  0  0  0  0  0  0  0  0  0  0  0
    1.7965   -4.0679    2.5251 H   0  0  0  0  0  0  0  0  0  0  0  0
    1.6927   -3.6783    4.9873 H   0  0  0  0  0  0  0  0  0  0  0  0
    1.7816   -1.3478    7.0363 H   0  0  0  0  0  0  0  0  0  0  0  0
    2.0537    1.3195    6.4773 H   0  0  0  0  0  0  0  0  0  0  0  0
  1  2  1  0
  1 24  1  0
  1 25  1  0
  1 26  1  0
  2  3  1  0
  2 14  1  0
  3  4  1  0
  3 27  1  0
  3 28  1  0
  4  5  2  0
  4 29  1  0
  5  6  1  0
  5 30  1  0
  6  7  2  0
  6 31  1  0
  7  8  1  0
  7 32  1  0
  8  9  2  0
  8 13  1  0
  9 10  1  0
  9 33  1  0
 10 11  2  0
 10 34  1  0
 11 12  1  0
 11 35  1  0
 12 13  2  0
 12 36  1  0
 13 37  1  0
 14 15  1  0
 14 38  1  0
 14 39  1  0
 15 16  2  0
 15 23  1  0
 16 17  1  0
 16 40  1  0
 17 18  2  0
 17 41  1  0
 18 19  1  0
 18 42  1  0
 19 20  1  0
 19 23  2  0
 20 21  2  0
 20 43  1  0
 21 22  1  0
 21 44  1  0
 22 23  1  0
M  END

