
     RDKit          3D

 58 61  0  0  0  0  0  0  0  0999 V2000
   10.8408    3.5650    5.9782 C   0  0  0  0  0  0  0  0  0  0  0  0
    9.5142    4.2299    5.7063 C   0  0  0  0  0  0  0  0  0  0  0  0
    9.0911    4.4429    4.3682 C   0  0  0  0  0  0  0  0  0  0  0  0
    7.8614    5.0604    4.1194 C   0  0  0  0  0  0  0  0  0  0  0  0
    7.3050    5.3349    2.9236 N   0  0  0  0  0  0  0  0  0  0  0  0
    7.9630    5.0215    1.6721 C   0  0  0  0  0  0  0  0  0  0  0  0
    7.1167    5.4229    0.4630 C   0  0  0  0  0  0  0  0  0  0  0  0
    6.9503    6.8563    0.2785 N   0  0  0  0  0  0  0  0  0  0  0  0
    5.9635    7.5538    0.9114 C   0  0  0  0  0  0  0  0  0  0  0  0
    5.2281    7.0290    1.7401 O   0  0  0  0  0  0  0  0  0  0  0  0
    5.8015    9.0077    0.4878 C   0  0  2  0  0  0  0  0  0  0  0  0
    5.5552    9.9302    1.6937 C   0  0  0  0  0  0  0  0  0  0  0  0
    5.2564   11.3656    1.2419 C   0  0  0  0  0  0  0  0  0  0  0  0
    4.1340   11.4108    0.1981 C   0  0  0  0  0  0  0  0  0  0  0  0
    4.4242   10.5036   -0.9143 N   0  0  0  0  0  0  0  0  0  0  0  0
    4.7480   11.0275   -2.1441 C   0  0  0  0  0  0  0  0  0  0  0  0
    4.7338   12.2301   -2.3628 O   0  0  0  0  0  0  0  0  0  0  0  0
    5.1595   10.0557   -3.2598 C   0  0  0  0  0  0  0  0  0  0  0  0
    6.6016    9.5906   -3.1441 C   0  0  0  0  0  0  0  0  0  0  0  0
    6.9436    8.2363   -3.2803 C   0  0  0  0  0  0  0  0  0  0  0  0
    8.2756    7.8166   -3.1772 C   0  0  0  0  0  0  0  0  0  0  0  0
    9.2882    8.7490   -2.9307 C   0  0  0  0  0  0  0  0  0  0  0  0
    8.9591   10.1030   -2.7991 C   0  0  0  0  0  0  0  0  0  0  0  0
    7.6301   10.5197   -2.9074 C   0  0  0  0  0  0  0  0  0  0  0  0
    4.6186    9.1227   -0.5066 C   0  0  0  0  0  0  0  0  0  0  0  0
    7.1603    5.4129    5.2405 N   0  0  0  0  0  0  0  0  0  0  0  0
    5.9527    6.0201    5.2715 N   0  0  0  0  0  0  0  0  0  0  0  0
    5.7458    6.1245    6.5826 C   0  0  0  0  0  0  0  0  0  0  0  0
    6.7107    5.6400    7.3911 N   0  0  0  0  0  0  0  0  0  0  0  0
    7.6274    5.1787    6.5400 C   0  0  0  0  0  0  0  0  0  0  0  0
    8.8049    4.5869    6.7705 N   0  0  0  0  0  0  0  0  0  0  0  0
   11.3674    3.2833    5.0555 H   0  0  0  0  0  0  0  0  0  0  0  0
   10.6874    2.6636    6.5924 H   0  0  0  0  0  0  0  0  0  0  0  0
   11.4840    4.2405    6.5644 H   0  0  0  0  0  0  0  0  0  0  0  0
    9.7202    4.1267    3.5386 H   0  0  0  0  0  0  0  0  0  0  0  0
    6.4019    5.8209    2.9077 H   0  0  0  0  0  0  0  0  0  0  0  0
    8.1603    3.9342    1.6060 H   0  0  0  0  0  0  0  0  0  0  0  0
    8.9473    5.5254    1.6136 H   0  0  0  0  0  0  0  0  0  0  0  0
    6.1182    4.9652    0.5523 H   0  0  0  0  0  0  0  0  0  0  0  0
    7.5925    5.0154   -0.4414 H   0  0  0  0  0  0  0  0  0  0  0  0
    7.5225    7.3313   -0.4116 H   0  0  0  0  0  0  0  0  0  0  0  0
    6.7098    9.3359   -0.0460 H   0  0  0  0  0  0  0  0  0  0  0  0
    6.4265    9.9103    2.3686 H   0  0  0  0  0  0  0  0  0  0  0  0
    4.7084    9.5195    2.2685 H   0  0  0  0  0  0  0  0  0  0  0  0
    6.1632   11.8195    0.8053 H   0  0  0  0  0  0  0  0  0  0  0  0
    4.9766   11.9861    2.1090 H   0  0  0  0  0  0  0  0  0  0  0  0
    4.0098   12.4172   -0.2182 H   0  0  0  0  0  0  0  0  0  0  0  0
    3.1777   11.1008    0.6578 H   0  0  0  0  0  0  0  0  0  0  0  0
    5.0309   10.6348   -4.1863 H   0  0  0  0  0  0  0  0  0  0  0  0
    4.4842    9.1893   -3.3186 H   0  0  0  0  0  0  0  0  0  0  0  0
    6.1597    7.4994   -3.4797 H   0  0  0  0  0  0  0  0  0  0  0  0
    8.5226    6.7588   -3.3047 H   0  0  0  0  0  0  0  0  0  0  0  0
   10.3293    8.4253   -2.8537 H   0  0  0  0  0  0  0  0  0  0  0  0
    9.7443   10.8410   -2.6158 H   0  0  0  0  0  0  0  0  0  0  0  0
    7.3773   11.5789   -2.8099 H   0  0  0  0  0  0  0  0  0  0  0  0
    4.7913    8.4836   -1.3789 H   0  0  0  0  0  0  0  0  0  0  0  0
    3.7045    8.7556   -0.0066 H   0  0  0  0  0  0  0  0  0  0  0  0
    4.8315    6.5836    6.9614 H   0  0  0  0  0  0  0  0  0  0  0  0
  1  2  1  0
  1 32  1  0
  1 33  1  0
  1 34  1  0
  2  3  1  0
  2 31  2  0
  3  4  2  0
  3 35  1  0
  4  5  1  0
  4 26  1  0
  5  6  1  0
  5 36  1  0
  6  7  1  0
  6 37  1  0
  6 38  1  0
  7  8  1  0
  7 39  1  0
  7 40  1  0
  8  9  1  0
  8 41  1  0
  9 10  2  0
  9 11  1  0
 11 12  1  0
 11 25  1  0
 11 42  1  6
 12 13  1  0
 12 43  1  0
 12 44  1  0
 13 14  1  0
 13 45  1  0
 13 46  1  0
 14 15  1  0
 14 47  1  0
 14 48  1  0
 15 16  1  0
 15 25  1  0
 16 17  2  0
 16 18  1  0
 18 19  1  0
 18 49  1  0
 18 50  1  0
 19 20  2  0
 19 24  1  0
 20 21  1  0
 20 51  1  0
 21 22  2  0
 21 52  1  0
 22 23  1  0
 22 53  1  0
 23 24  2  0
 23 54  1  0
 24 55  1  0
 25 56  1  0
 25 57  1  0
 26 27  1  0
 26 30  1  0
 27 28  2  0
 28 29  1  0
 28 58  1  0
 29 30  2  0
 30 31  1  0
M  END

