
     RDKit          3D

 51 53  0  0  0  0  0  0  0  0999 V2000
    5.7122    2.6373    1.2576 C   0  0  0  0  0  0  0  0  0  0  0  0
    5.0383    1.3343    1.6283 C   0  0  0  0  0  0  0  0  0  0  0  0
    4.0409    1.3393    2.6154 C   0  0  0  0  0  0  0  0  0  0  0  0
    3.3957    0.1609    2.9870 C   0  0  0  0  0  0  0  0  0  0  0  0
    3.7271   -1.0505    2.3840 C   0  0  0  0  0  0  0  0  0  0  0  0
    4.7234   -1.0741    1.3939 C   0  0  0  0  0  0  0  0  0  0  0  0
    5.0993   -2.2723    0.7478 N   0  0  0  0  0  0  0  0  0  0  0  0
    4.6433   -3.5576    0.9433 C   0  0  0  0  0  0  0  0  0  0  0  0
    3.7758   -3.8742    1.7334 O   0  0  0  0  0  0  0  0  0  0  0  0
    5.3903   -4.6080    0.0872 C   0  0  1  0  0  0  0  0  0  0  0  0
    6.2216   -5.4561    1.0624 C   0  0  0  0  0  0  0  0  0  0  0  0
    4.4278   -5.4083   -0.6633 N   0  0  0  0  0  0  0  0  0  0  0  0
    4.9761   -6.4976   -1.4695 C   0  0  0  0  0  0  0  0  0  0  0  0
    5.5868   -6.0387   -2.8091 C   0  0  0  0  0  0  0  0  0  0  0  0
    4.5568   -5.2436   -3.6007 C   0  0  2  0  0  0  0  0  0  0  0  0
    5.1387   -4.7600   -4.7984 O   0  0  0  0  0  0  0  0  0  0  0  0
    4.2043   -4.0961   -5.6292 C   0  0  0  0  0  0  0  0  0  0  0  0
    3.5560   -2.8995   -4.9277 C   0  0  0  0  0  0  0  0  0  0  0  0
    2.9413   -3.3218   -3.5856 C   0  0  0  0  0  0  0  0  0  0  0  0
    3.9720   -4.0985   -2.7580 C   0  0  1  0  0  0  0  0  0  0  0  0
    3.4311   -4.6630   -1.4307 C   0  0  0  0  0  0  0  0  0  0  0  0
    5.3900    0.1170    1.0060 C   0  0  0  0  0  0  0  0  0  0  0  0
    6.4602    0.0551   -0.0617 C   0  0  0  0  0  0  0  0  0  0  0  0
    5.3003    3.4682    1.8481 H   0  0  0  0  0  0  0  0  0  0  0  0
    5.5725    2.8895    0.1929 H   0  0  0  0  0  0  0  0  0  0  0  0
    6.7993    2.6101    1.4423 H   0  0  0  0  0  0  0  0  0  0  0  0
    3.7709    2.2835    3.0957 H   0  0  0  0  0  0  0  0  0  0  0  0
    2.6211    0.1813    3.7579 H   0  0  0  0  0  0  0  0  0  0  0  0
    3.2340   -1.9786    2.6612 H   0  0  0  0  0  0  0  0  0  0  0  0
    5.8159   -2.1792    0.0404 H   0  0  0  0  0  0  0  0  0  0  0  0
    6.1022   -4.0647   -0.5789 H   0  0  0  0  0  0  0  0  0  0  0  0
    5.5439   -6.0159    1.7231 H   0  0  0  0  0  0  0  0  0  0  0  0
    6.8578   -4.8037    1.6806 H   0  0  0  0  0  0  0  0  0  0  0  0
    6.8852   -6.1601    0.5407 H   0  0  0  0  0  0  0  0  0  0  0  0
    4.1492   -7.2006   -1.6798 H   0  0  0  0  0  0  0  0  0  0  0  0
    5.7124   -7.0659   -0.8861 H   0  0  0  0  0  0  0  0  0  0  0  0
    5.9241   -6.9073   -3.3983 H   0  0  0  0  0  0  0  0  0  0  0  0
    6.4734   -5.4030   -2.6415 H   0  0  0  0  0  0  0  0  0  0  0  0
    3.7150   -5.9262   -3.8626 H   0  0  0  0  0  0  0  0  0  0  0  0
    3.4159   -4.8092   -5.9535 H   0  0  0  0  0  0  0  0  0  0  0  0
    4.7544   -3.7791   -6.5288 H   0  0  0  0  0  0  0  0  0  0  0  0
    2.7968   -2.4491   -5.5896 H   0  0  0  0  0  0  0  0  0  0  0  0
    4.3290   -2.1307   -4.7532 H   0  0  0  0  0  0  0  0  0  0  0  0
    2.0606   -3.9667   -3.7667 H   0  0  0  0  0  0  0  0  0  0  0  0
    2.5748   -2.4429   -3.0281 H   0  0  0  0  0  0  0  0  0  0  0  0
    4.8106   -3.4123   -2.5326 H   0  0  0  0  0  0  0  0  0  0  0  0
    2.5939   -5.3514   -1.6520 H   0  0  0  0  0  0  0  0  0  0  0  0
    3.0027   -3.8617   -0.8110 H   0  0  0  0  0  0  0  0  0  0  0  0
    6.0613   -0.3132   -1.0246 H   0  0  0  0  0  0  0  0  0  0  0  0
    7.2890   -0.6173    0.2256 H   0  0  0  0  0  0  0  0  0  0  0  0
    6.9059    1.0360   -0.2611 H   0  0  0  0  0  0  0  0  0  0  0  0
  1  2  1  0
  1 24  1  0
  1 25  1  0
  1 26  1  0
  2  3  2  0
  2 22  1  0
  3  4  1  0
  3 27  1  0
  4  5  2  0
  4 28  1  0
  5  6  1  0
  5 29  1  0
  6  7  1  0
  6 22  2  0
  7  8  1  0
  7 30  1  0
  8  9  2  0
  8 10  1  0
 10 11  1  0
 10 12  1  0
 10 31  1  6
 11 32  1  0
 11 33  1  0
 11 34  1  0
 12 13  1  0
 12 21  1  0
 13 14  1  0
 13 35  1  0
 13 36  1  0
 14 15  1  0
 14 37  1  0
 14 38  1  0
 15 16  1  0
 15 20  1  0
 15 39  1  6
 16 17  1  0
 17 18  1  0
 17 40  1  0
 17 41  1  0
 18 19  1  0
 18 42  1  0
 18 43  1  0
 19 20  1  0
 19 44  1  0
 19 45  1  0
 20 21  1  0
 20 46  1  1
 21 47  1  0
 21 48  1  0
 22 23  1  0
 23 49  1  0
 23 50  1  0
 23 51  1  0
M  END

