
     RDKit          3D

 38 39  0  0  0  0  0  0  0  0999 V2000
    1.9234   -1.0390   -1.5476 C   0  0  0  0  0  0  0  0  0  0  0  0
    1.0350   -0.8110   -0.3142 C   0  0  0  0  0  0  0  0  0  0  0  0
    1.4460    0.3900    0.5028 C   0  0  0  0  0  0  0  0  0  0  0  0
    1.1428    1.7399    0.1241 C   0  0  0  0  0  0  0  0  0  0  0  0
    1.6439    2.6789    0.9880 C   0  0  0  0  0  0  0  0  0  0  0  0
    2.5003    1.9398    2.2911 S   0  0  0  0  0  0  0  0  0  0  0  0
    2.1809    0.3401    1.6724 C   0  0  0  0  0  0  0  0  0  0  0  0
    2.7219   -0.8585    2.3979 C   0  0  0  0  0  0  0  0  0  0  0  0
    3.8683   -1.4313    1.6649 N   0  0  0  0  0  0  0  0  0  0  0  0
    4.6511   -2.7846    2.2945 S   0  0  1  0  0  0  0  0  0  0  0  0
    6.0906   -2.5172    2.2091 O   0  0  0  0  0  0  0  0  0  0  0  0
    4.0066   -3.1442    3.5579 O   0  0  0  0  0  0  0  0  0  0  0  0
    4.3000   -4.0884    1.1077 C   0  0  0  0  0  0  0  0  0  0  0  0
    5.3722   -4.7440    0.5023 C   0  0  0  0  0  0  0  0  0  0  0  0
    5.1592   -5.8155   -0.3822 C   0  0  0  0  0  0  0  0  0  0  0  0
    6.2364   -6.4964   -0.9339 N   0  0  0  0  0  0  0  0  0  0  0  0
    3.8295   -6.2299   -0.6573 C   0  0  0  0  0  0  0  0  0  0  0  0
    3.5807   -7.3876   -1.5871 C   0  0  0  0  0  0  0  0  0  0  0  0
    2.7676   -5.5536   -0.0454 C   0  0  0  0  0  0  0  0  0  0  0  0
    2.9971   -4.5007    0.8315 C   0  0  0  0  0  0  0  0  0  0  0  0
    1.9469   -3.8679    1.3891 F   0  0  0  0  0  0  0  0  0  0  0  0
    1.5755   -1.9093   -2.1274 H   0  0  0  0  0  0  0  0  0  0  0  0
    2.9647   -1.2260   -1.2437 H   0  0  0  0  0  0  0  0  0  0  0  0
    1.9175   -0.1634   -2.2167 H   0  0  0  0  0  0  0  0  0  0  0  0
    1.0548   -1.7154    0.3120 H   0  0  0  0  0  0  0  0  0  0  0  0
   -0.0118   -0.6774   -0.6387 H   0  0  0  0  0  0  0  0  0  0  0  0
    0.5590    1.9963   -0.7627 H   0  0  0  0  0  0  0  0  0  0  0  0
    1.5438    3.7623    0.9382 H   0  0  0  0  0  0  0  0  0  0  0  0
    1.9529   -1.6396    2.4738 H   0  0  0  0  0  0  0  0  0  0  0  0
    2.9963   -0.5842    3.4304 H   0  0  0  0  0  0  0  0  0  0  0  0
    4.5732   -0.7505    1.3827 H   0  0  0  0  0  0  0  0  0  0  0  0
    6.3829   -4.4029    0.7352 H   0  0  0  0  0  0  0  0  0  0  0  0
    7.1358   -6.0335   -0.8754 H   0  0  0  0  0  0  0  0  0  0  0  0
    6.0863   -6.9558   -1.8241 H   0  0  0  0  0  0  0  0  0  0  0  0
    4.1102   -8.2934   -1.2439 H   0  0  0  0  0  0  0  0  0  0  0  0
    3.9393   -7.1747   -2.6113 H   0  0  0  0  0  0  0  0  0  0  0  0
    2.5103   -7.6250   -1.6585 H   0  0  0  0  0  0  0  0  0  0  0  0
    1.7347   -5.8492   -0.2431 H   0  0  0  0  0  0  0  0  0  0  0  0
  1  2  1  0
  1 22  1  0
  1 23  1  0
  1 24  1  0
  2  3  1  0
  2 25  1  0
  2 26  1  0
  3  4  1  0
  3  7  2  0
  4  5  2  0
  4 27  1  0
  5  6  1  0
  5 28  1  0
  6  7  1  0
  7  8  1  0
  8  9  1  0
  8 29  1  0
  8 30  1  0
 10  9  1  6
  9 31  1  0
 10 11  2  0
 10 12  2  0
 10 13  1  0
 13 14  2  0
 13 20  1  0
 14 15  1  0
 14 32  1  0
 15 16  1  0
 15 17  2  0
 16 33  1  0
 16 34  1  0
 17 18  1  0
 17 19  1  0
 18 35  1  0
 18 36  1  0
 18 37  1  0
 19 20  2  0
 19 38  1  0
 20 21  1  0
M  END

