
     RDKit          3D

 37 37  0  0  0  0  0  0  0  0999 V2000
    3.4808   -0.7869   -1.2304 C   0  0  0  0  0  0  0  0  0  0  0  0
    2.7844   -0.0977   -0.0576 C   0  0  0  0  0  0  0  0  0  0  0  0
    3.6490    0.1071    1.1162 N   0  0  0  0  0  0  0  0  0  0  0  0
    3.7369   -0.9592    2.1044 C   0  0  0  0  0  0  0  0  0  0  0  0
    5.0768   -1.7006    2.2547 C   0  0  0  0  0  0  0  0  0  0  0  0
    5.9359   -1.6154    1.2068 N   0  0  0  0  0  0  0  0  0  0  0  0
    5.2957   -2.3484    3.2617 O   0  0  0  0  0  0  0  0  0  0  0  0
    4.2269    1.3519    1.2696 C   0  0  0  0  0  0  0  0  0  0  0  0
    4.0883    2.2226    0.4216 O   0  0  0  0  0  0  0  0  0  0  0  0
    5.0577    1.6301    2.5271 C   0  0  0  0  0  0  0  0  0  0  0  0
    6.5638    1.7059    2.2721 C   0  0  0  0  0  0  0  0  0  0  0  0
    7.0269    2.3439    1.1105 C   0  0  0  0  0  0  0  0  0  0  0  0
    8.3904    2.4562    0.8346 C   0  0  0  0  0  0  0  0  0  0  0  0
    9.3149    1.9218    1.7238 C   0  0  0  0  0  0  0  0  0  0  0  0
    8.8518    1.2782    2.8738 C   0  0  0  0  0  0  0  0  0  0  0  0
    9.9031    0.6884    3.7309 N   0  0  0  0  0  0  0  0  0  0  0  0
   10.9695    1.2790    3.7960 O   0  0  0  0  0  0  0  0  0  0  0  0
    9.6580   -0.3694    4.2913 O   0  0  0  0  0  0  0  0  0  0  0  0
    7.4857    1.1721    3.2105 C   0  0  0  0  0  0  0  0  0  0  0  0
    7.0113    0.5794    4.5186 C   0  0  0  0  0  0  0  0  0  0  0  0
    2.7764   -0.9199   -2.0670 H   0  0  0  0  0  0  0  0  0  0  0  0
    3.8654   -1.7823   -0.9552 H   0  0  0  0  0  0  0  0  0  0  0  0
    4.3196   -0.1734   -1.5962 H   0  0  0  0  0  0  0  0  0  0  0  0
    1.9099   -0.6848    0.2674 H   0  0  0  0  0  0  0  0  0  0  0  0
    2.4288    0.8923   -0.3709 H   0  0  0  0  0  0  0  0  0  0  0  0
    2.9953   -1.7288    1.8409 H   0  0  0  0  0  0  0  0  0  0  0  0
    3.4638   -0.6218    3.1157 H   0  0  0  0  0  0  0  0  0  0  0  0
    5.7755   -0.9755    0.4403 H   0  0  0  0  0  0  0  0  0  0  0  0
    6.8461   -2.0523    1.3009 H   0  0  0  0  0  0  0  0  0  0  0  0
    4.8429    0.9167    3.3263 H   0  0  0  0  0  0  0  0  0  0  0  0
    4.7068    2.6164    2.8766 H   0  0  0  0  0  0  0  0  0  0  0  0
    6.2913    2.7618    0.4213 H   0  0  0  0  0  0  0  0  0  0  0  0
    8.7284    2.9617   -0.0728 H   0  0  0  0  0  0  0  0  0  0  0  0
   10.3892    1.9895    1.5533 H   0  0  0  0  0  0  0  0  0  0  0  0
    7.8058    0.5465    5.2704 H   0  0  0  0  0  0  0  0  0  0  0  0
    6.6572   -0.4568    4.3895 H   0  0  0  0  0  0  0  0  0  0  0  0
    6.1802    1.1705    4.9298 H   0  0  0  0  0  0  0  0  0  0  0  0
  1  2  1  0
  1 21  1  0
  1 22  1  0
  1 23  1  0
  2  3  1  0
  2 24  1  0
  2 25  1  0
  3  4  1  0
  3  8  1  0
  4  5  1  0
  4 26  1  0
  4 27  1  0
  5  6  1  0
  5  7  2  0
  6 28  1  0
  6 29  1  0
  8  9  2  0
  8 10  1  0
 10 11  1  0
 10 30  1  0
 10 31  1  0
 11 12  2  0
 11 19  1  0
 12 13  1  0
 12 32  1  0
 13 14  2  0
 13 33  1  0
 14 15  1  0
 14 34  1  0
 15 16  1  0
 15 19  2  0
 16 17  2  0
 16 18  1  0
 19 20  1  0
 20 35  1  0
 20 36  1  0
 20 37  1  0
M  CHG  2  16   1  18  -1
M  END

