
     RDKit          3D

 32 33  0  0  0  0  0  0  0  0999 V2000
    0.4965    0.5052    0.0661 C   0  0  0  0  0  0  0  0  0  0  0  0
    2.0167    0.2825   -0.0052 C   0  0  1  0  0  0  0  0  0  0  0  0
    2.3763   -1.1149   -0.5605 C   0  0  0  0  0  0  0  0  0  0  0  0
    2.0032   -2.2756    0.3222 C   0  0  0  0  0  0  0  0  0  0  0  0
    1.8734   -3.6507   -0.0562 C   0  0  0  0  0  0  0  0  0  0  0  0
    1.5730   -4.2833    1.1155 C   0  0  0  0  0  0  0  0  0  0  0  0
    1.3189   -5.7160    1.4694 C   0  0  0  0  0  0  0  0  0  0  0  0
    0.9713   -6.4819    0.2821 N   0  0  0  0  0  0  0  0  0  0  0  0
    1.5167   -3.3823    2.1111 O   0  0  0  0  0  0  0  0  0  0  0  0
    1.7926   -2.1189    1.6100 N   0  0  0  0  0  0  0  0  0  0  0  0
    2.7200    1.3755   -0.7993 C   0  0  0  0  0  0  0  0  0  0  0  0
    3.6982    2.1792   -0.1932 C   0  0  0  0  0  0  0  0  0  0  0  0
    4.3568    3.1838   -0.9095 C   0  0  0  0  0  0  0  0  0  0  0  0
    4.0486    3.4033   -2.2543 C   0  0  0  0  0  0  0  0  0  0  0  0
    3.0769    2.6108   -2.8738 C   0  0  0  0  0  0  0  0  0  0  0  0
    2.4208    1.6099   -2.1528 C   0  0  0  0  0  0  0  0  0  0  0  0
    0.0236   -0.2481    0.7130 H   0  0  0  0  0  0  0  0  0  0  0  0
    0.0313    0.4436   -0.9318 H   0  0  0  0  0  0  0  0  0  0  0  0
    0.2683    1.5001    0.4789 H   0  0  0  0  0  0  0  0  0  0  0  0
    2.4049    0.3234    1.0247 H   0  0  0  0  0  0  0  0  0  0  0  0
    3.4659   -1.1621   -0.7346 H   0  0  0  0  0  0  0  0  0  0  0  0
    1.9127   -1.2646   -1.5506 H   0  0  0  0  0  0  0  0  0  0  0  0
    1.9889   -4.1043   -1.0360 H   0  0  0  0  0  0  0  0  0  0  0  0
    0.5740   -5.7350    2.2931 H   0  0  0  0  0  0  0  0  0  0  0  0
    2.2464   -6.1384    1.8968 H   0  0  0  0  0  0  0  0  0  0  0  0
    0.0355   -6.2365   -0.0418 H   0  0  0  0  0  0  0  0  0  0  0  0
    0.9614   -7.4789    0.4902 H   0  0  0  0  0  0  0  0  0  0  0  0
    3.9461    2.0148    0.8596 H   0  0  0  0  0  0  0  0  0  0  0  0
    5.1136    3.7971   -0.4129 H   0  0  0  0  0  0  0  0  0  0  0  0
    4.5613    4.1876   -2.8172 H   0  0  0  0  0  0  0  0  0  0  0  0
    2.8268    2.7742   -3.9257 H   0  0  0  0  0  0  0  0  0  0  0  0
    1.6613    1.0042   -2.6552 H   0  0  0  0  0  0  0  0  0  0  0  0
  1  2  1  0
  1 17  1  0
  1 18  1  0
  1 19  1  0
  2  3  1  0
  2 11  1  0
  2 20  1  1
  3  4  1  0
  3 21  1  0
  3 22  1  0
  4  5  1  0
  4 10  2  0
  5  6  2  0
  5 23  1  0
  6  7  1  0
  6  9  1  0
  7  8  1  0
  7 24  1  0
  7 25  1  0
  8 26  1  0
  8 27  1  0
  9 10  1  0
 11 12  2  0
 11 16  1  0
 12 13  1  0
 12 28  1  0
 13 14  2  0
 13 29  1  0
 14 15  1  0
 14 30  1  0
 15 16  2  0
 15 31  1  0
 16 32  1  0
M  END

