
     RDKit          3D

 52 56  0  0  0  0  0  0  0  0999 V2000
    4.0894    0.7135    3.5805 C   0  0  0  0  0  0  0  0  0  0  0  0
    3.7266    0.4324    2.1487 C   0  0  0  0  0  0  0  0  0  0  0  0
    3.5164   -0.8112    1.7780 N   0  0  0  0  0  0  0  0  0  0  0  0
    3.1923   -1.0598    0.4726 C   0  0  0  0  0  0  0  0  0  0  0  0
    3.0733   -0.0876   -0.4786 C   0  0  0  0  0  0  0  0  0  0  0  0
    3.2892    1.2209   -0.1050 N   0  0  0  0  0  0  0  0  0  0  0  0
    3.2461    2.3796   -0.8275 C   0  0  0  0  0  0  0  0  0  0  0  0
    3.5481    3.4427    0.0253 C   0  0  0  0  0  0  0  0  0  0  0  0
    3.5436    4.8910   -0.3783 C   0  0  1  0  0  0  0  0  0  0  0  0
    2.3029    5.6659    0.1235 C   0  0  0  0  0  0  0  0  0  0  0  0
    2.3784    7.0943   -0.3408 C   0  0  0  0  0  0  0  0  0  0  0  0
    1.2850    7.8928   -0.6848 C   0  0  0  0  0  0  0  0  0  0  0  0
    1.4348    9.2170   -1.0994 C   0  0  0  0  0  0  0  0  0  0  0  0
    2.7174    9.8067   -1.2120 C   0  0  0  0  0  0  0  0  0  0  0  0
    2.8967   11.1164   -1.6713 N   0  0  0  0  0  0  0  0  0  0  0  0
    3.9809   11.9279   -1.1113 C   0  0  0  0  0  0  0  0  0  0  0  0
    4.3217   13.1099   -2.0296 C   0  0  0  0  0  0  0  0  0  0  0  0
    3.1726   13.9273   -2.3864 N   0  0  0  0  0  0  0  0  0  0  0  0
    2.7313   14.8637   -1.3693 C   0  0  0  0  0  0  0  0  0  0  0  0
    2.1347   13.0841   -2.9557 C   0  0  0  0  0  0  0  0  0  0  0  0
    1.7280   11.8939   -2.0704 C   0  0  0  0  0  0  0  0  0  0  0  0
    3.8260    9.0009   -0.8661 C   0  0  0  0  0  0  0  0  0  0  0  0
    3.6428    7.6887   -0.4439 C   0  0  0  0  0  0  0  0  0  0  0  0
    4.7866    6.9917   -0.0963 O   0  0  0  0  0  0  0  0  0  0  0  0
    4.8195    5.6288    0.0390 C   0  0  0  0  0  0  0  0  0  0  0  0
    5.8262    5.1182    0.4373 O   0  0  0  0  0  0  0  0  0  0  0  0
    3.7810    2.9084    1.3145 C   0  0  0  0  0  0  0  0  0  0  0  0
    3.6215    1.5237    1.2294 C   0  0  0  0  0  0  0  0  0  0  0  0
    4.1214   -0.2307    4.1388 H   0  0  0  0  0  0  0  0  0  0  0  0
    3.3542    1.3881    4.0508 H   0  0  0  0  0  0  0  0  0  0  0  0
    5.0723    1.2090    3.6488 H   0  0  0  0  0  0  0  0  0  0  0  0
    3.0247   -2.1050    0.1974 H   0  0  0  0  0  0  0  0  0  0  0  0
    2.8185   -0.2761   -1.5221 H   0  0  0  0  0  0  0  0  0  0  0  0
    3.0108    2.3725   -1.8899 H   0  0  0  0  0  0  0  0  0  0  0  0
    3.5319    4.9483   -1.4830 H   0  0  0  0  0  0  0  0  0  0  0  0
    2.2656    5.6060    1.2274 H   0  0  0  0  0  0  0  0  0  0  0  0
    1.3896    5.1754   -0.2446 H   0  0  0  0  0  0  0  0  0  0  0  0
    0.2776    7.4721   -0.6139 H   0  0  0  0  0  0  0  0  0  0  0  0
    0.5382    9.7909   -1.3259 H   0  0  0  0  0  0  0  0  0  0  0  0
    4.8827   11.3166   -0.9866 H   0  0  0  0  0  0  0  0  0  0  0  0
    3.7032   12.2947   -0.0995 H   0  0  0  0  0  0  0  0  0  0  0  0
    4.7632   12.7093   -2.9603 H   0  0  0  0  0  0  0  0  0  0  0  0
    5.0870   13.7390   -1.5468 H   0  0  0  0  0  0  0  0  0  0  0  0
    3.5683   15.5235   -1.0884 H   0  0  0  0  0  0  0  0  0  0  0  0
    2.3422   14.4080   -0.4322 H   0  0  0  0  0  0  0  0  0  0  0  0
    1.9313   15.5017   -1.7789 H   0  0  0  0  0  0  0  0  0  0  0  0
    2.5056   12.6832   -3.9164 H   0  0  0  0  0  0  0  0  0  0  0  0
    1.2433   13.6933   -3.1770 H   0  0  0  0  0  0  0  0  0  0  0  0
    1.0518   11.2539   -2.6548 H   0  0  0  0  0  0  0  0  0  0  0  0
    1.1548   12.2459   -1.1847 H   0  0  0  0  0  0  0  0  0  0  0  0
    4.8505    9.3625   -0.9342 H   0  0  0  0  0  0  0  0  0  0  0  0
    4.0701    3.4584    2.2063 H   0  0  0  0  0  0  0  0  0  0  0  0
  1  2  1  0
  1 29  1  0
  1 30  1  0
  1 31  1  0
  2  3  2  0
  2 28  1  0
  3  4  1  0
  4  5  2  0
  4 32  1  0
  5  6  1  0
  5 33  1  0
  6  7  1  0
  6 28  1  0
  7  8  2  0
  7 34  1  0
  8  9  1  0
  8 27  1  0
  9 10  1  0
  9 25  1  0
  9 35  1  6
 10 11  1  0
 10 36  1  0
 10 37  1  0
 11 12  2  0
 11 23  1  0
 12 13  1  0
 12 38  1  0
 13 14  2  0
 13 39  1  0
 14 15  1  0
 14 22  1  0
 15 16  1  0
 15 21  1  0
 16 17  1  0
 16 40  1  0
 16 41  1  0
 17 18  1  0
 17 42  1  0
 17 43  1  0
 18 19  1  0
 18 20  1  0
 19 44  1  0
 19 45  1  0
 19 46  1  0
 20 21  1  0
 20 47  1  0
 20 48  1  0
 21 49  1  0
 21 50  1  0
 22 23  2  0
 22 51  1  0
 23 24  1  0
 24 25  1  0
 25 26  2  0
 27 28  2  0
 27 52  1  0
M  END

