
     RDKit          3D

 29 29  0  0  0  0  0  0  0  0999 V2000
    2.6871    4.5718    3.1520 C   0  0  0  0  0  0  0  0  0  0  0  0
    3.7925    4.4087    2.4204 C   0  0  0  0  0  0  0  0  0  0  0  0
    3.9826    3.3487    1.3718 C   0  0  0  0  0  0  0  0  0  0  0  0
    5.1811    2.5582    1.6326 N   0  0  0  0  0  0  0  0  0  0  0  0
    5.4854    1.5648    0.6241 C   0  0  0  0  0  0  0  0  0  0  0  0
    6.8596    0.9104    0.7749 C   0  0  0  0  0  0  0  0  0  0  0  0
    7.0508   -0.2136    0.3674 O   0  0  0  0  0  0  0  0  0  0  0  0
    7.9762    1.7216    1.4330 C   0  0  0  0  0  0  0  0  0  0  0  0
    8.1025    1.3826    2.9101 C   0  0  0  0  0  0  0  0  0  0  0  0
    8.4802    0.0889    3.3102 C   0  0  0  0  0  0  0  0  0  0  0  0
    8.6031   -0.2403    4.6610 C   0  0  0  0  0  0  0  0  0  0  0  0
    8.3409    0.7365    5.6201 C   0  0  0  0  0  0  0  0  0  0  0  0
    8.4598    0.4271    6.9205 F   0  0  0  0  0  0  0  0  0  0  0  0
    7.9573    2.0251    5.2591 C   0  0  0  0  0  0  0  0  0  0  0  0
    7.8373    2.3390    3.9021 C   0  0  0  0  0  0  0  0  0  0  0  0
    2.6037    5.3704    3.8943 H   0  0  0  0  0  0  0  0  0  0  0  0
    1.8182    3.9156    3.0316 H   0  0  0  0  0  0  0  0  0  0  0  0
    4.6509    5.0753    2.5702 H   0  0  0  0  0  0  0  0  0  0  0  0
    4.1180    3.8358    0.3869 H   0  0  0  0  0  0  0  0  0  0  0  0
    3.0586    2.7352    1.2875 H   0  0  0  0  0  0  0  0  0  0  0  0
    5.1120    2.1244    2.5530 H   0  0  0  0  0  0  0  0  0  0  0  0
    5.5124    2.0706   -0.3617 H   0  0  0  0  0  0  0  0  0  0  0  0
    4.7449    0.7439    0.5217 H   0  0  0  0  0  0  0  0  0  0  0  0
    7.7847    2.7957    1.3133 H   0  0  0  0  0  0  0  0  0  0  0  0
    8.9068    1.4523    0.9091 H   0  0  0  0  0  0  0  0  0  0  0  0
    8.6725   -0.6707    2.5486 H   0  0  0  0  0  0  0  0  0  0  0  0
    8.8992   -1.2410    4.9817 H   0  0  0  0  0  0  0  0  0  0  0  0
    7.7586    2.7642    6.0379 H   0  0  0  0  0  0  0  0  0  0  0  0
    7.5292    3.3455    3.6093 H   0  0  0  0  0  0  0  0  0  0  0  0
  1  2  2  0
  1 16  1  0
  1 17  1  0
  2  3  1  0
  2 18  1  0
  3  4  1  0
  3 19  1  0
  3 20  1  0
  4  5  1  0
  4 21  1  0
  5  6  1  0
  5 22  1  0
  5 23  1  0
  6  7  2  0
  6  8  1  0
  8  9  1  0
  8 24  1  0
  8 25  1  0
  9 10  2  0
  9 15  1  0
 10 11  1  0
 10 26  1  0
 11 12  2  0
 11 27  1  0
 12 13  1  0
 12 14  1  0
 14 15  2  0
 14 28  1  0
 15 29  1  0
M  END

