
     RDKit          3D

 36 37  0  0  0  0  0  0  0  0999 V2000
    0.8300    0.0598    0.3249 C   0  0  0  0  0  0  0  0  0  0  0  0
    2.3612    0.2211    0.2219 C   0  0  1  0  0  0  0  0  0  0  0  0
    2.7158    1.5890   -0.3778 C   0  0  0  0  0  0  0  0  0  0  0  0
    3.0374   -0.0665    1.5629 C   0  0  0  0  0  0  0  0  0  0  0  0
    3.4204    0.9743    2.4192 C   0  0  0  0  0  0  0  0  0  0  0  0
    4.0067    0.7351    3.6649 C   0  0  0  0  0  0  0  0  0  0  0  0
    4.2244   -0.5799    4.0754 C   0  0  0  0  0  0  0  0  0  0  0  0
    3.8588   -1.6448    3.2522 C   0  0  0  0  0  0  0  0  0  0  0  0
    3.2635   -1.4012    2.0005 C   0  0  0  0  0  0  0  0  0  0  0  0
    2.8814   -2.4599    1.1568 N   0  0  0  0  0  0  0  0  0  0  0  0
    2.9990   -3.8151    1.3402 C   0  0  0  0  0  0  0  0  0  0  0  0
    3.4688   -4.3760    2.3178 O   0  0  0  0  0  0  0  0  0  0  0  0
    2.4696   -4.5911    0.1730 C   0  0  0  0  0  0  0  0  0  0  0  0
    2.4741   -5.9619    0.1096 C   0  0  0  0  0  0  0  0  0  0  0  0
    1.7984   -6.4874   -1.3879 S   0  0  0  0  0  0  0  0  0  0  0  0
    1.5478   -4.8044   -1.8290 C   0  0  0  0  0  0  0  0  0  0  0  0
    0.8804   -4.4585   -3.1320 C   0  0  0  0  0  0  0  0  0  0  0  0
    1.0386   -5.5363   -4.0944 N   0  0  0  0  0  0  0  0  0  0  0  0
    1.9468   -3.9551   -0.9306 N   0  0  0  0  0  0  0  0  0  0  0  0
    0.3512    0.2041   -0.6578 H   0  0  0  0  0  0  0  0  0  0  0  0
    0.4133    0.8059    1.0207 H   0  0  0  0  0  0  0  0  0  0  0  0
    0.5434   -0.9355    0.6977 H   0  0  0  0  0  0  0  0  0  0  0  0
    2.7283   -0.5260   -0.5061 H   0  0  0  0  0  0  0  0  0  0  0  0
    2.2886    2.4185    0.2082 H   0  0  0  0  0  0  0  0  0  0  0  0
    2.3064    1.6712   -1.3973 H   0  0  0  0  0  0  0  0  0  0  0  0
    3.8049    1.7395   -0.4350 H   0  0  0  0  0  0  0  0  0  0  0  0
    3.2581    2.0070    2.1062 H   0  0  0  0  0  0  0  0  0  0  0  0
    4.2920    1.5738    4.3047 H   0  0  0  0  0  0  0  0  0  0  0  0
    4.6843   -0.7879    5.0450 H   0  0  0  0  0  0  0  0  0  0  0  0
    4.0235   -2.6749    3.5589 H   0  0  0  0  0  0  0  0  0  0  0  0
    2.4627   -2.2185    0.2634 H   0  0  0  0  0  0  0  0  0  0  0  0
    2.8535   -6.6461    0.8656 H   0  0  0  0  0  0  0  0  0  0  0  0
    1.2601   -3.4639   -3.4424 H   0  0  0  0  0  0  0  0  0  0  0  0
   -0.1991   -4.3257   -2.9378 H   0  0  0  0  0  0  0  0  0  0  0  0
    1.9745   -5.5373   -4.4996 H   0  0  0  0  0  0  0  0  0  0  0  0
    0.3753   -5.4481   -4.8614 H   0  0  0  0  0  0  0  0  0  0  0  0
  1  2  1  0
  1 20  1  0
  1 21  1  0
  1 22  1  0
  2  3  1  0
  2  4  1  0
  2 23  1  6
  3 24  1  0
  3 25  1  0
  3 26  1  0
  4  5  2  0
  4  9  1  0
  5  6  1  0
  5 27  1  0
  6  7  2  0
  6 28  1  0
  7  8  1  0
  7 29  1  0
  8  9  2  0
  8 30  1  0
  9 10  1  0
 10 11  1  0
 10 31  1  0
 11 12  2  0
 11 13  1  0
 13 14  2  0
 13 19  1  0
 14 15  1  0
 14 32  1  0
 15 16  1  0
 16 17  1  0
 16 19  2  0
 17 18  1  0
 17 33  1  0
 17 34  1  0
 18 35  1  0
 18 36  1  0
M  END

