
     RDKit          3D

 32 34  0  0  0  0  0  0  0  0999 V2000
    7.4335    3.7304    4.8853 N   0  0  0  0  0  0  0  0  0  0  0  0
    7.4893    3.0198    3.9690 C   0  0  0  0  0  0  0  0  0  0  0  0
    7.5570    2.1386    2.8361 C   0  0  0  0  0  0  0  0  0  0  0  0
    6.6838    2.3193    1.7449 C   0  0  0  0  0  0  0  0  0  0  0  0
    6.7539    1.4599    0.6553 C   0  0  0  0  0  0  0  0  0  0  0  0
    7.6909    0.4106    0.6234 C   0  0  0  0  0  0  0  0  0  0  0  0
    7.6800   -0.4869   -0.5800 C   0  0  0  0  0  0  0  0  0  0  0  0
    6.8169   -0.3769   -1.4272 O   0  0  0  0  0  0  0  0  0  0  0  0
    8.7654   -1.5679   -0.7601 C   0  0  0  0  0  0  0  0  0  0  0  0
   10.1045   -1.0431   -0.9231 N   0  0  0  0  0  0  0  0  0  0  0  0
   11.1979   -1.3295   -0.1196 C   0  0  0  0  0  0  0  0  0  0  0  0
   12.3190   -0.6979   -0.5953 C   0  0  0  0  0  0  0  0  0  0  0  0
   11.9210    0.0219   -1.7742 C   0  0  0  0  0  0  0  0  0  0  0  0
   12.6086    0.8327   -2.6975 C   0  0  0  0  0  0  0  0  0  0  0  0
   11.8938    1.3610   -3.7655 C   0  0  0  0  0  0  0  0  0  0  0  0
   12.7961    2.4658   -5.0399 Br  0  0  0  0  0  0  0  0  0  0  0  0
   10.5175    1.1077   -3.9478 C   0  0  0  0  0  0  0  0  0  0  0  0
    9.8194    0.3122   -3.0435 C   0  0  0  0  0  0  0  0  0  0  0  0
   10.5287   -0.2212   -1.9567 C   0  0  0  0  0  0  0  0  0  0  0  0
    8.5593    0.2376    1.7144 C   0  0  0  0  0  0  0  0  0  0  0  0
    8.4951    1.0908    2.8142 C   0  0  0  0  0  0  0  0  0  0  0  0
    5.9570    3.1334    1.7638 H   0  0  0  0  0  0  0  0  0  0  0  0
    6.0827    1.5792   -0.1969 H   0  0  0  0  0  0  0  0  0  0  0  0
    8.4622   -2.1510   -1.6442 H   0  0  0  0  0  0  0  0  0  0  0  0
    8.7648   -2.2455    0.1070 H   0  0  0  0  0  0  0  0  0  0  0  0
   11.0865   -1.9911    0.7386 H   0  0  0  0  0  0  0  0  0  0  0  0
   13.3156   -0.7494   -0.1621 H   0  0  0  0  0  0  0  0  0  0  0  0
   13.6741    1.0373   -2.5820 H   0  0  0  0  0  0  0  0  0  0  0  0
   10.0000    1.5403   -4.8052 H   0  0  0  0  0  0  0  0  0  0  0  0
    8.7548    0.1198   -3.1864 H   0  0  0  0  0  0  0  0  0  0  0  0
    9.2990   -0.5621    1.7186 H   0  0  0  0  0  0  0  0  0  0  0  0
    9.1709    0.9526    3.6598 H   0  0  0  0  0  0  0  0  0  0  0  0
  1  2  3  0
  2  3  1  0
  3  4  2  0
  3 21  1  0
  4  5  1  0
  4 22  1  0
  5  6  2  0
  5 23  1  0
  6  7  1  0
  6 20  1  0
  7  8  2  0
  7  9  1  0
  9 10  1  0
  9 24  1  0
  9 25  1  0
 10 11  1  0
 10 19  1  0
 11 12  2  0
 11 26  1  0
 12 13  1  0
 12 27  1  0
 13 14  1  0
 13 19  2  0
 14 15  2  0
 14 28  1  0
 15 16  1  0
 15 17  1  0
 17 18  2  0
 17 29  1  0
 18 19  1  0
 18 30  1  0
 20 21  2  0
 20 31  1  0
 21 32  1  0
M  END

