
     RDKit          3D

 26 28  0  0  0  0  0  0  0  0999 V2000
    1.1160    0.1259    0.0328 N   0  0  0  0  0  0  0  0  0  0  0  0
    2.4666    0.0393    0.0349 C   0  0  0  0  0  0  0  0  0  0  0  0
    3.2557    1.2215    0.0382 C   0  0  0  0  0  0  0  0  0  0  0  0
    4.6383    1.1628    0.0389 C   0  0  0  0  0  0  0  0  0  0  0  0
    5.3047   -0.0722    0.0361 C   0  0  0  0  0  0  0  0  0  0  0  0
    4.5637   -1.2500    0.0335 C   0  0  0  0  0  0  0  0  0  0  0  0
    3.1402   -1.2266    0.0335 C   0  0  0  0  0  0  0  0  0  0  0  0
    2.3683   -2.4786    0.0328 C   0  0  0  0  0  0  0  0  0  0  0  0
    1.1325   -2.5026    0.0320 O   0  0  0  0  0  0  0  0  0  0  0  0
    3.1208   -3.7714    0.0323 C   0  0  0  0  0  0  0  0  0  0  0  0
    2.4009   -4.9754    0.0327 C   0  0  0  0  0  0  0  0  0  0  0  0
    3.0747   -6.1960    0.0325 C   0  0  0  0  0  0  0  0  0  0  0  0
    4.4765   -6.2273    0.0317 C   0  0  0  0  0  0  0  0  0  0  0  0
    5.1998   -5.0359    0.0310 C   0  0  0  0  0  0  0  0  0  0  0  0
    4.5288   -3.8043    0.0314 C   0  0  0  0  0  0  0  0  0  0  0  0
    5.3224   -2.5419    0.0308 C   0  0  0  0  0  0  0  0  0  0  0  0
    6.5430   -2.5634    0.0274 O   0  0  0  0  0  0  0  0  0  0  0  0
    0.6659    1.0298    0.0404 H   0  0  0  0  0  0  0  0  0  0  0  0
    0.5867   -0.7445    0.0342 H   0  0  0  0  0  0  0  0  0  0  0  0
    2.7458    2.1890    0.0399 H   0  0  0  0  0  0  0  0  0  0  0  0
    5.2143    2.0921    0.0412 H   0  0  0  0  0  0  0  0  0  0  0  0
    6.3929   -0.1396    0.0359 H   0  0  0  0  0  0  0  0  0  0  0  0
    1.3109   -4.9243    0.0330 H   0  0  0  0  0  0  0  0  0  0  0  0
    2.5078   -7.1307    0.0331 H   0  0  0  0  0  0  0  0  0  0  0  0
    5.0021   -7.1857    0.0317 H   0  0  0  0  0  0  0  0  0  0  0  0
    6.2913   -5.0273    0.0301 H   0  0  0  0  0  0  0  0  0  0  0  0
  1  2  1  0
  1 18  1  0
  1 19  1  0
  2  3  2  0
  2  7  1  0
  3  4  1  0
  3 20  1  0
  4  5  2  0
  4 21  1  0
  5  6  1  0
  5 22  1  0
  6  7  2  0
  6 16  1  0
  7  8  1  0
  8  9  2  0
  8 10  1  0
 10 11  2  0
 10 15  1  0
 11 12  1  0
 11 23  1  0
 12 13  2  0
 12 24  1  0
 13 14  1  0
 13 25  1  0
 14 15  2  0
 14 26  1  0
 15 16  1  0
 16 17  2  0
M  END

