
     RDKit          3D

 34 36  0  0  0  0  0  0  0  0999 V2000
    1.1259   -0.0005   -0.4640 C   0  0  0  0  0  0  0  0  0  0  0  0
    2.5739   -0.0203   -0.4904 N   0  0  0  0  0  0  0  0  0  0  0  0
    3.2963   -1.1541   -0.2530 C   0  0  0  0  0  0  0  0  0  0  0  0
    2.7784   -2.2312    0.0096 O   0  0  0  0  0  0  0  0  0  0  0  0
    4.7938   -1.0101   -0.3409 C   0  0  0  0  0  0  0  0  0  0  0  0
    5.5055    0.2305   -0.2980 C   0  0  0  0  0  0  0  0  0  0  0  0
    6.8775    0.2509   -0.3975 C   0  0  0  0  0  0  0  0  0  0  0  0
    7.5924   -0.9624   -0.5299 C   0  0  0  0  0  0  0  0  0  0  0  0
    8.8938   -1.1903   -0.6569 N   0  0  0  0  0  0  0  0  0  0  0  0
    9.0222   -2.5332   -0.7355 C   0  0  0  0  0  0  0  0  0  0  0  0
    7.7945   -3.1964   -0.6549 C   0  0  0  0  0  0  0  0  0  0  0  0
    7.4870   -4.6124   -0.6850 C   0  0  0  0  0  0  0  0  0  0  0  0
    6.4751   -5.3114   -0.0429 C   0  0  0  0  0  0  0  0  0  0  0  0
    6.5375   -6.7110   -0.2910 C   0  0  0  0  0  0  0  0  0  0  0  0
    5.6716   -7.6253    0.2251 O   0  0  0  0  0  0  0  0  0  0  0  0
    7.5898   -7.0810   -1.1122 C   0  0  0  0  0  0  0  0  0  0  0  0
    8.0367   -8.3997   -1.6229 C   0  0  0  0  0  0  0  0  0  0  0  0
    7.2909   -9.4711   -1.2298 N   0  0  0  0  0  0  0  0  0  0  0  0
    9.0156   -8.4951   -2.3504 O   0  0  0  0  0  0  0  0  0  0  0  0
    8.5026   -5.6847   -1.6087 S   0  0  0  0  0  0  0  0  0  0  0  0
    6.8606   -2.1724   -0.5248 N   0  0  0  0  0  0  0  0  0  0  0  0
    5.4973   -2.1871   -0.4470 C   0  0  0  0  0  0  0  0  0  0  0  0
    0.6985    0.1200   -1.4746 H   0  0  0  0  0  0  0  0  0  0  0  0
    0.7521    0.8175    0.1735 H   0  0  0  0  0  0  0  0  0  0  0  0
    0.7842   -0.9598   -0.0552 H   0  0  0  0  0  0  0  0  0  0  0  0
    3.0574    0.7989   -0.8346 H   0  0  0  0  0  0  0  0  0  0  0  0
    4.9686    1.1706   -0.1557 H   0  0  0  0  0  0  0  0  0  0  0  0
    7.4515    1.1777   -0.3699 H   0  0  0  0  0  0  0  0  0  0  0  0
    9.9969   -3.0135   -0.8279 H   0  0  0  0  0  0  0  0  0  0  0  0
    5.7427   -4.8594    0.6279 H   0  0  0  0  0  0  0  0  0  0  0  0
    4.9829   -7.1806    0.7358 H   0  0  0  0  0  0  0  0  0  0  0  0
    6.4843   -9.3687   -0.6265 H   0  0  0  0  0  0  0  0  0  0  0  0
    7.5710  -10.3840   -1.5654 H   0  0  0  0  0  0  0  0  0  0  0  0
    4.9847   -3.1462   -0.4799 H   0  0  0  0  0  0  0  0  0  0  0  0
  1  2  1  0
  1 23  1  0
  1 24  1  0
  1 25  1  0
  2  3  1  0
  2 26  1  0
  3  4  2  0
  3  5  1  0
  5  6  1  0
  5 22  2  0
  6  7  2  0
  6 27  1  0
  7  8  1  0
  7 28  1  0
  8  9  2  0
  8 21  1  0
  9 10  1  0
 10 11  2  0
 10 29  1  0
 11 12  1  0
 11 21  1  0
 12 13  2  0
 12 20  1  0
 13 14  1  0
 13 30  1  0
 14 15  1  0
 14 16  2  0
 15 31  1  0
 16 17  1  0
 16 20  1  0
 17 18  1  0
 17 19  2  0
 18 32  1  0
 18 33  1  0
 21 22  1  0
 22 34  1  0
M  END

