
     RDKit          3D

 41 43  0  0  0  0  0  0  0  0999 V2000
    0.9724    0.0134   -0.9110 C   0  0  0  0  0  0  0  0  0  0  0  0
    2.3394    0.1219   -0.2816 C   0  0  0  0  0  0  0  0  0  0  0  0
    2.8433    1.2212    0.1746 N   0  0  0  0  0  0  0  0  0  0  0  0
    2.1923    2.4093    0.3391 C   0  0  0  0  0  0  0  0  0  0  0  0
    0.9716    2.7479    0.9475 C   0  0  0  0  0  0  0  0  0  0  0  0
    0.0268    1.8344    1.4757 C   0  0  0  0  0  0  0  0  0  0  0  0
   -0.7298    1.0585    1.8980 N   0  0  0  0  0  0  0  0  0  0  0  0
    0.9154    4.1847    1.0001 C   0  0  0  0  0  0  0  0  0  0  0  0
   -0.1592    4.9581    1.5159 C   0  0  0  0  0  0  0  0  0  0  0  0
   -1.0413    5.5830    1.9429 N   0  0  0  0  0  0  0  0  0  0  0  0
    2.0879    4.6780    0.4223 C   0  0  0  0  0  0  0  0  0  0  0  0
    2.4771    6.0807    0.1948 C   0  0  0  0  0  0  0  0  0  0  0  0
    2.3177    7.0297    1.2231 C   0  0  0  0  0  0  0  0  0  0  0  0
    2.6477    8.3693    1.0115 C   0  0  0  0  0  0  0  0  0  0  0  0
    3.1459    8.7868   -0.2259 C   0  0  0  0  0  0  0  0  0  0  0  0
    3.3047    7.8554   -1.2568 C   0  0  0  0  0  0  0  0  0  0  0  0
    2.9709    6.5161   -1.0515 C   0  0  0  0  0  0  0  0  0  0  0  0
    2.8545    3.5901    0.0499 N   0  0  0  0  0  0  0  0  0  0  0  0
    4.2058    3.6189   -0.4879 C   0  0  0  0  0  0  0  0  0  0  0  0
    3.1873   -1.1009   -0.2106 C   0  0  0  0  0  0  0  0  0  0  0  0
    4.4897   -1.0281    0.3247 C   0  0  0  0  0  0  0  0  0  0  0  0
    5.2934   -2.1620    0.4067 C   0  0  0  0  0  0  0  0  0  0  0  0
    4.8114   -3.4008   -0.0347 C   0  0  0  0  0  0  0  0  0  0  0  0
    3.5190   -3.4925   -0.5564 C   0  0  0  0  0  0  0  0  0  0  0  0
    2.7144   -2.3542   -0.6450 C   0  0  0  0  0  0  0  0  0  0  0  0
    0.5598    1.0045   -1.1381 H   0  0  0  0  0  0  0  0  0  0  0  0
    0.2631   -0.4933   -0.2367 H   0  0  0  0  0  0  0  0  0  0  0  0
    1.0252   -0.5678   -1.8432 H   0  0  0  0  0  0  0  0  0  0  0  0
    1.9383    6.7124    2.1960 H   0  0  0  0  0  0  0  0  0  0  0  0
    2.5174    9.0903    1.8222 H   0  0  0  0  0  0  0  0  0  0  0  0
    3.4050    9.8359   -0.3890 H   0  0  0  0  0  0  0  0  0  0  0  0
    3.6795    8.1755   -2.2323 H   0  0  0  0  0  0  0  0  0  0  0  0
    3.0672    5.8077   -1.8768 H   0  0  0  0  0  0  0  0  0  0  0  0
    4.7119    4.5350   -0.1610 H   0  0  0  0  0  0  0  0  0  0  0  0
    4.2075    3.5815   -1.5888 H   0  0  0  0  0  0  0  0  0  0  0  0
    4.7430    2.7382   -0.1130 H   0  0  0  0  0  0  0  0  0  0  0  0
    4.8515   -0.0624    0.6792 H   0  0  0  0  0  0  0  0  0  0  0  0
    6.3011   -2.0842    0.8227 H   0  0  0  0  0  0  0  0  0  0  0  0
    5.4409   -4.2917    0.0334 H   0  0  0  0  0  0  0  0  0  0  0  0
    3.1310   -4.4561   -0.8955 H   0  0  0  0  0  0  0  0  0  0  0  0
    1.7063   -2.4552   -1.0486 H   0  0  0  0  0  0  0  0  0  0  0  0
  1  2  1  0
  1 26  1  0
  1 27  1  0
  1 28  1  0
  2  3  2  0
  2 20  1  0
  3  4  1  0
  4  5  2  0
  4 18  1  0
  5  6  1  0
  5  8  1  0
  6  7  3  0
  8  9  1  0
  8 11  2  0
  9 10  3  0
 11 12  1  0
 11 18  1  0
 12 13  2  0
 12 17  1  0
 13 14  1  0
 13 29  1  0
 14 15  2  0
 14 30  1  0
 15 16  1  0
 15 31  1  0
 16 17  2  0
 16 32  1  0
 17 33  1  0
 18 19  1  0
 19 34  1  0
 19 35  1  0
 19 36  1  0
 20 21  2  0
 20 25  1  0
 21 22  1  0
 21 37  1  0
 22 23  2  0
 22 38  1  0
 23 24  1  0
 23 39  1  0
 24 25  2  0
 24 40  1  0
 25 41  1  0
M  END

