
     RDKit          3D

 40 40  0  0  0  0  0  0  0  0999 V2000
    7.3645    0.9738    1.0024 C   0  0  0  0  0  0  0  0  0  0  0  0
    6.0346    0.6790    0.3060 C   0  0  0  0  0  0  0  0  0  0  0  0
    6.2084   -0.2232   -0.9156 C   0  0  0  0  0  0  0  0  0  0  0  0
    4.6010   -0.5386   -1.7082 S   0  0  1  0  0  0  0  0  0  0  0  0
    3.7654   -1.2574   -0.7143 O   0  0  0  0  0  0  0  0  0  0  0  0
    4.1209    0.7317   -2.2716 O   0  0  0  0  0  0  0  0  0  0  0  0
    4.9695   -1.6680   -3.0512 C   0  0  0  0  0  0  0  0  0  0  0  0
    5.0200   -1.1259   -4.3384 C   0  0  0  0  0  0  0  0  0  0  0  0
    5.3392   -1.9305   -5.4312 C   0  0  0  0  0  0  0  0  0  0  0  0
    5.6071   -3.2861   -5.2105 C   0  0  0  0  0  0  0  0  0  0  0  0
    5.5443   -3.8407   -3.9338 C   0  0  0  0  0  0  0  0  0  0  0  0
    5.2150   -3.0512   -2.8056 C   0  0  0  0  0  0  0  0  0  0  0  0
    5.1531   -3.5733   -1.5366 N   0  0  0  0  0  0  0  0  0  0  0  0
    5.2690   -4.9881   -1.2534 C   0  0  0  0  0  0  0  0  0  0  0  0
    5.2032   -5.2331    0.2546 C   0  0  0  0  0  0  0  0  0  0  0  0
    5.3205   -6.7084    0.6180 C   0  0  0  0  0  0  0  0  0  0  0  0
    5.4585   -6.8691    2.4620 S   0  0  0  0  0  0  0  0  0  0  0  0
    5.8779   -8.6564    2.4846 C   0  0  0  0  0  0  0  0  0  0  0  0
    6.7222   -6.1322    2.8442 O   0  0  0  0  0  0  0  0  0  0  0  0
    7.2101    1.6239    1.8776 H   0  0  0  0  0  0  0  0  0  0  0  0
    8.0703    1.4853    0.3273 H   0  0  0  0  0  0  0  0  0  0  0  0
    7.8499    0.0491    1.3555 H   0  0  0  0  0  0  0  0  0  0  0  0
    5.5550    1.6173   -0.0165 H   0  0  0  0  0  0  0  0  0  0  0  0
    5.3354    0.1929    1.0052 H   0  0  0  0  0  0  0  0  0  0  0  0
    6.6167   -1.2122   -0.6542 H   0  0  0  0  0  0  0  0  0  0  0  0
    6.8395    0.2357   -1.6920 H   0  0  0  0  0  0  0  0  0  0  0  0
    4.8001   -0.0633   -4.4589 H   0  0  0  0  0  0  0  0  0  0  0  0
    5.3778   -1.5080   -6.4370 H   0  0  0  0  0  0  0  0  0  0  0  0
    5.8610   -3.9341   -6.0539 H   0  0  0  0  0  0  0  0  0  0  0  0
    5.7408   -4.9052   -3.8061 H   0  0  0  0  0  0  0  0  0  0  0  0
    4.5929   -3.0214   -0.8848 H   0  0  0  0  0  0  0  0  0  0  0  0
    6.2321   -5.3663   -1.6403 H   0  0  0  0  0  0  0  0  0  0  0  0
    4.4765   -5.5734   -1.7662 H   0  0  0  0  0  0  0  0  0  0  0  0
    4.2552   -4.8270    0.6510 H   0  0  0  0  0  0  0  0  0  0  0  0
    6.0206   -4.6872    0.7533 H   0  0  0  0  0  0  0  0  0  0  0  0
    6.2395   -7.1526    0.2011 H   0  0  0  0  0  0  0  0  0  0  0  0
    4.4485   -7.3004    0.2926 H   0  0  0  0  0  0  0  0  0  0  0  0
    5.0458   -9.2536    2.0828 H   0  0  0  0  0  0  0  0  0  0  0  0
    6.0559   -8.9140    3.5376 H   0  0  0  0  0  0  0  0  0  0  0  0
    6.8005   -8.8032    1.9044 H   0  0  0  0  0  0  0  0  0  0  0  0
  1  2  1  0
  1 20  1  0
  1 21  1  0
  1 22  1  0
  2  3  1  0
  2 23  1  0
  2 24  1  0
  4  3  1  1
  3 25  1  0
  3 26  1  0
  4  5  2  0
  4  6  2  0
  4  7  1  0
  7  8  2  0
  7 12  1  0
  8  9  1  0
  8 27  1  0
  9 10  2  0
  9 28  1  0
 10 11  1  0
 10 29  1  0
 11 12  2  0
 11 30  1  0
 12 13  1  0
 13 14  1  0
 13 31  1  0
 14 15  1  0
 14 32  1  0
 14 33  1  0
 15 16  1  0
 15 34  1  0
 15 35  1  0
 16 17  1  0
 16 36  1  0
 16 37  1  0
 17 18  1  0
 17 19  1  6
 18 38  1  0
 18 39  1  0
 18 40  1  0
M  CHG  2  17   1  19  -1
M  END

