
     RDKit          3D

 36 36  0  0  0  0  0  0  0  0999 V2000
    1.2629   -0.4306    1.4099 C   0  0  0  0  0  0  0  0  0  0  0  0
    2.5601   -0.2398    0.6656 C   0  0  0  0  0  0  0  0  0  0  0  0
    3.1977    1.0025    0.6272 C   0  0  0  0  0  0  0  0  0  0  0  0
    4.4263    1.1963   -0.0285 C   0  0  0  0  0  0  0  0  0  0  0  0
    5.1898    2.4877    0.0291 C   0  0  0  0  0  0  0  0  0  0  0  0
    6.3994    2.4799    0.2146 O   0  0  0  0  0  0  0  0  0  0  0  0
    4.4854    3.6779   -0.0987 N   0  0  0  0  0  0  0  0  0  0  0  0
    3.2470    3.7762   -0.8256 C   0  0  0  0  0  0  0  0  0  0  0  0
    2.0428    4.2131    0.0189 C   0  0  0  0  0  0  0  0  0  0  0  0
    2.0319    4.2851    1.2152 O   0  0  0  0  0  0  0  0  0  0  0  0
    0.9359    4.5036   -0.7022 O   0  0  0  0  0  0  0  0  0  0  0  0
    5.1453    4.9697    0.2204 C   0  0  1  0  0  0  0  0  0  0  0  0
    5.6603    5.0117    1.6617 C   0  0  0  0  0  0  0  0  0  0  0  0
    6.2125    5.3522   -0.8143 C   0  0  0  0  0  0  0  0  0  0  0  0
    5.0346    0.0883   -0.6389 C   0  0  0  0  0  0  0  0  0  0  0  0
    4.4095   -1.1522   -0.6387 C   0  0  0  0  0  0  0  0  0  0  0  0
    3.1700   -1.3409    0.0076 C   0  0  0  0  0  0  0  0  0  0  0  0
    2.5866   -2.5932    0.0514 N   0  0  0  0  0  0  0  0  0  0  0  0
    0.9402    0.5025    1.8928 H   0  0  0  0  0  0  0  0  0  0  0  0
    1.3553   -1.2027    2.1942 H   0  0  0  0  0  0  0  0  0  0  0  0
    0.4435   -0.7518    0.7392 H   0  0  0  0  0  0  0  0  0  0  0  0
    2.7393    1.8378    1.1626 H   0  0  0  0  0  0  0  0  0  0  0  0
    2.9955    2.8058   -1.2811 H   0  0  0  0  0  0  0  0  0  0  0  0
    3.3524    4.4918   -1.6669 H   0  0  0  0  0  0  0  0  0  0  0  0
    1.1087    4.4107   -1.6509 H   0  0  0  0  0  0  0  0  0  0  0  0
    4.3335    5.7130    0.1584 H   0  0  0  0  0  0  0  0  0  0  0  0
    6.4871    4.3047    1.8093 H   0  0  0  0  0  0  0  0  0  0  0  0
    4.8460    4.7633    2.3585 H   0  0  0  0  0  0  0  0  0  0  0  0
    6.0196    6.0265    1.8959 H   0  0  0  0  0  0  0  0  0  0  0  0
    7.0553    4.6496   -0.7721 H   0  0  0  0  0  0  0  0  0  0  0  0
    6.5852    6.3701   -0.6166 H   0  0  0  0  0  0  0  0  0  0  0  0
    5.8002    5.3406   -1.8373 H   0  0  0  0  0  0  0  0  0  0  0  0
    6.0107    0.2139   -1.1122 H   0  0  0  0  0  0  0  0  0  0  0  0
    4.8876   -2.0039   -1.1317 H   0  0  0  0  0  0  0  0  0  0  0  0
    2.9350   -3.2917   -0.5933 H   0  0  0  0  0  0  0  0  0  0  0  0
    1.5927   -2.6523    0.2308 H   0  0  0  0  0  0  0  0  0  0  0  0
  1  2  1  0
  1 19  1  0
  1 20  1  0
  1 21  1  0
  2  3  2  0
  2 17  1  0
  3  4  1  0
  3 22  1  0
  4  5  1  0
  4 15  2  0
  5  6  2  0
  5  7  1  0
  7  8  1  0
  7 12  1  0
  8  9  1  0
  8 23  1  0
  8 24  1  0
  9 10  2  0
  9 11  1  0
 11 25  1  0
 12 13  1  0
 12 14  1  0
 12 26  1  1
 13 27  1  0
 13 28  1  0
 13 29  1  0
 14 30  1  0
 14 31  1  0
 14 32  1  0
 15 16  1  0
 15 33  1  0
 16 17  2  0
 16 34  1  0
 17 18  1  0
 18 35  1  0
 18 36  1  0
M  END

