
     RDKit          3D

 58 62  0  0  0  0  0  0  0  0999 V2000
    7.6052    0.4774    3.3525 C   0  0  0  0  0  0  0  0  0  0  0  0
    6.7873    0.7888    4.3596 C   0  0  0  0  0  0  0  0  0  0  0  0
    5.2796    0.8011    4.3178 C   0  0  0  0  0  0  0  0  0  0  0  0
    4.6844    0.4751    3.0303 N   0  0  0  0  0  0  0  0  0  0  0  0
    4.3814    1.3581    2.0235 C   0  0  0  0  0  0  0  0  0  0  0  0
    4.8311    3.0626    2.0952 S   0  0  0  0  0  0  0  0  0  0  0  0
    4.0602    3.6636    0.5294 C   0  0  0  0  0  0  0  0  0  0  0  0
    3.0055    4.7514    0.7736 C   0  0  0  0  0  0  0  0  0  0  0  0
    3.3534    5.9143    0.6835 O   0  0  0  0  0  0  0  0  0  0  0  0
    1.7097    4.3788    1.0987 N   0  0  0  0  0  0  0  0  0  0  0  0
    0.7097    5.3867    1.2954 C   0  0  0  0  0  0  0  0  0  0  0  0
    0.9722    6.5116    2.0956 C   0  0  0  0  0  0  0  0  0  0  0  0
    0.0013    7.4869    2.3046 C   0  0  0  0  0  0  0  0  0  0  0  0
   -1.2652    7.3447    1.7267 C   0  0  0  0  0  0  0  0  0  0  0  0
   -1.5466    6.2265    0.9486 C   0  0  0  0  0  0  0  0  0  0  0  0
   -0.5697    5.2408    0.7179 C   0  0  0  0  0  0  0  0  0  0  0  0
   -1.0733    3.8732   -0.2979 S   0  0  0  0  0  0  0  0  0  0  0  0
    0.3978    2.7901   -0.2146 C   0  0  0  0  0  0  0  0  0  0  0  0
    1.2221    2.9894    1.0619 C   0  0  2  0  0  0  0  0  0  0  0  0
    2.0880    2.3235    0.9502 H   0  0  0  0  0  0  0  0  0  0  0  0
    0.5510    2.5828    2.3768 C   0  0  0  0  0  0  0  0  0  0  0  0
   -0.5534    1.7197    2.4198 C   0  0  0  0  0  0  0  0  0  0  0  0
   -1.0897    1.3011    3.6420 C   0  0  0  0  0  0  0  0  0  0  0  0
   -0.5334    1.7401    4.8449 C   0  0  0  0  0  0  0  0  0  0  0  0
    0.5662    2.6031    4.8152 C   0  0  0  0  0  0  0  0  0  0  0  0
    1.1010    3.0185    3.5940 C   0  0  0  0  0  0  0  0  0  0  0  0
    3.7376    0.7506    1.0565 N   0  0  0  0  0  0  0  0  0  0  0  0
    3.6050   -0.5651    1.4066 N   0  0  0  0  0  0  0  0  0  0  0  0
    4.1681   -0.7364    2.5833 C   0  0  0  0  0  0  0  0  0  0  0  0
    4.2104   -1.9927    3.3249 C   0  0  0  0  0  0  0  0  0  0  0  0
    5.2328   -2.4745    4.2268 C   0  0  0  0  0  0  0  0  0  0  0  0
    4.8223   -3.7061    4.6349 C   0  0  0  0  0  0  0  0  0  0  0  0
    3.6339   -4.0217    4.0574 O   0  0  0  0  0  0  0  0  0  0  0  0
    3.2579   -2.9911    3.2596 C   0  0  0  0  0  0  0  0  0  0  0  0
    1.9775   -3.1352    2.5200 C   0  0  0  0  0  0  0  0  0  0  0  0
    8.6901    0.5027    3.4811 H   0  0  0  0  0  0  0  0  0  0  0  0
    7.2274    0.1934    2.3661 H   0  0  0  0  0  0  0  0  0  0  0  0
    7.2048    1.0755    5.3325 H   0  0  0  0  0  0  0  0  0  0  0  0
    4.9099    1.7978    4.6161 H   0  0  0  0  0  0  0  0  0  0  0  0
    4.8751    0.0972    5.0632 H   0  0  0  0  0  0  0  0  0  0  0  0
    3.7298    2.7757   -0.0246 H   0  0  0  0  0  0  0  0  0  0  0  0
    4.8624    4.1636   -0.0257 H   0  0  0  0  0  0  0  0  0  0  0  0
    1.9595    6.6215    2.5406 H   0  0  0  0  0  0  0  0  0  0  0  0
    0.2329    8.3562    2.9243 H   0  0  0  0  0  0  0  0  0  0  0  0
   -2.0368    8.1018    1.8870 H   0  0  0  0  0  0  0  0  0  0  0  0
   -2.5375    6.1028    0.5034 H   0  0  0  0  0  0  0  0  0  0  0  0
    1.0457    2.9871   -1.0813 H   0  0  0  0  0  0  0  0  0  0  0  0
    0.0365    1.7560   -0.3045 H   0  0  0  0  0  0  0  0  0  0  0  0
   -1.0201    1.3722    1.4976 H   0  0  0  0  0  0  0  0  0  0  0  0
   -1.9541    0.6320    3.6489 H   0  0  0  0  0  0  0  0  0  0  0  0
   -0.9568    1.4169    5.7993 H   0  0  0  0  0  0  0  0  0  0  0  0
    1.0083    2.9608    5.7490 H   0  0  0  0  0  0  0  0  0  0  0  0
    1.9590    3.6935    3.5821 H   0  0  0  0  0  0  0  0  0  0  0  0
    6.1626   -1.9799    4.4959 H   0  0  0  0  0  0  0  0  0  0  0  0
    5.2499   -4.4541    5.2970 H   0  0  0  0  0  0  0  0  0  0  0  0
    1.1411   -3.3279    3.2121 H   0  0  0  0  0  0  0  0  0  0  0  0
    2.0270   -3.9836    1.8166 H   0  0  0  0  0  0  0  0  0  0  0  0
    1.7827   -2.2255    1.9397 H   0  0  0  0  0  0  0  0  0  0  0  0
  1  2  2  0
  1 36  1  0
  1 37  1  0
  2  3  1  0
  2 38  1  0
  3  4  1  0
  3 39  1  0
  3 40  1  0
  4  5  1  0
  4 29  1  0
  5  6  1  0
  5 27  2  0
  6  7  1  0
  7  8  1  0
  7 41  1  0
  7 42  1  0
  8  9  2  0
  8 10  1  0
 10 11  1  0
 10 19  1  0
 11 12  2  0
 11 16  1  0
 12 13  1  0
 12 43  1  0
 13 14  2  0
 13 44  1  0
 14 15  1  0
 14 45  1  0
 15 16  2  0
 15 46  1  0
 16 17  1  0
 17 18  1  0
 18 19  1  0
 18 47  1  0
 18 48  1  0
 19 20  1  6
 19 21  1  0
 21 22  2  0
 21 26  1  0
 22 23  1  0
 22 49  1  0
 23 24  2  0
 23 50  1  0
 24 25  1  0
 24 51  1  0
 25 26  2  0
 25 52  1  0
 26 53  1  0
 27 28  1  0
 28 29  2  0
 29 30  1  0
 30 31  1  0
 30 34  2  0
 31 32  2  0
 31 54  1  0
 32 33  1  0
 32 55  1  0
 33 34  1  0
 34 35  1  0
 35 56  1  0
 35 57  1  0
 35 58  1  0
M  END

