
     RDKit          3D

 75 77  0  0  0  0  0  0  0  0999 V2000
    2.9650   -0.3798    1.5409 C   0  0  0  0  0  0  0  0  0  0  0  0
    2.7154    0.1783    0.1380 C   0  0  0  0  0  0  0  0  0  0  0  0
    3.2526   -0.6830   -1.0459 C   0  0  1  0  0  0  0  0  0  0  0  0
    2.5701   -2.0845   -1.0389 C   0  0  0  0  0  0  0  0  0  0  0  0
    1.0490   -2.0858   -1.2049 C   0  0  0  0  0  0  0  0  0  0  0  0
    2.9646   -0.0098   -2.4091 C   0  0  0  0  0  0  0  0  0  0  0  0
    3.5234   -0.5518   -3.5755 C   0  0  0  0  0  0  0  0  0  0  0  0
    3.2721   -0.0064   -4.8358 C   0  0  0  0  0  0  0  0  0  0  0  0
    2.4458    1.1183   -4.9634 C   0  0  0  0  0  0  0  0  0  0  0  0
    2.1606    1.7376   -6.1457 O   0  0  0  0  0  0  0  0  0  0  0  0
    2.5973    1.2130   -7.4088 C   0  0  1  0  0  0  0  0  0  0  0  0
    1.6868    0.0678   -7.8477 C   0  0  0  0  0  0  0  0  0  0  0  0
    2.5387    2.3974   -8.4011 C   0  0  1  0  0  0  0  0  0  0  0  0
    1.2797    3.0333   -8.2886 O   0  0  0  0  0  0  0  0  0  0  0  0
    3.7228    3.4199   -8.3646 C   0  0  1  0  0  0  0  0  0  0  0  0
    5.0588    2.6954   -8.6142 C   0  0  0  0  0  0  0  0  0  0  0  0
    3.4824    4.4240   -9.5102 C   0  0  0  0  0  0  0  0  0  0  0  0
    3.7911    4.1887   -7.0324 C   0  0  0  0  0  0  0  0  0  0  0  0
    1.8656    1.6929   -3.8132 C   0  0  0  0  0  0  0  0  0  0  0  0
    0.9748    2.9010   -3.9443 C   0  0  0  0  0  0  0  0  0  0  0  0
    2.1402    1.1162   -2.5666 C   0  0  0  0  0  0  0  0  0  0  0  0
    4.7859   -0.8059   -0.8855 C   0  0  0  0  0  0  0  0  0  0  0  0
    5.4447   -2.0056   -0.5877 C   0  0  0  0  0  0  0  0  0  0  0  0
    6.8316   -2.0307   -0.4242 C   0  0  0  0  0  0  0  0  0  0  0  0
    7.6122   -0.8734   -0.5560 C   0  0  0  0  0  0  0  0  0  0  0  0
    9.1063   -0.9429   -0.4099 C   0  0  0  0  0  0  0  0  0  0  0  0
    9.8795   -0.2430   -1.0256 O   0  0  0  0  0  0  0  0  0  0  0  0
    9.5370   -1.9007    0.5165 N   0  0  0  0  0  0  0  0  0  0  0  0
   10.8478   -2.2147    0.8228 C   0  0  0  0  0  0  0  0  0  0  0  0
   11.9183   -2.0888   -0.0058 N   0  0  0  0  0  0  0  0  0  0  0  0
   12.9425   -2.5377    0.6626 N   0  0  0  0  0  0  0  0  0  0  0  0
   12.4790   -2.9209    1.8362 N   0  0  0  0  0  0  0  0  0  0  0  0
   13.0773   -3.3179    2.5547 H   0  0  0  0  0  0  0  0  0  0  0  0
   11.1755   -2.7402    2.0020 N   0  0  0  0  0  0  0  0  0  0  0  0
    6.9730    0.3519   -0.8791 C   0  0  0  0  0  0  0  0  0  0  0  0
    7.7294    1.6436   -1.0728 C   0  0  0  0  0  0  0  0  0  0  0  0
    5.5815    0.3461   -1.0243 C   0  0  0  0  0  0  0  0  0  0  0  0
    2.5986    0.3287    2.3007 H   0  0  0  0  0  0  0  0  0  0  0  0
    4.0362   -0.5472    1.7330 H   0  0  0  0  0  0  0  0  0  0  0  0
    2.4419   -1.3341    1.7108 H   0  0  0  0  0  0  0  0  0  0  0  0
    3.1646    1.1820    0.0699 H   0  0  0  0  0  0  0  0  0  0  0  0
    1.6324    0.3271    0.0064 H   0  0  0  0  0  0  0  0  0  0  0  0
    2.8221   -2.6050   -0.1013 H   0  0  0  0  0  0  0  0  0  0  0  0
    3.0141   -2.6896   -1.8458 H   0  0  0  0  0  0  0  0  0  0  0  0
    0.5356   -1.5983   -0.3611 H   0  0  0  0  0  0  0  0  0  0  0  0
    0.6741   -3.1204   -1.2562 H   0  0  0  0  0  0  0  0  0  0  0  0
    0.7377   -1.5722   -2.1275 H   0  0  0  0  0  0  0  0  0  0  0  0
    4.1854   -1.4187   -3.5096 H   0  0  0  0  0  0  0  0  0  0  0  0
    3.7316   -0.4657   -5.7109 H   0  0  0  0  0  0  0  0  0  0  0  0
    3.6368    0.8622   -7.3199 H   0  0  0  0  0  0  0  0  0  0  0  0
    0.6781    0.4577   -8.0493 H   0  0  0  0  0  0  0  0  0  0  0  0
    1.6183   -0.7113   -7.0745 H   0  0  0  0  0  0  0  0  0  0  0  0
    2.0712   -0.3967   -8.7693 H   0  0  0  0  0  0  0  0  0  0  0  0
    2.5609    1.9501   -9.4107 H   0  0  0  0  0  0  0  0  0  0  0  0
    1.1114    3.1410   -7.3407 H   0  0  0  0  0  0  0  0  0  0  0  0
    5.0188    2.0738   -9.5250 H   0  0  0  0  0  0  0  0  0  0  0  0
    5.3526    2.0483   -7.7725 H   0  0  0  0  0  0  0  0  0  0  0  0
    5.8699    3.4280   -8.7531 H   0  0  0  0  0  0  0  0  0  0  0  0
    3.4890    3.9189  -10.4907 H   0  0  0  0  0  0  0  0  0  0  0  0
    4.2699    5.1947   -9.5245 H   0  0  0  0  0  0  0  0  0  0  0  0
    2.5078    4.9190   -9.3960 H   0  0  0  0  0  0  0  0  0  0  0  0
    4.0249    3.5306   -6.1828 H   0  0  0  0  0  0  0  0  0  0  0  0
    2.8378    4.6973   -6.8186 H   0  0  0  0  0  0  0  0  0  0  0  0
    4.5726    4.9645   -7.0823 H   0  0  0  0  0  0  0  0  0  0  0  0
    0.1130    2.6947   -4.6011 H   0  0  0  0  0  0  0  0  0  0  0  0
    1.5142    3.7528   -4.3914 H   0  0  0  0  0  0  0  0  0  0  0  0
    0.5891    3.2177   -2.9645 H   0  0  0  0  0  0  0  0  0  0  0  0
    1.6771    1.5821   -1.6959 H   0  0  0  0  0  0  0  0  0  0  0  0
    4.8935   -2.9395   -0.4831 H   0  0  0  0  0  0  0  0  0  0  0  0
    7.3161   -2.9892   -0.2211 H   0  0  0  0  0  0  0  0  0  0  0  0
    8.8546   -2.2616    1.1731 H   0  0  0  0  0  0  0  0  0  0  0  0
    8.4176    1.8479   -0.2385 H   0  0  0  0  0  0  0  0  0  0  0  0
    7.0312    2.4882   -1.1666 H   0  0  0  0  0  0  0  0  0  0  0  0
    8.3594    1.5991   -1.9732 H   0  0  0  0  0  0  0  0  0  0  0  0
    5.0941    1.2909   -1.2775 H   0  0  0  0  0  0  0  0  0  0  0  0
  1  2  1  0
  1 38  1  0
  1 39  1  0
  1 40  1  0
  3  2  1  1
  2 41  1  0
  2 42  1  0
  3  4  1  0
  3  6  1  0
  3 22  1  0
  4  5  1  0
  4 43  1  0
  4 44  1  0
  5 45  1  0
  5 46  1  0
  5 47  1  0
  6  7  2  0
  6 21  1  0
  7  8  1  0
  7 48  1  0
  8  9  2  0
  8 49  1  0
  9 10  1  0
  9 19  1  0
 10 11  1  0
 11 12  1  0
 11 13  1  0
 11 50  1  1
 12 51  1  0
 12 52  1  0
 12 53  1  0
 13 14  1  0
 13 15  1  0
 13 54  1  6
 14 55  1  0
 15 16  1  6
 15 17  1  0
 15 18  1  0
 16 56  1  0
 16 57  1  0
 16 58  1  0
 17 59  1  0
 17 60  1  0
 17 61  1  0
 18 62  1  0
 18 63  1  0
 18 64  1  0
 19 20  1  0
 19 21  2  0
 20 65  1  0
 20 66  1  0
 20 67  1  0
 21 68  1  0
 22 23  2  0
 22 37  1  0
 23 24  1  0
 23 69  1  0
 24 25  2  0
 24 70  1  0
 25 26  1  0
 25 35  1  0
 26 27  2  0
 26 28  1  0
 28 29  1  0
 28 71  1  0
 29 30  1  0
 29 34  2  0
 30 31  2  0
 31 32  1  0
 32 33  1  0
 32 34  1  0
 35 36  1  0
 35 37  2  0
 36 72  1  0
 36 73  1  0
 36 74  1  0
 37 75  1  0
M  END

