
     RDKit          3D

 48 48  0  0  0  0  0  0  0  0999 V2000
    3.0483   -0.0813    1.5235 C   0  0  0  0  0  0  0  0  0  0  0  0
    3.0049   -0.4753    0.0464 C   0  0  0  0  0  0  0  0  0  0  0  0
    3.1486    0.6958   -0.9290 C   0  0  0  0  0  0  0  0  0  0  0  0
    4.4334    1.3635   -0.7979 N   0  0  0  0  0  0  0  0  0  0  0  0
    4.6922    2.4189   -1.7657 C   0  0  1  0  0  0  0  0  0  0  0  0
    4.0386    3.7651   -1.3393 C   0  0  0  0  0  0  0  0  0  0  0  0
    4.5752    4.3983   -0.0783 C   0  0  0  0  0  0  0  0  0  0  0  0
    4.2111    3.9350    1.1964 C   0  0  0  0  0  0  0  0  0  0  0  0
    4.7205    4.5447    2.3396 C   0  0  0  0  0  0  0  0  0  0  0  0
    4.3521    4.0787    3.5445 F   0  0  0  0  0  0  0  0  0  0  0  0
    5.5967    5.6259    2.2714 C   0  0  0  0  0  0  0  0  0  0  0  0
    5.9696    6.1009    1.0124 C   0  0  0  0  0  0  0  0  0  0  0  0
    5.4601    5.4841   -0.1272 C   0  0  0  0  0  0  0  0  0  0  0  0
    5.8463    5.9581   -1.3334 F   0  0  0  0  0  0  0  0  0  0  0  0
    6.2363    2.5599   -2.0479 C   0  0  1  0  0  0  0  0  0  0  0  0
    6.9862    1.5582   -1.3718 O   0  0  0  0  0  0  0  0  0  0  0  0
    7.4934    1.9192   -0.1045 C   0  0  0  0  0  0  0  0  0  0  0  0
    6.6240    2.4978   -3.5581 C   0  0  1  0  0  0  0  0  0  0  0  0
    5.8779    3.5899   -4.3480 C   0  0  0  0  0  0  0  0  0  0  0  0
    8.1381    2.7652   -3.6731 C   0  0  0  0  0  0  0  0  0  0  0  0
    6.3151    1.1087   -4.1466 C   0  0  0  0  0  0  0  0  0  0  0  0
    2.9355   -0.9617    2.1761 H   0  0  0  0  0  0  0  0  0  0  0  0
    2.2340    0.6208    1.7714 H   0  0  0  0  0  0  0  0  0  0  0  0
    3.9989    0.4113    1.7766 H   0  0  0  0  0  0  0  0  0  0  0  0
    2.0544   -0.9906   -0.1762 H   0  0  0  0  0  0  0  0  0  0  0  0
    3.8007   -1.2138   -0.1659 H   0  0  0  0  0  0  0  0  0  0  0  0
    2.3382    1.4234   -0.7348 H   0  0  0  0  0  0  0  0  0  0  0  0
    2.9745    0.3265   -1.9665 H   0  0  0  0  0  0  0  0  0  0  0  0
    5.1947    0.6880   -0.8514 H   0  0  0  0  0  0  0  0  0  0  0  0
    4.1998    2.1638   -2.7273 H   0  0  0  0  0  0  0  0  0  0  0  0
    2.9591    3.5855   -1.2107 H   0  0  0  0  0  0  0  0  0  0  0  0
    4.1375    4.4762   -2.1710 H   0  0  0  0  0  0  0  0  0  0  0  0
    3.5319    3.0895    1.3027 H   0  0  0  0  0  0  0  0  0  0  0  0
    5.9706    6.0811    3.1901 H   0  0  0  0  0  0  0  0  0  0  0  0
    6.6513    6.9460    0.9004 H   0  0  0  0  0  0  0  0  0  0  0  0
    6.5672    3.5460   -1.6800 H   0  0  0  0  0  0  0  0  0  0  0  0
    8.0813    1.0660    0.2663 H   0  0  0  0  0  0  0  0  0  0  0  0
    6.6880    2.1400    0.6177 H   0  0  0  0  0  0  0  0  0  0  0  0
    8.1584    2.8011   -0.1724 H   0  0  0  0  0  0  0  0  0  0  0  0
    6.0573    4.5893   -3.9192 H   0  0  0  0  0  0  0  0  0  0  0  0
    4.7903    3.4213   -4.3779 H   0  0  0  0  0  0  0  0  0  0  0  0
    6.2309    3.6063   -5.3918 H   0  0  0  0  0  0  0  0  0  0  0  0
    8.3977    3.7612   -3.2772 H   0  0  0  0  0  0  0  0  0  0  0  0
    8.4581    2.7322   -4.7271 H   0  0  0  0  0  0  0  0  0  0  0  0
    8.7146    2.0141   -3.1148 H   0  0  0  0  0  0  0  0  0  0  0  0
    5.2375    0.8794   -4.1252 H   0  0  0  0  0  0  0  0  0  0  0  0
    6.8439    0.3224   -3.5881 H   0  0  0  0  0  0  0  0  0  0  0  0
    6.6390    1.0580   -5.1988 H   0  0  0  0  0  0  0  0  0  0  0  0
  1  2  1  0
  1 22  1  0
  1 23  1  0
  1 24  1  0
  2  3  1  0
  2 25  1  0
  2 26  1  0
  3  4  1  0
  3 27  1  0
  3 28  1  0
  4  5  1  0
  4 29  1  0
  5  6  1  0
  5 15  1  0
  5 30  1  6
  6  7  1  0
  6 31  1  0
  6 32  1  0
  7  8  2  0
  7 13  1  0
  8  9  1  0
  8 33  1  0
  9 10  1  0
  9 11  2  0
 11 12  1  0
 11 34  1  0
 12 13  2  0
 12 35  1  0
 13 14  1  0
 15 16  1  0
 15 18  1  0
 15 36  1  1
 16 17  1  0
 17 37  1  0
 17 38  1  0
 17 39  1  0
 18 19  1  6
 18 20  1  0
 18 21  1  0
 19 40  1  0
 19 41  1  0
 19 42  1  0
 20 43  1  0
 20 44  1  0
 20 45  1  0
 21 46  1  0
 21 47  1  0
 21 48  1  0
M  END

