
     RDKit          3D

 32 34  0  0  0  0  0  0  0  0999 V2000
    2.6704   -1.6906    0.1207 C   0  0  0  0  0  0  0  0  0  0  0  0
    2.3384   -0.3443    0.3793 O   0  0  0  0  0  0  0  0  0  0  0  0
    3.0774    0.3650    1.2667 C   0  0  0  0  0  0  0  0  0  0  0  0
    4.1687   -0.1497    1.9869 C   0  0  0  0  0  0  0  0  0  0  0  0
    4.8613    0.6696    2.8791 C   0  0  0  0  0  0  0  0  0  0  0  0
    4.4933    2.0097    3.0793 C   0  0  0  0  0  0  0  0  0  0  0  0
    5.2375    2.8589    4.0261 C   0  0  0  0  0  0  0  0  0  0  0  0
    5.0095    4.2296    4.3608 C   0  0  0  0  0  0  0  0  0  0  0  0
    5.9841    4.5184    5.2852 C   0  0  0  0  0  0  0  0  0  0  0  0
    6.3227    5.7155    6.0260 C   0  0  0  0  0  0  0  0  0  0  0  0
    5.3752    7.1658    5.7881 S   0  0  0  0  0  0  0  0  0  0  0  0
    6.3350    8.0389    6.9226 C   0  0  0  0  0  0  0  0  0  0  0  0
    7.3277    7.2563    7.4544 C   0  0  0  0  0  0  0  0  0  0  0  0
    7.3402    5.9167    6.9534 C   0  0  0  0  0  0  0  0  0  0  0  0
    8.3413    4.8833    7.3956 C   0  0  0  0  0  0  0  0  0  0  0  0
    6.7321    3.4110    5.4873 O   0  0  0  0  0  0  0  0  0  0  0  0
    6.2657    2.3774    4.7010 N   0  0  0  0  0  0  0  0  0  0  0  0
    3.3980    2.5104    2.3504 C   0  0  0  0  0  0  0  0  0  0  0  0
    2.6996    1.7054    1.4585 C   0  0  0  0  0  0  0  0  0  0  0  0
    1.9543   -2.0502   -0.6305 H   0  0  0  0  0  0  0  0  0  0  0  0
    2.5827   -2.3174    1.0264 H   0  0  0  0  0  0  0  0  0  0  0  0
    3.6937   -1.7914   -0.2835 H   0  0  0  0  0  0  0  0  0  0  0  0
    4.4865   -1.1849    1.8615 H   0  0  0  0  0  0  0  0  0  0  0  0
    5.7083    0.2676    3.4377 H   0  0  0  0  0  0  0  0  0  0  0  0
    4.2457    4.9004    3.9792 H   0  0  0  0  0  0  0  0  0  0  0  0
    6.1131    9.0836    7.1357 H   0  0  0  0  0  0  0  0  0  0  0  0
    8.0449    7.6195    8.1927 H   0  0  0  0  0  0  0  0  0  0  0  0
    9.0302    5.3087    8.1396 H   0  0  0  0  0  0  0  0  0  0  0  0
    8.9350    4.5059    6.5487 H   0  0  0  0  0  0  0  0  0  0  0  0
    7.8480    4.0055    7.8407 H   0  0  0  0  0  0  0  0  0  0  0  0
    3.0824    3.5481    2.4784 H   0  0  0  0  0  0  0  0  0  0  0  0
    1.8501    2.0915    0.8919 H   0  0  0  0  0  0  0  0  0  0  0  0
  1  2  1  0
  1 20  1  0
  1 21  1  0
  1 22  1  0
  2  3  1  0
  3  4  2  0
  3 19  1  0
  4  5  1  0
  4 23  1  0
  5  6  2  0
  5 24  1  0
  6  7  1  0
  6 18  1  0
  7  8  1  0
  7 17  2  0
  8  9  2  0
  8 25  1  0
  9 10  1  0
  9 16  1  0
 10 11  1  0
 10 14  2  0
 11 12  1  0
 12 13  2  0
 12 26  1  0
 13 14  1  0
 13 27  1  0
 14 15  1  0
 15 28  1  0
 15 29  1  0
 15 30  1  0
 16 17  1  0
 18 19  2  0
 18 31  1  0
 19 32  1  0
M  END

