
     RDKit          3D

 98100  0  0  0  0  0  0  0  0999 V2000
    4.9692    4.6173   -5.9416 C   0  0  0  0  0  0  0  0  0  0  0  0
    6.2447    4.8981   -5.1459 C   0  0  0  0  0  0  0  0  0  0  0  0
    6.1040    4.6276   -3.6446 C   0  0  0  0  0  0  0  0  0  0  0  0
    7.3769    4.9069   -2.8403 C   0  0  0  0  0  0  0  0  0  0  0  0
    7.2357    4.6368   -1.3393 C   0  0  0  0  0  0  0  0  0  0  0  0
    8.5087    4.9176   -0.5355 C   0  0  0  0  0  0  0  0  0  0  0  0
    8.3671    4.6485    0.9655 C   0  0  0  0  0  0  0  0  0  0  0  0
    9.6392    4.9346    1.7688 C   0  0  0  0  0  0  0  0  0  0  0  0
    9.4871    4.6661    3.2691 C   0  0  0  0  0  0  0  0  0  0  0  0
   10.7536    4.9414    4.0837 C   0  0  0  0  0  0  0  0  0  0  0  0
   11.0908    6.4293    4.1810 C   0  0  0  0  0  0  0  0  0  0  0  0
   10.2107    7.2887    4.2203 O   0  0  0  0  0  0  0  0  0  0  0  0
   12.4123    6.7099    4.2766 N   0  0  0  0  0  0  0  0  0  0  0  0
   13.0238    8.0166    4.4211 C   0  0  1  0  0  0  0  0  0  0  0  0
   12.9944    8.5510    3.4502 H   0  0  0  0  0  0  0  0  0  0  0  0
   12.3408    8.9574    5.4548 C   0  0  0  0  0  0  0  0  0  0  0  0
   12.0683    8.3645    6.7998 C   0  0  0  0  0  0  0  0  0  0  0  0
   12.7788    8.3260    7.9853 C   0  0  0  0  0  0  0  0  0  0  0  0
   12.0771    7.6550    8.9546 N   0  0  0  0  0  0  0  0  0  0  0  0
   10.9535    7.2873    8.3790 C   0  0  0  0  0  0  0  0  0  0  0  0
   10.8962    7.6915    7.0771 N   0  0  0  0  0  0  0  0  0  0  0  0
   10.1586    7.5371    6.3921 H   0  0  0  0  0  0  0  0  0  0  0  0
   14.5226    7.7435    4.7087 C   0  0  0  0  0  0  0  0  0  0  0  0
   14.9652    6.5934    4.6761 O   0  0  0  0  0  0  0  0  0  0  0  0
   15.2764    8.8329    4.9322 N   0  0  0  0  0  0  0  0  0  0  0  0
   16.6891    8.8772    5.2664 C   0  0  1  0  0  0  0  0  0  0  0  0
   16.8271    8.5569    6.3182 H   0  0  0  0  0  0  0  0  0  0  0  0
   17.6024    7.9658    4.4038 C   0  0  0  0  0  0  0  0  0  0  0  0
   17.4628    8.1171    2.9236 C   0  0  0  0  0  0  0  0  0  0  0  0
   18.0977    8.9123    1.9881 C   0  0  0  0  0  0  0  0  0  0  0  0
   17.6044    8.6748    0.7303 N   0  0  0  0  0  0  0  0  0  0  0  0
   16.6823    7.7512    0.8850 C   0  0  0  0  0  0  0  0  0  0  0  0
   16.5554    7.3780    2.1923 N   0  0  0  0  0  0  0  0  0  0  0  0
   15.9239    6.6910    2.5955 H   0  0  0  0  0  0  0  0  0  0  0  0
   17.0565   10.3822    5.2195 C   0  0  0  0  0  0  0  0  0  0  0  0
   16.1861   11.2310    5.0707 O   0  0  0  0  0  0  0  0  0  0  0  0
   18.3629   10.6881    5.3931 N   0  0  0  0  0  0  0  0  0  0  0  0
   18.8495   12.0548    5.3256 C   0  0  1  0  0  0  0  0  0  0  0  0
   18.1134   12.6304    4.7433 H   0  0  0  0  0  0  0  0  0  0  0  0
   18.9650   12.7368    6.7179 C   0  0  0  0  0  0  0  0  0  0  0  0
   19.9467   12.0754    7.6587 C   0  0  0  0  0  0  0  0  0  0  0  0
   21.2867   12.4898    7.7180 C   0  0  0  0  0  0  0  0  0  0  0  0
   22.2075   11.8598    8.5604 C   0  0  0  0  0  0  0  0  0  0  0  0
   21.8017   10.7943    9.3766 C   0  0  0  0  0  0  0  0  0  0  0  0
   22.6452   10.1495   10.2217 O   0  0  0  0  0  0  0  0  0  0  0  0
   20.4651   10.3696    9.3340 C   0  0  0  0  0  0  0  0  0  0  0  0
   19.5591   11.0064    8.4874 C   0  0  0  0  0  0  0  0  0  0  0  0
   20.1779   12.1600    4.5764 C   0  0  0  0  0  0  0  0  0  0  0  0
   20.6982   13.2147    4.3139 O   0  0  0  0  0  0  0  0  0  0  0  0
   20.7002   10.9577    4.2809 O   0  0  0  0  0  0  0  0  0  0  0  0
   21.9672   10.9107    3.5800 C   0  0  0  0  0  0  0  0  0  0  0  0
   23.1432   10.9598    4.5427 C   0  0  0  0  0  0  0  0  0  0  0  0
   23.1141    9.8370    5.4706 N   0  0  0  0  0  0  0  0  0  0  0  0
    5.1070    4.8225   -7.0153 H   0  0  0  0  0  0  0  0  0  0  0  0
    4.1309    5.2414   -5.5888 H   0  0  0  0  0  0  0  0  0  0  0  0
    4.6580    3.5636   -5.8418 H   0  0  0  0  0  0  0  0  0  0  0  0
    6.5501    5.9496   -5.2975 H   0  0  0  0  0  0  0  0  0  0  0  0
    7.0728    4.2863   -5.5483 H   0  0  0  0  0  0  0  0  0  0  0  0
    5.7988    3.5753   -3.4915 H   0  0  0  0  0  0  0  0  0  0  0  0
    5.2755    5.2395   -3.2408 H   0  0  0  0  0  0  0  0  0  0  0  0
    7.6816    5.9590   -2.9939 H   0  0  0  0  0  0  0  0  0  0  0  0
    8.2050    4.2950   -3.2445 H   0  0  0  0  0  0  0  0  0  0  0  0
    6.9316    3.5846   -1.1851 H   0  0  0  0  0  0  0  0  0  0  0  0
    6.4077    5.2485   -0.9350 H   0  0  0  0  0  0  0  0  0  0  0  0
    8.8125    5.9698   -0.6892 H   0  0  0  0  0  0  0  0  0  0  0  0
    9.3372    4.3060   -0.9396 H   0  0  0  0  0  0  0  0  0  0  0  0
    8.0653    3.5956    1.1205 H   0  0  0  0  0  0  0  0  0  0  0  0
    7.5390    5.2596    1.3695 H   0  0  0  0  0  0  0  0  0  0  0  0
    9.9317    5.9890    1.6170 H   0  0  0  0  0  0  0  0  0  0  0  0
   10.4694    4.3228    1.3677 H   0  0  0  0  0  0  0  0  0  0  0  0
    9.1858    3.6161    3.4273 H   0  0  0  0  0  0  0  0  0  0  0  0
    8.6764    5.2948    3.6721 H   0  0  0  0  0  0  0  0  0  0  0  0
   11.6134    4.3777    3.6838 H   0  0  0  0  0  0  0  0  0  0  0  0
   10.6109    4.5919    5.1225 H   0  0  0  0  0  0  0  0  0  0  0  0
   13.0926    5.9515    4.3118 H   0  0  0  0  0  0  0  0  0  0  0  0
   11.3946    9.2892    5.0075 H   0  0  0  0  0  0  0  0  0  0  0  0
   12.9646    9.8560    5.5735 H   0  0  0  0  0  0  0  0  0  0  0  0
   13.7570    8.7640    8.1848 H   0  0  0  0  0  0  0  0  0  0  0  0
   10.1435    6.7323    8.8534 H   0  0  0  0  0  0  0  0  0  0  0  0
   14.8729    9.7695    4.8739 H   0  0  0  0  0  0  0  0  0  0  0  0
   17.3851    6.9279    4.6893 H   0  0  0  0  0  0  0  0  0  0  0  0
   18.6492    8.1493    4.6915 H   0  0  0  0  0  0  0  0  0  0  0  0
   18.8921    9.6357    2.1707 H   0  0  0  0  0  0  0  0  0  0  0  0
   16.0774    7.3111    0.0915 H   0  0  0  0  0  0  0  0  0  0  0  0
   19.0558    9.9520    5.4455 H   0  0  0  0  0  0  0  0  0  0  0  0
   17.9541   12.7433    7.1534 H   0  0  0  0  0  0  0  0  0  0  0  0
   19.2517   13.7840    6.5398 H   0  0  0  0  0  0  0  0  0  0  0  0
   21.6186   13.3265    7.0975 H   0  0  0  0  0  0  0  0  0  0  0  0
   23.2444   12.2098    8.5961 H   0  0  0  0  0  0  0  0  0  0  0  0
   23.5176   10.5638   10.1912 H   0  0  0  0  0  0  0  0  0  0  0  0
   20.1547    9.5484    9.9833 H   0  0  0  0  0  0  0  0  0  0  0  0
   18.5175   10.6737    8.4823 H   0  0  0  0  0  0  0  0  0  0  0  0
   22.0072   11.7461    2.8668 H   0  0  0  0  0  0  0  0  0  0  0  0
   21.9494    9.9504    3.0475 H   0  0  0  0  0  0  0  0  0  0  0  0
   23.1664   11.9607    5.0206 H   0  0  0  0  0  0  0  0  0  0  0  0
   24.0548   10.8881    3.9244 H   0  0  0  0  0  0  0  0  0  0  0  0
   22.3687    9.9702    6.1547 H   0  0  0  0  0  0  0  0  0  0  0  0
   23.9800    9.7988    6.0069 H   0  0  0  0  0  0  0  0  0  0  0  0
  1  2  1  0
  1 54  1  0
  1 55  1  0
  1 56  1  0
  2  3  1  0
  2 57  1  0
  2 58  1  0
  3  4  1  0
  3 59  1  0
  3 60  1  0
  4  5  1  0
  4 61  1  0
  4 62  1  0
  5  6  1  0
  5 63  1  0
  5 64  1  0
  6  7  1  0
  6 65  1  0
  6 66  1  0
  7  8  1  0
  7 67  1  0
  7 68  1  0
  8  9  1  0
  8 69  1  0
  8 70  1  0
  9 10  1  0
  9 71  1  0
  9 72  1  0
 10 11  1  0
 10 73  1  0
 10 74  1  0
 11 12  2  0
 11 13  1  0
 13 14  1  0
 13 75  1  0
 14 15  1  6
 14 16  1  0
 14 23  1  0
 16 17  1  0
 16 76  1  0
 16 77  1  0
 17 18  2  0
 17 21  1  0
 18 19  1  0
 18 78  1  0
 19 20  2  0
 20 21  1  0
 20 79  1  0
 21 22  1  0
 23 24  2  0
 23 25  1  0
 25 26  1  0
 25 80  1  0
 26 27  1  1
 26 28  1  0
 26 35  1  0
 28 29  1  0
 28 81  1  0
 28 82  1  0
 29 30  2  0
 29 33  1  0
 30 31  1  0
 30 83  1  0
 31 32  2  0
 32 33  1  0
 32 84  1  0
 33 34  1  0
 35 36  2  0
 35 37  1  0
 37 38  1  0
 37 85  1  0
 38 39  1  6
 38 40  1  0
 38 48  1  0
 40 41  1  0
 40 86  1  0
 40 87  1  0
 41 42  2  0
 41 47  1  0
 42 43  1  0
 42 88  1  0
 43 44  2  0
 43 89  1  0
 44 45  1  0
 44 46  1  0
 45 90  1  0
 46 47  2  0
 46 91  1  0
 47 92  1  0
 48 49  2  0
 48 50  1  0
 50 51  1  0
 51 52  1  0
 51 93  1  0
 51 94  1  0
 52 53  1  0
 52 95  1  0
 52 96  1  0
 53 97  1  0
 53 98  1  0
M  END

