
     RDKit          3D

 48 50  0  0  0  0  0  0  0  0999 V2000
    8.5677   -4.6132   -3.4177 C   0  0  0  0  0  0  0  0  0  0  0  0
    7.5156   -3.5591   -3.1673 C   0  0  0  0  0  0  0  0  0  0  0  0
    7.2284   -2.5734   -4.1232 C   0  0  0  0  0  0  0  0  0  0  0  0
    6.2575   -1.6002   -3.8722 C   0  0  0  0  0  0  0  0  0  0  0  0
    5.5599   -1.5995   -2.6629 C   0  0  0  0  0  0  0  0  0  0  0  0
    5.8253   -2.5750   -1.6885 C   0  0  0  0  0  0  0  0  0  0  0  0
    5.0526   -2.5958   -0.3870 C   0  0  0  0  0  0  0  0  0  0  0  0
    3.8910   -3.5933   -0.3608 C   0  0  2  0  0  0  0  0  0  0  0  0
    3.0390   -3.4691    0.9038 C   0  0  0  0  0  0  0  0  0  0  0  0
    2.0013   -4.4844    0.9257 N   0  0  0  0  0  0  0  0  0  0  0  0
    0.7346   -4.2003    1.5721 C   0  0  0  0  0  0  0  0  0  0  0  0
    0.5673   -4.6826    3.0321 C   0  0  1  0  0  0  0  0  0  0  0  0
    1.6247   -4.0903    3.9697 C   0  0  0  0  0  0  0  0  0  0  0  0
   -0.8526   -4.3662    3.5170 C   0  0  0  0  0  0  0  0  0  0  0  0
    2.2792   -5.7236    0.3563 C   0  0  0  0  0  0  0  0  0  0  0  0
    1.3839   -6.8137    0.4067 C   0  0  0  0  0  0  0  0  0  0  0  0
    1.7028   -8.0468   -0.1775 C   0  0  0  0  0  0  0  0  0  0  0  0
    0.8449   -9.1061   -0.1295 O   0  0  0  0  0  0  0  0  0  0  0  0
    2.9280   -8.2258   -0.8274 C   0  0  0  0  0  0  0  0  0  0  0  0
    3.8140   -7.1496   -0.8984 C   0  0  0  0  0  0  0  0  0  0  0  0
    3.5098   -5.9184   -0.3237 C   0  0  0  0  0  0  0  0  0  0  0  0
    4.4334   -4.9038   -0.4231 O   0  0  0  0  0  0  0  0  0  0  0  0
    6.8032   -3.5426   -1.9580 C   0  0  0  0  0  0  0  0  0  0  0  0
    8.9799   -4.5414   -4.4351 H   0  0  0  0  0  0  0  0  0  0  0  0
    8.1566   -5.6282   -3.2900 H   0  0  0  0  0  0  0  0  0  0  0  0
    9.4075   -4.5168   -2.7086 H   0  0  0  0  0  0  0  0  0  0  0  0
    7.7724   -2.5667   -5.0721 H   0  0  0  0  0  0  0  0  0  0  0  0
    6.0463   -0.8350   -4.6240 H   0  0  0  0  0  0  0  0  0  0  0  0
    4.8051   -0.8311   -2.4701 H   0  0  0  0  0  0  0  0  0  0  0  0
    4.6399   -1.5932   -0.1889 H   0  0  0  0  0  0  0  0  0  0  0  0
    5.7242   -2.8416    0.4524 H   0  0  0  0  0  0  0  0  0  0  0  0
    3.2413   -3.4293   -1.2432 H   0  0  0  0  0  0  0  0  0  0  0  0
    2.5629   -2.4754    0.9312 H   0  0  0  0  0  0  0  0  0  0  0  0
    3.7115   -3.5313    1.7829 H   0  0  0  0  0  0  0  0  0  0  0  0
   -0.0824   -4.6249    0.9617 H   0  0  0  0  0  0  0  0  0  0  0  0
    0.5899   -3.1054    1.5492 H   0  0  0  0  0  0  0  0  0  0  0  0
    0.6942   -5.7798    3.0374 H   0  0  0  0  0  0  0  0  0  0  0  0
    1.5737   -2.9873    3.9842 H   0  0  0  0  0  0  0  0  0  0  0  0
    2.6425   -4.3797    3.6680 H   0  0  0  0  0  0  0  0  0  0  0  0
    1.4747   -4.4416    5.0033 H   0  0  0  0  0  0  0  0  0  0  0  0
   -1.0344   -3.2772    3.5307 H   0  0  0  0  0  0  0  0  0  0  0  0
   -1.0179   -4.7411    4.5394 H   0  0  0  0  0  0  0  0  0  0  0  0
   -1.6180   -4.8210    2.8666 H   0  0  0  0  0  0  0  0  0  0  0  0
    0.4268   -6.7120    0.9209 H   0  0  0  0  0  0  0  0  0  0  0  0
    0.0442   -8.8475    0.3438 H   0  0  0  0  0  0  0  0  0  0  0  0
    3.1648   -9.1931   -1.2724 H   0  0  0  0  0  0  0  0  0  0  0  0
    4.7716   -7.2456   -1.4147 H   0  0  0  0  0  0  0  0  0  0  0  0
    7.0062   -4.3096   -1.2059 H   0  0  0  0  0  0  0  0  0  0  0  0
  1  2  1  0
  1 24  1  0
  1 25  1  0
  1 26  1  0
  2  3  2  0
  2 23  1  0
  3  4  1  0
  3 27  1  0
  4  5  2  0
  4 28  1  0
  5  6  1  0
  5 29  1  0
  6  7  1  0
  6 23  2  0
  7  8  1  0
  7 30  1  0
  7 31  1  0
  8  9  1  0
  8 22  1  0
  8 32  1  6
  9 10  1  0
  9 33  1  0
  9 34  1  0
 10 11  1  0
 10 15  1  0
 11 12  1  0
 11 35  1  0
 11 36  1  0
 12 13  1  0
 12 14  1  0
 12 37  1  6
 13 38  1  0
 13 39  1  0
 13 40  1  0
 14 41  1  0
 14 42  1  0
 14 43  1  0
 15 16  2  0
 15 21  1  0
 16 17  1  0
 16 44  1  0
 17 18  1  0
 17 19  2  0
 18 45  1  0
 19 20  1  0
 19 46  1  0
 20 21  2  0
 20 47  1  0
 21 22  1  0
 23 48  1  0
M  END

