
     RDKit          3D

 46 48  0  0  0  0  0  0  0  0999 V2000
    1.9249    1.2850   -0.0920 C   0  0  0  0  0  0  0  0  0  0  0  0
    3.2387    0.8356   -0.4103 O   0  0  0  0  0  0  0  0  0  0  0  0
    3.5104   -0.4626   -0.1108 C   0  0  0  0  0  0  0  0  0  0  0  0
    2.6836   -1.1913    0.3938 O   0  0  0  0  0  0  0  0  0  0  0  0
    4.8812   -0.8457   -0.4679 C   0  0  0  0  0  0  0  0  0  0  0  0
    5.8723   -0.0307   -1.0561 C   0  0  0  0  0  0  0  0  0  0  0  0
    5.8534    1.3990   -1.4922 C   0  0  0  0  0  0  0  0  0  0  0  0
    6.9734   -0.7922   -1.1999 N   0  0  0  0  0  0  0  0  0  0  0  0
    7.8398   -0.5081   -1.6488 H   0  0  0  0  0  0  0  0  0  0  0  0
    6.7589   -2.0873   -0.7365 C   0  0  0  0  0  0  0  0  0  0  0  0
    7.8155   -3.0971   -0.7359 C   0  0  0  0  0  0  0  0  0  0  0  0
    7.6522   -4.2379   -0.3269 O   0  0  0  0  0  0  0  0  0  0  0  0
    9.2270   -2.6964   -1.2159 C   0  0  0  0  0  0  0  0  0  0  0  0
    9.2643   -2.0296   -2.5274 N   0  0  0  0  0  0  0  0  0  0  0  0
    8.7833   -2.8708   -3.6313 C   0  0  0  0  0  0  0  0  0  0  0  0
    9.8951   -3.7497   -4.2094 C   0  0  0  0  0  0  0  0  0  0  0  0
   11.0006   -2.8588   -4.7797 C   0  0  0  0  0  0  0  0  0  0  0  0
   11.3190   -1.6726   -3.8898 C   0  0  0  0  0  0  0  0  0  0  0  0
   12.4627   -0.8991   -4.1473 C   0  0  0  0  0  0  0  0  0  0  0  0
   12.7584    0.2023   -3.3565 C   0  0  0  0  0  0  0  0  0  0  0  0
   13.8604    0.9219   -3.6079 F   0  0  0  0  0  0  0  0  0  0  0  0
   11.9279    0.5879   -2.3043 C   0  0  0  0  0  0  0  0  0  0  0  0
   10.7939   -0.1752   -2.0775 C   0  0  0  0  0  0  0  0  0  0  0  0
    9.9507    0.2088   -1.0929 F   0  0  0  0  0  0  0  0  0  0  0  0
   10.4559   -1.3183   -2.8277 C   0  0  0  0  0  0  0  0  0  0  0  0
    5.4396   -2.1467   -0.2661 C   0  0  0  0  0  0  0  0  0  0  0  0
    4.7527   -3.3299    0.3411 C   0  0  0  0  0  0  0  0  0  0  0  0
    1.8793    2.3394   -0.3935 H   0  0  0  0  0  0  0  0  0  0  0  0
    1.7245    1.1890    0.9862 H   0  0  0  0  0  0  0  0  0  0  0  0
    1.1651    0.7014   -0.6342 H   0  0  0  0  0  0  0  0  0  0  0  0
    5.0932    1.5676   -2.2702 H   0  0  0  0  0  0  0  0  0  0  0  0
    6.8365    1.6988   -1.8853 H   0  0  0  0  0  0  0  0  0  0  0  0
    5.5915    2.0624   -0.6547 H   0  0  0  0  0  0  0  0  0  0  0  0
    9.8208   -3.6288   -1.1982 H   0  0  0  0  0  0  0  0  0  0  0  0
    9.6553   -2.0177   -0.4629 H   0  0  0  0  0  0  0  0  0  0  0  0
    8.3787   -2.2133   -4.4213 H   0  0  0  0  0  0  0  0  0  0  0  0
    7.9452   -3.4790   -3.2632 H   0  0  0  0  0  0  0  0  0  0  0  0
    9.4939   -4.4152   -4.9899 H   0  0  0  0  0  0  0  0  0  0  0  0
   10.2954   -4.4017   -3.4145 H   0  0  0  0  0  0  0  0  0  0  0  0
   10.6879   -2.4739   -5.7679 H   0  0  0  0  0  0  0  0  0  0  0  0
   11.9202   -3.4384   -4.9620 H   0  0  0  0  0  0  0  0  0  0  0  0
   13.1382   -1.1611   -4.9647 H   0  0  0  0  0  0  0  0  0  0  0  0
   12.1467    1.4633   -1.6925 H   0  0  0  0  0  0  0  0  0  0  0  0
    5.4326   -4.1874    0.3889 H   0  0  0  0  0  0  0  0  0  0  0  0
    3.8571   -3.5978   -0.2416 H   0  0  0  0  0  0  0  0  0  0  0  0
    4.3839   -3.0885    1.3502 H   0  0  0  0  0  0  0  0  0  0  0  0
  1  2  1  0
  1 28  1  0
  1 29  1  0
  1 30  1  0
  2  3  1  0
  3  4  2  0
  3  5  1  0
  5  6  2  0
  5 26  1  0
  6  7  1  0
  6  8  1  0
  7 31  1  0
  7 32  1  0
  7 33  1  0
  8  9  1  0
  8 10  1  0
 10 11  1  0
 10 26  2  0
 11 12  2  0
 11 13  1  0
 13 14  1  0
 13 34  1  0
 13 35  1  0
 14 15  1  0
 14 25  1  0
 15 16  1  0
 15 36  1  0
 15 37  1  0
 16 17  1  0
 16 38  1  0
 16 39  1  0
 17 18  1  0
 17 40  1  0
 17 41  1  0
 18 19  2  0
 18 25  1  0
 19 20  1  0
 19 42  1  0
 20 21  1  0
 20 22  2  0
 22 23  1  0
 22 43  1  0
 23 24  1  0
 23 25  2  0
 26 27  1  0
 27 44  1  0
 27 45  1  0
 27 46  1  0
M  END

