
     RDKit          3D

 44 47  0  0  0  0  0  0  0  0999 V2000
    1.0857   -0.4757   -0.7587 C   0  0  0  0  0  0  0  0  0  0  0  0
    2.5569   -0.2506   -0.4936 C   0  0  0  0  0  0  0  0  0  0  0  0
    3.2229    0.9902   -1.0333 C   0  0  0  0  0  0  0  0  0  0  0  0
    2.7832    2.2899   -0.3152 C   0  0  0  0  0  0  0  0  0  0  0  0
    3.4429    3.5325   -0.8740 C   0  0  0  0  0  0  0  0  0  0  0  0
    4.6286    4.0261   -0.3128 C   0  0  0  0  0  0  0  0  0  0  0  0
    5.2934    5.1555   -0.8317 C   0  0  0  0  0  0  0  0  0  0  0  0
    4.7268    5.7639   -1.9362 C   0  0  0  0  0  0  0  0  0  0  0  0
    3.5454    5.2835   -2.5071 C   0  0  0  0  0  0  0  0  0  0  0  0
    2.8834    4.1800   -2.0021 C   0  0  0  0  0  0  0  0  0  0  0  0
    3.1909    6.0890   -3.5552 O   0  0  0  0  0  0  0  0  0  0  0  0
    4.2797    6.9881   -3.7471 C   0  0  0  0  0  0  0  0  0  0  0  0
    5.1357    6.8809   -2.6147 O   0  0  0  0  0  0  0  0  0  0  0  0
    3.2864   -1.0615    0.1911 N   0  0  0  0  0  0  0  0  0  0  0  0
    2.7386   -2.1726    0.7116 N   0  0  0  0  0  0  0  0  0  0  0  0
    3.4746   -3.0881    1.4442 C   0  0  0  0  0  0  0  0  0  0  0  0
    4.8735   -2.8902    1.6764 C   0  0  0  0  0  0  0  0  0  0  0  0
    5.5398   -3.8366    2.4108 C   0  0  0  0  0  0  0  0  0  0  0  0
    4.8482   -4.9747    2.9190 C   0  0  0  0  0  0  0  0  0  0  0  0
    5.4714   -5.9930    3.6854 C   0  0  0  0  0  0  0  0  0  0  0  0
    4.7423   -7.0715    4.1483 C   0  0  0  0  0  0  0  0  0  0  0  0
    3.3586   -7.1665    3.8578 C   0  0  0  0  0  0  0  0  0  0  0  0
    2.7242   -6.1910    3.1143 C   0  0  0  0  0  0  0  0  0  0  0  0
    3.4476   -5.0687    2.6238 C   0  0  0  0  0  0  0  0  0  0  0  0
    2.7964   -4.1244    1.8949 N   0  0  0  0  0  0  0  0  0  0  0  0
    0.6661    0.3127   -1.3982 H   0  0  0  0  0  0  0  0  0  0  0  0
    0.4983   -0.4937    0.1775 H   0  0  0  0  0  0  0  0  0  0  0  0
    0.9148   -1.4421   -1.2671 H   0  0  0  0  0  0  0  0  0  0  0  0
    3.0025    1.0891   -2.1120 H   0  0  0  0  0  0  0  0  0  0  0  0
    4.3114    0.8699   -0.9320 H   0  0  0  0  0  0  0  0  0  0  0  0
    3.0215    2.1915    0.7561 H   0  0  0  0  0  0  0  0  0  0  0  0
    1.6868    2.3953   -0.3842 H   0  0  0  0  0  0  0  0  0  0  0  0
    5.0525    3.5217    0.5594 H   0  0  0  0  0  0  0  0  0  0  0  0
    6.2104    5.5391   -0.3818 H   0  0  0  0  0  0  0  0  0  0  0  0
    1.9550    3.8303   -2.4589 H   0  0  0  0  0  0  0  0  0  0  0  0
    3.8999    8.0195   -3.8310 H   0  0  0  0  0  0  0  0  0  0  0  0
    4.8360    6.7085   -4.6646 H   0  0  0  0  0  0  0  0  0  0  0  0
    1.7516   -2.4048    0.6045 H   0  0  0  0  0  0  0  0  0  0  0  0
    5.3620   -2.0065    1.2689 H   0  0  0  0  0  0  0  0  0  0  0  0
    6.6093   -3.7263    2.6128 H   0  0  0  0  0  0  0  0  0  0  0  0
    6.5401   -5.9100    3.9039 H   0  0  0  0  0  0  0  0  0  0  0  0
    5.2286   -7.8523    4.7381 H   0  0  0  0  0  0  0  0  0  0  0  0
    2.7892   -8.0233    4.2280 H   0  0  0  0  0  0  0  0  0  0  0  0
    1.6590   -6.2481    2.8811 H   0  0  0  0  0  0  0  0  0  0  0  0
  1  2  1  0
  1 26  1  0
  1 27  1  0
  1 28  1  0
  2  3  1  0
  2 14  2  0
  3  4  1  0
  3 29  1  0
  3 30  1  0
  4  5  1  0
  4 31  1  0
  4 32  1  0
  5  6  2  0
  5 10  1  0
  6  7  1  0
  6 33  1  0
  7  8  2  0
  7 34  1  0
  8  9  1  0
  8 13  1  0
  9 10  2  0
  9 11  1  0
 10 35  1  0
 11 12  1  0
 12 13  1  0
 12 36  1  0
 12 37  1  0
 14 15  1  0
 15 16  1  0
 15 38  1  0
 16 17  2  0
 16 25  1  0
 17 18  1  0
 17 39  1  0
 18 19  2  0
 18 40  1  0
 19 20  1  0
 19 24  1  0
 20 21  2  0
 20 41  1  0
 21 22  1  0
 21 42  1  0
 22 23  2  0
 22 43  1  0
 23 24  1  0
 23 44  1  0
 24 25  2  0
M  END

