
     RDKit          3D

 57 58  0  0  0  0  0  0  0  0999 V2000
    0.8874    1.8248    2.4937 C   0  0  0  0  0  0  0  0  0  0  0  0
    1.8170    1.8851    1.2759 C   0  0  0  0  0  0  0  0  0  0  0  0
    2.6933    0.7245    1.1102 N   0  0  0  0  0  0  0  0  0  0  0  0
    2.1834   -0.3141    0.2249 C   0  0  0  0  0  0  0  0  0  0  0  0
    0.9299   -1.0364    0.7206 C   0  0  0  0  0  0  0  0  0  0  0  0
    4.1324    0.9728    0.9702 C   0  0  1  0  0  0  0  0  0  0  0  0
    4.5783    1.6421   -0.3616 C   0  0  0  0  0  0  0  0  0  0  0  0
    4.2590    3.0508   -0.5264 N   0  0  0  0  0  0  0  0  0  0  0  0
    5.1771    4.0437   -0.3201 C   0  0  0  0  0  0  0  0  0  0  0  0
    6.3107    3.8156    0.0812 O   0  0  0  0  0  0  0  0  0  0  0  0
    4.7104    5.4518   -0.5959 C   0  0  0  0  0  0  0  0  0  0  0  0
    5.4366    6.4775    0.0154 C   0  0  0  0  0  0  0  0  0  0  0  0
    5.0738    7.8175   -0.1827 C   0  0  0  0  0  0  0  0  0  0  0  0
    5.7173    8.8597    0.3801 O   0  0  0  0  0  0  0  0  0  0  0  0
    6.8348    8.6206    1.2111 C   0  0  0  0  0  0  0  0  0  0  0  0
    3.9761    8.1189   -1.0143 C   0  0  0  0  0  0  0  0  0  0  0  0
    3.4763    9.9236   -1.2917 Br  0  0  0  0  0  0  0  0  0  0  0  0
    3.2552    7.0891   -1.6503 C   0  0  0  0  0  0  0  0  0  0  0  0
    2.2336    7.4650   -2.4497 O   0  0  0  0  0  0  0  0  0  0  0  0
    1.4684    6.4872   -3.1169 C   0  0  0  0  0  0  0  0  0  0  0  0
    3.6288    5.7521   -1.4358 C   0  0  0  0  0  0  0  0  0  0  0  0
    4.7509    1.6763    2.1953 C   0  0  0  0  0  0  0  0  0  0  0  0
    4.6344    0.9235    3.5059 C   0  0  0  0  0  0  0  0  0  0  0  0
    5.1192   -0.3886    3.6404 C   0  0  0  0  0  0  0  0  0  0  0  0
    5.0414   -1.0669    4.8588 C   0  0  0  0  0  0  0  0  0  0  0  0
    4.4793   -0.4439    5.9779 C   0  0  0  0  0  0  0  0  0  0  0  0
    4.0020    0.8638    5.8645 C   0  0  0  0  0  0  0  0  0  0  0  0
    4.0812    1.5365    4.6406 C   0  0  0  0  0  0  0  0  0  0  0  0
    0.2999    2.7554    2.5714 H   0  0  0  0  0  0  0  0  0  0  0  0
    1.4726    1.7046    3.4171 H   0  0  0  0  0  0  0  0  0  0  0  0
    0.1807    0.9854    2.4381 H   0  0  0  0  0  0  0  0  0  0  0  0
    2.4354    2.7889    1.3750 H   0  0  0  0  0  0  0  0  0  0  0  0
    1.2074    2.0425    0.3578 H   0  0  0  0  0  0  0  0  0  0  0  0
    2.9835   -1.0631    0.1042 H   0  0  0  0  0  0  0  0  0  0  0  0
    1.9758    0.0768   -0.8009 H   0  0  0  0  0  0  0  0  0  0  0  0
    1.0818   -1.4268    1.7389 H   0  0  0  0  0  0  0  0  0  0  0  0
    0.6984   -1.8816    0.0522 H   0  0  0  0  0  0  0  0  0  0  0  0
    0.0461   -0.3808    0.7316 H   0  0  0  0  0  0  0  0  0  0  0  0
    4.5905   -0.0301    0.9192 H   0  0  0  0  0  0  0  0  0  0  0  0
    4.1370    1.0840   -1.2038 H   0  0  0  0  0  0  0  0  0  0  0  0
    5.6714    1.5589   -0.4468 H   0  0  0  0  0  0  0  0  0  0  0  0
    3.3114    3.3082   -0.7671 H   0  0  0  0  0  0  0  0  0  0  0  0
    6.2861    6.1962    0.6349 H   0  0  0  0  0  0  0  0  0  0  0  0
    7.1876    9.6063    1.5415 H   0  0  0  0  0  0  0  0  0  0  0  0
    7.6478    8.1096    0.6667 H   0  0  0  0  0  0  0  0  0  0  0  0
    6.5645    8.0186    2.0964 H   0  0  0  0  0  0  0  0  0  0  0  0
    0.7036    7.0300   -3.6879 H   0  0  0  0  0  0  0  0  0  0  0  0
    0.9669    5.8031   -2.4086 H   0  0  0  0  0  0  0  0  0  0  0  0
    2.0811    5.8917   -3.8173 H   0  0  0  0  0  0  0  0  0  0  0  0
    3.1003    4.9587   -1.9622 H   0  0  0  0  0  0  0  0  0  0  0  0
    4.3174    2.6811    2.3154 H   0  0  0  0  0  0  0  0  0  0  0  0
    5.8146    1.8549    1.9651 H   0  0  0  0  0  0  0  0  0  0  0  0
    5.5734   -0.8898    2.7808 H   0  0  0  0  0  0  0  0  0  0  0  0
    5.4265   -2.0874    4.9365 H   0  0  0  0  0  0  0  0  0  0  0  0
    4.4186   -0.9736    6.9320 H   0  0  0  0  0  0  0  0  0  0  0  0
    3.5654    1.3658    6.7322 H   0  0  0  0  0  0  0  0  0  0  0  0
    3.7099    2.5627    4.5660 H   0  0  0  0  0  0  0  0  0  0  0  0
  1  2  1  0
  1 29  1  0
  1 30  1  0
  1 31  1  0
  2  3  1  0
  2 32  1  0
  2 33  1  0
  3  4  1  0
  3  6  1  0
  4  5  1  0
  4 34  1  0
  4 35  1  0
  5 36  1  0
  5 37  1  0
  5 38  1  0
  6  7  1  0
  6 22  1  0
  6 39  1  6
  7  8  1  0
  7 40  1  0
  7 41  1  0
  8  9  1  0
  8 42  1  0
  9 10  2  0
  9 11  1  0
 11 12  2  0
 11 21  1  0
 12 13  1  0
 12 43  1  0
 13 14  1  0
 13 16  2  0
 14 15  1  0
 15 44  1  0
 15 45  1  0
 15 46  1  0
 16 17  1  0
 16 18  1  0
 18 19  1  0
 18 21  2  0
 19 20  1  0
 20 47  1  0
 20 48  1  0
 20 49  1  0
 21 50  1  0
 22 23  1  0
 22 51  1  0
 22 52  1  0
 23 24  2  0
 23 28  1  0
 24 25  1  0
 24 53  1  0
 25 26  2  0
 25 54  1  0
 26 27  1  0
 26 55  1  0
 27 28  2  0
 27 56  1  0
 28 57  1  0
M  END

