
     RDKit          3D

 46 48  0  0  0  0  0  0  0  0999 V2000
    4.6324    3.3855    6.7924 C   0  0  0  0  0  0  0  0  0  0  0  0
    4.0454    2.3138    5.8740 C   0  0  0  0  0  0  0  0  0  0  0  0
    4.7582    2.1953    4.6103 N   0  0  0  0  0  0  0  0  0  0  0  0
    4.2362    2.6166    3.4267 C   0  0  0  0  0  0  0  0  0  0  0  0
    3.1077    3.0759    3.3196 O   0  0  0  0  0  0  0  0  0  0  0  0
    5.1188    2.4533    2.1790 C   0  0  2  0  0  0  0  0  0  0  0  0
    4.6368    1.6346    1.6133 H   0  0  0  0  0  0  0  0  0  0  0  0
    6.5939    2.1147    2.3727 C   0  0  0  0  0  0  0  0  0  0  0  0
    7.2472    1.9049    1.0050 C   0  0  0  0  0  0  0  0  0  0  0  0
    6.7838    2.7743   -0.1675 C   0  0  0  0  0  0  0  0  0  0  0  0
    7.4358    2.7693   -1.1951 O   0  0  0  0  0  0  0  0  0  0  0  0
    5.5759    3.4527   -0.0411 N   0  0  0  0  0  0  0  0  0  0  0  0
    4.9573    4.0648   -1.1813 C   0  0  0  0  0  0  0  0  0  0  0  0
    4.9753    3.4342   -2.4364 C   0  0  0  0  0  0  0  0  0  0  0  0
    4.3229    4.0110   -3.5259 C   0  0  0  0  0  0  0  0  0  0  0  0
    3.6256    5.2230   -3.4158 C   0  0  0  0  0  0  0  0  0  0  0  0
    2.9190    5.8432   -4.5964 C   0  0  0  0  0  0  0  0  0  0  0  0
    3.6096    5.8403   -2.1573 C   0  0  0  0  0  0  0  0  0  0  0  0
    4.2641    5.2808   -1.0588 C   0  0  0  0  0  0  0  0  0  0  0  0
    4.9852    3.7117    1.2834 C   0  0  2  0  0  0  0  0  0  0  0  0
    3.9073    3.8602    1.1389 H   0  0  0  0  0  0  0  0  0  0  0  0
    5.5707    4.9685    1.9121 C   0  0  0  0  0  0  0  0  0  0  0  0
    6.7689    5.5842    1.6281 C   0  0  0  0  0  0  0  0  0  0  0  0
    7.0004    6.7641    2.3999 C   0  0  0  0  0  0  0  0  0  0  0  0
    5.9688    7.0411    3.2579 C   0  0  0  0  0  0  0  0  0  0  0  0
    4.7026    5.8671    3.1373 S   0  0  0  0  0  0  0  0  0  0  0  0
    4.0601    3.4428    7.7321 H   0  0  0  0  0  0  0  0  0  0  0  0
    4.6031    4.3730    6.3069 H   0  0  0  0  0  0  0  0  0  0  0  0
    5.6811    3.1648    7.0540 H   0  0  0  0  0  0  0  0  0  0  0  0
    3.0044    2.5533    5.6169 H   0  0  0  0  0  0  0  0  0  0  0  0
    4.0454    1.3327    6.3810 H   0  0  0  0  0  0  0  0  0  0  0  0
    5.7216    1.8861    4.6349 H   0  0  0  0  0  0  0  0  0  0  0  0
    6.7208    1.1979    2.9725 H   0  0  0  0  0  0  0  0  0  0  0  0
    7.0929    2.9347    2.9146 H   0  0  0  0  0  0  0  0  0  0  0  0
    7.0525    0.8753    0.6552 H   0  0  0  0  0  0  0  0  0  0  0  0
    8.3420    1.9994    1.0468 H   0  0  0  0  0  0  0  0  0  0  0  0
    5.5108    2.4962   -2.5671 H   0  0  0  0  0  0  0  0  0  0  0  0
    4.3555    3.4957   -4.4902 H   0  0  0  0  0  0  0  0  0  0  0  0
    3.0413    5.2355   -5.5052 H   0  0  0  0  0  0  0  0  0  0  0  0
    3.3077    6.8525   -4.8132 H   0  0  0  0  0  0  0  0  0  0  0  0
    1.8374    5.9504   -4.4076 H   0  0  0  0  0  0  0  0  0  0  0  0
    3.0788    6.7881   -2.0261 H   0  0  0  0  0  0  0  0  0  0  0  0
    4.2379    5.8090   -0.1062 H   0  0  0  0  0  0  0  0  0  0  0  0
    7.4574    5.2231    0.8628 H   0  0  0  0  0  0  0  0  0  0  0  0
    7.8947    7.3827    2.3098 H   0  0  0  0  0  0  0  0  0  0  0  0
    5.8760    7.8721    3.9563 H   0  0  0  0  0  0  0  0  0  0  0  0
  1  2  1  0
  1 27  1  0
  1 28  1  0
  1 29  1  0
  2  3  1  0
  2 30  1  0
  2 31  1  0
  3  4  1  0
  3 32  1  0
  4  5  2  0
  4  6  1  0
  6  7  1  6
  6  8  1  0
  6 20  1  0
  8  9  1  0
  8 33  1  0
  8 34  1  0
  9 10  1  0
  9 35  1  0
  9 36  1  0
 10 11  2  0
 10 12  1  0
 12 13  1  0
 12 20  1  0
 13 14  2  0
 13 19  1  0
 14 15  1  0
 14 37  1  0
 15 16  2  0
 15 38  1  0
 16 17  1  0
 16 18  1  0
 17 39  1  0
 17 40  1  0
 17 41  1  0
 18 19  2  0
 18 42  1  0
 19 43  1  0
 20 21  1  6
 20 22  1  0
 22 23  2  0
 22 26  1  0
 23 24  1  0
 23 44  1  0
 24 25  2  0
 24 45  1  0
 25 26  1  0
 25 46  1  0
M  END

