
     RDKit          3D

 39 40  0  0  0  0  0  0  0  0999 V2000
    1.0660    0.6255    0.8014 C   0  0  0  0  0  0  0  0  0  0  0  0
    2.2032    0.0772    0.0843 N   0  0  0  0  0  0  0  0  0  0  0  0
    2.8341    0.9703   -0.8859 C   0  0  1  0  0  0  0  0  0  0  0  0
    3.5583    2.1445   -0.1989 C   0  0  0  0  0  0  0  0  0  0  0  0
    4.7250    1.6795    0.6771 C   0  0  0  0  0  0  0  0  0  0  0  0
    5.7428    0.8495   -0.1123 C   0  0  2  0  0  0  0  0  0  0  0  0
    5.0580   -0.2733   -0.8932 C   0  0  0  0  0  0  0  0  0  0  0  0
    3.8380    0.1426   -1.7268 C   0  0  2  0  0  0  0  0  0  0  0  0
    4.1414    1.1357   -3.2689 S   0  0  0  0  0  0  0  0  0  0  0  0
    5.6911    0.4470   -3.9561 C   0  0  0  0  0  0  0  0  0  0  0  0
    5.5064   -0.9638   -4.4636 C   0  0  0  0  0  0  0  0  0  0  0  0
    5.4760   -1.9519   -3.7659 O   0  0  0  0  0  0  0  0  0  0  0  0
    5.3465   -0.9999   -5.7979 O   0  0  0  0  0  0  0  0  0  0  0  0
    5.0999   -2.2842   -6.3707 C   0  0  0  0  0  0  0  0  0  0  0  0
    6.6851    0.2898    0.8082 O   0  0  0  0  0  0  0  0  0  0  0  0
    7.9929    0.6768    0.4329 C   0  0  0  0  0  0  0  0  0  0  0  0
    7.7454    1.9479   -0.3750 C   0  0  0  0  0  0  0  0  0  0  0  0
    6.5102    1.6612   -1.0053 O   0  0  0  0  0  0  0  0  0  0  0  0
    0.5809   -0.1732    1.3836 H   0  0  0  0  0  0  0  0  0  0  0  0
    0.2937    1.0883    0.1462 H   0  0  0  0  0  0  0  0  0  0  0  0
    1.3862    1.3954    1.5215 H   0  0  0  0  0  0  0  0  0  0  0  0
    1.9237   -0.7812   -0.3876 H   0  0  0  0  0  0  0  0  0  0  0  0
    2.0763    1.4020   -1.5803 H   0  0  0  0  0  0  0  0  0  0  0  0
    2.8436    2.7307    0.4002 H   0  0  0  0  0  0  0  0  0  0  0  0
    3.9343    2.8172   -0.9848 H   0  0  0  0  0  0  0  0  0  0  0  0
    4.3571    1.0475    1.4994 H   0  0  0  0  0  0  0  0  0  0  0  0
    5.2439    2.5398    1.1300 H   0  0  0  0  0  0  0  0  0  0  0  0
    4.6861   -0.9823   -0.1377 H   0  0  0  0  0  0  0  0  0  0  0  0
    5.7917   -0.8191   -1.5009 H   0  0  0  0  0  0  0  0  0  0  0  0
    3.3391   -0.7805   -2.0634 H   0  0  0  0  0  0  0  0  0  0  0  0
    6.4758    0.4902   -3.1896 H   0  0  0  0  0  0  0  0  0  0  0  0
    5.9499    1.1209   -4.7836 H   0  0  0  0  0  0  0  0  0  0  0  0
    5.0116   -2.1250   -7.4525 H   0  0  0  0  0  0  0  0  0  0  0  0
    4.1698   -2.7174   -5.9721 H   0  0  0  0  0  0  0  0  0  0  0  0
    5.9266   -2.9771   -6.1521 H   0  0  0  0  0  0  0  0  0  0  0  0
    8.4813   -0.1021   -0.1847 H   0  0  0  0  0  0  0  0  0  0  0  0
    8.5985    0.8386    1.3385 H   0  0  0  0  0  0  0  0  0  0  0  0
    8.5019    2.1472   -1.1485 H   0  0  0  0  0  0  0  0  0  0  0  0
    7.6681    2.8348    0.2837 H   0  0  0  0  0  0  0  0  0  0  0  0
  1  2  1  0
  1 19  1  0
  1 20  1  0
  1 21  1  0
  2  3  1  0
  2 22  1  0
  3  4  1  0
  3  8  1  0
  3 23  1  6
  4  5  1  0
  4 24  1  0
  4 25  1  0
  5  6  1  0
  5 26  1  0
  5 27  1  0
  6  7  1  0
  6 15  1  1
  6 18  1  0
  7  8  1  0
  7 28  1  0
  7 29  1  0
  8  9  1  0
  8 30  1  6
  9 10  1  0
 10 11  1  0
 10 31  1  0
 10 32  1  0
 11 12  2  0
 11 13  1  0
 13 14  1  0
 14 33  1  0
 14 34  1  0
 14 35  1  0
 15 16  1  0
 16 17  1  0
 16 36  1  0
 16 37  1  0
 17 18  1  0
 17 38  1  0
 17 39  1  0
M  END

