
     RDKit          3D

 34 35  0  0  0  0  0  0  0  0999 V2000
    3.2611    1.1945    0.2690 C   0  0  0  0  0  0  0  0  0  0  0  0
    3.5360   -0.2164   -0.2643 C   0  0  0  0  0  0  0  0  0  0  0  0
    2.3772   -0.8606   -1.0819 C   0  0  2  0  0  0  0  0  0  0  0  0
    1.0352   -0.7821   -0.3323 C   0  0  0  0  0  0  0  0  0  0  0  0
    1.0685   -1.7247    0.8840 C   0  0  0  0  0  0  0  0  0  0  0  0
    1.3972   -3.0641    0.5547 O   0  0  0  0  0  0  0  0  0  0  0  0
    2.6211   -3.2278   -0.1507 C   0  0  0  0  0  0  0  0  0  0  0  0
    2.5755   -2.3693   -1.4075 C   0  0  2  0  0  0  0  0  0  0  0  0
    3.6413   -2.4385   -2.5342 C   0  0  1  0  0  0  0  0  0  0  0  0
    5.0675   -2.7524   -2.0441 C   0  0  0  0  0  0  0  0  0  0  0  0
    3.2451   -3.4833   -3.5948 C   0  0  0  0  0  0  0  0  0  0  0  0
    3.5721   -1.0573   -3.0817 N   0  0  0  0  0  0  0  0  0  0  0  0
    2.4314   -0.3245   -2.5252 C   0  0  0  0  0  0  0  0  0  0  0  0
    4.1840    1.6341    0.6799 H   0  0  0  0  0  0  0  0  0  0  0  0
    2.5122    1.2056    1.0767 H   0  0  0  0  0  0  0  0  0  0  0  0
    2.9034    1.8727   -0.5232 H   0  0  0  0  0  0  0  0  0  0  0  0
    3.8186   -0.8600    0.5841 H   0  0  0  0  0  0  0  0  0  0  0  0
    4.4164   -0.1759   -0.9209 H   0  0  0  0  0  0  0  0  0  0  0  0
    0.2193   -1.0961   -1.0054 H   0  0  0  0  0  0  0  0  0  0  0  0
    0.7940    0.2384    0.0058 H   0  0  0  0  0  0  0  0  0  0  0  0
    0.0772   -1.7700    1.3611 H   0  0  0  0  0  0  0  0  0  0  0  0
    1.7758   -1.3344    1.6445 H   0  0  0  0  0  0  0  0  0  0  0  0
    2.6897   -4.3007   -0.3912 H   0  0  0  0  0  0  0  0  0  0  0  0
    3.4839   -2.9793    0.4980 H   0  0  0  0  0  0  0  0  0  0  0  0
    1.6276   -2.6690   -1.8882 H   0  0  0  0  0  0  0  0  0  0  0  0
    5.1448   -3.7854   -1.6656 H   0  0  0  0  0  0  0  0  0  0  0  0
    5.3883   -2.0686   -1.2473 H   0  0  0  0  0  0  0  0  0  0  0  0
    5.7801   -2.6466   -2.8781 H   0  0  0  0  0  0  0  0  0  0  0  0
    3.2078   -4.4988   -3.1672 H   0  0  0  0  0  0  0  0  0  0  0  0
    3.9772   -3.5020   -4.4200 H   0  0  0  0  0  0  0  0  0  0  0  0
    2.2537   -3.2591   -4.0203 H   0  0  0  0  0  0  0  0  0  0  0  0
    3.6235   -1.0268   -4.0961 H   0  0  0  0  0  0  0  0  0  0  0  0
    1.4648   -0.5313   -3.0343 H   0  0  0  0  0  0  0  0  0  0  0  0
    2.6041    0.7637   -2.5839 H   0  0  0  0  0  0  0  0  0  0  0  0
  1  2  1  0
  1 14  1  0
  1 15  1  0
  1 16  1  0
  3  2  1  1
  2 17  1  0
  2 18  1  0
  3  4  1  0
  3  8  1  0
  3 13  1  0
  4  5  1  0
  4 19  1  0
  4 20  1  0
  5  6  1  0
  5 21  1  0
  5 22  1  0
  6  7  1  0
  7  8  1  0
  7 23  1  0
  7 24  1  0
  8  9  1  0
  8 25  1  6
  9 10  1  1
  9 11  1  0
  9 12  1  0
 10 26  1  0
 10 27  1  0
 10 28  1  0
 11 29  1  0
 11 30  1  0
 11 31  1  0
 12 13  1  0
 12 32  1  0
 13 33  1  0
 13 34  1  0
M  END

