
     RDKit          3D

 39 39  0  0  0  0  0  0  0  0999 V2000
    3.0686    2.1758    1.9206 C   0  0  0  0  0  0  0  0  0  0  0  0
    4.5971    2.2029    1.7705 C   0  0  1  0  0  0  0  0  0  0  0  0
    5.2754    2.2942    3.1446 C   0  0  0  0  0  0  0  0  0  0  0  0
    5.1708    1.0392    0.9174 C   0  0  1  0  0  0  0  0  0  0  0  0
    4.7945   -0.3596    1.4233 C   0  0  0  0  0  0  0  0  0  0  0  0
    4.8070    1.1514   -0.5788 C   0  0  0  0  0  0  0  0  0  0  0  0
    5.2519    2.3766   -1.2251 N   0  0  0  0  0  0  0  0  0  0  0  0
    6.4922    2.4885   -1.7837 C   0  0  0  0  0  0  0  0  0  0  0  0
    7.2737    1.5315   -1.7681 O   0  0  0  0  0  0  0  0  0  0  0  0
    6.8445    3.7976   -2.4185 C   0  0  0  0  0  0  0  0  0  0  0  0
    6.1196    4.9685   -2.1457 C   0  0  0  0  0  0  0  0  0  0  0  0
    6.4173    6.1875   -2.7479 C   0  0  0  0  0  0  0  0  0  0  0  0
    5.6557    7.4335   -2.4045 C   0  0  1  0  0  0  0  0  0  0  0  0
    4.5133    7.1653   -1.7413 F   0  0  0  0  0  0  0  0  0  0  0  0
    6.3707    8.2719   -1.6239 F   0  0  0  0  0  0  0  0  0  0  0  0
    5.3243    8.1369   -3.5063 F   0  0  0  0  0  0  0  0  0  0  0  0
    7.4856    6.2478   -3.6621 C   0  0  0  0  0  0  0  0  0  0  0  0
    8.2357    5.1203   -3.9358 C   0  0  0  0  0  0  0  0  0  0  0  0
    7.9596    3.8714   -3.3157 C   0  0  0  0  0  0  0  0  0  0  0  0
    8.7255    2.7891   -3.5895 N   0  0  0  0  0  0  0  0  0  0  0  0
    2.7139    3.0826    2.4366 H   0  0  0  0  0  0  0  0  0  0  0  0
    2.7327    1.3110    2.5159 H   0  0  0  0  0  0  0  0  0  0  0  0
    2.5490    2.1304    0.9495 H   0  0  0  0  0  0  0  0  0  0  0  0
    4.8596    3.1298    1.2284 H   0  0  0  0  0  0  0  0  0  0  0  0
    5.0405    1.4215    3.7763 H   0  0  0  0  0  0  0  0  0  0  0  0
    4.9393    3.1904    3.6908 H   0  0  0  0  0  0  0  0  0  0  0  0
    6.3717    2.3524    3.0488 H   0  0  0  0  0  0  0  0  0  0  0  0
    6.2706    1.1264    0.9646 H   0  0  0  0  0  0  0  0  0  0  0  0
    3.7157   -0.5605    1.3143 H   0  0  0  0  0  0  0  0  0  0  0  0
    5.0522   -0.4948    2.4847 H   0  0  0  0  0  0  0  0  0  0  0  0
    5.3311   -1.1361    0.8550 H   0  0  0  0  0  0  0  0  0  0  0  0
    3.7165    1.0718   -0.7175 H   0  0  0  0  0  0  0  0  0  0  0  0
    5.2700    0.3091   -1.1140 H   0  0  0  0  0  0  0  0  0  0  0  0
    4.5892    3.1287   -1.3486 H   0  0  0  0  0  0  0  0  0  0  0  0
    5.3021    4.9446   -1.4239 H   0  0  0  0  0  0  0  0  0  0  0  0
    7.7279    7.1921   -4.1550 H   0  0  0  0  0  0  0  0  0  0  0  0
    9.0703    5.1798   -4.6395 H   0  0  0  0  0  0  0  0  0  0  0  0
    9.5396    2.8838   -4.1792 H   0  0  0  0  0  0  0  0  0  0  0  0
    8.5639    1.9526   -3.0286 H   0  0  0  0  0  0  0  0  0  0  0  0
  1  2  1  0
  1 21  1  0
  1 22  1  0
  1 23  1  0
  2  3  1  0
  2  4  1  0
  2 24  1  6
  3 25  1  0
  3 26  1  0
  3 27  1  0
  4  5  1  0
  4  6  1  0
  4 28  1  6
  5 29  1  0
  5 30  1  0
  5 31  1  0
  6  7  1  0
  6 32  1  0
  6 33  1  0
  7  8  1  0
  7 34  1  0
  8  9  2  0
  8 10  1  0
 10 11  2  0
 10 19  1  0
 11 12  1  0
 11 35  1  0
 12 13  1  0
 12 17  2  0
 13 14  1  1
 13 15  1  0
 13 16  1  0
 17 18  1  0
 17 36  1  0
 18 19  2  0
 18 37  1  0
 19 20  1  0
 20 38  1  0
 20 39  1  0
M  END

