
     RDKit          3D

 57 58  0  0  0  0  0  0  0  0999 V2000
    8.8375    3.4458   -1.4335 C   0  0  0  0  0  0  0  0  0  0  0  0
    7.8782    2.3482   -1.0124 C   0  0  0  0  0  0  0  0  0  0  0  0
    7.2317    2.7394    0.1836 O   0  0  0  0  0  0  0  0  0  0  0  0
    6.2877    1.8290    0.6658 C   0  0  1  0  0  0  0  0  0  0  0  0
    6.7793    0.5910    1.4541 C   0  0  0  0  0  0  0  0  0  0  0  0
    5.6456    0.8253    2.4766 C   0  0  2  0  0  0  0  0  0  0  0  0
    6.0787    0.6574    3.8661 N   0  0  0  0  0  0  0  0  0  0  0  0
    5.4122    1.0575    4.9727 C   0  0  0  0  0  0  0  0  0  0  0  0
    4.2618    1.5097    4.9216 O   0  0  0  0  0  0  0  0  0  0  0  0
    6.1441    0.9346    6.2990 C   0  0  0  0  0  0  0  0  0  0  0  0
    5.2575    0.3320    7.3960 C   0  0  0  0  0  0  0  0  0  0  0  0
    4.9057   -1.1401    7.1625 C   0  0  0  0  0  0  0  0  0  0  0  0
    3.9943   -1.7258    8.2557 C   0  0  0  0  0  0  0  0  0  0  0  0
    3.6562   -3.1846    8.0389 C   0  0  0  0  0  0  0  0  0  0  0  0
    4.3816   -4.2033    8.6714 C   0  0  0  0  0  0  0  0  0  0  0  0
    4.0909   -5.5514    8.4383 C   0  0  0  0  0  0  0  0  0  0  0  0
    3.0643   -5.9317    7.5632 C   0  0  0  0  0  0  0  0  0  0  0  0
    2.7369   -7.3837    7.3104 C   0  0  0  0  0  0  0  0  0  0  0  0
    2.3370   -4.9098    6.9293 C   0  0  0  0  0  0  0  0  0  0  0  0
    2.6261   -3.5654    7.1623 C   0  0  0  0  0  0  0  0  0  0  0  0
    4.4044   -0.0419    2.1310 C   0  0  0  0  0  0  0  0  0  0  0  0
    4.3648   -0.7230    1.1354 O   0  0  0  0  0  0  0  0  0  0  0  0
    3.3762    0.0461    2.9653 O   0  0  0  0  0  0  0  0  0  0  0  0
    5.4948    2.3189    1.9127 C   0  0  1  0  0  0  0  0  0  0  0  0
    6.2933    3.3324    2.7370 C   0  0  0  0  0  0  0  0  0  0  0  0
    4.0866    2.8462    1.6392 C   0  0  0  0  0  0  0  0  0  0  0  0
    9.3528    3.1717   -2.3673 H   0  0  0  0  0  0  0  0  0  0  0  0
    9.5965    3.6184   -0.6547 H   0  0  0  0  0  0  0  0  0  0  0  0
    8.2958    4.3902   -1.5978 H   0  0  0  0  0  0  0  0  0  0  0  0
    8.4245    1.3943   -0.8632 H   0  0  0  0  0  0  0  0  0  0  0  0
    7.1251    2.1616   -1.8056 H   0  0  0  0  0  0  0  0  0  0  0  0
    5.5966    1.5192   -0.1405 H   0  0  0  0  0  0  0  0  0  0  0  0
    7.7674    0.7884    1.8968 H   0  0  0  0  0  0  0  0  0  0  0  0
    6.7637   -0.3821    0.9487 H   0  0  0  0  0  0  0  0  0  0  0  0
    7.0022    0.2606    3.9948 H   0  0  0  0  0  0  0  0  0  0  0  0
    6.4403    1.9594    6.5837 H   0  0  0  0  0  0  0  0  0  0  0  0
    7.0756    0.3562    6.1797 H   0  0  0  0  0  0  0  0  0  0  0  0
    4.3338    0.9307    7.4546 H   0  0  0  0  0  0  0  0  0  0  0  0
    5.7704    0.4434    8.3666 H   0  0  0  0  0  0  0  0  0  0  0  0
    5.8311   -1.7416    7.1046 H   0  0  0  0  0  0  0  0  0  0  0  0
    4.4055   -1.2542    6.1845 H   0  0  0  0  0  0  0  0  0  0  0  0
    3.0647   -1.1320    8.2970 H   0  0  0  0  0  0  0  0  0  0  0  0
    4.4842   -1.6034    9.2372 H   0  0  0  0  0  0  0  0  0  0  0  0
    5.1870   -3.9405    9.3642 H   0  0  0  0  0  0  0  0  0  0  0  0
    4.6736   -6.3226    8.9508 H   0  0  0  0  0  0  0  0  0  0  0  0
    3.4333   -8.0534    7.8365 H   0  0  0  0  0  0  0  0  0  0  0  0
    2.7843   -7.6252    6.2354 H   0  0  0  0  0  0  0  0  0  0  0  0
    1.7160   -7.6299    7.6487 H   0  0  0  0  0  0  0  0  0  0  0  0
    1.5272   -5.1726    6.2418 H   0  0  0  0  0  0  0  0  0  0  0  0
    2.0380   -2.7946    6.6547 H   0  0  0  0  0  0  0  0  0  0  0  0
    3.5610    0.6894    3.7054 H   0  0  0  0  0  0  0  0  0  0  0  0
    7.3057    2.9817    2.9834 H   0  0  0  0  0  0  0  0  0  0  0  0
    5.7648    3.5666    3.6734 H   0  0  0  0  0  0  0  0  0  0  0  0
    6.4053    4.2616    2.1600 H   0  0  0  0  0  0  0  0  0  0  0  0
    3.4884    2.1450    1.0382 H   0  0  0  0  0  0  0  0  0  0  0  0
    4.1548    3.7907    1.0749 H   0  0  0  0  0  0  0  0  0  0  0  0
    3.5444    3.0473    2.5754 H   0  0  0  0  0  0  0  0  0  0  0  0
  1  2  1  0
  1 27  1  0
  1 28  1  0
  1 29  1  0
  2  3  1  0
  2 30  1  0
  2 31  1  0
  3  4  1  0
  4  5  1  0
  4 24  1  0
  4 32  1  6
  5  6  1  0
  5 33  1  0
  5 34  1  0
  6  7  1  0
  6 21  1  6
  6 24  1  0
  7  8  1  0
  7 35  1  0
  8  9  2  0
  8 10  1  0
 10 11  1  0
 10 36  1  0
 10 37  1  0
 11 12  1  0
 11 38  1  0
 11 39  1  0
 12 13  1  0
 12 40  1  0
 12 41  1  0
 13 14  1  0
 13 42  1  0
 13 43  1  0
 14 15  2  0
 14 20  1  0
 15 16  1  0
 15 44  1  0
 16 17  2  0
 16 45  1  0
 17 18  1  0
 17 19  1  0
 18 46  1  0
 18 47  1  0
 18 48  1  0
 19 20  2  0
 19 49  1  0
 20 50  1  0
 21 22  2  0
 21 23  1  0
 23 51  1  0
 24 25  1  1
 24 26  1  0
 25 52  1  0
 25 53  1  0
 25 54  1  0
 26 55  1  0
 26 56  1  0
 26 57  1  0
M  END

