
     RDKit          3D

 88 92  0  0  0  0  0  0  0  0999 V2000
    3.0520    1.3795    6.6151 C   0  0  0  0  0  0  0  0  0  0  0  0
    3.2909    1.2035    5.1149 C   0  0  0  0  0  0  0  0  0  0  0  0
    3.9122   -0.1480    4.7507 C   0  0  0  0  0  0  0  0  0  0  0  0
    4.1396   -0.3182    3.2410 C   0  0  0  0  0  0  0  0  0  0  0  0
    4.7095   -1.6013    2.8546 N   0  0  0  0  0  0  0  0  0  0  0  0
    3.7651   -2.6555    2.5116 C   0  0  0  0  0  0  0  0  0  0  0  0
    3.4101   -2.7355    1.0192 C   0  0  0  0  0  0  0  0  0  0  0  0
    2.3968   -3.8391    0.7019 C   0  0  0  0  0  0  0  0  0  0  0  0
    2.0307   -3.9217   -0.7806 C   0  0  0  0  0  0  0  0  0  0  0  0
    6.0782   -1.8060    2.8141 C   0  0  0  0  0  0  0  0  0  0  0  0
    6.9984   -0.8166    3.2452 C   0  0  0  0  0  0  0  0  0  0  0  0
    8.3703   -1.0363    3.1943 C   0  0  0  0  0  0  0  0  0  0  0  0
    8.9294   -2.2413    2.7235 C   0  0  0  0  0  0  0  0  0  0  0  0
   10.3795   -2.4068    2.6987 C   0  0  0  0  0  0  0  0  0  0  0  0
   11.0798   -3.4899    2.2830 C   0  0  0  0  0  0  0  0  0  0  0  0
   12.5329   -3.6458    2.2610 C   0  0  0  0  0  0  0  0  0  0  0  0
   13.4327   -2.6160    2.6992 C   0  0  0  0  0  0  0  0  0  0  0  0
   14.7953   -2.7861    2.6744 C   0  0  0  0  0  0  0  0  0  0  0  0
   15.3651   -4.0066    2.2058 C   0  0  0  0  0  0  0  0  0  0  0  0
   16.6972   -4.1982    2.2240 N   0  0  0  0  0  0  0  0  0  0  0  0
   17.1981   -5.3437    1.7733 C   0  0  0  0  0  0  0  0  0  0  0  0
   18.6372   -5.5749    1.9163 C   0  0  0  0  0  0  0  0  0  0  0  0
   19.5069   -4.6213    2.3329 C   0  0  0  0  0  0  0  0  0  0  0  0
   20.9423   -4.7559    2.5391 C   0  0  0  0  0  0  0  0  0  0  0  0
   21.6609   -5.9561    2.3445 C   0  0  0  0  0  0  0  0  0  0  0  0
   23.0299   -6.0372    2.5535 C   0  0  0  0  0  0  0  0  0  0  0  0
   23.7802   -4.9059    2.9755 C   0  0  0  0  0  0  0  0  0  0  0  0
   25.1433   -4.9815    3.1800 N   0  0  0  0  0  0  0  0  0  0  0  0
   25.8382   -6.2401    3.0008 C   0  0  0  0  0  0  0  0  0  0  0  0
   25.8721   -3.8184    3.6430 C   0  0  0  0  0  0  0  0  0  0  0  0
   23.0638   -3.6989    3.1770 C   0  0  0  0  0  0  0  0  0  0  0  0
   21.6922   -3.6386    2.9615 C   0  0  0  0  0  0  0  0  0  0  0  0
   16.3063   -6.3487    1.2114 C   0  0  0  0  0  0  0  0  0  0  0  0
   16.7892   -7.6076    0.5696 C   0  0  0  0  0  0  0  0  0  0  0  0
   16.1162   -8.8139    0.8351 C   0  0  0  0  0  0  0  0  0  0  0  0
   16.5101  -10.0019    0.2185 C   0  0  0  0  0  0  0  0  0  0  0  0
   17.5726  -10.0041   -0.6917 C   0  0  0  0  0  0  0  0  0  0  0  0
   18.2340   -8.8077   -0.9828 C   0  0  0  0  0  0  0  0  0  0  0  0
   17.8483   -7.6195   -0.3562 C   0  0  0  0  0  0  0  0  0  0  0  0
   14.9977   -6.1912    1.2485 N   0  0  0  0  0  0  0  0  0  0  0  0
   14.4847   -5.0379    1.7473 C   0  0  0  0  0  0  0  0  0  0  0  0
   13.0845   -4.8371    1.7937 C   0  0  0  0  0  0  0  0  0  0  0  0
    8.0114   -3.2254    2.2983 C   0  0  0  0  0  0  0  0  0  0  0  0
    6.6392   -3.0221    2.3366 C   0  0  0  0  0  0  0  0  0  0  0  0
    2.6061    2.3611    6.8412 H   0  0  0  0  0  0  0  0  0  0  0  0
    3.9946    1.3029    7.1823 H   0  0  0  0  0  0  0  0  0  0  0  0
    2.3699    0.6059    7.0056 H   0  0  0  0  0  0  0  0  0  0  0  0
    3.9452    2.0159    4.7486 H   0  0  0  0  0  0  0  0  0  0  0  0
    2.3349    1.3241    4.5726 H   0  0  0  0  0  0  0  0  0  0  0  0
    3.2603   -0.9650    5.1095 H   0  0  0  0  0  0  0  0  0  0  0  0
    4.8728   -0.2734    5.2797 H   0  0  0  0  0  0  0  0  0  0  0  0
    4.7759    0.4981    2.8624 H   0  0  0  0  0  0  0  0  0  0  0  0
    3.1765   -0.2037    2.7150 H   0  0  0  0  0  0  0  0  0  0  0  0
    2.8434   -2.4861    3.0940 H   0  0  0  0  0  0  0  0  0  0  0  0
    4.1524   -3.6271    2.8587 H   0  0  0  0  0  0  0  0  0  0  0  0
    4.3324   -2.8944    0.4339 H   0  0  0  0  0  0  0  0  0  0  0  0
    3.0096   -1.7587    0.6931 H   0  0  0  0  0  0  0  0  0  0  0  0
    1.4808   -3.6767    1.2995 H   0  0  0  0  0  0  0  0  0  0  0  0
    2.8014   -4.8123    1.0358 H   0  0  0  0  0  0  0  0  0  0  0  0
    1.5869   -2.9770   -1.1369 H   0  0  0  0  0  0  0  0  0  0  0  0
    1.3020   -4.7251   -0.9730 H   0  0  0  0  0  0  0  0  0  0  0  0
    2.9195   -4.1220   -1.4019 H   0  0  0  0  0  0  0  0  0  0  0  0
    6.6430    0.1348    3.6388 H   0  0  0  0  0  0  0  0  0  0  0  0
    9.0390   -0.2426    3.5410 H   0  0  0  0  0  0  0  0  0  0  0  0
   10.9343   -1.5362    3.0648 H   0  0  0  0  0  0  0  0  0  0  0  0
   10.5292   -4.3625    1.9168 H   0  0  0  0  0  0  0  0  0  0  0  0
   13.0252   -1.6721    3.0665 H   0  0  0  0  0  0  0  0  0  0  0  0
   15.4767   -2.0045    3.0172 H   0  0  0  0  0  0  0  0  0  0  0  0
   18.9935   -6.5809    1.6933 H   0  0  0  0  0  0  0  0  0  0  0  0
   19.0830   -3.6331    2.5392 H   0  0  0  0  0  0  0  0  0  0  0  0
   21.1340   -6.8570    2.0212 H   0  0  0  0  0  0  0  0  0  0  0  0
   23.5244   -6.9936    2.3881 H   0  0  0  0  0  0  0  0  0  0  0  0
   25.7365   -6.6271    1.9705 H   0  0  0  0  0  0  0  0  0  0  0  0
   25.4722   -7.0260    3.6882 H   0  0  0  0  0  0  0  0  0  0  0  0
   26.9084   -6.0964    3.1969 H   0  0  0  0  0  0  0  0  0  0  0  0
   25.5238   -3.4698    4.6338 H   0  0  0  0  0  0  0  0  0  0  0  0
   25.7828   -2.9679    2.9428 H   0  0  0  0  0  0  0  0  0  0  0  0
   26.9377   -4.0661    3.7303 H   0  0  0  0  0  0  0  0  0  0  0  0
   23.5805   -2.7979    3.5053 H   0  0  0  0  0  0  0  0  0  0  0  0
   21.1747   -2.6892    3.1272 H   0  0  0  0  0  0  0  0  0  0  0  0
   15.2743   -8.8009    1.5297 H   0  0  0  0  0  0  0  0  0  0  0  0
   15.9822  -10.9319    0.4458 H   0  0  0  0  0  0  0  0  0  0  0  0
   17.8787  -10.9339   -1.1783 H   0  0  0  0  0  0  0  0  0  0  0  0
   19.0513   -8.7952   -1.7087 H   0  0  0  0  0  0  0  0  0  0  0  0
   18.3587   -6.6878   -0.6095 H   0  0  0  0  0  0  0  0  0  0  0  0
   12.4473   -5.6503    1.4380 H   0  0  0  0  0  0  0  0  0  0  0  0
    8.3776   -4.1812    1.9166 H   0  0  0  0  0  0  0  0  0  0  0  0
    5.9927   -3.8211    1.9758 H   0  0  0  0  0  0  0  0  0  0  0  0
  1  2  1  0
  1 45  1  0
  1 46  1  0
  1 47  1  0
  2  3  1  0
  2 48  1  0
  2 49  1  0
  3  4  1  0
  3 50  1  0
  3 51  1  0
  4  5  1  0
  4 52  1  0
  4 53  1  0
  5  6  1  0
  5 10  1  0
  6  7  1  0
  6 54  1  0
  6 55  1  0
  7  8  1  0
  7 56  1  0
  7 57  1  0
  8  9  1  0
  8 58  1  0
  8 59  1  0
  9 60  1  0
  9 61  1  0
  9 62  1  0
 10 11  2  0
 10 44  1  0
 11 12  1  0
 11 63  1  0
 12 13  2  0
 12 64  1  0
 13 14  1  0
 13 43  1  0
 14 15  2  0
 14 65  1  0
 15 16  1  0
 15 66  1  0
 16 17  2  0
 16 42  1  0
 17 18  1  0
 17 67  1  0
 18 19  2  0
 18 68  1  0
 19 20  1  0
 19 41  1  0
 20 21  2  0
 21 22  1  0
 21 33  1  0
 22 23  2  0
 22 69  1  0
 23 24  1  0
 23 70  1  0
 24 25  2  0
 24 32  1  0
 25 26  1  0
 25 71  1  0
 26 27  2  0
 26 72  1  0
 27 28  1  0
 27 31  1  0
 28 29  1  0
 28 30  1  0
 29 73  1  0
 29 74  1  0
 29 75  1  0
 30 76  1  0
 30 77  1  0
 30 78  1  0
 31 32  2  0
 31 79  1  0
 32 80  1  0
 33 34  1  0
 33 40  2  0
 34 35  2  0
 34 39  1  0
 35 36  1  0
 35 81  1  0
 36 37  2  0
 36 82  1  0
 37 38  1  0
 37 83  1  0
 38 39  2  0
 38 84  1  0
 39 85  1  0
 40 41  1  0
 41 42  2  0
 42 86  1  0
 43 44  2  0
 43 87  1  0
 44 88  1  0
M  END

