
     RDKit          3D

 62 65  0  0  0  0  0  0  0  0999 V2000
    7.4468    3.9126   -0.7649 C   0  0  0  0  0  0  0  0  0  0  0  0
    7.8120    4.4451    0.6110 C   0  0  0  0  0  0  0  0  0  0  0  0
    7.4339    3.5298    1.6537 O   0  0  0  0  0  0  0  0  0  0  0  0
    6.1793    3.6087    2.1310 C   0  0  0  0  0  0  0  0  0  0  0  0
    5.3556    4.3981    1.7251 O   0  0  0  0  0  0  0  0  0  0  0  0
    5.9171    2.6156    3.2206 C   0  0  0  0  0  0  0  0  0  0  0  0
    4.6381    2.5995    3.7955 C   0  0  0  0  0  0  0  0  0  0  0  0
    4.3627    1.6885    4.8120 C   0  0  0  0  0  0  0  0  0  0  0  0
    5.3453    0.8006    5.2560 C   0  0  0  0  0  0  0  0  0  0  0  0
    6.6305    0.8070    4.6826 C   0  0  0  0  0  0  0  0  0  0  0  0
    7.6243   -0.0951    5.1405 N   0  0  0  0  0  0  0  0  0  0  0  0
    8.9933    0.1038    5.0250 C   0  0  0  0  0  0  0  0  0  0  0  0
    9.5639    1.0084    4.4604 O   0  0  0  0  0  0  0  0  0  0  0  0
    9.6880   -1.0362    5.7925 C   0  0  0  0  0  0  0  0  0  0  0  0
   10.8975   -1.0907    5.8860 O   0  0  0  0  0  0  0  0  0  0  0  0
    8.6286   -1.9061    6.2926 C   0  0  0  0  0  0  0  0  0  0  0  0
    8.7402   -3.0978    6.9776 C   0  0  0  0  0  0  0  0  0  0  0  0
    7.6707   -3.8950    7.1519 O   0  0  0  0  0  0  0  0  0  0  0  0
    9.9506   -3.6753    7.5934 C   0  0  0  0  0  0  0  0  0  0  0  0
   10.0729   -5.0751    7.6663 C   0  0  0  0  0  0  0  0  0  0  0  0
   11.1922   -5.6476    8.2637 C   0  0  0  0  0  0  0  0  0  0  0  0
   12.2091   -4.8599    8.8237 C   0  0  0  0  0  0  0  0  0  0  0  0
   13.4092   -5.5055    9.4665 C   0  0  0  0  0  0  0  0  0  0  0  0
   12.0838   -3.4504    8.7771 C   0  0  0  0  0  0  0  0  0  0  0  0
   13.1462   -2.5627    9.3769 C   0  0  0  0  0  0  0  0  0  0  0  0
   10.9634   -2.8841    8.1631 C   0  0  0  0  0  0  0  0  0  0  0  0
    7.2796   -1.3410    5.8465 C   0  0  2  0  0  0  0  0  0  0  0  0
    6.4520   -2.2881    4.9698 C   0  0  0  0  0  0  0  0  0  0  0  0
    5.2043   -2.7611    5.4065 C   0  0  0  0  0  0  0  0  0  0  0  0
    4.4734   -3.6516    4.6125 C   0  0  0  0  0  0  0  0  0  0  0  0
    4.9754   -4.0625    3.3775 C   0  0  0  0  0  0  0  0  0  0  0  0
    6.2184   -3.5975    2.9141 C   0  0  0  0  0  0  0  0  0  0  0  0
    6.7749   -4.0383    1.5823 C   0  0  0  0  0  0  0  0  0  0  0  0
    6.9420   -2.7144    3.7274 C   0  0  0  0  0  0  0  0  0  0  0  0
    6.9091    1.7282    3.6560 C   0  0  0  0  0  0  0  0  0  0  0  0
    7.8202    4.5983   -1.5425 H   0  0  0  0  0  0  0  0  0  0  0  0
    6.3553    3.8321   -0.8756 H   0  0  0  0  0  0  0  0  0  0  0  0
    7.8961    2.9218   -0.9355 H   0  0  0  0  0  0  0  0  0  0  0  0
    7.3292    5.4159    0.7969 H   0  0  0  0  0  0  0  0  0  0  0  0
    8.9005    4.5563    0.7202 H   0  0  0  0  0  0  0  0  0  0  0  0
    3.8868    3.3030    3.4338 H   0  0  0  0  0  0  0  0  0  0  0  0
    3.3726    1.6640    5.2738 H   0  0  0  0  0  0  0  0  0  0  0  0
    5.1003    0.1077    6.0596 H   0  0  0  0  0  0  0  0  0  0  0  0
    6.9429   -3.6485    6.5525 H   0  0  0  0  0  0  0  0  0  0  0  0
    9.2904   -5.7079    7.2464 H   0  0  0  0  0  0  0  0  0  0  0  0
   11.2816   -6.7369    8.3000 H   0  0  0  0  0  0  0  0  0  0  0  0
   13.3527   -6.6022    9.4146 H   0  0  0  0  0  0  0  0  0  0  0  0
   13.5013   -5.2208   10.5287 H   0  0  0  0  0  0  0  0  0  0  0  0
   14.3472   -5.1907    8.9782 H   0  0  0  0  0  0  0  0  0  0  0  0
   13.2828   -2.7589   10.4541 H   0  0  0  0  0  0  0  0  0  0  0  0
   12.8938   -1.5001    9.2548 H   0  0  0  0  0  0  0  0  0  0  0  0
   14.1270   -2.7287    8.8998 H   0  0  0  0  0  0  0  0  0  0  0  0
   10.8782   -1.7998    8.1327 H   0  0  0  0  0  0  0  0  0  0  0  0
    6.6783   -1.1014    6.7426 H   0  0  0  0  0  0  0  0  0  0  0  0
    4.7968   -2.4273    6.3659 H   0  0  0  0  0  0  0  0  0  0  0  0
    3.5021   -4.0159    4.9561 H   0  0  0  0  0  0  0  0  0  0  0  0
    4.3953   -4.7530    2.7594 H   0  0  0  0  0  0  0  0  0  0  0  0
    6.0549   -4.6557    1.0260 H   0  0  0  0  0  0  0  0  0  0  0  0
    7.6959   -4.6307    1.7135 H   0  0  0  0  0  0  0  0  0  0  0  0
    7.0375   -3.1718    0.9542 H   0  0  0  0  0  0  0  0  0  0  0  0
    7.9129   -2.3465    3.3827 H   0  0  0  0  0  0  0  0  0  0  0  0
    7.8991    1.7662    3.2126 H   0  0  0  0  0  0  0  0  0  0  0  0
  1  2  1  0
  1 36  1  0
  1 37  1  0
  1 38  1  0
  2  3  1  0
  2 39  1  0
  2 40  1  0
  3  4  1  0
  4  5  2  0
  4  6  1  0
  6  7  2  0
  6 35  1  0
  7  8  1  0
  7 41  1  0
  8  9  2  0
  8 42  1  0
  9 10  1  0
  9 43  1  0
 10 11  1  0
 10 35  2  0
 11 12  1  0
 11 27  1  0
 12 13  2  0
 12 14  1  0
 14 15  2  0
 14 16  1  0
 16 17  2  0
 16 27  1  0
 17 18  1  0
 17 19  1  0
 18 44  1  0
 19 20  2  0
 19 26  1  0
 20 21  1  0
 20 45  1  0
 21 22  2  0
 21 46  1  0
 22 23  1  0
 22 24  1  0
 23 47  1  0
 23 48  1  0
 23 49  1  0
 24 25  1  0
 24 26  2  0
 25 50  1  0
 25 51  1  0
 25 52  1  0
 26 53  1  0
 27 28  1  0
 27 54  1  1
 28 29  2  0
 28 34  1  0
 29 30  1  0
 29 55  1  0
 30 31  2  0
 30 56  1  0
 31 32  1  0
 31 57  1  0
 32 33  1  0
 32 34  2  0
 33 58  1  0
 33 59  1  0
 33 60  1  0
 34 61  1  0
 35 62  1  0
M  END

