
     RDKit          3D

 52 55  0  0  0  0  0  0  0  0999 V2000
    6.5355    2.5540   -9.5276 C   0  0  0  0  0  0  0  0  0  0  0  0
    6.0508    1.3476   -8.9832 O   0  0  0  0  0  0  0  0  0  0  0  0
    6.1557    1.1321   -7.6462 C   0  0  0  0  0  0  0  0  0  0  0  0
    6.7392    2.0270   -6.7392 C   0  0  0  0  0  0  0  0  0  0  0  0
    6.7706    1.6949   -5.3776 C   0  0  0  0  0  0  0  0  0  0  0  0
    6.2466    0.4939   -4.9133 C   0  0  0  0  0  0  0  0  0  0  0  0
    5.6682   -0.4160   -5.8242 C   0  0  0  0  0  0  0  0  0  0  0  0
    5.0931   -1.6603   -5.2891 C   0  0  0  0  0  0  0  0  0  0  0  0
    4.5886   -1.7717   -4.0788 N   0  0  0  0  0  0  0  0  0  0  0  0
    4.1464   -3.0518   -3.9098 N   0  0  0  0  0  0  0  0  0  0  0  0
    4.3992   -3.7045   -5.0230 C   0  0  0  0  0  0  0  0  0  0  0  0
    4.0394   -5.3939   -5.3694 S   0  0  0  0  0  0  0  0  0  0  0  0
    3.4630   -5.8377   -3.6933 C   0  0  0  0  0  0  0  0  0  0  0  0
    3.0346   -7.2975   -3.6865 C   0  0  0  0  0  0  0  0  0  0  0  0
    3.1316   -7.9729   -4.6947 O   0  0  0  0  0  0  0  0  0  0  0  0
    2.5032   -7.8580   -2.4104 C   0  0  0  0  0  0  0  0  0  0  0  0
    2.1158   -9.2103   -2.3809 C   0  0  0  0  0  0  0  0  0  0  0  0
    1.6153   -9.8019   -1.2290 C   0  0  0  0  0  0  0  0  0  0  0  0
    1.4836   -9.0426   -0.0426 C   0  0  0  0  0  0  0  0  0  0  0  0
    0.9930   -9.6030    1.1502 N   0  0  0  0  0  0  0  0  0  0  0  0
    0.9951   -8.8515    2.4108 C   0  0  0  0  0  0  0  0  0  0  0  0
    0.6759   -9.9080    3.4793 C   0  0  0  0  0  0  0  0  0  0  0  0
   -0.1507  -10.9439    2.7186 C   0  0  0  0  0  0  0  0  0  0  0  0
    0.3394  -10.8337    1.2787 C   0  0  0  0  0  0  0  0  0  0  0  0
    0.1673  -11.6544    0.4053 O   0  0  0  0  0  0  0  0  0  0  0  0
    1.8657   -7.6841   -0.0685 C   0  0  0  0  0  0  0  0  0  0  0  0
    2.3668   -7.1064   -1.2324 C   0  0  0  0  0  0  0  0  0  0  0  0
    5.0059   -2.8821   -5.9412 N   0  0  0  0  0  0  0  0  0  0  0  0
    5.5319   -3.2912   -7.2320 C   0  0  0  0  0  0  0  0  0  0  0  0
    5.6194   -0.0819   -7.1836 C   0  0  0  0  0  0  0  0  0  0  0  0
    6.3349    2.5137  -10.6067 H   0  0  0  0  0  0  0  0  0  0  0  0
    7.6234    2.6696   -9.3713 H   0  0  0  0  0  0  0  0  0  0  0  0
    6.0209    3.4342   -9.1012 H   0  0  0  0  0  0  0  0  0  0  0  0
    7.1618    2.9745   -7.0734 H   0  0  0  0  0  0  0  0  0  0  0  0
    7.2206    2.3969   -4.6707 H   0  0  0  0  0  0  0  0  0  0  0  0
    6.2661    0.2377   -3.8538 H   0  0  0  0  0  0  0  0  0  0  0  0
    2.6371   -5.1695   -3.4077 H   0  0  0  0  0  0  0  0  0  0  0  0
    4.2692   -5.6558   -2.9660 H   0  0  0  0  0  0  0  0  0  0  0  0
    2.2207   -9.7952   -3.2968 H   0  0  0  0  0  0  0  0  0  0  0  0
    1.3140  -10.8457   -1.2284 H   0  0  0  0  0  0  0  0  0  0  0  0
    0.2330   -8.0505    2.3845 H   0  0  0  0  0  0  0  0  0  0  0  0
    1.9723   -8.3736    2.5746 H   0  0  0  0  0  0  0  0  0  0  0  0
    0.1597   -9.4730    4.3466 H   0  0  0  0  0  0  0  0  0  0  0  0
    1.6114  -10.3626    3.8418 H   0  0  0  0  0  0  0  0  0  0  0  0
   -1.2285  -10.7020    2.7210 H   0  0  0  0  0  0  0  0  0  0  0  0
   -0.0492  -11.9785    3.0737 H   0  0  0  0  0  0  0  0  0  0  0  0
    1.7662   -7.0607    0.8191 H   0  0  0  0  0  0  0  0  0  0  0  0
    2.6470   -6.0514   -1.2060 H   0  0  0  0  0  0  0  0  0  0  0  0
    5.8196   -4.3512   -7.1804 H   0  0  0  0  0  0  0  0  0  0  0  0
    6.4218   -2.6974   -7.4759 H   0  0  0  0  0  0  0  0  0  0  0  0
    4.7873   -3.1684   -8.0347 H   0  0  0  0  0  0  0  0  0  0  0  0
    5.1379   -0.7234   -7.9213 H   0  0  0  0  0  0  0  0  0  0  0  0
  1  2  1  0
  1 31  1  0
  1 32  1  0
  1 33  1  0
  2  3  1  0
  3  4  2  0
  3 30  1  0
  4  5  1  0
  4 34  1  0
  5  6  2  0
  5 35  1  0
  6  7  1  0
  6 36  1  0
  7  8  1  0
  7 30  2  0
  8  9  2  0
  8 28  1  0
  9 10  1  0
 10 11  2  0
 11 12  1  0
 11 28  1  0
 12 13  1  0
 13 14  1  0
 13 37  1  0
 13 38  1  0
 14 15  2  0
 14 16  1  0
 16 17  2  0
 16 27  1  0
 17 18  1  0
 17 39  1  0
 18 19  2  0
 18 40  1  0
 19 20  1  0
 19 26  1  0
 20 21  1  0
 20 24  1  0
 21 22  1  0
 21 41  1  0
 21 42  1  0
 22 23  1  0
 22 43  1  0
 22 44  1  0
 23 24  1  0
 23 45  1  0
 23 46  1  0
 24 25  2  0
 26 27  2  0
 26 47  1  0
 27 48  1  0
 28 29  1  0
 29 49  1  0
 29 50  1  0
 29 51  1  0
 30 52  1  0
M  END

