
     RDKit          3D

 27 28  0  0  0  0  0  0  0  0999 V2000
    4.6624   -3.9189   -0.5996 C   0  0  0  0  0  0  0  0  0  0  0  0
    5.2294   -2.8741   -0.3678 C   0  0  0  0  0  0  0  0  0  0  0  0
    5.9442   -1.6235   -0.0853 C   0  0  0  0  0  0  0  0  0  0  0  0
    6.2594   -0.8574   -1.2732 N   0  0  0  0  0  0  0  0  0  0  0  0
    5.8123    0.4175   -1.4556 C   0  0  0  0  0  0  0  0  0  0  0  0
    5.1582    1.0465   -0.6351 O   0  0  0  0  0  0  0  0  0  0  0  0
    6.2089    0.9961   -2.7709 C   0  0  0  0  0  0  0  0  0  0  0  0
    5.8958    2.2721   -3.2093 C   0  0  0  0  0  0  0  0  0  0  0  0
    6.4559    2.3728   -4.4630 N   0  0  0  0  0  0  0  0  0  0  0  0
    6.4590    3.4215   -5.3662 C   0  0  0  0  0  0  0  0  0  0  0  0
    5.7509    4.6769   -4.9652 C   0  0  0  0  0  0  0  0  0  0  0  0
    7.1116    3.2279   -6.5601 C   0  0  0  0  0  0  0  0  0  0  0  0
    7.7623    1.9967   -6.8628 C   0  0  0  0  0  0  0  0  0  0  0  0
    7.7532    0.9612   -5.9588 C   0  0  0  0  0  0  0  0  0  0  0  0
    7.0877    1.1345   -4.7203 C   0  0  0  0  0  0  0  0  0  0  0  0
    6.9351    0.3073   -3.6946 N   0  0  0  0  0  0  0  0  0  0  0  0
    4.1496   -4.8395   -0.8053 H   0  0  0  0  0  0  0  0  0  0  0  0
    6.8623   -1.8560    0.4865 H   0  0  0  0  0  0  0  0  0  0  0  0
    5.3291   -0.9664    0.5511 H   0  0  0  0  0  0  0  0  0  0  0  0
    6.7681   -1.2820   -2.0436 H   0  0  0  0  0  0  0  0  0  0  0  0
    5.3364    3.0662   -2.7277 H   0  0  0  0  0  0  0  0  0  0  0  0
    6.1837    5.1031   -4.0437 H   0  0  0  0  0  0  0  0  0  0  0  0
    4.6828    4.4862   -4.7625 H   0  0  0  0  0  0  0  0  0  0  0  0
    5.8224    5.4299   -5.7608 H   0  0  0  0  0  0  0  0  0  0  0  0
    7.1236    4.0444   -7.2839 H   0  0  0  0  0  0  0  0  0  0  0  0
    8.2695    1.8834   -7.8232 H   0  0  0  0  0  0  0  0  0  0  0  0
    8.2386    0.0043   -6.1526 H   0  0  0  0  0  0  0  0  0  0  0  0
  1  2  3  0
  1 17  1  0
  2  3  1  0
  3  4  1  0
  3 18  1  0
  3 19  1  0
  4  5  1  0
  4 20  1  0
  5  6  2  0
  5  7  1  0
  7  8  2  0
  7 16  1  0
  8  9  1  0
  8 21  1  0
  9 10  1  0
  9 15  1  0
 10 11  1  0
 10 12  2  0
 11 22  1  0
 11 23  1  0
 11 24  1  0
 12 13  1  0
 12 25  1  0
 13 14  2  0
 13 26  1  0
 14 15  1  0
 14 27  1  0
 15 16  2  0
M  END

