
     RDKit          3D

 58 63  0  0  0  0  0  0  0  0999 V2000
    3.9158    0.4438    3.7963 N   0  0  0  0  0  0  0  0  0  0  0  0
    4.3164    0.3080    2.7123 C   0  0  0  0  0  0  0  0  0  0  0  0
    4.8189    0.1720    1.3797 C   0  0  0  0  0  0  0  0  0  0  0  0
    5.4791    1.3475    0.8901 C   0  0  0  0  0  0  0  0  0  0  0  0
    5.9959    2.3292    0.5413 N   0  0  0  0  0  0  0  0  0  0  0  0
    4.6789   -0.9757    0.6010 C   0  0  0  0  0  0  0  0  0  0  0  0
    3.9501   -2.1764    0.9470 C   0  0  0  0  0  0  0  0  0  0  0  0
    3.1222   -2.4044    2.0130 C   0  0  0  0  0  0  0  0  0  0  0  0
    2.4221   -3.6316    2.3211 C   0  0  0  0  0  0  0  0  0  0  0  0
    1.6042   -3.6801    3.4727 C   0  0  0  0  0  0  0  0  0  0  0  0
    0.9091   -4.8189    3.8546 C   0  0  0  0  0  0  0  0  0  0  0  0
    0.9901   -5.9910    3.0470 C   0  0  0  0  0  0  0  0  0  0  0  0
    1.7990   -5.9619    1.8682 C   0  0  0  0  0  0  0  0  0  0  0  0
    2.4969   -4.8099    1.5423 C   0  0  0  0  0  0  0  0  0  0  0  0
    1.8758   -7.2011    1.0058 C   0  0  0  0  0  0  0  0  0  0  0  0
    1.7484   -8.4542    1.8714 C   0  0  0  0  0  0  0  0  0  0  0  0
    0.4588   -8.3949    2.6808 C   0  0  0  0  0  0  0  0  0  0  0  0
    0.3008   -7.1327    3.3949 N   0  0  0  0  0  0  0  0  0  0  0  0
   -0.6366   -7.1710    4.5125 C   0  0  0  0  0  0  0  0  0  0  0  0
   -1.1284   -5.7859    4.9147 C   0  0  0  0  0  0  0  0  0  0  0  0
    0.0621   -4.8465    5.1060 C   0  0  0  0  0  0  0  0  0  0  0  0
    5.3757   -1.0173   -0.7197 C   0  0  0  0  0  0  0  0  0  0  0  0
    6.7622   -0.8846   -0.7747 C   0  0  0  0  0  0  0  0  0  0  0  0
    7.5064   -0.9737   -1.9802 C   0  0  0  0  0  0  0  0  0  0  0  0
    6.8321   -1.1937   -3.1631 C   0  0  0  0  0  0  0  0  0  0  0  0
    5.4237   -1.3199   -3.1263 C   0  0  0  0  0  0  0  0  0  0  0  0
    4.8725   -1.5192   -4.4147 C   0  0  0  0  0  0  0  0  0  0  0  0
    3.5037   -1.6403   -4.5429 C   0  0  0  0  0  0  0  0  0  0  0  0
    2.6998   -1.5510   -3.3730 C   0  0  0  0  0  0  0  0  0  0  0  0
    3.2394   -1.3549   -2.1108 C   0  0  0  0  0  0  0  0  0  0  0  0
    4.6499   -1.2402   -1.9415 C   0  0  0  0  0  0  0  0  0  0  0  0
    5.9980   -1.5456   -5.4331 C   0  0  0  0  0  0  0  0  0  0  0  0
    7.3032   -1.3276   -4.5985 C   0  0  0  0  0  0  0  0  0  0  0  0
    4.1013   -2.9911    0.2347 H   0  0  0  0  0  0  0  0  0  0  0  0
    2.9429   -1.5971    2.7249 H   0  0  0  0  0  0  0  0  0  0  0  0
    1.5242   -2.7850    4.0970 H   0  0  0  0  0  0  0  0  0  0  0  0
    3.1163   -4.8260    0.6421 H   0  0  0  0  0  0  0  0  0  0  0  0
    2.8173   -7.2072    0.4351 H   0  0  0  0  0  0  0  0  0  0  0  0
    1.0596   -7.1931    0.2584 H   0  0  0  0  0  0  0  0  0  0  0  0
    2.6124   -8.5223    2.5543 H   0  0  0  0  0  0  0  0  0  0  0  0
    1.7465   -9.3684    1.2573 H   0  0  0  0  0  0  0  0  0  0  0  0
    0.4422   -9.2128    3.4228 H   0  0  0  0  0  0  0  0  0  0  0  0
   -0.4132   -8.5622    2.0154 H   0  0  0  0  0  0  0  0  0  0  0  0
   -0.1636   -7.6719    5.3821 H   0  0  0  0  0  0  0  0  0  0  0  0
   -1.4926   -7.8044    4.2193 H   0  0  0  0  0  0  0  0  0  0  0  0
   -1.7264   -5.8697    5.8356 H   0  0  0  0  0  0  0  0  0  0  0  0
   -1.7934   -5.3864    4.1300 H   0  0  0  0  0  0  0  0  0  0  0  0
    0.6659   -5.1962    5.9649 H   0  0  0  0  0  0  0  0  0  0  0  0
   -0.2727   -3.8286    5.3588 H   0  0  0  0  0  0  0  0  0  0  0  0
    7.3061   -0.7200    0.1582 H   0  0  0  0  0  0  0  0  0  0  0  0
    8.5935   -0.8657   -1.9470 H   0  0  0  0  0  0  0  0  0  0  0  0
    3.0300   -1.7922   -5.5165 H   0  0  0  0  0  0  0  0  0  0  0  0
    1.6141   -1.6327   -3.4750 H   0  0  0  0  0  0  0  0  0  0  0  0
    2.5767   -1.2787   -1.2471 H   0  0  0  0  0  0  0  0  0  0  0  0
    5.8662   -0.7586   -6.1941 H   0  0  0  0  0  0  0  0  0  0  0  0
    6.0198   -2.5028   -5.9803 H   0  0  0  0  0  0  0  0  0  0  0  0
    7.8484   -0.4257   -4.9227 H   0  0  0  0  0  0  0  0  0  0  0  0
    8.0063   -2.1696   -4.7117 H   0  0  0  0  0  0  0  0  0  0  0  0
  1  2  3  0
  2  3  1  0
  3  4  1  0
  3  6  2  0
  4  5  3  0
  6  7  1  0
  6 22  1  0
  7  8  2  0
  7 34  1  0
  8  9  1  0
  8 35  1  0
  9 10  2  0
  9 14  1  0
 10 11  1  0
 10 36  1  0
 11 12  2  0
 11 21  1  0
 12 13  1  0
 12 18  1  0
 13 14  2  0
 13 15  1  0
 14 37  1  0
 15 16  1  0
 15 38  1  0
 15 39  1  0
 16 17  1  0
 16 40  1  0
 16 41  1  0
 17 18  1  0
 17 42  1  0
 17 43  1  0
 18 19  1  0
 19 20  1  0
 19 44  1  0
 19 45  1  0
 20 21  1  0
 20 46  1  0
 20 47  1  0
 21 48  1  0
 21 49  1  0
 22 23  2  0
 22 31  1  0
 23 24  1  0
 23 50  1  0
 24 25  2  0
 24 51  1  0
 25 26  1  0
 25 33  1  0
 26 27  1  0
 26 31  2  0
 27 28  2  0
 27 32  1  0
 28 29  1  0
 28 52  1  0
 29 30  2  0
 29 53  1  0
 30 31  1  0
 30 54  1  0
 32 33  1  0
 32 55  1  0
 32 56  1  0
 33 57  1  0
 33 58  1  0
M  END

