
     RDKit          3D

 57 59  0  0  0  0  0  0  0  0999 V2000
    3.7847    1.1899    0.1613 C   0  0  0  0  0  0  0  0  0  0  0  0
    2.9620   -0.0245   -0.2647 C   0  0  0  0  0  0  0  0  0  0  0  0
    2.9887   -0.3150   -1.7789 C   0  0  1  0  0  0  0  0  0  0  0  0
    2.1458   -1.5588   -2.1386 C   0  0  0  0  0  0  0  0  0  0  0  0
    0.7381   -1.2566   -2.0288 N   0  0  0  0  0  0  0  0  0  0  0  0
   -0.2071   -2.3388   -2.2483 C   0  0  0  0  0  0  0  0  0  0  0  0
   -1.5661   -1.6124   -2.3695 C   0  0  0  0  0  0  0  0  0  0  0  0
   -1.1989   -0.1438   -2.7262 C   0  0  0  0  0  0  0  0  0  0  0  0
    0.3231   -0.1770   -2.9203 C   0  0  1  0  0  0  0  0  0  0  0  0
    1.0987    1.0913   -2.5853 C   0  0  0  0  0  0  0  0  0  0  0  0
    2.5388    0.8282   -2.5886 N   0  0  0  0  0  0  0  0  0  0  0  0
    3.3196    1.5252   -3.4999 C   0  0  0  0  0  0  0  0  0  0  0  0
    2.8378    2.2665   -4.3461 O   0  0  0  0  0  0  0  0  0  0  0  0
    4.6916    1.3352   -3.4052 N   0  0  0  0  0  0  0  0  0  0  0  0
    5.5884    2.0504   -4.2729 C   0  0  1  0  0  0  0  0  0  0  0  0
    6.3399    3.3118   -3.7685 C   0  0  0  0  0  0  0  0  0  0  0  0
    7.6094    2.8231   -4.5228 C   0  0  2  0  0  0  0  0  0  0  0  0
    7.7877    3.4243   -5.8492 N   0  0  0  0  0  0  0  0  0  0  0  0
    7.9085    4.8929   -5.8785 C   0  0  0  0  0  0  0  0  0  0  0  0
    9.0647    5.4982   -5.0755 C   0  0  0  0  0  0  0  0  0  0  0  0
    8.7914    2.7564   -6.6796 C   0  0  0  0  0  0  0  0  0  0  0  0
    8.2766    2.5022   -8.1083 C   0  0  0  0  0  0  0  0  0  0  0  0
    8.9880    2.1491   -9.0103 O   0  0  0  0  0  0  0  0  0  0  0  0
    6.9579    2.6820   -8.2221 O   0  0  0  0  0  0  0  0  0  0  0  0
    6.9585    1.4089   -4.5925 C   0  0  0  0  0  0  0  0  0  0  0  0
    3.7109    1.3590    1.2470 H   0  0  0  0  0  0  0  0  0  0  0  0
    3.4405    2.1063   -0.3434 H   0  0  0  0  0  0  0  0  0  0  0  0
    4.8564    1.0603   -0.0723 H   0  0  0  0  0  0  0  0  0  0  0  0
    1.9139    0.0914    0.0540 H   0  0  0  0  0  0  0  0  0  0  0  0
    3.3331   -0.9257    0.2537 H   0  0  0  0  0  0  0  0  0  0  0  0
    4.0208   -0.5496   -2.0758 H   0  0  0  0  0  0  0  0  0  0  0  0
    2.4025   -2.3851   -1.4551 H   0  0  0  0  0  0  0  0  0  0  0  0
    2.4156   -1.8867   -3.1706 H   0  0  0  0  0  0  0  0  0  0  0  0
   -0.1731   -3.0697   -1.4235 H   0  0  0  0  0  0  0  0  0  0  0  0
    0.0199   -2.8922   -3.1892 H   0  0  0  0  0  0  0  0  0  0  0  0
   -2.1188   -1.6557   -1.4195 H   0  0  0  0  0  0  0  0  0  0  0  0
   -2.2005   -2.0825   -3.1353 H   0  0  0  0  0  0  0  0  0  0  0  0
   -1.4554    0.5318   -1.8947 H   0  0  0  0  0  0  0  0  0  0  0  0
   -1.7187    0.2232   -3.6234 H   0  0  0  0  0  0  0  0  0  0  0  0
    0.5549   -0.4454   -3.9798 H   0  0  0  0  0  0  0  0  0  0  0  0
    0.7850    1.4533   -1.5891 H   0  0  0  0  0  0  0  0  0  0  0  0
    0.9092    1.8800   -3.3226 H   0  0  0  0  0  0  0  0  0  0  0  0
    5.0740    1.0034   -2.5289 H   0  0  0  0  0  0  0  0  0  0  0  0
    5.0240    2.2843   -5.1839 H   0  0  0  0  0  0  0  0  0  0  0  0
    6.5008    3.2763   -2.6796 H   0  0  0  0  0  0  0  0  0  0  0  0
    5.9129    4.2907   -4.0266 H   0  0  0  0  0  0  0  0  0  0  0  0
    8.5427    2.8697   -3.9292 H   0  0  0  0  0  0  0  0  0  0  0  0
    6.9578    5.3269   -5.5325 H   0  0  0  0  0  0  0  0  0  0  0  0
    7.9987    5.1849   -6.9378 H   0  0  0  0  0  0  0  0  0  0  0  0
    8.9543    5.3149   -3.9952 H   0  0  0  0  0  0  0  0  0  0  0  0
    9.0920    6.5893   -5.2240 H   0  0  0  0  0  0  0  0  0  0  0  0
   10.0428    5.0989   -5.3884 H   0  0  0  0  0  0  0  0  0  0  0  0
    9.0440    1.7696   -6.2619 H   0  0  0  0  0  0  0  0  0  0  0  0
    9.7462    3.3043   -6.7567 H   0  0  0  0  0  0  0  0  0  0  0  0
    6.6785    2.9899   -7.3244 H   0  0  0  0  0  0  0  0  0  0  0  0
    7.3122    0.7708   -3.7668 H   0  0  0  0  0  0  0  0  0  0  0  0
    7.0467    0.8443   -5.5327 H   0  0  0  0  0  0  0  0  0  0  0  0
  1  2  1  0
  1 26  1  0
  1 27  1  0
  1 28  1  0
  2  3  1  0
  2 29  1  0
  2 30  1  0
  3  4  1  0
  3 11  1  0
  3 31  1  6
  4  5  1  0
  4 32  1  0
  4 33  1  0
  5  6  1  0
  5  9  1  0
  6  7  1  0
  6 34  1  0
  6 35  1  0
  7  8  1  0
  7 36  1  0
  7 37  1  0
  8  9  1  0
  8 38  1  0
  8 39  1  0
  9 10  1  0
  9 40  1  6
 10 11  1  0
 10 41  1  0
 10 42  1  0
 11 12  1  0
 12 13  2  0
 12 14  1  0
 14 15  1  0
 14 43  1  0
 15 16  1  0
 15 25  1  0
 15 44  1  6
 16 17  1  0
 16 45  1  0
 16 46  1  0
 17 18  1  0
 17 25  1  0
 17 47  1  1
 18 19  1  0
 18 21  1  0
 19 20  1  0
 19 48  1  0
 19 49  1  0
 20 50  1  0
 20 51  1  0
 20 52  1  0
 21 22  1  0
 21 53  1  0
 21 54  1  0
 22 23  2  0
 22 24  1  0
 24 55  1  0
 25 56  1  0
 25 57  1  0
M  END

