
     RDKit          3D

 37 39  0  0  0  0  0  0  0  0999 V2000
    1.6545    0.4618   -0.6878 O   0  0  0  0  0  0  0  0  0  0  0  0
    2.3990    0.0966    0.2077 C   0  0  0  0  0  0  0  0  0  0  0  0
    2.5700   -1.4026    0.5143 C   0  0  1  0  0  0  0  0  0  0  0  0
    1.3673   -2.2266   -0.0005 C   0  0  0  0  0  0  0  0  0  0  0  0
    1.2749   -2.4172   -1.5168 C   0  0  0  0  0  0  0  0  0  0  0  0
    2.7673   -3.2046   -2.2332 S   0  0  0  0  0  0  0  0  0  0  0  0
    3.9935   -2.0301   -1.5501 C   0  0  0  0  0  0  0  0  0  0  0  0
    3.9239   -1.9368   -0.0247 C   0  0  0  0  0  0  0  0  0  0  0  0
    3.1406    1.0133    0.9528 N   0  0  0  0  0  0  0  0  0  0  0  0
    3.9085    0.6639    2.1532 C   0  0  0  0  0  0  0  0  0  0  0  0
    3.3085    1.3514    3.3782 C   0  0  0  0  0  0  0  0  0  0  0  0
    3.4085    2.8681    3.2125 C   0  0  0  0  0  0  0  0  0  0  0  0
    3.1753    3.3255    1.7844 C   0  0  0  0  0  0  0  0  0  0  0  0
    3.1207    4.7042    1.5232 C   0  0  0  0  0  0  0  0  0  0  0  0
    2.9448    5.1884    0.2374 C   0  0  0  0  0  0  0  0  0  0  0  0
    2.8851    6.5031    0.0021 F   0  0  0  0  0  0  0  0  0  0  0  0
    2.8303    4.2874   -0.8254 C   0  0  0  0  0  0  0  0  0  0  0  0
    2.6718    4.7582   -2.0665 F   0  0  0  0  0  0  0  0  0  0  0  0
    2.8854    2.9220   -0.6012 C   0  0  0  0  0  0  0  0  0  0  0  0
    3.0495    2.4208    0.7057 C   0  0  0  0  0  0  0  0  0  0  0  0
    2.5777   -1.5372    1.6065 H   0  0  0  0  0  0  0  0  0  0  0  0
    0.4359   -1.7516    0.3501 H   0  0  0  0  0  0  0  0  0  0  0  0
    1.4233   -3.2201    0.4758 H   0  0  0  0  0  0  0  0  0  0  0  0
    1.0960   -1.4560   -2.0158 H   0  0  0  0  0  0  0  0  0  0  0  0
    0.4422   -3.0938   -1.7632 H   0  0  0  0  0  0  0  0  0  0  0  0
    3.8532   -1.0425   -2.0202 H   0  0  0  0  0  0  0  0  0  0  0  0
    4.9779   -2.4073   -1.8662 H   0  0  0  0  0  0  0  0  0  0  0  0
    4.7498   -1.2980    0.3329 H   0  0  0  0  0  0  0  0  0  0  0  0
    4.0922   -2.9422    0.3963 H   0  0  0  0  0  0  0  0  0  0  0  0
    4.9561    0.9868    2.0126 H   0  0  0  0  0  0  0  0  0  0  0  0
    3.9252   -0.4199    2.2853 H   0  0  0  0  0  0  0  0  0  0  0  0
    3.8299    1.0262    4.2926 H   0  0  0  0  0  0  0  0  0  0  0  0
    2.2559    1.0358    3.4753 H   0  0  0  0  0  0  0  0  0  0  0  0
    4.4150    3.2032    3.5225 H   0  0  0  0  0  0  0  0  0  0  0  0
    2.7028    3.3803    3.8870 H   0  0  0  0  0  0  0  0  0  0  0  0
    3.2134    5.4253    2.3390 H   0  0  0  0  0  0  0  0  0  0  0  0
    2.7768    2.2557   -1.4519 H   0  0  0  0  0  0  0  0  0  0  0  0
  1  2  2  0
  2  3  1  0
  2  9  1  0
  3  4  1  0
  3  8  1  0
  3 21  1  1
  4  5  1  0
  4 22  1  0
  4 23  1  0
  5  6  1  0
  5 24  1  0
  5 25  1  0
  6  7  1  0
  7  8  1  0
  7 26  1  0
  7 27  1  0
  8 28  1  0
  8 29  1  0
  9 10  1  0
  9 20  1  0
 10 11  1  0
 10 30  1  0
 10 31  1  0
 11 12  1  0
 11 32  1  0
 11 33  1  0
 12 13  1  0
 12 34  1  0
 12 35  1  0
 13 14  2  0
 13 20  1  0
 14 15  1  0
 14 36  1  0
 15 16  1  0
 15 17  2  0
 17 18  1  0
 17 19  1  0
 19 20  2  0
 19 37  1  0
M  END

