
     RDKit          3D

 26 27  0  0  0  0  0  0  0  0999 V2000
    2.8436    0.5279   -1.0411 C   0  0  0  0  0  0  0  0  0  0  0  0
    2.5099    0.1189    0.3900 C   0  0  0  0  0  0  0  0  0  0  0  0
    2.9810   -1.2227    0.7156 N   0  0  0  0  0  0  0  0  0  0  0  0
    3.9268   -1.5743    1.5967 C   0  0  0  0  0  0  0  0  0  0  0  0
    4.0200   -2.9662    1.5341 C   0  0  0  0  0  0  0  0  0  0  0  0
    5.0650   -3.9675    2.4848 S   0  0  1  0  0  0  0  0  0  0  0  0
    5.5424   -3.1928    3.6210 O   0  0  0  0  0  0  0  0  0  0  0  0
    4.4503   -5.2946    2.5998 O   0  0  0  0  0  0  0  0  0  0  0  0
    6.4734   -4.2555    1.5479 N   0  0  0  0  0  0  0  0  0  0  0  0
    6.7316   -5.3207    0.7316 C   0  0  0  0  0  0  0  0  0  0  0  0
    7.7236   -5.2713   -0.1365 N   0  0  0  0  0  0  0  0  0  0  0  0
    7.8445   -6.4283   -0.8126 N   0  0  0  0  0  0  0  0  0  0  0  0
    7.0310   -7.3518   -0.5430 N   0  0  0  0  0  0  0  0  0  0  0  0
    5.9293   -6.8570    0.7178 S   0  0  0  0  0  0  0  0  0  0  0  0
    3.0486   -3.3626    0.5557 C   0  0  0  0  0  0  0  0  0  0  0  0
    2.7828   -4.6296    0.1187 N   0  0  0  0  0  0  0  0  0  0  0  0
    2.4300   -2.2881    0.0754 N   0  0  0  0  0  0  0  0  0  0  0  0
    2.4348    1.5285   -1.2501 H   0  0  0  0  0  0  0  0  0  0  0  0
    2.4051   -0.1850   -1.7541 H   0  0  0  0  0  0  0  0  0  0  0  0
    3.9323    0.5575   -1.2033 H   0  0  0  0  0  0  0  0  0  0  0  0
    1.4204    0.1347    0.5532 H   0  0  0  0  0  0  0  0  0  0  0  0
    2.9664    0.8039    1.1201 H   0  0  0  0  0  0  0  0  0  0  0  0
    4.4591   -0.8601    2.2209 H   0  0  0  0  0  0  0  0  0  0  0  0
    7.1166   -3.4698    1.4641 H   0  0  0  0  0  0  0  0  0  0  0  0
    2.9948   -5.3778    0.7710 H   0  0  0  0  0  0  0  0  0  0  0  0
    1.9299   -4.7396   -0.4178 H   0  0  0  0  0  0  0  0  0  0  0  0
  1  2  1  0
  1 18  1  0
  1 19  1  0
  1 20  1  0
  2  3  1  0
  2 21  1  0
  2 22  1  0
  3  4  1  0
  3 17  1  0
  4  5  2  0
  4 23  1  0
  5  6  1  0
  5 15  1  0
  6  7  2  0
  6  8  2  0
  6  9  1  6
  9 10  1  0
  9 24  1  0
 10 11  2  0
 10 14  1  0
 11 12  1  0
 12 13  2  0
 13 14  1  0
 15 16  1  0
 15 17  2  0
 16 25  1  0
 16 26  1  0
M  END

