
     RDKit          3D

 62 65  0  0  0  0  0  0  0  0999 V2000
    1.7990    0.0922    0.1705 O   0  0  0  0  0  0  0  0  0  0  0  0
    3.0219    0.1695    0.1766 C   0  0  0  0  0  0  0  0  0  0  0  0
    3.7147    0.5668    1.2793 N   0  0  0  0  0  0  0  0  0  0  0  0
    3.0640    1.1109    2.4806 C   0  0  1  0  0  0  0  0  0  0  0  0
    1.9983    0.8769    2.3647 H   0  0  0  0  0  0  0  0  0  0  0  0
    3.5504    0.4173    3.7750 C   0  0  0  0  0  0  0  0  0  0  0  0
    2.7478   -0.7368    4.1553 N   0  0  0  0  0  0  0  0  0  0  0  0
    2.7959   -1.9201    3.2914 C   0  0  0  0  0  0  0  0  0  0  0  0
    4.0121   -2.8067    3.5744 C   0  0  0  0  0  0  0  0  0  0  0  0
    4.0706   -3.1700    4.9428 O   0  0  0  0  0  0  0  0  0  0  0  0
    4.0963   -2.0431    5.7980 C   0  0  0  0  0  0  0  0  0  0  0  0
    2.8793   -1.1442    5.5537 C   0  0  0  0  0  0  0  0  0  0  0  0
    3.2240    2.6281    2.5017 C   0  0  0  0  0  0  0  0  0  0  0  0
    2.2043    3.4371    1.9756 C   0  0  0  0  0  0  0  0  0  0  0  0
    2.3391    4.8278    1.9428 C   0  0  0  0  0  0  0  0  0  0  0  0
    3.5000    5.4334    2.4328 C   0  0  0  0  0  0  0  0  0  0  0  0
    4.5244    4.6386    2.9556 C   0  0  0  0  0  0  0  0  0  0  0  0
    4.3867    3.2478    2.9893 C   0  0  0  0  0  0  0  0  0  0  0  0
    3.8302   -0.1419   -1.0997 C   0  0  1  0  0  0  0  0  0  0  0  0
    3.7000    0.7649   -1.7181 H   0  0  0  0  0  0  0  0  0  0  0  0
    5.3358   -0.4111   -0.9285 C   0  0  0  0  0  0  0  0  0  0  0  0
    5.5913   -1.7900   -0.3099 C   0  0  0  0  0  0  0  0  0  0  0  0
    4.8778   -2.8863   -1.1004 C   0  0  0  0  0  0  0  0  0  0  0  0
    3.4497   -2.5941   -1.2573 N   0  0  0  0  0  0  0  0  0  0  0  0
    2.5927   -3.6850   -1.2602 C   0  0  0  0  0  0  0  0  0  0  0  0
    3.0191   -4.8152   -1.0613 O   0  0  0  0  0  0  0  0  0  0  0  0
    1.1163   -3.5071   -1.5226 C   0  0  0  0  0  0  0  0  0  0  0  0
    0.5024   -4.5220   -2.2788 C   0  0  0  0  0  0  0  0  0  0  0  0
   -0.8689   -4.5108   -2.5230 C   0  0  0  0  0  0  0  0  0  0  0  0
   -1.6500   -3.4865   -1.9774 C   0  0  0  0  0  0  0  0  0  0  0  0
   -3.3743   -3.4673   -2.2686 Cl  0  0  0  0  0  0  0  0  0  0  0  0
   -1.0682   -2.4857   -1.1968 C   0  0  0  0  0  0  0  0  0  0  0  0
    0.3119   -2.4949   -0.9740 C   0  0  0  0  0  0  0  0  0  0  0  0
    3.1778   -1.3003   -1.8810 C   0  0  0  0  0  0  0  0  0  0  0  0
    4.7135    0.7127    1.1950 H   0  0  0  0  0  0  0  0  0  0  0  0
    3.4558    1.1433    4.5963 H   0  0  0  0  0  0  0  0  0  0  0  0
    4.6417    0.2087    3.6800 H   0  0  0  0  0  0  0  0  0  0  0  0
    2.7607   -1.6259    2.2342 H   0  0  0  0  0  0  0  0  0  0  0  0
    1.8862   -2.5154    3.4868 H   0  0  0  0  0  0  0  0  0  0  0  0
    4.9501   -2.2863    3.2814 H   0  0  0  0  0  0  0  0  0  0  0  0
    3.9563   -3.7424    2.9963 H   0  0  0  0  0  0  0  0  0  0  0  0
    5.0366   -1.4692    5.6485 H   0  0  0  0  0  0  0  0  0  0  0  0
    4.1008   -2.4253    6.8313 H   0  0  0  0  0  0  0  0  0  0  0  0
    2.9214   -0.2511    6.1991 H   0  0  0  0  0  0  0  0  0  0  0  0
    1.9723   -1.7109    5.8326 H   0  0  0  0  0  0  0  0  0  0  0  0
    1.2981    2.9660    1.5857 H   0  0  0  0  0  0  0  0  0  0  0  0
    1.5318    5.4413    1.5345 H   0  0  0  0  0  0  0  0  0  0  0  0
    3.6055    6.5209    2.4095 H   0  0  0  0  0  0  0  0  0  0  0  0
    5.4350    5.1033    3.3427 H   0  0  0  0  0  0  0  0  0  0  0  0
    5.1979    2.6447    3.4075 H   0  0  0  0  0  0  0  0  0  0  0  0
    5.8338    0.3906   -0.3564 H   0  0  0  0  0  0  0  0  0  0  0  0
    5.7996   -0.3743   -1.9297 H   0  0  0  0  0  0  0  0  0  0  0  0
    5.2373   -1.8093    0.7342 H   0  0  0  0  0  0  0  0  0  0  0  0
    6.6717   -2.0071   -0.2870 H   0  0  0  0  0  0  0  0  0  0  0  0
    4.9678   -3.8647   -0.6157 H   0  0  0  0  0  0  0  0  0  0  0  0
    5.3410   -2.9796   -2.1044 H   0  0  0  0  0  0  0  0  0  0  0  0
    1.1200   -5.3338   -2.6672 H   0  0  0  0  0  0  0  0  0  0  0  0
   -1.3382   -5.2935   -3.1213 H   0  0  0  0  0  0  0  0  0  0  0  0
   -1.6911   -1.7023   -0.7621 H   0  0  0  0  0  0  0  0  0  0  0  0
    0.7429   -1.7013   -0.3610 H   0  0  0  0  0  0  0  0  0  0  0  0
    2.1016   -1.1299   -1.9583 H   0  0  0  0  0  0  0  0  0  0  0  0
    3.5934   -1.2948   -2.9085 H   0  0  0  0  0  0  0  0  0  0  0  0
  1  2  2  0
  2  3  1  0
  2 19  1  0
  3  4  1  0
  3 35  1  0
  4  5  1  6
  4  6  1  0
  4 13  1  0
  6  7  1  0
  6 36  1  0
  6 37  1  0
  7  8  1  0
  7 12  1  0
  8  9  1  0
  8 38  1  0
  8 39  1  0
  9 10  1  0
  9 40  1  0
  9 41  1  0
 10 11  1  0
 11 12  1  0
 11 42  1  0
 11 43  1  0
 12 44  1  0
 12 45  1  0
 13 14  2  0
 13 18  1  0
 14 15  1  0
 14 46  1  0
 15 16  2  0
 15 47  1  0
 16 17  1  0
 16 48  1  0
 17 18  2  0
 17 49  1  0
 18 50  1  0
 19 20  1  6
 19 21  1  0
 19 34  1  0
 21 22  1  0
 21 51  1  0
 21 52  1  0
 22 23  1  0
 22 53  1  0
 22 54  1  0
 23 24  1  0
 23 55  1  0
 23 56  1  0
 24 25  1  0
 24 34  1  0
 25 26  2  0
 25 27  1  0
 27 28  2  0
 27 33  1  0
 28 29  1  0
 28 57  1  0
 29 30  2  0
 29 58  1  0
 30 31  1  0
 30 32  1  0
 32 33  2  0
 32 59  1  0
 33 60  1  0
 34 61  1  0
 34 62  1  0
M  END

