
     RDKit          3D

 71 75  0  0  0  0  0  0  0  0999 V2000
    2.4253    1.6857    0.6157 C   0  0  0  0  0  0  0  0  0  0  0  0
    2.8121    0.3163    0.0477 C   0  0  2  0  0  0  0  0  0  0  0  0
    1.6685   -0.1699   -0.6290 O   0  0  0  0  0  0  0  0  0  0  0  0
    3.2538   -0.6480    1.1580 C   0  0  0  0  0  0  0  0  0  0  0  0
    4.5214   -0.6227    1.7602 C   0  0  0  0  0  0  0  0  0  0  0  0
    4.8599   -1.4948    2.7919 C   0  0  0  0  0  0  0  0  0  0  0  0
    3.9466   -2.4542    3.2915 C   0  0  0  0  0  0  0  0  0  0  0  0
    4.3069   -3.3673    4.2906 N   0  0  0  0  0  0  0  0  0  0  0  0
    3.3100   -4.2941    4.8166 C   0  0  0  0  0  0  0  0  0  0  0  0
    3.9564   -5.5689    5.3575 C   0  0  0  0  0  0  0  0  0  0  0  0
    5.0364   -5.2479    6.2756 N   0  0  0  0  0  0  0  0  0  0  0  0
    5.0228   -5.7903    7.8398 S   0  0  1  0  0  0  0  0  0  0  0  0
    6.1230   -5.1389    8.5490 O   0  0  0  0  0  0  0  0  0  0  0  0
    3.6427   -5.6635    8.3331 O   0  0  0  0  0  0  0  0  0  0  0  0
    5.3450   -7.5825    7.8079 C   0  0  0  0  0  0  0  0  0  0  0  0
    4.3688   -8.3681    8.3570 C   0  0  0  0  0  0  0  0  0  0  0  0
    4.4922   -9.8043    8.4736 C   0  0  0  0  0  0  0  0  0  0  0  0
    5.6326  -10.4130    8.0898 C   0  0  0  0  0  0  0  0  0  0  0  0
    6.7844   -9.6362    7.5428 C   0  0  0  0  0  0  0  0  0  0  0  0
    6.5815   -8.1466    7.2852 C   0  0  0  0  0  0  0  0  0  0  0  0
    7.7396   -7.3008    6.4722 S   0  0  0  0  0  0  0  0  0  0  0  0
    6.0620   -4.3690    5.7341 C   0  0  0  0  0  0  0  0  0  0  0  0
    5.4412   -3.0734    5.1854 C   0  0  2  0  0  0  0  0  0  0  0  0
    6.2284   -2.6219    4.5731 H   0  0  0  0  0  0  0  0  0  0  0  0
    5.0247   -2.0866    6.3016 C   0  0  0  0  0  0  0  0  0  0  0  0
    6.1225   -1.6167    7.1489 N   0  0  0  0  0  0  0  0  0  0  0  0
    6.9809   -0.6595    6.4701 C   0  0  1  0  0  0  0  0  0  0  0  0
    8.2218   -0.0994    7.2011 C   0  0  0  0  0  0  0  0  0  0  0  0
    9.0278   -0.2797    6.0279 O   0  0  0  0  0  0  0  0  0  0  0  0
    8.0369   -1.1300    5.4420 C   0  0  0  0  0  0  0  0  0  0  0  0
    5.6167   -1.0597    8.3983 C   0  0  1  0  0  0  0  0  0  0  0  0
    4.7238   -1.9243    9.3138 C   0  0  0  0  0  0  0  0  0  0  0  0
    5.4539   -1.4841   10.4721 O   0  0  0  0  0  0  0  0  0  0  0  0
    6.5229   -1.0047    9.6496 C   0  0  0  0  0  0  0  0  0  0  0  0
    2.6605   -2.4495    2.7028 C   0  0  0  0  0  0  0  0  0  0  0  0
    2.3350   -1.5746    1.6668 C   0  0  0  0  0  0  0  0  0  0  0  0
    3.9052    0.5003   -1.0383 C   0  0  1  0  0  0  0  0  0  0  0  0
    3.4675    1.2788   -2.0358 F   0  0  0  0  0  0  0  0  0  0  0  0
    5.0312    1.0731   -0.5646 F   0  0  0  0  0  0  0  0  0  0  0  0
    4.2464   -0.6843   -1.5761 F   0  0  0  0  0  0  0  0  0  0  0  0
    3.2784    2.1583    1.1219 H   0  0  0  0  0  0  0  0  0  0  0  0
    1.6148    1.5486    1.3443 H   0  0  0  0  0  0  0  0  0  0  0  0
    2.0729    2.3422   -0.1929 H   0  0  0  0  0  0  0  0  0  0  0  0
    1.8718   -1.0540   -0.9671 H   0  0  0  0  0  0  0  0  0  0  0  0
    5.2777    0.0872    1.4244 H   0  0  0  0  0  0  0  0  0  0  0  0
    5.8653   -1.4194    3.2019 H   0  0  0  0  0  0  0  0  0  0  0  0
    2.6292   -4.5899    4.0086 H   0  0  0  0  0  0  0  0  0  0  0  0
    2.6913   -3.8336    5.6128 H   0  0  0  0  0  0  0  0  0  0  0  0
    4.3611   -6.1658    4.5186 H   0  0  0  0  0  0  0  0  0  0  0  0
    3.1952   -6.1675    5.8753 H   0  0  0  0  0  0  0  0  0  0  0  0
    3.4615   -7.8782    8.7175 H   0  0  0  0  0  0  0  0  0  0  0  0
    3.6568  -10.3708    8.8906 H   0  0  0  0  0  0  0  0  0  0  0  0
    5.7536  -11.4958    8.1911 H   0  0  0  0  0  0  0  0  0  0  0  0
    7.1659  -10.1054    6.6194 H   0  0  0  0  0  0  0  0  0  0  0  0
    7.6345   -9.7338    8.2485 H   0  0  0  0  0  0  0  0  0  0  0  0
    6.5996   -4.8961    4.9271 H   0  0  0  0  0  0  0  0  0  0  0  0
    6.7772   -4.1205    6.5265 H   0  0  0  0  0  0  0  0  0  0  0  0
    4.2989   -2.6033    6.9464 H   0  0  0  0  0  0  0  0  0  0  0  0
    4.4853   -1.2375    5.8271 H   0  0  0  0  0  0  0  0  0  0  0  0
    6.3856    0.1787    6.0448 H   0  0  0  0  0  0  0  0  0  0  0  0
    8.5681   -0.7402    8.0306 H   0  0  0  0  0  0  0  0  0  0  0  0
    8.1863    0.9509    7.5352 H   0  0  0  0  0  0  0  0  0  0  0  0
    8.2953   -2.2008    5.5476 H   0  0  0  0  0  0  0  0  0  0  0  0
    7.8641   -0.8958    4.3774 H   0  0  0  0  0  0  0  0  0  0  0  0
    5.1366   -0.0703    8.2308 H   0  0  0  0  0  0  0  0  0  0  0  0
    4.8442   -3.0074    9.1433 H   0  0  0  0  0  0  0  0  0  0  0  0
    3.6524   -1.6685    9.3689 H   0  0  0  0  0  0  0  0  0  0  0  0
    7.3573   -1.7284    9.5956 H   0  0  0  0  0  0  0  0  0  0  0  0
    6.9009   -0.0208    9.9760 H   0  0  0  0  0  0  0  0  0  0  0  0
    1.8832   -3.1271    3.0520 H   0  0  0  0  0  0  0  0  0  0  0  0
    1.3249   -1.6109    1.2545 H   0  0  0  0  0  0  0  0  0  0  0  0
  1  2  1  0
  1 41  1  0
  1 42  1  0
  1 43  1  0
  2  3  1  6
  2  4  1  0
  2 37  1  0
  3 44  1  0
  4  5  2  0
  4 36  1  0
  5  6  1  0
  5 45  1  0
  6  7  2  0
  6 46  1  0
  7  8  1  0
  7 35  1  0
  8  9  1  0
  8 23  1  0
  9 10  1  0
  9 47  1  0
  9 48  1  0
 10 11  1  0
 10 49  1  0
 10 50  1  0
 11 12  1  0
 11 22  1  0
 12 13  2  0
 12 14  2  0
 12 15  1  6
 15 16  2  0
 15 20  1  0
 16 17  1  0
 16 51  1  0
 17 18  2  0
 17 52  1  0
 18 19  1  0
 18 53  1  0
 19 20  1  0
 19 54  1  0
 19 55  1  0
 20 21  2  0
 22 23  1  0
 22 56  1  0
 22 57  1  0
 23 24  1  6
 23 25  1  0
 25 26  1  0
 25 58  1  0
 25 59  1  0
 26 27  1  0
 26 31  1  0
 27 28  1  0
 27 30  1  0
 27 60  1  6
 28 29  1  0
 28 61  1  0
 28 62  1  0
 29 30  1  0
 30 63  1  0
 30 64  1  0
 31 32  1  0
 31 34  1  0
 31 65  1  6
 32 33  1  0
 32 66  1  0
 32 67  1  0
 33 34  1  0
 34 68  1  0
 34 69  1  0
 35 36  2  0
 35 70  1  0
 36 71  1  0
 37 38  1  6
 37 39  1  0
 37 40  1  0
M  END

