
     RDKit          3D

 39 39  0  0  0  0  0  0  0  0999 V2000
    0.6175    4.1807    1.3420 C   0  0  0  0  0  0  0  0  0  0  0  0
    2.1841    4.7789    2.0098 S   0  0  1  0  0  0  0  0  0  0  0  0
    2.8673    5.5646    0.9846 O   0  0  0  0  0  0  0  0  0  0  0  0
    1.9486    5.2785    3.3625 O   0  0  0  0  0  0  0  0  0  0  0  0
    3.1260    3.1344    2.1900 C   0  0  1  0  0  0  0  0  0  0  0  0
    2.5756    2.4818    3.2326 F   0  0  0  0  0  0  0  0  0  0  0  0
    2.9083    2.4036    1.0760 F   0  0  0  0  0  0  0  0  0  0  0  0
    4.6511    3.3062    2.4082 C   0  0  1  0  0  0  0  0  0  0  0  0
    5.1819    3.7295    1.2363 F   0  0  0  0  0  0  0  0  0  0  0  0
    4.8119    4.3037    3.3199 F   0  0  0  0  0  0  0  0  0  0  0  0
    5.3242    2.0216    2.8695 C   0  0  0  0  0  0  0  0  0  0  0  0
    6.8586    2.0734    2.8752 C   0  0  0  0  0  0  0  0  0  0  0  0
    7.4829    2.9832    3.9398 C   0  0  0  0  0  0  0  0  0  0  0  0
    9.0008    2.8398    3.9786 C   0  0  0  0  0  0  0  0  0  0  0  0
    9.5809    3.6327    5.0228 O   0  0  0  0  0  0  0  0  0  0  0  0
    9.8910    4.9147    4.7307 C   0  0  0  0  0  0  0  0  0  0  0  0
    9.7102    5.4093    3.6416 O   0  0  0  0  0  0  0  0  0  0  0  0
   10.4822    5.6382    5.8962 C   0  0  0  0  0  0  0  0  0  0  0  0
   10.6791    5.0228    7.1429 C   0  0  0  0  0  0  0  0  0  0  0  0
   11.2371    5.7478    8.1975 C   0  0  0  0  0  0  0  0  0  0  0  0
   11.6003    7.0864    8.0145 C   0  0  0  0  0  0  0  0  0  0  0  0
   11.4050    7.7028    6.7732 C   0  0  0  0  0  0  0  0  0  0  0  0
   10.8477    6.9819    5.7172 C   0  0  0  0  0  0  0  0  0  0  0  0
   -0.0109    5.0797    1.2751 H   0  0  0  0  0  0  0  0  0  0  0  0
    0.1850    3.4597    2.0472 H   0  0  0  0  0  0  0  0  0  0  0  0
    0.7869    3.7443    0.3509 H   0  0  0  0  0  0  0  0  0  0  0  0
    4.9871    1.2248    2.1876 H   0  0  0  0  0  0  0  0  0  0  0  0
    4.9304    1.7814    3.8688 H   0  0  0  0  0  0  0  0  0  0  0  0
    7.2100    2.3716    1.8735 H   0  0  0  0  0  0  0  0  0  0  0  0
    7.2129    1.0390    3.0278 H   0  0  0  0  0  0  0  0  0  0  0  0
    7.0753    2.7362    4.9355 H   0  0  0  0  0  0  0  0  0  0  0  0
    7.2299    4.0349    3.7409 H   0  0  0  0  0  0  0  0  0  0  0  0
    9.4426    3.1320    3.0140 H   0  0  0  0  0  0  0  0  0  0  0  0
    9.2938    1.8040    4.2093 H   0  0  0  0  0  0  0  0  0  0  0  0
   10.3920    3.9792    7.2760 H   0  0  0  0  0  0  0  0  0  0  0  0
   11.3893    5.2674    9.1673 H   0  0  0  0  0  0  0  0  0  0  0  0
   12.0366    7.6516    8.8424 H   0  0  0  0  0  0  0  0  0  0  0  0
   11.6878    8.7487    6.6304 H   0  0  0  0  0  0  0  0  0  0  0  0
   10.6846    7.4403    4.7400 H   0  0  0  0  0  0  0  0  0  0  0  0
  2  1  1  6
  1 24  1  0
  1 25  1  0
  1 26  1  0
  2  3  2  0
  2  4  2  0
  2  5  1  0
  5  6  1  1
  5  7  1  0
  5  8  1  0
  8  9  1  6
  8 10  1  0
  8 11  1  0
 11 12  1  0
 11 27  1  0
 11 28  1  0
 12 13  1  0
 12 29  1  0
 12 30  1  0
 13 14  1  0
 13 31  1  0
 13 32  1  0
 14 15  1  0
 14 33  1  0
 14 34  1  0
 15 16  1  0
 16 17  2  0
 16 18  1  0
 18 19  2  0
 18 23  1  0
 19 20  1  0
 19 35  1  0
 20 21  2  0
 20 36  1  0
 21 22  1  0
 21 37  1  0
 22 23  2  0
 22 38  1  0
 23 39  1  0
M  END

