
     RDKit          3D

 46 47  0  0  0  0  0  0  0  0999 V2000
    8.6403   17.1802   -4.2450 C   0  0  0  0  0  0  0  0  0  0  0  0
    9.7717   16.2184   -4.5141 C   0  0  0  0  0  0  0  0  0  0  0  0
   10.0276   15.7116   -5.7944 C   0  0  0  0  0  0  0  0  0  0  0  0
   11.0833   14.8350   -6.0437 C   0  0  0  0  0  0  0  0  0  0  0  0
   11.9406   14.4184   -5.0072 C   0  0  0  0  0  0  0  0  0  0  0  0
   13.0126   13.5338   -5.2110 N   0  0  0  0  0  0  0  0  0  0  0  0
   13.4226   12.9650   -6.3912 C   0  0  0  0  0  0  0  0  0  0  0  0
   12.9269   13.1681   -7.4858 O   0  0  0  0  0  0  0  0  0  0  0  0
   14.6229   12.0131   -6.2541 C   0  0  0  0  0  0  0  0  0  0  0  0
   14.2970   10.7990   -5.5693 O   0  0  0  0  0  0  0  0  0  0  0  0
   14.4551   10.7805   -4.2125 C   0  0  0  0  0  0  0  0  0  0  0  0
   14.7655   11.7782   -3.5858 O   0  0  0  0  0  0  0  0  0  0  0  0
   14.2013    9.4621   -3.6691 C   0  0  0  0  0  0  0  0  0  0  0  0
   13.8634    8.3946   -4.4806 N   0  0  0  0  0  0  0  0  0  0  0  0
   13.7650    8.4694   -5.4854 H   0  0  0  0  0  0  0  0  0  0  0  0
   13.7019    7.2707   -3.7357 C   0  0  0  0  0  0  0  0  0  0  0  0
   13.3115    5.9697   -4.3637 C   0  0  0  0  0  0  0  0  0  0  0  0
   13.9344    7.6096   -2.3957 C   0  0  0  0  0  0  0  0  0  0  0  0
   13.8391    6.6584   -1.2299 C   0  0  2  0  0  0  0  0  0  0  0  0
   13.7217    5.6351   -1.6411 H   0  0  0  0  0  0  0  0  0  0  0  0
   12.6273    6.9324   -0.3299 C   0  0  0  0  0  0  0  0  0  0  0  0
   15.0551    6.7320   -0.4894 O   0  0  0  0  0  0  0  0  0  0  0  0
   14.2544    8.9992   -2.3482 C   0  0  0  0  0  0  0  0  0  0  0  0
   14.5898    9.8160   -1.1354 C   0  0  0  0  0  0  0  0  0  0  0  0
   11.6798   14.9326   -3.7160 C   0  0  0  0  0  0  0  0  0  0  0  0
   12.7838   14.4366   -2.2327 Br  0  0  0  0  0  0  0  0  0  0  0  0
   10.6225   15.8083   -3.4772 C   0  0  0  0  0  0  0  0  0  0  0  0
    7.9822   17.2799   -5.1208 H   0  0  0  0  0  0  0  0  0  0  0  0
    9.0190   18.1868   -3.9972 H   0  0  0  0  0  0  0  0  0  0  0  0
    8.0228   16.8503   -3.3936 H   0  0  0  0  0  0  0  0  0  0  0  0
    9.3859   16.0073   -6.6290 H   0  0  0  0  0  0  0  0  0  0  0  0
   11.2674   14.4568   -7.0461 H   0  0  0  0  0  0  0  0  0  0  0  0
   13.5556   13.2773   -4.3826 H   0  0  0  0  0  0  0  0  0  0  0  0
   15.4618   12.5115   -5.7441 H   0  0  0  0  0  0  0  0  0  0  0  0
   14.9072   11.7248   -7.2722 H   0  0  0  0  0  0  0  0  0  0  0  0
   13.6627    5.9121   -5.4061 H   0  0  0  0  0  0  0  0  0  0  0  0
   12.2165    5.8271   -4.3755 H   0  0  0  0  0  0  0  0  0  0  0  0
   13.7465    5.1192   -3.8190 H   0  0  0  0  0  0  0  0  0  0  0  0
   12.5872    6.2067    0.5016 H   0  0  0  0  0  0  0  0  0  0  0  0
   11.6870    6.8428   -0.8961 H   0  0  0  0  0  0  0  0  0  0  0  0
   12.6763    7.9443    0.0993 H   0  0  0  0  0  0  0  0  0  0  0  0
   14.9445    6.2117    0.3175 H   0  0  0  0  0  0  0  0  0  0  0  0
   15.0839    9.1882   -0.3827 H   0  0  0  0  0  0  0  0  0  0  0  0
   13.6776   10.2410   -0.6801 H   0  0  0  0  0  0  0  0  0  0  0  0
   15.2341   10.6649   -1.3985 H   0  0  0  0  0  0  0  0  0  0  0  0
   10.4638   16.1754   -2.4610 H   0  0  0  0  0  0  0  0  0  0  0  0
  1  2  1  0
  1 28  1  0
  1 29  1  0
  1 30  1  0
  2  3  2  0
  2 27  1  0
  3  4  1  0
  3 31  1  0
  4  5  2  0
  4 32  1  0
  5  6  1  0
  5 25  1  0
  6  7  1  0
  6 33  1  0
  7  8  2  0
  7  9  1  0
  9 10  1  0
  9 34  1  0
  9 35  1  0
 10 11  1  0
 11 12  2  0
 11 13  1  0
 13 14  1  0
 13 23  2  0
 14 15  1  0
 14 16  1  0
 16 17  1  0
 16 18  2  0
 17 36  1  0
 17 37  1  0
 17 38  1  0
 18 19  1  0
 18 23  1  0
 19 20  1  6
 19 21  1  0
 19 22  1  0
 21 39  1  0
 21 40  1  0
 21 41  1  0
 22 42  1  0
 23 24  1  0
 24 43  1  0
 24 44  1  0
 24 45  1  0
 25 26  1  0
 25 27  2  0
 27 46  1  0
M  END

