
     RDKit          3D

 45 46  0  0  0  0  0  0  0  0999 V2000
    3.7427   -2.4907   -2.9434 C   0  0  0  0  0  0  0  0  0  0  0  0
    2.6540   -1.7308   -2.1906 C   0  0  1  0  0  0  0  0  0  0  0  0
    1.3631   -1.9882   -2.7210 O   0  0  0  0  0  0  0  0  0  0  0  0
    2.6381   -2.0204   -0.6766 C   0  0  0  0  0  0  0  0  0  0  0  0
    3.8606   -1.6817    0.0364 N   0  0  0  0  0  0  0  0  0  0  0  0
    4.1277   -0.2930    0.3564 C   0  0  0  0  0  0  0  0  0  0  0  0
    4.7236   -2.7103    0.3859 C   0  0  0  0  0  0  0  0  0  0  0  0
    4.4734   -3.8886    0.1548 O   0  0  0  0  0  0  0  0  0  0  0  0
    5.8833   -2.3315    1.0301 N   0  0  0  0  0  0  0  0  0  0  0  0
    6.9100   -3.3326    1.3338 C   0  0  2  0  0  0  0  0  0  0  0  0
    6.5481   -4.1778    2.5688 C   0  0  0  0  0  0  0  0  0  0  0  0
    6.7001   -3.3683    3.8499 C   0  0  0  0  0  0  0  0  0  0  0  0
    8.0068   -2.8300    3.9789 O   0  0  0  0  0  0  0  0  0  0  0  0
    8.4337   -1.9614    2.9211 C   0  0  2  0  0  0  0  0  0  0  0  0
    9.8958   -1.6184    3.2466 C   0  0  0  0  0  0  0  0  0  0  0  0
    9.8232   -0.6211    4.4189 C   0  0  0  0  0  0  0  0  0  0  0  0
    8.4375    0.0743    4.2877 C   0  0  0  0  0  0  0  0  0  0  0  0
    7.7572   -0.5746    3.0624 C   0  0  0  0  0  0  0  0  0  0  0  0
    8.2768   -2.6677    1.5605 C   0  0  0  0  0  0  0  0  0  0  0  0
    3.6732   -2.2769   -4.0210 H   0  0  0  0  0  0  0  0  0  0  0  0
    3.6417   -3.5778   -2.7880 H   0  0  0  0  0  0  0  0  0  0  0  0
    4.7476   -2.2051   -2.5959 H   0  0  0  0  0  0  0  0  0  0  0  0
    2.8062   -0.6468   -2.3427 H   0  0  0  0  0  0  0  0  0  0  0  0
    1.2091   -2.9422   -2.6692 H   0  0  0  0  0  0  0  0  0  0  0  0
    2.4614   -3.0949   -0.5223 H   0  0  0  0  0  0  0  0  0  0  0  0
    1.7889   -1.4690   -0.2381 H   0  0  0  0  0  0  0  0  0  0  0  0
    3.2193    0.2993    0.1790 H   0  0  0  0  0  0  0  0  0  0  0  0
    4.9337    0.1529   -0.2588 H   0  0  0  0  0  0  0  0  0  0  0  0
    4.3968   -0.1662    1.4195 H   0  0  0  0  0  0  0  0  0  0  0  0
    6.1632   -1.3608    1.0178 H   0  0  0  0  0  0  0  0  0  0  0  0
    6.9759   -4.0093    0.4664 H   0  0  0  0  0  0  0  0  0  0  0  0
    7.2283   -5.0457    2.6080 H   0  0  0  0  0  0  0  0  0  0  0  0
    5.5246   -4.5657    2.4588 H   0  0  0  0  0  0  0  0  0  0  0  0
    6.5461   -4.0000    4.7383 H   0  0  0  0  0  0  0  0  0  0  0  0
    5.9356   -2.5669    3.8835 H   0  0  0  0  0  0  0  0  0  0  0  0
   10.3546   -1.1523    2.3583 H   0  0  0  0  0  0  0  0  0  0  0  0
   10.4649   -2.5305    3.4812 H   0  0  0  0  0  0  0  0  0  0  0  0
   10.6573    0.0971    4.3979 H   0  0  0  0  0  0  0  0  0  0  0  0
    9.8864   -1.1614    5.3743 H   0  0  0  0  0  0  0  0  0  0  0  0
    8.5234    1.1655    4.1688 H   0  0  0  0  0  0  0  0  0  0  0  0
    7.8359   -0.0993    5.1921 H   0  0  0  0  0  0  0  0  0  0  0  0
    7.9630    0.0127    2.1504 H   0  0  0  0  0  0  0  0  0  0  0  0
    6.6644   -0.6379    3.1702 H   0  0  0  0  0  0  0  0  0  0  0  0
    9.0356   -3.4657    1.5154 H   0  0  0  0  0  0  0  0  0  0  0  0
    8.5083   -1.9673    0.7395 H   0  0  0  0  0  0  0  0  0  0  0  0
  1  2  1  0
  1 20  1  0
  1 21  1  0
  1 22  1  0
  2  3  1  0
  2  4  1  0
  2 23  1  1
  3 24  1  0
  4  5  1  0
  4 25  1  0
  4 26  1  0
  5  6  1  0
  5  7  1  0
  6 27  1  0
  6 28  1  0
  6 29  1  0
  7  8  2  0
  7  9  1  0
  9 10  1  0
  9 30  1  0
 10 11  1  0
 10 19  1  0
 10 31  1  6
 11 12  1  0
 11 32  1  0
 11 33  1  0
 12 13  1  0
 12 34  1  0
 12 35  1  0
 14 13  1  1
 14 15  1  0
 14 18  1  0
 14 19  1  0
 15 16  1  0
 15 36  1  0
 15 37  1  0
 16 17  1  0
 16 38  1  0
 16 39  1  0
 17 18  1  0
 17 40  1  0
 17 41  1  0
 18 42  1  0
 18 43  1  0
 19 44  1  0
 19 45  1  0
M  END

