
     RDKit          3D

 62 66  0  0  0  0  0  0  0  0999 V2000
    0.9351    0.3293   -0.0388 O   0  0  0  0  0  0  0  0  0  0  0  0
    2.1368    0.2976   -0.2304 C   0  0  0  0  0  0  0  0  0  0  0  0
    2.7931   -0.5513   -1.0645 N   0  0  0  0  0  0  0  0  0  0  0  0
    2.1696   -1.6155   -1.8573 C   0  0  2  0  0  0  0  0  0  0  0  0
    1.4797   -2.6699   -0.9594 C   0  0  0  0  0  0  0  0  0  0  0  0
    0.8786   -3.7874   -1.8318 C   0  0  2  0  0  0  0  0  0  0  0  0
    1.9969   -4.4723   -2.6389 C   0  0  0  0  0  0  0  0  0  0  0  0
    2.6837   -3.4285   -3.5397 C   0  0  2  0  0  0  0  0  0  0  0  0
    3.2832   -2.3097   -2.6688 C   0  0  0  0  0  0  0  0  0  0  0  0
    1.6529   -2.8301   -4.5146 C   0  0  0  0  0  0  0  0  0  0  0  0
    0.5175   -2.1439   -3.7192 C   0  0  1  0  0  0  0  0  0  0  0  0
   -0.4523   -1.5041   -4.6141 N   0  0  0  0  0  0  0  0  0  0  0  0
   -1.1956   -2.1449   -5.5536 C   0  0  0  0  0  0  0  0  0  0  0  0
   -1.1415   -3.3293   -5.8291 O   0  0  0  0  0  0  0  0  0  0  0  0
   -2.0220   -1.2569   -6.1691 O   0  0  0  0  0  0  0  0  0  0  0  0
   -2.9010   -1.7734   -7.1850 C   0  0  0  0  0  0  0  0  0  0  0  0
   -4.2558   -2.1516   -6.6327 C   0  0  0  0  0  0  0  0  0  0  0  0
   -5.3279   -1.2494   -6.6954 C   0  0  0  0  0  0  0  0  0  0  0  0
   -6.5792   -1.5888   -6.1727 C   0  0  0  0  0  0  0  0  0  0  0  0
   -6.7712   -2.8389   -5.5776 C   0  0  0  0  0  0  0  0  0  0  0  0
   -5.7082   -3.7459   -5.5090 C   0  0  0  0  0  0  0  0  0  0  0  0
   -4.4588   -3.4061   -6.0335 C   0  0  0  0  0  0  0  0  0  0  0  0
   -0.1597   -3.1860   -2.7970 C   0  0  0  0  0  0  0  0  0  0  0  0
    1.1311   -1.0312   -2.8440 C   0  0  0  0  0  0  0  0  0  0  0  0
    3.0263    1.1346    0.3660 O   0  0  0  0  0  0  0  0  0  0  0  0
    2.5008    2.0914    1.3053 C   0  0  0  0  0  0  0  0  0  0  0  0
    2.5283    1.5752    2.7251 C   0  0  0  0  0  0  0  0  0  0  0  0
    3.5960    1.8926    3.5776 C   0  0  0  0  0  0  0  0  0  0  0  0
    3.6336    1.4061    4.8875 C   0  0  0  0  0  0  0  0  0  0  0  0
    2.6001    0.5918    5.3595 C   0  0  0  0  0  0  0  0  0  0  0  0
    1.5310    0.2685    4.5170 C   0  0  0  0  0  0  0  0  0  0  0  0
    1.4936    0.7571    3.2089 C   0  0  0  0  0  0  0  0  0  0  0  0
    3.8016   -0.4577   -1.0919 H   0  0  0  0  0  0  0  0  0  0  0  0
    0.6986   -2.1783   -0.3610 H   0  0  0  0  0  0  0  0  0  0  0  0
    2.2235   -3.0825   -0.2566 H   0  0  0  0  0  0  0  0  0  0  0  0
    0.3826   -4.5267   -1.1811 H   0  0  0  0  0  0  0  0  0  0  0  0
    1.5798   -5.2856   -3.2561 H   0  0  0  0  0  0  0  0  0  0  0  0
    2.7333   -4.9308   -1.9565 H   0  0  0  0  0  0  0  0  0  0  0  0
    3.4927   -3.9074   -4.1162 H   0  0  0  0  0  0  0  0  0  0  0  0
    3.7951   -1.5643   -3.3028 H   0  0  0  0  0  0  0  0  0  0  0  0
    4.0364   -2.7247   -1.9759 H   0  0  0  0  0  0  0  0  0  0  0  0
    1.2253   -3.6127   -5.1574 H   0  0  0  0  0  0  0  0  0  0  0  0
    2.1302   -2.0853   -5.1742 H   0  0  0  0  0  0  0  0  0  0  0  0
   -0.6582   -0.5212   -4.4781 H   0  0  0  0  0  0  0  0  0  0  0  0
   -2.4174   -2.6375   -7.6613 H   0  0  0  0  0  0  0  0  0  0  0  0
   -2.9974   -0.9593   -7.9171 H   0  0  0  0  0  0  0  0  0  0  0  0
   -5.1817   -0.2705   -7.1616 H   0  0  0  0  0  0  0  0  0  0  0  0
   -7.4062   -0.8763   -6.2315 H   0  0  0  0  0  0  0  0  0  0  0  0
   -7.7491   -3.1075   -5.1693 H   0  0  0  0  0  0  0  0  0  0  0  0
   -5.8545   -4.7256   -5.0466 H   0  0  0  0  0  0  0  0  0  0  0  0
   -3.6228   -4.1071   -5.9759 H   0  0  0  0  0  0  0  0  0  0  0  0
   -0.6174   -3.9708   -3.4172 H   0  0  0  0  0  0  0  0  0  0  0  0
   -0.9698   -2.6936   -2.2333 H   0  0  0  0  0  0  0  0  0  0  0  0
    0.3428   -0.5179   -2.2725 H   0  0  0  0  0  0  0  0  0  0  0  0
    1.6256   -0.2821   -3.4866 H   0  0  0  0  0  0  0  0  0  0  0  0
    1.4774    2.3535    1.0033 H   0  0  0  0  0  0  0  0  0  0  0  0
    3.1489    2.9731    1.2032 H   0  0  0  0  0  0  0  0  0  0  0  0
    4.4059    2.5311    3.2122 H   0  0  0  0  0  0  0  0  0  0  0  0
    4.4706    1.6647    5.5414 H   0  0  0  0  0  0  0  0  0  0  0  0
    2.6260    0.2114    6.3840 H   0  0  0  0  0  0  0  0  0  0  0  0
    0.7190   -0.3656    4.8829 H   0  0  0  0  0  0  0  0  0  0  0  0
    0.6648    0.5020    2.5443 H   0  0  0  0  0  0  0  0  0  0  0  0
  1  2  2  0
  2  3  1  0
  2 25  1  0
  4  3  1  1
  3 33  1  0
  4  5  1  0
  4  9  1  0
  4 24  1  0
  5  6  1  0
  5 34  1  0
  5 35  1  0
  6  7  1  0
  6 23  1  0
  6 36  1  1
  7  8  1  0
  7 37  1  0
  7 38  1  0
  8  9  1  0
  8 10  1  0
  8 39  1  6
  9 40  1  0
  9 41  1  0
 10 11  1  0
 10 42  1  0
 10 43  1  0
 11 12  1  6
 11 23  1  0
 11 24  1  0
 12 13  1  0
 12 44  1  0
 13 14  2  0
 13 15  1  0
 15 16  1  0
 16 17  1  0
 16 45  1  0
 16 46  1  0
 17 18  2  0
 17 22  1  0
 18 19  1  0
 18 47  1  0
 19 20  2  0
 19 48  1  0
 20 21  1  0
 20 49  1  0
 21 22  2  0
 21 50  1  0
 22 51  1  0
 23 52  1  0
 23 53  1  0
 24 54  1  0
 24 55  1  0
 25 26  1  0
 26 27  1  0
 26 56  1  0
 26 57  1  0
 27 28  2  0
 27 32  1  0
 28 29  1  0
 28 58  1  0
 29 30  2  0
 29 59  1  0
 30 31  1  0
 30 60  1  0
 31 32  2  0
 31 61  1  0
 32 62  1  0
M  END

