
     RDKit          3D

 45 45  0  0  0  0  0  0  0  0999 V2000
   12.6165   -9.5673  -10.1960 C   0  0  0  0  0  0  0  0  0  0  0  0
   11.7759   -8.6811   -9.5077 O   0  0  0  0  0  0  0  0  0  0  0  0
   12.1972   -8.3926   -8.1984 C   0  0  0  0  0  0  0  0  0  0  0  0
   11.2548   -7.3422   -7.5979 C   0  0  1  0  0  0  0  0  0  0  0  0
   11.3558   -6.4308   -8.2075 H   0  0  0  0  0  0  0  0  0  0  0  0
    9.7985   -7.8004   -7.5845 C   0  0  0  0  0  0  0  0  0  0  0  0
   11.6830   -6.9972   -6.2481 N   0  0  0  0  0  0  0  0  0  0  0  0
   12.5841   -6.0427   -5.9293 C   0  0  0  0  0  0  0  0  0  0  0  0
   13.4031   -5.0741   -7.0170 S   0  0  0  0  0  0  0  0  0  0  0  0
   12.8546   -5.9238   -4.5729 N   0  0  0  0  0  0  0  0  0  0  0  0
   12.0243   -6.4667   -3.6107 N   0  0  0  0  0  0  0  0  0  0  0  0
   11.0559   -5.6900   -3.0142 C   0  0  0  0  0  0  0  0  0  0  0  0
   10.8110   -4.5519   -3.3538 O   0  0  0  0  0  0  0  0  0  0  0  0
   10.3258   -6.3334   -1.8113 C   0  0  2  0  0  0  0  0  0  0  0  0
    9.4497   -5.6828   -1.6893 H   0  0  0  0  0  0  0  0  0  0  0  0
   11.1776   -6.2472   -0.5345 C   0  0  0  0  0  0  0  0  0  0  0  0
    9.7844   -7.6777   -2.0580 N   0  0  0  0  0  0  0  0  0  0  0  0
   10.5076   -8.8274   -2.1650 C   0  0  0  0  0  0  0  0  0  0  0  0
   11.7336   -8.8527   -2.1895 O   0  0  0  0  0  0  0  0  0  0  0  0
    9.6776  -10.0786   -2.3198 C   0  0  0  0  0  0  0  0  0  0  0  0
    8.6998  -10.1418   -3.3275 C   0  0  0  0  0  0  0  0  0  0  0  0
    7.9602  -11.3045   -3.5492 C   0  0  0  0  0  0  0  0  0  0  0  0
    8.1845  -12.4266   -2.7479 C   0  0  0  0  0  0  0  0  0  0  0  0
    9.1413  -12.3825   -1.7320 C   0  0  0  0  0  0  0  0  0  0  0  0
    9.8865  -11.2182   -1.5210 C   0  0  0  0  0  0  0  0  0  0  0  0
   11.0407  -11.2043   -0.2127 Cl  0  0  0  0  0  0  0  0  0  0  0  0
   12.2012   -9.7122  -11.2043 H   0  0  0  0  0  0  0  0  0  0  0  0
   12.6785  -10.5556   -9.6951 H   0  0  0  0  0  0  0  0  0  0  0  0
   13.6474   -9.1711  -10.2921 H   0  0  0  0  0  0  0  0  0  0  0  0
   13.2276   -7.9868   -8.1904 H   0  0  0  0  0  0  0  0  0  0  0  0
   12.1903   -9.3100   -7.5680 H   0  0  0  0  0  0  0  0  0  0  0  0
    9.4920   -8.0835   -8.6004 H   0  0  0  0  0  0  0  0  0  0  0  0
    9.1365   -6.9987   -7.2221 H   0  0  0  0  0  0  0  0  0  0  0  0
    9.6652   -8.6863   -6.9372 H   0  0  0  0  0  0  0  0  0  0  0  0
   11.2698   -7.5111   -5.4757 H   0  0  0  0  0  0  0  0  0  0  0  0
   13.3238   -5.0539   -4.3305 H   0  0  0  0  0  0  0  0  0  0  0  0
   12.3115   -7.3402   -3.1528 H   0  0  0  0  0  0  0  0  0  0  0  0
   10.5825   -6.5600    0.3371 H   0  0  0  0  0  0  0  0  0  0  0  0
   11.5000   -5.2069   -0.3783 H   0  0  0  0  0  0  0  0  0  0  0  0
   12.0642   -6.8920   -0.5972 H   0  0  0  0  0  0  0  0  0  0  0  0
    8.7781   -7.7748   -1.9914 H   0  0  0  0  0  0  0  0  0  0  0  0
    8.5359   -9.2677   -3.9634 H   0  0  0  0  0  0  0  0  0  0  0  0
    7.2155  -11.3338   -4.3476 H   0  0  0  0  0  0  0  0  0  0  0  0
    7.6123  -13.3434   -2.9089 H   0  0  0  0  0  0  0  0  0  0  0  0
    9.3179  -13.2475   -1.0906 H   0  0  0  0  0  0  0  0  0  0  0  0
  1  2  1  0
  1 27  1  0
  1 28  1  0
  1 29  1  0
  2  3  1  0
  3  4  1  0
  3 30  1  0
  3 31  1  0
  4  5  1  6
  4  6  1  0
  4  7  1  0
  6 32  1  0
  6 33  1  0
  6 34  1  0
  7  8  1  0
  7 35  1  0
  8  9  2  0
  8 10  1  0
 10 11  1  0
 10 36  1  0
 11 12  1  0
 11 37  1  0
 12 13  2  0
 12 14  1  0
 14 15  1  1
 14 16  1  0
 14 17  1  0
 16 38  1  0
 16 39  1  0
 16 40  1  0
 17 18  1  0
 17 41  1  0
 18 19  2  0
 18 20  1  0
 20 21  2  0
 20 25  1  0
 21 22  1  0
 21 42  1  0
 22 23  2  0
 22 43  1  0
 23 24  1  0
 23 44  1  0
 24 25  2  0
 24 45  1  0
 25 26  1  0
M  END

