
     RDKit          3D

 52 52  0  0  0  0  0  0  0  0999 V2000
    1.4334    1.7447    0.2385 C   0  0  0  0  0  0  0  0  0  0  0  0
    2.9089    1.3800    0.3843 C   0  0  0  0  0  0  0  0  0  0  0  0
    3.2039    0.5258    1.6170 C   0  0  0  0  0  0  0  0  0  0  0  0
    4.6164    0.1794    1.6903 N   0  0  0  0  0  0  0  0  0  0  0  0
    5.0366   -0.5853    2.8728 C   0  0  1  0  0  0  0  0  0  0  0  0
    4.4325   -1.9995    2.8527 C   0  0  0  0  0  0  0  0  0  0  0  0
    6.5573   -0.6352    2.9039 C   0  0  0  0  0  0  0  0  0  0  0  0
    7.2461   -1.0308    1.7455 C   0  0  0  0  0  0  0  0  0  0  0  0
    8.6316   -1.0677    1.7303 C   0  0  0  0  0  0  0  0  0  0  0  0
    9.2613   -1.4435    0.5981 F   0  0  0  0  0  0  0  0  0  0  0  0
    9.4077   -0.7190    2.8425 C   0  0  0  0  0  0  0  0  0  0  0  0
   10.9112   -0.7644    2.7721 C   0  0  0  0  0  0  0  0  0  0  0  0
    8.7108   -0.3308    3.9914 C   0  0  0  0  0  0  0  0  0  0  0  0
    7.3042   -0.2737    4.0501 C   0  0  0  0  0  0  0  0  0  0  0  0
    6.6347    0.1364    5.2479 N   0  0  0  0  0  0  0  0  0  0  0  0
    6.2572   -0.9597    6.1287 C   0  0  0  0  0  0  0  0  0  0  0  0
    7.1811    1.2822    5.9684 C   0  0  0  0  0  0  0  0  0  0  0  0
    7.2583    2.5845    5.1488 C   0  0  1  0  0  0  0  0  0  0  0  0
    5.8841    2.9837    4.5998 C   0  0  0  0  0  0  0  0  0  0  0  0
    7.8994    3.6911    6.0084 C   0  0  0  0  0  0  0  0  0  0  0  0
    8.2122    4.9903    5.2647 C   0  0  0  0  0  0  0  0  0  0  0  0
    1.2597    2.3555   -0.6608 H   0  0  0  0  0  0  0  0  0  0  0  0
    1.0708    2.3204    1.1061 H   0  0  0  0  0  0  0  0  0  0  0  0
    0.8026    0.8442    0.1541 H   0  0  0  0  0  0  0  0  0  0  0  0
    3.5142    2.3043    0.4341 H   0  0  0  0  0  0  0  0  0  0  0  0
    3.2621    0.8349   -0.5072 H   0  0  0  0  0  0  0  0  0  0  0  0
    2.6100   -0.4011    1.5559 H   0  0  0  0  0  0  0  0  0  0  0  0
    2.8446    1.0578    2.5288 H   0  0  0  0  0  0  0  0  0  0  0  0
    5.1709    1.0345    1.6496 H   0  0  0  0  0  0  0  0  0  0  0  0
    4.7107   -0.0898    3.8077 H   0  0  0  0  0  0  0  0  0  0  0  0
    4.6697   -2.5064    1.9036 H   0  0  0  0  0  0  0  0  0  0  0  0
    3.3387   -1.9743    2.9657 H   0  0  0  0  0  0  0  0  0  0  0  0
    4.8351   -2.6066    3.6770 H   0  0  0  0  0  0  0  0  0  0  0  0
    6.6923   -1.2780    0.8385 H   0  0  0  0  0  0  0  0  0  0  0  0
   11.2635   -1.7324    2.3838 H   0  0  0  0  0  0  0  0  0  0  0  0
   11.3619   -0.6075    3.7628 H   0  0  0  0  0  0  0  0  0  0  0  0
   11.3032    0.0099    2.0922 H   0  0  0  0  0  0  0  0  0  0  0  0
    9.2898   -0.0573    4.8766 H   0  0  0  0  0  0  0  0  0  0  0  0
    5.7934   -1.7737    5.5549 H   0  0  0  0  0  0  0  0  0  0  0  0
    5.5236   -0.6115    6.8746 H   0  0  0  0  0  0  0  0  0  0  0  0
    7.1211   -1.3934    6.6778 H   0  0  0  0  0  0  0  0  0  0  0  0
    8.1814    1.0691    6.4073 H   0  0  0  0  0  0  0  0  0  0  0  0
    6.5174    1.4590    6.8336 H   0  0  0  0  0  0  0  0  0  0  0  0
    7.9295    2.4037    4.2901 H   0  0  0  0  0  0  0  0  0  0  0  0
    5.1780    3.1999    5.4202 H   0  0  0  0  0  0  0  0  0  0  0  0
    5.4515    2.1736    3.9957 H   0  0  0  0  0  0  0  0  0  0  0  0
    5.9434    3.8810    3.9656 H   0  0  0  0  0  0  0  0  0  0  0  0
    8.8347    3.2997    6.4463 H   0  0  0  0  0  0  0  0  0  0  0  0
    7.2367    3.9091    6.8667 H   0  0  0  0  0  0  0  0  0  0  0  0
    8.8768    4.8082    4.4037 H   0  0  0  0  0  0  0  0  0  0  0  0
    8.7169    5.7122    5.9257 H   0  0  0  0  0  0  0  0  0  0  0  0
    7.3030    5.4796    4.8825 H   0  0  0  0  0  0  0  0  0  0  0  0
  1  2  1  0
  1 22  1  0
  1 23  1  0
  1 24  1  0
  2  3  1  0
  2 25  1  0
  2 26  1  0
  3  4  1  0
  3 27  1  0
  3 28  1  0
  4  5  1  0
  4 29  1  0
  5  6  1  0
  5  7  1  0
  5 30  1  1
  6 31  1  0
  6 32  1  0
  6 33  1  0
  7  8  2  0
  7 14  1  0
  8  9  1  0
  8 34  1  0
  9 10  1  0
  9 11  2  0
 11 12  1  0
 11 13  1  0
 12 35  1  0
 12 36  1  0
 12 37  1  0
 13 14  2  0
 13 38  1  0
 14 15  1  0
 15 16  1  0
 15 17  1  0
 16 39  1  0
 16 40  1  0
 16 41  1  0
 17 18  1  0
 17 42  1  0
 17 43  1  0
 18 19  1  0
 18 20  1  0
 18 44  1  6
 19 45  1  0
 19 46  1  0
 19 47  1  0
 20 21  1  0
 20 48  1  0
 20 49  1  0
 21 50  1  0
 21 51  1  0
 21 52  1  0
M  END

