
     RDKit          3D

 38 39  0  0  0  0  0  0  0  0999 V2000
    1.3152    4.6410   -4.5036 C   0  0  0  0  0  0  0  0  0  0  0  0
    2.7293    4.1379   -4.2308 C   0  0  0  0  0  0  0  0  0  0  0  0
    3.0240    4.0182   -2.4249 S   0  0  0  0  0  0  0  0  0  0  0  0
    4.7618    3.4346   -2.4308 C   0  0  0  0  0  0  0  0  0  0  0  0
    5.3038    3.2382   -0.9964 C   0  0  1  0  0  0  0  0  0  0  0  0
    4.6679    2.0291   -0.3063 C   0  0  0  0  0  0  0  0  0  0  0  0
    6.7587    3.0977   -0.9562 N   0  0  0  0  0  0  0  0  0  0  0  0
    7.6151    4.2393   -1.2966 C   0  0  2  0  0  0  0  0  0  0  0  0
    9.0785    3.7775   -1.2111 C   0  0  0  0  0  0  0  0  0  0  0  0
    9.4501    3.5176    0.2416 C   0  0  0  0  0  0  0  0  0  0  0  0
    9.3138    4.6900    1.0422 O   0  0  0  0  0  0  0  0  0  0  0  0
    8.2904    5.5394    0.7788 C   0  0  0  0  0  0  0  0  0  0  0  0
    8.1408    6.6255    1.6567 C   0  0  0  0  0  0  0  0  0  0  0  0
    7.1512    7.5804    1.4440 C   0  0  0  0  0  0  0  0  0  0  0  0
    6.3082    7.4576    0.3345 C   0  0  0  0  0  0  0  0  0  0  0  0
    4.9576    8.7714    0.0191 Br  0  0  0  0  0  0  0  0  0  0  0  0
    6.4523    6.3859   -0.5460 C   0  0  0  0  0  0  0  0  0  0  0  0
    7.4328    5.4048   -0.3334 C   0  0  0  0  0  0  0  0  0  0  0  0
    1.1358    4.7117   -5.5885 H   0  0  0  0  0  0  0  0  0  0  0  0
    1.1560    5.6394   -4.0668 H   0  0  0  0  0  0  0  0  0  0  0  0
    0.5606    3.9605   -4.0784 H   0  0  0  0  0  0  0  0  0  0  0  0
    3.4764    4.8219   -4.6673 H   0  0  0  0  0  0  0  0  0  0  0  0
    2.8829    3.1435   -4.6825 H   0  0  0  0  0  0  0  0  0  0  0  0
    5.3697    4.1799   -2.9689 H   0  0  0  0  0  0  0  0  0  0  0  0
    4.8288    2.4830   -2.9887 H   0  0  0  0  0  0  0  0  0  0  0  0
    5.0499    4.1375   -0.4122 H   0  0  0  0  0  0  0  0  0  0  0  0
    4.9429    1.0947   -0.8268 H   0  0  0  0  0  0  0  0  0  0  0  0
    3.5702    2.1004   -0.3101 H   0  0  0  0  0  0  0  0  0  0  0  0
    5.0202    1.9549    0.7328 H   0  0  0  0  0  0  0  0  0  0  0  0
    7.0410    2.2862   -1.5075 H   0  0  0  0  0  0  0  0  0  0  0  0
    7.4255    4.6255   -2.3206 H   0  0  0  0  0  0  0  0  0  0  0  0
    9.7377    4.5509   -1.6382 H   0  0  0  0  0  0  0  0  0  0  0  0
    9.2317    2.8580   -1.8010 H   0  0  0  0  0  0  0  0  0  0  0  0
   10.5000    3.2071    0.3454 H   0  0  0  0  0  0  0  0  0  0  0  0
    8.8017    2.7254    0.6526 H   0  0  0  0  0  0  0  0  0  0  0  0
    8.8249    6.7035    2.5040 H   0  0  0  0  0  0  0  0  0  0  0  0
    7.0394    8.4206    2.1313 H   0  0  0  0  0  0  0  0  0  0  0  0
    5.7934    6.3109   -1.4137 H   0  0  0  0  0  0  0  0  0  0  0  0
  1  2  1  0
  1 19  1  0
  1 20  1  0
  1 21  1  0
  2  3  1  0
  2 22  1  0
  2 23  1  0
  3  4  1  0
  4  5  1  0
  4 24  1  0
  4 25  1  0
  5  6  1  0
  5  7  1  0
  5 26  1  1
  6 27  1  0
  6 28  1  0
  6 29  1  0
  7  8  1  0
  7 30  1  0
  8  9  1  0
  8 18  1  0
  8 31  1  6
  9 10  1  0
  9 32  1  0
  9 33  1  0
 10 11  1  0
 10 34  1  0
 10 35  1  0
 11 12  1  0
 12 13  1  0
 12 18  2  0
 13 14  2  0
 13 36  1  0
 14 15  1  0
 14 37  1  0
 15 16  1  0
 15 17  2  0
 17 18  1  0
 17 38  1  0
M  END

