
     RDKit          3D

 49 52  0  0  0  0  0  0  0  0999 V2000
    0.5425   -4.4462    4.4717 N   0  0  0  0  0  0  0  0  0  0  0  0
    1.6321   -4.5145    4.0767 C   0  0  0  0  0  0  0  0  0  0  0  0
    2.9835   -4.6064    3.6064 C   0  0  0  0  0  0  0  0  0  0  0  0
    3.8016   -5.6824    3.9975 C   0  0  0  0  0  0  0  0  0  0  0  0
    5.1238   -5.7581    3.5626 C   0  0  0  0  0  0  0  0  0  0  0  0
    5.6434   -4.7571    2.7355 C   0  0  0  0  0  0  0  0  0  0  0  0
    4.8418   -3.6855    2.3354 C   0  0  0  0  0  0  0  0  0  0  0  0
    3.5182   -3.6098    2.7637 C   0  0  0  0  0  0  0  0  0  0  0  0
    2.7783   -2.4990    2.4248 O   0  0  0  0  0  0  0  0  0  0  0  0
    1.7497   -2.6058    1.5417 C   0  0  0  0  0  0  0  0  0  0  0  0
    1.5471   -3.7446    0.8947 N   0  0  0  0  0  0  0  0  0  0  0  0
    0.5356   -3.7309    0.0271 C   0  0  0  0  0  0  0  0  0  0  0  0
   -0.2809   -2.7227   -0.2250 N   0  0  0  0  0  0  0  0  0  0  0  0
   -0.1138   -1.5518    0.4340 C   0  0  0  0  0  0  0  0  0  0  0  0
   -0.9879   -0.5384    0.1513 N   0  0  0  0  0  0  0  0  0  0  0  0
   -1.1896    0.6649    0.9644 C   0  0  0  0  0  0  0  0  0  0  0  0
   -1.1615    1.9223    0.0894 C   0  0  0  0  0  0  0  0  0  0  0  0
   -2.1511    1.8418   -1.0691 C   0  0  2  0  0  0  0  0  0  0  0  0
   -3.4642    1.9666   -0.4467 O   0  0  0  0  0  0  0  0  0  0  0  0
   -4.4716    2.2456   -1.3411 N   0  0  0  0  0  0  0  0  0  0  0  0
   -5.4630    1.3320   -1.4575 C   0  0  0  0  0  0  0  0  0  0  0  0
   -6.5789    1.6149   -2.1894 C   0  0  0  0  0  0  0  0  0  0  0  0
   -6.6295    2.9268   -2.7839 C   0  0  0  0  0  0  0  0  0  0  0  0
   -7.7005    3.2759   -3.5392 N   0  0  0  0  0  0  0  0  0  0  0  0
   -5.6761    3.8251   -2.6295 N   0  0  0  0  0  0  0  0  0  0  0  0
   -4.5596    3.5843   -1.8876 C   0  0  0  0  0  0  0  0  0  0  0  0
   -3.6525    4.3622   -1.6783 O   0  0  0  0  0  0  0  0  0  0  0  0
   -2.0132    0.5193   -1.8262 C   0  0  0  0  0  0  0  0  0  0  0  0
   -1.9984   -0.6989   -0.8960 C   0  0  0  0  0  0  0  0  0  0  0  0
    0.9707   -1.4674    1.3447 C   0  0  0  0  0  0  0  0  0  0  0  0
    1.2952   -0.3422    2.0083 F   0  0  0  0  0  0  0  0  0  0  0  0
    3.3847   -6.4525    4.6491 H   0  0  0  0  0  0  0  0  0  0  0  0
    5.7506   -6.5965    3.8734 H   0  0  0  0  0  0  0  0  0  0  0  0
    6.6806   -4.8101    2.3962 H   0  0  0  0  0  0  0  0  0  0  0  0
    5.2275   -2.8939    1.6908 H   0  0  0  0  0  0  0  0  0  0  0  0
    0.3602   -4.6563   -0.5345 H   0  0  0  0  0  0  0  0  0  0  0  0
   -0.4338    0.7288    1.7488 H   0  0  0  0  0  0  0  0  0  0  0  0
   -2.1751    0.5879    1.4602 H   0  0  0  0  0  0  0  0  0  0  0  0
   -0.1499    2.0543   -0.3282 H   0  0  0  0  0  0  0  0  0  0  0  0
   -1.3925    2.8127    0.6934 H   0  0  0  0  0  0  0  0  0  0  0  0
   -2.0217    2.7058   -1.7348 H   0  0  0  0  0  0  0  0  0  0  0  0
   -5.3011    0.3904   -0.9302 H   0  0  0  0  0  0  0  0  0  0  0  0
   -7.3814    0.8859   -2.2980 H   0  0  0  0  0  0  0  0  0  0  0  0
   -8.4906    2.6605   -3.6622 H   0  0  0  0  0  0  0  0  0  0  0  0
   -7.7327    4.2162   -3.9126 H   0  0  0  0  0  0  0  0  0  0  0  0
   -1.0706    0.5534   -2.3986 H   0  0  0  0  0  0  0  0  0  0  0  0
   -2.8232    0.4150   -2.5669 H   0  0  0  0  0  0  0  0  0  0  0  0
   -1.7834   -1.6202   -1.4465 H   0  0  0  0  0  0  0  0  0  0  0  0
   -2.9898   -0.8240   -0.4197 H   0  0  0  0  0  0  0  0  0  0  0  0
  1  2  3  0
  2  3  1  0
  3  4  2  0
  3  8  1  0
  4  5  1  0
  4 32  1  0
  5  6  2  0
  5 33  1  0
  6  7  1  0
  6 34  1  0
  7  8  2  0
  7 35  1  0
  8  9  1  0
  9 10  1  0
 10 11  2  0
 10 30  1  0
 11 12  1  0
 12 13  2  0
 12 36  1  0
 13 14  1  0
 14 15  1  0
 14 30  2  0
 15 16  1  0
 15 29  1  0
 16 17  1  0
 16 37  1  0
 16 38  1  0
 17 18  1  0
 17 39  1  0
 17 40  1  0
 18 19  1  0
 18 28  1  0
 18 41  1  6
 19 20  1  0
 20 21  1  0
 20 26  1  0
 21 22  2  0
 21 42  1  0
 22 23  1  0
 22 43  1  0
 23 24  1  0
 23 25  2  0
 24 44  1  0
 24 45  1  0
 25 26  1  0
 26 27  2  0
 28 29  1  0
 28 46  1  0
 28 47  1  0
 29 48  1  0
 29 49  1  0
 30 31  1  0
M  END

