
     RDKit          3D

 52 55  0  0  0  0  0  0  0  0999 V2000
    1.8737    0.8623    0.2198 C   0  0  0  0  0  0  0  0  0  0  0  0
    3.1065    0.1878    0.3071 O   0  0  0  0  0  0  0  0  0  0  0  0
    3.3829   -0.8225   -0.5574 C   0  0  0  0  0  0  0  0  0  0  0  0
    4.6269   -1.4477   -0.4101 C   0  0  0  0  0  0  0  0  0  0  0  0
    4.9772   -2.4918   -1.2653 C   0  0  0  0  0  0  0  0  0  0  0  0
    4.1283   -2.9524   -2.2796 C   0  0  0  0  0  0  0  0  0  0  0  0
    4.4723   -4.0995   -3.2153 C   0  0  2  0  0  0  0  0  0  0  0  0
    4.0791   -3.8262   -4.2093 H   0  0  0  0  0  0  0  0  0  0  0  0
    3.7642   -5.4107   -2.8077 C   0  0  0  0  0  0  0  0  0  0  0  0
    4.0166   -6.5564   -3.7782 C   0  0  0  0  0  0  0  0  0  0  0  0
    3.2047   -7.4479   -3.9506 O   0  0  0  0  0  0  0  0  0  0  0  0
    5.3192   -6.5344   -4.4867 C   0  0  0  0  0  0  0  0  0  0  0  0
    5.6841   -7.5614   -5.3797 C   0  0  0  0  0  0  0  0  0  0  0  0
    6.8369   -7.5806   -6.0198 N   0  0  0  0  0  0  0  0  0  0  0  0
    7.6767   -6.5416   -5.7769 C   0  0  0  0  0  0  0  0  0  0  0  0
    8.8525   -6.6214   -6.4658 N   0  0  0  0  0  0  0  0  0  0  0  0
    9.9867   -5.7960   -6.5225 C   0  0  0  0  0  0  0  0  0  0  0  0
   10.1492   -4.6099   -5.7880 C   0  0  0  0  0  0  0  0  0  0  0  0
   11.3251   -3.8665   -5.9230 C   0  0  0  0  0  0  0  0  0  0  0  0
   12.3680   -4.2581   -6.7727 C   0  0  0  0  0  0  0  0  0  0  0  0
   13.6328   -3.4462   -6.9090 C   0  0  0  0  0  0  0  0  0  0  0  0
   12.1904   -5.4474   -7.5004 C   0  0  0  0  0  0  0  0  0  0  0  0
   11.0282   -6.2022   -7.3813 C   0  0  0  0  0  0  0  0  0  0  0  0
    7.4305   -5.5092   -4.9577 N   0  0  0  0  0  0  0  0  0  0  0  0
    6.2604   -5.5014   -4.3152 C   0  0  0  0  0  0  0  0  0  0  0  0
    5.9779   -4.3564   -3.3758 C   0  0  0  0  0  0  0  0  0  0  0  0
    2.8765   -2.3080   -2.4099 C   0  0  0  0  0  0  0  0  0  0  0  0
    2.0698   -2.7783   -3.4015 O   0  0  0  0  0  0  0  0  0  0  0  0
    0.8111   -2.1878   -3.6307 C   0  0  0  0  0  0  0  0  0  0  0  0
    2.5023   -1.2528   -1.5635 C   0  0  0  0  0  0  0  0  0  0  0  0
    1.8765    1.6249    1.0104 H   0  0  0  0  0  0  0  0  0  0  0  0
    1.0176    0.1828    0.3851 H   0  0  0  0  0  0  0  0  0  0  0  0
    1.7446    1.3641   -0.7567 H   0  0  0  0  0  0  0  0  0  0  0  0
    5.3017   -1.1003    0.3737 H   0  0  0  0  0  0  0  0  0  0  0  0
    5.9553   -2.9579   -1.1313 H   0  0  0  0  0  0  0  0  0  0  0  0
    2.6776   -5.2756   -2.7225 H   0  0  0  0  0  0  0  0  0  0  0  0
    4.1295   -5.7310   -1.8131 H   0  0  0  0  0  0  0  0  0  0  0  0
    4.9844   -8.3867   -5.5540 H   0  0  0  0  0  0  0  0  0  0  0  0
    8.8836   -7.4540   -7.0455 H   0  0  0  0  0  0  0  0  0  0  0  0
    9.3547   -4.2839   -5.1220 H   0  0  0  0  0  0  0  0  0  0  0  0
   11.4281   -2.9461   -5.3405 H   0  0  0  0  0  0  0  0  0  0  0  0
   13.6069   -2.5494   -6.2723 H   0  0  0  0  0  0  0  0  0  0  0  0
   13.7893   -3.1136   -7.9493 H   0  0  0  0  0  0  0  0  0  0  0  0
   14.5224   -4.0333   -6.6239 H   0  0  0  0  0  0  0  0  0  0  0  0
   12.9789   -5.7916   -8.1764 H   0  0  0  0  0  0  0  0  0  0  0  0
   10.9190   -7.1236   -7.9616 H   0  0  0  0  0  0  0  0  0  0  0  0
    6.5101   -3.4628   -3.7348 H   0  0  0  0  0  0  0  0  0  0  0  0
    6.4318   -4.6170   -2.4014 H   0  0  0  0  0  0  0  0  0  0  0  0
    0.3616   -2.7284   -4.4743 H   0  0  0  0  0  0  0  0  0  0  0  0
    0.9008   -1.1193   -3.8976 H   0  0  0  0  0  0  0  0  0  0  0  0
    0.1466   -2.2817   -2.7531 H   0  0  0  0  0  0  0  0  0  0  0  0
    1.5346   -0.7740   -1.6879 H   0  0  0  0  0  0  0  0  0  0  0  0
  1  2  1  0
  1 31  1  0
  1 32  1  0
  1 33  1  0
  2  3  1  0
  3  4  2  0
  3 30  1  0
  4  5  1  0
  4 34  1  0
  5  6  2  0
  5 35  1  0
  6  7  1  0
  6 27  1  0
  7  8  1  6
  7  9  1  0
  7 26  1  0
  9 10  1  0
  9 36  1  0
  9 37  1  0
 10 11  2  0
 10 12  1  0
 12 13  2  0
 12 25  1  0
 13 14  1  0
 13 38  1  0
 14 15  2  0
 15 16  1  0
 15 24  1  0
 16 17  1  0
 16 39  1  0
 17 18  2  0
 17 23  1  0
 18 19  1  0
 18 40  1  0
 19 20  2  0
 19 41  1  0
 20 21  1  0
 20 22  1  0
 21 42  1  0
 21 43  1  0
 21 44  1  0
 22 23  2  0
 22 45  1  0
 23 46  1  0
 24 25  2  0
 25 26  1  0
 26 47  1  0
 26 48  1  0
 27 28  1  0
 27 30  2  0
 28 29  1  0
 29 49  1  0
 29 50  1  0
 29 51  1  0
 30 52  1  0
M  END

