
     RDKit          3D

 76 86  0  0  0  0  0  0  0  0999 V2000
   -4.4953   -0.0171    1.3083 C   0  0  0  0  0  0  0  0  0  0  0  0
   -4.3253   -1.3877    1.1272 C   0  0  0  0  0  0  0  0  0  0  0  0
   -3.0641   -1.9093    0.8104 C   0  0  0  0  0  0  0  0  0  0  0  0
   -1.9517   -1.0679    0.6700 C   0  0  0  0  0  0  0  0  0  0  0  0
   -2.1400    0.3192    0.8563 C   0  0  0  0  0  0  0  0  0  0  0  0
   -3.3924    0.8353    1.1702 C   0  0  0  0  0  0  0  0  0  0  0  0
   -1.1008    1.2101    0.7397 O   0  0  0  0  0  0  0  0  0  0  0  0
    0.1466    0.7447    0.4009 C   0  0  0  0  0  0  0  0  0  0  0  0
    1.1632    1.6832    0.2626 C   0  0  0  0  0  0  0  0  0  0  0  0
    2.4600    1.2775   -0.0780 C   0  0  0  0  0  0  0  0  0  0  0  0
    2.7211   -0.0761   -0.2780 C   0  0  0  0  0  0  0  0  0  0  0  0
    1.6976   -1.0229   -0.1396 C   0  0  0  0  0  0  0  0  0  0  0  0
    0.3959   -0.6310    0.2022 C   0  0  0  0  0  0  0  0  0  0  0  0
   -0.6641   -1.5464    0.3564 N   0  0  0  0  0  0  0  0  0  0  0  0
   -0.4492   -2.9422    0.1334 C   0  0  0  0  0  0  0  0  0  0  0  0
   -0.6124   -3.4873   -1.1536 C   0  0  0  0  0  0  0  0  0  0  0  0
   -0.4023   -4.8425   -1.3547 C   0  0  0  0  0  0  0  0  0  0  0  0
   -0.0266   -5.6846   -0.2888 C   0  0  0  0  0  0  0  0  0  0  0  0
    0.1426   -5.1475    1.0145 C   0  0  0  0  0  0  0  0  0  0  0  0
   -0.0781   -3.7650    1.1930 C   0  0  0  0  0  0  0  0  0  0  0  0
    0.5363   -6.0268    2.1303 C   0  0  0  0  0  0  0  0  0  0  0  0
    0.7171   -5.5369    3.4414 C   0  0  0  0  0  0  0  0  0  0  0  0
    1.0891   -6.3747    4.4889 C   0  0  0  0  0  0  0  0  0  0  0  0
    1.2624   -5.8389    5.8030 N   0  0  0  0  0  0  0  0  0  0  0  0
    2.5285   -5.3857    6.2237 C   0  0  0  0  0  0  0  0  0  0  0  0
    3.6576   -5.3994    5.3929 C   0  0  0  0  0  0  0  0  0  0  0  0
    4.8961   -4.9344    5.8542 C   0  0  0  0  0  0  0  0  0  0  0  0
    5.0265   -4.4488    7.1533 C   0  0  0  0  0  0  0  0  0  0  0  0
    3.9067   -4.4304    7.9946 C   0  0  0  0  0  0  0  0  0  0  0  0
    2.6767   -4.8910    7.5380 C   0  0  0  0  0  0  0  0  0  0  0  0
    1.6192   -4.8416    8.4135 O   0  0  0  0  0  0  0  0  0  0  0  0
    0.3933   -5.3139    8.0116 C   0  0  0  0  0  0  0  0  0  0  0  0
   -0.6427   -5.2727    8.9381 C   0  0  0  0  0  0  0  0  0  0  0  0
   -1.9194   -5.7352    8.5939 C   0  0  0  0  0  0  0  0  0  0  0  0
   -2.1408   -6.2380    7.3138 C   0  0  0  0  0  0  0  0  0  0  0  0
   -1.0978   -6.2805    6.3793 C   0  0  0  0  0  0  0  0  0  0  0  0
    0.1842   -5.8200    6.7100 C   0  0  0  0  0  0  0  0  0  0  0  0
    1.2936   -7.7464    4.2507 C   0  0  0  0  0  0  0  0  0  0  0  0
    1.1224   -8.2521    2.9716 C   0  0  0  0  0  0  0  0  0  0  0  0
    0.7461   -7.4126    1.9038 C   0  0  0  0  0  0  0  0  0  0  0  0
    0.5723   -7.9753    0.5602 C   0  0  0  0  0  0  0  0  0  0  0  0
    0.7722   -9.2709    0.3700 N   0  0  0  0  0  0  0  0  0  0  0  0
    0.6081   -9.7725   -0.8704 C   0  0  0  0  0  0  0  0  0  0  0  0
    0.8132  -11.1609   -1.1170 C   0  0  0  0  0  0  0  0  0  0  0  0
    0.6439  -11.6673   -2.3859 C   0  0  0  0  0  0  0  0  0  0  0  0
    0.2640  -10.8176   -3.4640 C   0  0  0  0  0  0  0  0  0  0  0  0
    0.0580   -9.4718   -3.2602 C   0  0  0  0  0  0  0  0  0  0  0  0
    0.2244   -8.9142   -1.9595 C   0  0  0  0  0  0  0  0  0  0  0  0
    0.0239   -7.5971   -1.7537 N   0  0  0  0  0  0  0  0  0  0  0  0
    0.1880   -7.1155   -0.5307 C   0  0  0  0  0  0  0  0  0  0  0  0
   -5.4753    0.3963    1.5560 H   0  0  0  0  0  0  0  0  0  0  0  0
   -5.1729   -2.0690    1.2309 H   0  0  0  0  0  0  0  0  0  0  0  0
   -2.9421   -2.9837    0.6715 H   0  0  0  0  0  0  0  0  0  0  0  0
   -3.4812    1.9153    1.3038 H   0  0  0  0  0  0  0  0  0  0  0  0
    0.9152    2.7336    0.4281 H   0  0  0  0  0  0  0  0  0  0  0  0
    3.2529    2.0209   -0.1836 H   0  0  0  0  0  0  0  0  0  0  0  0
    3.7258   -0.4124   -0.5442 H   0  0  0  0  0  0  0  0  0  0  0  0
    1.9131   -2.0798   -0.2980 H   0  0  0  0  0  0  0  0  0  0  0  0
   -0.9034   -2.8351   -1.9794 H   0  0  0  0  0  0  0  0  0  0  0  0
   -0.5221   -5.2917   -2.3410 H   0  0  0  0  0  0  0  0  0  0  0  0
    0.0370   -3.3022    2.1724 H   0  0  0  0  0  0  0  0  0  0  0  0
    0.5694   -4.4821    3.6697 H   0  0  0  0  0  0  0  0  0  0  0  0
    3.5666   -5.7769    4.3742 H   0  0  0  0  0  0  0  0  0  0  0  0
    5.7575   -4.9569    5.1827 H   0  0  0  0  0  0  0  0  0  0  0  0
    5.9886   -4.0843    7.5194 H   0  0  0  0  0  0  0  0  0  0  0  0
    3.9646   -4.0583    9.0195 H   0  0  0  0  0  0  0  0  0  0  0  0
   -0.4258   -4.8709    9.9299 H   0  0  0  0  0  0  0  0  0  0  0  0
   -2.7278   -5.6983    9.3271 H   0  0  0  0  0  0  0  0  0  0  0  0
   -3.1293   -6.6034    7.0261 H   0  0  0  0  0  0  0  0  0  0  0  0
   -1.2823   -6.6755    5.3800 H   0  0  0  0  0  0  0  0  0  0  0  0
    1.5853   -8.3969    5.0777 H   0  0  0  0  0  0  0  0  0  0  0  0
    1.2742   -9.3106    2.7583 H   0  0  0  0  0  0  0  0  0  0  0  0
    1.1039  -11.7913   -0.2743 H   0  0  0  0  0  0  0  0  0  0  0  0
    0.8013  -12.7322   -2.5743 H   0  0  0  0  0  0  0  0  0  0  0  0
    0.1361  -11.2447   -4.4618 H   0  0  0  0  0  0  0  0  0  0  0  0
   -0.2336   -8.7999   -4.0699 H   0  0  0  0  0  0  0  0  0  0  0  0
  1  2  2  0
  1  6  1  0
  1 51  1  0
  2  3  1  0
  2 52  1  0
  3  4  2  0
  3 53  1  0
  4  5  1  0
  4 14  1  0
  5  6  2  0
  5  7  1  0
  6 54  1  0
  7  8  1  0
  8  9  2  0
  8 13  1  0
  9 10  1  0
  9 55  1  0
 10 11  2  0
 10 56  1  0
 11 12  1  0
 11 57  1  0
 12 13  2  0
 12 58  1  0
 13 14  1  0
 14 15  1  0
 15 16  2  0
 15 20  1  0
 16 17  1  0
 16 59  1  0
 17 18  2  0
 17 60  1  0
 18 19  1  0
 18 50  1  0
 19 20  2  0
 19 21  1  0
 20 61  1  0
 21 22  2  0
 21 40  1  0
 22 23  1  0
 22 62  1  0
 23 24  1  0
 23 38  2  0
 24 25  1  0
 24 37  1  0
 25 26  2  0
 25 30  1  0
 26 27  1  0
 26 63  1  0
 27 28  2  0
 27 64  1  0
 28 29  1  0
 28 65  1  0
 29 30  2  0
 29 66  1  0
 30 31  1  0
 31 32  1  0
 32 33  2  0
 32 37  1  0
 33 34  1  0
 33 67  1  0
 34 35  2  0
 34 68  1  0
 35 36  1  0
 35 69  1  0
 36 37  2  0
 36 70  1  0
 38 39  1  0
 38 71  1  0
 39 40  2  0
 39 72  1  0
 40 41  1  0
 41 42  1  0
 41 50  2  0
 42 43  2  0
 43 44  1  0
 43 48  1  0
 44 45  2  0
 44 73  1  0
 45 46  1  0
 45 74  1  0
 46 47  2  0
 46 75  1  0
 47 48  1  0
 47 76  1  0
 48 49  2  0
 49 50  1  0
M  END

