
     RDKit          3D

 28 29  0  0  0  0  0  0  0  0999 V2000
    5.2133   -1.9659    0.9318 N   0  0  0  0  0  0  0  0  0  0  0  0
    4.4428   -0.9313    0.4320 C   0  0  0  0  0  0  0  0  0  0  0  0
    4.9240    0.3717    0.2535 C   0  0  0  0  0  0  0  0  0  0  0  0
    4.1512    1.4023   -0.3080 C   0  0  0  0  0  0  0  0  0  0  0  0
    4.8330    2.7486   -0.4218 C   0  0  0  0  0  0  0  0  0  0  0  0
    5.9728    2.9030    0.0003 O   0  0  0  0  0  0  0  0  0  0  0  0
    4.1402    3.7546   -1.0247 N   0  0  0  0  0  0  0  0  0  0  0  0
    4.6976    5.0976   -1.1159 C   0  0  0  0  0  0  0  0  0  0  0  0
    4.4033    5.9761    0.0748 C   0  0  0  0  0  0  0  0  0  0  0  0
    5.0602    6.0071    1.2832 C   0  0  0  0  0  0  0  0  0  0  0  0
    4.4832    6.9254    2.2121 C   0  0  0  0  0  0  0  0  0  0  0  0
    3.3909    7.5813    1.7017 C   0  0  0  0  0  0  0  0  0  0  0  0
    3.0567    7.0832    0.0793 S   0  0  0  0  0  0  0  0  0  0  0  0
    2.8430    1.0880   -0.6974 C   0  0  0  0  0  0  0  0  0  0  0  0
    2.0284    2.0247   -1.2451 F   0  0  0  0  0  0  0  0  0  0  0  0
    2.3143   -0.1898   -0.5343 C   0  0  0  0  0  0  0  0  0  0  0  0
    3.1164   -1.1732    0.0224 C   0  0  0  0  0  0  0  0  0  0  0  0
    2.6228   -2.4130    0.2006 F   0  0  0  0  0  0  0  0  0  0  0  0
    6.0140   -1.7039    1.4937 H   0  0  0  0  0  0  0  0  0  0  0  0
    4.7055   -2.7696    1.2822 H   0  0  0  0  0  0  0  0  0  0  0  0
    5.9413    0.6336    0.5516 H   0  0  0  0  0  0  0  0  0  0  0  0
    3.1680    3.6069   -1.2649 H   0  0  0  0  0  0  0  0  0  0  0  0
    4.3227    5.5640   -2.0400 H   0  0  0  0  0  0  0  0  0  0  0  0
    5.7866    4.9886   -1.2111 H   0  0  0  0  0  0  0  0  0  0  0  0
    5.9249    5.3743    1.4889 H   0  0  0  0  0  0  0  0  0  0  0  0
    4.8670    7.0967    3.2193 H   0  0  0  0  0  0  0  0  0  0  0  0
    2.7703    8.3360    2.1828 H   0  0  0  0  0  0  0  0  0  0  0  0
    1.2902   -0.4125   -0.8354 H   0  0  0  0  0  0  0  0  0  0  0  0
  1  2  1  0
  1 19  1  0
  1 20  1  0
  2  3  2  0
  2 17  1  0
  3  4  1  0
  3 21  1  0
  4  5  1  0
  4 14  2  0
  5  6  2  0
  5  7  1  0
  7  8  1  0
  7 22  1  0
  8  9  1  0
  8 23  1  0
  8 24  1  0
  9 10  2  0
  9 13  1  0
 10 11  1  0
 10 25  1  0
 11 12  2  0
 11 26  1  0
 12 13  1  0
 12 27  1  0
 14 15  1  0
 14 16  1  0
 16 17  2  0
 16 28  1  0
 17 18  1  0
M  END

