
     RDKit          3D

 71 76  0  0  0  0  0  0  0  0999 V2000
    2.3359    1.5607    4.4929 O   0  0  0  0  0  0  0  0  0  0  0  0
    3.1978    2.2087    3.9598 C   0  0  0  0  0  0  0  0  0  0  0  0
    3.2648    3.5561    4.1436 O   0  0  0  0  0  0  0  0  0  0  0  0
    4.2471    1.6209    3.0909 C   0  0  0  0  0  0  0  0  0  0  0  0
    4.3071    0.2377    2.5304 C   0  0  0  0  0  0  0  0  0  0  0  0
    4.6828    0.2402    1.2174 C   0  0  0  0  0  0  0  0  0  0  0  0
    6.1596    0.3819    1.1768 C   0  0  0  0  0  0  0  0  0  0  0  0
    7.2901    0.1052    0.3683 C   0  0  0  0  0  0  0  0  0  0  0  0
    7.4013   -0.9139   -0.7591 C   0  0  1  0  0  0  0  0  0  0  0  0
    8.5506   -1.9374   -0.5667 C   0  0  0  0  0  0  0  0  0  0  0  0
    8.2203   -3.0193    0.4669 C   0  0  0  0  0  0  0  0  0  0  0  0
    6.9331   -3.7685    0.1054 C   0  0  0  0  0  0  0  0  0  0  0  0
    5.7612   -2.7952   -0.0617 C   0  0  0  0  0  0  0  0  0  0  0  0
    6.0870   -1.6735   -1.0592 C   0  0  0  0  0  0  0  0  0  0  0  0
    8.3088    0.9713    0.8323 C   0  0  0  0  0  0  0  0  0  0  0  0
    7.8024    1.7706    1.8425 N   0  0  0  0  0  0  0  0  0  0  0  0
    6.4942    1.4348    2.0849 C   0  0  0  0  0  0  0  0  0  0  0  0
    5.5250    2.1286    2.9320 C   0  0  0  0  0  0  0  0  0  0  0  0
    8.5961    2.7862    2.5097 C   0  0  0  0  0  0  0  0  0  0  0  0
    9.6730    2.1423    3.3843 C   0  0  0  0  0  0  0  0  0  0  0  0
    9.6815    2.3086    4.5907 O   0  0  0  0  0  0  0  0  0  0  0  0
   10.5930    1.3505    2.7325 N   0  0  0  0  0  0  0  0  0  0  0  0
   11.5792    0.6620    3.5879 C   0  0  0  0  0  0  0  0  0  0  0  0
   10.9784   -0.4147    4.5045 C   0  0  0  0  0  0  0  0  0  0  0  0
   10.3372   -1.5037    3.7873 N   0  0  0  0  0  0  0  0  0  0  0  0
   11.2425   -2.5341    3.2775 C   0  0  0  0  0  0  0  0  0  0  0  0
   11.6935   -3.5475    4.3457 C   0  0  0  0  0  0  0  0  0  0  0  0
   10.4798   -4.1711    5.0490 C   0  0  0  0  0  0  0  0  0  0  0  0
    9.5378   -3.0805    5.5775 C   0  0  0  0  0  0  0  0  0  0  0  0
    9.1760   -2.0941    4.4538 C   0  0  0  0  0  0  0  0  0  0  0  0
   10.7707    1.3691    1.3148 C   0  0  0  0  0  0  0  0  0  0  0  0
   12.0683    1.5877    0.8140 C   0  0  0  0  0  0  0  0  0  0  0  0
   12.3317    1.5940   -0.5529 C   0  0  0  0  0  0  0  0  0  0  0  0
   11.2845    1.4068   -1.4601 C   0  0  0  0  0  0  0  0  0  0  0  0
    9.9930    1.2158   -0.9810 C   0  0  0  0  0  0  0  0  0  0  0  0
    9.6998    1.1775    0.3990 C   0  0  0  0  0  0  0  0  0  0  0  0
    3.8853    3.9393    3.5080 H   0  0  0  0  0  0  0  0  0  0  0  0
    4.9227   -0.4136    3.1736 H   0  0  0  0  0  0  0  0  0  0  0  0
    4.1467    0.9101    0.5245 H   0  0  0  0  0  0  0  0  0  0  0  0
    7.6335   -0.3408   -1.6736 H   0  0  0  0  0  0  0  0  0  0  0  0
    9.4847   -1.4252   -0.2943 H   0  0  0  0  0  0  0  0  0  0  0  0
    8.7362   -2.4209   -1.5432 H   0  0  0  0  0  0  0  0  0  0  0  0
    8.1111   -2.5497    1.4602 H   0  0  0  0  0  0  0  0  0  0  0  0
    9.0659   -3.7236    0.5476 H   0  0  0  0  0  0  0  0  0  0  0  0
    6.6963   -4.5242    0.8734 H   0  0  0  0  0  0  0  0  0  0  0  0
    7.0905   -4.3237   -0.8386 H   0  0  0  0  0  0  0  0  0  0  0  0
    5.5059   -2.3604    0.9183 H   0  0  0  0  0  0  0  0  0  0  0  0
    4.8590   -3.3328   -0.3996 H   0  0  0  0  0  0  0  0  0  0  0  0
    5.2437   -0.9689   -1.1296 H   0  0  0  0  0  0  0  0  0  0  0  0
    6.1953   -2.1207   -2.0636 H   0  0  0  0  0  0  0  0  0  0  0  0
    5.8425    3.0248    3.4768 H   0  0  0  0  0  0  0  0  0  0  0  0
    7.9613    3.3735    3.1795 H   0  0  0  0  0  0  0  0  0  0  0  0
    9.0440    3.4609    1.7617 H   0  0  0  0  0  0  0  0  0  0  0  0
   12.0932    1.4045    4.2202 H   0  0  0  0  0  0  0  0  0  0  0  0
   12.3251    0.2063    2.9263 H   0  0  0  0  0  0  0  0  0  0  0  0
   10.2397    0.0668    5.1580 H   0  0  0  0  0  0  0  0  0  0  0  0
   11.8058   -0.7451    5.1707 H   0  0  0  0  0  0  0  0  0  0  0  0
   12.1159   -2.0520    2.8085 H   0  0  0  0  0  0  0  0  0  0  0  0
   10.7210   -3.0766    2.4678 H   0  0  0  0  0  0  0  0  0  0  0  0
   12.3329   -3.0430    5.0926 H   0  0  0  0  0  0  0  0  0  0  0  0
   12.3196   -4.3268    3.8781 H   0  0  0  0  0  0  0  0  0  0  0  0
   10.8028   -4.8401    5.8642 H   0  0  0  0  0  0  0  0  0  0  0  0
    9.9294   -4.8039    4.3273 H   0  0  0  0  0  0  0  0  0  0  0  0
   10.0255   -2.5352    6.4059 H   0  0  0  0  0  0  0  0  0  0  0  0
    8.6185   -3.5260    5.9948 H   0  0  0  0  0  0  0  0  0  0  0  0
    8.5348   -1.2828    4.8329 H   0  0  0  0  0  0  0  0  0  0  0  0
    8.5831   -2.6309    3.6901 H   0  0  0  0  0  0  0  0  0  0  0  0
   12.8838    1.7679    1.5161 H   0  0  0  0  0  0  0  0  0  0  0  0
   13.3509    1.7650   -0.9074 H   0  0  0  0  0  0  0  0  0  0  0  0
   11.4711    1.4259   -2.5362 H   0  0  0  0  0  0  0  0  0  0  0  0
    9.1715    1.1006   -1.6887 H   0  0  0  0  0  0  0  0  0  0  0  0
  1  2  2  0
  2  3  1  0
  2  4  1  0
  3 37  1  0
  4  5  2  0
  4 18  1  0
  5  6  1  0
  5 38  1  0
  6  7  2  0
  6 39  1  0
  7  8  1  0
  7 17  1  0
  8  9  1  0
  8 15  2  0
  9 10  1  0
  9 14  1  0
  9 40  1  6
 10 11  1  0
 10 41  1  0
 10 42  1  0
 11 12  1  0
 11 43  1  0
 11 44  1  0
 12 13  1  0
 12 45  1  0
 12 46  1  0
 13 14  1  0
 13 47  1  0
 13 48  1  0
 14 49  1  0
 14 50  1  0
 15 16  1  0
 15 36  1  0
 16 17  1  0
 16 19  1  0
 17 18  2  0
 18 51  1  0
 19 20  1  0
 19 52  1  0
 19 53  1  0
 20 21  2  0
 20 22  1  0
 22 23  1  0
 22 31  1  0
 23 24  1  0
 23 54  1  0
 23 55  1  0
 24 25  1  0
 24 56  1  0
 24 57  1  0
 25 26  1  0
 25 30  1  0
 26 27  1  0
 26 58  1  0
 26 59  1  0
 27 28  1  0
 27 60  1  0
 27 61  1  0
 28 29  1  0
 28 62  1  0
 28 63  1  0
 29 30  1  0
 29 64  1  0
 29 65  1  0
 30 66  1  0
 30 67  1  0
 31 32  1  0
 31 36  2  0
 32 33  2  0
 32 68  1  0
 33 34  1  0
 33 69  1  0
 34 35  2  0
 34 70  1  0
 35 36  1  0
 35 71  1  0
M  END

