
     RDKit          3D

 73 77  0  0  0  0  0  0  0  0999 V2000
    2.7512   -1.9542   -5.3064 C   0  0  0  0  0  0  0  0  0  0  0  0
    2.5253   -2.7841   -4.0542 C   0  0  0  0  0  0  0  0  0  0  0  0
    3.2118   -2.2246   -2.9163 O   0  0  0  0  0  0  0  0  0  0  0  0
    4.4912   -2.5847   -2.7241 C   0  0  0  0  0  0  0  0  0  0  0  0
    5.1122   -3.3309   -3.4359 O   0  0  0  0  0  0  0  0  0  0  0  0
    5.0247   -1.9357   -1.4519 C   0  0  0  0  0  0  0  0  0  0  0  0
    6.4514   -2.0677   -1.2980 N   0  0  0  0  0  0  0  0  0  0  0  0
    6.9494   -3.0129   -0.3347 C   0  0  0  0  0  0  0  0  0  0  0  0
    6.2183   -3.5553    0.4814 O   0  0  0  0  0  0  0  0  0  0  0  0
    8.3630   -3.1239   -0.6481 C   0  0  0  0  0  0  0  0  0  0  0  0
    9.5655   -3.6511   -0.1759 C   0  0  0  0  0  0  0  0  0  0  0  0
    9.7759   -4.4953    0.9917 C   0  0  0  0  0  0  0  0  0  0  0  0
   11.0178   -4.6786    1.6382 C   0  0  0  0  0  0  0  0  0  0  0  0
   11.1521   -5.4847    2.7620 C   0  0  0  0  0  0  0  0  0  0  0  0
   10.0484   -6.1785    3.3167 C   0  0  0  0  0  0  0  0  0  0  0  0
   10.1810   -7.0274    4.4080 N   0  0  0  0  0  0  0  0  0  0  0  0
    9.1021   -7.1529    5.3908 C   0  0  0  0  0  0  0  0  0  0  0  0
    9.0642   -8.5411    6.0319 C   0  0  0  0  0  0  0  0  0  0  0  0
   10.4214   -8.8953    6.6443 C   0  0  0  0  0  0  0  0  0  0  0  0
   11.5214   -8.7403    5.5923 C   0  0  0  0  0  0  0  0  0  0  0  0
   11.5014   -7.3533    4.9383 C   0  0  0  0  0  0  0  0  0  0  0  0
    8.7952   -5.9729    2.6816 C   0  0  0  0  0  0  0  0  0  0  0  0
    8.6646   -5.1620    1.5680 C   0  0  0  0  0  0  0  0  0  0  0  0
   10.5720   -3.1962   -1.0408 N   0  0  0  0  0  0  0  0  0  0  0  0
   11.9474   -3.6190   -1.1572 C   0  0  0  0  0  0  0  0  0  0  0  0
   12.1839   -5.1087   -1.3744 C   0  0  0  0  0  0  0  0  0  0  0  0
   13.2073   -5.6630   -1.0564 O   0  0  0  0  0  0  0  0  0  0  0  0
   11.1527   -5.6952   -1.9932 O   0  0  0  0  0  0  0  0  0  0  0  0
   11.2595   -7.1014   -2.2919 C   0  0  0  0  0  0  0  0  0  0  0  0
   11.9465   -7.3361   -3.6263 C   0  0  0  0  0  0  0  0  0  0  0  0
   10.0371   -2.3737   -2.0921 C   0  0  0  0  0  0  0  0  0  0  0  0
   10.7247   -1.9265   -2.9932 O   0  0  0  0  0  0  0  0  0  0  0  0
    8.6168   -2.3111   -1.7979 C   0  0  0  0  0  0  0  0  0  0  0  0
    7.4581   -1.6592   -2.1786 C   0  0  0  0  0  0  0  0  0  0  0  0
    7.2818   -0.6724   -3.2490 C   0  0  0  0  0  0  0  0  0  0  0  0
    8.0718   -0.7748   -4.4138 C   0  0  0  0  0  0  0  0  0  0  0  0
    7.9460    0.1592   -5.4407 C   0  0  0  0  0  0  0  0  0  0  0  0
    7.0413    1.2204   -5.3277 C   0  0  0  0  0  0  0  0  0  0  0  0
    6.2706    1.3484   -4.1684 C   0  0  0  0  0  0  0  0  0  0  0  0
    6.3885    0.4139   -3.1388 C   0  0  0  0  0  0  0  0  0  0  0  0
    2.1547   -2.3628   -6.1379 H   0  0  0  0  0  0  0  0  0  0  0  0
    3.8103   -1.9733   -5.6027 H   0  0  0  0  0  0  0  0  0  0  0  0
    2.4475   -0.9080   -5.1462 H   0  0  0  0  0  0  0  0  0  0  0  0
    2.8663   -3.8197   -4.2003 H   0  0  0  0  0  0  0  0  0  0  0  0
    1.4648   -2.7919   -3.7635 H   0  0  0  0  0  0  0  0  0  0  0  0
    4.5826   -2.4706   -0.5946 H   0  0  0  0  0  0  0  0  0  0  0  0
    4.6676   -0.8986   -1.3967 H   0  0  0  0  0  0  0  0  0  0  0  0
   11.9089   -4.1570    1.2979 H   0  0  0  0  0  0  0  0  0  0  0  0
   12.1353   -5.5489    3.2255 H   0  0  0  0  0  0  0  0  0  0  0  0
    8.1402   -6.9328    4.9162 H   0  0  0  0  0  0  0  0  0  0  0  0
    9.2422   -6.3887    6.1864 H   0  0  0  0  0  0  0  0  0  0  0  0
    8.7964   -9.2855    5.2618 H   0  0  0  0  0  0  0  0  0  0  0  0
    8.2684   -8.5626    6.7949 H   0  0  0  0  0  0  0  0  0  0  0  0
   10.4137   -9.9199    7.0506 H   0  0  0  0  0  0  0  0  0  0  0  0
   10.6261   -8.2203    7.4960 H   0  0  0  0  0  0  0  0  0  0  0  0
   11.3857   -9.5017    4.8045 H   0  0  0  0  0  0  0  0  0  0  0  0
   12.5175   -8.9090    6.0340 H   0  0  0  0  0  0  0  0  0  0  0  0
   12.2289   -7.3415    4.1169 H   0  0  0  0  0  0  0  0  0  0  0  0
   11.8293   -6.5870    5.6748 H   0  0  0  0  0  0  0  0  0  0  0  0
    7.9026   -6.4790    3.0493 H   0  0  0  0  0  0  0  0  0  0  0  0
    7.6730   -5.0302    1.1334 H   0  0  0  0  0  0  0  0  0  0  0  0
   12.5801   -3.2946   -0.3201 H   0  0  0  0  0  0  0  0  0  0  0  0
   12.3243   -3.1001   -2.0563 H   0  0  0  0  0  0  0  0  0  0  0  0
   10.2209   -7.4609   -2.3057 H   0  0  0  0  0  0  0  0  0  0  0  0
   11.8026   -7.5961   -1.4732 H   0  0  0  0  0  0  0  0  0  0  0  0
   11.4272   -6.7999   -4.4356 H   0  0  0  0  0  0  0  0  0  0  0  0
   11.9399   -8.4117   -3.8656 H   0  0  0  0  0  0  0  0  0  0  0  0
   12.9935   -7.0002   -3.5923 H   0  0  0  0  0  0  0  0  0  0  0  0
    8.7947   -1.5859   -4.5015 H   0  0  0  0  0  0  0  0  0  0  0  0
    8.5635    0.0587   -6.3367 H   0  0  0  0  0  0  0  0  0  0  0  0
    6.9457    1.9513   -6.1347 H   0  0  0  0  0  0  0  0  0  0  0  0
    5.5795    2.1880   -4.0583 H   0  0  0  0  0  0  0  0  0  0  0  0
    5.8105    0.5580   -2.2260 H   0  0  0  0  0  0  0  0  0  0  0  0
  1  2  1  0
  1 41  1  0
  1 42  1  0
  1 43  1  0
  2  3  1  0
  2 44  1  0
  2 45  1  0
  3  4  1  0
  4  5  2  0
  4  6  1  0
  6  7  1  0
  6 46  1  0
  6 47  1  0
  7  8  1  0
  7 34  1  0
  8  9  2  0
  8 10  1  0
 10 11  2  0
 10 33  1  0
 11 12  1  0
 11 24  1  0
 12 13  2  0
 12 23  1  0
 13 14  1  0
 13 48  1  0
 14 15  2  0
 14 49  1  0
 15 16  1  0
 15 22  1  0
 16 17  1  0
 16 21  1  0
 17 18  1  0
 17 50  1  0
 17 51  1  0
 18 19  1  0
 18 52  1  0
 18 53  1  0
 19 20  1  0
 19 54  1  0
 19 55  1  0
 20 21  1  0
 20 56  1  0
 20 57  1  0
 21 58  1  0
 21 59  1  0
 22 23  2  0
 22 60  1  0
 23 61  1  0
 24 25  1  0
 24 31  1  0
 25 26  1  0
 25 62  1  0
 25 63  1  0
 26 27  2  0
 26 28  1  0
 28 29  1  0
 29 30  1  0
 29 64  1  0
 29 65  1  0
 30 66  1  0
 30 67  1  0
 30 68  1  0
 31 32  2  0
 31 33  1  0
 33 34  2  0
 34 35  1  0
 35 36  2  0
 35 40  1  0
 36 37  1  0
 36 69  1  0
 37 38  2  0
 37 70  1  0
 38 39  1  0
 38 71  1  0
 39 40  2  0
 39 72  1  0
 40 73  1  0
M  END

