
     RDKit          3D

 39 41  0  0  0  0  0  0  0  0999 V2000
    1.0659   -1.1180    0.3578 C   0  0  0  0  0  0  0  0  0  0  0  0
    2.5779   -1.3350    0.3319 C   0  0  0  0  0  0  0  0  0  0  0  0
    3.3176   -0.5382    1.4080 C   0  0  1  0  0  0  0  0  0  0  0  0
    2.8370   -0.9595    2.6714 O   0  0  0  0  0  0  0  0  0  0  0  0
    3.1377   -0.1002    3.7437 C   0  0  0  0  0  0  0  0  0  0  0  0
    4.8141   -0.7282    1.3092 C   0  0  0  0  0  0  0  0  0  0  0  0
    5.6324    0.2942    1.2831 N   0  0  0  0  0  0  0  0  0  0  0  0
    6.8929   -0.3085    1.2119 O   0  0  0  0  0  0  0  0  0  0  0  0
    6.6981   -1.6545    1.2062 C   0  0  0  0  0  0  0  0  0  0  0  0
    7.8468   -2.5191    1.1299 C   0  0  0  0  0  0  0  0  0  0  0  0
    9.1590   -2.0392    1.0316 C   0  0  0  0  0  0  0  0  0  0  0  0
    9.5968   -0.7519    1.0486 N   0  0  0  0  0  0  0  0  0  0  0  0
   10.3026   -3.3524    0.9207 S   0  0  0  0  0  0  0  0  0  0  0  0
    9.0179   -4.5565    1.0054 C   0  0  0  0  0  0  0  0  0  0  0  0
    7.7892   -3.9743    1.1243 C   0  0  0  0  0  0  0  0  0  0  0  0
    6.5344   -4.8092    1.2193 C   0  0  0  0  0  0  0  0  0  0  0  0
    6.8500   -6.2830    1.5147 C   0  0  0  0  0  0  0  0  0  0  0  0
    8.0115   -6.8059    0.6619 C   0  0  0  0  0  0  0  0  0  0  0  0
    9.3066   -6.0304    0.9537 C   0  0  0  0  0  0  0  0  0  0  0  0
    5.4226   -1.9531    1.2649 N   0  0  0  0  0  0  0  0  0  0  0  0
    0.5670   -1.7247   -0.4142 H   0  0  0  0  0  0  0  0  0  0  0  0
    0.8069   -0.0619    0.1720 H   0  0  0  0  0  0  0  0  0  0  0  0
    0.6514   -1.3984    1.3370 H   0  0  0  0  0  0  0  0  0  0  0  0
    2.9931   -1.0511   -0.6500 H   0  0  0  0  0  0  0  0  0  0  0  0
    2.8211   -2.3994    0.4808 H   0  0  0  0  0  0  0  0  0  0  0  0
    3.1238    0.5450    1.2727 H   0  0  0  0  0  0  0  0  0  0  0  0
    2.7055   -0.5459    4.6515 H   0  0  0  0  0  0  0  0  0  0  0  0
    2.6983    0.9070    3.5985 H   0  0  0  0  0  0  0  0  0  0  0  0
    4.2265    0.0251    3.8955 H   0  0  0  0  0  0  0  0  0  0  0  0
    8.9053   -0.0120    1.0054 H   0  0  0  0  0  0  0  0  0  0  0  0
   10.5449   -0.5387    0.7709 H   0  0  0  0  0  0  0  0  0  0  0  0
    5.9696   -4.7178    0.2734 H   0  0  0  0  0  0  0  0  0  0  0  0
    5.8623   -4.3914    1.9831 H   0  0  0  0  0  0  0  0  0  0  0  0
    5.9477   -6.8939    1.3498 H   0  0  0  0  0  0  0  0  0  0  0  0
    7.1109   -6.3944    2.5828 H   0  0  0  0  0  0  0  0  0  0  0  0
    7.7561   -6.6982   -0.4073 H   0  0  0  0  0  0  0  0  0  0  0  0
    8.1743   -7.8809    0.8421 H   0  0  0  0  0  0  0  0  0  0  0  0
   10.0674   -6.2532    0.1856 H   0  0  0  0  0  0  0  0  0  0  0  0
    9.7383   -6.3702    1.9148 H   0  0  0  0  0  0  0  0  0  0  0  0
  1  2  1  0
  1 21  1  0
  1 22  1  0
  1 23  1  0
  2  3  1  0
  2 24  1  0
  2 25  1  0
  3  4  1  0
  3  6  1  0
  3 26  1  6
  4  5  1  0
  5 27  1  0
  5 28  1  0
  5 29  1  0
  6  7  2  0
  6 20  1  0
  7  8  1  0
  8  9  1  0
  9 10  1  0
  9 20  2  0
 10 11  2  0
 10 15  1  0
 11 12  1  0
 11 13  1  0
 12 30  1  0
 12 31  1  0
 13 14  1  0
 14 15  2  0
 14 19  1  0
 15 16  1  0
 16 17  1  0
 16 32  1  0
 16 33  1  0
 17 18  1  0
 17 34  1  0
 17 35  1  0
 18 19  1  0
 18 36  1  0
 18 37  1  0
 19 38  1  0
 19 39  1  0
M  END

