
     RDKit          3D

 56 57  0  0  0  0  0  0  0  0999 V2000
    4.3204   -0.9719    1.9898 C   0  0  0  0  0  0  0  0  0  0  0  0
    4.6658   -2.3320    1.3719 C   0  0  1  0  0  0  0  0  0  0  0  0
    5.9410   -2.1934    0.5155 C   0  0  0  0  0  0  0  0  0  0  0  0
    4.8733   -3.4281    2.4469 C   0  0  0  0  0  0  0  0  0  0  0  0
    4.7166   -4.7737    1.7064 C   0  0  0  0  0  0  0  0  0  0  0  0
    3.8314   -4.4661    0.4674 C   0  0  0  0  0  0  0  0  0  0  0  0
    3.4835   -2.9557    0.5422 C   0  0  1  0  0  0  0  0  0  0  0  0
    2.2339   -2.7705    1.2287 O   0  0  0  0  0  0  0  0  0  0  0  0
    3.2427   -2.3006   -0.8231 C   0  0  0  0  0  0  0  0  0  0  0  0
    2.0940   -2.8746   -1.5013 N   0  0  0  0  0  0  0  0  0  0  0  0
    2.2312   -3.7281   -2.5601 C   0  0  0  0  0  0  0  0  0  0  0  0
    3.3190   -3.9094   -3.1250 O   0  0  0  0  0  0  0  0  0  0  0  0
    1.0871   -4.3680   -2.9563 N   0  0  0  0  0  0  0  0  0  0  0  0
    1.0242   -5.2021   -4.1595 C   0  0  1  0  0  0  0  0  0  0  0  0
    1.9850   -6.4200   -4.0787 C   0  0  0  0  0  0  0  0  0  0  0  0
    3.2487   -6.3376   -4.9730 C   0  0  0  0  0  0  0  0  0  0  0  0
    4.5058   -6.8316   -4.2585 C   0  0  0  0  0  0  0  0  0  0  0  0
    5.0802   -7.8521   -4.5422 O   0  0  0  0  0  0  0  0  0  0  0  0
    4.9246   -6.0445   -3.2557 O   0  0  0  0  0  0  0  0  0  0  0  0
   -0.4387   -5.6601   -4.3550 C   0  0  0  0  0  0  0  0  0  0  0  0
   -1.4539   -4.5392   -4.4271 C   0  0  0  0  0  0  0  0  0  0  0  0
   -1.5190   -3.6989   -5.5527 C   0  0  0  0  0  0  0  0  0  0  0  0
   -2.4366   -2.6486   -5.6126 C   0  0  0  0  0  0  0  0  0  0  0  0
   -3.3114   -2.4152   -4.5453 C   0  0  0  0  0  0  0  0  0  0  0  0
   -3.2625   -3.2430   -3.4218 C   0  0  0  0  0  0  0  0  0  0  0  0
   -2.3416   -4.2959   -3.3660 C   0  0  0  0  0  0  0  0  0  0  0  0
    5.1303   -0.6380    2.6588 H   0  0  0  0  0  0  0  0  0  0  0  0
    3.3886   -1.0190    2.5704 H   0  0  0  0  0  0  0  0  0  0  0  0
    4.1929   -0.1959    1.2174 H   0  0  0  0  0  0  0  0  0  0  0  0
    6.7895   -1.8990    1.1540 H   0  0  0  0  0  0  0  0  0  0  0  0
    5.8309   -1.4157   -0.2560 H   0  0  0  0  0  0  0  0  0  0  0  0
    6.2203   -3.1293    0.0078 H   0  0  0  0  0  0  0  0  0  0  0  0
    4.0994   -3.3232    3.2288 H   0  0  0  0  0  0  0  0  0  0  0  0
    5.8417   -3.3269    2.9620 H   0  0  0  0  0  0  0  0  0  0  0  0
    4.2794   -5.5490    2.3542 H   0  0  0  0  0  0  0  0  0  0  0  0
    5.6969   -5.1595    1.3889 H   0  0  0  0  0  0  0  0  0  0  0  0
    2.9012   -5.0541    0.4492 H   0  0  0  0  0  0  0  0  0  0  0  0
    4.3613   -4.7022   -0.4668 H   0  0  0  0  0  0  0  0  0  0  0  0
    2.2405   -3.2911    2.0417 H   0  0  0  0  0  0  0  0  0  0  0  0
    4.1079   -2.4290   -1.4822 H   0  0  0  0  0  0  0  0  0  0  0  0
    3.0744   -1.2207   -0.6767 H   0  0  0  0  0  0  0  0  0  0  0  0
    1.2510   -2.9234   -0.9388 H   0  0  0  0  0  0  0  0  0  0  0  0
    0.2050   -3.9750   -2.6425 H   0  0  0  0  0  0  0  0  0  0  0  0
    1.3094   -4.5898   -5.0356 H   0  0  0  0  0  0  0  0  0  0  0  0
    1.4296   -7.3337   -4.3437 H   0  0  0  0  0  0  0  0  0  0  0  0
    2.2695   -6.5481   -3.0235 H   0  0  0  0  0  0  0  0  0  0  0  0
    3.4189   -5.2924   -5.2748 H   0  0  0  0  0  0  0  0  0  0  0  0
    3.1314   -6.9434   -5.8817 H   0  0  0  0  0  0  0  0  0  0  0  0
    4.3759   -5.2241   -3.2036 H   0  0  0  0  0  0  0  0  0  0  0  0
   -0.7034   -6.3496   -3.5359 H   0  0  0  0  0  0  0  0  0  0  0  0
   -0.4695   -6.2500   -5.2852 H   0  0  0  0  0  0  0  0  0  0  0  0
   -0.8450   -3.8745   -6.3964 H   0  0  0  0  0  0  0  0  0  0  0  0
   -2.4731   -2.0099   -6.4990 H   0  0  0  0  0  0  0  0  0  0  0  0
   -4.0310   -1.5942   -4.5936 H   0  0  0  0  0  0  0  0  0  0  0  0
   -3.9473   -3.0756   -2.5864 H   0  0  0  0  0  0  0  0  0  0  0  0
   -2.3235   -4.9508   -2.4892 H   0  0  0  0  0  0  0  0  0  0  0  0
  2  1  1  1
  1 27  1  0
  1 28  1  0
  1 29  1  0
  2  3  1  0
  2  4  1  0
  2  7  1  0
  3 30  1  0
  3 31  1  0
  3 32  1  0
  4  5  1  0
  4 33  1  0
  4 34  1  0
  5  6  1  0
  5 35  1  0
  5 36  1  0
  6  7  1  0
  6 37  1  0
  6 38  1  0
  7  8  1  1
  7  9  1  0
  8 39  1  0
  9 10  1  0
  9 40  1  0
  9 41  1  0
 10 11  1  0
 10 42  1  0
 11 12  2  0
 11 13  1  0
 13 14  1  0
 13 43  1  0
 14 15  1  0
 14 20  1  0
 14 44  1  6
 15 16  1  0
 15 45  1  0
 15 46  1  0
 16 17  1  0
 16 47  1  0
 16 48  1  0
 17 18  2  0
 17 19  1  0
 19 49  1  0
 20 21  1  0
 20 50  1  0
 20 51  1  0
 21 22  2  0
 21 26  1  0
 22 23  1  0
 22 52  1  0
 23 24  2  0
 23 53  1  0
 24 25  1  0
 24 54  1  0
 25 26  2  0
 25 55  1  0
 26 56  1  0
M  END

