
     RDKit          3D

 38 41  0  0  0  0  0  0  0  0999 V2000
   -1.5825    1.2931   -4.1700 C   0  0  0  0  0  0  0  0  0  0  0  0
   -1.7704    2.5377   -3.7052 C   0  0  0  0  0  0  0  0  0  0  0  0
   -1.7438    2.7785   -1.9623 S   0  0  0  0  0  0  0  0  0  0  0  0
   -1.2675    1.0997   -1.5902 C   0  0  0  0  0  0  0  0  0  0  0  0
   -0.8996    0.6885   -0.3528 C   0  0  0  0  0  0  0  0  0  0  0  0
   -0.8381    1.7772    1.0556 S   0  0  0  0  0  0  0  0  0  0  0  0
    0.0121    0.6462    2.0758 C   0  0  0  0  0  0  0  0  0  0  0  0
    0.2207   -0.6235    1.6376 C   0  0  0  0  0  0  0  0  0  0  0  0
    0.8872   -1.6537    2.3966 C   0  0  0  0  0  0  0  0  0  0  0  0
    1.1569   -2.9202    1.9732 C   0  0  0  0  0  0  0  0  0  0  0  0
    1.8137   -3.9148    2.7745 C   0  0  0  0  0  0  0  0  0  0  0  0
    2.0901   -5.1837    2.3562 C   0  0  0  0  0  0  0  0  0  0  0  0
    2.7472   -6.1781    3.1572 C   0  0  0  0  0  0  0  0  0  0  0  0
    3.0229   -7.4425    2.7314 C   0  0  0  0  0  0  0  0  0  0  0  0
    3.6681   -8.4802    3.4986 C   0  0  0  0  0  0  0  0  0  0  0  0
    3.9708   -9.7174    3.0238 C   0  0  0  0  0  0  0  0  0  0  0  0
    4.7259  -10.8813    4.0812 S   0  0  0  0  0  0  0  0  0  0  0  0
    4.9629   -9.7317    5.4208 C   0  0  0  0  0  0  0  0  0  0  0  0
    5.7365  -10.0025    6.4997 C   0  0  0  0  0  0  0  0  0  0  0  0
    6.6070  -11.5447    6.7175 S   0  0  0  0  0  0  0  0  0  0  0  0
    7.5323  -10.9925    8.1086 C   0  0  0  0  0  0  0  0  0  0  0  0
    7.2477   -9.7814    8.6114 C   0  0  0  0  0  0  0  0  0  0  0  0
    5.9740   -8.8463    7.8371 S   0  0  0  0  0  0  0  0  0  0  0  0
    4.0753   -8.2033    5.2155 S   0  0  0  0  0  0  0  0  0  0  0  0
   -0.4489   -0.9914    0.0232 S   0  0  0  0  0  0  0  0  0  0  0  0
   -1.3239    0.0061   -2.9984 S   0  0  0  0  0  0  0  0  0  0  0  0
   -1.6032    1.0140   -5.2246 H   0  0  0  0  0  0  0  0  0  0  0  0
   -1.9655    3.4117   -4.3284 H   0  0  0  0  0  0  0  0  0  0  0  0
    0.3315    1.0020    3.0569 H   0  0  0  0  0  0  0  0  0  0  0  0
    1.1923   -1.3605    3.4074 H   0  0  0  0  0  0  0  0  0  0  0  0
    0.8665   -3.2171    0.9583 H   0  0  0  0  0  0  0  0  0  0  0  0
    2.1077   -3.6225    3.7903 H   0  0  0  0  0  0  0  0  0  0  0  0
    1.7946   -5.4765    1.3409 H   0  0  0  0  0  0  0  0  0  0  0  0
    3.0418   -5.8799    4.1705 H   0  0  0  0  0  0  0  0  0  0  0  0
    2.7373   -7.7288    1.7129 H   0  0  0  0  0  0  0  0  0  0  0  0
    3.7450  -10.0409    2.0061 H   0  0  0  0  0  0  0  0  0  0  0  0
    8.2799  -11.6751    8.5155 H   0  0  0  0  0  0  0  0  0  0  0  0
    7.7321   -9.3416    9.4845 H   0  0  0  0  0  0  0  0  0  0  0  0
  1  2  2  0
  1 26  1  0
  1 27  1  0
  2  3  1  0
  2 28  1  0
  3  4  1  0
  4  5  2  0
  4 26  1  0
  5  6  1  0
  5 25  1  0
  6  7  1  0
  7  8  2  0
  7 29  1  0
  8  9  1  0
  8 25  1  0
  9 10  2  0
  9 30  1  0
 10 11  1  0
 10 31  1  0
 11 12  2  0
 11 32  1  0
 12 13  1  0
 12 33  1  0
 13 14  2  0
 13 34  1  0
 14 15  1  0
 14 35  1  0
 15 16  2  0
 15 24  1  0
 16 17  1  0
 16 36  1  0
 17 18  1  0
 18 19  2  0
 18 24  1  0
 19 20  1  0
 19 23  1  0
 20 21  1  0
 21 22  2  0
 21 37  1  0
 22 23  1  0
 22 38  1  0
M  END

