
     RDKit          3D

 49 48  0  0  0  0  0  0  0  0999 V2000
    1.1215   -1.1477   -0.2433 C   0  0  0  0  0  0  0  0  0  0  0  0
    2.6284   -0.8865   -0.2593 C   0  0  0  0  0  0  0  0  0  0  0  0
    2.9971    0.5606   -0.6009 C   0  0  0  0  0  0  0  0  0  0  0  0
    4.5043    0.8308   -0.6177 C   0  0  0  0  0  0  0  0  0  0  0  0
    4.8730    2.2779   -0.9612 C   0  0  0  0  0  0  0  0  0  0  0  0
    6.3844    2.5333   -0.9565 C   0  0  0  0  0  0  0  0  0  0  0  0
    6.8329    3.9454   -1.3868 C   0  0  1  0  0  0  0  0  0  0  0  0
    6.3303    5.0585   -0.4265 C   0  0  0  0  0  0  0  0  0  0  0  0
    5.0577    5.7816   -0.8870 C   0  0  0  0  0  0  0  0  0  0  0  0
    4.5788    6.8601    0.0891 C   0  0  0  0  0  0  0  0  0  0  0  0
    3.3227    7.6047   -0.3742 C   0  0  0  0  0  0  0  0  0  0  0  0
    2.8492    8.6780    0.6071 C   0  0  0  0  0  0  0  0  0  0  0  0
    8.3671    4.0215   -1.6413 C   0  0  1  0  0  0  0  0  0  0  0  0
    9.2292    3.4232   -0.5190 C   0  0  0  0  0  0  0  0  0  0  0  0
    8.8832    3.8473    0.7844 O   0  0  0  0  0  0  0  0  0  0  0  0
    8.7860    3.3978   -2.9854 C   0  0  0  0  0  0  0  0  0  0  0  0
    8.2588    4.0658   -4.1122 O   0  0  0  0  0  0  0  0  0  0  0  0
    0.8939   -2.1966    0.0055 H   0  0  0  0  0  0  0  0  0  0  0  0
    0.6667   -0.9327   -1.2250 H   0  0  0  0  0  0  0  0  0  0  0  0
    0.6122   -0.5117    0.5003 H   0  0  0  0  0  0  0  0  0  0  0  0
    3.1127   -1.5650   -0.9853 H   0  0  0  0  0  0  0  0  0  0  0  0
    3.0586   -1.1471    0.7250 H   0  0  0  0  0  0  0  0  0  0  0  0
    2.5124    1.2404    0.1249 H   0  0  0  0  0  0  0  0  0  0  0  0
    2.5678    0.8225   -1.5864 H   0  0  0  0  0  0  0  0  0  0  0  0
    4.9891    0.1485   -1.3411 H   0  0  0  0  0  0  0  0  0  0  0  0
    4.9329    0.5718    0.3683 H   0  0  0  0  0  0  0  0  0  0  0  0
    4.3749    2.9508   -0.2418 H   0  0  0  0  0  0  0  0  0  0  0  0
    4.4558    2.5346   -1.9532 H   0  0  0  0  0  0  0  0  0  0  0  0
    6.8566    1.7859   -1.6201 H   0  0  0  0  0  0  0  0  0  0  0  0
    6.7782    2.3333    0.0546 H   0  0  0  0  0  0  0  0  0  0  0  0
    6.3648    4.1597   -2.3674 H   0  0  0  0  0  0  0  0  0  0  0  0
    7.1181    5.8234   -0.3090 H   0  0  0  0  0  0  0  0  0  0  0  0
    6.1801    4.6384    0.5824 H   0  0  0  0  0  0  0  0  0  0  0  0
    4.2446    5.0528   -1.0478 H   0  0  0  0  0  0  0  0  0  0  0  0
    5.2438    6.2429   -1.8749 H   0  0  0  0  0  0  0  0  0  0  0  0
    5.3934    7.5901    0.2562 H   0  0  0  0  0  0  0  0  0  0  0  0
    4.3857    6.3992    1.0760 H   0  0  0  0  0  0  0  0  0  0  0  0
    2.5101    6.8744   -0.5424 H   0  0  0  0  0  0  0  0  0  0  0  0
    3.5176    8.0660   -1.3597 H   0  0  0  0  0  0  0  0  0  0  0  0
    2.6088    8.2430    1.5919 H   0  0  0  0  0  0  0  0  0  0  0  0
    1.9458    9.1921    0.2417 H   0  0  0  0  0  0  0  0  0  0  0  0
    3.6257    9.4448    0.7681 H   0  0  0  0  0  0  0  0  0  0  0  0
    8.6230    5.0942   -1.7322 H   0  0  0  0  0  0  0  0  0  0  0  0
   10.2964    3.6325   -0.7386 H   0  0  0  0  0  0  0  0  0  0  0  0
    9.1278    2.3255   -0.5091 H   0  0  0  0  0  0  0  0  0  0  0  0
    8.9713    4.8084    0.8258 H   0  0  0  0  0  0  0  0  0  0  0  0
    8.5354    2.3173   -3.0018 H   0  0  0  0  0  0  0  0  0  0  0  0
    9.8826    3.4631   -3.0826 H   0  0  0  0  0  0  0  0  0  0  0  0
    7.3124    3.8825   -4.1605 H   0  0  0  0  0  0  0  0  0  0  0  0
  1  2  1  0
  1 18  1  0
  1 19  1  0
  1 20  1  0
  2  3  1  0
  2 21  1  0
  2 22  1  0
  3  4  1  0
  3 23  1  0
  3 24  1  0
  4  5  1  0
  4 25  1  0
  4 26  1  0
  5  6  1  0
  5 27  1  0
  5 28  1  0
  6  7  1  0
  6 29  1  0
  6 30  1  0
  7  8  1  0
  7 13  1  0
  7 31  1  6
  8  9  1  0
  8 32  1  0
  8 33  1  0
  9 10  1  0
  9 34  1  0
  9 35  1  0
 10 11  1  0
 10 36  1  0
 10 37  1  0
 11 12  1  0
 11 38  1  0
 11 39  1  0
 12 40  1  0
 12 41  1  0
 12 42  1  0
 13 14  1  0
 13 16  1  0
 13 43  1  6
 14 15  1  0
 14 44  1  0
 14 45  1  0
 15 46  1  0
 16 17  1  0
 16 47  1  0
 16 48  1  0
 17 49  1  0
M  END

