
     RDKit          3D

 36 37  0  0  0  0  0  0  0  0999 V2000
    2.0680    1.6384   -0.3183 C   0  0  0  0  0  0  0  0  0  0  0  0
    2.2346    0.3075    0.1095 O   0  0  0  0  0  0  0  0  0  0  0  0
    2.8117    0.0616    1.3176 C   0  0  0  0  0  0  0  0  0  0  0  0
    3.2998    1.0604    2.1582 C   0  0  0  0  0  0  0  0  0  0  0  0
    3.8571    0.7162    3.4100 C   0  0  0  0  0  0  0  0  0  0  0  0
    4.3216    1.7852    4.1928 N   0  0  0  0  0  0  0  0  0  0  0  0
    4.9168    1.8447    5.4249 C   0  0  0  0  0  0  0  0  0  0  0  0
    5.2229    3.0899    5.8290 N   0  0  0  0  0  0  0  0  0  0  0  0
    5.8027    3.2222    7.0244 C   0  0  0  0  0  0  0  0  0  0  0  0
    6.0941    4.4844    7.4359 N   0  0  0  0  0  0  0  0  0  0  0  0
    6.0916    2.0948    7.8387 C   0  0  0  0  0  0  0  0  0  0  0  0
    5.7237    0.8760    7.2928 C   0  0  0  0  0  0  0  0  0  0  0  0
    6.0667   -0.7205    8.3001 Br  0  0  0  0  0  0  0  0  0  0  0  0
    5.1475    0.7186    6.1166 N   0  0  0  0  0  0  0  0  0  0  0  0
    3.9124   -0.6215    3.7950 C   0  0  0  0  0  0  0  0  0  0  0  0
    3.4275   -1.6331    2.9415 C   0  0  0  0  0  0  0  0  0  0  0  0
    3.5257   -2.8762    3.4724 O   0  0  0  0  0  0  0  0  0  0  0  0
    3.2630   -4.0673    2.7559 C   0  0  0  0  0  0  0  0  0  0  0  0
    2.8755   -1.3066    1.6873 C   0  0  0  0  0  0  0  0  0  0  0  0
    2.3299   -2.2636    0.8673 O   0  0  0  0  0  0  0  0  0  0  0  0
    3.0058   -2.5272   -0.3520 C   0  0  0  0  0  0  0  0  0  0  0  0
    1.5629    1.5935   -1.2927 H   0  0  0  0  0  0  0  0  0  0  0  0
    3.0358    2.1582   -0.4423 H   0  0  0  0  0  0  0  0  0  0  0  0
    1.4411    2.2190    0.3823 H   0  0  0  0  0  0  0  0  0  0  0  0
    3.2484    2.1084    1.8636 H   0  0  0  0  0  0  0  0  0  0  0  0
    4.2115    2.7077    3.7882 H   0  0  0  0  0  0  0  0  0  0  0  0
    5.9420    5.2466    6.7888 H   0  0  0  0  0  0  0  0  0  0  0  0
    6.6238    4.6496    8.2788 H   0  0  0  0  0  0  0  0  0  0  0  0
    6.5629    2.1814    8.8164 H   0  0  0  0  0  0  0  0  0  0  0  0
    4.3308   -0.9119    4.7537 H   0  0  0  0  0  0  0  0  0  0  0  0
    3.5033   -4.8853    3.4506 H   0  0  0  0  0  0  0  0  0  0  0  0
    3.9066   -4.1637    1.8648 H   0  0  0  0  0  0  0  0  0  0  0  0
    2.2116   -4.1459    2.4442 H   0  0  0  0  0  0  0  0  0  0  0  0
    2.4585   -3.3419   -0.8484 H   0  0  0  0  0  0  0  0  0  0  0  0
    4.0477   -2.8539   -0.1738 H   0  0  0  0  0  0  0  0  0  0  0  0
    3.0146   -1.6458   -1.0116 H   0  0  0  0  0  0  0  0  0  0  0  0
  1  2  1  0
  1 22  1  0
  1 23  1  0
  1 24  1  0
  2  3  1  0
  3  4  2  0
  3 19  1  0
  4  5  1  0
  4 25  1  0
  5  6  1  0
  5 15  2  0
  6  7  1  0
  6 26  1  0
  7  8  2  0
  7 14  1  0
  8  9  1  0
  9 10  1  0
  9 11  2  0
 10 27  1  0
 10 28  1  0
 11 12  1  0
 11 29  1  0
 12 13  1  0
 12 14  2  0
 15 16  1  0
 15 30  1  0
 16 17  1  0
 16 19  2  0
 17 18  1  0
 18 31  1  0
 18 32  1  0
 18 33  1  0
 19 20  1  0
 20 21  1  0
 21 34  1  0
 21 35  1  0
 21 36  1  0
M  END

