
     RDKit          3D

 49 51  0  0  0  0  0  0  0  0999 V2000
    2.3482    1.2921   -0.3066 C   0  0  0  0  0  0  0  0  0  0  0  0
    2.6433    2.6971   -0.8311 C   0  0  0  0  0  0  0  0  0  0  0  0
    4.1421    3.0767   -0.8252 C   0  0  1  0  0  0  0  0  0  0  0  0
    4.3971    4.4957   -1.3722 C   0  0  0  0  0  0  0  0  0  0  0  0
    3.9722    5.5964   -0.3902 C   0  0  0  0  0  0  0  0  0  0  0  0
    4.5975    5.3636    0.9898 C   0  0  0  0  0  0  0  0  0  0  0  0
    4.3194    3.9462    1.4988 C   0  0  0  0  0  0  0  0  0  0  0  0
    4.7506    2.9524    0.5119 N   0  0  0  0  0  0  0  0  0  0  0  0
    5.4824    1.8739    0.9614 C   0  0  0  0  0  0  0  0  0  0  0  0
    5.6582    1.6544    2.1526 O   0  0  0  0  0  0  0  0  0  0  0  0
    6.1337    0.9587   -0.0499 C   0  0  0  0  0  0  0  0  0  0  0  0
    6.9184    1.4345   -1.1134 C   0  0  0  0  0  0  0  0  0  0  0  0
    7.6062    0.5468   -1.9401 C   0  0  0  0  0  0  0  0  0  0  0  0
    7.4953   -0.8393   -1.7504 C   0  0  0  0  0  0  0  0  0  0  0  0
    8.3167   -1.7376   -2.6431 C   0  0  0  0  0  0  0  0  0  0  0  0
    9.4743   -1.4389   -2.9072 O   0  0  0  0  0  0  0  0  0  0  0  0
    7.7291   -2.8751   -3.1362 N   0  0  0  0  0  0  0  0  0  0  0  0
    6.2816   -3.1426   -3.2282 C   0  0  0  0  0  0  0  0  0  0  0  0
    6.1937   -4.3872   -4.1253 C   0  0  0  0  0  0  0  0  0  0  0  0
    7.4398   -4.2824   -5.0137 C   0  0  0  0  0  0  0  0  0  0  0  0
    8.4970   -3.7341   -4.0519 C   0  0  0  0  0  0  0  0  0  0  0  0
    6.7356   -1.3133   -0.6694 C   0  0  0  0  0  0  0  0  0  0  0  0
    6.0804   -0.4235    0.1820 C   0  0  0  0  0  0  0  0  0  0  0  0
    1.2769    1.0543   -0.4010 H   0  0  0  0  0  0  0  0  0  0  0  0
    2.6165    1.1895    0.7568 H   0  0  0  0  0  0  0  0  0  0  0  0
    2.9110    0.5262   -0.8653 H   0  0  0  0  0  0  0  0  0  0  0  0
    2.0554    3.4346   -0.2599 H   0  0  0  0  0  0  0  0  0  0  0  0
    2.2946    2.7842   -1.8749 H   0  0  0  0  0  0  0  0  0  0  0  0
    4.6489    2.3592   -1.4823 H   0  0  0  0  0  0  0  0  0  0  0  0
    3.8780    4.6136   -2.3376 H   0  0  0  0  0  0  0  0  0  0  0  0
    5.4768    4.5977   -1.5787 H   0  0  0  0  0  0  0  0  0  0  0  0
    2.8719    5.6152   -0.2974 H   0  0  0  0  0  0  0  0  0  0  0  0
    4.2615    6.5845   -0.7847 H   0  0  0  0  0  0  0  0  0  0  0  0
    4.2161    6.0959    1.7208 H   0  0  0  0  0  0  0  0  0  0  0  0
    5.6906    5.5099    0.9307 H   0  0  0  0  0  0  0  0  0  0  0  0
    3.2413    3.8259    1.7171 H   0  0  0  0  0  0  0  0  0  0  0  0
    4.8552    3.7325    2.4312 H   0  0  0  0  0  0  0  0  0  0  0  0
    7.0202    2.5101   -1.2760 H   0  0  0  0  0  0  0  0  0  0  0  0
    8.2524    0.9181   -2.7380 H   0  0  0  0  0  0  0  0  0  0  0  0
    5.7567   -2.2818   -3.6799 H   0  0  0  0  0  0  0  0  0  0  0  0
    5.8246   -3.3208   -2.2446 H   0  0  0  0  0  0  0  0  0  0  0  0
    5.2492   -4.4273   -4.6883 H   0  0  0  0  0  0  0  0  0  0  0  0
    6.2486   -5.2990   -3.5071 H   0  0  0  0  0  0  0  0  0  0  0  0
    7.2652   -3.5634   -5.8320 H   0  0  0  0  0  0  0  0  0  0  0  0
    7.7325   -5.2405   -5.4682 H   0  0  0  0  0  0  0  0  0  0  0  0
    9.2879   -3.1429   -4.5327 H   0  0  0  0  0  0  0  0  0  0  0  0
    8.9911   -4.5480   -3.4896 H   0  0  0  0  0  0  0  0  0  0  0  0
    6.6871   -2.3847   -0.4639 H   0  0  0  0  0  0  0  0  0  0  0  0
    5.5297   -0.7915    1.0500 H   0  0  0  0  0  0  0  0  0  0  0  0
  1  2  1  0
  1 24  1  0
  1 25  1  0
  1 26  1  0
  2  3  1  0
  2 27  1  0
  2 28  1  0
  3  4  1  0
  3  8  1  0
  3 29  1  6
  4  5  1  0
  4 30  1  0
  4 31  1  0
  5  6  1  0
  5 32  1  0
  5 33  1  0
  6  7  1  0
  6 34  1  0
  6 35  1  0
  7  8  1  0
  7 36  1  0
  7 37  1  0
  8  9  1  0
  9 10  2  0
  9 11  1  0
 11 12  2  0
 11 23  1  0
 12 13  1  0
 12 38  1  0
 13 14  2  0
 13 39  1  0
 14 15  1  0
 14 22  1  0
 15 16  2  0
 15 17  1  0
 17 18  1  0
 17 21  1  0
 18 19  1  0
 18 40  1  0
 18 41  1  0
 19 20  1  0
 19 42  1  0
 19 43  1  0
 20 21  1  0
 20 44  1  0
 20 45  1  0
 21 46  1  0
 21 47  1  0
 22 23  2  0
 22 48  1  0
 23 49  1  0
M  END

