
     RDKit          3D

 39 40  0  0  0  0  0  0  0  0999 V2000
    6.6250    3.4407    2.8599 C   0  0  0  0  0  0  0  0  0  0  0  0
    6.5273    2.2410    1.9166 C   0  0  0  0  0  0  0  0  0  0  0  0
    6.9827    2.5469    0.4862 C   0  0  0  0  0  0  0  0  0  0  0  0
    6.8875    1.3507   -0.4652 C   0  0  0  0  0  0  0  0  0  0  0  0
    7.3427    1.6549   -1.8954 C   0  0  0  0  0  0  0  0  0  0  0  0
    7.2256    0.4455   -2.8381 C   0  0  0  0  0  0  0  0  0  0  0  0
    7.6031    0.6553   -4.2293 N   0  0  0  0  0  0  0  0  0  0  0  0
    9.0169    0.9253   -4.4855 C   0  0  0  0  0  0  0  0  0  0  0  0
    9.3046    1.0203   -5.9490 C   0  0  0  0  0  0  0  0  0  0  0  0
    9.7055    2.0825   -6.7349 C   0  0  0  0  0  0  0  0  0  0  0  0
    9.7963    1.7136   -8.0521 N   0  0  0  0  0  0  0  0  0  0  0  0
    9.4508    0.4473   -8.0790 C   0  0  0  0  0  0  0  0  0  0  0  0
    9.1476   -0.0392   -6.8329 N   0  0  0  0  0  0  0  0  0  0  0  0
    8.6911   -1.3589   -6.4914 C   0  0  1  0  0  0  0  0  0  0  0  0
    9.1453   -2.5410   -7.3000 C   0  0  0  0  0  0  0  0  0  0  0  0
    9.6525   -2.3564   -5.8916 C   0  0  0  0  0  0  0  0  0  0  0  0
    6.2900    3.1847    3.8778 H   0  0  0  0  0  0  0  0  0  0  0  0
    6.0030    4.2804    2.5067 H   0  0  0  0  0  0  0  0  0  0  0  0
    7.6620    3.8092    2.9341 H   0  0  0  0  0  0  0  0  0  0  0  0
    5.4851    1.8731    1.8942 H   0  0  0  0  0  0  0  0  0  0  0  0
    7.1299    1.4058    2.3180 H   0  0  0  0  0  0  0  0  0  0  0  0
    8.0257    2.9147    0.5071 H   0  0  0  0  0  0  0  0  0  0  0  0
    6.3802    3.3824    0.0831 H   0  0  0  0  0  0  0  0  0  0  0  0
    5.8444    0.9828   -0.4844 H   0  0  0  0  0  0  0  0  0  0  0  0
    7.4900    0.5156   -0.0609 H   0  0  0  0  0  0  0  0  0  0  0  0
    8.3861    2.0168   -1.8752 H   0  0  0  0  0  0  0  0  0  0  0  0
    6.7392    2.4866   -2.3059 H   0  0  0  0  0  0  0  0  0  0  0  0
    6.1824    0.0816   -2.8221 H   0  0  0  0  0  0  0  0  0  0  0  0
    7.8395   -0.3849   -2.4430 H   0  0  0  0  0  0  0  0  0  0  0  0
    7.0315    1.3847   -4.6551 H   0  0  0  0  0  0  0  0  0  0  0  0
    9.5959    0.0988   -4.0329 H   0  0  0  0  0  0  0  0  0  0  0  0
    9.3969    1.8573   -4.0177 H   0  0  0  0  0  0  0  0  0  0  0  0
    9.9342    3.0957   -6.4026 H   0  0  0  0  0  0  0  0  0  0  0  0
    9.3915   -0.1795   -8.9685 H   0  0  0  0  0  0  0  0  0  0  0  0
    7.6730   -1.3613   -6.0918 H   0  0  0  0  0  0  0  0  0  0  0  0
    9.8549   -2.3731   -8.1137 H   0  0  0  0  0  0  0  0  0  0  0  0
    8.4097   -3.3242   -7.5009 H   0  0  0  0  0  0  0  0  0  0  0  0
   10.6924   -2.0400   -5.7733 H   0  0  0  0  0  0  0  0  0  0  0  0
    9.2777   -3.0114   -5.1005 H   0  0  0  0  0  0  0  0  0  0  0  0
  1  2  1  0
  1 17  1  0
  1 18  1  0
  1 19  1  0
  2  3  1  0
  2 20  1  0
  2 21  1  0
  3  4  1  0
  3 22  1  0
  3 23  1  0
  4  5  1  0
  4 24  1  0
  4 25  1  0
  5  6  1  0
  5 26  1  0
  5 27  1  0
  6  7  1  0
  6 28  1  0
  6 29  1  0
  7  8  1  0
  7 30  1  0
  8  9  1  0
  8 31  1  0
  8 32  1  0
  9 10  2  0
  9 13  1  0
 10 11  1  0
 10 33  1  0
 11 12  2  0
 12 13  1  0
 12 34  1  0
 13 14  1  0
 14 15  1  0
 14 16  1  0
 14 35  1  1
 15 16  1  0
 15 36  1  0
 15 37  1  0
 16 38  1  0
 16 39  1  0
M  END

