
     RDKit          3D

 33 34  0  0  0  0  0  0  0  0999 V2000
    4.8487    0.5085   -1.2561 C   0  0  0  0  0  0  0  0  0  0  0  0
    4.4727   -0.7552   -0.4859 C   0  0  0  0  0  0  0  0  0  0  0  0
    3.0471   -1.1358   -0.5950 N   0  0  0  0  0  0  0  0  0  0  0  0
    2.6992   -1.6316   -1.9369 C   0  0  0  0  0  0  0  0  0  0  0  0
    1.2352   -1.5176   -2.2662 C   0  0  0  0  0  0  0  0  0  0  0  0
    0.3340   -0.4522   -2.1359 C   0  0  0  0  0  0  0  0  0  0  0  0
    0.4624    0.9081   -1.5414 C   0  0  0  0  0  0  0  0  0  0  0  0
   -0.3616    1.7673   -1.7475 O   0  0  0  0  0  0  0  0  0  0  0  0
    1.5205    1.1320   -0.7470 O   0  0  0  0  0  0  0  0  0  0  0  0
   -0.8587   -0.9304   -2.7366 C   0  0  0  0  0  0  0  0  0  0  0  0
   -0.7222   -2.1655   -3.1893 N   0  0  0  0  0  0  0  0  0  0  0  0
    0.5507   -2.5112   -2.9013 N   0  0  0  0  0  0  0  0  0  0  0  0
    1.0260   -3.8199   -3.3101 C   0  0  0  0  0  0  0  0  0  0  0  0
    2.6759   -2.0769    0.4439 C   0  0  1  0  0  0  0  0  0  0  0  0
    2.4084   -1.5694    1.8350 C   0  0  0  0  0  0  0  0  0  0  0  0
    1.2746   -2.1020    0.9978 C   0  0  0  0  0  0  0  0  0  0  0  0
    5.8981    0.7670   -1.0453 H   0  0  0  0  0  0  0  0  0  0  0  0
    4.2157    1.3589   -0.9616 H   0  0  0  0  0  0  0  0  0  0  0  0
    4.7620    0.3862   -2.3472 H   0  0  0  0  0  0  0  0  0  0  0  0
    4.6686   -0.5946    0.5844 H   0  0  0  0  0  0  0  0  0  0  0  0
    5.1193   -1.6032   -0.7973 H   0  0  0  0  0  0  0  0  0  0  0  0
    3.0379   -2.6782   -2.0639 H   0  0  0  0  0  0  0  0  0  0  0  0
    3.2644   -1.0382   -2.6727 H   0  0  0  0  0  0  0  0  0  0  0  0
    2.0711    0.3096   -0.6133 H   0  0  0  0  0  0  0  0  0  0  0  0
   -1.8009   -0.3931   -2.8332 H   0  0  0  0  0  0  0  0  0  0  0  0
    0.1594   -4.3582   -3.7108 H   0  0  0  0  0  0  0  0  0  0  0  0
    1.4351   -4.3808   -2.4559 H   0  0  0  0  0  0  0  0  0  0  0  0
    1.7959   -3.7459   -4.0947 H   0  0  0  0  0  0  0  0  0  0  0  0
    3.1892   -3.0503    0.3702 H   0  0  0  0  0  0  0  0  0  0  0  0
    2.4443   -0.4869    1.9877 H   0  0  0  0  0  0  0  0  0  0  0  0
    2.7746   -2.1621    2.6776 H   0  0  0  0  0  0  0  0  0  0  0  0
    0.5601   -1.3767    0.6052 H   0  0  0  0  0  0  0  0  0  0  0  0
    0.8429   -3.0752    1.2465 H   0  0  0  0  0  0  0  0  0  0  0  0
  1  2  1  0
  1 17  1  0
  1 18  1  0
  1 19  1  0
  2  3  1  0
  2 20  1  0
  2 21  1  0
  3  4  1  0
  3 14  1  0
  4  5  1  0
  4 22  1  0
  4 23  1  0
  5  6  2  0
  5 12  1  0
  6  7  1  0
  6 10  1  0
  7  8  2  0
  7  9  1  0
  9 24  1  0
 10 11  2  0
 10 25  1  0
 11 12  1  0
 12 13  1  0
 13 26  1  0
 13 27  1  0
 13 28  1  0
 14 15  1  0
 14 16  1  0
 14 29  1  1
 15 16  1  0
 15 30  1  0
 15 31  1  0
 16 32  1  0
 16 33  1  0
M  END

