
     RDKit          3D

 57 59  0  0  0  0  0  0  0  0999 V2000
    2.5505   -1.1604   -9.3284 C   0  0  0  0  0  0  0  0  0  0  0  0
    3.8308   -0.7517   -8.5846 C   0  0  1  0  0  0  0  0  0  0  0  0
    3.6180    0.4714   -7.6653 C   0  0  0  0  0  0  0  0  0  0  0  0
    2.8220    0.1388   -6.3942 C   0  0  0  0  0  0  0  0  0  0  0  0
    3.4487   -1.0193   -5.5926 C   0  0  2  0  0  0  0  0  0  0  0  0
    4.6955   -0.6205   -4.9490 N   0  0  0  0  0  0  0  0  0  0  0  0
    4.8796   -0.6268   -3.6028 C   0  0  0  0  0  0  0  0  0  0  0  0
    4.0354   -0.9584   -2.7849 O   0  0  0  0  0  0  0  0  0  0  0  0
    6.3128   -0.2483   -3.1473 C   0  0  1  0  0  0  0  0  0  0  0  0
    7.0613   -1.5646   -2.9054 C   0  0  0  0  0  0  0  0  0  0  0  0
    6.9579    0.6388   -4.1198 N   0  0  0  0  0  0  0  0  0  0  0  0
    6.4161    1.9992   -4.1594 C   0  0  0  0  0  0  0  0  0  0  0  0
    7.1324    2.9332   -3.1866 C   0  0  0  0  0  0  0  0  0  0  0  0
    8.5297    2.9396   -3.4185 O   0  0  0  0  0  0  0  0  0  0  0  0
    9.1730    1.6546   -3.3524 C   0  0  2  0  0  0  0  0  0  0  0  0
    9.2399    1.1688   -1.8939 C   0  0  0  0  0  0  0  0  0  0  0  0
   10.5661    1.8719   -3.8898 C   0  0  0  0  0  0  0  0  0  0  0  0
   11.6643    0.9731   -3.9365 C   0  0  0  0  0  0  0  0  0  0  0  0
   12.7276    1.5226   -4.5183 N   0  0  0  0  0  0  0  0  0  0  0  0
   12.3429    2.7611   -4.8544 N   0  0  0  0  0  0  0  0  0  0  0  0
   13.2923    3.6663   -5.4667 C   0  0  0  0  0  0  0  0  0  0  0  0
   11.0547    3.0191   -4.4969 C   0  0  0  0  0  0  0  0  0  0  0  0
    8.4080    0.6743   -4.2934 C   0  0  0  0  0  0  0  0  0  0  0  0
    3.6470   -2.2482   -6.5026 C   0  0  0  0  0  0  0  0  0  0  0  0
    4.4429   -1.9152   -7.7735 C   0  0  0  0  0  0  0  0  0  0  0  0
    2.1633   -0.3246   -9.9338 H   0  0  0  0  0  0  0  0  0  0  0  0
    1.7429   -1.4715   -8.6466 H   0  0  0  0  0  0  0  0  0  0  0  0
    2.7446   -2.0038  -10.0110 H   0  0  0  0  0  0  0  0  0  0  0  0
    4.5674   -0.4621   -9.3553 H   0  0  0  0  0  0  0  0  0  0  0  0
    3.1168    1.2807   -8.2232 H   0  0  0  0  0  0  0  0  0  0  0  0
    4.6061    0.8752   -7.3774 H   0  0  0  0  0  0  0  0  0  0  0  0
    1.7908   -0.1477   -6.6630 H   0  0  0  0  0  0  0  0  0  0  0  0
    2.7376    1.0284   -5.7490 H   0  0  0  0  0  0  0  0  0  0  0  0
    2.7819   -1.2877   -4.7604 H   0  0  0  0  0  0  0  0  0  0  0  0
    5.4933   -0.2915   -5.4869 H   0  0  0  0  0  0  0  0  0  0  0  0
    6.1597    0.2346   -2.1616 H   0  0  0  0  0  0  0  0  0  0  0  0
    7.2436   -2.0979   -3.8520 H   0  0  0  0  0  0  0  0  0  0  0  0
    6.4384   -2.2044   -2.2646 H   0  0  0  0  0  0  0  0  0  0  0  0
    8.0227   -1.4115   -2.3957 H   0  0  0  0  0  0  0  0  0  0  0  0
    5.3359    1.9800   -3.9486 H   0  0  0  0  0  0  0  0  0  0  0  0
    6.5440    2.3994   -5.1826 H   0  0  0  0  0  0  0  0  0  0  0  0
    6.9033    2.6515   -2.1404 H   0  0  0  0  0  0  0  0  0  0  0  0
    6.7930    3.9719   -3.3262 H   0  0  0  0  0  0  0  0  0  0  0  0
    9.7287    1.9377   -1.2778 H   0  0  0  0  0  0  0  0  0  0  0  0
    9.8309    0.2436   -1.8186 H   0  0  0  0  0  0  0  0  0  0  0  0
    8.2455    0.9660   -1.4715 H   0  0  0  0  0  0  0  0  0  0  0  0
   11.7218   -0.0531   -3.5718 H   0  0  0  0  0  0  0  0  0  0  0  0
   13.7933    3.1632   -6.3061 H   0  0  0  0  0  0  0  0  0  0  0  0
   14.0574    3.9850   -4.7406 H   0  0  0  0  0  0  0  0  0  0  0  0
   12.7602    4.5516   -5.8399 H   0  0  0  0  0  0  0  0  0  0  0  0
   10.5748    3.9762   -4.6818 H   0  0  0  0  0  0  0  0  0  0  0  0
    8.8342   -0.3339   -4.2112 H   0  0  0  0  0  0  0  0  0  0  0  0
    8.6074    1.0200   -5.3226 H   0  0  0  0  0  0  0  0  0  0  0  0
    2.6513   -2.6381   -6.7755 H   0  0  0  0  0  0  0  0  0  0  0  0
    4.1479   -3.0481   -5.9335 H   0  0  0  0  0  0  0  0  0  0  0  0
    4.5314   -2.8129   -8.4089 H   0  0  0  0  0  0  0  0  0  0  0  0
    5.4775   -1.6466   -7.4915 H   0  0  0  0  0  0  0  0  0  0  0  0
  1  2  1  0
  1 26  1  0
  1 27  1  0
  1 28  1  0
  2  3  1  0
  2 25  1  0
  2 29  1  6
  3  4  1  0
  3 30  1  0
  3 31  1  0
  4  5  1  0
  4 32  1  0
  4 33  1  0
  5  6  1  0
  5 24  1  0
  5 34  1  1
  6  7  1  0
  6 35  1  0
  7  8  2  0
  7  9  1  0
  9 10  1  0
  9 11  1  0
  9 36  1  1
 10 37  1  0
 10 38  1  0
 10 39  1  0
 11 12  1  0
 11 23  1  0
 12 13  1  0
 12 40  1  0
 12 41  1  0
 13 14  1  0
 13 42  1  0
 13 43  1  0
 14 15  1  0
 15 16  1  1
 15 17  1  0
 15 23  1  0
 16 44  1  0
 16 45  1  0
 16 46  1  0
 17 18  1  0
 17 22  2  0
 18 19  2  0
 18 47  1  0
 19 20  1  0
 20 21  1  0
 20 22  1  0
 21 48  1  0
 21 49  1  0
 21 50  1  0
 22 51  1  0
 23 52  1  0
 23 53  1  0
 24 25  1  0
 24 54  1  0
 24 55  1  0
 25 56  1  0
 25 57  1  0
M  END

