
     RDKit          3D

 24 23  0  0  0  0  0  0  0  0999 V2000
    0.8006   -0.5417    2.0417 C   0  0  0  0  0  0  0  0  0  0  0  0
    2.3239   -0.6143    2.1539 C   0  0  0  0  0  0  0  0  0  0  0  0
    3.0347    0.3757    1.2276 C   0  0  0  0  0  0  0  0  0  0  0  0
    4.5630    0.3023    1.2848 C   0  0  1  0  0  0  0  0  0  0  0  0
    4.9473   -0.9741    0.8926 O   0  0  0  0  0  0  0  0  0  0  0  0
    6.3367   -1.2836    0.9527 C   0  0  0  0  0  0  0  0  0  0  0  0
    5.2030    1.2990    0.5399 O   0  0  0  0  0  0  0  0  0  0  0  0
    4.8611    1.4236   -0.8248 C   0  0  0  0  0  0  0  0  0  0  0  0
    5.0636    0.4390    2.6064 O   0  0  0  0  0  0  0  0  0  0  0  0
    4.6804    1.7246    3.1334 O   0  0  0  0  0  0  0  0  0  0  0  0
    0.3130   -1.2598    2.7200 H   0  0  0  0  0  0  0  0  0  0  0  0
    0.4618   -0.7711    1.0173 H   0  0  0  0  0  0  0  0  0  0  0  0
    0.4230    0.4638    2.2939 H   0  0  0  0  0  0  0  0  0  0  0  0
    2.6742   -1.6323    1.9205 H   0  0  0  0  0  0  0  0  0  0  0  0
    2.6299   -0.4226    3.1965 H   0  0  0  0  0  0  0  0  0  0  0  0
    2.7499    1.4109    1.4712 H   0  0  0  0  0  0  0  0  0  0  0  0
    2.7244    0.1861    0.1881 H   0  0  0  0  0  0  0  0  0  0  0  0
    6.4821   -2.1798    0.3333 H   0  0  0  0  0  0  0  0  0  0  0  0
    6.6551   -1.4981    1.9849 H   0  0  0  0  0  0  0  0  0  0  0  0
    6.9480   -0.4581    0.5564 H   0  0  0  0  0  0  0  0  0  0  0  0
    5.6286    2.0614   -1.2863 H   0  0  0  0  0  0  0  0  0  0  0  0
    3.8782    1.9070   -0.9695 H   0  0  0  0  0  0  0  0  0  0  0  0
    4.8568    0.4464   -1.3396 H   0  0  0  0  0  0  0  0  0  0  0  0
    4.2060    1.4378    3.9310 H   0  0  0  0  0  0  0  0  0  0  0  0
  1  2  1  0
  1 11  1  0
  1 12  1  0
  1 13  1  0
  2  3  1  0
  2 14  1  0
  2 15  1  0
  3  4  1  0
  3 16  1  0
  3 17  1  0
  4  5  1  6
  4  7  1  0
  4  9  1  0
  5  6  1  0
  6 18  1  0
  6 19  1  0
  6 20  1  0
  7  8  1  0
  8 21  1  0
  8 22  1  0
  8 23  1  0
  9 10  1  0
 10 24  1  0
M  END

