
     RDKit          3D

 61 62  0  0  0  0  0  0  0  0999 V2000
    1.2775   -1.0399   -1.4751 C   0  0  0  0  0  0  0  0  0  0  0  0
    2.6870   -0.9895   -1.4897 O   0  0  0  0  0  0  0  0  0  0  0  0
    3.2078    0.3226   -1.5675 C   0  0  0  0  0  0  0  0  0  0  0  0
    4.7086    0.2776   -1.3762 C   0  0  0  0  0  0  0  0  0  0  0  0
    5.4817    0.0198   -2.5187 C   0  0  0  0  0  0  0  0  0  0  0  0
    6.8794   -0.0542   -2.4528 C   0  0  0  0  0  0  0  0  0  0  0  0
    7.6847   -0.3101   -3.5083 O   0  0  0  0  0  0  0  0  0  0  0  0
    7.1166   -0.5440   -4.7791 C   0  0  0  0  0  0  0  0  0  0  0  0
    7.5158    0.1624   -1.2187 C   0  0  0  0  0  0  0  0  0  0  0  0
    6.7615    0.4281   -0.0871 C   0  0  0  0  0  0  0  0  0  0  0  0
    5.3494    0.4676   -0.1260 C   0  0  0  0  0  0  0  0  0  0  0  0
    4.6095    0.6644    1.1543 C   0  0  0  0  0  0  0  0  0  0  0  0
    3.5255   -0.1120    1.4279 C   0  0  0  0  0  0  0  0  0  0  0  0
    2.4644   -0.0786    2.4692 C   0  0  0  0  0  0  0  0  0  0  0  0
    1.4216   -0.6663    2.2202 O   0  0  0  0  0  0  0  0  0  0  0  0
    2.6420    0.6293    3.7990 C   0  0  0  0  0  0  0  0  0  0  0  0
    3.7968    0.0848    4.6567 C   0  0  0  0  0  0  0  0  0  0  0  0
    5.1815    0.1982    3.9826 C   0  0  0  0  0  0  0  0  0  0  0  0
    5.3550    1.5649    3.3591 C   0  0  0  0  0  0  0  0  0  0  0  0
    5.7388    2.8641    4.3254 S   0  0  0  0  0  0  0  0  0  0  0  0
    5.1235    1.6963    2.0123 N   0  0  0  0  0  0  0  0  0  0  0  0
    5.2989    3.0186    1.4127 C   0  0  0  0  0  0  0  0  0  0  0  0
    6.7342    3.5743    1.5020 C   0  0  0  0  0  0  0  0  0  0  0  0
    7.7207    2.8598    1.4651 O   0  0  0  0  0  0  0  0  0  0  0  0
    6.7906    4.9362    1.4991 N   0  0  0  0  0  0  0  0  0  0  0  0
    8.0505    5.6597    1.5808 C   0  0  0  0  0  0  0  0  0  0  0  0
    8.5903    6.1652    0.2101 C   0  0  1  0  0  0  0  0  0  0  0  0
    7.6270    7.1978   -0.3924 C   0  0  0  0  0  0  0  0  0  0  0  0
    9.9666    6.8018    0.4512 C   0  0  0  0  0  0  0  0  0  0  0  0
    8.7538    5.0817   -0.7634 N   0  0  0  0  0  0  0  0  0  0  0  0
    0.9856   -2.0986   -1.5280 H   0  0  0  0  0  0  0  0  0  0  0  0
    0.8394   -0.5085   -2.3436 H   0  0  0  0  0  0  0  0  0  0  0  0
    0.8661   -0.6100   -0.5423 H   0  0  0  0  0  0  0  0  0  0  0  0
    2.7329    0.9768   -0.8128 H   0  0  0  0  0  0  0  0  0  0  0  0
    2.9783    0.7571   -2.5621 H   0  0  0  0  0  0  0  0  0  0  0  0
    4.9633   -0.1237   -3.4669 H   0  0  0  0  0  0  0  0  0  0  0  0
    7.9530   -0.7392   -5.4631 H   0  0  0  0  0  0  0  0  0  0  0  0
    6.5535    0.3334   -5.1447 H   0  0  0  0  0  0  0  0  0  0  0  0
    6.4455   -1.4212   -4.7729 H   0  0  0  0  0  0  0  0  0  0  0  0
    8.6057    0.1219   -1.1752 H   0  0  0  0  0  0  0  0  0  0  0  0
    7.2742    0.6278    0.8533 H   0  0  0  0  0  0  0  0  0  0  0  0
    3.3075   -0.8798    0.6826 H   0  0  0  0  0  0  0  0  0  0  0  0
    1.6873    0.5261    4.3339 H   0  0  0  0  0  0  0  0  0  0  0  0
    2.8040    1.7066    3.6201 H   0  0  0  0  0  0  0  0  0  0  0  0
    3.6080   -0.9683    4.9230 H   0  0  0  0  0  0  0  0  0  0  0  0
    3.8212    0.6580    5.5963 H   0  0  0  0  0  0  0  0  0  0  0  0
    5.3202   -0.5994    3.2393 H   0  0  0  0  0  0  0  0  0  0  0  0
    5.9616    0.0855    4.7473 H   0  0  0  0  0  0  0  0  0  0  0  0
    4.5955    3.7218    1.8880 H   0  0  0  0  0  0  0  0  0  0  0  0
    5.0435    2.9410    0.3464 H   0  0  0  0  0  0  0  0  0  0  0  0
    5.9349    5.4426    1.6895 H   0  0  0  0  0  0  0  0  0  0  0  0
    8.7900    4.9750    2.0232 H   0  0  0  0  0  0  0  0  0  0  0  0
    7.9217    6.5069    2.2749 H   0  0  0  0  0  0  0  0  0  0  0  0
    7.5126    8.0744    0.2654 H   0  0  0  0  0  0  0  0  0  0  0  0
    6.6279    6.7577   -0.5501 H   0  0  0  0  0  0  0  0  0  0  0  0
    8.0002    7.5386   -1.3697 H   0  0  0  0  0  0  0  0  0  0  0  0
    9.9081    7.6355    1.1694 H   0  0  0  0  0  0  0  0  0  0  0  0
   10.3778    7.1806   -0.4961 H   0  0  0  0  0  0  0  0  0  0  0  0
   10.6763    6.0599    0.8539 H   0  0  0  0  0  0  0  0  0  0  0  0
    7.8450    4.6707   -0.9806 H   0  0  0  0  0  0  0  0  0  0  0  0
    9.2976    4.3215   -0.3513 H   0  0  0  0  0  0  0  0  0  0  0  0
  1  2  1  0
  1 31  1  0
  1 32  1  0
  1 33  1  0
  2  3  1  0
  3  4  1  0
  3 34  1  0
  3 35  1  0
  4  5  2  0
  4 11  1  0
  5  6  1  0
  5 36  1  0
  6  7  1  0
  6  9  2  0
  7  8  1  0
  8 37  1  0
  8 38  1  0
  8 39  1  0
  9 10  1  0
  9 40  1  0
 10 11  2  0
 10 41  1  0
 11 12  1  0
 12 13  2  0
 12 21  1  0
 13 14  1  0
 13 42  1  0
 14 15  2  0
 14 16  1  0
 16 17  1  0
 16 43  1  0
 16 44  1  0
 17 18  1  0
 17 45  1  0
 17 46  1  0
 18 19  1  0
 18 47  1  0
 18 48  1  0
 19 20  2  0
 19 21  1  0
 21 22  1  0
 22 23  1  0
 22 49  1  0
 22 50  1  0
 23 24  2  0
 23 25  1  0
 25 26  1  0
 25 51  1  0
 26 27  1  0
 26 52  1  0
 26 53  1  0
 27 28  1  0
 27 29  1  0
 27 30  1  6
 28 54  1  0
 28 55  1  0
 28 56  1  0
 29 57  1  0
 29 58  1  0
 29 59  1  0
 30 60  1  0
 30 61  1  0
M  END

