
     RDKit          3D

 47 50  0  0  0  0  0  0  0  0999 V2000
    5.6354   -1.7427    1.3722 C   0  0  0  0  0  0  0  0  0  0  0  0
    4.3004   -1.5184    0.6389 C   0  0  1  0  0  0  0  0  0  0  0  0
    3.3209   -0.6863    1.4865 C   0  0  0  0  0  0  0  0  0  0  0  0
    4.5183   -0.8956   -0.7090 C   0  0  0  0  0  0  0  0  0  0  0  0
    4.2721   -1.3017   -1.9899 C   0  0  0  0  0  0  0  0  0  0  0  0
    4.7317   -0.2103   -2.7923 C   0  0  0  0  0  0  0  0  0  0  0  0
    4.7181   -0.0898   -4.3029 C   0  0  1  0  0  0  0  0  0  0  0  0
    4.9632    1.3484   -4.8155 C   0  0  0  0  0  0  0  0  0  0  0  0
    5.8578    1.1770   -6.0482 C   0  0  0  0  0  0  0  0  0  0  0  0
    6.7317   -0.0232   -5.6761 C   0  0  0  0  0  0  0  0  0  0  0  0
    5.7948   -0.8891   -4.9438 N   0  0  0  0  0  0  0  0  0  0  0  0
    5.6365   -2.2391   -5.0374 C   0  0  0  0  0  0  0  0  0  0  0  0
    4.6306   -2.8111   -4.6168 O   0  0  0  0  0  0  0  0  0  0  0  0
    6.7121   -3.0779   -5.6371 C   0  0  0  0  0  0  0  0  0  0  0  0
    7.9428   -2.5840   -5.9135 O   0  0  0  0  0  0  0  0  0  0  0  0
    8.7483   -3.5861   -6.4136 N   0  0  0  0  0  0  0  0  0  0  0  0
    8.0034   -4.6675   -6.4297 C   0  0  0  0  0  0  0  0  0  0  0  0
    6.6831   -4.4165   -5.9404 C   0  0  0  0  0  0  0  0  0  0  0  0
    5.6197   -5.4713   -5.8612 C   0  0  0  0  0  0  0  0  0  0  0  0
    6.2392   -6.8735   -6.0109 C   0  0  0  0  0  0  0  0  0  0  0  0
    7.2709   -6.9378   -7.1487 C   0  0  0  0  0  0  0  0  0  0  0  0
    8.4771   -6.0203   -6.8775 C   0  0  0  0  0  0  0  0  0  0  0  0
    5.2049    0.7607   -2.0433 N   0  0  0  0  0  0  0  0  0  0  0  0
    5.0750    0.3346   -0.7377 O   0  0  0  0  0  0  0  0  0  0  0  0
    5.4637   -2.2369    2.3415 H   0  0  0  0  0  0  0  0  0  0  0  0
    6.1424   -0.7836    1.5620 H   0  0  0  0  0  0  0  0  0  0  0  0
    6.3160   -2.3743    0.7807 H   0  0  0  0  0  0  0  0  0  0  0  0
    3.8421   -2.5019    0.4425 H   0  0  0  0  0  0  0  0  0  0  0  0
    3.7284    0.3183    1.6799 H   0  0  0  0  0  0  0  0  0  0  0  0
    3.1402   -1.1752    2.4568 H   0  0  0  0  0  0  0  0  0  0  0  0
    2.3522   -0.5667    0.9771 H   0  0  0  0  0  0  0  0  0  0  0  0
    3.8510   -2.2373   -2.3433 H   0  0  0  0  0  0  0  0  0  0  0  0
    3.7572   -0.4968   -4.6558 H   0  0  0  0  0  0  0  0  0  0  0  0
    5.4845    1.9268   -4.0407 H   0  0  0  0  0  0  0  0  0  0  0  0
    4.0161    1.8632   -5.0320 H   0  0  0  0  0  0  0  0  0  0  0  0
    6.4513    2.0747   -6.2773 H   0  0  0  0  0  0  0  0  0  0  0  0
    5.2569    0.9329   -6.9404 H   0  0  0  0  0  0  0  0  0  0  0  0
    7.5707    0.2781   -5.0244 H   0  0  0  0  0  0  0  0  0  0  0  0
    7.1555   -0.5408   -6.5425 H   0  0  0  0  0  0  0  0  0  0  0  0
    4.8828   -5.2996   -6.6670 H   0  0  0  0  0  0  0  0  0  0  0  0
    5.0552   -5.3686   -4.9234 H   0  0  0  0  0  0  0  0  0  0  0  0
    5.4396   -7.6120   -6.1806 H   0  0  0  0  0  0  0  0  0  0  0  0
    6.7313   -7.1608   -5.0639 H   0  0  0  0  0  0  0  0  0  0  0  0
    6.7867   -6.6395   -8.0964 H   0  0  0  0  0  0  0  0  0  0  0  0
    7.6205   -7.9727   -7.2903 H   0  0  0  0  0  0  0  0  0  0  0  0
    9.1247   -5.9234   -7.7628 H   0  0  0  0  0  0  0  0  0  0  0  0
    9.1051   -6.4572   -6.0804 H   0  0  0  0  0  0  0  0  0  0  0  0
  1  2  1  0
  1 25  1  0
  1 26  1  0
  1 27  1  0
  2  3  1  0
  2  4  1  0
  2 28  1  6
  3 29  1  0
  3 30  1  0
  3 31  1  0
  4  5  2  0
  4 24  1  0
  5  6  1  0
  5 32  1  0
  6  7  1  0
  6 23  2  0
  7  8  1  0
  7 11  1  0
  7 33  1  6
  8  9  1  0
  8 34  1  0
  8 35  1  0
  9 10  1  0
  9 36  1  0
  9 37  1  0
 10 11  1  0
 10 38  1  0
 10 39  1  0
 11 12  1  0
 12 13  2  0
 12 14  1  0
 14 15  1  0
 14 18  2  0
 15 16  1  0
 16 17  2  0
 17 18  1  0
 17 22  1  0
 18 19  1  0
 19 20  1  0
 19 40  1  0
 19 41  1  0
 20 21  1  0
 20 42  1  0
 20 43  1  0
 21 22  1  0
 21 44  1  0
 21 45  1  0
 22 46  1  0
 22 47  1  0
 23 24  1  0
M  END

