
     RDKit          3D

102108  0  0  0  0  0  0  0  0999 V2000
    2.9905   -7.1017    1.5966 C   0  0  0  0  0  0  0  0  0  0  0  0
    1.8895   -6.9117    0.5532 C   0  0  0  0  0  0  0  0  0  0  0  0
    1.4378   -5.4460    0.2917 C   0  0  2  0  0  0  0  0  0  0  0  0
    0.3190   -5.4676   -0.7896 C   0  0  0  0  0  0  0  0  0  0  0  0
   -0.2593   -4.1100   -1.1885 C   0  0  0  0  0  0  0  0  0  0  0  0
    2.6108   -4.5535   -0.1200 C   0  0  0  0  0  0  0  0  0  0  0  0
    3.4446   -4.6694   -1.2260 C   0  0  0  0  0  0  0  0  0  0  0  0
    4.4769   -3.7297   -1.4444 C   0  0  0  0  0  0  0  0  0  0  0  0
    5.3724   -3.8441   -2.6241 C   0  0  0  0  0  0  0  0  0  0  0  0
    5.8572   -2.7031   -3.2919 C   0  0  0  0  0  0  0  0  0  0  0  0
    6.6959   -2.8111   -4.3994 C   0  0  0  0  0  0  0  0  0  0  0  0
    7.0959   -4.0657   -4.8984 C   0  0  0  0  0  0  0  0  0  0  0  0
    7.9892   -4.1804   -6.0798 C   0  0  0  0  0  0  0  0  0  0  0  0
    8.9519   -5.2086   -6.1617 C   0  0  0  0  0  0  0  0  0  0  0  0
    9.7989   -5.3321   -7.2648 C   0  0  0  0  0  0  0  0  0  0  0  0
    9.6907   -4.4152   -8.3152 C   0  0  0  0  0  0  0  0  0  0  0  0
    8.7342   -3.3790   -8.2517 C   0  0  0  0  0  0  0  0  0  0  0  0
    7.8956   -3.2621   -7.1495 C   0  0  0  0  0  0  0  0  0  0  0  0
    8.7888   -2.5085   -9.5092 C   0  0  1  0  0  0  0  0  0  0  0  0
    7.4426   -2.5329  -10.2893 C   0  0  0  0  0  0  0  0  0  0  0  0
    6.9334   -3.9108  -10.7120 C   0  0  0  0  0  0  0  0  0  0  0  0
    9.1299   -1.0278   -9.1742 C   0  0  0  0  0  0  0  0  0  0  0  0
   10.4301   -0.7930   -8.4053 C   0  0  0  0  0  0  0  0  0  0  0  0
    9.9136   -3.1906  -10.2914 C   0  0  0  0  0  0  0  0  0  0  0  0
   10.4347   -2.8477  -11.5382 C   0  0  0  0  0  0  0  0  0  0  0  0
   11.4796   -3.5981  -12.1113 C   0  0  0  0  0  0  0  0  0  0  0  0
   12.0886   -3.2600  -13.4874 C   0  0  1  0  0  0  0  0  0  0  0  0
   11.4263   -2.0293  -14.1328 C   0  0  0  0  0  0  0  0  0  0  0  0
   13.5978   -2.9634  -13.3245 C   0  0  0  0  0  0  0  0  0  0  0  0
   11.9023   -4.4622  -14.4424 C   0  0  0  0  0  0  0  0  0  0  0  0
   11.9738   -4.6997  -11.3808 C   0  0  0  0  0  0  0  0  0  0  0  0
   11.4610   -5.0536  -10.1320 C   0  0  0  0  0  0  0  0  0  0  0  0
   10.4231   -4.2942   -9.5814 C   0  0  0  0  0  0  0  0  0  0  0  0
    6.6114   -5.2067   -4.2303 C   0  0  0  0  0  0  0  0  0  0  0  0
    5.7720   -5.0987   -3.1234 C   0  0  0  0  0  0  0  0  0  0  0  0
    4.6359   -2.6809   -0.5141 C   0  0  0  0  0  0  0  0  0  0  0  0
    3.8032   -2.5580    0.5999 C   0  0  0  0  0  0  0  0  0  0  0  0
    2.7858   -3.4967    0.7992 C   0  0  0  0  0  0  0  0  0  0  0  0
    1.7715   -3.6245    1.8524 C   0  0  0  0  0  0  0  0  0  0  0  0
    1.5074   -2.8519    2.9886 C   0  0  0  0  0  0  0  0  0  0  0  0
    0.4559   -3.2177    3.8299 C   0  0  0  0  0  0  0  0  0  0  0  0
   -0.3544   -4.3445    3.5737 C   0  0  0  0  0  0  0  0  0  0  0  0
   -1.5011   -4.6940    4.5438 C   0  0  1  0  0  0  0  0  0  0  0  0
   -2.4974   -3.5128    4.6095 C   0  0  0  0  0  0  0  0  0  0  0  0
   -2.2759   -5.9496    4.1048 C   0  0  0  0  0  0  0  0  0  0  0  0
   -0.9213   -4.9558    5.9536 C   0  0  0  0  0  0  0  0  0  0  0  0
   -0.0713   -5.1074    2.4245 C   0  0  0  0  0  0  0  0  0  0  0  0
    0.9766   -4.7529    1.5759 C   0  0  0  0  0  0  0  0  0  0  0  0
    3.2375   -8.1699    1.7055 H   0  0  0  0  0  0  0  0  0  0  0  0
    2.6816   -6.7286    2.5855 H   0  0  0  0  0  0  0  0  0  0  0  0
    3.9144   -6.5735    1.3136 H   0  0  0  0  0  0  0  0  0  0  0  0
    0.9977   -7.4917    0.8498 H   0  0  0  0  0  0  0  0  0  0  0  0
    2.2169   -7.3410   -0.4102 H   0  0  0  0  0  0  0  0  0  0  0  0
   -0.4927   -6.1197   -0.4215 H   0  0  0  0  0  0  0  0  0  0  0  0
    0.7239   -5.9722   -1.6846 H   0  0  0  0  0  0  0  0  0  0  0  0
   -0.7150   -3.5940   -0.3290 H   0  0  0  0  0  0  0  0  0  0  0  0
   -1.0407   -4.2350   -1.9552 H   0  0  0  0  0  0  0  0  0  0  0  0
    0.5134   -3.4461   -1.6065 H   0  0  0  0  0  0  0  0  0  0  0  0
    3.2899   -5.4739   -1.9495 H   0  0  0  0  0  0  0  0  0  0  0  0
    5.5586   -1.7102   -2.9478 H   0  0  0  0  0  0  0  0  0  0  0  0
    7.0622   -1.8996   -4.8774 H   0  0  0  0  0  0  0  0  0  0  0  0
    9.0549   -5.9100   -5.3308 H   0  0  0  0  0  0  0  0  0  0  0  0
   10.5409   -6.1342   -7.2950 H   0  0  0  0  0  0  0  0  0  0  0  0
    7.1388   -2.4743   -7.1152 H   0  0  0  0  0  0  0  0  0  0  0  0
    7.5592   -1.8937  -11.1824 H   0  0  0  0  0  0  0  0  0  0  0  0
    6.6807   -2.0349   -9.6640 H   0  0  0  0  0  0  0  0  0  0  0  0
    7.6477   -4.4218  -11.3764 H   0  0  0  0  0  0  0  0  0  0  0  0
    5.9796   -3.8183  -11.2556 H   0  0  0  0  0  0  0  0  0  0  0  0
    6.7588   -4.5637   -9.8426 H   0  0  0  0  0  0  0  0  0  0  0  0
    8.2832   -0.6071   -8.6035 H   0  0  0  0  0  0  0  0  0  0  0  0
    9.1576   -0.4650  -10.1240 H   0  0  0  0  0  0  0  0  0  0  0  0
   10.4231   -1.3029   -7.4293 H   0  0  0  0  0  0  0  0  0  0  0  0
   10.5778    0.2827   -8.2182 H   0  0  0  0  0  0  0  0  0  0  0  0
   11.3051   -1.1569   -8.9663 H   0  0  0  0  0  0  0  0  0  0  0  0
   10.0221   -1.9882  -12.0679 H   0  0  0  0  0  0  0  0  0  0  0  0
   11.5470   -1.1256  -13.5152 H   0  0  0  0  0  0  0  0  0  0  0  0
   10.3500   -2.1845  -14.3063 H   0  0  0  0  0  0  0  0  0  0  0  0
   11.8916   -1.8252  -15.1101 H   0  0  0  0  0  0  0  0  0  0  0  0
   13.7612   -2.1063  -12.6520 H   0  0  0  0  0  0  0  0  0  0  0  0
   14.0509   -2.7221  -14.3004 H   0  0  0  0  0  0  0  0  0  0  0  0
   14.1435   -3.8236  -12.9079 H   0  0  0  0  0  0  0  0  0  0  0  0
   10.8342   -4.6935  -14.5817 H   0  0  0  0  0  0  0  0  0  0  0  0
   12.3938   -5.3702  -14.0615 H   0  0  0  0  0  0  0  0  0  0  0  0
   12.3345   -4.2392  -15.4321 H   0  0  0  0  0  0  0  0  0  0  0  0
   12.7841   -5.3021  -11.7977 H   0  0  0  0  0  0  0  0  0  0  0  0
   11.8715   -5.9147   -9.5980 H   0  0  0  0  0  0  0  0  0  0  0  0
    6.8837   -6.2000   -4.5943 H   0  0  0  0  0  0  0  0  0  0  0  0
    5.4328   -6.0097   -2.6250 H   0  0  0  0  0  0  0  0  0  0  0  0
    5.4461   -1.9620   -0.6543 H   0  0  0  0  0  0  0  0  0  0  0  0
    3.9572   -1.7394    1.3077 H   0  0  0  0  0  0  0  0  0  0  0  0
    2.1120   -1.9715    3.2221 H   0  0  0  0  0  0  0  0  0  0  0  0
    0.2616   -2.6051    4.7134 H   0  0  0  0  0  0  0  0  0  0  0  0
   -2.9325   -3.3083    3.6183 H   0  0  0  0  0  0  0  0  0  0  0  0
   -2.0156   -2.5875    4.9600 H   0  0  0  0  0  0  0  0  0  0  0  0
   -3.3230   -3.7426    5.3034 H   0  0  0  0  0  0  0  0  0  0  0  0
   -2.7413   -5.8209    3.1150 H   0  0  0  0  0  0  0  0  0  0  0  0
   -3.0833   -6.1598    4.8239 H   0  0  0  0  0  0  0  0  0  0  0  0
   -1.6289   -6.8399    4.0660 H   0  0  0  0  0  0  0  0  0  0  0  0
   -0.3891   -4.0774    6.3492 H   0  0  0  0  0  0  0  0  0  0  0  0
   -0.2109   -5.7978    5.9377 H   0  0  0  0  0  0  0  0  0  0  0  0
   -1.7284   -5.2042    6.6626 H   0  0  0  0  0  0  0  0  0  0  0  0
   -0.6723   -5.9861    2.1874 H   0  0  0  0  0  0  0  0  0  0  0  0
  1  2  1  0
  1 49  1  0
  1 50  1  0
  1 51  1  0
  3  2  1  1
  2 52  1  0
  2 53  1  0
  3  4  1  0
  3  6  1  0
  3 48  1  0
  4  5  1  0
  4 54  1  0
  4 55  1  0
  5 56  1  0
  5 57  1  0
  5 58  1  0
  6  7  2  0
  6 38  1  0
  7  8  1  0
  7 59  1  0
  8  9  1  0
  8 36  2  0
  9 10  2  0
  9 35  1  0
 10 11  1  0
 10 60  1  0
 11 12  2  0
 11 61  1  0
 12 13  1  0
 12 34  1  0
 13 14  2  0
 13 18  1  0
 14 15  1  0
 14 62  1  0
 15 16  2  0
 15 63  1  0
 16 17  1  0
 16 33  1  0
 17 18  2  0
 17 19  1  0
 18 64  1  0
 19 20  1  6
 19 22  1  0
 19 24  1  0
 20 21  1  0
 20 65  1  0
 20 66  1  0
 21 67  1  0
 21 68  1  0
 21 69  1  0
 22 23  1  0
 22 70  1  0
 22 71  1  0
 23 72  1  0
 23 73  1  0
 23 74  1  0
 24 25  1  0
 24 33  2  0
 25 26  2  0
 25 75  1  0
 26 27  1  0
 26 31  1  0
 27 28  1  6
 27 29  1  0
 27 30  1  0
 28 76  1  0
 28 77  1  0
 28 78  1  0
 29 79  1  0
 29 80  1  0
 29 81  1  0
 30 82  1  0
 30 83  1  0
 30 84  1  0
 31 32  2  0
 31 85  1  0
 32 33  1  0
 32 86  1  0
 34 35  2  0
 34 87  1  0
 35 88  1  0
 36 37  1  0
 36 89  1  0
 37 38  2  0
 37 90  1  0
 38 39  1  0
 39 40  2  0
 39 48  1  0
 40 41  1  0
 40 91  1  0
 41 42  2  0
 41 92  1  0
 42 43  1  0
 42 47  1  0
 43 44  1  1
 43 45  1  0
 43 46  1  0
 44 93  1  0
 44 94  1  0
 44 95  1  0
 45 96  1  0
 45 97  1  0
 45 98  1  0
 46 99  1  0
 46100  1  0
 46101  1  0
 47 48  2  0
 47102  1  0
M  END

