
     RDKit          3D

 72 73  0  0  0  0  0  0  0  0999 V2000
   13.3399    7.4758  -11.4021 C   0  0  0  0  0  0  0  0  0  0  0  0
   12.4325    6.2680  -11.6408 C   0  0  0  0  0  0  0  0  0  0  0  0
   12.4251    5.2675  -10.4808 C   0  0  0  0  0  0  0  0  0  0  0  0
   11.5186    4.0550  -10.7117 C   0  0  0  0  0  0  0  0  0  0  0  0
   11.5119    3.0552   -9.5516 C   0  0  0  0  0  0  0  0  0  0  0  0
   10.6046    1.8435   -9.7833 C   0  0  0  0  0  0  0  0  0  0  0  0
   10.6002    0.8444   -8.6223 C   0  0  0  0  0  0  0  0  0  0  0  0
    9.6895   -0.3634   -8.8594 C   0  0  0  0  0  0  0  0  0  0  0  0
    9.7013   -1.3506   -7.7042 C   0  0  0  0  0  0  0  0  0  0  0  0
    8.8239   -2.4308   -8.0142 O   0  0  0  0  0  0  0  0  0  0  0  0
    8.6260   -3.3696   -7.0160 C   0  0  2  0  0  0  0  0  0  0  0  0
    8.2977   -2.8826   -6.0682 H   0  0  0  0  0  0  0  0  0  0  0  0
    9.8368   -4.0579   -6.7811 O   0  0  0  0  0  0  0  0  0  0  0  0
    9.7318   -5.0950   -5.8075 C   0  0  2  0  0  0  0  0  0  0  0  0
   11.1571   -5.5636   -5.5242 C   0  0  0  0  0  0  0  0  0  0  0  0
   11.9792   -4.4847   -5.1572 O   0  0  0  0  0  0  0  0  0  0  0  0
    8.7862   -6.1806   -6.3412 C   0  0  1  0  0  0  0  0  0  0  0  0
    9.2117   -6.5748   -7.2793 H   0  0  0  0  0  0  0  0  0  0  0  0
    8.6908   -7.2167   -5.3664 O   0  0  0  0  0  0  0  0  0  0  0  0
    8.4055   -8.4996   -5.8602 C   0  0  1  0  0  0  0  0  0  0  0  0
    7.6161   -8.4538   -6.6231 H   0  0  0  0  0  0  0  0  0  0  0  0
    9.5193   -9.0931   -6.5056 O   0  0  0  0  0  0  0  0  0  0  0  0
   10.6703   -9.3144   -5.6681 C   0  0  2  0  0  0  0  0  0  0  0  0
   11.7845   -9.7760   -6.5937 C   0  0  0  0  0  0  0  0  0  0  0  0
   12.0474   -8.8149   -7.5907 O   0  0  0  0  0  0  0  0  0  0  0  0
   10.2981  -10.2899   -4.5556 C   0  0  1  0  0  0  0  0  0  0  0  0
    9.9815  -11.2473   -5.0260 H   0  0  0  0  0  0  0  0  0  0  0  0
   11.4099  -10.4949   -3.7187 O   0  0  0  0  0  0  0  0  0  0  0  0
    9.1077   -9.7346   -3.7609 C   0  0  2  0  0  0  0  0  0  0  0  0
    8.7096  -10.6596   -2.7692 O   0  0  0  0  0  0  0  0  0  0  0  0
    7.9432   -9.3848   -4.6970 C   0  0  2  0  0  0  0  0  0  0  0  0
    7.3591  -10.5838   -5.1937 O   0  0  0  0  0  0  0  0  0  0  0  0
    7.4029   -5.5679   -6.6325 C   0  0  2  0  0  0  0  0  0  0  0  0
    6.5163   -6.4843   -7.2382 O   0  0  0  0  0  0  0  0  0  0  0  0
    7.5336   -4.3206   -7.5156 C   0  0  2  0  0  0  0  0  0  0  0  0
    7.8372   -4.7892   -8.8146 O   0  0  0  0  0  0  0  0  0  0  0  0
   13.3204    8.1727  -12.2552 H   0  0  0  0  0  0  0  0  0  0  0  0
   14.3876    7.1665  -11.2495 H   0  0  0  0  0  0  0  0  0  0  0  0
   13.0303    8.0391  -10.5056 H   0  0  0  0  0  0  0  0  0  0  0  0
   12.7450    5.7487  -12.5652 H   0  0  0  0  0  0  0  0  0  0  0  0
   11.3994    6.6138  -11.8277 H   0  0  0  0  0  0  0  0  0  0  0  0
   12.1124    5.7860   -9.5549 H   0  0  0  0  0  0  0  0  0  0  0  0
   13.4585    4.9202  -10.2930 H   0  0  0  0  0  0  0  0  0  0  0  0
   11.8313    3.5369  -11.6375 H   0  0  0  0  0  0  0  0  0  0  0  0
   10.4854    4.4025  -10.8992 H   0  0  0  0  0  0  0  0  0  0  0  0
   11.1995    3.5729   -8.6255 H   0  0  0  0  0  0  0  0  0  0  0  0
   12.5448    2.7068   -9.3643 H   0  0  0  0  0  0  0  0  0  0  0  0
   10.9164    1.3245  -10.7085 H   0  0  0  0  0  0  0  0  0  0  0  0
    9.5712    2.1903   -9.9689 H   0  0  0  0  0  0  0  0  0  0  0  0
   10.2898    1.3640   -7.6969 H   0  0  0  0  0  0  0  0  0  0  0  0
   11.6333    0.4958   -8.4385 H   0  0  0  0  0  0  0  0  0  0  0  0
    9.9983   -0.8942   -9.7771 H   0  0  0  0  0  0  0  0  0  0  0  0
    8.6506   -0.0299   -9.0278 H   0  0  0  0  0  0  0  0  0  0  0  0
    9.3637   -0.8632   -6.7679 H   0  0  0  0  0  0  0  0  0  0  0  0
   10.7208   -1.7350   -7.5275 H   0  0  0  0  0  0  0  0  0  0  0  0
    9.3117   -4.6752   -4.8700 H   0  0  0  0  0  0  0  0  0  0  0  0
   11.5471   -6.1143   -6.4044 H   0  0  0  0  0  0  0  0  0  0  0  0
   11.1379   -6.2661   -4.6791 H   0  0  0  0  0  0  0  0  0  0  0  0
   11.8840   -3.8224   -5.8563 H   0  0  0  0  0  0  0  0  0  0  0  0
   10.9763   -8.3623   -5.2072 H   0  0  0  0  0  0  0  0  0  0  0  0
   11.5095  -10.7588   -7.0304 H   0  0  0  0  0  0  0  0  0  0  0  0
   12.7014   -9.9174   -6.0036 H   0  0  0  0  0  0  0  0  0  0  0  0
   11.1977   -8.6295   -8.0161 H   0  0  0  0  0  0  0  0  0  0  0  0
   11.0706  -10.9265   -2.9196 H   0  0  0  0  0  0  0  0  0  0  0  0
    9.4460   -8.8231   -3.2411 H   0  0  0  0  0  0  0  0  0  0  0  0
    8.1158  -11.2839   -3.2186 H   0  0  0  0  0  0  0  0  0  0  0  0
    7.1549   -8.8621   -4.1356 H   0  0  0  0  0  0  0  0  0  0  0  0
    7.9045  -10.8905   -5.9335 H   0  0  0  0  0  0  0  0  0  0  0  0
    6.9600   -5.2863   -5.6615 H   0  0  0  0  0  0  0  0  0  0  0  0
    6.7148   -6.4582   -8.1886 H   0  0  0  0  0  0  0  0  0  0  0  0
    6.5705   -3.7726   -7.5119 H   0  0  0  0  0  0  0  0  0  0  0  0
    8.1879   -4.0361   -9.3142 H   0  0  0  0  0  0  0  0  0  0  0  0
  1  2  1  0
  1 37  1  0
  1 38  1  0
  1 39  1  0
  2  3  1  0
  2 40  1  0
  2 41  1  0
  3  4  1  0
  3 42  1  0
  3 43  1  0
  4  5  1  0
  4 44  1  0
  4 45  1  0
  5  6  1  0
  5 46  1  0
  5 47  1  0
  6  7  1  0
  6 48  1  0
  6 49  1  0
  7  8  1  0
  7 50  1  0
  7 51  1  0
  8  9  1  0
  8 52  1  0
  8 53  1  0
  9 10  1  0
  9 54  1  0
  9 55  1  0
 10 11  1  0
 11 12  1  1
 11 13  1  0
 11 35  1  0
 13 14  1  0
 14 15  1  0
 14 17  1  0
 14 56  1  1
 15 16  1  0
 15 57  1  0
 15 58  1  0
 16 59  1  0
 17 18  1  6
 17 19  1  0
 17 33  1  0
 19 20  1  0
 20 21  1  6
 20 22  1  0
 20 31  1  0
 22 23  1  0
 23 24  1  0
 23 26  1  0
 23 60  1  1
 24 25  1  0
 24 61  1  0
 24 62  1  0
 25 63  1  0
 26 27  1  6
 26 28  1  0
 26 29  1  0
 28 64  1  0
 29 30  1  0
 29 31  1  0
 29 65  1  1
 30 66  1  0
 31 32  1  0
 31 67  1  1
 32 68  1  0
 33 34  1  0
 33 35  1  0
 33 69  1  1
 34 70  1  0
 35 36  1  0
 35 71  1  6
 36 72  1  0
M  END

