
     RDKit          3D

 27 28  0  0  0  0  0  0  0  0999 V2000
    0.6497   -0.1041    0.0727 C   0  0  0  0  0  0  0  0  0  0  0  0
    2.1821   -0.0296   -0.0304 C   0  0  1  0  0  0  0  0  0  0  0  0
    2.6977    1.3092    0.2154 N   0  0  0  0  0  0  0  0  0  0  0  0
    2.6377    2.3734   -0.6463 C   0  0  0  0  0  0  0  0  0  0  0  0
    2.1686    2.2679   -1.9773 C   0  0  0  0  0  0  0  0  0  0  0  0
    2.1515    3.3697   -2.8329 C   0  0  0  0  0  0  0  0  0  0  0  0
    2.5932    4.6230   -2.4027 C   0  0  0  0  0  0  0  0  0  0  0  0
    3.0581    4.7596   -1.0909 C   0  0  0  0  0  0  0  0  0  0  0  0
    3.0773    3.6612   -0.2372 C   0  0  0  0  0  0  0  0  0  0  0  0
    3.6715    3.8675    1.4102 Cl  0  0  0  0  0  0  0  0  0  0  0  0
    2.8470   -1.0013    0.9300 C   0  0  1  0  0  0  0  0  0  0  0  0
    3.0974   -2.4293    0.5192 C   0  0  0  0  0  0  0  0  0  0  0  0
    4.2551   -1.4771    0.6862 C   0  0  0  0  0  0  0  0  0  0  0  0
    0.1659    0.6042   -0.6165 H   0  0  0  0  0  0  0  0  0  0  0  0
    0.3227    0.1454    1.0951 H   0  0  0  0  0  0  0  0  0  0  0  0
    0.2912   -1.1182   -0.1653 H   0  0  0  0  0  0  0  0  0  0  0  0
    2.4788   -0.3245   -1.0539 H   0  0  0  0  0  0  0  0  0  0  0  0
    3.0190    1.5178    1.1531 H   0  0  0  0  0  0  0  0  0  0  0  0
    1.8140    1.3044   -2.3447 H   0  0  0  0  0  0  0  0  0  0  0  0
    1.7821    3.2405   -3.8537 H   0  0  0  0  0  0  0  0  0  0  0  0
    2.5768    5.4857   -3.0716 H   0  0  0  0  0  0  0  0  0  0  0  0
    3.4108    5.7226   -0.7166 H   0  0  0  0  0  0  0  0  0  0  0  0
    2.5584   -0.8470    1.9780 H   0  0  0  0  0  0  0  0  0  0  0  0
    2.8196   -2.7248   -0.4975 H   0  0  0  0  0  0  0  0  0  0  0  0
    2.9546   -3.2164    1.2648 H   0  0  0  0  0  0  0  0  0  0  0  0
    4.7598   -1.1178   -0.2156 H   0  0  0  0  0  0  0  0  0  0  0  0
    4.9174   -1.6066    1.5466 H   0  0  0  0  0  0  0  0  0  0  0  0
  1  2  1  0
  1 14  1  0
  1 15  1  0
  1 16  1  0
  2  3  1  0
  2 11  1  0
  2 17  1  6
  3  4  1  0
  3 18  1  0
  4  5  2  0
  4  9  1  0
  5  6  1  0
  5 19  1  0
  6  7  2  0
  6 20  1  0
  7  8  1  0
  7 21  1  0
  8  9  2  0
  8 22  1  0
  9 10  1  0
 11 12  1  0
 11 13  1  0
 11 23  1  1
 12 13  1  0
 12 24  1  0
 12 25  1  0
 13 26  1  0
 13 27  1  0
M  END

