
     RDKit          3D

 36 36  0  0  0  0  0  0  0  0999 V2000
    2.0926    0.2858   -0.9948 C   0  0  0  0  0  0  0  0  0  0  0  0
    2.2026    0.9420    0.3831 C   0  0  0  0  0  0  0  0  0  0  0  0
    2.8222    0.1052    1.4124 N   0  0  0  0  0  0  0  0  0  0  0  0
    2.0014   -0.8270    2.1620 C   0  0  0  0  0  0  0  0  0  0  0  0
    2.0157   -2.2812    1.6394 C   0  0  0  0  0  0  0  0  0  0  0  0
    1.7345   -3.2940    2.7436 C   0  0  0  0  0  0  0  0  0  0  0  0
    2.0531   -3.1219    3.8914 O   0  0  0  0  0  0  0  0  0  0  0  0
    1.1423   -4.4435    2.3665 O   0  0  0  0  0  0  0  0  0  0  0  0
    4.2132    0.1268    1.4818 C   0  0  0  0  0  0  0  0  0  0  0  0
    4.8772    0.7965    0.7050 O   0  0  0  0  0  0  0  0  0  0  0  0
    4.7611   -0.6662    2.4801 N   0  0  0  0  0  0  0  0  0  0  0  0
    6.1266   -0.8765    2.7734 C   0  0  0  0  0  0  0  0  0  0  0  0
    7.1584   -0.5029    1.8950 C   0  0  0  0  0  0  0  0  0  0  0  0
    8.4885   -0.7684    2.2253 C   0  0  0  0  0  0  0  0  0  0  0  0
    8.8106   -1.4052    3.4245 C   0  0  0  0  0  0  0  0  0  0  0  0
    7.7825   -1.7695    4.2970 C   0  0  0  0  0  0  0  0  0  0  0  0
    6.4373   -1.5153    4.0019 C   0  0  0  0  0  0  0  0  0  0  0  0
    5.3532   -1.8972    4.9819 C   0  0  0  0  0  0  0  0  0  0  0  0
    1.6347    0.9836   -1.7146 H   0  0  0  0  0  0  0  0  0  0  0  0
    1.4700   -0.6241   -0.9727 H   0  0  0  0  0  0  0  0  0  0  0  0
    3.0922    0.0191   -1.3691 H   0  0  0  0  0  0  0  0  0  0  0  0
    1.2051    1.2352    0.7507 H   0  0  0  0  0  0  0  0  0  0  0  0
    2.8058    1.8558    0.2978 H   0  0  0  0  0  0  0  0  0  0  0  0
    0.9690   -0.4466    2.1571 H   0  0  0  0  0  0  0  0  0  0  0  0
    2.2904   -0.8449    3.2251 H   0  0  0  0  0  0  0  0  0  0  0  0
    3.0262   -2.5165    1.2621 H   0  0  0  0  0  0  0  0  0  0  0  0
    1.3252   -2.4079    0.7896 H   0  0  0  0  0  0  0  0  0  0  0  0
    0.9494   -4.4332    1.4181 H   0  0  0  0  0  0  0  0  0  0  0  0
    4.1244   -1.0722    3.1520 H   0  0  0  0  0  0  0  0  0  0  0  0
    6.9029    0.0043    0.9681 H   0  0  0  0  0  0  0  0  0  0  0  0
    9.2781   -0.4695    1.5307 H   0  0  0  0  0  0  0  0  0  0  0  0
    9.8513   -1.6142    3.6835 H   0  0  0  0  0  0  0  0  0  0  0  0
    8.0243   -2.2628    5.2428 H   0  0  0  0  0  0  0  0  0  0  0  0
    5.7819   -2.3919    5.8646 H   0  0  0  0  0  0  0  0  0  0  0  0
    4.6044   -2.5883    4.5564 H   0  0  0  0  0  0  0  0  0  0  0  0
    4.7984   -1.0120    5.3425 H   0  0  0  0  0  0  0  0  0  0  0  0
  1  2  1  0
  1 19  1  0
  1 20  1  0
  1 21  1  0
  2  3  1  0
  2 22  1  0
  2 23  1  0
  3  4  1  0
  3  9  1  0
  4  5  1  0
  4 24  1  0
  4 25  1  0
  5  6  1  0
  5 26  1  0
  5 27  1  0
  6  7  2  0
  6  8  1  0
  8 28  1  0
  9 10  2  0
  9 11  1  0
 11 12  1  0
 11 29  1  0
 12 13  2  0
 12 17  1  0
 13 14  1  0
 13 30  1  0
 14 15  2  0
 14 31  1  0
 15 16  1  0
 15 32  1  0
 16 17  2  0
 16 33  1  0
 17 18  1  0
 18 34  1  0
 18 35  1  0
 18 36  1  0
M  END

