
     RDKit          3D

 49 52  0  0  0  0  0  0  0  0999 V2000
    2.3913   -0.6797    3.0219 C   0  0  0  0  0  0  0  0  0  0  0  0
    3.8012   -0.7489    2.4896 C   0  0  0  0  0  0  0  0  0  0  0  0
    4.5196    0.4114    2.1594 C   0  0  0  0  0  0  0  0  0  0  0  0
    5.8171    0.3441    1.6545 C   0  0  0  0  0  0  0  0  0  0  0  0
    6.4474   -0.8983    1.4616 C   0  0  0  0  0  0  0  0  0  0  0  0
    7.8174   -0.9375    0.9294 C   0  0  0  0  0  0  0  0  0  0  0  0
    8.5106    0.1202    0.6009 N   0  0  0  0  0  0  0  0  0  0  0  0
    9.7596   -0.1918    0.1253 C   0  0  0  0  0  0  0  0  0  0  0  0
   10.6477    0.9714   -0.2452 C   0  0  0  0  0  0  0  0  0  0  0  0
   11.7845    0.6824   -1.2272 C   0  0  0  0  0  0  0  0  0  0  0  0
   12.2474   -0.4410   -1.3574 O   0  0  0  0  0  0  0  0  0  0  0  0
   12.2509    1.7585   -1.9596 N   0  0  0  0  0  0  0  0  0  0  0  0
   12.1521    3.1357   -1.4876 C   0  0  0  0  0  0  0  0  0  0  0  0
   13.4792    3.6815   -0.9340 C   0  0  0  0  0  0  0  0  0  0  0  0
   13.4984    4.6898   -0.2522 O   0  0  0  0  0  0  0  0  0  0  0  0
   14.6040    2.9841   -1.2705 N   0  0  0  0  0  0  0  0  0  0  0  0
   14.6970    1.7926   -2.1147 C   0  0  2  0  0  0  0  0  0  0  0  0
   15.8911    1.8816   -3.0745 C   0  0  0  0  0  0  0  0  0  0  0  0
   15.9264    0.6839   -4.0322 C   0  0  0  0  0  0  0  0  0  0  0  0
   14.6017    0.5362   -4.7938 C   0  0  0  0  0  0  0  0  0  0  0  0
   13.4117    0.4196   -3.8304 C   0  0  0  0  0  0  0  0  0  0  0  0
   13.3832    1.6337   -2.8948 C   0  0  1  0  0  0  0  0  0  0  0  0
   10.0436   -1.5359    0.0874 C   0  0  0  0  0  0  0  0  0  0  0  0
    8.6916   -2.4433    0.6645 S   0  0  0  0  0  0  0  0  0  0  0  0
    5.7328   -2.0644    1.7922 C   0  0  0  0  0  0  0  0  0  0  0  0
    4.4366   -1.9875    2.2962 C   0  0  0  0  0  0  0  0  0  0  0  0
    2.0979    0.3537    3.2586 H   0  0  0  0  0  0  0  0  0  0  0  0
    2.2762   -1.2838    3.9367 H   0  0  0  0  0  0  0  0  0  0  0  0
    1.6676   -1.0714    2.2863 H   0  0  0  0  0  0  0  0  0  0  0  0
    4.0523    1.3900    2.3022 H   0  0  0  0  0  0  0  0  0  0  0  0
    6.3677    1.2516    1.4019 H   0  0  0  0  0  0  0  0  0  0  0  0
   11.1030    1.3761    0.6794 H   0  0  0  0  0  0  0  0  0  0  0  0
    9.9910    1.7689   -0.6202 H   0  0  0  0  0  0  0  0  0  0  0  0
   11.4141    3.2508   -0.6888 H   0  0  0  0  0  0  0  0  0  0  0  0
   11.8370    3.8031   -2.3098 H   0  0  0  0  0  0  0  0  0  0  0  0
   15.4584    3.3466   -0.8550 H   0  0  0  0  0  0  0  0  0  0  0  0
   14.8181    0.8936   -1.4803 H   0  0  0  0  0  0  0  0  0  0  0  0
   16.8294    1.9454   -2.4964 H   0  0  0  0  0  0  0  0  0  0  0  0
   15.8080    2.8224   -3.6480 H   0  0  0  0  0  0  0  0  0  0  0  0
   16.1194   -0.2392   -3.4566 H   0  0  0  0  0  0  0  0  0  0  0  0
   16.7675    0.7935   -4.7360 H   0  0  0  0  0  0  0  0  0  0  0  0
   14.6358   -0.3504   -5.4474 H   0  0  0  0  0  0  0  0  0  0  0  0
   14.4651    1.4083   -5.4599 H   0  0  0  0  0  0  0  0  0  0  0  0
   13.4856   -0.5040   -3.2437 H   0  0  0  0  0  0  0  0  0  0  0  0
   12.4603    0.3706   -4.3845 H   0  0  0  0  0  0  0  0  0  0  0  0
   13.2985    2.5238   -3.5463 H   0  0  0  0  0  0  0  0  0  0  0  0
   10.9585   -2.0070   -0.2579 H   0  0  0  0  0  0  0  0  0  0  0  0
    6.1942   -3.0463    1.6560 H   0  0  0  0  0  0  0  0  0  0  0  0
    3.9052   -2.9104    2.5464 H   0  0  0  0  0  0  0  0  0  0  0  0
  1  2  1  0
  1 27  1  0
  1 28  1  0
  1 29  1  0
  2  3  2  0
  2 26  1  0
  3  4  1  0
  3 30  1  0
  4  5  2  0
  4 31  1  0
  5  6  1  0
  5 25  1  0
  6  7  2  0
  6 24  1  0
  7  8  1  0
  8  9  1  0
  8 23  2  0
  9 10  1  0
  9 32  1  0
  9 33  1  0
 10 11  2  0
 10 12  1  0
 12 13  1  0
 12 22  1  0
 13 14  1  0
 13 34  1  0
 13 35  1  0
 14 15  2  0
 14 16  1  0
 16 17  1  0
 16 36  1  0
 17 18  1  0
 17 22  1  0
 17 37  1  1
 18 19  1  0
 18 38  1  0
 18 39  1  0
 19 20  1  0
 19 40  1  0
 19 41  1  0
 20 21  1  0
 20 42  1  0
 20 43  1  0
 21 22  1  0
 21 44  1  0
 21 45  1  0
 22 46  1  6
 23 24  1  0
 23 47  1  0
 25 26  2  0
 25 48  1  0
 26 49  1  0
M  END

