
     RDKit          3D

 33 35  0  0  0  0  0  0  0  0999 V2000
    2.0747    0.5665    1.0250 C   0  0  0  0  0  0  0  0  0  0  0  0
    2.5405    0.0509   -0.2030 O   0  0  0  0  0  0  0  0  0  0  0  0
    2.8375    0.8996   -1.2142 C   0  0  0  0  0  0  0  0  0  0  0  0
    2.7184    2.2977   -1.1411 C   0  0  0  0  0  0  0  0  0  0  0  0
    3.0524    3.0817   -2.2458 C   0  0  0  0  0  0  0  0  0  0  0  0
    3.5108    2.5008   -3.4444 C   0  0  0  0  0  0  0  0  0  0  0  0
    3.8522    3.2987   -4.5734 C   0  0  0  0  0  0  0  0  0  0  0  0
    4.1518    3.9573   -5.5565 C   0  0  0  0  0  0  0  0  0  0  0  0
    4.5040    4.7068   -6.7073 C   0  0  0  0  0  0  0  0  0  0  0  0
    4.4300    6.0747   -6.7685 C   0  0  0  0  0  0  0  0  0  0  0  0
    4.7973    6.7934   -7.9560 C   0  0  0  0  0  0  0  0  0  0  0  0
    4.7417    8.1991   -8.0779 C   0  0  0  0  0  0  0  0  0  0  0  0
    5.1143    8.8229   -9.2624 C   0  0  0  0  0  0  0  0  0  0  0  0
    5.5519    8.0514  -10.3531 C   0  0  0  0  0  0  0  0  0  0  0  0
    5.6166    6.6625  -10.2604 C   0  0  0  0  0  0  0  0  0  0  0  0
    5.2400    6.0413   -9.0656 C   0  0  0  0  0  0  0  0  0  0  0  0
    5.3130    4.6865   -9.0028 O   0  0  0  0  0  0  0  0  0  0  0  0
    4.9735    3.9357   -7.8893 C   0  0  0  0  0  0  0  0  0  0  0  0
    5.0795    2.7431   -7.9546 O   0  0  0  0  0  0  0  0  0  0  0  0
    3.6252    1.0900   -3.5009 C   0  0  0  0  0  0  0  0  0  0  0  0
    3.2948    0.3059   -2.4069 C   0  0  0  0  0  0  0  0  0  0  0  0
    1.9031   -0.2972    1.6811 H   0  0  0  0  0  0  0  0  0  0  0  0
    1.1255    1.1187    0.9047 H   0  0  0  0  0  0  0  0  0  0  0  0
    2.8175    1.2333    1.4985 H   0  0  0  0  0  0  0  0  0  0  0  0
    2.3674    2.7846   -0.2313 H   0  0  0  0  0  0  0  0  0  0  0  0
    2.9573    4.1677   -2.1820 H   0  0  0  0  0  0  0  0  0  0  0  0
    4.0841    6.6344   -5.8960 H   0  0  0  0  0  0  0  0  0  0  0  0
    4.4000    8.7889   -7.2232 H   0  0  0  0  0  0  0  0  0  0  0  0
    5.0677    9.9108   -9.3466 H   0  0  0  0  0  0  0  0  0  0  0  0
    5.8449    8.5419  -11.2844 H   0  0  0  0  0  0  0  0  0  0  0  0
    5.9528    6.0425  -11.0931 H   0  0  0  0  0  0  0  0  0  0  0  0
    3.9790    0.6235   -4.4225 H   0  0  0  0  0  0  0  0  0  0  0  0
    3.3803   -0.7819   -2.4429 H   0  0  0  0  0  0  0  0  0  0  0  0
  1  2  1  0
  1 22  1  0
  1 23  1  0
  1 24  1  0
  2  3  1  0
  3  4  2  0
  3 21  1  0
  4  5  1  0
  4 25  1  0
  5  6  2  0
  5 26  1  0
  6  7  1  0
  6 20  1  0
  7  8  3  0
  8  9  1  0
  9 10  2  0
  9 18  1  0
 10 11  1  0
 10 27  1  0
 11 12  2  0
 11 16  1  0
 12 13  1  0
 12 28  1  0
 13 14  2  0
 13 29  1  0
 14 15  1  0
 14 30  1  0
 15 16  2  0
 15 31  1  0
 16 17  1  0
 17 18  1  0
 18 19  2  0
 20 21  2  0
 20 32  1  0
 21 33  1  0
M  END

