
     RDKit          3D

 41 43  0  0  0  0  0  0  0  0999 V2000
    1.4291   -0.5033    0.2695 C   0  0  0  0  0  0  0  0  0  0  0  0
    2.8255   -0.1303    0.3276 N   0  0  0  0  0  0  0  0  0  0  0  0
    3.4208    1.1548    0.3923 C   0  0  0  0  0  0  0  0  0  0  0  0
    2.7770    2.4604    0.6515 C   0  0  0  0  0  0  0  0  0  0  0  0
    3.3923    3.5109    0.4851 O   0  0  0  0  0  0  0  0  0  0  0  0
    1.4721    2.4554    1.0805 N   0  0  0  0  0  0  0  0  0  0  0  0
    0.7707    3.6867    1.4166 C   0  0  1  0  0  0  0  0  0  0  0  0
   -0.7261    3.5497    1.1027 C   0  0  0  0  0  0  0  0  0  0  0  0
   -1.5371    4.6920    1.6611 C   0  0  0  0  0  0  0  0  0  0  0  0
   -1.0674    5.5579    2.5690 C   0  0  0  0  0  0  0  0  0  0  0  0
    0.3190    5.4741    3.1539 C   0  0  0  0  0  0  0  0  0  0  0  0
    0.9856    4.1200    2.8769 C   0  0  0  0  0  0  0  0  0  0  0  0
    4.7731    0.9770    0.2229 C   0  0  0  0  0  0  0  0  0  0  0  0
    5.0013   -0.3799    0.0727 N   0  0  0  0  0  0  0  0  0  0  0  0
    3.8039   -1.0901    0.1050 C   0  0  0  0  0  0  0  0  0  0  0  0
    3.6588   -2.2910   -0.0550 O   0  0  0  0  0  0  0  0  0  0  0  0
    6.2782   -1.0069   -0.2420 C   0  0  0  0  0  0  0  0  0  0  0  0
    7.4336   -0.0825    0.1390 C   0  0  0  0  0  0  0  0  0  0  0  0
    7.1849    1.3398   -0.3764 C   0  0  0  0  0  0  0  0  0  0  0  0
    5.9215    1.9425    0.2558 C   0  0  0  0  0  0  0  0  0  0  0  0
    0.8740    0.1260   -0.4424 H   0  0  0  0  0  0  0  0  0  0  0  0
    0.9374   -0.4530    1.2582 H   0  0  0  0  0  0  0  0  0  0  0  0
    1.3931   -1.5504   -0.0617 H   0  0  0  0  0  0  0  0  0  0  0  0
    1.0619    1.5870    1.3984 H   0  0  0  0  0  0  0  0  0  0  0  0
    1.2056    4.4654    0.7717 H   0  0  0  0  0  0  0  0  0  0  0  0
   -1.1095    2.5936    1.5153 H   0  0  0  0  0  0  0  0  0  0  0  0
   -0.8714    3.4755    0.0109 H   0  0  0  0  0  0  0  0  0  0  0  0
   -2.5604    4.8033    1.2865 H   0  0  0  0  0  0  0  0  0  0  0  0
   -1.7097    6.3773    2.9106 H   0  0  0  0  0  0  0  0  0  0  0  0
    0.2791    5.6638    4.2408 H   0  0  0  0  0  0  0  0  0  0  0  0
    0.9392    6.2929    2.7405 H   0  0  0  0  0  0  0  0  0  0  0  0
    0.5573    3.3502    3.5451 H   0  0  0  0  0  0  0  0  0  0  0  0
    2.0651    4.1702    3.0848 H   0  0  0  0  0  0  0  0  0  0  0  0
    6.3111   -1.2343   -1.3235 H   0  0  0  0  0  0  0  0  0  0  0  0
    6.3217   -1.9724    0.2835 H   0  0  0  0  0  0  0  0  0  0  0  0
    8.3682   -0.4961   -0.2718 H   0  0  0  0  0  0  0  0  0  0  0  0
    7.5489   -0.0626    1.2374 H   0  0  0  0  0  0  0  0  0  0  0  0
    7.0795    1.3159   -1.4761 H   0  0  0  0  0  0  0  0  0  0  0  0
    8.0489    1.9867   -0.1586 H   0  0  0  0  0  0  0  0  0  0  0  0
    5.6146    2.8797   -0.2252 H   0  0  0  0  0  0  0  0  0  0  0  0
    6.1284    2.2080    1.3095 H   0  0  0  0  0  0  0  0  0  0  0  0
  1  2  1  0
  1 21  1  0
  1 22  1  0
  1 23  1  0
  2  3  1  0
  2 15  1  0
  3  4  1  0
  3 13  2  0
  4  5  2  0
  4  6  1  0
  6  7  1  0
  6 24  1  0
  7  8  1  0
  7 12  1  0
  7 25  1  6
  8  9  1  0
  8 26  1  0
  8 27  1  0
  9 10  2  0
  9 28  1  0
 10 11  1  0
 10 29  1  0
 11 12  1  0
 11 30  1  0
 11 31  1  0
 12 32  1  0
 12 33  1  0
 13 14  1  0
 13 20  1  0
 14 15  1  0
 14 17  1  0
 15 16  2  0
 17 18  1  0
 17 34  1  0
 17 35  1  0
 18 19  1  0
 18 36  1  0
 18 37  1  0
 19 20  1  0
 19 38  1  0
 19 39  1  0
 20 40  1  0
 20 41  1  0
M  END

