
     RDKit          3D

 37 39  0  0  0  0  0  0  0  0999 V2000
    2.6917   -0.8955   -2.9601 C   0  0  0  0  0  0  0  0  0  0  0  0
    3.5713    0.0853   -2.2475 C   0  0  0  0  0  0  0  0  0  0  0  0
    4.0610   -0.0879   -1.0541 N   0  0  0  0  0  0  0  0  0  0  0  0
    4.8299    0.9800   -0.6448 C   0  0  0  0  0  0  0  0  0  0  0  0
    5.5093    0.9403    0.7015 C   0  0  0  0  0  0  0  0  0  0  0  0
    6.8063    0.2530    0.6772 N   0  0  0  0  0  0  0  0  0  0  0  0
    6.7760   -1.2058    0.7479 C   0  0  0  0  0  0  0  0  0  0  0  0
    7.9026    1.0393    0.4698 C   0  0  0  0  0  0  0  0  0  0  0  0
    7.8218    2.2410    0.2316 O   0  0  0  0  0  0  0  0  0  0  0  0
    9.2775    0.4534    0.5562 C   0  0  0  0  0  0  0  0  0  0  0  0
   10.4531    1.0451    0.1912 C   0  0  0  0  0  0  0  0  0  0  0  0
   11.4517    0.0872    0.5521 C   0  0  0  0  0  0  0  0  0  0  0  0
   12.9163    0.1745    0.3919 C   0  0  0  0  0  0  0  0  0  0  0  0
   13.5102    1.3139   -0.1761 C   0  0  0  0  0  0  0  0  0  0  0  0
   14.8967    1.3923   -0.3256 C   0  0  0  0  0  0  0  0  0  0  0  0
   15.7086    0.3337    0.0903 C   0  0  0  0  0  0  0  0  0  0  0  0
   15.1254   -0.8053    0.6576 C   0  0  0  0  0  0  0  0  0  0  0  0
   13.7417   -0.8867    0.8081 C   0  0  0  0  0  0  0  0  0  0  0  0
   10.8930   -0.9816    1.0938 N   0  0  0  0  0  0  0  0  0  0  0  0
    9.5382   -0.7556    1.0976 O   0  0  0  0  0  0  0  0  0  0  0  0
    4.9373    2.0004   -1.5549 C   0  0  0  0  0  0  0  0  0  0  0  0
    4.0340    1.6179   -2.9789 S   0  0  0  0  0  0  0  0  0  0  0  0
    2.5364   -1.7639   -2.3058 H   0  0  0  0  0  0  0  0  0  0  0  0
    3.1474   -1.2395   -3.9029 H   0  0  0  0  0  0  0  0  0  0  0  0
    1.7106   -0.4579   -3.2057 H   0  0  0  0  0  0  0  0  0  0  0  0
    4.8589    0.4107    1.4139 H   0  0  0  0  0  0  0  0  0  0  0  0
    5.6796    1.9607    1.0627 H   0  0  0  0  0  0  0  0  0  0  0  0
    5.8379   -1.5512    0.2908 H   0  0  0  0  0  0  0  0  0  0  0  0
    6.8200   -1.5668    1.7899 H   0  0  0  0  0  0  0  0  0  0  0  0
    7.6110   -1.6509    0.1972 H   0  0  0  0  0  0  0  0  0  0  0  0
   10.5606    2.0274   -0.2565 H   0  0  0  0  0  0  0  0  0  0  0  0
   12.8882    2.1490   -0.5049 H   0  0  0  0  0  0  0  0  0  0  0  0
   15.3435    2.2856   -0.7691 H   0  0  0  0  0  0  0  0  0  0  0  0
   16.7935    0.3953   -0.0266 H   0  0  0  0  0  0  0  0  0  0  0  0
   15.7549   -1.6366    0.9852 H   0  0  0  0  0  0  0  0  0  0  0  0
   13.2814   -1.7720    1.2499 H   0  0  0  0  0  0  0  0  0  0  0  0
    5.5135    2.9185   -1.4571 H   0  0  0  0  0  0  0  0  0  0  0  0
  1  2  1  0
  1 23  1  0
  1 24  1  0
  1 25  1  0
  2  3  2  0
  2 22  1  0
  3  4  1  0
  4  5  1  0
  4 21  2  0
  5  6  1  0
  5 26  1  0
  5 27  1  0
  6  7  1  0
  6  8  1  0
  7 28  1  0
  7 29  1  0
  7 30  1  0
  8  9  2  0
  8 10  1  0
 10 11  2  0
 10 20  1  0
 11 12  1  0
 11 31  1  0
 12 13  1  0
 12 19  2  0
 13 14  2  0
 13 18  1  0
 14 15  1  0
 14 32  1  0
 15 16  2  0
 15 33  1  0
 16 17  1  0
 16 34  1  0
 17 18  2  0
 17 35  1  0
 18 36  1  0
 19 20  1  0
 21 22  1  0
 21 37  1  0
M  END

