
     RDKit          3D

 50 51  0  0  0  0  0  0  0  0999 V2000
    5.5060   -2.8038    0.9421 C   0  0  0  0  0  0  0  0  0  0  0  0
    4.8793   -1.4067    0.9752 C   0  0  0  0  0  0  0  0  0  0  0  0
    3.3682   -1.3374    1.2999 C   0  0  1  0  0  0  0  0  0  0  0  0
    2.8938    0.1509    1.3061 C   0  0  0  0  0  0  0  0  0  0  0  0
    2.9215    0.8907   -0.0349 C   0  0  0  0  0  0  0  0  0  0  0  0
    2.5671   -2.1883    0.2824 C   0  0  0  0  0  0  0  0  0  0  0  0
    1.1176   -2.1355    0.5013 N   0  0  0  0  0  0  0  0  0  0  0  0
    0.3522   -3.1607   -0.2278 C   0  0  0  0  0  0  0  0  0  0  0  0
   -1.1239   -3.0227   -0.0135 C   0  0  0  0  0  0  0  0  0  0  0  0
   -1.8556   -3.3764    1.1647 C   0  0  0  0  0  0  0  0  0  0  0  0
   -1.3379   -3.9824    2.4355 C   0  0  0  0  0  0  0  0  0  0  0  0
   -3.1388   -3.1067    1.0157 N   0  0  0  0  0  0  0  0  0  0  0  0
   -3.2763   -2.5806   -0.2282 N   0  0  0  0  0  0  0  0  0  0  0  0
   -4.5737   -2.2006   -0.6516 C   0  0  0  0  0  0  0  0  0  0  0  0
   -5.6667   -2.3797    0.2190 C   0  0  0  0  0  0  0  0  0  0  0  0
   -6.9225   -1.9934   -0.2354 C   0  0  0  0  0  0  0  0  0  0  0  0
   -7.0575   -1.4493   -1.5189 C   0  0  0  0  0  0  0  0  0  0  0  0
   -5.9054   -1.3187   -2.2926 C   0  0  0  0  0  0  0  0  0  0  0  0
   -4.6916   -1.6849   -1.8707 N   0  0  0  0  0  0  0  0  0  0  0  0
   -2.0673   -2.5062   -0.8945 C   0  0  0  0  0  0  0  0  0  0  0  0
   -1.8669   -1.9801   -2.2798 C   0  0  0  0  0  0  0  0  0  0  0  0
    3.1378   -1.8466    2.7532 C   0  0  0  0  0  0  0  0  0  0  0  0
    3.9994   -1.8111    3.5969 O   0  0  0  0  0  0  0  0  0  0  0  0
    1.9034   -2.2768    3.0284 O   0  0  0  0  0  0  0  0  0  0  0  0
    6.5936   -2.7264    0.7855 H   0  0  0  0  0  0  0  0  0  0  0  0
    5.1101   -3.4292    0.1254 H   0  0  0  0  0  0  0  0  0  0  0  0
    5.3489   -3.3330    1.8939 H   0  0  0  0  0  0  0  0  0  0  0  0
    5.0528   -0.9108    0.0055 H   0  0  0  0  0  0  0  0  0  0  0  0
    5.3989   -0.8072    1.7375 H   0  0  0  0  0  0  0  0  0  0  0  0
    3.5254    0.6885    2.0322 H   0  0  0  0  0  0  0  0  0  0  0  0
    1.8727    0.1982    1.7221 H   0  0  0  0  0  0  0  0  0  0  0  0
    3.9313    0.9300   -0.4709 H   0  0  0  0  0  0  0  0  0  0  0  0
    2.5852    1.9308    0.1011 H   0  0  0  0  0  0  0  0  0  0  0  0
    2.2561    0.4332   -0.7862 H   0  0  0  0  0  0  0  0  0  0  0  0
    2.8664   -3.2431    0.3849 H   0  0  0  0  0  0  0  0  0  0  0  0
    2.8450   -1.8903   -0.7486 H   0  0  0  0  0  0  0  0  0  0  0  0
    0.7475   -1.2141    0.2663 H   0  0  0  0  0  0  0  0  0  0  0  0
    0.6958   -4.1444    0.1354 H   0  0  0  0  0  0  0  0  0  0  0  0
    0.5835   -3.1389   -1.3110 H   0  0  0  0  0  0  0  0  0  0  0  0
   -0.2504   -4.1310    2.4048 H   0  0  0  0  0  0  0  0  0  0  0  0
   -1.8161   -4.9558    2.6292 H   0  0  0  0  0  0  0  0  0  0  0  0
   -1.5586   -3.3334    3.2973 H   0  0  0  0  0  0  0  0  0  0  0  0
   -5.5022   -2.8075    1.2058 H   0  0  0  0  0  0  0  0  0  0  0  0
   -7.7954   -2.1166    0.4109 H   0  0  0  0  0  0  0  0  0  0  0  0
   -8.0281   -1.1355   -1.9079 H   0  0  0  0  0  0  0  0  0  0  0  0
   -5.9589   -0.8984   -3.3036 H   0  0  0  0  0  0  0  0  0  0  0  0
   -2.4497   -2.5463   -3.0202 H   0  0  0  0  0  0  0  0  0  0  0  0
   -0.8017   -2.0438   -2.5452 H   0  0  0  0  0  0  0  0  0  0  0  0
   -2.1943   -0.9348   -2.3714 H   0  0  0  0  0  0  0  0  0  0  0  0
    1.3529   -2.2444    2.1901 H   0  0  0  0  0  0  0  0  0  0  0  0
  1  2  1  0
  1 25  1  0
  1 26  1  0
  1 27  1  0
  2  3  1  0
  2 28  1  0
  2 29  1  0
  3  4  1  0
  3  6  1  0
  3 22  1  1
  4  5  1  0
  4 30  1  0
  4 31  1  0
  5 32  1  0
  5 33  1  0
  5 34  1  0
  6  7  1  0
  6 35  1  0
  6 36  1  0
  7  8  1  0
  7 37  1  0
  8  9  1  0
  8 38  1  0
  8 39  1  0
  9 10  1  0
  9 20  2  0
 10 11  1  0
 10 12  2  0
 11 40  1  0
 11 41  1  0
 11 42  1  0
 12 13  1  0
 13 14  1  0
 13 20  1  0
 14 15  2  0
 14 19  1  0
 15 16  1  0
 15 43  1  0
 16 17  2  0
 16 44  1  0
 17 18  1  0
 17 45  1  0
 18 19  2  0
 18 46  1  0
 20 21  1  0
 21 47  1  0
 21 48  1  0
 21 49  1  0
 22 23  2  0
 22 24  1  0
 24 50  1  0
M  END

