
     RDKit          3D

 53 57  0  0  0  0  0  0  0  0999 V2000
    7.2710    3.1003    3.6911 N   0  0  0  0  0  0  0  0  0  0  0  0
    6.2132    2.1415    3.8763 C   0  0  2  0  0  0  0  0  0  0  0  0
    5.5995    2.2804    4.7884 H   0  0  0  0  0  0  0  0  0  0  0  0
    6.6450    0.6651    3.7698 C   0  0  0  0  0  0  0  0  0  0  0  0
    7.4030   -0.0227    4.4027 O   0  0  0  0  0  0  0  0  0  0  0  0
    5.8265    0.4570    2.6645 N   0  0  0  0  0  0  0  0  0  0  0  0
    5.2812   -0.6394    1.9715 C   0  0  0  0  0  0  0  0  0  0  0  0
    6.1435   -1.8230    1.7105 C   0  0  0  0  0  0  0  0  0  0  0  0
    5.7132   -2.8657    1.2657 O   0  0  0  0  0  0  0  0  0  0  0  0
    7.4366   -1.5914    1.9661 O   0  0  0  0  0  0  0  0  0  0  0  0
    8.3687   -2.6720    1.7247 C   0  0  1  0  0  0  0  0  0  0  0  0
    9.7376   -2.0435    1.5261 C   0  0  0  0  0  0  0  0  0  0  0  0
   10.2166   -1.0551    2.4007 C   0  0  0  0  0  0  0  0  0  0  0  0
   11.4909   -0.5142    2.2180 C   0  0  0  0  0  0  0  0  0  0  0  0
   12.3046   -0.9550    1.1681 C   0  0  0  0  0  0  0  0  0  0  0  0
   11.8328   -1.9374    0.2946 C   0  0  0  0  0  0  0  0  0  0  0  0
   10.5535   -2.4739    0.4716 C   0  0  0  0  0  0  0  0  0  0  0  0
    8.3410   -3.6989    2.8509 C   0  0  0  0  0  0  0  0  0  0  0  0
    8.1073   -3.3257    4.1824 C   0  0  0  0  0  0  0  0  0  0  0  0
    8.1364   -4.2900    5.1947 C   0  0  0  0  0  0  0  0  0  0  0  0
    8.4036   -5.6285    4.8932 C   0  0  0  0  0  0  0  0  0  0  0  0
    8.6349   -6.0039    3.5665 C   0  0  0  0  0  0  0  0  0  0  0  0
    8.5988   -5.0442    2.5525 C   0  0  0  0  0  0  0  0  0  0  0  0
    4.0067   -0.5722    1.4633 C   0  0  0  0  0  0  0  0  0  0  0  0
    3.3306   -1.9300    0.5302 S   0  0  0  0  0  0  0  0  0  0  0  0
    1.8596   -1.1749   -0.3129 C   0  0  0  0  0  0  0  0  0  0  0  0
    1.2659   -2.2183   -1.2112 C   0  0  0  0  0  0  0  0  0  0  0  0
    1.8755   -2.8840   -2.2553 C   0  0  0  0  0  0  0  0  0  0  0  0
    0.7597   -3.9626   -2.9525 S   0  0  0  0  0  0  0  0  0  0  0  0
   -0.4785   -3.4848   -1.8207 N   0  0  0  0  0  0  0  0  0  0  0  0
   -0.0393   -2.6054   -1.0225 N   0  0  0  0  0  0  0  0  0  0  0  0
    3.1021    0.6327    1.6377 C   0  0  0  0  0  0  0  0  0  0  0  0
    3.5111    1.8199    2.9727 S   0  0  0  0  0  0  0  0  0  0  0  0
    5.3079    1.8189    2.6497 C   0  0  1  0  0  0  0  0  0  0  0  0
    5.5650    2.3757    1.7361 H   0  0  0  0  0  0  0  0  0  0  0  0
    8.1339    2.7569    4.1122 H   0  0  0  0  0  0  0  0  0  0  0  0
    7.0563    3.9940    4.1291 H   0  0  0  0  0  0  0  0  0  0  0  0
    8.0640   -3.1791    0.7979 H   0  0  0  0  0  0  0  0  0  0  0  0
    9.5833   -0.7055    3.2187 H   0  0  0  0  0  0  0  0  0  0  0  0
   11.8538    0.2574    2.9022 H   0  0  0  0  0  0  0  0  0  0  0  0
   13.3025   -0.5306    1.0305 H   0  0  0  0  0  0  0  0  0  0  0  0
   12.4578   -2.2840   -0.5326 H   0  0  0  0  0  0  0  0  0  0  0  0
   10.1850   -3.2354   -0.2218 H   0  0  0  0  0  0  0  0  0  0  0  0
    7.8900   -2.2833    4.4241 H   0  0  0  0  0  0  0  0  0  0  0  0
    7.9472   -3.9897    6.2287 H   0  0  0  0  0  0  0  0  0  0  0  0
    8.4253   -6.3785    5.6881 H   0  0  0  0  0  0  0  0  0  0  0  0
    8.8343   -7.0496    3.3179 H   0  0  0  0  0  0  0  0  0  0  0  0
    8.7675   -5.3472    1.5151 H   0  0  0  0  0  0  0  0  0  0  0  0
    2.1740   -0.2933   -0.8913 H   0  0  0  0  0  0  0  0  0  0  0  0
    1.0831   -0.8744    0.4026 H   0  0  0  0  0  0  0  0  0  0  0  0
    2.9034   -2.7732   -2.5974 H   0  0  0  0  0  0  0  0  0  0  0  0
    2.0852    0.2979    1.8846 H   0  0  0  0  0  0  0  0  0  0  0  0
    3.0305    1.1800    0.6830 H   0  0  0  0  0  0  0  0  0  0  0  0
  1  2  1  0
  1 36  1  0
  1 37  1  0
  2  3  1  1
  2  4  1  0
  2 34  1  0
  4  5  2  0
  4  6  1  0
  6  7  1  0
  6 34  1  0
  7  8  1  0
  7 24  2  0
  8  9  2  0
  8 10  1  0
 10 11  1  0
 11 12  1  0
 11 18  1  0
 11 38  1  6
 12 13  2  0
 12 17  1  0
 13 14  1  0
 13 39  1  0
 14 15  2  0
 14 40  1  0
 15 16  1  0
 15 41  1  0
 16 17  2  0
 16 42  1  0
 17 43  1  0
 18 19  2  0
 18 23  1  0
 19 20  1  0
 19 44  1  0
 20 21  2  0
 20 45  1  0
 21 22  1  0
 21 46  1  0
 22 23  2  0
 22 47  1  0
 23 48  1  0
 24 25  1  0
 24 32  1  0
 25 26  1  0
 26 27  1  0
 26 49  1  0
 26 50  1  0
 27 28  2  0
 27 31  1  0
 28 29  1  0
 28 51  1  0
 29 30  1  0
 30 31  2  0
 32 33  1  0
 32 52  1  0
 32 53  1  0
 33 34  1  0
 34 35  1  6
M  END

