
     RDKit          3D

 34 35  0  0  0  0  0  0  0  0999 V2000
    7.0728    0.1585    6.4726 O   0  0  0  0  0  0  0  0  0  0  0  0
    6.3485    0.0555    7.4413 C   0  0  0  0  0  0  0  0  0  0  0  0
    4.9823   -0.1112    7.3522 N   0  0  0  0  0  0  0  0  0  0  0  0
    4.3735   -0.1666    6.1440 N   0  0  0  0  0  0  0  0  0  0  0  0
    3.1050   -0.3156    6.1251 C   0  0  0  0  0  0  0  0  0  0  0  0
    2.3576   -0.3925    4.8201 C   0  0  2  0  0  0  0  0  0  0  0  0
    3.0778   -0.0973    4.0420 H   0  0  0  0  0  0  0  0  0  0  0  0
    1.1554    0.5787    4.8061 C   0  0  0  0  0  0  0  0  0  0  0  0
   -0.0456    0.0353    5.5401 C   0  0  0  0  0  0  0  0  0  0  0  0
   -0.1922   -1.2556    5.8711 C   0  0  0  0  0  0  0  0  0  0  0  0
    0.8234   -2.3172    5.5350 C   0  0  0  0  0  0  0  0  0  0  0  0
    1.8648   -1.8274    4.5186 C   0  0  0  0  0  0  0  0  0  0  0  0
    6.9236    0.1055    8.8482 C   0  0  0  0  0  0  0  0  0  0  0  0
    8.3176    0.2752    8.8995 C   0  0  0  0  0  0  0  0  0  0  0  0
    8.9972    0.3415   10.1115 C   0  0  0  0  0  0  0  0  0  0  0  0
   10.8900    0.5723   10.1323 Br  0  0  0  0  0  0  0  0  0  0  0  0
    8.2995    0.2396   11.3182 C   0  0  0  0  0  0  0  0  0  0  0  0
    6.9171    0.0709   11.2873 C   0  0  0  0  0  0  0  0  0  0  0  0
    6.2239    0.0028   10.0711 C   0  0  0  0  0  0  0  0  0  0  0  0
    4.8672   -0.1635   10.0653 O   0  0  0  0  0  0  0  0  0  0  0  0
    4.4338   -0.1894    8.2107 H   0  0  0  0  0  0  0  0  0  0  0  0
    2.5195   -0.3899    7.0634 H   0  0  0  0  0  0  0  0  0  0  0  0
    0.8766    0.7970    3.7576 H   0  0  0  0  0  0  0  0  0  0  0  0
    1.4494    1.5537    5.2332 H   0  0  0  0  0  0  0  0  0  0  0  0
   -0.8347    0.7492    5.8021 H   0  0  0  0  0  0  0  0  0  0  0  0
   -1.0895   -1.5725    6.4147 H   0  0  0  0  0  0  0  0  0  0  0  0
    0.3092   -3.2127    5.1435 H   0  0  0  0  0  0  0  0  0  0  0  0
    1.3174   -2.6603    6.4653 H   0  0  0  0  0  0  0  0  0  0  0  0
    1.4129   -1.8247    3.5114 H   0  0  0  0  0  0  0  0  0  0  0  0
    2.7225   -2.5172    4.4794 H   0  0  0  0  0  0  0  0  0  0  0  0
    8.8387    0.3524    7.9445 H   0  0  0  0  0  0  0  0  0  0  0  0
    8.8265    0.2909   12.2723 H   0  0  0  0  0  0  0  0  0  0  0  0
    6.3603   -0.0102   12.2264 H   0  0  0  0  0  0  0  0  0  0  0  0
    4.5346   -0.2138   10.9712 H   0  0  0  0  0  0  0  0  0  0  0  0
  1  2  2  0
  2  3  1  0
  2 13  1  0
  3  4  1  0
  3 21  1  0
  4  5  2  0
  5  6  1  0
  5 22  1  0
  6  7  1  6
  6  8  1  0
  6 12  1  0
  8  9  1  0
  8 23  1  0
  8 24  1  0
  9 10  2  0
  9 25  1  0
 10 11  1  0
 10 26  1  0
 11 12  1  0
 11 27  1  0
 11 28  1  0
 12 29  1  0
 12 30  1  0
 13 14  2  0
 13 19  1  0
 14 15  1  0
 14 31  1  0
 15 16  1  0
 15 17  2  0
 17 18  1  0
 17 32  1  0
 18 19  2  0
 18 33  1  0
 19 20  1  0
 20 34  1  0
M  END

