
     RDKit          3D

 44 45  0  0  0  0  0  0  0  0999 V2000
    1.9878    0.7770    1.4328 C   0  0  0  0  0  0  0  0  0  0  0  0
    1.8673    0.1137    0.0588 C   0  0  0  0  0  0  0  0  0  0  0  0
    2.7043    0.7736   -1.0458 C   0  0  0  0  0  0  0  0  0  0  0  0
    4.2327    0.7513   -0.8218 C   0  0  1  0  0  0  0  0  0  0  0  0
    4.6977   -0.6200   -0.7132 N   0  0  0  0  0  0  0  0  0  0  0  0
    5.6929   -1.0534    0.1068 C   0  0  0  0  0  0  0  0  0  0  0  0
    6.0212   -2.3515    0.0097 N   0  0  0  0  0  0  0  0  0  0  0  0
    6.9950   -2.7406    0.8380 C   0  0  0  0  0  0  0  0  0  0  0  0
    7.3773   -4.0378    0.8000 N   0  0  0  0  0  0  0  0  0  0  0  0
    7.6370   -1.9421    1.7194 N   0  0  0  0  0  0  0  0  0  0  0  0
    7.2257   -0.6755    1.7295 C   0  0  0  0  0  0  0  0  0  0  0  0
    7.9054    0.2760    2.6981 C   0  0  1  0  0  0  0  0  0  0  0  0
    8.6167    1.4083    1.9407 C   0  0  0  0  0  0  0  0  0  0  0  0
    6.8997    0.8258    3.7216 C   0  0  0  0  0  0  0  0  0  0  0  0
    6.2615   -0.1740    0.9496 N   0  0  0  0  0  0  0  0  0  0  0  0
    4.9571    1.5584   -1.9007 C   0  0  0  0  0  0  0  0  0  0  0  0
    5.0553    2.9531   -1.7744 C   0  0  0  0  0  0  0  0  0  0  0  0
    5.6665    3.7318   -2.7589 C   0  0  0  0  0  0  0  0  0  0  0  0
    6.1887    3.1003   -3.8857 C   0  0  0  0  0  0  0  0  0  0  0  0
    6.7815    3.8393   -4.8369 F   0  0  0  0  0  0  0  0  0  0  0  0
    6.1158    1.7190   -4.0417 C   0  0  0  0  0  0  0  0  0  0  0  0
    5.4995    0.9572   -3.0448 C   0  0  0  0  0  0  0  0  0  0  0  0
    1.3068    0.3061    2.1595 H   0  0  0  0  0  0  0  0  0  0  0  0
    1.7310    1.8492    1.3853 H   0  0  0  0  0  0  0  0  0  0  0  0
    3.0074    0.6953    1.8423 H   0  0  0  0  0  0  0  0  0  0  0  0
    0.8110    0.1282   -0.2618 H   0  0  0  0  0  0  0  0  0  0  0  0
    2.1430   -0.9517    0.1416 H   0  0  0  0  0  0  0  0  0  0  0  0
    2.3976    1.8263   -1.1653 H   0  0  0  0  0  0  0  0  0  0  0  0
    2.4877    0.2906   -2.0166 H   0  0  0  0  0  0  0  0  0  0  0  0
    4.4631    1.2265    0.1417 H   0  0  0  0  0  0  0  0  0  0  0  0
    4.3141   -1.3309   -1.3256 H   0  0  0  0  0  0  0  0  0  0  0  0
    6.9378   -4.6697    0.1462 H   0  0  0  0  0  0  0  0  0  0  0  0
    8.1230   -4.3471    1.4070 H   0  0  0  0  0  0  0  0  0  0  0  0
    8.6577   -0.3286    3.2277 H   0  0  0  0  0  0  0  0  0  0  0  0
    7.8933    1.9978    1.3568 H   0  0  0  0  0  0  0  0  0  0  0  0
    9.3716    1.0115    1.2433 H   0  0  0  0  0  0  0  0  0  0  0  0
    9.1285    2.0828    2.6462 H   0  0  0  0  0  0  0  0  0  0  0  0
    6.1104    1.4049    3.2178 H   0  0  0  0  0  0  0  0  0  0  0  0
    7.4063    1.4864    4.4437 H   0  0  0  0  0  0  0  0  0  0  0  0
    6.4172    0.0128    4.2875 H   0  0  0  0  0  0  0  0  0  0  0  0
    4.6526    3.4436   -0.8833 H   0  0  0  0  0  0  0  0  0  0  0  0
    5.7521    4.8160   -2.6630 H   0  0  0  0  0  0  0  0  0  0  0  0
    6.5444    1.2567   -4.9332 H   0  0  0  0  0  0  0  0  0  0  0  0
    5.4584   -0.1284   -3.1585 H   0  0  0  0  0  0  0  0  0  0  0  0
  1  2  1  0
  1 23  1  0
  1 24  1  0
  1 25  1  0
  2  3  1  0
  2 26  1  0
  2 27  1  0
  3  4  1  0
  3 28  1  0
  3 29  1  0
  4  5  1  0
  4 16  1  0
  4 30  1  1
  5  6  1  0
  5 31  1  0
  6  7  2  0
  6 15  1  0
  7  8  1  0
  8  9  1  0
  8 10  2  0
  9 32  1  0
  9 33  1  0
 10 11  1  0
 11 12  1  0
 11 15  2  0
 12 13  1  0
 12 14  1  0
 12 34  1  1
 13 35  1  0
 13 36  1  0
 13 37  1  0
 14 38  1  0
 14 39  1  0
 14 40  1  0
 16 17  2  0
 16 22  1  0
 17 18  1  0
 17 41  1  0
 18 19  2  0
 18 42  1  0
 19 20  1  0
 19 21  1  0
 21 22  2  0
 21 43  1  0
 22 44  1  0
M  END

