
     RDKit          3D

 42 45  0  0  0  0  0  0  0  0999 V2000
    3.2433    1.5695   -0.1229 O   0  0  0  0  0  0  0  0  0  0  0  0
    3.0114    0.3921    0.1333 C   0  0  0  0  0  0  0  0  0  0  0  0
    2.1195   -0.3618   -0.8197 C   0  0  0  0  0  0  0  0  0  0  0  0
    1.5322    0.2637   -1.9563 C   0  0  0  0  0  0  0  0  0  0  0  0
    0.8081   -0.7402   -2.5465 C   0  0  0  0  0  0  0  0  0  0  0  0
   -0.0319   -0.8246   -3.7214 C   0  0  0  0  0  0  0  0  0  0  0  0
   -0.7100   -1.9319   -4.1960 C   0  0  0  0  0  0  0  0  0  0  0  0
   -1.4462   -1.6610   -5.3826 C   0  0  0  0  0  0  0  0  0  0  0  0
   -1.3206   -0.3571   -5.7974 C   0  0  0  0  0  0  0  0  0  0  0  0
   -0.3032    0.5610   -4.7464 S   0  0  0  0  0  0  0  0  0  0  0  0
    0.9573   -1.8736   -1.8177 O   0  0  0  0  0  0  0  0  0  0  0  0
    1.7776   -1.6320   -0.7403 N   0  0  0  0  0  0  0  0  0  0  0  0
    3.5186   -0.2090    1.2431 N   0  0  0  0  0  0  0  0  0  0  0  0
    4.2922    0.6322    2.1722 C   0  0  0  0  0  0  0  0  0  0  0  0
    4.6489   -0.3112    3.3276 C   0  0  0  0  0  0  0  0  0  0  0  0
    3.5503   -1.3823    3.2702 C   0  0  0  0  0  0  0  0  0  0  0  0
    3.3082   -1.5762    1.7624 C   0  0  2  0  0  0  0  0  0  0  0  0
    4.2687   -2.6002    1.1045 C   0  0  0  0  0  0  0  0  0  0  0  0
    3.9975   -4.0310    1.5155 C   0  0  0  0  0  0  0  0  0  0  0  0
    2.8613   -4.7051    1.0326 C   0  0  0  0  0  0  0  0  0  0  0  0
    2.5918   -6.0200    1.4192 C   0  0  0  0  0  0  0  0  0  0  0  0
    3.4535   -6.6895    2.2950 C   0  0  0  0  0  0  0  0  0  0  0  0
    4.5878   -6.0332    2.7792 C   0  0  0  0  0  0  0  0  0  0  0  0
    4.8543   -4.7156    2.3918 C   0  0  0  0  0  0  0  0  0  0  0  0
    1.6529    1.3005   -2.2535 H   0  0  0  0  0  0  0  0  0  0  0  0
   -0.6712   -2.9008   -3.6979 H   0  0  0  0  0  0  0  0  0  0  0  0
   -2.0463   -2.4033   -5.9106 H   0  0  0  0  0  0  0  0  0  0  0  0
   -1.7710    0.1201   -6.6667 H   0  0  0  0  0  0  0  0  0  0  0  0
    3.6678    1.4820    2.4980 H   0  0  0  0  0  0  0  0  0  0  0  0
    5.1680    1.0679    1.6670 H   0  0  0  0  0  0  0  0  0  0  0  0
    4.6904    0.2132    4.2934 H   0  0  0  0  0  0  0  0  0  0  0  0
    5.6394   -0.7652    3.1629 H   0  0  0  0  0  0  0  0  0  0  0  0
    2.6287   -1.0052    3.7435 H   0  0  0  0  0  0  0  0  0  0  0  0
    3.8205   -2.3216    3.7735 H   0  0  0  0  0  0  0  0  0  0  0  0
    2.2781   -1.8927    1.5567 H   0  0  0  0  0  0  0  0  0  0  0  0
    5.3096   -2.3299    1.3452 H   0  0  0  0  0  0  0  0  0  0  0  0
    4.1556   -2.5059    0.0145 H   0  0  0  0  0  0  0  0  0  0  0  0
    2.1903   -4.1876    0.3417 H   0  0  0  0  0  0  0  0  0  0  0  0
    1.7052   -6.5282    1.0304 H   0  0  0  0  0  0  0  0  0  0  0  0
    3.2431   -7.7194    2.5948 H   0  0  0  0  0  0  0  0  0  0  0  0
    5.2715   -6.5483    3.4593 H   0  0  0  0  0  0  0  0  0  0  0  0
    5.7496   -4.2130    2.7701 H   0  0  0  0  0  0  0  0  0  0  0  0
  1  2  2  0
  2  3  1  0
  2 13  1  0
  3  4  1  0
  3 12  2  0
  4  5  2  0
  4 25  1  0
  5  6  1  0
  5 11  1  0
  6  7  2  0
  6 10  1  0
  7  8  1  0
  7 26  1  0
  8  9  2  0
  8 27  1  0
  9 10  1  0
  9 28  1  0
 11 12  1  0
 13 14  1  0
 13 17  1  0
 14 15  1  0
 14 29  1  0
 14 30  1  0
 15 16  1  0
 15 31  1  0
 15 32  1  0
 16 17  1  0
 16 33  1  0
 16 34  1  0
 17 18  1  0
 17 35  1  1
 18 19  1  0
 18 36  1  0
 18 37  1  0
 19 20  2  0
 19 24  1  0
 20 21  1  0
 20 38  1  0
 21 22  2  0
 21 39  1  0
 22 23  1  0
 22 40  1  0
 23 24  2  0
 23 41  1  0
 24 42  1  0
M  END

