
     RDKit          3D

 42 44  0  0  0  0  0  0  0  0999 V2000
    2.4888   -0.3752   -2.9453 O   0  0  0  0  0  0  0  0  0  0  0  0
    2.1237    0.2353   -1.9778 C   0  0  0  0  0  0  0  0  0  0  0  0
    0.8147    0.4766   -1.7747 O   0  0  0  0  0  0  0  0  0  0  0  0
    3.0702    0.7731   -0.8922 C   0  0  2  0  0  0  0  0  0  0  0  0
    2.8265    0.2448    0.0445 H   0  0  0  0  0  0  0  0  0  0  0  0
    2.9729    2.3028   -0.7188 C   0  0  0  0  0  0  0  0  0  0  0  0
    3.9190    2.8023   -1.7054 N   0  0  0  0  0  0  0  0  0  0  0  0
    3.8276    4.1194   -2.1231 C   0  0  0  0  0  0  0  0  0  0  0  0
    2.9695    4.8627   -1.6690 O   0  0  0  0  0  0  0  0  0  0  0  0
    4.7655    4.4855   -3.0678 N   0  0  0  0  0  0  0  0  0  0  0  0
    4.9326    5.7439   -3.6888 C   0  0  0  0  0  0  0  0  0  0  0  0
    4.1374    6.8696   -3.4039 C   0  0  0  0  0  0  0  0  0  0  0  0
    4.3843    8.0692   -4.0654 C   0  0  0  0  0  0  0  0  0  0  0  0
    5.4101    8.1838   -5.0131 C   0  0  0  0  0  0  0  0  0  0  0  0
    6.2081    7.0653   -5.3179 C   0  0  0  0  0  0  0  0  0  0  0  0
    5.9515    5.8646   -4.6452 C   0  0  0  0  0  0  0  0  0  0  0  0
    7.3062    7.1729   -6.3572 C   0  0  0  0  0  0  0  0  0  0  0  0
    7.1039    8.4103   -7.2371 C   0  0  0  0  0  0  0  0  0  0  0  0
    6.7600    9.6073   -6.3594 C   0  0  0  0  0  0  0  0  0  0  0  0
    5.5635    9.3964   -5.6225 O   0  0  0  0  0  0  0  0  0  0  0  0
    4.8924    1.8024   -2.1301 C   0  0  0  0  0  0  0  0  0  0  0  0
    4.5351    0.5434   -1.3117 C   0  0  1  0  0  0  0  0  0  0  0  0
    4.6127   -0.3613   -1.9291 H   0  0  0  0  0  0  0  0  0  0  0  0
    5.4614    0.3328   -0.1259 C   0  0  1  0  0  0  0  0  0  0  0  0
    5.4911    1.3937    0.7056 F   0  0  0  0  0  0  0  0  0  0  0  0
    5.0819   -0.7322    0.6015 F   0  0  0  0  0  0  0  0  0  0  0  0
    6.7226    0.1160   -0.5348 F   0  0  0  0  0  0  0  0  0  0  0  0
    0.6718    0.9881   -0.9652 H   0  0  0  0  0  0  0  0  0  0  0  0
    3.2536    2.5981    0.3070 H   0  0  0  0  0  0  0  0  0  0  0  0
    1.9743    2.7219   -0.9138 H   0  0  0  0  0  0  0  0  0  0  0  0
    5.4118    3.7754   -3.3855 H   0  0  0  0  0  0  0  0  0  0  0  0
    3.3395    6.7892   -2.6699 H   0  0  0  0  0  0  0  0  0  0  0  0
    3.7765    8.9519   -3.8555 H   0  0  0  0  0  0  0  0  0  0  0  0
    6.5697    4.9923   -4.8861 H   0  0  0  0  0  0  0  0  0  0  0  0
    7.3370    6.2575   -6.9708 H   0  0  0  0  0  0  0  0  0  0  0  0
    8.2889    7.2363   -5.8538 H   0  0  0  0  0  0  0  0  0  0  0  0
    6.2776    8.2433   -7.9491 H   0  0  0  0  0  0  0  0  0  0  0  0
    8.0067    8.6290   -7.8298 H   0  0  0  0  0  0  0  0  0  0  0  0
    6.5880   10.5153   -6.9557 H   0  0  0  0  0  0  0  0  0  0  0  0
    7.5922    9.8157   -5.6574 H   0  0  0  0  0  0  0  0  0  0  0  0
    5.9321    2.1216   -1.9384 H   0  0  0  0  0  0  0  0  0  0  0  0
    4.7976    1.5786   -3.2076 H   0  0  0  0  0  0  0  0  0  0  0  0
  1  2  2  0
  2  3  1  0
  2  4  1  0
  3 28  1  0
  4  5  1  1
  4  6  1  0
  4 22  1  0
  6  7  1  0
  6 29  1  0
  6 30  1  0
  7  8  1  0
  7 21  1  0
  8  9  2  0
  8 10  1  0
 10 11  1  0
 10 31  1  0
 11 12  2  0
 11 16  1  0
 12 13  1  0
 12 32  1  0
 13 14  2  0
 13 33  1  0
 14 15  1  0
 14 20  1  0
 15 16  2  0
 15 17  1  0
 16 34  1  0
 17 18  1  0
 17 35  1  0
 17 36  1  0
 18 19  1  0
 18 37  1  0
 18 38  1  0
 19 20  1  0
 19 39  1  0
 19 40  1  0
 21 22  1  0
 21 41  1  0
 21 42  1  0
 22 23  1  6
 22 24  1  0
 24 25  1  1
 24 26  1  0
 24 27  1  0
M  END

