
     RDKit          3D

 47 49  0  0  0  0  0  0  0  0999 V2000
    0.7779    0.2708   -0.0635 C   0  0  0  0  0  0  0  0  0  0  0  0
    2.1925    0.0316   -0.2901 N   0  0  0  0  0  0  0  0  0  0  0  0
    2.8822    0.6656   -1.3045 C   0  0  0  0  0  0  0  0  0  0  0  0
    4.0966    0.5602   -1.4549 O   0  0  0  0  0  0  0  0  0  0  0  0
    2.1210    1.4659   -2.1449 N   0  0  0  0  0  0  0  0  0  0  0  0
    2.7528    2.1175   -3.2867 C   0  0  2  0  0  0  0  0  0  0  0  0
    1.9593    3.3737   -3.6944 C   0  0  0  0  0  0  0  0  0  0  0  0
    0.5229    3.0664   -4.1695 C   0  0  0  0  0  0  0  0  0  0  0  0
    0.5116    1.8560   -5.0616 C   0  0  0  0  0  0  0  0  0  0  0  0
   -0.4755    1.2822   -5.9078 C   0  0  0  0  0  0  0  0  0  0  0  0
   -0.0351    0.1750   -6.4979 N   0  0  0  0  0  0  0  0  0  0  0  0
    1.2205    0.0230   -6.0433 N   0  0  0  0  0  0  0  0  0  0  0  0
    1.7707   -0.7664   -6.3595 H   0  0  0  0  0  0  0  0  0  0  0  0
    1.6009    1.0029   -5.1791 C   0  0  0  0  0  0  0  0  0  0  0  0
    2.9219    1.1611   -4.4949 C   0  0  0  0  0  0  0  0  0  0  0  0
    2.8898   -0.9649    0.5562 C   0  0  1  0  0  0  0  0  0  0  0  0
    3.3390   -2.1785   -0.2795 C   0  0  0  0  0  0  0  0  0  0  0  0
    4.0376   -3.3155    0.4819 C   0  0  0  0  0  0  0  0  0  0  0  0
    5.4466   -2.9621    0.9879 C   0  0  0  0  0  0  0  0  0  0  0  0
    5.5192   -2.2287    2.3406 C   0  0  0  0  0  0  0  0  0  0  0  0
    4.4133   -1.1951    2.6224 C   0  0  0  0  0  0  0  0  0  0  0  0
    3.9763   -0.3149    1.4400 C   0  0  0  0  0  0  0  0  0  0  0  0
    0.5349    1.3372   -0.1916 H   0  0  0  0  0  0  0  0  0  0  0  0
    0.5204    0.0019    0.9705 H   0  0  0  0  0  0  0  0  0  0  0  0
    0.1175   -0.3179   -0.7320 H   0  0  0  0  0  0  0  0  0  0  0  0
    1.1327    1.2634   -2.2347 H   0  0  0  0  0  0  0  0  0  0  0  0
    3.7554    2.4090   -2.9484 H   0  0  0  0  0  0  0  0  0  0  0  0
    2.5116    3.8662   -4.5125 H   0  0  0  0  0  0  0  0  0  0  0  0
    1.9379    4.0806   -2.8502 H   0  0  0  0  0  0  0  0  0  0  0  0
    0.1084    3.9470   -4.6885 H   0  0  0  0  0  0  0  0  0  0  0  0
   -0.1394    2.9102   -3.2961 H   0  0  0  0  0  0  0  0  0  0  0  0
   -1.4872    1.6360   -6.1098 H   0  0  0  0  0  0  0  0  0  0  0  0
    3.6696    1.5859   -5.1899 H   0  0  0  0  0  0  0  0  0  0  0  0
    3.3352    0.2031   -4.1415 H   0  0  0  0  0  0  0  0  0  0  0  0
    2.1117   -1.3266    1.2493 H   0  0  0  0  0  0  0  0  0  0  0  0
    4.0135   -1.8200   -1.0721 H   0  0  0  0  0  0  0  0  0  0  0  0
    2.4412   -2.5797   -0.7820 H   0  0  0  0  0  0  0  0  0  0  0  0
    4.1207   -4.1675   -0.2137 H   0  0  0  0  0  0  0  0  0  0  0  0
    3.4061   -3.6765    1.3153 H   0  0  0  0  0  0  0  0  0  0  0  0
    5.9414   -2.3537    0.2110 H   0  0  0  0  0  0  0  0  0  0  0  0
    6.0495   -3.8826    1.0672 H   0  0  0  0  0  0  0  0  0  0  0  0
    6.5039   -1.7343    2.4080 H   0  0  0  0  0  0  0  0  0  0  0  0
    5.5056   -2.9701    3.1591 H   0  0  0  0  0  0  0  0  0  0  0  0
    4.7606   -0.5451    3.4430 H   0  0  0  0  0  0  0  0  0  0  0  0
    3.5213   -1.7101    3.0240 H   0  0  0  0  0  0  0  0  0  0  0  0
    4.8317   -0.0155    0.8167 H   0  0  0  0  0  0  0  0  0  0  0  0
    3.5429    0.6192    1.8350 H   0  0  0  0  0  0  0  0  0  0  0  0
  1  2  1  0
  1 23  1  0
  1 24  1  0
  1 25  1  0
  2  3  1  0
  2 16  1  0
  3  4  2  0
  3  5  1  0
  5  6  1  0
  5 26  1  0
  6  7  1  0
  6 15  1  0
  6 27  1  1
  7  8  1  0
  7 28  1  0
  7 29  1  0
  8  9  1  0
  8 30  1  0
  8 31  1  0
  9 10  1  0
  9 14  2  0
 10 11  2  0
 10 32  1  0
 11 12  1  0
 12 13  1  0
 12 14  1  0
 14 15  1  0
 15 33  1  0
 15 34  1  0
 16 17  1  0
 16 22  1  0
 16 35  1  1
 17 18  1  0
 17 36  1  0
 17 37  1  0
 18 19  1  0
 18 38  1  0
 18 39  1  0
 19 20  1  0
 19 40  1  0
 19 41  1  0
 20 21  1  0
 20 42  1  0
 20 43  1  0
 21 22  1  0
 21 44  1  0
 21 45  1  0
 22 46  1  0
 22 47  1  0
M  END

