
     RDKit          3D

 95101  0  0  0  0  0  0  0  0999 V2000
    5.4049   -7.5941    5.1381 C   0  0  0  0  0  0  0  0  0  0  0  0
    4.3871   -6.5148    4.7274 C   0  0  1  0  0  0  0  0  0  0  0  0
    3.0081   -6.9058    5.3080 C   0  0  0  0  0  0  0  0  0  0  0  0
    4.8383   -5.1675    5.3380 C   0  0  0  0  0  0  0  0  0  0  0  0
    4.2763   -6.3702    3.1977 C   0  0  0  0  0  0  0  0  0  0  0  0
    5.0257   -7.1430    2.2985 C   0  0  0  0  0  0  0  0  0  0  0  0
    4.8980   -6.9834    0.9155 C   0  0  0  0  0  0  0  0  0  0  0  0
    4.0207   -6.0351    0.3688 C   0  0  0  0  0  0  0  0  0  0  0  0
    3.8768   -5.9168   -1.1030 C   0  0  0  0  0  0  0  0  0  0  0  0
    3.7762   -7.0741   -1.9352 C   0  0  0  0  0  0  0  0  0  0  0  0
    3.6156   -6.8084   -3.2817 C   0  0  0  0  0  0  0  0  0  0  0  0
    3.4762   -7.7377   -4.3843 C   0  0  0  0  0  0  0  0  0  0  0  0
    3.0704   -7.4921   -5.6858 C   0  0  0  0  0  0  0  0  0  0  0  0
    3.0417   -8.6509   -6.4981 C   0  0  0  0  0  0  0  0  0  0  0  0
    3.4250   -9.8036   -5.8325 C   0  0  0  0  0  0  0  0  0  0  0  0
    3.5080  -11.1608   -6.3326 C   0  0  0  0  0  0  0  0  0  0  0  0
    3.6376  -12.3416   -5.6265 C   0  0  0  0  0  0  0  0  0  0  0  0
    3.6835  -13.5206   -6.4328 C   0  0  0  0  0  0  0  0  0  0  0  0
    3.7874  -14.8691   -5.8235 C   0  0  0  0  0  0  0  0  0  0  0  0
    2.9886  -15.9443   -6.2367 C   0  0  0  0  0  0  0  0  0  0  0  0
    3.0778  -17.1910   -5.6152 C   0  0  0  0  0  0  0  0  0  0  0  0
    3.9683  -17.4261   -4.5549 C   0  0  0  0  0  0  0  0  0  0  0  0
    4.0982  -18.7913   -3.8525 C   0  0  1  0  0  0  0  0  0  0  0  0
    3.1406  -19.8427   -4.4417 C   0  0  0  0  0  0  0  0  0  0  0  0
    5.5454  -19.3129   -4.0123 C   0  0  0  0  0  0  0  0  0  0  0  0
    3.7730  -18.6303   -2.3493 C   0  0  0  0  0  0  0  0  0  0  0  0
    4.7642  -16.3414   -4.1434 C   0  0  0  0  0  0  0  0  0  0  0  0
    4.6756  -15.0929   -4.7563 C   0  0  0  0  0  0  0  0  0  0  0  0
    3.5813  -13.2180   -7.7867 C   0  0  0  0  0  0  0  0  0  0  0  0
    3.6899  -14.1365   -8.9594 C   0  0  0  0  0  0  0  0  0  0  0  0
    4.3166  -15.1842   -8.9139 O   0  0  0  0  0  0  0  0  0  0  0  0
    3.0334  -13.7246  -10.0924 N   0  0  0  0  0  0  0  0  0  0  0  0
    3.1838  -14.4393  -11.3538 C   0  0  0  0  0  0  0  0  0  0  0  0
    4.3006  -13.9264  -12.2276 C   0  0  0  0  0  0  0  0  0  0  0  0
    5.6412  -14.2226  -12.1415 C   0  0  0  0  0  0  0  0  0  0  0  0
    6.4349  -13.5140  -13.0939 C   0  0  0  0  0  0  0  0  0  0  0  0
    5.6896  -12.6837  -13.8931 C   0  0  0  0  0  0  0  0  0  0  0  0
    4.0091  -12.7601  -13.4902 S   0  0  0  0  0  0  0  0  0  0  0  0
    3.4598  -11.4916   -8.0437 S   0  0  0  0  0  0  0  0  0  0  0  0
    3.8480   -9.4347   -4.1752 S   0  0  0  0  0  0  0  0  0  0  0  0
    3.6055   -5.0861   -3.5522 S   0  0  0  0  0  0  0  0  0  0  0  0
    3.7842   -4.7439   -1.8456 C   0  0  0  0  0  0  0  0  0  0  0  0
    3.9422   -3.3327   -1.3837 C   0  0  0  0  0  0  0  0  0  0  0  0
    4.5938   -3.0382   -0.3930 O   0  0  0  0  0  0  0  0  0  0  0  0
    3.3007   -2.3879   -2.1454 N   0  0  0  0  0  0  0  0  0  0  0  0
    3.4974   -0.9639   -1.9049 C   0  0  0  0  0  0  0  0  0  0  0  0
    4.6149   -0.3480   -2.7084 C   0  0  0  0  0  0  0  0  0  0  0  0
    5.9614   -0.3622   -2.4274 C   0  0  0  0  0  0  0  0  0  0  0  0
    6.7520    0.2688   -3.4353 C   0  0  0  0  0  0  0  0  0  0  0  0
    5.9984    0.7542   -4.4745 C   0  0  0  0  0  0  0  0  0  0  0  0
    4.3137    0.4458   -4.2312 S   0  0  0  0  0  0  0  0  0  0  0  0
    3.2647   -5.2590    1.2639 C   0  0  0  0  0  0  0  0  0  0  0  0
    3.3910   -5.4272    2.6394 C   0  0  0  0  0  0  0  0  0  0  0  0
    5.4521   -7.6633    6.2364 H   0  0  0  0  0  0  0  0  0  0  0  0
    6.4192   -7.3608    4.7782 H   0  0  0  0  0  0  0  0  0  0  0  0
    5.1263   -8.5890    4.7565 H   0  0  0  0  0  0  0  0  0  0  0  0
    3.0670   -7.0087    6.4042 H   0  0  0  0  0  0  0  0  0  0  0  0
    2.6631   -7.8667    4.8939 H   0  0  0  0  0  0  0  0  0  0  0  0
    2.2392   -6.1503    5.0856 H   0  0  0  0  0  0  0  0  0  0  0  0
    4.9209   -5.2503    6.4344 H   0  0  0  0  0  0  0  0  0  0  0  0
    4.1267   -4.3575    5.1173 H   0  0  0  0  0  0  0  0  0  0  0  0
    5.8211   -4.8648    4.9433 H   0  0  0  0  0  0  0  0  0  0  0  0
    5.7323   -7.8875    2.6659 H   0  0  0  0  0  0  0  0  0  0  0  0
    5.5126   -7.5966    0.2515 H   0  0  0  0  0  0  0  0  0  0  0  0
    3.7820   -8.0878   -1.5322 H   0  0  0  0  0  0  0  0  0  0  0  0
    2.7810   -6.5006   -6.0376 H   0  0  0  0  0  0  0  0  0  0  0  0
    2.7277   -8.6484   -7.5431 H   0  0  0  0  0  0  0  0  0  0  0  0
    3.6588  -12.3756   -4.5363 H   0  0  0  0  0  0  0  0  0  0  0  0
    2.2756  -15.8073   -7.0514 H   0  0  0  0  0  0  0  0  0  0  0  0
    2.4299  -17.9897   -5.9766 H   0  0  0  0  0  0  0  0  0  0  0  0
    3.3391  -20.0271   -5.5091 H   0  0  0  0  0  0  0  0  0  0  0  0
    2.0859  -19.5437   -4.3360 H   0  0  0  0  0  0  0  0  0  0  0  0
    3.2670  -20.8002   -3.9120 H   0  0  0  0  0  0  0  0  0  0  0  0
    5.8041  -19.4390   -5.0755 H   0  0  0  0  0  0  0  0  0  0  0  0
    5.6596  -20.2901   -3.5144 H   0  0  0  0  0  0  0  0  0  0  0  0
    6.2813  -18.6250   -3.5688 H   0  0  0  0  0  0  0  0  0  0  0  0
    2.7443  -18.2634   -2.2048 H   0  0  0  0  0  0  0  0  0  0  0  0
    4.4538  -17.9207   -1.8549 H   0  0  0  0  0  0  0  0  0  0  0  0
    3.8658  -19.5982   -1.8294 H   0  0  0  0  0  0  0  0  0  0  0  0
    5.4783  -16.4674   -3.3262 H   0  0  0  0  0  0  0  0  0  0  0  0
    5.3245  -14.2827   -4.4144 H   0  0  0  0  0  0  0  0  0  0  0  0
    2.5369  -12.8414  -10.0910 H   0  0  0  0  0  0  0  0  0  0  0  0
    2.2239  -14.4070  -11.8920 H   0  0  0  0  0  0  0  0  0  0  0  0
    3.3902  -15.4871  -11.0952 H   0  0  0  0  0  0  0  0  0  0  0  0
    6.0361  -14.9248  -11.4053 H   0  0  0  0  0  0  0  0  0  0  0  0
    7.5171  -13.6204  -13.1861 H   0  0  0  0  0  0  0  0  0  0  0  0
    6.0309  -12.0403  -14.7029 H   0  0  0  0  0  0  0  0  0  0  0  0
    2.7829   -2.6739   -2.9680 H   0  0  0  0  0  0  0  0  0  0  0  0
    3.7307   -0.8584   -0.8364 H   0  0  0  0  0  0  0  0  0  0  0  0
    2.5477   -0.4407   -2.0966 H   0  0  0  0  0  0  0  0  0  0  0  0
    6.3627   -0.8231   -1.5231 H   0  0  0  0  0  0  0  0  0  0  0  0
    7.8382    0.3636   -3.3884 H   0  0  0  0  0  0  0  0  0  0  0  0
    6.3361    1.2852   -5.3634 H   0  0  0  0  0  0  0  0  0  0  0  0
    2.5601   -4.5202    0.8786 H   0  0  0  0  0  0  0  0  0  0  0  0
    2.7786   -4.8025    3.2938 H   0  0  0  0  0  0  0  0  0  0  0  0
  2  1  1  6
  1 54  1  0
  1 55  1  0
  1 56  1  0
  2  3  1  0
  2  4  1  0
  2  5  1  0
  3 57  1  0
  3 58  1  0
  3 59  1  0
  4 60  1  0
  4 61  1  0
  4 62  1  0
  5  6  2  0
  5 53  1  0
  6  7  1  0
  6 63  1  0
  7  8  2  0
  7 64  1  0
  8  9  1  0
  8 52  1  0
  9 10  2  0
  9 42  1  0
 10 11  1  0
 10 65  1  0
 11 12  2  0
 11 41  1  0
 12 13  1  0
 12 40  1  0
 13 14  2  0
 13 66  1  0
 14 15  1  0
 14 67  1  0
 15 16  2  0
 15 40  1  0
 16 17  1  0
 16 39  1  0
 17 18  2  0
 17 68  1  0
 18 19  1  0
 18 29  1  0
 19 20  2  0
 19 28  1  0
 20 21  1  0
 20 69  1  0
 21 22  2  0
 21 70  1  0
 22 23  1  0
 22 27  1  0
 23 24  1  6
 23 25  1  0
 23 26  1  0
 24 71  1  0
 24 72  1  0
 24 73  1  0
 25 74  1  0
 25 75  1  0
 25 76  1  0
 26 77  1  0
 26 78  1  0
 26 79  1  0
 27 28  2  0
 27 80  1  0
 28 81  1  0
 29 30  1  0
 29 39  2  0
 30 31  2  0
 30 32  1  0
 32 33  1  0
 32 82  1  0
 33 34  1  0
 33 83  1  0
 33 84  1  0
 34 35  2  0
 34 38  1  0
 35 36  1  0
 35 85  1  0
 36 37  2  0
 36 86  1  0
 37 38  1  0
 37 87  1  0
 41 42  1  0
 42 43  2  0
 43 44  1  0
 43 45  1  0
 45 46  1  0
 45 88  1  0
 46 47  1  0
 46 89  1  0
 46 90  1  0
 47 48  2  0
 47 51  1  0
 48 49  1  0
 48 91  1  0
 49 50  2  0
 49 92  1  0
 50 51  1  0
 50 93  1  0
 52 53  2  0
 52 94  1  0
 53 95  1  0
M  CHG  2  39   1  44  -1
M  END

