
     RDKit          3D

 68 71  0  0  0  0  0  0  0  0999 V2000
    2.3387    1.3758    4.8496 C   0  0  0  0  0  0  0  0  0  0  0  0
    2.7962    0.0308    4.5730 N   0  0  0  0  0  0  0  0  0  0  0  0
    3.2318   -0.3302    3.3132 C   0  0  0  0  0  0  0  0  0  0  0  0
    3.3629    0.4680    2.3966 O   0  0  0  0  0  0  0  0  0  0  0  0
    3.5146   -1.6763    3.1716 N   0  0  0  0  0  0  0  0  0  0  0  0
    4.0824   -2.1898    1.9274 C   0  0  1  0  0  0  0  0  0  0  0  0
    5.5903   -1.8909    1.7866 C   0  0  0  0  0  0  0  0  0  0  0  0
    6.4405   -2.7138    2.7638 C   0  0  0  0  0  0  0  0  0  0  0  0
    6.1917   -4.2337    2.6537 C   0  0  2  0  0  0  0  0  0  0  0  0
    6.8389   -4.7936    1.3712 C   0  0  0  0  0  0  0  0  0  0  0  0
    6.7984   -6.2494    1.2929 N   0  0  0  0  0  0  0  0  0  0  0  0
    7.6987   -7.0173    1.8938 N   0  0  0  0  0  0  0  0  0  0  0  0
    7.3506   -8.2475    1.6583 N   0  0  0  0  0  0  0  0  0  0  0  0
    6.2204   -8.1949    0.9059 C   0  0  0  0  0  0  0  0  0  0  0  0
    5.5002   -9.3768    0.4161 C   0  0  0  0  0  0  0  0  0  0  0  0
    4.3461   -9.2443   -0.3704 C   0  0  0  0  0  0  0  0  0  0  0  0
    3.6805  -10.3924   -0.8223 C   0  0  0  0  0  0  0  0  0  0  0  0
    2.4361  -10.3076   -1.6682 C   0  0  0  0  0  0  0  0  0  0  0  0
    4.1253  -11.6197   -0.5197 N   0  0  0  0  0  0  0  0  0  0  0  0
    5.2247  -11.7509    0.2303 C   0  0  0  0  0  0  0  0  0  0  0  0
    5.6969  -13.1551    0.5582 C   0  0  0  0  0  0  0  0  0  0  0  0
    6.6748  -13.3520    1.2675 O   0  0  0  0  0  0  0  0  0  0  0  0
    4.9432  -14.1286   -0.0099 N   0  0  0  0  0  0  0  0  0  0  0  0
    5.1846  -15.5430    0.2079 C   0  0  0  0  0  0  0  0  0  0  0  0
    4.2345  -16.1791    1.2094 C   0  0  0  0  0  0  0  0  0  0  0  0
    4.3249  -15.8504    2.5683 C   0  0  0  0  0  0  0  0  0  0  0  0
    3.4351  -16.4266    3.4812 C   0  0  0  0  0  0  0  0  0  0  0  0
    2.4604  -17.3273    3.0572 C   0  0  0  0  0  0  0  0  0  0  0  0
    2.3660  -17.6648    1.6973 C   0  0  0  0  0  0  0  0  0  0  0  0
    1.3909  -18.5525    1.3665 O   0  0  0  0  0  0  0  0  0  0  0  0
    1.2399  -18.9457    0.0231 C   0  0  0  0  0  0  0  0  0  0  0  0
    3.2547  -17.0865    0.7767 C   0  0  0  0  0  0  0  0  0  0  0  0
    5.9513  -10.6655    0.7257 C   0  0  0  0  0  0  0  0  0  0  0  0
    5.8560   -6.9327    0.6669 N   0  0  0  0  0  0  0  0  0  0  0  0
    4.6829   -4.5383    2.7659 C   0  0  0  0  0  0  0  0  0  0  0  0
    3.8213   -3.7003    1.8067 C   0  0  0  0  0  0  0  0  0  0  0  0
    2.6874    1.7131    5.8394 H   0  0  0  0  0  0  0  0  0  0  0  0
    1.2372    1.4686    4.8170 H   0  0  0  0  0  0  0  0  0  0  0  0
    2.7562    2.0376    4.0798 H   0  0  0  0  0  0  0  0  0  0  0  0
    2.4949   -0.7042    5.2016 H   0  0  0  0  0  0  0  0  0  0  0  0
    3.6170   -2.2373    4.0087 H   0  0  0  0  0  0  0  0  0  0  0  0
    3.5555   -1.6593    1.1211 H   0  0  0  0  0  0  0  0  0  0  0  0
    5.7529   -0.8131    1.9375 H   0  0  0  0  0  0  0  0  0  0  0  0
    5.8904   -2.1020    0.7447 H   0  0  0  0  0  0  0  0  0  0  0  0
    6.2034   -2.4021    3.7959 H   0  0  0  0  0  0  0  0  0  0  0  0
    7.5120   -2.4912    2.6237 H   0  0  0  0  0  0  0  0  0  0  0  0
    6.7098   -4.7312    3.4911 H   0  0  0  0  0  0  0  0  0  0  0  0
    7.9013   -4.5146    1.3393 H   0  0  0  0  0  0  0  0  0  0  0  0
    6.3554   -4.4248    0.4576 H   0  0  0  0  0  0  0  0  0  0  0  0
    3.9736   -8.2512   -0.6265 H   0  0  0  0  0  0  0  0  0  0  0  0
    2.1450   -9.2672   -1.8694 H   0  0  0  0  0  0  0  0  0  0  0  0
    1.5983  -10.8176   -1.1659 H   0  0  0  0  0  0  0  0  0  0  0  0
    2.5928  -10.8221   -2.6299 H   0  0  0  0  0  0  0  0  0  0  0  0
    4.1212  -13.8087   -0.5158 H   0  0  0  0  0  0  0  0  0  0  0  0
    6.2198  -15.6256    0.5703 H   0  0  0  0  0  0  0  0  0  0  0  0
    5.1202  -16.0723   -0.7570 H   0  0  0  0  0  0  0  0  0  0  0  0
    5.0934  -15.1501    2.9041 H   0  0  0  0  0  0  0  0  0  0  0  0
    3.5063  -16.1740    4.5425 H   0  0  0  0  0  0  0  0  0  0  0  0
    1.7608  -17.7886    3.7571 H   0  0  0  0  0  0  0  0  0  0  0  0
    0.4058  -19.6602   -0.0031 H   0  0  0  0  0  0  0  0  0  0  0  0
    2.1467  -19.4428   -0.3673 H   0  0  0  0  0  0  0  0  0  0  0  0
    0.9961  -18.0905   -0.6339 H   0  0  0  0  0  0  0  0  0  0  0  0
    3.1985  -17.3375   -0.2837 H   0  0  0  0  0  0  0  0  0  0  0  0
    6.8394  -10.8377    1.3332 H   0  0  0  0  0  0  0  0  0  0  0  0
    4.3774   -4.3479    3.8110 H   0  0  0  0  0  0  0  0  0  0  0  0
    4.4902   -5.6095    2.5976 H   0  0  0  0  0  0  0  0  0  0  0  0
    2.7525   -3.9061    1.9800 H   0  0  0  0  0  0  0  0  0  0  0  0
    4.0275   -4.0056    0.7672 H   0  0  0  0  0  0  0  0  0  0  0  0
  1  2  1  0
  1 37  1  0
  1 38  1  0
  1 39  1  0
  2  3  1  0
  2 40  1  0
  3  4  2  0
  3  5  1  0
  5  6  1  0
  5 41  1  0
  6  7  1  0
  6 36  1  0
  6 42  1  6
  7  8  1  0
  7 43  1  0
  7 44  1  0
  8  9  1  0
  8 45  1  0
  8 46  1  0
  9 10  1  0
  9 35  1  0
  9 47  1  1
 10 11  1  0
 10 48  1  0
 10 49  1  0
 11 12  1  0
 11 34  1  0
 12 13  2  0
 13 14  1  0
 14 15  1  0
 14 34  2  0
 15 16  2  0
 15 33  1  0
 16 17  1  0
 16 50  1  0
 17 18  1  0
 17 19  2  0
 18 51  1  0
 18 52  1  0
 18 53  1  0
 19 20  1  0
 20 21  1  0
 20 33  2  0
 21 22  2  0
 21 23  1  0
 23 24  1  0
 23 54  1  0
 24 25  1  0
 24 55  1  0
 24 56  1  0
 25 26  2  0
 25 32  1  0
 26 27  1  0
 26 57  1  0
 27 28  2  0
 27 58  1  0
 28 29  1  0
 28 59  1  0
 29 30  1  0
 29 32  2  0
 30 31  1  0
 31 60  1  0
 31 61  1  0
 31 62  1  0
 32 63  1  0
 33 64  1  0
 35 36  1  0
 35 65  1  0
 35 66  1  0
 36 67  1  0
 36 68  1  0
M  END

