
     RDKit          3D

 29 30  0  0  0  0  0  0  0  0999 V2000
    1.3957   -0.8851   -2.5132 C   0  0  0  0  0  0  0  0  0  0  0  0
    2.8010   -0.6979   -2.3237 O   0  0  0  0  0  0  0  0  0  0  0  0
    3.1657   -0.1123   -1.1821 C   0  0  0  0  0  0  0  0  0  0  0  0
    2.4070    0.2602   -0.3226 O   0  0  0  0  0  0  0  0  0  0  0  0
    4.6651    0.0311   -1.0899 C   0  0  1  0  0  0  0  0  0  0  0  0
    5.2901   -0.0713   -2.3025 F   0  0  0  0  0  0  0  0  0  0  0  0
    5.2237    1.0083   -0.0880 C   0  0  2  0  0  0  0  0  0  0  0  0
    4.4932    1.5751    0.4944 H   0  0  0  0  0  0  0  0  0  0  0  0
    6.5424    1.6884   -0.4553 C   0  0  1  0  0  0  0  0  0  0  0  0
    6.5148    1.9811   -1.5220 H   0  0  0  0  0  0  0  0  0  0  0  0
    6.6903    2.8268    0.3669 O   0  0  0  0  0  0  0  0  0  0  0  0
    7.6238    0.6094   -0.2148 C   0  0  0  0  0  0  0  0  0  0  0  0
    6.9375   -0.7670   -0.2397 C   0  0  1  0  0  0  0  0  0  0  0  0
    6.9889   -1.2519   -1.2226 H   0  0  0  0  0  0  0  0  0  0  0  0
    7.5602   -1.6243    0.7088 O   0  0  0  0  0  0  0  0  0  0  0  0
    7.9454   -2.8686    0.3106 C   0  0  0  0  0  0  0  0  0  0  0  0
    8.5315   -3.6284    1.4716 C   0  0  0  0  0  0  0  0  0  0  0  0
    7.8203   -3.2811   -0.8123 O   0  0  0  0  0  0  0  0  0  0  0  0
    5.4481   -0.4692    0.1075 C   0  0  2  0  0  0  0  0  0  0  0  0
    4.5316   -1.6361    1.6637 I   0  0  0  0  0  0  0  0  0  0  0  0
    1.2836   -1.3647   -3.4928 H   0  0  0  0  0  0  0  0  0  0  0  0
    0.8696    0.0810   -2.4950 H   0  0  0  0  0  0  0  0  0  0  0  0
    0.9802   -1.5257   -1.7212 H   0  0  0  0  0  0  0  0  0  0  0  0
    7.4580    3.3261    0.0607 H   0  0  0  0  0  0  0  0  0  0  0  0
    8.0058    0.7657    0.8064 H   0  0  0  0  0  0  0  0  0  0  0  0
    8.4671    0.6659   -0.9199 H   0  0  0  0  0  0  0  0  0  0  0  0
    7.7369   -3.8299    2.2072 H   0  0  0  0  0  0  0  0  0  0  0  0
    9.2983   -3.0235    1.9776 H   0  0  0  0  0  0  0  0  0  0  0  0
    8.9574   -4.5741    1.1164 H   0  0  0  0  0  0  0  0  0  0  0  0
  1  2  1  0
  1 21  1  0
  1 22  1  0
  1 23  1  0
  2  3  1  0
  3  4  2  0
  3  5  1  0
  5  6  1  6
  5  7  1  0
  5 19  1  0
  7  8  1  1
  7  9  1  0
  7 19  1  0
  9 10  1  6
  9 11  1  0
  9 12  1  0
 11 24  1  0
 12 13  1  0
 12 25  1  0
 12 26  1  0
 13 14  1  6
 13 15  1  0
 13 19  1  0
 15 16  1  0
 16 17  1  0
 16 18  2  0
 17 27  1  0
 17 28  1  0
 17 29  1  0
 19 20  1  1
M  END

