
     RDKit          3D

 42 43  0  0  0  0  0  0  0  0999 V2000
    5.0286   -3.2390    2.5592 C   0  0  0  0  0  0  0  0  0  0  0  0
    4.3821   -3.4888    1.1904 C   0  0  1  0  0  0  0  0  0  0  0  0
    2.8516   -3.4718    1.3022 C   0  0  0  0  0  0  0  0  0  0  0  0
    4.9142   -2.4856    0.1489 C   0  0  0  0  0  0  0  0  0  0  0  0
    4.4889   -2.7491   -1.2984 C   0  0  0  0  0  0  0  0  0  0  0  0
    5.1000   -1.7764   -2.3180 C   0  0  0  0  0  0  0  0  0  0  0  0
    6.5495   -1.8250   -2.3964 N   0  0  0  0  0  0  0  0  0  0  0  0
    7.2098   -2.6051   -3.2862 C   0  0  0  0  0  0  0  0  0  0  0  0
    6.6744   -3.3246   -4.1170 O   0  0  0  0  0  0  0  0  0  0  0  0
    8.7236   -2.5188   -3.1857 C   0  0  0  0  0  0  0  0  0  0  0  0
    9.4948   -3.2756   -4.0766 C   0  0  0  0  0  0  0  0  0  0  0  0
   10.8795   -3.1878   -3.9728 C   0  0  0  0  0  0  0  0  0  0  0  0
   11.4430   -2.3610   -2.9981 C   0  0  0  0  0  0  0  0  0  0  0  0
   12.9067   -2.2383   -2.8520 C   0  0  0  0  0  0  0  0  0  0  0  0
   13.7289   -2.8162   -3.5325 O   0  0  0  0  0  0  0  0  0  0  0  0
   13.2779   -1.3717   -1.8285 N   0  0  0  0  0  0  0  0  0  0  0  0
   14.2763   -1.2462   -1.6784 H   0  0  0  0  0  0  0  0  0  0  0  0
   12.4673   -0.6394   -0.9648 C   0  0  0  0  0  0  0  0  0  0  0  0
   12.9403    0.0810   -0.1128 O   0  0  0  0  0  0  0  0  0  0  0  0
   11.0928   -0.8019   -1.1600 N   0  0  0  0  0  0  0  0  0  0  0  0
   10.1829   -0.0608   -0.2885 C   0  0  0  0  0  0  0  0  0  0  0  0
   10.5760   -1.6373   -2.1453 C   0  0  0  0  0  0  0  0  0  0  0  0
    9.2486   -1.7228   -2.2470 N   0  0  0  0  0  0  0  0  0  0  0  0
    4.6936   -3.9795    3.3034 H   0  0  0  0  0  0  0  0  0  0  0  0
    4.7642   -2.2389    2.9446 H   0  0  0  0  0  0  0  0  0  0  0  0
    6.1282   -3.2938    2.5031 H   0  0  0  0  0  0  0  0  0  0  0  0
    4.6842   -4.4999    0.8561 H   0  0  0  0  0  0  0  0  0  0  0  0
    2.4898   -2.4738    1.6062 H   0  0  0  0  0  0  0  0  0  0  0  0
    2.5029   -4.1940    2.0580 H   0  0  0  0  0  0  0  0  0  0  0  0
    2.3602   -3.7306    0.3516 H   0  0  0  0  0  0  0  0  0  0  0  0
    6.0179   -2.4938    0.1982 H   0  0  0  0  0  0  0  0  0  0  0  0
    4.6030   -1.4643    0.4444 H   0  0  0  0  0  0  0  0  0  0  0  0
    3.3920   -2.6804   -1.3948 H   0  0  0  0  0  0  0  0  0  0  0  0
    4.7625   -3.7781   -1.5900 H   0  0  0  0  0  0  0  0  0  0  0  0
    4.8028   -0.7413   -2.0772 H   0  0  0  0  0  0  0  0  0  0  0  0
    4.7155   -2.0111   -3.3214 H   0  0  0  0  0  0  0  0  0  0  0  0
    7.1288   -1.2886   -1.7589 H   0  0  0  0  0  0  0  0  0  0  0  0
    8.9893   -3.9006   -4.8123 H   0  0  0  0  0  0  0  0  0  0  0  0
   11.5518   -3.7449   -4.6292 H   0  0  0  0  0  0  0  0  0  0  0  0
   10.7954    0.5266    0.4028 H   0  0  0  0  0  0  0  0  0  0  0  0
    9.5400   -0.7544    0.2722 H   0  0  0  0  0  0  0  0  0  0  0  0
    9.5406    0.6043   -0.8833 H   0  0  0  0  0  0  0  0  0  0  0  0
  1  2  1  0
  1 24  1  0
  1 25  1  0
  1 26  1  0
  2  3  1  0
  2  4  1  0
  2 27  1  6
  3 28  1  0
  3 29  1  0
  3 30  1  0
  4  5  1  0
  4 31  1  0
  4 32  1  0
  5  6  1  0
  5 33  1  0
  5 34  1  0
  6  7  1  0
  6 35  1  0
  6 36  1  0
  7  8  1  0
  7 37  1  0
  8  9  2  0
  8 10  1  0
 10 11  2  0
 10 23  1  0
 11 12  1  0
 11 38  1  0
 12 13  2  0
 12 39  1  0
 13 14  1  0
 13 22  1  0
 14 15  2  0
 14 16  1  0
 16 17  1  0
 16 18  1  0
 18 19  2  0
 18 20  1  0
 20 21  1  0
 20 22  1  0
 21 40  1  0
 21 41  1  0
 21 42  1  0
 22 23  2  0
M  END

