
     RDKit          3D

 55 58  0  0  0  0  0  0  0  0999 V2000
    6.1636   -1.4109    0.6315 C   0  0  0  0  0  0  0  0  0  0  0  0
    4.3724   -1.4673    0.3328 S   0  0  0  0  0  0  0  0  0  0  0  0
    4.2175   -2.9445   -0.6435 C   0  0  0  0  0  0  0  0  0  0  0  0
    5.3121   -3.6425   -0.9280 N   0  0  0  0  0  0  0  0  0  0  0  0
    5.1692   -4.7617   -1.6534 C   0  0  0  0  0  0  0  0  0  0  0  0
    6.3880   -5.5439   -1.9880 C   0  0  1  0  0  0  0  0  0  0  0  0
    7.7045   -4.8336   -2.2470 C   0  0  0  0  0  0  0  0  0  0  0  0
    7.5337   -5.6322   -0.9957 C   0  0  0  0  0  0  0  0  0  0  0  0
    4.0039   -5.2370   -2.1005 N   0  0  0  0  0  0  0  0  0  0  0  0
    2.8912   -4.5449   -1.8164 C   0  0  0  0  0  0  0  0  0  0  0  0
    1.5830   -5.1098   -2.3017 C   0  0  0  0  0  0  0  0  0  0  0  0
    2.9393   -3.3428   -1.0889 C   0  0  0  0  0  0  0  0  0  0  0  0
    1.6579   -2.6484   -0.6748 C   0  0  0  0  0  0  0  0  0  0  0  0
    0.9993   -3.1138    0.2466 O   0  0  0  0  0  0  0  0  0  0  0  0
    1.2817   -1.5348   -1.3747 N   0  0  0  0  0  0  0  0  0  0  0  0
    0.0467   -0.8458   -1.0076 C   0  0  0  0  0  0  0  0  0  0  0  0
    0.3181    0.6370   -0.7377 C   0  0  0  0  0  0  0  0  0  0  0  0
    1.0090    1.3327   -1.9384 C   0  0  2  0  0  0  0  0  0  0  0  0
    0.0156    1.5383   -3.0876 C   0  0  0  0  0  0  0  0  0  0  0  0
   -0.1438    0.6985   -3.9692 O   0  0  0  0  0  0  0  0  0  0  0  0
   -0.7221    2.6876   -3.0792 N   0  0  0  0  0  0  0  0  0  0  0  0
   -0.6367    3.8065   -2.1325 C   0  0  0  0  0  0  0  0  0  0  0  0
   -1.8517    4.6724   -2.4946 C   0  0  0  0  0  0  0  0  0  0  0  0
   -2.0161    4.4326   -4.0020 C   0  0  0  0  0  0  0  0  0  0  0  0
   -1.6914    2.9427   -4.1547 C   0  0  0  0  0  0  0  0  0  0  0  0
    2.2430    0.5146   -2.3738 C   0  0  0  0  0  0  0  0  0  0  0  0
    1.9636   -0.9854   -2.5463 C   0  0  0  0  0  0  0  0  0  0  0  0
    6.3303   -0.5094    1.2379 H   0  0  0  0  0  0  0  0  0  0  0  0
    6.7188   -1.3387   -0.3124 H   0  0  0  0  0  0  0  0  0  0  0  0
    6.4937   -2.3007    1.1827 H   0  0  0  0  0  0  0  0  0  0  0  0
    6.1635   -6.4309   -2.5833 H   0  0  0  0  0  0  0  0  0  0  0  0
    7.6930   -3.7443   -2.1583 H   0  0  0  0  0  0  0  0  0  0  0  0
    8.3371   -5.2296   -3.0465 H   0  0  0  0  0  0  0  0  0  0  0  0
    7.4057   -5.0852   -0.0581 H   0  0  0  0  0  0  0  0  0  0  0  0
    8.0447   -6.5950   -0.9072 H   0  0  0  0  0  0  0  0  0  0  0  0
    1.7664   -6.0440   -2.8469 H   0  0  0  0  0  0  0  0  0  0  0  0
    1.0650   -4.3984   -2.9657 H   0  0  0  0  0  0  0  0  0  0  0  0
    0.9116   -5.2992   -1.4499 H   0  0  0  0  0  0  0  0  0  0  0  0
   -0.3569   -1.3447   -0.1181 H   0  0  0  0  0  0  0  0  0  0  0  0
   -0.6842   -0.9555   -1.8285 H   0  0  0  0  0  0  0  0  0  0  0  0
    0.9741    0.7231    0.1447 H   0  0  0  0  0  0  0  0  0  0  0  0
   -0.6301    1.1407   -0.4862 H   0  0  0  0  0  0  0  0  0  0  0  0
    1.3639    2.3192   -1.6022 H   0  0  0  0  0  0  0  0  0  0  0  0
    0.3045    4.3724   -2.2682 H   0  0  0  0  0  0  0  0  0  0  0  0
   -0.6683    3.4641   -1.0869 H   0  0  0  0  0  0  0  0  0  0  0  0
   -1.7079    5.7298   -2.2270 H   0  0  0  0  0  0  0  0  0  0  0  0
   -2.7428    4.3102   -1.9550 H   0  0  0  0  0  0  0  0  0  0  0  0
   -1.2858    5.0395   -4.5635 H   0  0  0  0  0  0  0  0  0  0  0  0
   -3.0180    4.6885   -4.3769 H   0  0  0  0  0  0  0  0  0  0  0  0
   -1.2574    2.6742   -5.1288 H   0  0  0  0  0  0  0  0  0  0  0  0
   -2.5876    2.3099   -4.0204 H   0  0  0  0  0  0  0  0  0  0  0  0
    3.0224    0.6368   -1.6041 H   0  0  0  0  0  0  0  0  0  0  0  0
    2.6478    0.9107   -3.3186 H   0  0  0  0  0  0  0  0  0  0  0  0
    2.9059   -1.5257   -2.7015 H   0  0  0  0  0  0  0  0  0  0  0  0
    1.3287   -1.1327   -3.4340 H   0  0  0  0  0  0  0  0  0  0  0  0
  1  2  1  0
  1 28  1  0
  1 29  1  0
  1 30  1  0
  2  3  2  0
  3  4  1  0
  3 12  1  0
  4  5  2  0
  5  6  1  0
  5  9  1  0
  6  7  1  0
  6  8  1  0
  6 31  1  6
  7  8  1  0
  7 32  1  0
  7 33  1  0
  8 34  1  0
  8 35  1  0
  9 10  2  0
 10 11  1  0
 10 12  1  0
 11 36  1  0
 11 37  1  0
 11 38  1  0
 12 13  2  0
 13 14  1  0
 13 15  1  0
 15 16  1  0
 15 27  1  0
 16 17  1  0
 16 39  1  0
 16 40  1  0
 17 18  1  0
 17 41  1  0
 17 42  1  0
 18 19  1  0
 18 26  1  0
 18 43  1  1
 19 20  2  0
 19 21  1  0
 21 22  1  0
 21 25  1  0
 22 23  1  0
 22 44  1  0
 22 45  1  0
 23 24  1  0
 23 46  1  0
 23 47  1  0
 24 25  1  0
 24 48  1  0
 24 49  1  0
 25 50  1  0
 25 51  1  0
 26 27  1  0
 26 52  1  0
 26 53  1  0
 27 54  1  0
 27 55  1  0
M  CHG  2   2   1  14  -1
M  END

