
     RDKit          3D

 42 43  0  0  0  0  0  0  0  0999 V2000
    9.3897   -0.4774   -1.0922 C   0  0  0  0  0  0  0  0  0  0  0  0
    8.0671   -0.7910   -1.7922 C   0  0  0  0  0  0  0  0  0  0  0  0
    6.9654   -1.3616   -0.8712 C   0  0  0  0  0  0  0  0  0  0  0  0
    6.4579   -0.3806    0.1565 C   0  0  0  0  0  0  0  0  0  0  0  0
    5.3787    0.4694   -0.1147 C   0  0  0  0  0  0  0  0  0  0  0  0
    5.0140    1.3487    0.9092 C   0  0  0  0  0  0  0  0  0  0  0  0
    3.6687    2.4383    0.6540 Cl  0  0  0  0  0  0  0  0  0  0  0  0
    5.6292    1.3985    2.0715 N   0  0  0  0  0  0  0  0  0  0  0  0
    6.6573    0.5553    2.2451 C   0  0  0  0  0  0  0  0  0  0  0  0
    7.3718    0.5963    3.5921 C   0  0  1  0  0  0  0  0  0  0  0  0
    7.6989    1.9173    3.9671 O   0  0  0  0  0  0  0  0  0  0  0  0
    8.6731    2.5430    3.1725 C   0  0  0  0  0  0  0  0  0  0  0  0
    6.4895    0.0131    4.7215 C   0  0  1  0  0  0  0  0  0  0  0  0
    5.9860   -1.4179    4.4390 C   0  0  0  0  0  0  0  0  0  0  0  0
    7.0849   -2.4843    4.5601 C   0  0  0  0  0  0  0  0  0  0  0  0
    7.7878   -2.4146    5.9227 C   0  0  0  0  0  0  0  0  0  0  0  0
    8.3156   -1.0034    6.2143 C   0  0  0  0  0  0  0  0  0  0  0  0
    7.2114    0.0558    6.0846 C   0  0  0  0  0  0  0  0  0  0  0  0
    7.0936   -0.3231    1.3400 N   0  0  0  0  0  0  0  0  0  0  0  0
   10.1284   -0.0867   -1.8102 H   0  0  0  0  0  0  0  0  0  0  0  0
    9.8174   -1.3804   -0.6267 H   0  0  0  0  0  0  0  0  0  0  0  0
    9.2653    0.2699   -0.2939 H   0  0  0  0  0  0  0  0  0  0  0  0
    8.2434   -1.5268   -2.5957 H   0  0  0  0  0  0  0  0  0  0  0  0
    7.6820    0.1155   -2.2925 H   0  0  0  0  0  0  0  0  0  0  0  0
    7.3552   -2.2417   -0.3354 H   0  0  0  0  0  0  0  0  0  0  0  0
    6.1202   -1.6951   -1.4946 H   0  0  0  0  0  0  0  0  0  0  0  0
    4.8446    0.4482   -1.0648 H   0  0  0  0  0  0  0  0  0  0  0  0
    8.2938   -0.0015    3.4658 H   0  0  0  0  0  0  0  0  0  0  0  0
    8.8829    3.5250    3.6213 H   0  0  0  0  0  0  0  0  0  0  0  0
    8.3318    2.7060    2.1317 H   0  0  0  0  0  0  0  0  0  0  0  0
    9.6161    1.9609    3.1375 H   0  0  0  0  0  0  0  0  0  0  0  0
    5.6186    0.6886    4.7675 H   0  0  0  0  0  0  0  0  0  0  0  0
    5.5027   -1.4796    3.4504 H   0  0  0  0  0  0  0  0  0  0  0  0
    5.1932   -1.6410    5.1753 H   0  0  0  0  0  0  0  0  0  0  0  0
    7.8244   -2.3496    3.7509 H   0  0  0  0  0  0  0  0  0  0  0  0
    6.6481   -3.4861    4.4080 H   0  0  0  0  0  0  0  0  0  0  0  0
    8.6080   -3.1512    5.9705 H   0  0  0  0  0  0  0  0  0  0  0  0
    7.0688   -2.7004    6.7134 H   0  0  0  0  0  0  0  0  0  0  0  0
    9.1416   -0.7714    5.5174 H   0  0  0  0  0  0  0  0  0  0  0  0
    8.7554   -0.9612    7.2253 H   0  0  0  0  0  0  0  0  0  0  0  0
    7.6164    1.0642    6.2523 H   0  0  0  0  0  0  0  0  0  0  0  0
    6.4561   -0.1185    6.8722 H   0  0  0  0  0  0  0  0  0  0  0  0
  1  2  1  0
  1 20  1  0
  1 21  1  0
  1 22  1  0
  2  3  1  0
  2 23  1  0
  2 24  1  0
  3  4  1  0
  3 25  1  0
  3 26  1  0
  4  5  2  0
  4 19  1  0
  5  6  1  0
  5 27  1  0
  6  7  1  0
  6  8  2  0
  8  9  1  0
  9 10  1  0
  9 19  2  0
 10 11  1  0
 10 13  1  0
 10 28  1  6
 11 12  1  0
 12 29  1  0
 12 30  1  0
 12 31  1  0
 13 14  1  0
 13 18  1  0
 13 32  1  1
 14 15  1  0
 14 33  1  0
 14 34  1  0
 15 16  1  0
 15 35  1  0
 15 36  1  0
 16 17  1  0
 16 37  1  0
 16 38  1  0
 17 18  1  0
 17 39  1  0
 17 40  1  0
 18 41  1  0
 18 42  1  0
M  END

