
     RDKit          3D

 36 37  0  0  0  0  0  0  0  0999 V2000
    1.8186   -0.3639    1.7384 C   0  0  0  0  0  0  0  0  0  0  0  0
    2.7867   -0.1936    0.5967 C   0  0  0  0  0  0  0  0  0  0  0  0
    3.5051    0.9973    0.4308 C   0  0  0  0  0  0  0  0  0  0  0  0
    4.4071    1.1693   -0.6232 C   0  0  0  0  0  0  0  0  0  0  0  0
    4.6077    0.1359   -1.5421 C   0  0  0  0  0  0  0  0  0  0  0  0
    3.9051   -1.0595   -1.3995 C   0  0  0  0  0  0  0  0  0  0  0  0
    2.9929   -1.2420   -0.3398 C   0  0  0  0  0  0  0  0  0  0  0  0
    2.2831   -2.4811   -0.2167 C   0  0  0  0  0  0  0  0  0  0  0  0
    1.6882   -3.5375   -0.1074 C   0  0  0  0  0  0  0  0  0  0  0  0
    0.9551   -4.7981   -0.0108 C   0  0  0  0  0  0  0  0  0  0  0  0
   -0.2225   -4.8983   -1.0085 C   0  0  0  0  0  0  0  0  0  0  0  0
   -0.9203   -6.1697   -0.8838 N   0  0  0  0  0  0  0  0  0  0  0  0
   -1.9428   -6.2310    0.1607 C   0  0  0  0  0  0  0  0  0  0  0  0
   -3.2961   -5.6925   -0.3164 C   0  0  0  0  0  0  0  0  0  0  0  0
   -3.7188   -6.3558   -1.4939 O   0  0  0  0  0  0  0  0  0  0  0  0
   -2.7772   -6.2292   -2.5441 C   0  0  0  0  0  0  0  0  0  0  0  0
   -1.4133   -6.7797   -2.1165 C   0  0  0  0  0  0  0  0  0  0  0  0
    1.7764    0.5390    2.3647 H   0  0  0  0  0  0  0  0  0  0  0  0
    2.1021   -1.2155    2.3786 H   0  0  0  0  0  0  0  0  0  0  0  0
    0.8012   -0.5776    1.3711 H   0  0  0  0  0  0  0  0  0  0  0  0
    3.3526    1.8097    1.1470 H   0  0  0  0  0  0  0  0  0  0  0  0
    4.9525    2.1110   -0.7250 H   0  0  0  0  0  0  0  0  0  0  0  0
    5.3110    0.2601   -2.3694 H   0  0  0  0  0  0  0  0  0  0  0  0
    4.0532   -1.8748   -2.1109 H   0  0  0  0  0  0  0  0  0  0  0  0
    0.5754   -4.9230    1.0187 H   0  0  0  0  0  0  0  0  0  0  0  0
    1.6322   -5.6506   -0.1902 H   0  0  0  0  0  0  0  0  0  0  0  0
    0.1847   -4.8173   -2.0284 H   0  0  0  0  0  0  0  0  0  0  0  0
   -0.8779   -4.0131   -0.8721 H   0  0  0  0  0  0  0  0  0  0  0  0
   -1.6032   -5.6796    1.0524 H   0  0  0  0  0  0  0  0  0  0  0  0
   -2.0744   -7.2859    0.4638 H   0  0  0  0  0  0  0  0  0  0  0  0
   -3.2317   -4.5983   -0.4981 H   0  0  0  0  0  0  0  0  0  0  0  0
   -4.0761   -5.8597    0.4433 H   0  0  0  0  0  0  0  0  0  0  0  0
   -2.6827   -5.1644   -2.8482 H   0  0  0  0  0  0  0  0  0  0  0  0
   -3.1788   -6.7903   -3.4031 H   0  0  0  0  0  0  0  0  0  0  0  0
   -0.6704   -6.6461   -2.9194 H   0  0  0  0  0  0  0  0  0  0  0  0
   -1.5204   -7.8672   -1.9463 H   0  0  0  0  0  0  0  0  0  0  0  0
  1  2  1  0
  1 18  1  0
  1 19  1  0
  1 20  1  0
  2  3  2  0
  2  7  1  0
  3  4  1  0
  3 21  1  0
  4  5  2  0
  4 22  1  0
  5  6  1  0
  5 23  1  0
  6  7  2  0
  6 24  1  0
  7  8  1  0
  8  9  3  0
  9 10  1  0
 10 11  1  0
 10 25  1  0
 10 26  1  0
 11 12  1  0
 11 27  1  0
 11 28  1  0
 12 13  1  0
 12 17  1  0
 13 14  1  0
 13 29  1  0
 13 30  1  0
 14 15  1  0
 14 31  1  0
 14 32  1  0
 15 16  1  0
 16 17  1  0
 16 33  1  0
 16 34  1  0
 17 35  1  0
 17 36  1  0
M  END

