
     RDKit          3D

 44 46  0  0  0  0  0  0  0  0999 V2000
    1.8412   -0.0208   -0.9263 C   0  0  0  0  0  0  0  0  0  0  0  0
    2.3444   -0.0044    0.3891 O   0  0  0  0  0  0  0  0  0  0  0  0
    3.0255    1.0876    0.8259 C   0  0  0  0  0  0  0  0  0  0  0  0
    3.2859    2.2286    0.0520 C   0  0  0  0  0  0  0  0  0  0  0  0
    4.0057    3.2954    0.6005 C   0  0  0  0  0  0  0  0  0  0  0  0
    4.4729    3.2763    1.9264 C   0  0  0  0  0  0  0  0  0  0  0  0
    5.2431    4.3956    2.5022 C   0  0  0  0  0  0  0  0  0  0  0  0
    4.9757    5.8053    2.4972 C   0  0  0  0  0  0  0  0  0  0  0  0
    3.7703    6.4974    1.9004 C   0  0  1  0  0  0  0  0  0  0  0  0
    2.9977    7.3856    2.9078 C   0  0  0  0  0  0  0  0  0  0  0  0
    3.6781    8.7304    3.1974 C   0  0  0  0  0  0  0  0  0  0  0  0
    3.9829    9.4981    1.9043 C   0  0  0  0  0  0  0  0  0  0  0  0
    4.8058    8.6450    0.9297 C   0  0  0  0  0  0  0  0  0  0  0  0
    4.1055    7.3145    0.6261 C   0  0  0  0  0  0  0  0  0  0  0  0
    5.9366    6.4757    3.1269 N   0  0  0  0  0  0  0  0  0  0  0  0
    6.8180    5.5427    3.5625 N   0  0  0  0  0  0  0  0  0  0  0  0
    8.0045    5.9353    4.2840 C   0  0  0  0  0  0  0  0  0  0  0  0
    6.4513    4.2850    3.1991 C   0  0  0  0  0  0  0  0  0  0  0  0
    7.1993    3.1692    3.5670 N   0  0  0  0  0  0  0  0  0  0  0  0
    4.1897    2.1196    2.6875 C   0  0  0  0  0  0  0  0  0  0  0  0
    3.4895    1.0434    2.1512 C   0  0  0  0  0  0  0  0  0  0  0  0
    1.3292   -0.9842   -1.0548 H   0  0  0  0  0  0  0  0  0  0  0  0
    2.6475    0.0570   -1.6786 H   0  0  0  0  0  0  0  0  0  0  0  0
    1.1157    0.7946   -1.1014 H   0  0  0  0  0  0  0  0  0  0  0  0
    2.9454    2.2955   -0.9817 H   0  0  0  0  0  0  0  0  0  0  0  0
    4.2228    4.1606   -0.0298 H   0  0  0  0  0  0  0  0  0  0  0  0
    3.0872    5.6887    1.5979 H   0  0  0  0  0  0  0  0  0  0  0  0
    2.8344    6.8271    3.8443 H   0  0  0  0  0  0  0  0  0  0  0  0
    1.9958    7.5783    2.4804 H   0  0  0  0  0  0  0  0  0  0  0  0
    4.6179    8.5471    3.7415 H   0  0  0  0  0  0  0  0  0  0  0  0
    3.0330    9.3361    3.8575 H   0  0  0  0  0  0  0  0  0  0  0  0
    4.5153   10.4371    2.1339 H   0  0  0  0  0  0  0  0  0  0  0  0
    3.0326    9.7918    1.4179 H   0  0  0  0  0  0  0  0  0  0  0  0
    5.7951    8.4405    1.3717 H   0  0  0  0  0  0  0  0  0  0  0  0
    4.9801    9.1968   -0.0104 H   0  0  0  0  0  0  0  0  0  0  0  0
    4.7196    6.7056   -0.0591 H   0  0  0  0  0  0  0  0  0  0  0  0
    3.1571    7.5218    0.0958 H   0  0  0  0  0  0  0  0  0  0  0  0
    7.7935    6.8798    4.8017 H   0  0  0  0  0  0  0  0  0  0  0  0
    8.8693    6.0893    3.6136 H   0  0  0  0  0  0  0  0  0  0  0  0
    8.2587    5.1630    5.0256 H   0  0  0  0  0  0  0  0  0  0  0  0
    8.1926    3.2446    3.3555 H   0  0  0  0  0  0  0  0  0  0  0  0
    6.8273    2.3132    3.1639 H   0  0  0  0  0  0  0  0  0  0  0  0
    4.5058    2.0773    3.7336 H   0  0  0  0  0  0  0  0  0  0  0  0
    3.2707    0.1551    2.7478 H   0  0  0  0  0  0  0  0  0  0  0  0
  1  2  1  0
  1 22  1  0
  1 23  1  0
  1 24  1  0
  2  3  1  0
  3  4  2  0
  3 21  1  0
  4  5  1  0
  4 25  1  0
  5  6  2  0
  5 26  1  0
  6  7  1  0
  6 20  1  0
  7  8  1  0
  7 18  2  0
  8  9  1  0
  8 15  2  0
  9 10  1  0
  9 14  1  0
  9 27  1  6
 10 11  1  0
 10 28  1  0
 10 29  1  0
 11 12  1  0
 11 30  1  0
 11 31  1  0
 12 13  1  0
 12 32  1  0
 12 33  1  0
 13 14  1  0
 13 34  1  0
 13 35  1  0
 14 36  1  0
 14 37  1  0
 15 16  1  0
 16 17  1  0
 16 18  1  0
 17 38  1  0
 17 39  1  0
 17 40  1  0
 18 19  1  0
 19 41  1  0
 19 42  1  0
 20 21  2  0
 20 43  1  0
 21 44  1  0
M  END

