
     RDKit          3D

 52 54  0  0  0  0  0  0  0  0999 V2000
    4.8602   -0.4302   -0.0065 C   0  0  0  0  0  0  0  0  0  0  0  0
    3.4471   -0.0997   -0.4795 C   0  0  0  0  0  0  0  0  0  0  0  0
    3.4329    0.6783   -1.7141 N   0  0  0  0  0  0  0  0  0  0  0  0
    3.2135    2.0256   -1.8307 C   0  0  0  0  0  0  0  0  0  0  0  0
    3.3612    2.3176   -3.1801 C   0  0  0  0  0  0  0  0  0  0  0  0
    3.2406    3.5231   -3.8560 N   0  0  0  0  0  0  0  0  0  0  0  0
    2.9301    4.7156   -3.2574 C   0  0  0  0  0  0  0  0  0  0  0  0
    2.7237    4.8456   -2.0586 O   0  0  0  0  0  0  0  0  0  0  0  0
    2.8571    5.8692   -4.1792 C   0  0  0  0  0  0  0  0  0  0  0  0
    2.5631    7.1860   -3.9331 C   0  0  0  0  0  0  0  0  0  0  0  0
    2.6333    7.8482   -5.1955 C   0  0  0  0  0  0  0  0  0  0  0  0
    2.9631    6.8907   -6.1213 C   0  0  0  0  0  0  0  0  0  0  0  0
    3.2061    6.9387   -7.5867 C   0  0  0  0  0  0  0  0  0  0  0  0
    4.6085    6.9220   -7.8319 O   0  0  0  0  0  0  0  0  0  0  0  0
    5.0634    6.9351   -9.1075 C   0  0  0  0  0  0  0  0  0  0  0  0
    4.2409    6.9903  -10.2462 C   0  0  0  0  0  0  0  0  0  0  0  0
    4.8226    7.0036  -11.5142 C   0  0  0  0  0  0  0  0  0  0  0  0
    6.2136    6.9635  -11.6742 C   0  0  0  0  0  0  0  0  0  0  0  0
    6.7644    6.9812  -13.0558 C   0  0  0  0  0  0  0  0  0  0  0  0
    6.0964    7.0285  -14.0647 O   0  0  0  0  0  0  0  0  0  0  0  0
    8.1140    6.9387  -13.0759 O   0  0  0  0  0  0  0  0  0  0  0  0
    8.7235    6.9522  -14.3638 C   0  0  0  0  0  0  0  0  0  0  0  0
    7.0290    6.9083  -10.5274 C   0  0  0  0  0  0  0  0  0  0  0  0
    6.4628    6.8941   -9.2604 C   0  0  0  0  0  0  0  0  0  0  0  0
    3.0981    5.6861   -5.5069 O   0  0  0  0  0  0  0  0  0  0  0  0
    3.6741    1.0630   -3.7834 C   0  0  0  0  0  0  0  0  0  0  0  0
    3.9106    0.8679   -5.2206 C   0  0  0  0  0  0  0  0  0  0  0  0
    3.8553    1.7856   -6.0234 O   0  0  0  0  0  0  0  0  0  0  0  0
    4.1897   -0.3923   -5.5648 O   0  0  0  0  0  0  0  0  0  0  0  0
    4.4283   -0.6307   -6.9512 C   0  0  0  0  0  0  0  0  0  0  0  0
    3.7135    0.0876   -2.8660 N   0  0  0  0  0  0  0  0  0  0  0  0
    4.8196   -1.0383    0.9108 H   0  0  0  0  0  0  0  0  0  0  0  0
    5.4311    0.4858    0.2114 H   0  0  0  0  0  0  0  0  0  0  0  0
    5.3979   -1.0000   -0.7786 H   0  0  0  0  0  0  0  0  0  0  0  0
    2.9005    0.4843    0.2757 H   0  0  0  0  0  0  0  0  0  0  0  0
    2.8756   -1.0206   -0.6701 H   0  0  0  0  0  0  0  0  0  0  0  0
    2.9699    2.6678   -0.9919 H   0  0  0  0  0  0  0  0  0  0  0  0
    3.4024    3.4696   -4.8626 H   0  0  0  0  0  0  0  0  0  0  0  0
    2.3278    7.6061   -2.9587 H   0  0  0  0  0  0  0  0  0  0  0  0
    2.4658    8.9037   -5.3996 H   0  0  0  0  0  0  0  0  0  0  0  0
    2.7524    7.8588   -7.9944 H   0  0  0  0  0  0  0  0  0  0  0  0
    2.7268    6.0708   -8.0746 H   0  0  0  0  0  0  0  0  0  0  0  0
    3.1550    7.0225  -10.1585 H   0  0  0  0  0  0  0  0  0  0  0  0
    4.1979    7.0460  -12.4087 H   0  0  0  0  0  0  0  0  0  0  0  0
    9.8065    6.9142  -14.1916 H   0  0  0  0  0  0  0  0  0  0  0  0
    8.4572    7.8668  -14.9157 H   0  0  0  0  0  0  0  0  0  0  0  0
    8.4019    6.0846  -14.9604 H   0  0  0  0  0  0  0  0  0  0  0  0
    8.1131    6.8761  -10.6424 H   0  0  0  0  0  0  0  0  0  0  0  0
    7.0795    6.8502   -8.3606 H   0  0  0  0  0  0  0  0  0  0  0  0
    4.6396   -1.7030   -7.0425 H   0  0  0  0  0  0  0  0  0  0  0  0
    5.2853   -0.0401   -7.3095 H   0  0  0  0  0  0  0  0  0  0  0  0
    3.5468   -0.3625   -7.5533 H   0  0  0  0  0  0  0  0  0  0  0  0
  1  2  1  0
  1 32  1  0
  1 33  1  0
  1 34  1  0
  2  3  1  0
  2 35  1  0
  2 36  1  0
  3  4  1  0
  3 31  1  0
  4  5  2  0
  4 37  1  0
  5  6  1  0
  5 26  1  0
  6  7  1  0
  6 38  1  0
  7  8  2  0
  7  9  1  0
  9 10  2  0
  9 25  1  0
 10 11  1  0
 10 39  1  0
 11 12  2  0
 11 40  1  0
 12 13  1  0
 12 25  1  0
 13 14  1  0
 13 41  1  0
 13 42  1  0
 14 15  1  0
 15 16  2  0
 15 24  1  0
 16 17  1  0
 16 43  1  0
 17 18  2  0
 17 44  1  0
 18 19  1  0
 18 23  1  0
 19 20  2  0
 19 21  1  0
 21 22  1  0
 22 45  1  0
 22 46  1  0
 22 47  1  0
 23 24  2  0
 23 48  1  0
 24 49  1  0
 26 27  1  0
 26 31  2  0
 27 28  2  0
 27 29  1  0
 29 30  1  0
 30 50  1  0
 30 51  1  0
 30 52  1  0
M  END

