
     RDKit          3D

 46 46  0  0  0  0  0  0  0  0999 V2000
    7.0733    3.7732    0.5959 C   0  0  0  0  0  0  0  0  0  0  0  0
    6.6327    2.4258    0.4180 O   0  0  0  0  0  0  0  0  0  0  0  0
    7.4624    1.4640    0.8567 C   0  0  0  0  0  0  0  0  0  0  0  0
    8.5286    1.6884    1.3773 O   0  0  0  0  0  0  0  0  0  0  0  0
    6.8861    0.0873    0.6120 C   0  0  0  0  0  0  0  0  0  0  0  0
    7.8074   -1.0165    1.1040 C   0  0  0  0  0  0  0  0  0  0  0  0
    7.1721   -2.2500    0.8228 O   0  0  0  0  0  0  0  0  0  0  0  0
    7.7890   -3.4122    1.1654 C   0  0  0  0  0  0  0  0  0  0  0  0
    9.0383   -3.5017    1.7933 C   0  0  0  0  0  0  0  0  0  0  0  0
    9.5961   -4.7468    2.1072 C   0  0  0  0  0  0  0  0  0  0  0  0
    8.9094   -5.9289    1.7995 C   0  0  0  0  0  0  0  0  0  0  0  0
    9.3905   -7.2308    2.0791 N   0  0  0  0  0  0  0  0  0  0  0  0
   10.5519   -7.6016    2.7108 C   0  0  0  0  0  0  0  0  0  0  0  0
   11.3862   -6.7813    3.1138 O   0  0  0  0  0  0  0  0  0  0  0  0
   10.7445   -8.9546    2.8756 N   0  0  0  0  0  0  0  0  0  0  0  0
    9.7356   -9.9422    2.5336 C   0  0  0  0  0  0  0  0  0  0  0  0
   12.0058   -9.3570    3.5003 C   0  0  0  0  0  0  0  0  0  0  0  0
   12.0732   -9.1270    5.0424 C   0  0  1  0  0  0  0  0  0  0  0  0
   11.9837  -10.4258    5.8421 C   0  0  0  0  0  0  0  0  0  0  0  0
   13.3254   -8.3179    5.4315 C   0  0  0  0  0  0  0  0  0  0  0  0
   14.1308   -8.7043    6.2410 O   0  0  0  0  0  0  0  0  0  0  0  0
   13.4571   -7.1440    4.8097 O   0  0  0  0  0  0  0  0  0  0  0  0
    7.6540   -5.8319    1.1685 C   0  0  0  0  0  0  0  0  0  0  0  0
    7.1012   -4.5972    0.8546 C   0  0  0  0  0  0  0  0  0  0  0  0
    6.2807    4.4107    0.1855 H   0  0  0  0  0  0  0  0  0  0  0  0
    8.0196    3.9495    0.0624 H   0  0  0  0  0  0  0  0  0  0  0  0
    7.2292    3.9967    1.6622 H   0  0  0  0  0  0  0  0  0  0  0  0
    6.6861   -0.0275   -0.4661 H   0  0  0  0  0  0  0  0  0  0  0  0
    5.9030    0.0204    1.1066 H   0  0  0  0  0  0  0  0  0  0  0  0
    7.9946   -0.9071    2.1872 H   0  0  0  0  0  0  0  0  0  0  0  0
    8.7875   -0.9533    0.5984 H   0  0  0  0  0  0  0  0  0  0  0  0
    9.6026   -2.6045    2.0487 H   0  0  0  0  0  0  0  0  0  0  0  0
   10.5678   -4.8017    2.5909 H   0  0  0  0  0  0  0  0  0  0  0  0
    8.7911   -7.9724    1.7436 H   0  0  0  0  0  0  0  0  0  0  0  0
    8.7833   -9.7716    3.0677 H   0  0  0  0  0  0  0  0  0  0  0  0
   10.0954  -10.9385    2.8183 H   0  0  0  0  0  0  0  0  0  0  0  0
    9.5273   -9.9709    1.4472 H   0  0  0  0  0  0  0  0  0  0  0  0
   12.8204   -8.8167    2.9970 H   0  0  0  0  0  0  0  0  0  0  0  0
   12.1558  -10.4237    3.2814 H   0  0  0  0  0  0  0  0  0  0  0  0
   11.2164   -8.4822    5.3049 H   0  0  0  0  0  0  0  0  0  0  0  0
   12.8426  -11.0788    5.6227 H   0  0  0  0  0  0  0  0  0  0  0  0
   11.0566  -10.9722    5.6034 H   0  0  0  0  0  0  0  0  0  0  0  0
   12.0005  -10.2251    6.9225 H   0  0  0  0  0  0  0  0  0  0  0  0
   12.7019   -6.9686    4.1933 H   0  0  0  0  0  0  0  0  0  0  0  0
    7.0992   -6.7422    0.9191 H   0  0  0  0  0  0  0  0  0  0  0  0
    6.1282   -4.5250    0.3649 H   0  0  0  0  0  0  0  0  0  0  0  0
  1  2  1  0
  1 25  1  0
  1 26  1  0
  1 27  1  0
  2  3  1  0
  3  4  2  0
  3  5  1  0
  5  6  1  0
  5 28  1  0
  5 29  1  0
  6  7  1  0
  6 30  1  0
  6 31  1  0
  7  8  1  0
  8  9  2  0
  8 24  1  0
  9 10  1  0
  9 32  1  0
 10 11  2  0
 10 33  1  0
 11 12  1  0
 11 23  1  0
 12 13  1  0
 12 34  1  0
 13 14  2  0
 13 15  1  0
 15 16  1  0
 15 17  1  0
 16 35  1  0
 16 36  1  0
 16 37  1  0
 17 18  1  0
 17 38  1  0
 17 39  1  0
 18 19  1  0
 18 20  1  0
 18 40  1  1
 19 41  1  0
 19 42  1  0
 19 43  1  0
 20 21  2  0
 20 22  1  0
 22 44  1  0
 23 24  2  0
 23 45  1  0
 24 46  1  0
M  END

