
     RDKit          3D

 42 44  0  0  0  0  0  0  0  0999 V2000
    2.1649    1.1718    0.7896 C   0  0  0  0  0  0  0  0  0  0  0  0
    3.6265    1.5711    0.6694 C   0  0  0  0  0  0  0  0  0  0  0  0
    4.0316    1.7117   -0.7037 O   0  0  0  0  0  0  0  0  0  0  0  0
    4.4384    0.5950   -1.3487 C   0  0  0  0  0  0  0  0  0  0  0  0
    4.4763   -0.4936   -0.8279 O   0  0  0  0  0  0  0  0  0  0  0  0
    4.8267    0.8945   -2.7605 C   0  0  0  0  0  0  0  0  0  0  0  0
    4.7160    2.1901   -3.2915 C   0  0  0  0  0  0  0  0  0  0  0  0
    5.0714    2.4936   -4.6079 C   0  0  0  0  0  0  0  0  0  0  0  0
    5.5844    1.4763   -5.4363 C   0  0  0  0  0  0  0  0  0  0  0  0
    5.7021    0.1786   -4.9231 C   0  0  0  0  0  0  0  0  0  0  0  0
    5.3256   -0.1074   -3.6153 C   0  0  0  0  0  0  0  0  0  0  0  0
    5.4612   -1.3628   -3.1942 F   0  0  0  0  0  0  0  0  0  0  0  0
    6.0536    1.7982   -6.8383 C   0  0  0  0  0  0  0  0  0  0  0  0
    5.5555    3.1676   -7.2927 C   0  0  0  0  0  0  0  0  0  0  0  0
    5.7661    4.1238   -6.2711 O   0  0  0  0  0  0  0  0  0  0  0  0
    4.9475    3.9192   -5.1301 C   0  0  1  0  0  0  0  0  0  0  0  0
    3.5041    4.3863   -5.4117 C   0  0  0  0  0  0  0  0  0  0  0  0
    2.4227    3.5014   -5.2981 C   0  0  0  0  0  0  0  0  0  0  0  0
    1.1086    3.8980   -5.5629 C   0  0  0  0  0  0  0  0  0  0  0  0
    0.8463    5.2099   -5.9490 C   0  0  0  0  0  0  0  0  0  0  0  0
    1.9058    6.1106   -6.0713 C   0  0  0  0  0  0  0  0  0  0  0  0
    3.2254    5.7183   -5.8113 C   0  0  0  0  0  0  0  0  0  0  0  0
    4.2998    6.7706   -6.0373 C   0  0  1  0  0  0  0  0  0  0  0  0
    5.2756    6.7368   -5.1124 F   0  0  0  0  0  0  0  0  0  0  0  0
    4.8758    6.6514   -7.2442 F   0  0  0  0  0  0  0  0  0  0  0  0
    3.7766    8.0137   -5.9867 F   0  0  0  0  0  0  0  0  0  0  0  0
    1.8695    1.1503    1.8509 H   0  0  0  0  0  0  0  0  0  0  0  0
    1.9980    0.1694    0.3686 H   0  0  0  0  0  0  0  0  0  0  0  0
    1.5149    1.8907    0.2666 H   0  0  0  0  0  0  0  0  0  0  0  0
    4.2765    0.8307    1.1584 H   0  0  0  0  0  0  0  0  0  0  0  0
    3.8080    2.5599    1.1155 H   0  0  0  0  0  0  0  0  0  0  0  0
    4.3338    2.9754   -2.6377 H   0  0  0  0  0  0  0  0  0  0  0  0
    6.0968   -0.6356   -5.5352 H   0  0  0  0  0  0  0  0  0  0  0  0
    5.7326    1.0126   -7.5429 H   0  0  0  0  0  0  0  0  0  0  0  0
    7.1583    1.7927   -6.8438 H   0  0  0  0  0  0  0  0  0  0  0  0
    4.4844    3.1198   -7.5703 H   0  0  0  0  0  0  0  0  0  0  0  0
    6.1108    3.5225   -8.1728 H   0  0  0  0  0  0  0  0  0  0  0  0
    5.3671    4.5900   -4.3679 H   0  0  0  0  0  0  0  0  0  0  0  0
    2.6114    2.4717   -4.9932 H   0  0  0  0  0  0  0  0  0  0  0  0
    0.2946    3.1755   -5.4646 H   0  0  0  0  0  0  0  0  0  0  0  0
   -0.1750    5.5378   -6.1558 H   0  0  0  0  0  0  0  0  0  0  0  0
    1.7080    7.1405   -6.3694 H   0  0  0  0  0  0  0  0  0  0  0  0
  1  2  1  0
  1 27  1  0
  1 28  1  0
  1 29  1  0
  2  3  1  0
  2 30  1  0
  2 31  1  0
  3  4  1  0
  4  5  2  0
  4  6  1  0
  6  7  2  0
  6 11  1  0
  7  8  1  0
  7 32  1  0
  8  9  2  0
  8 16  1  0
  9 10  1  0
  9 13  1  0
 10 11  2  0
 10 33  1  0
 11 12  1  0
 13 14  1  0
 13 34  1  0
 13 35  1  0
 14 15  1  0
 14 36  1  0
 14 37  1  0
 15 16  1  0
 16 17  1  0
 16 38  1  1
 17 18  2  0
 17 22  1  0
 18 19  1  0
 18 39  1  0
 19 20  2  0
 19 40  1  0
 20 21  1  0
 20 41  1  0
 21 22  2  0
 21 42  1  0
 22 23  1  0
 23 24  1  1
 23 25  1  0
 23 26  1  0
M  END

