
     RDKit          3D

 35 37  0  0  0  0  0  0  0  0999 V2000
    0.9745    0.1510   -0.5396 C   0  0  0  0  0  0  0  0  0  0  0  0
    2.4020   -0.0267    0.0028 C   0  0  1  0  0  0  0  0  0  0  0  0
    2.6264    0.5990    1.3871 C   0  0  0  0  0  0  0  0  0  0  0  0
    2.9186   -1.4183   -0.1124 N   0  0  0  0  0  0  0  0  0  0  0  0
    4.1339   -1.6249   -0.7819 C   0  0  0  0  0  0  0  0  0  0  0  0
    5.0651   -0.5732   -0.9728 C   0  0  0  0  0  0  0  0  0  0  0  0
    6.2603   -0.7697   -1.6628 C   0  0  0  0  0  0  0  0  0  0  0  0
    7.1761    0.2035   -1.8549 O   0  0  0  0  0  0  0  0  0  0  0  0
    6.5567   -2.0485   -2.1850 C   0  0  0  0  0  0  0  0  0  0  0  0
    7.7053   -2.2158   -2.8512 F   0  0  0  0  0  0  0  0  0  0  0  0
    5.6833   -3.0905   -1.9892 C   0  0  0  0  0  0  0  0  0  0  0  0
    4.4765   -2.9040   -1.2856 C   0  0  0  0  0  0  0  0  0  0  0  0
    3.6065   -4.0714   -1.0764 C   0  0  0  0  0  0  0  0  0  0  0  0
    3.8412   -5.1738   -1.5638 O   0  0  0  0  0  0  0  0  0  0  0  0
    2.4669   -3.8236   -0.1785 C   0  0  0  0  0  0  0  0  0  0  0  0
    1.6899   -4.9299    0.2197 C   0  0  0  0  0  0  0  0  0  0  0  0
    0.6467   -4.7565    1.0927 C   0  0  0  0  0  0  0  0  0  0  0  0
   -0.1279   -5.7857    1.5099 F   0  0  0  0  0  0  0  0  0  0  0  0
    0.3441   -3.4852    1.6198 C   0  0  0  0  0  0  0  0  0  0  0  0
   -0.6624   -3.3268    2.5056 O   0  0  0  0  0  0  0  0  0  0  0  0
    1.1037   -2.3876    1.2297 C   0  0  0  0  0  0  0  0  0  0  0  0
    2.1665   -2.5230    0.3067 C   0  0  0  0  0  0  0  0  0  0  0  0
    0.7800    1.2281   -0.6627 H   0  0  0  0  0  0  0  0  0  0  0  0
    0.1902   -0.2530    0.1122 H   0  0  0  0  0  0  0  0  0  0  0  0
    0.8747   -0.3241   -1.5273 H   0  0  0  0  0  0  0  0  0  0  0  0
    3.0207    0.5407   -0.7003 H   0  0  0  0  0  0  0  0  0  0  0  0
    2.0021    0.1457    2.1702 H   0  0  0  0  0  0  0  0  0  0  0  0
    2.3863    1.6737    1.3534 H   0  0  0  0  0  0  0  0  0  0  0  0
    3.6765    0.4936    1.7006 H   0  0  0  0  0  0  0  0  0  0  0  0
    4.8964    0.4160   -0.5469 H   0  0  0  0  0  0  0  0  0  0  0  0
    6.8667    1.0271   -1.4555 H   0  0  0  0  0  0  0  0  0  0  0  0
    5.9045   -4.0878   -2.3732 H   0  0  0  0  0  0  0  0  0  0  0  0
    1.9472   -5.9118   -0.1808 H   0  0  0  0  0  0  0  0  0  0  0  0
   -1.0651   -4.1935    2.6681 H   0  0  0  0  0  0  0  0  0  0  0  0
    0.8524   -1.4385    1.6913 H   0  0  0  0  0  0  0  0  0  0  0  0
  1  2  1  0
  1 23  1  0
  1 24  1  0
  1 25  1  0
  2  3  1  0
  2  4  1  0
  2 26  1  6
  3 27  1  0
  3 28  1  0
  3 29  1  0
  4  5  1  0
  4 22  1  0
  5  6  2  0
  5 12  1  0
  6  7  1  0
  6 30  1  0
  7  8  1  0
  7  9  2  0
  8 31  1  0
  9 10  1  0
  9 11  1  0
 11 12  2  0
 11 32  1  0
 12 13  1  0
 13 14  2  0
 13 15  1  0
 15 16  1  0
 15 22  2  0
 16 17  2  0
 16 33  1  0
 17 18  1  0
 17 19  1  0
 19 20  1  0
 19 21  2  0
 20 34  1  0
 21 22  1  0
 21 35  1  0
M  END

