
     RDKit          3D

 29 32  0  0  0  0  0  0  0  0999 V2000
   -1.3280   -0.1299    0.1677 C   0  0  0  0  0  0  0  0  0  0  0  0
   -0.7505    1.0545   -0.2973 C   0  0  0  0  0  0  0  0  0  0  0  0
    0.6332    1.1465   -0.4645 C   0  0  0  0  0  0  0  0  0  0  0  0
    1.4703    0.0535   -0.1687 C   0  0  0  0  0  0  0  0  0  0  0  0
    2.9465    0.1119   -0.3338 C   0  0  0  0  0  0  0  0  0  0  0  0
    3.6425    1.3675   -0.4786 C   0  0  0  0  0  0  0  0  0  0  0  0
    4.9437    1.4923   -0.6296 N   0  0  0  0  0  0  0  0  0  0  0  0
    5.6222    0.3253   -0.6397 C   0  0  0  0  0  0  0  0  0  0  0  0
    6.9540    0.1841   -0.7829 N   0  0  0  0  0  0  0  0  0  0  0  0
    7.1421   -1.1448   -0.7161 N   0  0  0  0  0  0  0  0  0  0  0  0
    8.3702   -1.7367   -0.8183 C   0  0  0  0  0  0  0  0  0  0  0  0
    8.4685   -3.1052   -0.7393 C   0  0  0  0  0  0  0  0  0  0  0  0
    7.3099   -3.9052   -0.5537 C   0  0  0  0  0  0  0  0  0  0  0  0
    6.0706   -3.3020   -0.4507 C   0  0  0  0  0  0  0  0  0  0  0  0
    5.9782   -1.9017   -0.5317 C   0  0  0  0  0  0  0  0  0  0  0  0
    4.9467   -0.9281   -0.4789 C   0  0  0  0  0  0  0  0  0  0  0  0
    3.6229   -1.0345   -0.3265 N   0  0  0  0  0  0  0  0  0  0  0  0
    0.8726   -1.1365    0.2909 C   0  0  0  0  0  0  0  0  0  0  0  0
   -0.5082   -1.2261    0.4589 C   0  0  0  0  0  0  0  0  0  0  0  0
   -2.4107   -0.1999    0.2995 H   0  0  0  0  0  0  0  0  0  0  0  0
   -1.3808    1.9144   -0.5381 H   0  0  0  0  0  0  0  0  0  0  0  0
    1.0526    2.0778   -0.8488 H   0  0  0  0  0  0  0  0  0  0  0  0
    3.0709    2.3003   -0.4447 H   0  0  0  0  0  0  0  0  0  0  0  0
    9.2056   -1.0512   -0.9597 H   0  0  0  0  0  0  0  0  0  0  0  0
    9.4546   -3.5648   -0.8224 H   0  0  0  0  0  0  0  0  0  0  0  0
    7.4030   -4.9912   -0.4936 H   0  0  0  0  0  0  0  0  0  0  0  0
    5.1534   -3.8755   -0.3085 H   0  0  0  0  0  0  0  0  0  0  0  0
    1.5183   -1.9872    0.5126 H   0  0  0  0  0  0  0  0  0  0  0  0
   -0.9498   -2.1581    0.8215 H   0  0  0  0  0  0  0  0  0  0  0  0
  1  2  2  0
  1 19  1  0
  1 20  1  0
  2  3  1  0
  2 21  1  0
  3  4  2  0
  3 22  1  0
  4  5  1  0
  4 18  1  0
  5  6  1  0
  5 17  2  0
  6  7  2  0
  6 23  1  0
  7  8  1  0
  8  9  2  0
  8 16  1  0
  9 10  1  0
 10 11  1  0
 10 15  1  0
 11 12  2  0
 11 24  1  0
 12 13  1  0
 12 25  1  0
 13 14  2  0
 13 26  1  0
 14 15  1  0
 14 27  1  0
 15 16  2  0
 16 17  1  0
 18 19  2  0
 18 28  1  0
 19 29  1  0
M  END

