
     RDKit          3D

 55 57  0  0  0  0  0  0  0  0999 V2000
    1.3476   -6.3660   11.2434 C   0  0  0  0  0  0  0  0  0  0  0  0
    2.3433   -5.2280   11.4963 C   0  0  1  0  0  0  0  0  0  0  0  0
    3.4058   -5.6266   12.5272 C   0  0  0  0  0  0  0  0  0  0  0  0
    2.9679   -4.7739   10.1694 C   0  0  0  0  0  0  0  0  0  0  0  0
    3.7926   -3.5827   10.3358 N   0  0  0  0  0  0  0  0  0  0  0  0
    4.7352   -3.2391    9.4176 C   0  0  0  0  0  0  0  0  0  0  0  0
    5.0950   -3.9824    8.4075 N   0  0  0  0  0  0  0  0  0  0  0  0
    6.1153   -3.4375    7.6861 N   0  0  0  0  0  0  0  0  0  0  0  0
    6.5196   -2.2781    8.1081 C   0  0  0  0  0  0  0  0  0  0  0  0
    7.7870   -1.2805    7.4093 S   0  0  0  0  0  0  0  0  0  0  0  0
    7.9887   -2.0609    5.7280 C   0  0  1  0  0  0  0  0  0  0  0  0
    8.4196   -0.9741    4.7504 C   0  0  0  0  0  0  0  0  0  0  0  0
    9.0206   -3.2061    5.7904 C   0  0  0  0  0  0  0  0  0  0  0  0
   10.1716   -3.0401    5.4184 O   0  0  0  0  0  0  0  0  0  0  0  0
    8.5237   -4.3833    6.2571 N   0  0  0  0  0  0  0  0  0  0  0  0
    9.3892   -5.5280    6.5162 C   0  0  1  0  0  0  0  0  0  0  0  0
    9.7168   -5.6270    8.0076 C   0  0  0  0  0  0  0  0  0  0  0  0
    8.7734   -6.1125    8.9278 C   0  0  0  0  0  0  0  0  0  0  0  0
    9.0643   -6.1465   10.2932 C   0  0  0  0  0  0  0  0  0  0  0  0
   10.3054   -5.6995   10.7605 C   0  0  0  0  0  0  0  0  0  0  0  0
   11.2499   -5.2133    9.8532 C   0  0  0  0  0  0  0  0  0  0  0  0
   10.9548   -5.1750    8.4862 C   0  0  0  0  0  0  0  0  0  0  0  0
    8.8365   -6.8268    5.9252 C   0  0  0  0  0  0  0  0  0  0  0  0
    7.7193   -6.8475    5.0801 C   0  0  0  0  0  0  0  0  0  0  0  0
    7.2650   -8.0478    4.5209 C   0  0  0  0  0  0  0  0  0  0  0  0
    7.9257   -9.2468    4.7930 C   0  0  0  0  0  0  0  0  0  0  0  0
    9.0467   -9.2372    5.6307 C   0  0  0  0  0  0  0  0  0  0  0  0
    9.4943   -8.0404    6.1917 C   0  0  0  0  0  0  0  0  0  0  0  0
    5.6430   -1.7176    9.5388 S   0  0  0  0  0  0  0  0  0  0  0  0
    0.8631   -6.6820   12.1805 H   0  0  0  0  0  0  0  0  0  0  0  0
    1.8568   -7.2477   10.8186 H   0  0  0  0  0  0  0  0  0  0  0  0
    0.5548   -6.0658   10.5393 H   0  0  0  0  0  0  0  0  0  0  0  0
    1.7720   -4.3695   11.9038 H   0  0  0  0  0  0  0  0  0  0  0  0
    3.9742   -6.5064   12.1804 H   0  0  0  0  0  0  0  0  0  0  0  0
    2.9434   -5.8858   13.4928 H   0  0  0  0  0  0  0  0  0  0  0  0
    4.1271   -4.8138   12.7016 H   0  0  0  0  0  0  0  0  0  0  0  0
    2.1727   -4.5955    9.4195 H   0  0  0  0  0  0  0  0  0  0  0  0
    3.6121   -5.5643    9.7548 H   0  0  0  0  0  0  0  0  0  0  0  0
    3.4080   -2.8349   10.9013 H   0  0  0  0  0  0  0  0  0  0  0  0
    6.9966   -2.4621    5.4758 H   0  0  0  0  0  0  0  0  0  0  0  0
    9.4060   -0.5728    5.0228 H   0  0  0  0  0  0  0  0  0  0  0  0
    7.6842   -0.1577    4.7180 H   0  0  0  0  0  0  0  0  0  0  0  0
    8.5163   -1.4070    3.7429 H   0  0  0  0  0  0  0  0  0  0  0  0
    7.5920   -4.3570    6.6861 H   0  0  0  0  0  0  0  0  0  0  0  0
   10.3264   -5.2927    5.9888 H   0  0  0  0  0  0  0  0  0  0  0  0
    7.8024   -6.4679    8.5724 H   0  0  0  0  0  0  0  0  0  0  0  0
    8.3196   -6.5275   10.9973 H   0  0  0  0  0  0  0  0  0  0  0  0
   10.5343   -5.7312   11.8290 H   0  0  0  0  0  0  0  0  0  0  0  0
   12.2216   -4.8603   10.2087 H   0  0  0  0  0  0  0  0  0  0  0  0
   11.6904   -4.7810    7.7797 H   0  0  0  0  0  0  0  0  0  0  0  0
    7.2027   -5.9146    4.8496 H   0  0  0  0  0  0  0  0  0  0  0  0
    6.3890   -8.0402    3.8669 H   0  0  0  0  0  0  0  0  0  0  0  0
    7.5721  -10.1842    4.3559 H   0  0  0  0  0  0  0  0  0  0  0  0
    9.5753  -10.1688    5.8498 H   0  0  0  0  0  0  0  0  0  0  0  0
   10.3670   -8.0464    6.8498 H   0  0  0  0  0  0  0  0  0  0  0  0
  1  2  1  0
  1 30  1  0
  1 31  1  0
  1 32  1  0
  2  3  1  0
  2  4  1  0
  2 33  1  1
  3 34  1  0
  3 35  1  0
  3 36  1  0
  4  5  1  0
  4 37  1  0
  4 38  1  0
  5  6  1  0
  5 39  1  0
  6  7  2  0
  6 29  1  0
  7  8  1  0
  8  9  2  0
  9 10  1  0
  9 29  1  0
 10 11  1  0
 11 12  1  0
 11 13  1  0
 11 40  1  6
 12 41  1  0
 12 42  1  0
 12 43  1  0
 13 14  2  0
 13 15  1  0
 15 16  1  0
 15 44  1  0
 16 17  1  0
 16 23  1  0
 16 45  1  6
 17 18  2  0
 17 22  1  0
 18 19  1  0
 18 46  1  0
 19 20  2  0
 19 47  1  0
 20 21  1  0
 20 48  1  0
 21 22  2  0
 21 49  1  0
 22 50  1  0
 23 24  2  0
 23 28  1  0
 24 25  1  0
 24 51  1  0
 25 26  2  0
 25 52  1  0
 26 27  1  0
 26 53  1  0
 27 28  2  0
 27 54  1  0
 28 55  1  0
M  END

