
     RDKit          3D

 24 26  0  0  0  0  0  0  0  0999 V2000
    1.1909   -0.0390    0.8396 F   0  0  0  0  0  0  0  0  0  0  0  0
    2.4793   -0.0338    0.5007 C   0  0  0  0  0  0  0  0  0  0  0  0
    3.1669   -1.2278    0.3067 C   0  0  0  0  0  0  0  0  0  0  0  0
    4.5162   -1.2001   -0.0481 C   0  0  0  0  0  0  0  0  0  0  0  0
    5.1820    0.0278   -0.2097 C   0  0  0  0  0  0  0  0  0  0  0  0
    6.6123    0.0751   -0.5854 C   0  0  0  0  0  0  0  0  0  0  0  0
    7.2316   -1.1447   -0.7640 N   0  0  0  0  0  0  0  0  0  0  0  0
    8.4760   -1.2019   -1.0915 N   0  0  0  0  0  0  0  0  0  0  0  0
    9.1675   -0.0350   -1.2576 C   0  0  0  0  0  0  0  0  0  0  0  0
   10.5375   -0.0400   -1.6167 C   0  0  0  0  0  0  0  0  0  0  0  0
   11.1685    1.1769   -1.7662 C   0  0  0  0  0  0  0  0  0  0  0  0
   10.5498    2.3779   -1.5886 N   0  0  0  0  0  0  0  0  0  0  0  0
    9.2822    2.4019   -1.2563 C   0  0  0  0  0  0  0  0  0  0  0  0
    8.5123    1.2101   -1.0698 C   0  0  0  0  0  0  0  0  0  0  0  0
    7.2101    1.2455   -0.7275 N   0  0  0  0  0  0  0  0  0  0  0  0
    4.4774    1.2301   -0.0112 C   0  0  0  0  0  0  0  0  0  0  0  0
    3.1379    1.1935    0.3409 C   0  0  0  0  0  0  0  0  0  0  0  0
    2.4537    2.3235    0.5332 F   0  0  0  0  0  0  0  0  0  0  0  0
    2.6282   -2.1683    0.4381 H   0  0  0  0  0  0  0  0  0  0  0  0
    5.0685   -2.1262   -0.2038 H   0  0  0  0  0  0  0  0  0  0  0  0
   11.0514   -0.9919   -1.7638 H   0  0  0  0  0  0  0  0  0  0  0  0
   12.2265    1.2247   -2.0428 H   0  0  0  0  0  0  0  0  0  0  0  0
    8.7866    3.3701   -1.1140 H   0  0  0  0  0  0  0  0  0  0  0  0
    4.9783    2.1908   -0.1324 H   0  0  0  0  0  0  0  0  0  0  0  0
  1  2  1  0
  2  3  2  0
  2 17  1  0
  3  4  1  0
  3 19  1  0
  4  5  2  0
  4 20  1  0
  5  6  1  0
  5 16  1  0
  6  7  2  0
  6 15  1  0
  7  8  1  0
  8  9  2  0
  9 10  1  0
  9 14  1  0
 10 11  2  0
 10 21  1  0
 11 12  1  0
 11 22  1  0
 12 13  2  0
 13 14  1  0
 13 23  1  0
 14 15  2  0
 16 17  2  0
 16 24  1  0
 17 18  1  0
M  END

