
     RDKit          3D

 44 47  0  0  0  0  0  0  0  0999 V2000
    1.1027    1.1015   -1.5411 C   0  0  0  0  0  0  0  0  0  0  0  0
    2.5303    1.0664   -1.5315 O   0  0  0  0  0  0  0  0  0  0  0  0
    3.1196    1.2315   -0.3456 C   0  0  0  0  0  0  0  0  0  0  0  0
    2.5185    1.4036    0.6913 O   0  0  0  0  0  0  0  0  0  0  0  0
    4.6126    1.1787   -0.4399 C   0  0  0  0  0  0  0  0  0  0  0  0
    5.2857    1.3411    0.7396 C   0  0  0  0  0  0  0  0  0  0  0  0
    6.6729    1.3163    0.8397 N   0  0  0  0  0  0  0  0  0  0  0  0
    7.2559    1.4733    2.1070 C   0  0  0  0  0  0  0  0  0  0  0  0
    6.6456    1.9656    3.1618 N   0  0  0  0  0  0  0  0  0  0  0  0
    7.6119    1.9063    4.1282 C   0  0  0  0  0  0  0  0  0  0  0  0
    7.3834    2.4383    5.7888 S   0  0  0  0  0  0  0  0  0  0  0  0
    5.6510    2.9957    5.7107 C   0  0  0  0  0  0  0  0  0  0  0  0
    8.7718    1.4124    3.7207 N   0  0  0  0  0  0  0  0  0  0  0  0
    8.5278    1.1330    2.4142 N   0  0  0  0  0  0  0  0  0  0  0  0
    9.2412    0.6777    1.8567 H   0  0  0  0  0  0  0  0  0  0  0  0
    7.4483    1.1472   -0.2943 C   0  0  0  0  0  0  0  0  0  0  0  0
    6.8382    0.9727   -1.4861 C   0  0  0  0  0  0  0  0  0  0  0  0
    7.3919    0.7695   -2.8385 C   0  0  0  0  0  0  0  0  0  0  0  0
    8.5571    0.6995   -3.1935 O   0  0  0  0  0  0  0  0  0  0  0  0
    6.2277    0.6700   -3.6177 N   0  0  0  0  0  0  0  0  0  0  0  0
    6.1335    0.4638   -5.0172 C   0  0  0  0  0  0  0  0  0  0  0  0
    7.2889    0.3303   -5.8099 C   0  0  0  0  0  0  0  0  0  0  0  0
    7.1439    0.1288   -7.1821 C   0  0  0  0  0  0  0  0  0  0  0  0
    5.8803    0.0585   -7.7750 C   0  0  0  0  0  0  0  0  0  0  0  0
    4.7247    0.1905   -6.9916 C   0  0  0  0  0  0  0  0  0  0  0  0
    3.3463    0.1153   -7.6053 C   0  0  0  0  0  0  0  0  0  0  0  0
    4.8637    0.3934   -5.6121 C   0  0  0  0  0  0  0  0  0  0  0  0
    5.0497    0.7996   -2.8865 N   0  0  0  0  0  0  0  0  0  0  0  0
    5.3943    0.9741   -1.6428 C   0  0  0  0  0  0  0  0  0  0  0  0
    0.8035    0.9489   -2.5848 H   0  0  0  0  0  0  0  0  0  0  0  0
    0.7345    2.0711   -1.1734 H   0  0  0  0  0  0  0  0  0  0  0  0
    0.6892    0.3066   -0.9023 H   0  0  0  0  0  0  0  0  0  0  0  0
    4.7544    1.5023    1.6766 H   0  0  0  0  0  0  0  0  0  0  0  0
    5.4177    3.3625    6.7198 H   0  0  0  0  0  0  0  0  0  0  0  0
    4.9792    2.1662    5.4535 H   0  0  0  0  0  0  0  0  0  0  0  0
    5.5301    3.8087    4.9828 H   0  0  0  0  0  0  0  0  0  0  0  0
    8.5336    1.1843   -0.1883 H   0  0  0  0  0  0  0  0  0  0  0  0
    8.2722    0.3855   -5.3492 H   0  0  0  0  0  0  0  0  0  0  0  0
    8.0398    0.0253   -7.8000 H   0  0  0  0  0  0  0  0  0  0  0  0
    5.7901   -0.0997   -8.8531 H   0  0  0  0  0  0  0  0  0  0  0  0
    3.3959   -0.0135   -8.6967 H   0  0  0  0  0  0  0  0  0  0  0  0
    2.7655    1.0298   -7.3993 H   0  0  0  0  0  0  0  0  0  0  0  0
    2.7702   -0.7301   -7.1928 H   0  0  0  0  0  0  0  0  0  0  0  0
    3.9855    0.5007   -4.9762 H   0  0  0  0  0  0  0  0  0  0  0  0
  1  2  1  0
  1 30  1  0
  1 31  1  0
  1 32  1  0
  2  3  1  0
  3  4  2  0
  3  5  1  0
  5  6  2  0
  5 29  1  0
  6  7  1  0
  6 33  1  0
  7  8  1  0
  7 16  1  0
  8  9  2  0
  8 14  1  0
  9 10  1  0
 10 11  1  0
 10 13  2  0
 11 12  1  0
 12 34  1  0
 12 35  1  0
 12 36  1  0
 13 14  1  0
 14 15  1  0
 16 17  2  0
 16 37  1  0
 17 18  1  0
 17 29  1  0
 18 19  2  0
 18 20  1  0
 20 21  1  0
 20 28  1  0
 21 22  2  0
 21 27  1  0
 22 23  1  0
 22 38  1  0
 23 24  2  0
 23 39  1  0
 24 25  1  0
 24 40  1  0
 25 26  1  0
 25 27  2  0
 26 41  1  0
 26 42  1  0
 26 43  1  0
 27 44  1  0
 28 29  2  0
M  END

