
     RDKit          3D

 40 41  0  0  0  0  0  0  0  0999 V2000
    2.1192   -0.6733   -1.4886 C   0  0  0  0  0  0  0  0  0  0  0  0
    2.3398    0.0871   -0.2627 N   0  0  0  0  0  0  0  0  0  0  0  0
    1.4946    1.1492   -0.0642 C   0  0  0  0  0  0  0  0  0  0  0  0
    0.5502    1.3895   -0.8094 O   0  0  0  0  0  0  0  0  0  0  0  0
    1.7171    2.1167    1.0913 C   0  0  0  0  0  0  0  0  0  0  0  0
    0.5684    2.7263    1.6213 C   0  0  0  0  0  0  0  0  0  0  0  0
    0.7359    3.6943    2.6085 C   0  0  0  0  0  0  0  0  0  0  0  0
   -0.6509    4.4691    3.3230 Cl  0  0  0  0  0  0  0  0  0  0  0  0
    2.0249    4.0477    3.0176 C   0  0  0  0  0  0  0  0  0  0  0  0
    3.0969    3.3915    2.4090 C   0  0  0  0  0  0  0  0  0  0  0  0
    2.9546    2.4458    1.4780 N   0  0  0  0  0  0  0  0  0  0  0  0
    3.2945   -0.4110    0.7520 C   0  0  1  0  0  0  0  0  0  0  0  0
    3.1099   -1.9121    1.0885 C   0  0  0  0  0  0  0  0  0  0  0  0
    3.8825   -2.9035    0.2031 C   0  0  0  0  0  0  0  0  0  0  0  0
    5.3854   -2.5669    0.0343 C   0  0  2  0  0  0  0  0  0  0  0  0
    5.9953   -3.4997   -1.0252 C   0  0  0  0  0  0  0  0  0  0  0  0
    6.1459   -2.7747    1.3593 C   0  0  0  0  0  0  0  0  0  0  0  0
    5.5066   -1.0987   -0.4456 C   0  0  0  0  0  0  0  0  0  0  0  0
    4.7749   -0.0849    0.4448 C   0  0  0  0  0  0  0  0  0  0  0  0
    1.5281   -0.0586   -2.1761 H   0  0  0  0  0  0  0  0  0  0  0  0
    1.5556   -1.6036   -1.3023 H   0  0  0  0  0  0  0  0  0  0  0  0
    3.0763   -0.9326   -1.9599 H   0  0  0  0  0  0  0  0  0  0  0  0
   -0.4159    2.4514    1.2444 H   0  0  0  0  0  0  0  0  0  0  0  0
    2.1854    4.8100    3.7811 H   0  0  0  0  0  0  0  0  0  0  0  0
    4.1235    3.6478    2.6947 H   0  0  0  0  0  0  0  0  0  0  0  0
    3.0432    0.1376    1.6632 H   0  0  0  0  0  0  0  0  0  0  0  0
    2.0355   -2.1599    1.0942 H   0  0  0  0  0  0  0  0  0  0  0  0
    3.4463   -2.0405    2.1310 H   0  0  0  0  0  0  0  0  0  0  0  0
    3.4261   -2.9537   -0.7983 H   0  0  0  0  0  0  0  0  0  0  0  0
    3.7802   -3.9173    0.6286 H   0  0  0  0  0  0  0  0  0  0  0  0
    5.9107   -4.5566   -0.7221 H   0  0  0  0  0  0  0  0  0  0  0  0
    7.0649   -3.2802   -1.1795 H   0  0  0  0  0  0  0  0  0  0  0  0
    5.4874   -3.3884   -1.9974 H   0  0  0  0  0  0  0  0  0  0  0  0
    6.0722   -3.8239    1.6904 H   0  0  0  0  0  0  0  0  0  0  0  0
    5.7642   -2.1450    2.1770 H   0  0  0  0  0  0  0  0  0  0  0  0
    7.2159   -2.5391    1.2360 H   0  0  0  0  0  0  0  0  0  0  0  0
    5.1259   -1.0366   -1.4796 H   0  0  0  0  0  0  0  0  0  0  0  0
    6.5738   -0.8217   -0.5075 H   0  0  0  0  0  0  0  0  0  0  0  0
    4.8276    0.9272    0.0189 H   0  0  0  0  0  0  0  0  0  0  0  0
    5.2957   -0.0229    1.4157 H   0  0  0  0  0  0  0  0  0  0  0  0
  1  2  1  0
  1 20  1  0
  1 21  1  0
  1 22  1  0
  2  3  1  0
  2 12  1  0
  3  4  2  0
  3  5  1  0
  5  6  2  0
  5 11  1  0
  6  7  1  0
  6 23  1  0
  7  8  1  0
  7  9  2  0
  9 10  1  0
  9 24  1  0
 10 11  2  0
 10 25  1  0
 12 13  1  0
 12 19  1  0
 12 26  1  1
 13 14  1  0
 13 27  1  0
 13 28  1  0
 14 15  1  0
 14 29  1  0
 14 30  1  0
 15 16  1  6
 15 17  1  0
 15 18  1  0
 16 31  1  0
 16 32  1  0
 16 33  1  0
 17 34  1  0
 17 35  1  0
 17 36  1  0
 18 19  1  0
 18 37  1  0
 18 38  1  0
 19 39  1  0
 19 40  1  0
M  END

