
     RDKit          3D

 46 47  0  0  0  0  0  0  0  0999 V2000
    1.1969   -0.8324   -5.0550 C   0  0  0  0  0  0  0  0  0  0  0  0
    1.9870   -0.7837   -3.8883 O   0  0  0  0  0  0  0  0  0  0  0  0
    1.7596    0.1759   -2.9502 C   0  0  0  0  0  0  0  0  0  0  0  0
    0.8020    1.1862   -3.0538 C   0  0  0  0  0  0  0  0  0  0  0  0
    0.6589    2.1210   -2.0189 C   0  0  0  0  0  0  0  0  0  0  0  0
    1.4706    2.0429   -0.8897 C   0  0  0  0  0  0  0  0  0  0  0  0
    2.4353    1.0336   -0.7759 C   0  0  0  0  0  0  0  0  0  0  0  0
    2.5900    0.0923   -1.8005 C   0  0  0  0  0  0  0  0  0  0  0  0
    3.5245   -0.9595   -1.7915 N   0  0  0  0  0  0  0  0  0  0  0  0
    4.4128   -1.2916   -0.8087 C   0  0  0  0  0  0  0  0  0  0  0  0
    4.5648   -0.6877    0.2389 O   0  0  0  0  0  0  0  0  0  0  0  0
    5.2595   -2.5473   -1.1363 C   0  0  1  0  0  0  0  0  0  0  0  0
    6.4108   -2.7199   -0.1696 C   0  0  0  0  0  0  0  0  0  0  0  0
    4.4203   -3.7329   -1.0274 O   0  0  0  0  0  0  0  0  0  0  0  0
    3.7714   -4.1659   -2.1161 C   0  0  0  0  0  0  0  0  0  0  0  0
    3.7643   -3.5928   -3.1809 O   0  0  0  0  0  0  0  0  0  0  0  0
    3.0498   -5.4641   -1.8202 C   0  0  0  0  0  0  0  0  0  0  0  0
    2.0911   -6.0074   -3.2868 S   0  0  0  0  0  0  0  0  0  0  0  0
    1.3778   -7.5260   -2.6408 C   0  0  0  0  0  0  0  0  0  0  0  0
    1.9222   -8.7415   -3.0835 C   0  0  0  0  0  0  0  0  0  0  0  0
    1.3875   -9.9667   -2.6833 C   0  0  0  0  0  0  0  0  0  0  0  0
    0.2884   -9.9636   -1.8232 C   0  0  0  0  0  0  0  0  0  0  0  0
   -0.4669  -11.6191   -1.2521 Br  0  0  0  0  0  0  0  0  0  0  0  0
   -0.2728   -8.7652   -1.3785 C   0  0  0  0  0  0  0  0  0  0  0  0
    0.2532   -7.5269   -1.7810 C   0  0  0  0  0  0  0  0  0  0  0  0
   -0.3859   -6.2545   -1.2847 C   0  0  0  0  0  0  0  0  0  0  0  0
    1.5461   -1.7003   -5.6295 H   0  0  0  0  0  0  0  0  0  0  0  0
    1.3156    0.0801   -5.6665 H   0  0  0  0  0  0  0  0  0  0  0  0
    0.1266   -0.9649   -4.8161 H   0  0  0  0  0  0  0  0  0  0  0  0
    0.1649    1.2516   -3.9362 H   0  0  0  0  0  0  0  0  0  0  0  0
   -0.0930    2.9088   -2.1078 H   0  0  0  0  0  0  0  0  0  0  0  0
    1.3616    2.7702   -0.0818 H   0  0  0  0  0  0  0  0  0  0  0  0
    3.0754    0.9604    0.1001 H   0  0  0  0  0  0  0  0  0  0  0  0
    3.5014   -1.5540   -2.6211 H   0  0  0  0  0  0  0  0  0  0  0  0
    5.6094   -2.4860   -2.1785 H   0  0  0  0  0  0  0  0  0  0  0  0
    6.0401   -2.7653    0.8634 H   0  0  0  0  0  0  0  0  0  0  0  0
    7.0925   -1.8605   -0.2437 H   0  0  0  0  0  0  0  0  0  0  0  0
    6.9676   -3.6388   -0.4038 H   0  0  0  0  0  0  0  0  0  0  0  0
    2.4001   -5.3055   -0.9456 H   0  0  0  0  0  0  0  0  0  0  0  0
    3.7925   -6.2265   -1.5360 H   0  0  0  0  0  0  0  0  0  0  0  0
    2.7823   -8.7197   -3.7564 H   0  0  0  0  0  0  0  0  0  0  0  0
    1.8187  -10.9055   -3.0340 H   0  0  0  0  0  0  0  0  0  0  0  0
   -1.1401   -8.7905   -0.7158 H   0  0  0  0  0  0  0  0  0  0  0  0
   -1.4208   -6.4320   -0.9585 H   0  0  0  0  0  0  0  0  0  0  0  0
   -0.3817   -5.4794   -2.0648 H   0  0  0  0  0  0  0  0  0  0  0  0
    0.1608   -5.8428   -0.4180 H   0  0  0  0  0  0  0  0  0  0  0  0
  1  2  1  0
  1 27  1  0
  1 28  1  0
  1 29  1  0
  2  3  1  0
  3  4  2  0
  3  8  1  0
  4  5  1  0
  4 30  1  0
  5  6  2  0
  5 31  1  0
  6  7  1  0
  6 32  1  0
  7  8  2  0
  7 33  1  0
  8  9  1  0
  9 10  1  0
  9 34  1  0
 10 11  2  0
 10 12  1  0
 12 13  1  0
 12 14  1  0
 12 35  1  6
 13 36  1  0
 13 37  1  0
 13 38  1  0
 14 15  1  0
 15 16  2  0
 15 17  1  0
 17 18  1  0
 17 39  1  0
 17 40  1  0
 18 19  1  0
 19 20  2  0
 19 25  1  0
 20 21  1  0
 20 41  1  0
 21 22  2  0
 21 42  1  0
 22 23  1  0
 22 24  1  0
 24 25  2  0
 24 43  1  0
 25 26  1  0
 26 44  1  0
 26 45  1  0
 26 46  1  0
M  END

