
     RDKit          3D

 56 60  0  0  0  0  0  0  0  0999 V2000
    4.4460    0.6294    4.0537 F   0  0  0  0  0  0  0  0  0  0  0  0
    5.2051    0.2784    3.0078 C   0  0  0  0  0  0  0  0  0  0  0  0
    5.3892    1.1850    1.9649 C   0  0  0  0  0  0  0  0  0  0  0  0
    6.1735    0.8109    0.8752 C   0  0  0  0  0  0  0  0  0  0  0  0
    6.7742   -0.4614    0.8178 C   0  0  0  0  0  0  0  0  0  0  0  0
    7.6309   -0.7811   -0.3380 C   0  0  0  0  0  0  0  0  0  0  0  0
    8.4745    0.0706   -0.8774 N   0  0  0  0  0  0  0  0  0  0  0  0
    9.0926   -0.5464   -1.9289 N   0  0  0  0  0  0  0  0  0  0  0  0
    8.6097   -1.7652   -2.0111 C   0  0  0  0  0  0  0  0  0  0  0  0
    9.0360   -3.0008   -3.1941 S   0  0  0  0  0  0  0  0  0  0  0  0
   10.4425   -2.1310   -4.0274 C   0  0  0  0  0  0  0  0  0  0  0  0
   11.7560   -2.2919   -3.3197 C   0  0  0  0  0  0  0  0  0  0  0  0
   12.2584   -1.3025   -2.4954 C   0  0  0  0  0  0  0  0  0  0  0  0
   13.5051   -1.4686   -1.8358 C   0  0  0  0  0  0  0  0  0  0  0  0
   14.0717   -0.4871   -0.9783 C   0  0  0  0  0  0  0  0  0  0  0  0
   15.2899   -0.7139   -0.3702 C   0  0  0  0  0  0  0  0  0  0  0  0
   15.9884   -1.9277   -0.5942 C   0  0  0  0  0  0  0  0  0  0  0  0
   15.4628   -2.9006   -1.4208 C   0  0  0  0  0  0  0  0  0  0  0  0
   14.2111   -2.6938   -2.0585 C   0  0  0  0  0  0  0  0  0  0  0  0
   13.7045   -3.6657   -2.8692 N   0  0  0  0  0  0  0  0  0  0  0  0
   12.5632   -3.4715   -3.4467 C   0  0  0  0  0  0  0  0  0  0  0  0
   11.9639   -4.7769   -4.4772 Cl  0  0  0  0  0  0  0  0  0  0  0  0
    7.6793   -1.9872   -1.0235 N   0  0  0  0  0  0  0  0  0  0  0  0
    6.7963   -3.1468   -0.9353 C   0  0  0  0  0  0  0  0  0  0  0  0
    5.5878   -3.0544   -1.8871 C   0  0  0  0  0  0  0  0  0  0  0  0
    4.7269   -4.2126   -1.7199 N   0  0  0  0  0  0  0  0  0  0  0  0
    3.6727   -4.0799   -0.7127 C   0  0  0  0  0  0  0  0  0  0  0  0
    2.4134   -3.4164   -1.2800 C   0  0  0  0  0  0  0  0  0  0  0  0
    1.9535   -4.1033   -2.4288 O   0  0  0  0  0  0  0  0  0  0  0  0
    2.9361   -4.1612   -3.4467 C   0  0  0  0  0  0  0  0  0  0  0  0
    4.2072   -4.8429   -2.9328 C   0  0  0  0  0  0  0  0  0  0  0  0
    6.5887   -1.3430    1.8989 C   0  0  0  0  0  0  0  0  0  0  0  0
    5.7993   -0.9815    2.9924 C   0  0  0  0  0  0  0  0  0  0  0  0
    4.9163    2.1674    2.0188 H   0  0  0  0  0  0  0  0  0  0  0  0
    6.3376    1.5070    0.0511 H   0  0  0  0  0  0  0  0  0  0  0  0
   10.1563   -1.0751   -4.1024 H   0  0  0  0  0  0  0  0  0  0  0  0
   10.4660   -2.5826   -5.0270 H   0  0  0  0  0  0  0  0  0  0  0  0
   11.6723   -0.3935   -2.3381 H   0  0  0  0  0  0  0  0  0  0  0  0
   13.5270    0.4454   -0.8089 H   0  0  0  0  0  0  0  0  0  0  0  0
   15.7219    0.0434    0.2886 H   0  0  0  0  0  0  0  0  0  0  0  0
   16.9522   -2.0912   -0.1052 H   0  0  0  0  0  0  0  0  0  0  0  0
   15.9811   -3.8429   -1.6077 H   0  0  0  0  0  0  0  0  0  0  0  0
    6.4474   -3.2450    0.0989 H   0  0  0  0  0  0  0  0  0  0  0  0
    7.3804   -4.0499   -1.1671 H   0  0  0  0  0  0  0  0  0  0  0  0
    5.9614   -3.0211   -2.9224 H   0  0  0  0  0  0  0  0  0  0  0  0
    5.0736   -2.0870   -1.7126 H   0  0  0  0  0  0  0  0  0  0  0  0
    4.0487   -3.5121    0.1539 H   0  0  0  0  0  0  0  0  0  0  0  0
    3.4046   -5.0883   -0.3489 H   0  0  0  0  0  0  0  0  0  0  0  0
    2.6194   -2.3530   -1.5279 H   0  0  0  0  0  0  0  0  0  0  0  0
    1.5935   -3.4350   -0.5446 H   0  0  0  0  0  0  0  0  0  0  0  0
    3.1713   -3.1379   -3.8115 H   0  0  0  0  0  0  0  0  0  0  0  0
    2.4962   -4.7246   -4.2849 H   0  0  0  0  0  0  0  0  0  0  0  0
    4.9882   -4.8531   -3.7097 H   0  0  0  0  0  0  0  0  0  0  0  0
    3.9647   -5.8956   -2.6987 H   0  0  0  0  0  0  0  0  0  0  0  0
    7.0946   -2.3104    1.9133 H   0  0  0  0  0  0  0  0  0  0  0  0
    5.6540   -1.6541    3.8398 H   0  0  0  0  0  0  0  0  0  0  0  0
  1  2  1  0
  2  3  2  0
  2 33  1  0
  3  4  1  0
  3 34  1  0
  4  5  2  0
  4 35  1  0
  5  6  1  0
  5 32  1  0
  6  7  2  0
  6 23  1  0
  7  8  1  0
  8  9  2  0
  9 10  1  0
  9 23  1  0
 10 11  1  0
 11 12  1  0
 11 36  1  0
 11 37  1  0
 12 13  2  0
 12 21  1  0
 13 14  1  0
 13 38  1  0
 14 15  2  0
 14 19  1  0
 15 16  1  0
 15 39  1  0
 16 17  2  0
 16 40  1  0
 17 18  1  0
 17 41  1  0
 18 19  2  0
 18 42  1  0
 19 20  1  0
 20 21  2  0
 21 22  1  0
 23 24  1  0
 24 25  1  0
 24 43  1  0
 24 44  1  0
 25 26  1  0
 25 45  1  0
 25 46  1  0
 26 27  1  0
 26 31  1  0
 27 28  1  0
 27 47  1  0
 27 48  1  0
 28 29  1  0
 28 49  1  0
 28 50  1  0
 29 30  1  0
 30 31  1  0
 30 51  1  0
 30 52  1  0
 31 53  1  0
 31 54  1  0
 32 33  2  0
 32 55  1  0
 33 56  1  0
M  END

