
     RDKit          3D

 55 59  0  0  0  0  0  0  0  0999 V2000
    3.7703    0.1711    3.7684 C   0  0  0  0  0  0  0  0  0  0  0  0
    4.4041    0.0555    2.4051 C   0  0  0  0  0  0  0  0  0  0  0  0
    3.6491   -0.3178    1.2827 C   0  0  0  0  0  0  0  0  0  0  0  0
    4.2400   -0.4467    0.0241 C   0  0  0  0  0  0  0  0  0  0  0  0
    5.6079   -0.1998   -0.1104 C   0  0  0  0  0  0  0  0  0  0  0  0
    6.3607   -0.3317   -1.7274 S   0  0  1  0  0  0  0  0  0  0  0  0
    5.3042   -0.5168   -2.7174 O   0  0  0  0  0  0  0  0  0  0  0  0
    7.3841    0.6992   -1.8537 O   0  0  0  0  0  0  0  0  0  0  0  0
    7.2358   -1.8122   -1.6773 N   0  0  0  0  0  0  0  0  0  0  0  0
    8.5716   -1.8877   -1.2740 C   0  0  0  0  0  0  0  0  0  0  0  0
    8.9542   -3.1975   -1.1521 C   0  0  0  0  0  0  0  0  0  0  0  0
   10.3302   -3.7395   -0.8476 C   0  0  1  0  0  0  0  0  0  0  0  0
   11.1250   -4.0105   -2.1400 C   0  0  0  0  0  0  0  0  0  0  0  0
   11.1625   -2.8389    0.0854 C   0  0  0  0  0  0  0  0  0  0  0  0
   10.6345   -2.7115    1.4359 N   0  0  0  0  0  0  0  0  0  0  0  0
   10.7374   -3.7383    2.3918 C   0  0  0  0  0  0  0  0  0  0  0  0
   11.2291   -4.8244    2.1933 O   0  0  0  0  0  0  0  0  0  0  0  0
   10.1405   -3.1868    3.6471 C   0  0  0  0  0  0  0  0  0  0  0  0
    9.9832   -3.7680    4.8995 C   0  0  0  0  0  0  0  0  0  0  0  0
    9.3996   -2.9844    5.9069 C   0  0  0  0  0  0  0  0  0  0  0  0
    8.9975   -1.6645    5.6546 C   0  0  0  0  0  0  0  0  0  0  0  0
    9.1617   -1.0877    4.3857 C   0  0  0  0  0  0  0  0  0  0  0  0
    9.7336   -1.8740    3.3927 C   0  0  0  0  0  0  0  0  0  0  0  0
   10.0469   -1.5546    1.9642 C   0  0  0  0  0  0  0  0  0  0  0  0
    9.8527   -0.5211    1.3617 O   0  0  0  0  0  0  0  0  0  0  0  0
    7.7914   -3.9977   -1.4873 C   0  0  0  0  0  0  0  0  0  0  0  0
    7.5736   -5.3857   -1.5423 C   0  0  0  0  0  0  0  0  0  0  0  0
    6.3103   -5.8400   -1.9072 C   0  0  0  0  0  0  0  0  0  0  0  0
    6.0056   -7.5660   -1.9791 Cl  0  0  0  0  0  0  0  0  0  0  0  0
    5.2640   -4.9535   -2.2292 C   0  0  0  0  0  0  0  0  0  0  0  0
    5.4644   -3.5754   -2.1868 C   0  0  0  0  0  0  0  0  0  0  0  0
    6.7289   -3.1099   -1.8086 C   0  0  0  0  0  0  0  0  0  0  0  0
    6.3893    0.1879    0.9853 C   0  0  0  0  0  0  0  0  0  0  0  0
    5.7776    0.3076    2.2315 C   0  0  0  0  0  0  0  0  0  0  0  0
    2.6737    0.2226    3.7038 H   0  0  0  0  0  0  0  0  0  0  0  0
    4.1260    1.0660    4.3027 H   0  0  0  0  0  0  0  0  0  0  0  0
    4.0253   -0.7022    4.3937 H   0  0  0  0  0  0  0  0  0  0  0  0
    2.5774   -0.5047    1.3908 H   0  0  0  0  0  0  0  0  0  0  0  0
    3.6479   -0.7183   -0.8508 H   0  0  0  0  0  0  0  0  0  0  0  0
    9.1253   -0.9685   -1.1038 H   0  0  0  0  0  0  0  0  0  0  0  0
   10.2075   -4.7039   -0.3265 H   0  0  0  0  0  0  0  0  0  0  0  0
   11.3337   -3.0708   -2.6769 H   0  0  0  0  0  0  0  0  0  0  0  0
   10.5552   -4.6604   -2.8204 H   0  0  0  0  0  0  0  0  0  0  0  0
   12.0851   -4.5057   -1.9207 H   0  0  0  0  0  0  0  0  0  0  0  0
   11.2531   -1.8211   -0.3211 H   0  0  0  0  0  0  0  0  0  0  0  0
   12.1757   -3.2621    0.1651 H   0  0  0  0  0  0  0  0  0  0  0  0
   10.3065   -4.7945    5.0853 H   0  0  0  0  0  0  0  0  0  0  0  0
    9.2590   -3.4056    6.9054 H   0  0  0  0  0  0  0  0  0  0  0  0
    8.5529   -1.0770    6.4617 H   0  0  0  0  0  0  0  0  0  0  0  0
    8.8610   -0.0578    4.1814 H   0  0  0  0  0  0  0  0  0  0  0  0
    8.3658   -6.0977   -1.3055 H   0  0  0  0  0  0  0  0  0  0  0  0
    4.2945   -5.3586   -2.5225 H   0  0  0  0  0  0  0  0  0  0  0  0
    4.6687   -2.8848   -2.4627 H   0  0  0  0  0  0  0  0  0  0  0  0
    7.4558    0.3928    0.8701 H   0  0  0  0  0  0  0  0  0  0  0  0
    6.3801    0.6124    3.0914 H   0  0  0  0  0  0  0  0  0  0  0  0
  1  2  1  0
  1 35  1  0
  1 36  1  0
  1 37  1  0
  2  3  2  0
  2 34  1  0
  3  4  1  0
  3 38  1  0
  4  5  2  0
  4 39  1  0
  6  5  1  1
  5 33  1  0
  6  7  2  0
  6  8  2  0
  6  9  1  0
  9 10  1  0
  9 32  1  0
 10 11  2  0
 10 40  1  0
 11 12  1  0
 11 26  1  0
 12 13  1  0
 12 14  1  0
 12 41  1  1
 13 42  1  0
 13 43  1  0
 13 44  1  0
 14 15  1  0
 14 45  1  0
 14 46  1  0
 15 16  1  0
 15 24  1  0
 16 17  2  0
 16 18  1  0
 18 19  1  0
 18 23  2  0
 19 20  2  0
 19 47  1  0
 20 21  1  0
 20 48  1  0
 21 22  2  0
 21 49  1  0
 22 23  1  0
 22 50  1  0
 23 24  1  0
 24 25  2  0
 26 27  1  0
 26 32  2  0
 27 28  2  0
 27 51  1  0
 28 29  1  0
 28 30  1  0
 30 31  2  0
 30 52  1  0
 31 32  1  0
 31 53  1  0
 33 34  2  0
 33 54  1  0
 34 55  1  0
M  END

