
     RDKit          3D

 43 43  0  0  0  0  0  0  0  0999 V2000
    1.7074   -1.2407    1.2351 C   0  0  0  0  0  0  0  0  0  0  0  0
    3.0571   -0.7552    0.7013 C   0  0  0  0  0  0  0  0  0  0  0  0
    3.4981    0.5564    1.3573 C   0  0  0  0  0  0  0  0  0  0  0  0
    4.9031    1.1003    0.9471 C   0  0  1  0  0  0  0  0  0  0  0  0
    5.9283    0.1035    1.2948 C   0  0  0  0  0  0  0  0  0  0  0  0
    6.7346   -0.6808    1.5798 N   0  0  0  0  0  0  0  0  0  0  0  0
    4.9753    1.4268   -0.5711 C   0  0  0  0  0  0  0  0  0  0  0  0
    6.3081    2.0071   -1.0528 C   0  0  0  0  0  0  0  0  0  0  0  0
    6.3150    2.2839   -2.5573 C   0  0  0  0  0  0  0  0  0  0  0  0
    5.0996    2.4350    1.7383 C   0  0  0  0  0  0  0  0  0  0  0  0
    4.3585    3.3738    1.4967 O   0  0  0  0  0  0  0  0  0  0  0  0
    6.0795    2.4611    2.6725 N   0  0  0  0  0  0  0  0  0  0  0  0
    6.3624    3.6279    3.4978 C   0  0  1  0  0  0  0  0  0  0  0  0
    6.0698    3.3685    5.0028 C   0  0  0  0  0  0  0  0  0  0  0  0
    7.4492    3.0266    5.6182 C   0  0  0  0  0  0  0  0  0  0  0  0
    8.3424    2.9173    4.4673 N   0  0  0  0  0  0  0  0  0  0  0  0
    9.7543    2.9312    4.7674 C   0  0  0  0  0  0  0  0  0  0  0  0
    7.8708    3.9052    3.5096 C   0  0  0  0  0  0  0  0  0  0  0  0
    1.3989   -2.1788    0.7476 H   0  0  0  0  0  0  0  0  0  0  0  0
    0.9137   -0.4958    1.0586 H   0  0  0  0  0  0  0  0  0  0  0  0
    1.7489   -1.4278    2.3210 H   0  0  0  0  0  0  0  0  0  0  0  0
    2.9878   -0.6262   -0.3917 H   0  0  0  0  0  0  0  0  0  0  0  0
    3.8220   -1.5324    0.8729 H   0  0  0  0  0  0  0  0  0  0  0  0
    3.4932    0.4293    2.4540 H   0  0  0  0  0  0  0  0  0  0  0  0
    2.7802    1.3614    1.1351 H   0  0  0  0  0  0  0  0  0  0  0  0
    4.1643    2.1457   -0.7679 H   0  0  0  0  0  0  0  0  0  0  0  0
    4.7495    0.5108   -1.1396 H   0  0  0  0  0  0  0  0  0  0  0  0
    7.1277    1.3109   -0.8028 H   0  0  0  0  0  0  0  0  0  0  0  0
    6.5181    2.9446   -0.5097 H   0  0  0  0  0  0  0  0  0  0  0  0
    6.1444    1.3611   -3.1368 H   0  0  0  0  0  0  0  0  0  0  0  0
    7.2790    2.7060   -2.8824 H   0  0  0  0  0  0  0  0  0  0  0  0
    5.5258    3.0014   -2.8370 H   0  0  0  0  0  0  0  0  0  0  0  0
    6.6759    1.6502    2.8142 H   0  0  0  0  0  0  0  0  0  0  0  0
    5.7662    4.4527    3.0886 H   0  0  0  0  0  0  0  0  0  0  0  0
    5.3391    2.5557    5.1176 H   0  0  0  0  0  0  0  0  0  0  0  0
    5.6388    4.2652    5.4721 H   0  0  0  0  0  0  0  0  0  0  0  0
    7.4507    2.0907    6.2010 H   0  0  0  0  0  0  0  0  0  0  0  0
    7.7746    3.8391    6.3073 H   0  0  0  0  0  0  0  0  0  0  0  0
   10.0042    2.1037    5.4507 H   0  0  0  0  0  0  0  0  0  0  0  0
   10.0894    3.8799    5.2478 H   0  0  0  0  0  0  0  0  0  0  0  0
   10.3411    2.7926    3.8456 H   0  0  0  0  0  0  0  0  0  0  0  0
    8.3392    3.7692    2.5222 H   0  0  0  0  0  0  0  0  0  0  0  0
    8.0651    4.9540    3.8393 H   0  0  0  0  0  0  0  0  0  0  0  0
  1  2  1  0
  1 19  1  0
  1 20  1  0
  1 21  1  0
  2  3  1  0
  2 22  1  0
  2 23  1  0
  3  4  1  0
  3 24  1  0
  3 25  1  0
  4  5  1  1
  4  7  1  0
  4 10  1  0
  5  6  3  0
  7  8  1  0
  7 26  1  0
  7 27  1  0
  8  9  1  0
  8 28  1  0
  8 29  1  0
  9 30  1  0
  9 31  1  0
  9 32  1  0
 10 11  2  0
 10 12  1  0
 12 13  1  0
 12 33  1  0
 13 14  1  0
 13 18  1  0
 13 34  1  6
 14 15  1  0
 14 35  1  0
 14 36  1  0
 15 16  1  0
 15 37  1  0
 15 38  1  0
 16 17  1  0
 16 18  1  0
 17 39  1  0
 17 40  1  0
 17 41  1  0
 18 42  1  0
 18 43  1  0
M  END

