
     RDKit          3D

 29 29  0  0  0  0  0  0  0  0999 V2000
    0.7033   -0.1202    0.4299 C   0  0  0  0  0  0  0  0  0  0  0  0
    2.2111   -0.0659    0.1418 C   0  0  1  0  0  0  0  0  0  0  0  0
    2.8987    0.9805    0.8811 N   0  0  0  0  0  0  0  0  0  0  0  0
    2.8577    2.3230    0.5775 C   0  0  0  0  0  0  0  0  0  0  0  0
    2.3572    2.8205   -0.6481 C   0  0  0  0  0  0  0  0  0  0  0  0
    2.3704    4.1801   -0.9552 C   0  0  0  0  0  0  0  0  0  0  0  0
    2.8802    5.0991   -0.0372 C   0  0  0  0  0  0  0  0  0  0  0  0
    2.8979    6.9615   -0.4465 Br  0  0  0  0  0  0  0  0  0  0  0  0
    3.3759    4.6545    1.1908 C   0  0  0  0  0  0  0  0  0  0  0  0
    3.3595    3.2932    1.4841 C   0  0  0  0  0  0  0  0  0  0  0  0
    4.0481    2.7272    3.1813 Br  0  0  0  0  0  0  0  0  0  0  0  0
    2.9411   -1.4232    0.3945 C   0  0  1  0  0  0  0  0  0  0  0  0
    2.7659   -1.9914    1.8044 C   0  0  0  0  0  0  0  0  0  0  0  0
    2.4851   -2.4441   -0.6540 C   0  0  0  0  0  0  0  0  0  0  0  0
    1.7000   -3.3273   -0.4448 O   0  0  0  0  0  0  0  0  0  0  0  0
    2.9968   -2.2682   -1.8966 O   0  0  0  0  0  0  0  0  0  0  0  0
    0.2273    0.8318    0.1512 H   0  0  0  0  0  0  0  0  0  0  0  0
    0.5123   -0.2868    1.5010 H   0  0  0  0  0  0  0  0  0  0  0  0
    0.2144   -0.9293   -0.1338 H   0  0  0  0  0  0  0  0  0  0  0  0
    2.3443    0.1567   -0.9301 H   0  0  0  0  0  0  0  0  0  0  0  0
    3.1118    0.7734    1.8513 H   0  0  0  0  0  0  0  0  0  0  0  0
    1.9456    2.1275   -1.3825 H   0  0  0  0  0  0  0  0  0  0  0  0
    1.9757    4.5216   -1.9135 H   0  0  0  0  0  0  0  0  0  0  0  0
    3.7729    5.3619    1.9190 H   0  0  0  0  0  0  0  0  0  0  0  0
    4.0130   -1.2184    0.2214 H   0  0  0  0  0  0  0  0  0  0  0  0
    1.7301   -2.3164    1.9714 H   0  0  0  0  0  0  0  0  0  0  0  0
    3.0391   -1.2580    2.5793 H   0  0  0  0  0  0  0  0  0  0  0  0
    3.4096   -2.8723    1.9445 H   0  0  0  0  0  0  0  0  0  0  0  0
    3.6614   -1.5644   -1.8962 H   0  0  0  0  0  0  0  0  0  0  0  0
  1  2  1  0
  1 17  1  0
  1 18  1  0
  1 19  1  0
  2  3  1  0
  2 12  1  0
  2 20  1  6
  3  4  1  0
  3 21  1  0
  4  5  2  0
  4 10  1  0
  5  6  1  0
  5 22  1  0
  6  7  2  0
  6 23  1  0
  7  8  1  0
  7  9  1  0
  9 10  2  0
  9 24  1  0
 10 11  1  0
 12 13  1  0
 12 14  1  0
 12 25  1  6
 13 26  1  0
 13 27  1  0
 13 28  1  0
 14 15  2  0
 14 16  1  0
 16 29  1  0
M  END

