
     RDKit          3D

 33 35  0  0  0  0  0  0  0  0999 V2000
    0.9846    0.0384   -0.6812 C   0  0  0  0  0  0  0  0  0  0  0  0
    2.2668    0.0530    0.1627 C   0  0  1  0  0  0  0  0  0  0  0  0
    3.1222   -1.2072   -0.0673 C   0  0  0  0  0  0  0  0  0  0  0  0
    3.9649   -1.1398   -1.3132 C   0  0  0  0  0  0  0  0  0  0  0  0
    4.2534   -0.0031   -1.9869 C   0  0  0  0  0  0  0  0  0  0  0  0
    5.0944   -0.0195   -3.1912 C   0  0  0  0  0  0  0  0  0  0  0  0
    5.9382   -1.0062   -3.6717 C   0  0  0  0  0  0  0  0  0  0  0  0
    6.5848   -0.6689   -4.8862 C   0  0  0  0  0  0  0  0  0  0  0  0
    6.2531    0.5882   -5.3624 C   0  0  0  0  0  0  0  0  0  0  0  0
    6.7199    1.2686   -6.5561 C   0  0  0  0  0  0  0  0  0  0  0  0
    6.6076    2.6042   -6.9005 C   0  0  0  0  0  0  0  0  0  0  0  0
    7.1927    2.9153   -8.1610 C   0  0  0  0  0  0  0  0  0  0  0  0
    7.7491    1.8206   -8.7736 C   0  0  0  0  0  0  0  0  0  0  0  0
    7.5542    0.3889   -7.8211 S   0  0  0  0  0  0  0  0  0  0  0  0
    5.1123    1.3531   -4.2821 S   0  0  0  0  0  0  0  0  0  0  0  0
    3.6908    1.3317   -1.5303 C   0  0  0  0  0  0  0  0  0  0  0  0
    3.1357    1.2945   -0.1013 C   0  0  0  0  0  0  0  0  0  0  0  0
    0.3375   -0.8076   -0.3984 H   0  0  0  0  0  0  0  0  0  0  0  0
    1.2011   -0.0615   -1.7570 H   0  0  0  0  0  0  0  0  0  0  0  0
    0.4035    0.9646   -0.5390 H   0  0  0  0  0  0  0  0  0  0  0  0
    1.9650    0.0710    1.2245 H   0  0  0  0  0  0  0  0  0  0  0  0
    2.4789   -2.1045   -0.1075 H   0  0  0  0  0  0  0  0  0  0  0  0
    3.7859   -1.3716    0.8049 H   0  0  0  0  0  0  0  0  0  0  0  0
    4.3654   -2.0904   -1.6799 H   0  0  0  0  0  0  0  0  0  0  0  0
    6.1077   -1.9470   -3.1469 H   0  0  0  0  0  0  0  0  0  0  0  0
    7.2981   -1.3222   -5.3919 H   0  0  0  0  0  0  0  0  0  0  0  0
    6.1290    3.3419   -6.2544 H   0  0  0  0  0  0  0  0  0  0  0  0
    7.2054    3.9166   -8.5944 H   0  0  0  0  0  0  0  0  0  0  0  0
    8.2630    1.7704   -9.7324 H   0  0  0  0  0  0  0  0  0  0  0  0
    2.9040    1.6493   -2.2408 H   0  0  0  0  0  0  0  0  0  0  0  0
    4.4744    2.1049   -1.6020 H   0  0  0  0  0  0  0  0  0  0  0  0
    2.5627    2.2152    0.0994 H   0  0  0  0  0  0  0  0  0  0  0  0
    3.9799    1.2911    0.6104 H   0  0  0  0  0  0  0  0  0  0  0  0
  1  2  1  0
  1 18  1  0
  1 19  1  0
  1 20  1  0
  2  3  1  0
  2 17  1  0
  2 21  1  1
  3  4  1  0
  3 22  1  0
  3 23  1  0
  4  5  2  0
  4 24  1  0
  5  6  1  0
  5 16  1  0
  6  7  2  0
  6 15  1  0
  7  8  1  0
  7 25  1  0
  8  9  2  0
  8 26  1  0
  9 10  1  0
  9 15  1  0
 10 11  2  0
 10 14  1  0
 11 12  1  0
 11 27  1  0
 12 13  2  0
 12 28  1  0
 13 14  1  0
 13 29  1  0
 16 17  1  0
 16 30  1  0
 16 31  1  0
 17 32  1  0
 17 33  1  0
M  END

