
     RDKit          3D

 68 74  0  0  0  0  0  0  0  0999 V2000
    1.1114    0.3548    0.6164 C   0  0  0  0  0  0  0  0  0  0  0  0
    2.6083    0.2250    0.5057 C   0  0  0  0  0  0  0  0  0  0  0  0
    3.3924    1.2999    0.0992 C   0  0  0  0  0  0  0  0  0  0  0  0
    4.7881    1.2015    0.0198 C   0  0  0  0  0  0  0  0  0  0  0  0
    5.4297   -0.0012    0.3206 C   0  0  0  0  0  0  0  0  0  0  0  0
    4.6411   -1.0960    0.7084 C   0  0  0  0  0  0  0  0  0  0  0  0
    3.2506   -1.0052    0.8274 C   0  0  0  0  0  0  0  0  0  0  0  0
    2.4694   -2.0830    1.2646 N   0  0  0  0  0  0  0  0  0  0  0  0
    2.9696   -3.3272    1.7233 C   0  0  0  0  0  0  0  0  0  0  0  0
    3.7029   -3.3960    2.9332 C   0  0  0  0  0  0  0  0  0  0  0  0
    3.9572   -2.1691    3.7711 C   0  0  0  0  0  0  0  0  0  0  0  0
    4.1645   -4.6499    3.3599 C   0  0  0  0  0  0  0  0  0  0  0  0
    3.8877   -5.8109    2.6385 C   0  0  0  0  0  0  0  0  0  0  0  0
    3.1363   -5.7328    1.4652 C   0  0  0  0  0  0  0  0  0  0  0  0
    2.6753   -4.5001    0.9867 C   0  0  0  0  0  0  0  0  0  0  0  0
    1.8785   -4.4231   -0.2938 C   0  0  0  0  0  0  0  0  0  0  0  0
    6.9423   -0.1191    0.2770 C   0  0  1  0  0  0  0  0  0  0  0  0
    7.4185   -0.4056    1.6436 O   0  0  0  0  0  0  0  0  0  0  0  0
    8.0883   -1.5910    1.7301 C   0  0  0  0  0  0  0  0  0  0  0  0
    8.5541   -2.0080    2.7555 O   0  0  0  0  0  0  0  0  0  0  0  0
    8.1016   -2.1929    0.3717 C   0  0  0  0  0  0  0  0  0  0  0  0
    8.6631   -3.3973   -0.0580 C   0  0  0  0  0  0  0  0  0  0  0  0
    8.5289   -3.7299   -1.4074 C   0  0  0  0  0  0  0  0  0  0  0  0
    7.8492   -2.8707   -2.2891 C   0  0  0  0  0  0  0  0  0  0  0  0
    7.2911   -1.6665   -1.8456 C   0  0  0  0  0  0  0  0  0  0  0  0
    7.4279   -1.3406   -0.4965 C   0  0  0  0  0  0  0  0  0  0  0  0
    7.5734    1.1729   -0.1977 C   0  0  0  0  0  0  0  0  0  0  0  0
    8.9671    1.2890   -0.3520 C   0  0  0  0  0  0  0  0  0  0  0  0
    9.5688    2.4764   -0.7330 C   0  0  0  0  0  0  0  0  0  0  0  0
    8.7860    3.6287   -0.9947 C   0  0  0  0  0  0  0  0  0  0  0  0
    9.4390    4.7836   -1.4096 N   0  0  0  0  0  0  0  0  0  0  0  0
    8.9893    6.1070   -1.4812 C   0  0  0  0  0  0  0  0  0  0  0  0
    8.0079    6.6349   -0.6195 C   0  0  0  0  0  0  0  0  0  0  0  0
    7.6317    7.9760   -0.7208 C   0  0  0  0  0  0  0  0  0  0  0  0
    8.2267    8.8230   -1.6599 C   0  0  0  0  0  0  0  0  0  0  0  0
    9.2160    8.3086   -2.5043 C   0  0  0  0  0  0  0  0  0  0  0  0
    9.5886    6.9677   -2.4233 C   0  0  0  0  0  0  0  0  0  0  0  0
    7.3953    3.5272   -0.8621 C   0  0  0  0  0  0  0  0  0  0  0  0
    6.8101    2.3192   -0.4587 C   0  0  0  0  0  0  0  0  0  0  0  0
    5.4535    2.3351   -0.3628 O   0  0  0  0  0  0  0  0  0  0  0  0
    0.7843    1.3852    0.4192 H   0  0  0  0  0  0  0  0  0  0  0  0
    0.7593    0.0675    1.6219 H   0  0  0  0  0  0  0  0  0  0  0  0
    0.5848   -0.2973   -0.1052 H   0  0  0  0  0  0  0  0  0  0  0  0
    2.9321    2.2589   -0.1485 H   0  0  0  0  0  0  0  0  0  0  0  0
    5.1281   -2.0469    0.9276 H   0  0  0  0  0  0  0  0  0  0  0  0
    1.5415   -2.1199    0.8609 H   0  0  0  0  0  0  0  0  0  0  0  0
    3.0728   -1.5136    3.7886 H   0  0  0  0  0  0  0  0  0  0  0  0
    4.7922   -1.5627    3.3811 H   0  0  0  0  0  0  0  0  0  0  0  0
    4.2091   -2.4490    4.8041 H   0  0  0  0  0  0  0  0  0  0  0  0
    4.7351   -4.7111    4.2906 H   0  0  0  0  0  0  0  0  0  0  0  0
    4.2506   -6.7782    2.9950 H   0  0  0  0  0  0  0  0  0  0  0  0
    2.9117   -6.6411    0.8989 H   0  0  0  0  0  0  0  0  0  0  0  0
    1.8576   -5.3974   -0.8028 H   0  0  0  0  0  0  0  0  0  0  0  0
    2.3017   -3.6830   -0.9928 H   0  0  0  0  0  0  0  0  0  0  0  0
    0.8267   -4.1330   -0.1151 H   0  0  0  0  0  0  0  0  0  0  0  0
    9.1849   -4.0458    0.6494 H   0  0  0  0  0  0  0  0  0  0  0  0
    8.9529   -4.6635   -1.7852 H   0  0  0  0  0  0  0  0  0  0  0  0
    7.7554   -3.1502   -3.3418 H   0  0  0  0  0  0  0  0  0  0  0  0
    6.7655   -1.0046   -2.5380 H   0  0  0  0  0  0  0  0  0  0  0  0
    9.5961    0.4184   -0.1527 H   0  0  0  0  0  0  0  0  0  0  0  0
   10.6566    2.5319   -0.8253 H   0  0  0  0  0  0  0  0  0  0  0  0
   10.3754    4.6338   -1.7646 H   0  0  0  0  0  0  0  0  0  0  0  0
    7.5594    6.0059    0.1492 H   0  0  0  0  0  0  0  0  0  0  0  0
    6.8694    8.3648   -0.0403 H   0  0  0  0  0  0  0  0  0  0  0  0
    7.9279    9.8712   -1.7297 H   0  0  0  0  0  0  0  0  0  0  0  0
    9.6981    8.9546   -3.2428 H   0  0  0  0  0  0  0  0  0  0  0  0
   10.3516    6.5710   -3.0996 H   0  0  0  0  0  0  0  0  0  0  0  0
    6.7314    4.3602   -1.0847 H   0  0  0  0  0  0  0  0  0  0  0  0
  1  2  1  0
  1 41  1  0
  1 42  1  0
  1 43  1  0
  2  3  2  0
  2  7  1  0
  3  4  1  0
  3 44  1  0
  4  5  2  0
  4 40  1  0
  5  6  1  0
  5 17  1  0
  6  7  2  0
  6 45  1  0
  7  8  1  0
  8  9  1  0
  8 46  1  0
  9 10  2  0
  9 15  1  0
 10 11  1  0
 10 12  1  0
 11 47  1  0
 11 48  1  0
 11 49  1  0
 12 13  2  0
 12 50  1  0
 13 14  1  0
 13 51  1  0
 14 15  2  0
 14 52  1  0
 15 16  1  0
 16 53  1  0
 16 54  1  0
 16 55  1  0
 17 18  1  1
 17 26  1  0
 17 27  1  0
 18 19  1  0
 19 20  2  0
 19 21  1  0
 21 22  1  0
 21 26  2  0
 22 23  2  0
 22 56  1  0
 23 24  1  0
 23 57  1  0
 24 25  2  0
 24 58  1  0
 25 26  1  0
 25 59  1  0
 27 28  1  0
 27 39  2  0
 28 29  2  0
 28 60  1  0
 29 30  1  0
 29 61  1  0
 30 31  1  0
 30 38  2  0
 31 32  1  0
 31 62  1  0
 32 33  2  0
 32 37  1  0
 33 34  1  0
 33 63  1  0
 34 35  2  0
 34 64  1  0
 35 36  1  0
 35 65  1  0
 36 37  2  0
 36 66  1  0
 37 67  1  0
 38 39  1  0
 38 68  1  0
 39 40  1  0
M  END

