
     RDKit          3D

 28 29  0  0  0  0  0  0  0  0999 V2000
    1.2181   -1.0036    0.9850 O   0  0  0  0  0  0  0  0  0  0  0  0
    2.0067   -0.3810    0.2993 C   0  0  0  0  0  0  0  0  0  0  0  0
    2.3921    0.9221    0.4993 N   0  0  0  0  0  0  0  0  0  0  0  0
    1.9814    1.8069    1.5038 C   0  0  0  0  0  0  0  0  0  0  0  0
    1.0993    1.4153    2.5296 C   0  0  0  0  0  0  0  0  0  0  0  0
    0.7168    2.3223    3.5177 C   0  0  0  0  0  0  0  0  0  0  0  0
    1.1949    3.6336    3.5165 C   0  0  0  0  0  0  0  0  0  0  0  0
    2.0666    4.0343    2.5044 C   0  0  0  0  0  0  0  0  0  0  0  0
    2.4633    3.1433    1.5025 C   0  0  0  0  0  0  0  0  0  0  0  0
    3.3933    3.6287    0.4190 C   0  0  1  0  0  0  0  0  0  0  0  0
    4.5265    2.8892    0.3615 F   0  0  0  0  0  0  0  0  0  0  0  0
    2.8278    3.5391   -0.8049 F   0  0  0  0  0  0  0  0  0  0  0  0
    3.7651    4.9035    0.5901 F   0  0  0  0  0  0  0  0  0  0  0  0
    2.6932   -0.9923   -0.9156 C   0  0  0  0  0  0  0  0  0  0  0  0
    3.5478   -0.1856   -1.5657 N   0  0  0  0  0  0  0  0  0  0  0  0
    4.2007   -0.5981   -2.6274 C   0  0  0  0  0  0  0  0  0  0  0  0
    5.2890    0.5238   -3.4022 Cl  0  0  0  0  0  0  0  0  0  0  0  0
    4.0556   -1.8913   -3.1532 C   0  0  0  0  0  0  0  0  0  0  0  0
    3.1785   -2.7460   -2.5020 C   0  0  0  0  0  0  0  0  0  0  0  0
    2.4769   -2.3099   -1.3644 C   0  0  0  0  0  0  0  0  0  0  0  0
    1.4016   -3.4442   -0.6155 Cl  0  0  0  0  0  0  0  0  0  0  0  0
    3.0712    1.2408   -0.1913 H   0  0  0  0  0  0  0  0  0  0  0  0
    0.7241    0.3955    2.5327 H   0  0  0  0  0  0  0  0  0  0  0  0
    0.0314    1.9896    4.3016 H   0  0  0  0  0  0  0  0  0  0  0  0
    0.8934    4.3402    4.2926 H   0  0  0  0  0  0  0  0  0  0  0  0
    2.4502    5.0548    2.4819 H   0  0  0  0  0  0  0  0  0  0  0  0
    4.6125   -2.2030   -4.0372 H   0  0  0  0  0  0  0  0  0  0  0  0
    3.0207   -3.7645   -2.8613 H   0  0  0  0  0  0  0  0  0  0  0  0
  1  2  2  0
  2  3  1  0
  2 14  1  0
  3  4  1  0
  3 22  1  0
  4  5  2  0
  4  9  1  0
  5  6  1  0
  5 23  1  0
  6  7  2  0
  6 24  1  0
  7  8  1  0
  7 25  1  0
  8  9  2  0
  8 26  1  0
  9 10  1  0
 10 11  1  6
 10 12  1  0
 10 13  1  0
 14 15  2  0
 14 20  1  0
 15 16  1  0
 16 17  1  0
 16 18  2  0
 18 19  1  0
 18 27  1  0
 19 20  2  0
 19 28  1  0
 20 21  1  0
M  END

