
     RDKit          3D

 41 42  0  0  0  0  0  0  0  0999 V2000
    7.3559   -0.2656   -4.1624 C   0  0  0  0  0  0  0  0  0  0  0  0
    6.2143   -1.1526   -3.7258 C   0  0  0  0  0  0  0  0  0  0  0  0
    5.2292   -1.5800   -4.6207 C   0  0  0  0  0  0  0  0  0  0  0  0
    4.1856   -2.4032   -4.1881 C   0  0  0  0  0  0  0  0  0  0  0  0
    4.0828   -2.8293   -2.8585 C   0  0  0  0  0  0  0  0  0  0  0  0
    2.9302   -3.7074   -2.4329 C   0  0  0  0  0  0  0  0  0  0  0  0
    5.0777   -2.4074   -1.9398 C   0  0  0  0  0  0  0  0  0  0  0  0
    5.0006   -2.8625   -0.4854 C   0  0  2  0  0  0  0  0  0  0  0  0
    3.9415   -2.7481   -0.1828 H   0  0  0  0  0  0  0  0  0  0  0  0
    5.8143   -2.0225    0.5193 C   0  0  0  0  0  0  0  0  0  0  0  0
    5.5300   -2.4629    1.9627 C   0  0  2  0  0  0  0  0  0  0  0  0
    4.4437   -2.2999    2.1536 H   0  0  0  0  0  0  0  0  0  0  0  0
    6.2992   -1.7372    2.8989 O   0  0  0  0  0  0  0  0  0  0  0  0
    5.7709   -3.9755    2.1740 C   0  0  1  0  0  0  0  0  0  0  0  0
    7.2579   -4.3139    2.2719 C   0  0  0  0  0  0  0  0  0  0  0  0
    5.2198   -4.4049    3.4152 O   0  0  0  0  0  0  0  0  0  0  0  0
    5.0431   -4.7411    1.0301 C   0  0  0  0  0  0  0  0  0  0  0  0
    5.2899   -4.2963   -0.3297 N   0  0  0  0  0  0  0  0  0  0  0  0
    6.4666   -4.8166   -1.0035 C   0  0  0  0  0  0  0  0  0  0  0  0
    6.1130   -1.5810   -2.3915 C   0  0  0  0  0  0  0  0  0  0  0  0
    7.2713    0.0082   -5.2246 H   0  0  0  0  0  0  0  0  0  0  0  0
    8.3301   -0.7643   -4.0222 H   0  0  0  0  0  0  0  0  0  0  0  0
    7.3872    0.6684   -3.5763 H   0  0  0  0  0  0  0  0  0  0  0  0
    5.2729   -1.2677   -5.6682 H   0  0  0  0  0  0  0  0  0  0  0  0
    3.4249   -2.7229   -4.9063 H   0  0  0  0  0  0  0  0  0  0  0  0
    2.3281   -4.0180   -3.2993 H   0  0  0  0  0  0  0  0  0  0  0  0
    2.2562   -3.1779   -1.7361 H   0  0  0  0  0  0  0  0  0  0  0  0
    3.2882   -4.6042   -1.9056 H   0  0  0  0  0  0  0  0  0  0  0  0
    5.5573   -0.9531    0.4140 H   0  0  0  0  0  0  0  0  0  0  0  0
    6.8967   -2.1104    0.3324 H   0  0  0  0  0  0  0  0  0  0  0  0
    6.1311   -0.7959    2.7632 H   0  0  0  0  0  0  0  0  0  0  0  0
    7.8156   -4.0095    1.3764 H   0  0  0  0  0  0  0  0  0  0  0  0
    7.3784   -5.3994    2.4085 H   0  0  0  0  0  0  0  0  0  0  0  0
    7.6861   -3.7996    3.1420 H   0  0  0  0  0  0  0  0  0  0  0  0
    4.2964   -4.1217    3.4538 H   0  0  0  0  0  0  0  0  0  0  0  0
    3.9565   -4.6413    1.2291 H   0  0  0  0  0  0  0  0  0  0  0  0
    5.2779   -5.8130    1.1224 H   0  0  0  0  0  0  0  0  0  0  0  0
    6.5608   -5.8900   -0.7780 H   0  0  0  0  0  0  0  0  0  0  0  0
    7.4282   -4.3362   -0.7247 H   0  0  0  0  0  0  0  0  0  0  0  0
    6.3574   -4.7139   -2.0940 H   0  0  0  0  0  0  0  0  0  0  0  0
    6.8823   -1.2545   -1.6879 H   0  0  0  0  0  0  0  0  0  0  0  0
  1  2  1  0
  1 21  1  0
  1 22  1  0
  1 23  1  0
  2  3  2  0
  2 20  1  0
  3  4  1  0
  3 24  1  0
  4  5  2  0
  4 25  1  0
  5  6  1  0
  5  7  1  0
  6 26  1  0
  6 27  1  0
  6 28  1  0
  7  8  1  0
  7 20  2  0
  8  9  1  1
  8 10  1  0
  8 18  1  0
 10 11  1  0
 10 29  1  0
 10 30  1  0
 11 12  1  1
 11 13  1  0
 11 14  1  0
 13 31  1  0
 14 15  1  0
 14 16  1  1
 14 17  1  0
 15 32  1  0
 15 33  1  0
 15 34  1  0
 16 35  1  0
 17 18  1  0
 17 36  1  0
 17 37  1  0
 18 19  1  0
 19 38  1  0
 19 39  1  0
 19 40  1  0
 20 41  1  0
M  END

