
     RDKit          3D

 47 50  0  0  0  0  0  0  0  0999 V2000
   10.7023    2.3623    1.8435 O   0  0  0  0  0  0  0  0  0  0  0  0
    9.6257    1.9159    2.1430 C   0  0  0  0  0  0  0  0  0  0  0  0
    9.5195    0.9554    3.0830 O   0  0  0  0  0  0  0  0  0  0  0  0
    8.3072    2.4075    1.5416 C   0  0  0  0  0  0  0  0  0  0  0  0
    7.2196    1.3614    1.4107 C   0  0  0  0  0  0  0  0  0  0  0  0
    5.9441    1.5577    1.9605 C   0  0  0  0  0  0  0  0  0  0  0  0
    4.9515    0.5887    1.7880 C   0  0  0  0  0  0  0  0  0  0  0  0
    5.2122   -0.5774    1.0699 C   0  0  0  0  0  0  0  0  0  0  0  0
    6.4855   -0.8025    0.5075 C   0  0  0  0  0  0  0  0  0  0  0  0
    6.7837   -2.0494   -0.2173 C   0  0  0  0  0  0  0  0  0  0  0  0
    7.8061   -2.3509   -1.1616 C   0  0  0  0  0  0  0  0  0  0  0  0
    8.7769   -1.5164   -1.7315 N   0  0  0  0  0  0  0  0  0  0  0  0
    8.5131   -0.3243   -2.3957 C   0  0  0  0  0  0  0  0  0  0  0  0
    7.4194    0.1924   -2.4147 O   0  0  0  0  0  0  0  0  0  0  0  0
    9.7398    0.2876   -3.0867 C   0  0  0  0  0  0  0  0  0  0  0  0
    9.8751    1.7668   -2.8007 C   0  0  0  0  0  0  0  0  0  0  0  0
    9.2706    2.7194   -3.6341 C   0  0  0  0  0  0  0  0  0  0  0  0
    9.3567    4.0837   -3.3489 C   0  0  0  0  0  0  0  0  0  0  0  0
   10.0459    4.4920   -2.2088 C   0  0  0  0  0  0  0  0  0  0  0  0
   10.1261    5.8022   -1.9290 F   0  0  0  0  0  0  0  0  0  0  0  0
   10.6478    3.5735   -1.3522 C   0  0  0  0  0  0  0  0  0  0  0  0
   10.5601    2.2137   -1.6601 C   0  0  0  0  0  0  0  0  0  0  0  0
    7.8443   -3.6416   -1.5224 N   0  0  0  0  0  0  0  0  0  0  0  0
    6.8521   -4.2134   -0.8372 N   0  0  0  0  0  0  0  0  0  0  0  0
    6.5080   -5.5269   -0.8773 C   0  0  0  0  0  0  0  0  0  0  0  0
    5.4489   -5.9378   -0.1069 C   0  0  0  0  0  0  0  0  0  0  0  0
    4.7761   -4.9673    0.6903 C   0  0  0  0  0  0  0  0  0  0  0  0
    5.1131   -3.6962    0.7245 N   0  0  0  0  0  0  0  0  0  0  0  0
    6.1487   -3.2948   -0.0334 C   0  0  0  0  0  0  0  0  0  0  0  0
    7.4725    0.1801    0.6978 C   0  0  0  0  0  0  0  0  0  0  0  0
    8.5949    0.6646    3.1484 H   0  0  0  0  0  0  0  0  0  0  0  0
    8.5557    2.8484    0.5648 H   0  0  0  0  0  0  0  0  0  0  0  0
    7.9608    3.2379    2.1806 H   0  0  0  0  0  0  0  0  0  0  0  0
    5.7250    2.4747    2.5149 H   0  0  0  0  0  0  0  0  0  0  0  0
    3.9581    0.7473    2.2156 H   0  0  0  0  0  0  0  0  0  0  0  0
    4.4339   -1.3308    0.9518 H   0  0  0  0  0  0  0  0  0  0  0  0
    9.6385   -1.9961   -1.9731 H   0  0  0  0  0  0  0  0  0  0  0  0
    9.5990    0.1246   -4.1685 H   0  0  0  0  0  0  0  0  0  0  0  0
   10.6574   -0.2463   -2.7944 H   0  0  0  0  0  0  0  0  0  0  0  0
    8.7185    2.3915   -4.5182 H   0  0  0  0  0  0  0  0  0  0  0  0
    8.8938    4.8337   -3.9932 H   0  0  0  0  0  0  0  0  0  0  0  0
   11.1577    3.9094   -0.4480 H   0  0  0  0  0  0  0  0  0  0  0  0
   11.0298    1.4972   -0.9807 H   0  0  0  0  0  0  0  0  0  0  0  0
    7.1088   -6.1615   -1.5306 H   0  0  0  0  0  0  0  0  0  0  0  0
    5.1343   -6.9815   -0.1106 H   0  0  0  0  0  0  0  0  0  0  0  0
    3.9295   -5.2735    1.3154 H   0  0  0  0  0  0  0  0  0  0  0  0
    8.4714    0.0150    0.2920 H   0  0  0  0  0  0  0  0  0  0  0  0
  1  2  2  0
  2  3  1  0
  2  4  1  0
  3 31  1  0
  4  5  1  0
  4 32  1  0
  4 33  1  0
  5  6  2  0
  5 30  1  0
  6  7  1  0
  6 34  1  0
  7  8  2  0
  7 35  1  0
  8  9  1  0
  8 36  1  0
  9 10  1  0
  9 30  2  0
 10 11  1  0
 10 29  2  0
 11 12  1  0
 11 23  2  0
 12 13  1  0
 12 37  1  0
 13 14  2  0
 13 15  1  0
 15 16  1  0
 15 38  1  0
 15 39  1  0
 16 17  2  0
 16 22  1  0
 17 18  1  0
 17 40  1  0
 18 19  2  0
 18 41  1  0
 19 20  1  0
 19 21  1  0
 21 22  2  0
 21 42  1  0
 22 43  1  0
 23 24  1  0
 24 25  1  0
 24 29  1  0
 25 26  2  0
 25 44  1  0
 26 27  1  0
 26 45  1  0
 27 28  2  0
 27 46  1  0
 28 29  1  0
 30 47  1  0
M  END

