
     RDKit          3D

 33 35  0  0  0  0  0  0  0  0999 V2000
    1.4954    0.2608   -1.1510 O   0  0  0  0  0  0  0  0  0  0  0  0
    2.4823    0.1164   -0.4440 C   0  0  0  0  0  0  0  0  0  0  0  0
    3.0290   -1.0934   -0.1190 N   0  0  0  0  0  0  0  0  0  0  0  0
    2.4663   -2.3459   -0.5610 C   0  0  0  0  0  0  0  0  0  0  0  0
    3.4290   -3.2271   -1.3396 C   0  0  0  0  0  0  0  0  0  0  0  0
    3.2673   -4.6205   -1.3335 C   0  0  0  0  0  0  0  0  0  0  0  0
    4.1108   -5.4414   -2.0814 C   0  0  0  0  0  0  0  0  0  0  0  0
    5.1429   -4.8796   -2.8344 C   0  0  0  0  0  0  0  0  0  0  0  0
    5.9589   -5.6790   -3.6250 O   0  0  0  0  0  0  0  0  0  0  0  0
    6.9374   -6.4038   -3.0336 C   0  0  1  0  0  0  0  0  0  0  0  0
    7.7278   -5.6563   -2.2560 F   0  0  0  0  0  0  0  0  0  0  0  0
    6.4417   -7.3870   -2.2599 F   0  0  0  0  0  0  0  0  0  0  0  0
    7.6677   -6.9559   -3.9909 F   0  0  0  0  0  0  0  0  0  0  0  0
    5.3191   -3.4886   -2.8463 C   0  0  0  0  0  0  0  0  0  0  0  0
    6.5962   -2.7780   -3.7902 Cl  0  0  0  0  0  0  0  0  0  0  0  0
    4.4625   -2.6720   -2.1039 C   0  0  0  0  0  0  0  0  0  0  0  0
    3.2101    1.2730    0.1445 C   0  0  0  0  0  0  0  0  0  0  0  0
    2.8779    2.6043   -0.0307 C   0  0  0  0  0  0  0  0  0  0  0  0
    3.8249    3.2986    0.6932 N   0  0  0  0  0  0  0  0  0  0  0  0
    4.1490    4.6162    0.9944 C   0  0  0  0  0  0  0  0  0  0  0  0
    5.2431    4.6913    1.7947 C   0  0  0  0  0  0  0  0  0  0  0  0
    6.0306    6.2609    2.4449 Br  0  0  0  0  0  0  0  0  0  0  0  0
    5.9230    3.1110    2.2110 S   0  0  0  0  0  0  0  0  0  0  0  0
    4.6627    2.3480    1.2557 C   0  0  0  0  0  0  0  0  0  0  0  0
    4.3243    1.1248    0.9485 N   0  0  0  0  0  0  0  0  0  0  0  0
    3.8330   -1.0794    0.5023 H   0  0  0  0  0  0  0  0  0  0  0  0
    1.6034   -2.0810   -1.1947 H   0  0  0  0  0  0  0  0  0  0  0  0
    2.0676   -2.9210    0.2942 H   0  0  0  0  0  0  0  0  0  0  0  0
    2.4681   -5.0726   -0.7401 H   0  0  0  0  0  0  0  0  0  0  0  0
    3.9829   -6.5246   -2.0889 H   0  0  0  0  0  0  0  0  0  0  0  0
    4.6138   -1.5920   -2.1217 H   0  0  0  0  0  0  0  0  0  0  0  0
    2.0761    3.0746   -0.5913 H   0  0  0  0  0  0  0  0  0  0  0  0
    3.5600    5.4444    0.6062 H   0  0  0  0  0  0  0  0  0  0  0  0
  1  2  2  0
  2  3  1  0
  2 17  1  0
  3  4  1  0
  3 26  1  0
  4  5  1  0
  4 27  1  0
  4 28  1  0
  5  6  2  0
  5 16  1  0
  6  7  1  0
  6 29  1  0
  7  8  2  0
  7 30  1  0
  8  9  1  0
  8 14  1  0
  9 10  1  0
 10 11  1  1
 10 12  1  0
 10 13  1  0
 14 15  1  0
 14 16  2  0
 16 31  1  0
 17 18  2  0
 17 25  1  0
 18 19  1  0
 18 32  1  0
 19 20  1  0
 19 24  1  0
 20 21  2  0
 20 33  1  0
 21 22  1  0
 21 23  1  0
 23 24  1  0
 24 25  2  0
M  END

