
     RDKit          3D

 48 50  0  0  0  0  0  0  0  0999 V2000
   -1.0244    0.4991   -1.8608 C   0  0  0  0  0  0  0  0  0  0  0  0
   -0.9065   -0.6714   -2.6415 O   0  0  0  0  0  0  0  0  0  0  0  0
    0.2386   -0.8850   -3.3429 C   0  0  0  0  0  0  0  0  0  0  0  0
    1.3187    0.0009   -3.4208 C   0  0  0  0  0  0  0  0  0  0  0  0
    2.4628   -0.3040   -4.1668 C   0  0  0  0  0  0  0  0  0  0  0  0
    2.5441   -1.5188   -4.8619 C   0  0  0  0  0  0  0  0  0  0  0  0
    3.6583   -1.9047   -5.6349 N   0  0  0  0  0  0  0  0  0  0  0  0
    4.8162   -1.2109   -5.8755 C   0  0  0  0  0  0  0  0  0  0  0  0
    5.0658   -0.1064   -5.4280 O   0  0  0  0  0  0  0  0  0  0  0  0
    5.8408   -1.9267   -6.7792 C   0  0  0  0  0  0  0  0  0  0  0  0
    5.4903   -3.2896   -7.3351 C   0  0  0  0  0  0  0  0  0  0  0  0
    5.8827   -4.4711   -6.6019 C   0  0  0  0  0  0  0  0  0  0  0  0
    6.6154   -4.3584   -5.2847 C   0  0  0  0  0  0  0  0  0  0  0  0
    5.6304   -5.6906   -7.0225 N   0  0  0  0  0  0  0  0  0  0  0  0
    4.9702   -5.8719   -8.1971 C   0  0  0  0  0  0  0  0  0  0  0  0
    4.7219   -7.2039   -8.6297 C   0  0  0  0  0  0  0  0  0  0  0  0
    4.0531   -7.4460   -9.8109 C   0  0  0  0  0  0  0  0  0  0  0  0
    3.6038   -6.3639  -10.6068 C   0  0  0  0  0  0  0  0  0  0  0  0
    3.8295   -5.0607  -10.2098 C   0  0  0  0  0  0  0  0  0  0  0  0
    4.5187   -4.7756   -8.9970 C   0  0  0  0  0  0  0  0  0  0  0  0
    4.7907   -3.4450   -8.5310 C   0  0  0  0  0  0  0  0  0  0  0  0
    4.3082   -2.2748   -9.3534 C   0  0  0  0  0  0  0  0  0  0  0  0
    1.4591   -2.4117   -4.7933 C   0  0  0  0  0  0  0  0  0  0  0  0
    0.3282   -2.1049   -4.0491 C   0  0  0  0  0  0  0  0  0  0  0  0
   -0.6736   -3.0523   -3.9533 O   0  0  0  0  0  0  0  0  0  0  0  0
   -1.8825   -2.7636   -4.5347 C   0  0  1  0  0  0  0  0  0  0  0  0
   -1.7797   -2.8420   -5.8866 F   0  0  0  0  0  0  0  0  0  0  0  0
   -2.7396   -3.7097   -4.1322 F   0  0  0  0  0  0  0  0  0  0  0  0
   -2.0021    0.4453   -1.3638 H   0  0  0  0  0  0  0  0  0  0  0  0
   -0.9864    1.4124   -2.4812 H   0  0  0  0  0  0  0  0  0  0  0  0
   -0.2333    0.5563   -1.0924 H   0  0  0  0  0  0  0  0  0  0  0  0
    1.2858    0.9519   -2.8886 H   0  0  0  0  0  0  0  0  0  0  0  0
    3.2946    0.3943   -4.2144 H   0  0  0  0  0  0  0  0  0  0  0  0
    3.5857   -2.8107   -6.0864 H   0  0  0  0  0  0  0  0  0  0  0  0
    6.7609   -1.9718   -6.1800 H   0  0  0  0  0  0  0  0  0  0  0  0
    6.0641   -1.2079   -7.5805 H   0  0  0  0  0  0  0  0  0  0  0  0
    7.6106   -3.8993   -5.4095 H   0  0  0  0  0  0  0  0  0  0  0  0
    6.7469   -5.3655   -4.8700 H   0  0  0  0  0  0  0  0  0  0  0  0
    6.0636   -3.7412   -4.5571 H   0  0  0  0  0  0  0  0  0  0  0  0
    5.0814   -8.0124   -7.9903 H   0  0  0  0  0  0  0  0  0  0  0  0
    3.8664   -8.4724  -10.1367 H   0  0  0  0  0  0  0  0  0  0  0  0
    3.0739   -6.5630  -11.5417 H   0  0  0  0  0  0  0  0  0  0  0  0
    3.4746   -4.2428  -10.8385 H   0  0  0  0  0  0  0  0  0  0  0  0
    3.2206   -2.3349   -9.5201 H   0  0  0  0  0  0  0  0  0  0  0  0
    4.7810   -2.2721  -10.3497 H   0  0  0  0  0  0  0  0  0  0  0  0
    4.5129   -1.3058   -8.8851 H   0  0  0  0  0  0  0  0  0  0  0  0
    1.4756   -3.3706   -5.3164 H   0  0  0  0  0  0  0  0  0  0  0  0
   -2.2664   -1.7656   -4.2698 H   0  0  0  0  0  0  0  0  0  0  0  0
  1  2  1  0
  1 29  1  0
  1 30  1  0
  1 31  1  0
  2  3  1  0
  3  4  2  0
  3 24  1  0
  4  5  1  0
  4 32  1  0
  5  6  2  0
  5 33  1  0
  6  7  1  0
  6 23  1  0
  7  8  1  0
  7 34  1  0
  8  9  2  0
  8 10  1  0
 10 11  1  0
 10 35  1  0
 10 36  1  0
 11 12  2  0
 11 21  1  0
 12 13  1  0
 12 14  1  0
 13 37  1  0
 13 38  1  0
 13 39  1  0
 14 15  2  0
 15 16  1  0
 15 20  1  0
 16 17  2  0
 16 40  1  0
 17 18  1  0
 17 41  1  0
 18 19  2  0
 18 42  1  0
 19 20  1  0
 19 43  1  0
 20 21  2  0
 21 22  1  0
 22 44  1  0
 22 45  1  0
 22 46  1  0
 23 24  2  0
 23 47  1  0
 24 25  1  0
 25 26  1  0
 26 27  1  0
 26 28  1  0
 26 48  1  6
M  END

