
     RDKit          3D

 42 45  0  0  0  0  0  0  0  0999 V2000
    1.9701    1.2798   -0.3194 N   0  0  0  0  0  0  0  0  0  0  0  0
    2.8850    0.3815    0.2310 C   0  0  0  0  0  0  0  0  0  0  0  0
    2.5230   -0.3718    1.3821 C   0  0  0  0  0  0  0  0  0  0  0  0
    3.4117   -1.2422    2.0033 C   0  0  0  0  0  0  0  0  0  0  0  0
    4.7040   -1.3791    1.4763 C   0  0  0  0  0  0  0  0  0  0  0  0
    5.7768   -2.1535    1.8947 N   0  0  0  0  0  0  0  0  0  0  0  0
    6.7358   -1.8972    1.0446 C   0  0  0  0  0  0  0  0  0  0  0  0
    8.0961   -2.5307    1.0098 C   0  0  0  0  0  0  0  0  0  0  0  0
    9.1173   -1.6002    0.5330 N   0  0  0  0  0  0  0  0  0  0  0  0
    9.4489   -0.5893    1.5438 C   0  0  0  0  0  0  0  0  0  0  0  0
   10.0370    0.6898    0.9833 C   0  0  1  0  0  0  0  0  0  0  0  0
    9.1357    1.7570    0.4168 C   0  0  0  0  0  0  0  0  0  0  0  0
    9.8430    1.9862    1.7296 C   0  0  0  0  0  0  0  0  0  0  0  0
   10.3005   -2.2619   -0.0132 C   0  0  0  0  0  0  0  0  0  0  0  0
   10.0611   -2.9802   -1.3265 C   0  0  1  0  0  0  0  0  0  0  0  0
   11.1095   -3.9239   -1.8595 C   0  0  0  0  0  0  0  0  0  0  0  0
    9.7827   -4.4646   -1.3958 C   0  0  0  0  0  0  0  0  0  0  0  0
    6.3660   -0.9869    0.0726 N   0  0  0  0  0  0  0  0  0  0  0  0
    7.0054   -0.6258   -0.6249 H   0  0  0  0  0  0  0  0  0  0  0  0
    5.0585   -0.6254    0.3263 C   0  0  0  0  0  0  0  0  0  0  0  0
    4.1755    0.2537   -0.3086 C   0  0  0  0  0  0  0  0  0  0  0  0
    0.9943    1.0768   -0.1330 H   0  0  0  0  0  0  0  0  0  0  0  0
    2.1273    1.5285   -1.2897 H   0  0  0  0  0  0  0  0  0  0  0  0
    1.5136   -0.2515    1.7860 H   0  0  0  0  0  0  0  0  0  0  0  0
    3.1152   -1.8129    2.8861 H   0  0  0  0  0  0  0  0  0  0  0  0
    8.0627   -3.3863    0.3173 H   0  0  0  0  0  0  0  0  0  0  0  0
    8.3080   -2.9465    2.0170 H   0  0  0  0  0  0  0  0  0  0  0  0
   10.1379   -1.0105    2.3111 H   0  0  0  0  0  0  0  0  0  0  0  0
    8.5209   -0.3361    2.0810 H   0  0  0  0  0  0  0  0  0  0  0  0
   11.0095    0.5792    0.4911 H   0  0  0  0  0  0  0  0  0  0  0  0
    8.0564    1.5787    0.4480 H   0  0  0  0  0  0  0  0  0  0  0  0
    9.4726    2.3144   -0.4620 H   0  0  0  0  0  0  0  0  0  0  0  0
    9.2422    1.9664    2.6443 H   0  0  0  0  0  0  0  0  0  0  0  0
   10.6732    2.6975    1.7592 H   0  0  0  0  0  0  0  0  0  0  0  0
   10.7495   -2.9730    0.7199 H   0  0  0  0  0  0  0  0  0  0  0  0
   11.0618   -1.4852   -0.1855 H   0  0  0  0  0  0  0  0  0  0  0  0
    9.5510   -2.3575   -2.0703 H   0  0  0  0  0  0  0  0  0  0  0  0
   11.9861   -4.1187   -1.2331 H   0  0  0  0  0  0  0  0  0  0  0  0
   11.3240   -3.9086   -2.9316 H   0  0  0  0  0  0  0  0  0  0  0  0
    9.7660   -5.0277   -0.4571 H   0  0  0  0  0  0  0  0  0  0  0  0
    9.0732   -4.8270   -2.1452 H   0  0  0  0  0  0  0  0  0  0  0  0
    4.4699    0.8271   -1.1916 H   0  0  0  0  0  0  0  0  0  0  0  0
  1  2  1  0
  1 22  1  0
  1 23  1  0
  2  3  2  0
  2 21  1  0
  3  4  1  0
  3 24  1  0
  4  5  2  0
  4 25  1  0
  5  6  1  0
  5 20  1  0
  6  7  2  0
  7  8  1  0
  7 18  1  0
  8  9  1  0
  8 26  1  0
  8 27  1  0
  9 10  1  0
  9 14  1  0
 10 11  1  0
 10 28  1  0
 10 29  1  0
 11 12  1  0
 11 13  1  0
 11 30  1  6
 12 13  1  0
 12 31  1  0
 12 32  1  0
 13 33  1  0
 13 34  1  0
 14 15  1  0
 14 35  1  0
 14 36  1  0
 15 16  1  0
 15 17  1  0
 15 37  1  6
 16 17  1  0
 16 38  1  0
 16 39  1  0
 17 40  1  0
 17 41  1  0
 18 19  1  0
 18 20  1  0
 20 21  2  0
 21 42  1  0
M  END

