
     RDKit          3D

 34 35  0  0  0  0  0  0  0  0999 V2000
    1.1483   -0.3016   -0.1624 C   0  0  0  0  0  0  0  0  0  0  0  0
    2.6143    0.0082   -0.2866 C   0  0  0  0  0  0  0  0  0  0  0  0
    3.1284    1.2887   -0.0661 C   0  0  0  0  0  0  0  0  0  0  0  0
    4.5157    1.4836   -0.2134 C   0  0  0  0  0  0  0  0  0  0  0  0
    5.1788    2.8014   -0.0158 C   0  0  0  0  0  0  0  0  0  0  0  0
    4.4541    3.9676    0.2926 C   0  0  0  0  0  0  0  0  0  0  0  0
    5.1081    5.1874    0.4717 C   0  0  0  0  0  0  0  0  0  0  0  0
    6.4986    5.2650    0.3464 C   0  0  0  0  0  0  0  0  0  0  0  0
    7.2302    4.1130    0.0394 C   0  0  0  0  0  0  0  0  0  0  0  0
    6.5778    2.8938   -0.1405 C   0  0  0  0  0  0  0  0  0  0  0  0
    5.3008    0.4487   -0.5447 N   0  0  0  0  0  0  0  0  0  0  0  0
    4.7204   -0.7351   -0.7264 C   0  0  0  0  0  0  0  0  0  0  0  0
    5.8691   -2.0309   -1.1358 S   0  0  0  0  0  0  0  0  0  0  0  0
    4.7727   -3.4879   -1.2448 C   0  0  0  0  0  0  0  0  0  0  0  0
    3.9840   -3.6066   -2.5703 C   0  0  1  0  0  0  0  0  0  0  0  0
    3.3700   -2.6956   -2.6635 H   0  0  0  0  0  0  0  0  0  0  0  0
    4.8772   -3.7573   -3.8131 C   0  0  0  0  0  0  0  0  0  0  0  0
    3.0407   -4.7319   -2.4639 C   0  0  0  0  0  0  0  0  0  0  0  0
    2.3125   -5.6293   -2.3740 N   0  0  0  0  0  0  0  0  0  0  0  0
    3.4226   -1.0107   -0.6249 N   0  0  0  0  0  0  0  0  0  0  0  0
    0.5612    0.5824    0.1221 H   0  0  0  0  0  0  0  0  0  0  0  0
    0.9933   -1.0921    0.5890 H   0  0  0  0  0  0  0  0  0  0  0  0
    0.7634   -0.6941   -1.1173 H   0  0  0  0  0  0  0  0  0  0  0  0
    2.4592    2.1021    0.2099 H   0  0  0  0  0  0  0  0  0  0  0  0
    3.3681    3.9359    0.3932 H   0  0  0  0  0  0  0  0  0  0  0  0
    4.5280    6.0824    0.7098 H   0  0  0  0  0  0  0  0  0  0  0  0
    7.0097    6.2208    0.4873 H   0  0  0  0  0  0  0  0  0  0  0  0
    8.3174    4.1654   -0.0603 H   0  0  0  0  0  0  0  0  0  0  0  0
    7.1350    1.9877   -0.3804 H   0  0  0  0  0  0  0  0  0  0  0  0
    4.0796   -3.4520   -0.3945 H   0  0  0  0  0  0  0  0  0  0  0  0
    5.4406   -4.3539   -1.1161 H   0  0  0  0  0  0  0  0  0  0  0  0
    5.5615   -2.8995   -3.8824 H   0  0  0  0  0  0  0  0  0  0  0  0
    4.2711   -3.7974   -4.7301 H   0  0  0  0  0  0  0  0  0  0  0  0
    5.4768   -4.6797   -3.7586 H   0  0  0  0  0  0  0  0  0  0  0  0
  1  2  1  0
  1 21  1  0
  1 22  1  0
  1 23  1  0
  2  3  2  0
  2 20  1  0
  3  4  1  0
  3 24  1  0
  4  5  1  0
  4 11  2  0
  5  6  2  0
  5 10  1  0
  6  7  1  0
  6 25  1  0
  7  8  2  0
  7 26  1  0
  8  9  1  0
  8 27  1  0
  9 10  2  0
  9 28  1  0
 10 29  1  0
 11 12  1  0
 12 13  1  0
 12 20  2  0
 13 14  1  0
 14 15  1  0
 14 30  1  0
 14 31  1  0
 15 16  1  6
 15 17  1  0
 15 18  1  0
 17 32  1  0
 17 33  1  0
 17 34  1  0
 18 19  3  0
M  END

