
     RDKit          3D

 33 36  0  0  0  0  0  0  0  0999 V2000
    2.0584   -0.8119    0.2600 C   0  0  0  0  0  0  0  0  0  0  0  0
    2.1271    0.5669   -0.0336 C   0  0  0  0  0  0  0  0  0  0  0  0
    0.9745    1.3352   -0.2007 C   0  0  0  0  0  0  0  0  0  0  0  0
   -0.2501    0.6737   -0.0621 C   0  0  0  0  0  0  0  0  0  0  0  0
   -1.5662    1.0896   -0.1584 N   0  0  0  0  0  0  0  0  0  0  0  0
   -1.8906    2.0257   -0.3652 H   0  0  0  0  0  0  0  0  0  0  0  0
   -2.3621   -0.0119    0.0757 C   0  0  0  0  0  0  0  0  0  0  0  0
   -3.8585    0.0680    0.0884 C   0  0  0  0  0  0  0  0  0  0  0  0
   -4.4968   -1.2845   -0.2493 C   0  0  0  0  0  0  0  0  0  0  0  0
   -5.9427   -1.2531   -0.1322 N   0  0  0  0  0  0  0  0  0  0  0  0
   -6.6830   -0.5794   -1.0487 N   0  0  0  0  0  0  0  0  0  0  0  0
   -7.9294   -0.6458   -0.7376 N   0  0  0  0  0  0  0  0  0  0  0  0
   -8.0516   -1.3781    0.4220 C   0  0  0  0  0  0  0  0  0  0  0  0
   -9.1873   -1.7412    1.1691 C   0  0  0  0  0  0  0  0  0  0  0  0
   -8.9836   -2.4992    2.3135 C   0  0  0  0  0  0  0  0  0  0  0  0
   -7.6816   -2.8956    2.7155 C   0  0  0  0  0  0  0  0  0  0  0  0
   -6.5485   -2.5482    1.9901 C   0  0  0  0  0  0  0  0  0  0  0  0
   -6.7593   -1.7788    0.8322 C   0  0  0  0  0  0  0  0  0  0  0  0
   -1.6663   -1.0968    0.3098 N   0  0  0  0  0  0  0  0  0  0  0  0
   -0.3380   -0.7123    0.2327 C   0  0  0  0  0  0  0  0  0  0  0  0
    0.8350   -1.4651    0.3954 C   0  0  0  0  0  0  0  0  0  0  0  0
    2.9869   -1.3750    0.3827 H   0  0  0  0  0  0  0  0  0  0  0  0
    3.1053    1.0439   -0.1327 H   0  0  0  0  0  0  0  0  0  0  0  0
    1.0331    2.4021   -0.4286 H   0  0  0  0  0  0  0  0  0  0  0  0
   -4.2128    0.8292   -0.6252 H   0  0  0  0  0  0  0  0  0  0  0  0
   -4.2027    0.3906    1.0881 H   0  0  0  0  0  0  0  0  0  0  0  0
   -4.1074   -2.0606    0.4222 H   0  0  0  0  0  0  0  0  0  0  0  0
   -4.2373   -1.5832   -1.2754 H   0  0  0  0  0  0  0  0  0  0  0  0
  -10.1832   -1.4311    0.8473 H   0  0  0  0  0  0  0  0  0  0  0  0
   -9.8385   -2.8023    2.9225 H   0  0  0  0  0  0  0  0  0  0  0  0
   -7.5690   -3.4934    3.6235 H   0  0  0  0  0  0  0  0  0  0  0  0
   -5.5516   -2.8599    2.3078 H   0  0  0  0  0  0  0  0  0  0  0  0
    0.7750   -2.5316    0.6220 H   0  0  0  0  0  0  0  0  0  0  0  0
  1  2  2  0
  1 21  1  0
  1 22  1  0
  2  3  1  0
  2 23  1  0
  3  4  2  0
  3 24  1  0
  4  5  1  0
  4 20  1  0
  5  6  1  0
  5  7  1  0
  7  8  1  0
  7 19  2  0
  8  9  1  0
  8 25  1  0
  8 26  1  0
  9 10  1  0
  9 27  1  0
  9 28  1  0
 10 11  1  0
 10 18  1  0
 11 12  2  0
 12 13  1  0
 13 14  1  0
 13 18  2  0
 14 15  2  0
 14 29  1  0
 15 16  1  0
 15 30  1  0
 16 17  2  0
 16 31  1  0
 17 18  1  0
 17 32  1  0
 19 20  1  0
 20 21  2  0
 21 33  1  0
M  END

