
     RDKit          3D

 67 68  0  0  0  0  0  0  0  0999 V2000
   10.4643   -5.6314    5.4394 C   0  0  0  0  0  0  0  0  0  0  0  0
    9.0426   -5.9761    5.0567 C   0  0  0  0  0  0  0  0  0  0  0  0
    8.1485   -6.3978    6.0531 C   0  0  0  0  0  0  0  0  0  0  0  0
    6.8300   -6.7289    5.7469 C   0  0  0  0  0  0  0  0  0  0  0  0
    6.3672   -6.6468    4.4353 C   0  0  0  0  0  0  0  0  0  0  0  0
    7.2496   -6.2250    3.4308 C   0  0  0  0  0  0  0  0  0  0  0  0
    6.8362   -6.1180    2.0734 N   0  0  0  0  0  0  0  0  0  0  0  0
    5.6346   -6.3848    1.5149 C   0  0  0  0  0  0  0  0  0  0  0  0
    4.6388   -6.8177    2.0820 O   0  0  0  0  0  0  0  0  0  0  0  0
    5.5332   -6.0559    0.0132 C   0  0  0  0  0  0  0  0  0  0  0  0
    4.3520   -6.7951   -0.5088 N   0  0  2  0  0  0  0  0  0  0  0  0
    3.7978   -6.9534    0.3565 H   0  0  0  0  0  0  0  0  0  0  0  0
    4.7356   -8.1750   -1.0613 C   0  0  0  0  0  0  0  0  0  0  0  0
    5.3612   -8.0283   -2.4320 C   0  0  0  0  0  0  0  0  0  0  0  0
    4.4416   -7.3287   -3.3011 N   0  0  0  0  0  0  0  0  0  0  0  0
    4.7853   -7.4407   -4.3051 H   0  0  0  0  0  0  0  0  0  0  0  0
    5.8516   -8.1852   -5.7508 C   0  0  0  0  0  0  0  0  0  0  0  0
    5.3697   -9.4882   -5.4698 C   0  0  0  0  0  0  0  0  0  0  0  0
    5.6363  -10.1823   -4.4485 O   0  0  0  0  0  0  0  0  0  0  0  0
    4.4091  -10.0236   -6.3568 N   0  0  0  0  0  0  0  0  0  0  0  0
    3.8587  -11.3448   -6.1524 C   0  0  0  0  0  0  0  0  0  0  0  0
    2.7910  -11.3836   -5.0446 C   0  0  0  0  0  0  0  0  0  0  0  0
    1.5903  -10.4636   -5.3264 C   0  0  0  0  0  0  0  0  0  0  0  0
    0.7204  -10.2146   -4.1169 C   0  0  0  0  0  0  0  0  0  0  0  0
    1.1161   -9.2778   -3.1429 C   0  0  0  0  0  0  0  0  0  0  0  0
    0.3378   -9.0586   -2.0034 C   0  0  0  0  0  0  0  0  0  0  0  0
   -0.8528   -9.7681   -1.8069 C   0  0  0  0  0  0  0  0  0  0  0  0
   -1.2563  -10.7000   -2.7662 C   0  0  0  0  0  0  0  0  0  0  0  0
   -0.4758  -10.9182   -3.9069 C   0  0  0  0  0  0  0  0  0  0  0  0
    4.1885   -5.9841   -2.8725 C   0  0  0  0  0  0  0  0  0  0  0  0
    3.5123   -6.0184   -1.5043 C   0  0  0  0  0  0  0  0  0  0  0  0
    8.5935   -5.8858    3.7209 C   0  0  0  0  0  0  0  0  0  0  0  0
    9.5133   -5.4407    2.6046 C   0  0  0  0  0  0  0  0  0  0  0  0
   10.6177   -5.7629    6.5197 H   0  0  0  0  0  0  0  0  0  0  0  0
   10.7167   -4.5861    5.1956 H   0  0  0  0  0  0  0  0  0  0  0  0
   11.1982   -6.2715    4.9223 H   0  0  0  0  0  0  0  0  0  0  0  0
    8.4989   -6.4677    7.0858 H   0  0  0  0  0  0  0  0  0  0  0  0
    6.1500   -7.0575    6.5364 H   0  0  0  0  0  0  0  0  0  0  0  0
    5.3425   -6.9067    4.1825 H   0  0  0  0  0  0  0  0  0  0  0  0
    7.5546   -5.7958    1.4351 H   0  0  0  0  0  0  0  0  0  0  0  0
    6.4307   -6.3282   -0.5572 H   0  0  0  0  0  0  0  0  0  0  0  0
    5.3652   -4.9744   -0.1080 H   0  0  0  0  0  0  0  0  0  0  0  0
    3.7985   -8.7455   -1.1199 H   0  0  0  0  0  0  0  0  0  0  0  0
    5.3959   -8.6363   -0.3118 H   0  0  0  0  0  0  0  0  0  0  0  0
    5.5755   -9.0194   -2.8886 H   0  0  0  0  0  0  0  0  0  0  0  0
    6.3516   -7.5151   -2.3371 H   0  0  0  0  0  0  0  0  0  0  0  0
    6.8189   -7.9291   -5.3031 H   0  0  0  0  0  0  0  0  0  0  0  0
    5.6683   -7.7563   -6.7443 H   0  0  0  0  0  0  0  0  0  0  0  0
    4.3966   -9.6486   -7.2956 H   0  0  0  0  0  0  0  0  0  0  0  0
    4.6543  -12.0612   -5.8782 H   0  0  0  0  0  0  0  0  0  0  0  0
    3.4197  -11.6832   -7.1080 H   0  0  0  0  0  0  0  0  0  0  0  0
    3.2916  -11.0695   -4.1166 H   0  0  0  0  0  0  0  0  0  0  0  0
    2.4481  -12.4233   -4.8927 H   0  0  0  0  0  0  0  0  0  0  0  0
    0.9787  -10.8843   -6.1441 H   0  0  0  0  0  0  0  0  0  0  0  0
    1.9961   -9.5045   -5.6882 H   0  0  0  0  0  0  0  0  0  0  0  0
    2.0469   -8.7195   -3.2941 H   0  0  0  0  0  0  0  0  0  0  0  0
    0.6549   -8.3220   -1.2570 H   0  0  0  0  0  0  0  0  0  0  0  0
   -1.4616   -9.5931   -0.9158 H   0  0  0  0  0  0  0  0  0  0  0  0
   -2.1855  -11.2600   -2.6283 H   0  0  0  0  0  0  0  0  0  0  0  0
   -0.8030  -11.6486   -4.6531 H   0  0  0  0  0  0  0  0  0  0  0  0
    3.5021   -5.4777   -3.5712 H   0  0  0  0  0  0  0  0  0  0  0  0
    5.1014   -5.3373   -2.8091 H   0  0  0  0  0  0  0  0  0  0  0  0
    2.5560   -6.5550   -1.5749 H   0  0  0  0  0  0  0  0  0  0  0  0
    3.3409   -5.0215   -1.0687 H   0  0  0  0  0  0  0  0  0  0  0  0
    9.1452   -4.5265    2.1040 H   0  0  0  0  0  0  0  0  0  0  0  0
    9.6313   -6.2206    1.8304 H   0  0  0  0  0  0  0  0  0  0  0  0
   10.5208   -5.2097    2.9670 H   0  0  0  0  0  0  0  0  0  0  0  0
  1  2  1  0
  1 34  1  0
  1 35  1  0
  1 36  1  0
  2  3  2  0
  2 32  1  0
  3  4  1  0
  3 37  1  0
  4  5  2  0
  4 38  1  0
  5  6  1  0
  5 39  1  0
  6  7  1  0
  6 32  2  0
  7  8  1  0
  7 40  1  0
  8  9  2  0
  8 10  1  0
 10 11  1  0
 10 41  1  0
 10 42  1  0
 11 12  1  1
 11 13  1  0
 11 31  1  0
 13 14  1  0
 13 43  1  0
 13 44  1  0
 14 15  1  0
 14 45  1  0
 14 46  1  0
 15 16  1  0
 15 30  1  0
 17 18  2  0
 17 47  1  0
 17 48  1  0
 18 19  1  0
 18 20  1  0
 20 21  1  0
 20 49  1  0
 21 22  1  0
 21 50  1  0
 21 51  1  0
 22 23  1  0
 22 52  1  0
 22 53  1  0
 23 24  1  0
 23 54  1  0
 23 55  1  0
 24 25  2  0
 24 29  1  0
 25 26  1  0
 25 56  1  0
 26 27  2  0
 26 57  1  0
 27 28  1  0
 27 58  1  0
 28 29  2  0
 28 59  1  0
 29 60  1  0
 30 31  1  0
 30 61  1  0
 30 62  1  0
 31 63  1  0
 31 64  1  0
 32 33  1  0
 33 65  1  0
 33 66  1  0
 33 67  1  0
M  CHG  2  11   1  19  -1
M  END

