
     RDKit          3D

 34 35  0  0  0  0  0  0  0  0999 V2000
   -0.1000    0.1103   -3.0680 C   0  0  0  0  0  0  0  0  0  0  0  0
    1.0705   -0.4963   -2.5694 O   0  0  0  0  0  0  0  0  0  0  0  0
    2.1536    0.2767   -2.2729 C   0  0  0  0  0  0  0  0  0  0  0  0
    2.2100    1.6583   -2.4994 C   0  0  0  0  0  0  0  0  0  0  0  0
    3.3699    2.3715   -2.1737 C   0  0  0  0  0  0  0  0  0  0  0  0
    4.4705    1.7149   -1.6267 C   0  0  0  0  0  0  0  0  0  0  0  0
    4.4026    0.3344   -1.4032 C   0  0  0  0  0  0  0  0  0  0  0  0
    3.2594   -0.4079   -1.7146 C   0  0  0  0  0  0  0  0  0  0  0  0
    3.1782   -1.8943   -1.4605 C   0  0  0  0  0  0  0  0  0  0  0  0
    2.2810   -2.3198   -0.2604 C   0  0  1  0  0  0  0  0  0  0  0  0
    2.1296   -3.7699   -0.1306 N   0  0  0  0  0  0  0  0  0  0  0  0
    2.7701   -1.7360    1.0597 C   0  0  0  0  0  0  0  0  0  0  0  0
    4.0158   -2.1322    1.5726 C   0  0  0  0  0  0  0  0  0  0  0  0
    4.4971   -1.6358    2.7835 C   0  0  0  0  0  0  0  0  0  0  0  0
    6.0558   -2.1664    3.3760 Cl  0  0  0  0  0  0  0  0  0  0  0  0
    3.7496   -0.7175    3.5243 C   0  0  0  0  0  0  0  0  0  0  0  0
    2.5126   -0.3074    3.0317 C   0  0  0  0  0  0  0  0  0  0  0  0
    2.0312   -0.8107    1.8177 C   0  0  0  0  0  0  0  0  0  0  0  0
    0.4603   -0.2379    1.2806 Cl  0  0  0  0  0  0  0  0  0  0  0  0
   -0.8348   -0.6941   -3.2082 H   0  0  0  0  0  0  0  0  0  0  0  0
    0.0748    0.6065   -4.0397 H   0  0  0  0  0  0  0  0  0  0  0  0
   -0.5101    0.8502   -2.3578 H   0  0  0  0  0  0  0  0  0  0  0  0
    1.3589    2.1872   -2.9282 H   0  0  0  0  0  0  0  0  0  0  0  0
    3.4031    3.4492   -2.3539 H   0  0  0  0  0  0  0  0  0  0  0  0
    5.3776    2.2680   -1.3732 H   0  0  0  0  0  0  0  0  0  0  0  0
    5.2634   -0.1856   -0.9736 H   0  0  0  0  0  0  0  0  0  0  0  0
    4.1945   -2.2959   -1.3098 H   0  0  0  0  0  0  0  0  0  0  0  0
    2.7625   -2.3944   -2.3510 H   0  0  0  0  0  0  0  0  0  0  0  0
    1.2801   -1.9139   -0.4504 H   0  0  0  0  0  0  0  0  0  0  0  0
    3.0398   -4.2259   -0.0492 H   0  0  0  0  0  0  0  0  0  0  0  0
    1.6998   -4.1464   -0.9761 H   0  0  0  0  0  0  0  0  0  0  0  0
    4.6312   -2.8454    1.0209 H   0  0  0  0  0  0  0  0  0  0  0  0
    4.1310   -0.3302    4.4701 H   0  0  0  0  0  0  0  0  0  0  0  0
    1.9081    0.4092    3.5899 H   0  0  0  0  0  0  0  0  0  0  0  0
  1  2  1  0
  1 20  1  0
  1 21  1  0
  1 22  1  0
  2  3  1  0
  3  4  2  0
  3  8  1  0
  4  5  1  0
  4 23  1  0
  5  6  2  0
  5 24  1  0
  6  7  1  0
  6 25  1  0
  7  8  2  0
  7 26  1  0
  8  9  1  0
  9 10  1  0
  9 27  1  0
  9 28  1  0
 10 11  1  0
 10 12  1  0
 10 29  1  6
 11 30  1  0
 11 31  1  0
 12 13  2  0
 12 18  1  0
 13 14  1  0
 13 32  1  0
 14 15  1  0
 14 16  2  0
 16 17  1  0
 16 33  1  0
 17 18  2  0
 17 34  1  0
 18 19  1  0
M  END

