
     RDKit          3D

 64 65  0  0  0  0  0  0  0  0999 V2000
    0.9390   -2.9479    0.5197 C   0  0  0  0  0  0  0  0  0  0  0  0
    2.4594   -2.9594    0.4399 C   0  0  1  0  0  0  0  0  0  0  0  0
    2.9651   -4.2723    0.1949 O   0  0  0  0  0  0  0  0  0  0  0  0
    3.0477   -2.0014   -0.6413 C   0  0  1  0  0  0  0  0  0  0  0  0
    2.3939   -0.7146   -0.7489 N   0  0  0  0  0  0  0  0  0  0  0  0
    1.4375   -0.4416   -1.6746 C   0  0  0  0  0  0  0  0  0  0  0  0
    0.9015   -1.2908   -2.3771 O   0  0  0  0  0  0  0  0  0  0  0  0
    1.0474    1.0435   -1.8080 C   0  0  1  0  0  0  0  0  0  0  0  0
    1.2202    1.5254   -3.1750 N   0  0  0  0  0  0  0  0  0  0  0  0
   -0.4194    1.2512   -1.3946 C   0  0  0  0  0  0  0  0  0  0  0  0
   -0.7898    0.7458    0.0080 C   0  0  0  0  0  0  0  0  0  0  0  0
    0.0721    1.2689    1.1497 C   0  0  0  0  0  0  0  0  0  0  0  0
    0.5332    0.5773    2.0185 O   0  0  0  0  0  0  0  0  0  0  0  0
    0.3006    2.6037    1.1543 O   0  0  0  0  0  0  0  0  0  0  0  0
    4.5529   -1.7178   -0.4120 C   0  0  0  0  0  0  0  0  0  0  0  0
    4.9889   -0.5696   -0.4822 O   0  0  0  0  0  0  0  0  0  0  0  0
    5.3186   -2.7862   -0.1214 N   0  0  0  0  0  0  0  0  0  0  0  0
    6.7432   -2.6819    0.1090 C   0  0  1  0  0  0  0  0  0  0  0  0
    7.1208   -1.9215    1.4169 C   0  0  0  0  0  0  0  0  0  0  0  0
    6.5571   -2.4731    2.6949 C   0  0  0  0  0  0  0  0  0  0  0  0
    7.0989   -3.4698    3.4805 C   0  0  0  0  0  0  0  0  0  0  0  0
    6.2872   -3.6993    4.5709 N   0  0  0  0  0  0  0  0  0  0  0  0
    6.4712   -4.3779    5.2969 H   0  0  0  0  0  0  0  0  0  0  0  0
    5.2010   -2.8523    4.5252 C   0  0  0  0  0  0  0  0  0  0  0  0
    4.1150   -2.7089    5.4008 C   0  0  0  0  0  0  0  0  0  0  0  0
    3.1562   -1.7474    5.0912 C   0  0  0  0  0  0  0  0  0  0  0  0
    3.2758   -0.9356    3.9406 C   0  0  0  0  0  0  0  0  0  0  0  0
    4.3594   -1.0777    3.0779 C   0  0  0  0  0  0  0  0  0  0  0  0
    5.3390   -2.0543    3.3524 C   0  0  0  0  0  0  0  0  0  0  0  0
    7.3160   -4.1054    0.0270 C   0  0  0  0  0  0  0  0  0  0  0  0
    6.6126   -5.0815   -0.1678 O   0  0  0  0  0  0  0  0  0  0  0  0
    8.6796   -4.1977    0.1356 N   0  0  0  0  0  0  0  0  0  0  0  0
    9.3367   -5.4734    0.1565 C   0  0  0  0  0  0  0  0  0  0  0  0
    9.9649   -5.8048    1.5113 C   0  0  0  0  0  0  0  0  0  0  0  0
    9.9228   -5.0829    2.4696 O   0  0  0  0  0  0  0  0  0  0  0  0
   10.6072   -6.9873    1.5633 O   0  0  0  0  0  0  0  0  0  0  0  0
    0.6143   -3.7451    1.2056 H   0  0  0  0  0  0  0  0  0  0  0  0
    0.4801   -3.1072   -0.4694 H   0  0  0  0  0  0  0  0  0  0  0  0
    0.5854   -1.9882    0.9228 H   0  0  0  0  0  0  0  0  0  0  0  0
    2.8662   -2.6786    1.4229 H   0  0  0  0  0  0  0  0  0  0  0  0
    2.5164   -4.6276   -0.5865 H   0  0  0  0  0  0  0  0  0  0  0  0
    2.9259   -2.5172   -1.6118 H   0  0  0  0  0  0  0  0  0  0  0  0
    2.9476    0.0592   -0.3871 H   0  0  0  0  0  0  0  0  0  0  0  0
    1.6903    1.6525   -1.1491 H   0  0  0  0  0  0  0  0  0  0  0  0
    0.7798    0.8520   -3.8070 H   0  0  0  0  0  0  0  0  0  0  0  0
    2.2106    1.5316   -3.4219 H   0  0  0  0  0  0  0  0  0  0  0  0
   -1.0554    0.7234   -2.1240 H   0  0  0  0  0  0  0  0  0  0  0  0
   -0.6474    2.3248   -1.5221 H   0  0  0  0  0  0  0  0  0  0  0  0
   -0.7458   -0.3501    0.0514 H   0  0  0  0  0  0  0  0  0  0  0  0
   -1.8355    1.0268    0.2280 H   0  0  0  0  0  0  0  0  0  0  0  0
   -0.1309    3.0238    0.3956 H   0  0  0  0  0  0  0  0  0  0  0  0
    4.8839   -3.7099   -0.0435 H   0  0  0  0  0  0  0  0  0  0  0  0
    7.1905   -2.1050   -0.7224 H   0  0  0  0  0  0  0  0  0  0  0  0
    6.7775   -0.8875    1.2707 H   0  0  0  0  0  0  0  0  0  0  0  0
    8.2214   -1.8637    1.4779 H   0  0  0  0  0  0  0  0  0  0  0  0
    8.0245   -4.0281    3.3451 H   0  0  0  0  0  0  0  0  0  0  0  0
    4.0219   -3.3312    6.2949 H   0  0  0  0  0  0  0  0  0  0  0  0
    2.2948   -1.6167    5.7511 H   0  0  0  0  0  0  0  0  0  0  0  0
    2.5009   -0.1987    3.7150 H   0  0  0  0  0  0  0  0  0  0  0  0
    4.4470   -0.4408    2.1945 H   0  0  0  0  0  0  0  0  0  0  0  0
    9.2050   -3.3896    0.4471 H   0  0  0  0  0  0  0  0  0  0  0  0
   10.1253   -5.5385   -0.6177 H   0  0  0  0  0  0  0  0  0  0  0  0
    8.5735   -6.2322   -0.0854 H   0  0  0  0  0  0  0  0  0  0  0  0
   10.5359   -7.4625    0.7219 H   0  0  0  0  0  0  0  0  0  0  0  0
  1  2  1  0
  1 37  1  0
  1 38  1  0
  1 39  1  0
  2  3  1  0
  2  4  1  0
  2 40  1  1
  3 41  1  0
  4  5  1  0
  4 15  1  0
  4 42  1  6
  5  6  1  0
  5 43  1  0
  6  7  2  0
  6  8  1  0
  8  9  1  0
  8 10  1  0
  8 44  1  1
  9 45  1  0
  9 46  1  0
 10 11  1  0
 10 47  1  0
 10 48  1  0
 11 12  1  0
 11 49  1  0
 11 50  1  0
 12 13  2  0
 12 14  1  0
 14 51  1  0
 15 16  2  0
 15 17  1  0
 17 18  1  0
 17 52  1  0
 18 19  1  0
 18 30  1  0
 18 53  1  6
 19 20  1  0
 19 54  1  0
 19 55  1  0
 20 21  2  0
 20 29  1  0
 21 22  1  0
 21 56  1  0
 22 23  1  0
 22 24  1  0
 24 25  1  0
 24 29  2  0
 25 26  2  0
 25 57  1  0
 26 27  1  0
 26 58  1  0
 27 28  2  0
 27 59  1  0
 28 29  1  0
 28 60  1  0
 30 31  2  0
 30 32  1  0
 32 33  1  0
 32 61  1  0
 33 34  1  0
 33 62  1  0
 33 63  1  0
 34 35  2  0
 34 36  1  0
 36 64  1  0
M  END

