
     RDKit          3D

 62 64  0  0  0  0  0  0  0  0999 V2000
    0.6887   -2.3030    3.6291 C   0  0  0  0  0  0  0  0  0  0  0  0
    2.0816   -2.2698    3.7699 O   0  0  0  0  0  0  0  0  0  0  0  0
    2.5562   -1.1842    4.5294 C   0  0  0  0  0  0  0  0  0  0  0  0
    4.0754   -1.2383    4.5873 C   0  0  0  0  0  0  0  0  0  0  0  0
    4.7291   -1.1384    3.2033 C   0  0  0  0  0  0  0  0  0  0  0  0
    6.1764   -1.1407    3.2627 N   0  0  0  0  0  0  0  0  0  0  0  0
    6.9361   -2.1397    2.7526 C   0  0  0  0  0  0  0  0  0  0  0  0
    6.4924   -3.1290    2.1772 O   0  0  0  0  0  0  0  0  0  0  0  0
    8.4268   -1.9631    2.9298 C   0  0  0  0  0  0  0  0  0  0  0  0
    9.1996   -2.9637    2.4023 C   0  0  0  0  0  0  0  0  0  0  0  0
   10.5539   -2.9746    2.4677 N   0  0  0  0  0  0  0  0  0  0  0  0
   11.0626   -3.7467    2.0523 H   0  0  0  0  0  0  0  0  0  0  0  0
   11.2673   -1.9618    3.0785 C   0  0  0  0  0  0  0  0  0  0  0  0
   12.6770   -1.9916    3.1274 C   0  0  0  0  0  0  0  0  0  0  0  0
   13.3684   -0.9626    3.7445 C   0  0  0  0  0  0  0  0  0  0  0  0
   12.6544    0.1073    4.3210 C   0  0  0  0  0  0  0  0  0  0  0  0
   13.5625    1.4243    5.1426 S   0  0  1  0  0  0  0  0  0  0  0  0
   14.9031    1.4444    4.5594 O   0  0  0  0  0  0  0  0  0  0  0  0
   12.7075    2.6095    5.1614 O   0  0  0  0  0  0  0  0  0  0  0  0
   13.7178    0.9340    6.7670 N   0  0  0  0  0  0  0  0  0  0  0  0
   12.5389    1.1315    7.6112 C   0  0  0  0  0  0  0  0  0  0  0  0
   14.6363   -0.1128    7.0907 C   0  0  0  0  0  0  0  0  0  0  0  0
   16.0157    0.0759    6.9110 C   0  0  0  0  0  0  0  0  0  0  0  0
   16.9114   -0.9377    7.2529 C   0  0  0  0  0  0  0  0  0  0  0  0
   16.4789   -2.1540    7.8043 C   0  0  0  0  0  0  0  0  0  0  0  0
   17.4772   -3.2387    8.1879 C   0  0  1  0  0  0  0  0  0  0  0  0
   17.4611   -3.5294    9.6987 C   0  0  0  0  0  0  0  0  0  0  0  0
   17.2724   -4.5257    7.3698 C   0  0  0  0  0  0  0  0  0  0  0  0
   15.0979   -2.3232    7.9935 C   0  0  0  0  0  0  0  0  0  0  0  0
   14.1874   -1.3271    7.6372 C   0  0  0  0  0  0  0  0  0  0  0  0
   11.2681    0.1553    4.2681 C   0  0  0  0  0  0  0  0  0  0  0  0
   10.5513   -0.8850    3.6506 C   0  0  0  0  0  0  0  0  0  0  0  0
    9.0655   -0.8317    3.6053 C   0  0  0  0  0  0  0  0  0  0  0  0
    8.4556    0.1140    4.1160 O   0  0  0  0  0  0  0  0  0  0  0  0
    0.4305   -3.1844    3.0239 H   0  0  0  0  0  0  0  0  0  0  0  0
    0.2990   -1.3984    3.1176 H   0  0  0  0  0  0  0  0  0  0  0  0
    0.1724   -2.3848    4.6082 H   0  0  0  0  0  0  0  0  0  0  0  0
    2.1347   -1.2135    5.5568 H   0  0  0  0  0  0  0  0  0  0  0  0
    2.2231   -0.2232    4.0779 H   0  0  0  0  0  0  0  0  0  0  0  0
    4.3863   -2.1806    5.0687 H   0  0  0  0  0  0  0  0  0  0  0  0
    4.4279   -0.4145    5.2328 H   0  0  0  0  0  0  0  0  0  0  0  0
    4.3831   -0.2163    2.6995 H   0  0  0  0  0  0  0  0  0  0  0  0
    4.4196   -1.9900    2.5842 H   0  0  0  0  0  0  0  0  0  0  0  0
    6.6843   -0.3804    3.7220 H   0  0  0  0  0  0  0  0  0  0  0  0
    8.7077   -3.8011    1.9014 H   0  0  0  0  0  0  0  0  0  0  0  0
   13.2198   -2.8234    2.6704 H   0  0  0  0  0  0  0  0  0  0  0  0
   14.4589   -0.9603    3.7737 H   0  0  0  0  0  0  0  0  0  0  0  0
   12.1299    2.1310    7.4226 H   0  0  0  0  0  0  0  0  0  0  0  0
   12.8571    1.0702    8.6614 H   0  0  0  0  0  0  0  0  0  0  0  0
   11.7414    0.3839    7.4407 H   0  0  0  0  0  0  0  0  0  0  0  0
   16.3727    1.0181    6.4973 H   0  0  0  0  0  0  0  0  0  0  0  0
   17.9818   -0.7693    7.1018 H   0  0  0  0  0  0  0  0  0  0  0  0
   18.4793   -2.8481    7.9392 H   0  0  0  0  0  0  0  0  0  0  0  0
   16.4900   -3.9416   10.0192 H   0  0  0  0  0  0  0  0  0  0  0  0
   17.6454   -2.6153   10.2844 H   0  0  0  0  0  0  0  0  0  0  0  0
   18.2373   -4.2662    9.9629 H   0  0  0  0  0  0  0  0  0  0  0  0
   16.2913   -4.9836    7.5786 H   0  0  0  0  0  0  0  0  0  0  0  0
   18.0453   -5.2722    7.6159 H   0  0  0  0  0  0  0  0  0  0  0  0
   17.3249   -4.3253    6.2881 H   0  0  0  0  0  0  0  0  0  0  0  0
   14.7149   -3.2528    8.4234 H   0  0  0  0  0  0  0  0  0  0  0  0
   13.1203   -1.4978    7.7903 H   0  0  0  0  0  0  0  0  0  0  0  0
   10.7064    0.9947    4.6813 H   0  0  0  0  0  0  0  0  0  0  0  0
  1  2  1  0
  1 35  1  0
  1 36  1  0
  1 37  1  0
  2  3  1  0
  3  4  1  0
  3 38  1  0
  3 39  1  0
  4  5  1  0
  4 40  1  0
  4 41  1  0
  5  6  1  0
  5 42  1  0
  5 43  1  0
  6  7  1  0
  6 44  1  0
  7  8  2  0
  7  9  1  0
  9 10  2  0
  9 33  1  0
 10 11  1  0
 10 45  1  0
 11 12  1  0
 11 13  1  0
 13 14  1  0
 13 32  2  0
 14 15  2  0
 14 46  1  0
 15 16  1  0
 15 47  1  0
 16 17  1  0
 16 31  2  0
 17 18  2  0
 17 19  2  0
 17 20  1  1
 20 21  1  0
 20 22  1  0
 21 48  1  0
 21 49  1  0
 21 50  1  0
 22 23  2  0
 22 30  1  0
 23 24  1  0
 23 51  1  0
 24 25  2  0
 24 52  1  0
 25 26  1  0
 25 29  1  0
 26 27  1  0
 26 28  1  0
 26 53  1  6
 27 54  1  0
 27 55  1  0
 27 56  1  0
 28 57  1  0
 28 58  1  0
 28 59  1  0
 29 30  2  0
 29 60  1  0
 30 61  1  0
 31 32  1  0
 31 62  1  0
 32 33  1  0
 33 34  2  0
M  END

