
     RDKit          3D

 61 64  0  0  0  0  0  0  0  0999 V2000
    1.1907    3.7023    0.0751 O   0  0  0  0  0  0  0  0  0  0  0  0
    1.9249    3.0465    0.7922 C   0  0  0  0  0  0  0  0  0  0  0  0
    1.6707    1.5427    1.0028 C   0  0  0  0  0  0  0  0  0  0  0  0
    1.3065    1.1994    2.3510 O   0  0  0  0  0  0  0  0  0  0  0  0
    2.2840    0.9464    3.2371 C   0  0  0  0  0  0  0  0  0  0  0  0
    3.4553    1.1701    3.0176 O   0  0  0  0  0  0  0  0  0  0  0  0
    1.7481    0.4392    4.5576 C   0  0  0  0  0  0  0  0  0  0  0  0
    0.4742   -0.3979    4.4744 C   0  0  0  0  0  0  0  0  0  0  0  0
    0.6570   -1.6420    3.6107 C   0  0  0  0  0  0  0  0  0  0  0  0
    1.6972   -1.8080    2.9974 O   0  0  0  0  0  0  0  0  0  0  0  0
   -0.4567   -2.6360    3.5233 C   0  0  0  0  0  0  0  0  0  0  0  0
   -1.6903   -2.4722    4.1771 C   0  0  0  0  0  0  0  0  0  0  0  0
   -2.6938   -3.4312    4.0527 C   0  0  0  0  0  0  0  0  0  0  0  0
   -2.5032   -4.5894    3.2746 C   0  0  0  0  0  0  0  0  0  0  0  0
   -3.5737   -5.6120    3.1460 C   0  0  0  0  0  0  0  0  0  0  0  0
   -4.9304   -5.2385    3.0914 C   0  0  0  0  0  0  0  0  0  0  0  0
   -5.9354   -6.1996    2.9690 C   0  0  0  0  0  0  0  0  0  0  0  0
   -5.6075   -7.5571    2.9021 C   0  0  0  0  0  0  0  0  0  0  0  0
   -4.2652   -7.9444    2.9565 C   0  0  0  0  0  0  0  0  0  0  0  0
   -3.2599   -6.9830    3.0749 C   0  0  0  0  0  0  0  0  0  0  0  0
   -1.2627   -4.7464    2.6220 C   0  0  0  0  0  0  0  0  0  0  0  0
   -0.2615   -3.7893    2.7423 C   0  0  0  0  0  0  0  0  0  0  0  0
    3.0303    3.5168    1.4488 N   0  0  0  0  0  0  0  0  0  0  0  0
    3.5306    4.8304    1.5049 C   0  0  0  0  0  0  0  0  0  0  0  0
    2.9647    5.9085    0.8012 C   0  0  0  0  0  0  0  0  0  0  0  0
    3.5206    7.1837    0.9391 C   0  0  0  0  0  0  0  0  0  0  0  0
    4.6288    7.4079    1.7548 C   0  0  0  0  0  0  0  0  0  0  0  0
    5.2121    6.3333    2.4428 C   0  0  0  0  0  0  0  0  0  0  0  0
    6.4061    6.6257    3.3165 C   0  0  0  0  0  0  0  0  0  0  0  0
    6.6377    7.7465    3.7374 O   0  0  0  0  0  0  0  0  0  0  0  0
    7.2152    5.5512    3.6073 N   0  0  0  0  0  0  0  0  0  0  0  0
    8.4226    5.7151    4.3624 C   0  0  1  0  0  0  0  0  0  0  0  0
    8.3498    5.7489    5.8651 C   0  0  0  0  0  0  0  0  0  0  0  0
    8.9145    4.5393    5.1634 C   0  0  0  0  0  0  0  0  0  0  0  0
    4.6532    5.0556    2.3221 C   0  0  0  0  0  0  0  0  0  0  0  0
    2.5504    0.9506    0.7047 H   0  0  0  0  0  0  0  0  0  0  0  0
    0.8066    1.2784    0.3842 H   0  0  0  0  0  0  0  0  0  0  0  0
    1.5638    1.3282    5.1856 H   0  0  0  0  0  0  0  0  0  0  0  0
    2.5700   -0.1184    5.0270 H   0  0  0  0  0  0  0  0  0  0  0  0
   -0.3551    0.1966    4.0564 H   0  0  0  0  0  0  0  0  0  0  0  0
    0.1575   -0.6973    5.4871 H   0  0  0  0  0  0  0  0  0  0  0  0
   -1.8794   -1.5929    4.7956 H   0  0  0  0  0  0  0  0  0  0  0  0
   -3.6343   -3.2914    4.5896 H   0  0  0  0  0  0  0  0  0  0  0  0
   -5.2005   -4.1803    3.1176 H   0  0  0  0  0  0  0  0  0  0  0  0
   -6.9810   -5.8853    2.9179 H   0  0  0  0  0  0  0  0  0  0  0  0
   -6.3943   -8.3096    2.8077 H   0  0  0  0  0  0  0  0  0  0  0  0
   -3.9983   -9.0034    2.9133 H   0  0  0  0  0  0  0  0  0  0  0  0
   -2.2173   -7.3022    3.1395 H   0  0  0  0  0  0  0  0  0  0  0  0
   -1.0941   -5.6212    1.9903 H   0  0  0  0  0  0  0  0  0  0  0  0
    0.6936   -3.9077    2.2271 H   0  0  0  0  0  0  0  0  0  0  0  0
    3.5370    2.8141    1.9906 H   0  0  0  0  0  0  0  0  0  0  0  0
    2.0982    5.7340    0.1676 H   0  0  0  0  0  0  0  0  0  0  0  0
    3.0704    8.0176    0.3943 H   0  0  0  0  0  0  0  0  0  0  0  0
    5.0606    8.4022    1.8785 H   0  0  0  0  0  0  0  0  0  0  0  0
    7.1417    4.7295    3.0185 H   0  0  0  0  0  0  0  0  0  0  0  0
    9.1751    6.3640    3.8968 H   0  0  0  0  0  0  0  0  0  0  0  0
    7.3575    5.6606    6.3141 H   0  0  0  0  0  0  0  0  0  0  0  0
    9.0318    6.4222    6.3907 H   0  0  0  0  0  0  0  0  0  0  0  0
    8.3052    3.6304    5.1505 H   0  0  0  0  0  0  0  0  0  0  0  0
    9.9922    4.3589    5.1999 H   0  0  0  0  0  0  0  0  0  0  0  0
    5.0614    4.2178    2.8944 H   0  0  0  0  0  0  0  0  0  0  0  0
  1  2  2  0
  2  3  1  0
  2 23  1  0
  3  4  1  0
  3 36  1  0
  3 37  1  0
  4  5  1  0
  5  6  2  0
  5  7  1  0
  7  8  1  0
  7 38  1  0
  7 39  1  0
  8  9  1  0
  8 40  1  0
  8 41  1  0
  9 10  2  0
  9 11  1  0
 11 12  2  0
 11 22  1  0
 12 13  1  0
 12 42  1  0
 13 14  2  0
 13 43  1  0
 14 15  1  0
 14 21  1  0
 15 16  2  0
 15 20  1  0
 16 17  1  0
 16 44  1  0
 17 18  2  0
 17 45  1  0
 18 19  1  0
 18 46  1  0
 19 20  2  0
 19 47  1  0
 20 48  1  0
 21 22  2  0
 21 49  1  0
 22 50  1  0
 23 24  1  0
 23 51  1  0
 24 25  2  0
 24 35  1  0
 25 26  1  0
 25 52  1  0
 26 27  2  0
 26 53  1  0
 27 28  1  0
 27 54  1  0
 28 29  1  0
 28 35  2  0
 29 30  2  0
 29 31  1  0
 31 32  1  0
 31 55  1  0
 32 33  1  0
 32 34  1  0
 32 56  1  6
 33 34  1  0
 33 57  1  0
 33 58  1  0
 34 59  1  0
 34 60  1  0
 35 61  1  0
M  END

