
     RDKit          3D

 40 39  0  0  0  0  0  0  0  0999 V2000
    3.6881   -1.9924    5.0136 C   0  0  0  0  0  0  0  0  0  0  0  0
    3.5518   -0.9278    3.9239 C   0  0  0  0  0  0  0  0  0  0  0  0
    4.5118   -1.1370    2.7466 C   0  0  0  0  0  0  0  0  0  0  0  0
    4.4081   -0.0897    1.6298 C   0  0  0  0  0  0  0  0  0  0  0  0
    4.9680    1.3158    1.9254 C   0  0  0  0  0  0  0  0  0  0  0  0
    6.4345    1.4452    2.0095 N   0  0  0  0  0  0  0  0  0  0  0  0
    7.2635    1.3486    0.9252 C   0  0  0  0  0  0  0  0  0  0  0  0
    8.4894    1.4601    1.0234 O   0  0  0  0  0  0  0  0  0  0  0  0
    6.6653    1.1478   -0.4769 C   0  0  1  0  0  0  0  0  0  0  0  0
    7.0132    2.3808   -1.3419 C   0  0  0  0  0  0  0  0  0  0  0  0
    7.1865   -0.1318   -1.1473 C   0  0  0  0  0  0  0  0  0  0  0  0
    8.5078   -0.3237   -1.0480 N   0  0  0  0  0  0  0  0  0  0  0  0
    6.1604   -1.1388   -1.9834 S   0  0  0  0  0  0  0  0  0  0  0  0
    7.0472    1.9245    3.2755 C   0  0  1  0  0  0  0  0  0  0  0  0
    6.5705    3.3400    3.6262 C   0  0  0  0  0  0  0  0  0  0  0  0
    6.8763    0.9472    4.4394 C   0  0  0  0  0  0  0  0  0  0  0  0
    2.9717   -1.8277    5.8342 H   0  0  0  0  0  0  0  0  0  0  0  0
    4.7008   -1.9924    5.4504 H   0  0  0  0  0  0  0  0  0  0  0  0
    3.5056   -3.0023    4.6098 H   0  0  0  0  0  0  0  0  0  0  0  0
    3.7062    0.0705    4.3719 H   0  0  0  0  0  0  0  0  0  0  0  0
    2.5149   -0.9217    3.5412 H   0  0  0  0  0  0  0  0  0  0  0  0
    4.3056   -2.1268    2.3030 H   0  0  0  0  0  0  0  0  0  0  0  0
    5.5510   -1.1932    3.1132 H   0  0  0  0  0  0  0  0  0  0  0  0
    3.3423    0.0471    1.3709 H   0  0  0  0  0  0  0  0  0  0  0  0
    4.8761   -0.4924    0.7186 H   0  0  0  0  0  0  0  0  0  0  0  0
    4.5653    1.6741    2.8826 H   0  0  0  0  0  0  0  0  0  0  0  0
    4.5804    2.0187    1.1691 H   0  0  0  0  0  0  0  0  0  0  0  0
    5.5790    1.0495   -0.4565 H   0  0  0  0  0  0  0  0  0  0  0  0
    8.1003    2.5350   -1.3863 H   0  0  0  0  0  0  0  0  0  0  0  0
    6.5540    3.2893   -0.9208 H   0  0  0  0  0  0  0  0  0  0  0  0
    6.6268    2.2365   -2.3614 H   0  0  0  0  0  0  0  0  0  0  0  0
    9.0411    0.2712   -0.4079 H   0  0  0  0  0  0  0  0  0  0  0  0
    8.9098   -1.1593   -1.4580 H   0  0  0  0  0  0  0  0  0  0  0  0
    8.1175    1.9788    3.0422 H   0  0  0  0  0  0  0  0  0  0  0  0
    5.5022    3.3716    3.8969 H   0  0  0  0  0  0  0  0  0  0  0  0
    6.7331    4.0313    2.7848 H   0  0  0  0  0  0  0  0  0  0  0  0
    7.1368    3.7218    4.4902 H   0  0  0  0  0  0  0  0  0  0  0  0
    5.8239    0.8267    4.7406 H   0  0  0  0  0  0  0  0  0  0  0  0
    7.4262    1.3220    5.3172 H   0  0  0  0  0  0  0  0  0  0  0  0
    7.2812   -0.0441    4.1873 H   0  0  0  0  0  0  0  0  0  0  0  0
  1  2  1  0
  1 17  1  0
  1 18  1  0
  1 19  1  0
  2  3  1  0
  2 20  1  0
  2 21  1  0
  3  4  1  0
  3 22  1  0
  3 23  1  0
  4  5  1  0
  4 24  1  0
  4 25  1  0
  5  6  1  0
  5 26  1  0
  5 27  1  0
  6  7  1  0
  6 14  1  0
  7  8  2  0
  7  9  1  0
  9 10  1  0
  9 11  1  0
  9 28  1  1
 10 29  1  0
 10 30  1  0
 10 31  1  0
 11 12  1  0
 11 13  2  0
 12 32  1  0
 12 33  1  0
 14 15  1  0
 14 16  1  0
 14 34  1  6
 15 35  1  0
 15 36  1  0
 15 37  1  0
 16 38  1  0
 16 39  1  0
 16 40  1  0
M  END

