
     RDKit          3D

 52 55  0  0  0  0  0  0  0  0999 V2000
    2.8208    1.0042   -0.7938 C   0  0  0  0  0  0  0  0  0  0  0  0
    2.4189    1.9434   -1.9334 C   0  0  1  0  0  0  0  0  0  0  0  0
    2.9141    1.4076   -3.3001 C   0  0  0  0  0  0  0  0  0  0  0  0
    4.3507    1.4122   -3.4655 N   0  0  0  0  0  0  0  0  0  0  0  0
    5.0919    0.2526   -3.3724 C   0  0  0  0  0  0  0  0  0  0  0  0
    4.5738   -0.8384   -3.1708 O   0  0  0  0  0  0  0  0  0  0  0  0
    6.4645    0.3880   -3.5512 N   0  0  0  0  0  0  0  0  0  0  0  0
    7.3228   -0.7323   -3.1785 C   0  0  0  0  0  0  0  0  0  0  0  0
    8.4371   -0.9428   -4.1990 C   0  0  0  0  0  0  0  0  0  0  0  0
    9.1653    0.3081   -4.4035 N   0  0  0  0  0  0  0  0  0  0  0  0
   10.5355    0.2514   -4.5902 C   0  0  0  0  0  0  0  0  0  0  0  0
   11.1289   -0.8147   -4.6555 O   0  0  0  0  0  0  0  0  0  0  0  0
   11.2990    1.5483   -4.6638 C   0  0  0  0  0  0  0  0  0  0  0  0
   12.3605    1.6245   -5.5759 C   0  0  0  0  0  0  0  0  0  0  0  0
   13.1816    2.7624   -5.6646 C   0  0  0  0  0  0  0  0  0  0  0  0
   12.9108    3.8009   -4.7899 C   0  0  0  0  0  0  0  0  0  0  0  0
   11.8709    3.7241   -3.8587 C   0  0  0  0  0  0  0  0  0  0  0  0
   11.0477    2.6180   -3.7695 C   0  0  0  0  0  0  0  0  0  0  0  0
   11.8554    4.8635   -3.1028 O   0  0  0  0  0  0  0  0  0  0  0  0
   12.8634    5.7179   -3.6364 C   0  0  0  0  0  0  0  0  0  0  0  0
   13.5626    4.9902   -4.6444 O   0  0  0  0  0  0  0  0  0  0  0  0
    8.2966    1.3921   -4.8425 C   0  0  0  0  0  0  0  0  0  0  0  0
    7.1598    1.6300   -3.8411 C   0  0  0  0  0  0  0  0  0  0  0  0
    0.8989    2.2016   -1.9805 C   0  0  0  0  0  0  0  0  0  0  0  0
    0.6435    3.5620   -2.6365 C   0  0  0  0  0  0  0  0  0  0  0  0
    1.5946    4.5621   -1.9725 C   0  0  0  0  0  0  0  0  0  0  0  0
    3.1621    3.6493   -1.6278 S   0  0  0  0  0  0  0  0  0  0  0  0
    2.3762    0.0077   -0.9490 H   0  0  0  0  0  0  0  0  0  0  0  0
    2.4854    1.4009    0.1759 H   0  0  0  0  0  0  0  0  0  0  0  0
    3.9109    0.8670   -0.7487 H   0  0  0  0  0  0  0  0  0  0  0  0
    2.4576    2.0022   -4.1087 H   0  0  0  0  0  0  0  0  0  0  0  0
    2.5825    0.3653   -3.4168 H   0  0  0  0  0  0  0  0  0  0  0  0
    4.7951    2.3167   -3.3619 H   0  0  0  0  0  0  0  0  0  0  0  0
    6.6885   -1.6236   -3.1029 H   0  0  0  0  0  0  0  0  0  0  0  0
    7.7777   -0.5448   -2.1849 H   0  0  0  0  0  0  0  0  0  0  0  0
    8.0065   -1.2899   -5.1582 H   0  0  0  0  0  0  0  0  0  0  0  0
    9.1495   -1.7036   -3.8582 H   0  0  0  0  0  0  0  0  0  0  0  0
   12.5513    0.7654   -6.2211 H   0  0  0  0  0  0  0  0  0  0  0  0
   14.0039    2.8244   -6.3789 H   0  0  0  0  0  0  0  0  0  0  0  0
   10.2620    2.5654   -3.0151 H   0  0  0  0  0  0  0  0  0  0  0  0
   13.5648    6.0127   -2.8369 H   0  0  0  0  0  0  0  0  0  0  0  0
   12.3950    6.6156   -4.0834 H   0  0  0  0  0  0  0  0  0  0  0  0
    7.8468    1.1237   -5.8193 H   0  0  0  0  0  0  0  0  0  0  0  0
    8.8715    2.3140   -4.9850 H   0  0  0  0  0  0  0  0  0  0  0  0
    6.4673    2.3525   -4.2936 H   0  0  0  0  0  0  0  0  0  0  0  0
    7.5726    2.0838   -2.9161 H   0  0  0  0  0  0  0  0  0  0  0  0
    0.5044    2.2100   -0.9507 H   0  0  0  0  0  0  0  0  0  0  0  0
    0.3881    1.3818   -2.5142 H   0  0  0  0  0  0  0  0  0  0  0  0
   -0.4065    3.8793   -2.5248 H   0  0  0  0  0  0  0  0  0  0  0  0
    0.8489    3.5114   -3.7180 H   0  0  0  0  0  0  0  0  0  0  0  0
    1.1877    4.9296   -1.0174 H   0  0  0  0  0  0  0  0  0  0  0  0
    1.8116    5.4330   -2.6084 H   0  0  0  0  0  0  0  0  0  0  0  0
  2  1  1  1
  1 28  1  0
  1 29  1  0
  1 30  1  0
  2  3  1  0
  2 24  1  0
  2 27  1  0
  3  4  1  0
  3 31  1  0
  3 32  1  0
  4  5  1  0
  4 33  1  0
  5  6  2  0
  5  7  1  0
  7  8  1  0
  7 23  1  0
  8  9  1  0
  8 34  1  0
  8 35  1  0
  9 10  1  0
  9 36  1  0
  9 37  1  0
 10 11  1  0
 10 22  1  0
 11 12  2  0
 11 13  1  0
 13 14  2  0
 13 18  1  0
 14 15  1  0
 14 38  1  0
 15 16  2  0
 15 39  1  0
 16 17  1  0
 16 21  1  0
 17 18  2  0
 17 19  1  0
 18 40  1  0
 19 20  1  0
 20 21  1  0
 20 41  1  0
 20 42  1  0
 22 23  1  0
 22 43  1  0
 22 44  1  0
 23 45  1  0
 23 46  1  0
 24 25  1  0
 24 47  1  0
 24 48  1  0
 25 26  1  0
 25 49  1  0
 25 50  1  0
 26 27  1  0
 26 51  1  0
 26 52  1  0
M  END

