
     RDKit          3D

 32 32  0  0  0  0  0  0  0  0999 V2000
    1.1957   -0.3794    0.0763 C   0  0  0  0  0  0  0  0  0  0  0  0
    2.5559   -0.4020   -0.6156 C   0  0  0  0  0  0  0  0  0  0  0  0
    3.0527    0.9013   -1.0555 N   0  0  0  0  0  0  0  0  0  0  0  0
    2.0961    1.8712   -1.5765 C   0  0  0  0  0  0  0  0  0  0  0  0
    1.6816    1.6530   -3.0371 C   0  0  0  0  0  0  0  0  0  0  0  0
    4.3933    0.9828   -1.4520 C   0  0  0  0  0  0  0  0  0  0  0  0
    4.9667    2.1937   -1.9152 C   0  0  0  0  0  0  0  0  0  0  0  0
    6.3137    2.2984   -2.2621 C   0  0  0  0  0  0  0  0  0  0  0  0
    7.1675    1.1902   -2.1730 C   0  0  0  0  0  0  0  0  0  0  0  0
    8.4892    1.2126   -2.4914 O   0  0  0  0  0  0  0  0  0  0  0  0
    9.0778    2.4163   -2.9255 C   0  0  0  0  0  0  0  0  0  0  0  0
    6.6208   -0.0356   -1.7330 C   0  0  0  0  0  0  0  0  0  0  0  0
    7.4540   -1.2583   -1.6302 C   0  0  0  0  0  0  0  0  0  0  0  0
    7.0325   -2.3365   -1.2646 O   0  0  0  0  0  0  0  0  0  0  0  0
    5.2632   -0.1240   -1.3933 C   0  0  0  0  0  0  0  0  0  0  0  0
    0.9904   -1.3801    0.4872 H   0  0  0  0  0  0  0  0  0  0  0  0
    0.3672   -0.1338   -0.6056 H   0  0  0  0  0  0  0  0  0  0  0  0
    1.1811    0.3368    0.9136 H   0  0  0  0  0  0  0  0  0  0  0  0
    2.5260   -1.1294   -1.4558 H   0  0  0  0  0  0  0  0  0  0  0  0
    3.2864   -0.8071    0.1014 H   0  0  0  0  0  0  0  0  0  0  0  0
    2.5057    2.8852   -1.4496 H   0  0  0  0  0  0  0  0  0  0  0  0
    1.2049    1.8509   -0.9350 H   0  0  0  0  0  0  0  0  0  0  0  0
    2.5495    1.7008   -3.7134 H   0  0  0  0  0  0  0  0  0  0  0  0
    0.9598    2.4234   -3.3547 H   0  0  0  0  0  0  0  0  0  0  0  0
    1.2046    0.6687   -3.1740 H   0  0  0  0  0  0  0  0  0  0  0  0
    4.3571    3.0925   -2.0028 H   0  0  0  0  0  0  0  0  0  0  0  0
    6.6869    3.2636   -2.6051 H   0  0  0  0  0  0  0  0  0  0  0  0
   10.1378    2.1971   -3.1121 H   0  0  0  0  0  0  0  0  0  0  0  0
    9.0057    3.2098   -2.1594 H   0  0  0  0  0  0  0  0  0  0  0  0
    8.6191    2.7854   -3.8611 H   0  0  0  0  0  0  0  0  0  0  0  0
    8.5233   -1.1292   -1.9173 H   0  0  0  0  0  0  0  0  0  0  0  0
    4.9278   -1.1117   -1.0814 H   0  0  0  0  0  0  0  0  0  0  0  0
  1  2  1  0
  1 16  1  0
  1 17  1  0
  1 18  1  0
  2  3  1  0
  2 19  1  0
  2 20  1  0
  3  4  1  0
  3  6  1  0
  4  5  1  0
  4 21  1  0
  4 22  1  0
  5 23  1  0
  5 24  1  0
  5 25  1  0
  6  7  2  0
  6 15  1  0
  7  8  1  0
  7 26  1  0
  8  9  2  0
  8 27  1  0
  9 10  1  0
  9 12  1  0
 10 11  1  0
 11 28  1  0
 11 29  1  0
 11 30  1  0
 12 13  1  0
 12 15  2  0
 13 14  2  0
 13 31  1  0
 15 32  1  0
M  END

