
     RDKit          3D

 40 41  0  0  0  0  0  0  0  0999 V2000
    1.9599   -0.8784   -1.1968 C   0  0  0  0  0  0  0  0  0  0  0  0
    1.7706    0.5821   -1.5148 C   0  0  0  0  0  0  0  0  0  0  0  0
    2.7150    1.5218   -1.0727 C   0  0  0  0  0  0  0  0  0  0  0  0
    2.5738    2.8925   -1.3486 C   0  0  0  0  0  0  0  0  0  0  0  0
    3.4976    3.8574   -0.9191 N   0  0  0  0  0  0  0  0  0  0  0  0
    4.6654    3.6971   -0.2229 C   0  0  0  0  0  0  0  0  0  0  0  0
    5.1167    2.6398    0.1796 O   0  0  0  0  0  0  0  0  0  0  0  0
    5.4369    5.0119   -0.0222 C   0  0  0  0  0  0  0  0  0  0  0  0
    4.6069    6.2077   -0.0457 N   0  0  0  0  0  0  0  0  0  0  0  0
    3.8666    6.4021    1.1938 C   0  0  0  0  0  0  0  0  0  0  0  0
    5.2737    7.4300   -0.5449 C   0  0  1  0  0  0  0  0  0  0  0  0
    6.5197    7.8546    0.2498 C   0  0  0  0  0  0  0  0  0  0  0  0
    5.5560    7.3132   -2.0267 C   0  0  0  0  0  0  0  0  0  0  0  0
    6.7107    7.5618   -2.7309 C   0  0  0  0  0  0  0  0  0  0  0  0
    6.5672    7.3799   -4.1425 C   0  0  0  0  0  0  0  0  0  0  0  0
    5.3019    6.9937   -4.4982 C   0  0  0  0  0  0  0  0  0  0  0  0
    4.2705    6.8488   -3.1157 S   0  0  0  0  0  0  0  0  0  0  0  0
    1.4607    3.3296   -2.0876 C   0  0  0  0  0  0  0  0  0  0  0  0
    0.5131    2.4129   -2.5345 C   0  0  0  0  0  0  0  0  0  0  0  0
    0.6685    1.0545   -2.2492 C   0  0  0  0  0  0  0  0  0  0  0  0
   -0.6662   -0.1617   -2.8884 Br  0  0  0  0  0  0  0  0  0  0  0  0
    2.8817   -1.0371   -0.6202 H   0  0  0  0  0  0  0  0  0  0  0  0
    2.0148   -1.4829   -2.1168 H   0  0  0  0  0  0  0  0  0  0  0  0
    1.1113   -1.2729   -0.6142 H   0  0  0  0  0  0  0  0  0  0  0  0
    3.5816    1.1916   -0.5031 H   0  0  0  0  0  0  0  0  0  0  0  0
    3.3082    4.8288   -1.1613 H   0  0  0  0  0  0  0  0  0  0  0  0
    6.1664    5.0648   -0.8479 H   0  0  0  0  0  0  0  0  0  0  0  0
    6.0181    4.8852    0.9117 H   0  0  0  0  0  0  0  0  0  0  0  0
    3.2598    5.5091    1.4089 H   0  0  0  0  0  0  0  0  0  0  0  0
    3.1804    7.2574    1.0933 H   0  0  0  0  0  0  0  0  0  0  0  0
    4.5150    6.5814    2.0772 H   0  0  0  0  0  0  0  0  0  0  0  0
    4.5207    8.2287   -0.4199 H   0  0  0  0  0  0  0  0  0  0  0  0
    7.3438    7.1338    0.1364 H   0  0  0  0  0  0  0  0  0  0  0  0
    6.2851    7.9384    1.3215 H   0  0  0  0  0  0  0  0  0  0  0  0
    6.8800    8.8378   -0.0880 H   0  0  0  0  0  0  0  0  0  0  0  0
    7.6437    7.8722   -2.2599 H   0  0  0  0  0  0  0  0  0  0  0  0
    7.3761    7.5265   -4.8600 H   0  0  0  0  0  0  0  0  0  0  0  0
    4.9169    6.7763   -5.4936 H   0  0  0  0  0  0  0  0  0  0  0  0
    1.3387    4.3916   -2.3169 H   0  0  0  0  0  0  0  0  0  0  0  0
   -0.3504    2.7533   -3.1082 H   0  0  0  0  0  0  0  0  0  0  0  0
  1  2  1  0
  1 22  1  0
  1 23  1  0
  1 24  1  0
  2  3  2  0
  2 20  1  0
  3  4  1  0
  3 25  1  0
  4  5  1  0
  4 18  2  0
  5  6  1  0
  5 26  1  0
  6  7  2  0
  6  8  1  0
  8  9  1  0
  8 27  1  0
  8 28  1  0
  9 10  1  0
  9 11  1  0
 10 29  1  0
 10 30  1  0
 10 31  1  0
 11 12  1  0
 11 13  1  0
 11 32  1  6
 12 33  1  0
 12 34  1  0
 12 35  1  0
 13 14  2  0
 13 17  1  0
 14 15  1  0
 14 36  1  0
 15 16  2  0
 15 37  1  0
 16 17  1  0
 16 38  1  0
 18 19  1  0
 18 39  1  0
 19 20  2  0
 19 40  1  0
 20 21  1  0
M  END

