
     RDKit          3D

 35 37  0  0  0  0  0  0  0  0999 V2000
    1.5941   -1.2651    0.5215 C   0  0  0  0  0  0  0  0  0  0  0  0
    3.0142   -1.3643    0.4339 O   0  0  0  0  0  0  0  0  0  0  0  0
    3.7204   -0.4646    1.1467 C   0  0  0  0  0  0  0  0  0  0  0  0
    3.1637    0.3864    1.8258 O   0  0  0  0  0  0  0  0  0  0  0  0
    5.1749   -0.6068    1.0140 C   0  0  0  0  0  0  0  0  0  0  0  0
    6.0219    0.3050    1.6533 C   0  0  0  0  0  0  0  0  0  0  0  0
    5.6100    1.3527    2.4455 N   0  0  0  0  0  0  0  0  0  0  0  0
    6.4501    2.2445    3.0636 C   0  0  0  0  0  0  0  0  0  0  0  0
    7.6677    2.1964    2.9675 O   0  0  0  0  0  0  0  0  0  0  0  0
    5.7499    3.2842    3.8681 C   0  0  0  0  0  0  0  0  0  0  0  0
    6.4138    4.2685    4.5624 C   0  0  0  0  0  0  0  0  0  0  0  0
    5.2763    5.2778    5.3674 S   0  0  0  0  0  0  0  0  0  0  0  0
    3.9856    4.2988    4.7082 C   0  0  0  0  0  0  0  0  0  0  0  0
    4.3800    3.3158    3.9611 N   0  0  0  0  0  0  0  0  0  0  0  0
    7.6982   -0.0249    1.3305 S   0  0  0  0  0  0  0  0  0  0  0  0
    7.2691   -1.4009    0.3352 C   0  0  0  0  0  0  0  0  0  0  0  0
    5.9150   -1.6008    0.2600 C   0  0  0  0  0  0  0  0  0  0  0  0
    5.3385   -2.7438   -0.5458 C   0  0  0  0  0  0  0  0  0  0  0  0
    6.4110   -3.7682   -0.9467 C   0  0  0  0  0  0  0  0  0  0  0  0
    7.6943   -3.0958   -1.4444 C   0  0  0  0  0  0  0  0  0  0  0  0
    8.3239   -2.2371   -0.3376 C   0  0  0  0  0  0  0  0  0  0  0  0
    1.1941   -2.0635   -0.1161 H   0  0  0  0  0  0  0  0  0  0  0  0
    1.2464   -0.2830    0.1673 H   0  0  0  0  0  0  0  0  0  0  0  0
    1.2534   -1.3983    1.5594 H   0  0  0  0  0  0  0  0  0  0  0  0
    4.5913    1.4362    2.5596 H   0  0  0  0  0  0  0  0  0  0  0  0
    7.4897    4.4194    4.6195 H   0  0  0  0  0  0  0  0  0  0  0  0
    2.9409    4.5279    4.9306 H   0  0  0  0  0  0  0  0  0  0  0  0
    4.8431   -2.3372   -1.4463 H   0  0  0  0  0  0  0  0  0  0  0  0
    4.5359   -3.2361    0.0222 H   0  0  0  0  0  0  0  0  0  0  0  0
    6.0051   -4.4433   -1.7177 H   0  0  0  0  0  0  0  0  0  0  0  0
    6.6552   -4.4021   -0.0749 H   0  0  0  0  0  0  0  0  0  0  0  0
    7.4596   -2.4569   -2.3146 H   0  0  0  0  0  0  0  0  0  0  0  0
    8.4200   -3.8495   -1.7909 H   0  0  0  0  0  0  0  0  0  0  0  0
    9.1204   -1.5958   -0.7525 H   0  0  0  0  0  0  0  0  0  0  0  0
    8.8195   -2.8914    0.4049 H   0  0  0  0  0  0  0  0  0  0  0  0
  1  2  1  0
  1 22  1  0
  1 23  1  0
  1 24  1  0
  2  3  1  0
  3  4  2  0
  3  5  1  0
  5  6  2  0
  5 17  1  0
  6  7  1  0
  6 15  1  0
  7  8  1  0
  7 25  1  0
  8  9  2  0
  8 10  1  0
 10 11  2  0
 10 14  1  0
 11 12  1  0
 11 26  1  0
 12 13  1  0
 13 14  2  0
 13 27  1  0
 15 16  1  0
 16 17  2  0
 16 21  1  0
 17 18  1  0
 18 19  1  0
 18 28  1  0
 18 29  1  0
 19 20  1  0
 19 30  1  0
 19 31  1  0
 20 21  1  0
 20 32  1  0
 20 33  1  0
 21 34  1  0
 21 35  1  0
M  END

