
     RDKit          3D

 54 57  0  0  0  0  0  0  0  0999 V2000
    1.9133    0.4498    1.0625 C   0  0  0  0  0  0  0  0  0  0  0  0
    1.4228   -0.9081    0.5306 C   0  0  1  0  0  0  0  0  0  0  0  0
    0.8786   -0.7819   -0.9030 C   0  0  0  0  0  0  0  0  0  0  0  0
    2.4949   -1.9849    0.6419 C   0  0  0  0  0  0  0  0  0  0  0  0
    2.3026   -3.1093    1.4592 C   0  0  0  0  0  0  0  0  0  0  0  0
    3.2789   -4.1018    1.5708 C   0  0  0  0  0  0  0  0  0  0  0  0
    4.4872   -3.9977    0.8701 C   0  0  0  0  0  0  0  0  0  0  0  0
    5.5562   -5.0887    0.9604 C   0  0  2  0  0  0  0  0  0  0  0  0
    6.5049   -4.6653    0.5990 H   0  0  0  0  0  0  0  0  0  0  0  0
    5.2135   -6.3175    0.1200 C   0  0  0  0  0  0  0  0  0  0  0  0
    4.8104   -7.5062    0.6721 C   0  0  0  0  0  0  0  0  0  0  0  0
    4.3629   -8.6844   -0.1532 C   0  0  0  0  0  0  0  0  0  0  0  0
    5.0069   -8.7349   -1.5574 C   0  0  2  0  0  0  0  0  0  0  0  0
    4.2761   -9.7816   -2.4132 C   0  0  0  0  0  0  0  0  0  0  0  0
    6.4950   -9.1214   -1.4509 C   0  0  0  0  0  0  0  0  0  0  0  0
    4.8622   -7.3379   -2.1955 C   0  0  0  0  0  0  0  0  0  0  0  0
    5.3633   -6.1857   -1.3318 C   0  0  0  0  0  0  0  0  0  0  0  0
    5.8501   -5.1842   -1.8399 O   0  0  0  0  0  0  0  0  0  0  0  0
    4.7959   -7.6721    2.0340 N   0  0  0  0  0  0  0  0  0  0  0  0
    5.3461   -6.7133    2.8440 C   0  0  0  0  0  0  0  0  0  0  0  0
    5.6417   -6.7265    4.2100 C   0  0  0  0  0  0  0  0  0  0  0  0
    5.3507   -7.8962    5.0509 C   0  0  0  0  0  0  0  0  0  0  0  0
    5.6689   -7.8159    6.3724 N   0  0  0  0  0  0  0  0  0  0  0  0
    4.8386   -8.9106    4.5691 O   0  0  0  0  0  0  0  0  0  0  0  0
    6.2535   -5.4527    4.4111 C   0  0  0  0  0  0  0  0  0  0  0  0
    6.3161   -4.7446    3.2951 N   0  0  0  0  0  0  0  0  0  0  0  0
    5.7605   -5.5327    2.3418 N   0  0  0  0  0  0  0  0  0  0  0  0
    4.6879   -2.8794    0.0509 C   0  0  0  0  0  0  0  0  0  0  0  0
    3.7075   -1.8921   -0.0606 C   0  0  0  0  0  0  0  0  0  0  0  0
    1.1030    1.1969    1.0344 H   0  0  0  0  0  0  0  0  0  0  0  0
    2.7470    0.8412    0.4564 H   0  0  0  0  0  0  0  0  0  0  0  0
    2.2671    0.3683    2.1021 H   0  0  0  0  0  0  0  0  0  0  0  0
    0.5838   -1.2283    1.1731 H   0  0  0  0  0  0  0  0  0  0  0  0
    1.6626   -0.4489   -1.6029 H   0  0  0  0  0  0  0  0  0  0  0  0
    0.0596   -0.0451   -0.9470 H   0  0  0  0  0  0  0  0  0  0  0  0
    0.4914   -1.7451   -1.2706 H   0  0  0  0  0  0  0  0  0  0  0  0
    1.3698   -3.2093    2.0225 H   0  0  0  0  0  0  0  0  0  0  0  0
    3.0939   -4.9599    2.2229 H   0  0  0  0  0  0  0  0  0  0  0  0
    3.2631   -8.6287   -0.2581 H   0  0  0  0  0  0  0  0  0  0  0  0
    4.5719   -9.6184    0.3959 H   0  0  0  0  0  0  0  0  0  0  0  0
    4.3517  -10.7857   -1.9638 H   0  0  0  0  0  0  0  0  0  0  0  0
    4.7116   -9.8334   -3.4237 H   0  0  0  0  0  0  0  0  0  0  0  0
    3.2063   -9.5389   -2.5206 H   0  0  0  0  0  0  0  0  0  0  0  0
    6.6098  -10.1214   -1.0017 H   0  0  0  0  0  0  0  0  0  0  0  0
    7.0659   -8.4078   -0.8372 H   0  0  0  0  0  0  0  0  0  0  0  0
    6.9591   -9.1475   -2.4496 H   0  0  0  0  0  0  0  0  0  0  0  0
    3.7930   -7.1363   -2.3974 H   0  0  0  0  0  0  0  0  0  0  0  0
    5.3818   -7.2777   -3.1640 H   0  0  0  0  0  0  0  0  0  0  0  0
    4.5742   -8.5492    2.5074 H   0  0  0  0  0  0  0  0  0  0  0  0
    6.0740   -6.9880    6.7858 H   0  0  0  0  0  0  0  0  0  0  0  0
    5.4704   -8.6159    6.9602 H   0  0  0  0  0  0  0  0  0  0  0  0
    6.6549   -5.0293    5.3330 H   0  0  0  0  0  0  0  0  0  0  0  0
    5.6156   -2.7939   -0.5184 H   0  0  0  0  0  0  0  0  0  0  0  0
    3.8977   -1.0326   -0.7093 H   0  0  0  0  0  0  0  0  0  0  0  0
  1  2  1  0
  1 30  1  0
  1 31  1  0
  1 32  1  0
  2  3  1  0
  2  4  1  0
  2 33  1  1
  3 34  1  0
  3 35  1  0
  3 36  1  0
  4  5  2  0
  4 29  1  0
  5  6  1  0
  5 37  1  0
  6  7  2  0
  6 38  1  0
  7  8  1  0
  7 28  1  0
  8  9  1  6
  8 10  1  0
  8 27  1  0
 10 11  2  0
 10 17  1  0
 11 12  1  0
 11 19  1  0
 12 13  1  0
 12 39  1  0
 12 40  1  0
 13 14  1  6
 13 15  1  0
 13 16  1  0
 14 41  1  0
 14 42  1  0
 14 43  1  0
 15 44  1  0
 15 45  1  0
 15 46  1  0
 16 17  1  0
 16 47  1  0
 16 48  1  0
 17 18  2  0
 19 20  1  0
 19 49  1  0
 20 21  2  0
 20 27  1  0
 21 22  1  0
 21 25  1  0
 22 23  1  0
 22 24  2  0
 23 50  1  0
 23 51  1  0
 25 26  2  0
 25 52  1  0
 26 27  1  0
 28 29  2  0
 28 53  1  0
 29 54  1  0
M  END

