
     RDKit          3D

 57 58  0  0  0  0  0  0  0  0999 V2000
   13.7352   -1.9364    5.0143 C   0  0  0  0  0  0  0  0  0  0  0  0
   13.1290   -2.8534    4.0695 N   0  0  0  0  0  0  0  0  0  0  0  0
   14.1264   -3.6100    3.3328 C   0  0  0  0  0  0  0  0  0  0  0  0
   12.1074   -3.7093    4.6615 C   0  0  0  0  0  0  0  0  0  0  0  0
   10.8328   -2.9625    5.0784 C   0  0  0  0  0  0  0  0  0  0  0  0
   10.2548   -2.0461    3.9900 C   0  0  0  0  0  0  0  0  0  0  0  0
   10.0476   -2.7131    2.7155 N   0  0  0  0  0  0  0  0  0  0  0  0
    8.8250   -3.1012    2.2719 C   0  0  0  0  0  0  0  0  0  0  0  0
    7.7767   -2.9045    2.8689 O   0  0  0  0  0  0  0  0  0  0  0  0
    8.8190   -3.8258    0.9076 C   0  0  0  0  0  0  0  0  0  0  0  0
    9.4220   -5.1715    0.8725 N   0  0  0  0  0  0  0  0  0  0  0  0
    8.7587   -6.2695    1.5264 C   0  0  0  0  0  0  0  0  0  0  0  0
    8.7119   -6.2950    2.9266 C   0  0  0  0  0  0  0  0  0  0  0  0
    8.1232   -7.3496    3.6209 C   0  0  0  0  0  0  0  0  0  0  0  0
    7.5780   -8.4095    2.8956 C   0  0  0  0  0  0  0  0  0  0  0  0
    7.6049   -8.3983    1.5020 C   0  0  0  0  0  0  0  0  0  0  0  0
    8.1842   -7.3364    0.7739 C   0  0  0  0  0  0  0  0  0  0  0  0
    8.2511   -7.3690   -0.6333 N   0  0  0  0  0  0  0  0  0  0  0  0
    8.1846   -8.6379   -1.3570 C   0  0  0  0  0  0  0  0  0  0  0  0
    6.7901   -8.9230   -1.9233 C   0  0  0  0  0  0  0  0  0  0  0  0
    6.3432   -7.8402   -2.7147 O   0  0  0  0  0  0  0  0  0  0  0  0
    6.3140   -6.6309   -1.9822 C   0  0  0  0  0  0  0  0  0  0  0  0
    7.7001   -6.2744   -1.4376 C   0  0  0  0  0  0  0  0  0  0  0  0
   11.1006   -5.2885    0.6512 S   0  0  1  0  0  0  0  0  0  0  0  0
   11.3076   -6.0877   -0.9412 C   0  0  0  0  0  0  0  0  0  0  0  0
   11.6019   -3.9084    0.5049 O   0  0  0  0  0  0  0  0  0  0  0  0
   11.6741   -6.1771    1.6646 O   0  0  0  0  0  0  0  0  0  0  0  0
   14.4427   -1.2713    4.4936 H   0  0  0  0  0  0  0  0  0  0  0  0
   14.2963   -2.4551    5.8277 H   0  0  0  0  0  0  0  0  0  0  0  0
   12.9748   -1.2994    5.4912 H   0  0  0  0  0  0  0  0  0  0  0  0
   14.8172   -2.9207    2.8207 H   0  0  0  0  0  0  0  0  0  0  0  0
   13.6399   -4.2342    2.5695 H   0  0  0  0  0  0  0  0  0  0  0  0
   14.7385   -4.2771    3.9840 H   0  0  0  0  0  0  0  0  0  0  0  0
   12.5005   -4.2745    5.5401 H   0  0  0  0  0  0  0  0  0  0  0  0
   11.8431   -4.4687    3.9089 H   0  0  0  0  0  0  0  0  0  0  0  0
   11.0103   -2.3517    5.9807 H   0  0  0  0  0  0  0  0  0  0  0  0
   10.0775   -3.7129    5.3690 H   0  0  0  0  0  0  0  0  0  0  0  0
   10.9348   -1.1961    3.8244 H   0  0  0  0  0  0  0  0  0  0  0  0
    9.2813   -1.6504    4.3129 H   0  0  0  0  0  0  0  0  0  0  0  0
   10.8572   -2.8848    2.1213 H   0  0  0  0  0  0  0  0  0  0  0  0
    9.3209   -3.2011    0.1548 H   0  0  0  0  0  0  0  0  0  0  0  0
    7.7595   -3.9268    0.6364 H   0  0  0  0  0  0  0  0  0  0  0  0
    9.1780   -5.4764    3.4745 H   0  0  0  0  0  0  0  0  0  0  0  0
    8.1040   -7.3474    4.7125 H   0  0  0  0  0  0  0  0  0  0  0  0
    7.1119   -9.2513    3.4143 H   0  0  0  0  0  0  0  0  0  0  0  0
    7.1427   -9.2260    0.9643 H   0  0  0  0  0  0  0  0  0  0  0  0
    8.5313   -9.4587   -0.7138 H   0  0  0  0  0  0  0  0  0  0  0  0
    8.8839   -8.5747   -2.2129 H   0  0  0  0  0  0  0  0  0  0  0  0
    6.0698   -9.1184   -1.1024 H   0  0  0  0  0  0  0  0  0  0  0  0
    6.8128   -9.8106   -2.5750 H   0  0  0  0  0  0  0  0  0  0  0  0
    5.5925   -6.7056   -1.1416 H   0  0  0  0  0  0  0  0  0  0  0  0
    5.9581   -5.8475   -2.6697 H   0  0  0  0  0  0  0  0  0  0  0  0
    7.6416   -5.3583   -0.8420 H   0  0  0  0  0  0  0  0  0  0  0  0
    8.3746   -6.0791   -2.2924 H   0  0  0  0  0  0  0  0  0  0  0  0
   10.9073   -5.4228   -1.7161 H   0  0  0  0  0  0  0  0  0  0  0  0
   10.7679   -7.0416   -0.9207 H   0  0  0  0  0  0  0  0  0  0  0  0
   12.3887   -6.2341   -1.0696 H   0  0  0  0  0  0  0  0  0  0  0  0
  1  2  1  0
  1 28  1  0
  1 29  1  0
  1 30  1  0
  2  3  1  0
  2  4  1  0
  3 31  1  0
  3 32  1  0
  3 33  1  0
  4  5  1  0
  4 34  1  0
  4 35  1  0
  5  6  1  0
  5 36  1  0
  5 37  1  0
  6  7  1  0
  6 38  1  0
  6 39  1  0
  7  8  1  0
  7 40  1  0
  8  9  2  0
  8 10  1  0
 10 11  1  0
 10 41  1  0
 10 42  1  0
 11 12  1  0
 24 11  1  1
 12 13  2  0
 12 17  1  0
 13 14  1  0
 13 43  1  0
 14 15  2  0
 14 44  1  0
 15 16  1  0
 15 45  1  0
 16 17  2  0
 16 46  1  0
 17 18  1  0
 18 19  1  0
 18 23  1  0
 19 20  1  0
 19 47  1  0
 19 48  1  0
 20 21  1  0
 20 49  1  0
 20 50  1  0
 21 22  1  0
 22 23  1  0
 22 51  1  0
 22 52  1  0
 23 53  1  0
 23 54  1  0
 24 25  1  0
 24 26  2  0
 24 27  2  0
 25 55  1  0
 25 56  1  0
 25 57  1  0
M  END

