
     RDKit          3D

 47 48  0  0  0  0  0  0  0  0999 V2000
    1.0927    1.0011    0.3387 C   0  0  0  0  0  0  0  0  0  0  0  0
    2.5465    0.5419    0.1704 C   0  0  1  0  0  0  0  0  0  0  0  0
    3.2291    0.3725    1.5337 C   0  0  0  0  0  0  0  0  0  0  0  0
    2.6167   -0.7790   -0.6405 C   0  0  1  0  0  0  0  0  0  0  0  0
    1.9759   -0.6974   -1.9635 N   0  0  0  0  0  0  0  0  0  0  0  0
    2.3274    0.1156   -2.9916 C   0  0  0  0  0  0  0  0  0  0  0  0
    3.2714    0.9105   -2.9320 O   0  0  0  0  0  0  0  0  0  0  0  0
    1.4950    0.0122   -4.2393 C   0  0  0  0  0  0  0  0  0  0  0  0
    1.4546    1.1295   -5.0891 C   0  0  0  0  0  0  0  0  0  0  0  0
    0.7098    1.1063   -6.2662 C   0  0  0  0  0  0  0  0  0  0  0  0
    0.0085   -0.0549   -6.6116 C   0  0  0  0  0  0  0  0  0  0  0  0
   -0.9223   -0.0947   -8.0842 Cl  0  0  0  0  0  0  0  0  0  0  0  0
    0.0528   -1.1872   -5.7916 C   0  0  0  0  0  0  0  0  0  0  0  0
    0.7943   -1.1473   -4.6104 C   0  0  0  0  0  0  0  0  0  0  0  0
    4.0327   -1.4073   -0.7137 C   0  0  0  0  0  0  0  0  0  0  0  0
    4.2434   -2.5060   -0.2283 O   0  0  0  0  0  0  0  0  0  0  0  0
    4.9842   -0.6447   -1.3185 N   0  0  0  0  0  0  0  0  0  0  0  0
    6.3388   -1.1152   -1.5239 C   0  0  0  0  0  0  0  0  0  0  0  0
    6.8040   -0.9225   -2.9396 C   0  0  0  0  0  0  0  0  0  0  0  0
    6.1701   -0.3208   -4.0178 C   0  0  0  0  0  0  0  0  0  0  0  0
    7.0672   -0.4254   -5.0307 N   0  0  0  0  0  0  0  0  0  0  0  0
    6.9797    0.0684   -6.3993 C   0  0  0  0  0  0  0  0  0  0  0  0
    7.5417   -0.8648   -7.4967 C   0  0  0  0  0  0  0  0  0  0  0  0
    7.1140   -0.7718   -8.6162 O   0  0  0  0  0  0  0  0  0  0  0  0
    8.5330   -1.6756   -7.1544 O   0  0  0  0  0  0  0  0  0  0  0  0
    8.1788   -1.0438   -4.6026 N   0  0  0  0  0  0  0  0  0  0  0  0
    8.0265   -1.3508   -3.3515 N   0  0  0  0  0  0  0  0  0  0  0  0
    1.0493    1.9552    0.8868 H   0  0  0  0  0  0  0  0  0  0  0  0
    0.5072    0.2620    0.9128 H   0  0  0  0  0  0  0  0  0  0  0  0
    0.5913    1.1535   -0.6291 H   0  0  0  0  0  0  0  0  0  0  0  0
    3.0846    1.3178   -0.3979 H   0  0  0  0  0  0  0  0  0  0  0  0
    2.7532   -0.4293    2.1230 H   0  0  0  0  0  0  0  0  0  0  0  0
    3.1558    1.3042    2.1160 H   0  0  0  0  0  0  0  0  0  0  0  0
    4.2967    0.1256    1.4351 H   0  0  0  0  0  0  0  0  0  0  0  0
    2.0434   -1.5402   -0.0927 H   0  0  0  0  0  0  0  0  0  0  0  0
    1.1417   -1.2566   -2.0857 H   0  0  0  0  0  0  0  0  0  0  0  0
    2.0176    2.0211   -4.8068 H   0  0  0  0  0  0  0  0  0  0  0  0
    0.6688    1.9785   -6.9206 H   0  0  0  0  0  0  0  0  0  0  0  0
   -0.4814   -2.0920   -6.0853 H   0  0  0  0  0  0  0  0  0  0  0  0
    0.8453   -2.0517   -3.9986 H   0  0  0  0  0  0  0  0  0  0  0  0
    4.6723    0.2182   -1.7646 H   0  0  0  0  0  0  0  0  0  0  0  0
    6.3640   -2.1815   -1.2532 H   0  0  0  0  0  0  0  0  0  0  0  0
    7.0467   -0.6052   -0.8442 H   0  0  0  0  0  0  0  0  0  0  0  0
    5.2032    0.1671   -4.1223 H   0  0  0  0  0  0  0  0  0  0  0  0
    7.5221    1.0263   -6.4810 H   0  0  0  0  0  0  0  0  0  0  0  0
    5.9267    0.2578   -6.6378 H   0  0  0  0  0  0  0  0  0  0  0  0
    8.7237   -1.6051   -6.1824 H   0  0  0  0  0  0  0  0  0  0  0  0
  1  2  1  0
  1 28  1  0
  1 29  1  0
  1 30  1  0
  2  3  1  0
  2  4  1  0
  2 31  1  6
  3 32  1  0
  3 33  1  0
  3 34  1  0
  4  5  1  0
  4 15  1  0
  4 35  1  1
  5  6  1  0
  5 36  1  0
  6  7  2  0
  6  8  1  0
  8  9  2  0
  8 14  1  0
  9 10  1  0
  9 37  1  0
 10 11  2  0
 10 38  1  0
 11 12  1  0
 11 13  1  0
 13 14  2  0
 13 39  1  0
 14 40  1  0
 15 16  2  0
 15 17  1  0
 17 18  1  0
 17 41  1  0
 18 19  1  0
 18 42  1  0
 18 43  1  0
 19 20  2  0
 19 27  1  0
 20 21  1  0
 20 44  1  0
 21 22  1  0
 21 26  1  0
 22 23  1  0
 22 45  1  0
 22 46  1  0
 23 24  2  0
 23 25  1  0
 25 47  1  0
 26 27  2  0
M  END

