
     RDKit          3D

 44 44  0  0  0  0  0  0  0  0999 V2000
    2.5458   -3.7106    1.4578 C   0  0  0  0  0  0  0  0  0  0  0  0
    2.5687   -2.1812    1.3811 C   0  0  0  0  0  0  0  0  0  0  0  0
    3.2067   -1.6291    0.0874 C   0  0  1  0  0  0  0  0  0  0  0  0
    2.5207   -2.0596   -1.1516 N   0  0  0  0  0  0  0  0  0  0  0  0
    1.0674   -2.1644   -1.2337 C   0  0  1  0  0  0  0  0  0  0  0  0
    0.3197   -0.7972   -1.2166 C   0  0  0  0  0  0  0  0  0  0  0  0
    0.6912    0.2569   -2.2280 C   0  0  0  0  0  0  0  0  0  0  0  0
    0.6192   -0.0179   -3.5629 N   0  0  0  0  0  0  0  0  0  0  0  0
    1.0479    1.4063   -1.7556 N   0  0  0  0  0  0  0  0  0  0  0  0
    1.3218    2.3018   -2.8182 O   0  0  0  0  0  0  0  0  0  0  0  0
    0.6768   -3.0257   -2.4365 C   0  0  0  0  0  0  0  0  0  0  0  0
   -0.5169   -3.7661   -2.3971 C   0  0  0  0  0  0  0  0  0  0  0  0
   -0.9169   -4.5522   -3.4808 C   0  0  0  0  0  0  0  0  0  0  0  0
   -0.1215   -4.6200   -4.6290 C   0  0  0  0  0  0  0  0  0  0  0  0
    1.0716   -3.8939   -4.6803 C   0  0  0  0  0  0  0  0  0  0  0  0
    1.4663   -3.1018   -3.5966 C   0  0  0  0  0  0  0  0  0  0  0  0
    3.4823   -0.0980    0.1082 C   0  0  1  0  0  0  0  0  0  0  0  0
    4.2365    0.3489    1.3701 C   0  0  0  0  0  0  0  0  0  0  0  0
    4.2647    0.3251   -1.1417 C   0  0  0  0  0  0  0  0  0  0  0  0
    1.9743   -4.1666    0.6338 H   0  0  0  0  0  0  0  0  0  0  0  0
    2.0938   -4.0564    2.4013 H   0  0  0  0  0  0  0  0  0  0  0  0
    3.5683   -4.1225    1.4123 H   0  0  0  0  0  0  0  0  0  0  0  0
    3.1356   -1.8024    2.2440 H   0  0  0  0  0  0  0  0  0  0  0  0
    1.5475   -1.7776    1.5023 H   0  0  0  0  0  0  0  0  0  0  0  0
    4.2063   -2.0996    0.0153 H   0  0  0  0  0  0  0  0  0  0  0  0
    2.9206   -2.9408   -1.4582 H   0  0  0  0  0  0  0  0  0  0  0  0
    0.6386   -2.6925   -0.3563 H   0  0  0  0  0  0  0  0  0  0  0  0
    0.4366   -0.3308   -0.2294 H   0  0  0  0  0  0  0  0  0  0  0  0
   -0.7561   -1.0243   -1.3250 H   0  0  0  0  0  0  0  0  0  0  0  0
    0.1632   -0.8557   -3.8919 H   0  0  0  0  0  0  0  0  0  0  0  0
    0.7329    0.7628   -4.1973 H   0  0  0  0  0  0  0  0  0  0  0  0
    1.5567    3.1120   -2.3520 H   0  0  0  0  0  0  0  0  0  0  0  0
   -1.1397   -3.7327   -1.4978 H   0  0  0  0  0  0  0  0  0  0  0  0
   -1.8487   -5.1211   -3.4242 H   0  0  0  0  0  0  0  0  0  0  0  0
   -0.4278   -5.2390   -5.4762 H   0  0  0  0  0  0  0  0  0  0  0  0
    1.7026   -3.9415   -5.5720 H   0  0  0  0  0  0  0  0  0  0  0  0
    2.3907   -2.5243   -3.6488 H   0  0  0  0  0  0  0  0  0  0  0  0
    2.5195    0.4371    0.0818 H   0  0  0  0  0  0  0  0  0  0  0  0
    5.1666   -0.2309    1.5114 H   0  0  0  0  0  0  0  0  0  0  0  0
    3.6372    0.2515    2.2880 H   0  0  0  0  0  0  0  0  0  0  0  0
    4.5243    1.4091    1.2854 H   0  0  0  0  0  0  0  0  0  0  0  0
    5.2790   -0.1143   -1.1393 H   0  0  0  0  0  0  0  0  0  0  0  0
    4.3738    1.4205   -1.1802 H   0  0  0  0  0  0  0  0  0  0  0  0
    3.7542    0.0032   -2.0583 H   0  0  0  0  0  0  0  0  0  0  0  0
  1  2  1  0
  1 20  1  0
  1 21  1  0
  1 22  1  0
  2  3  1  0
  2 23  1  0
  2 24  1  0
  3  4  1  0
  3 17  1  0
  3 25  1  6
  4  5  1  0
  4 26  1  0
  5  6  1  0
  5 11  1  0
  5 27  1  1
  6  7  1  0
  6 28  1  0
  6 29  1  0
  7  8  1  0
  7  9  2  0
  8 30  1  0
  8 31  1  0
  9 10  1  0
 10 32  1  0
 11 12  2  0
 11 16  1  0
 12 13  1  0
 12 33  1  0
 13 14  2  0
 13 34  1  0
 14 15  1  0
 14 35  1  0
 15 16  2  0
 15 36  1  0
 16 37  1  0
 17 18  1  0
 17 19  1  0
 17 38  1  6
 18 39  1  0
 18 40  1  0
 18 41  1  0
 19 42  1  0
 19 43  1  0
 19 44  1  0
M  END

