
     RDKit          3D

 34 35  0  0  0  0  0  0  0  0999 V2000
    0.7665    0.4028   -0.6203 N   0  0  0  0  0  0  0  0  0  0  0  0
    2.1357    0.0418   -0.2667 C   0  0  1  0  0  0  0  0  0  0  0  0
    2.6831   -1.1292   -1.0951 C   0  0  0  0  0  0  0  0  0  0  0  0
    1.7731   -2.2073   -0.9671 O   0  0  0  0  0  0  0  0  0  0  0  0
    1.9997   -3.3754   -1.6247 C   0  0  0  0  0  0  0  0  0  0  0  0
    3.1032   -3.6164   -2.4565 C   0  0  0  0  0  0  0  0  0  0  0  0
    3.2433   -4.8562   -3.0912 C   0  0  0  0  0  0  0  0  0  0  0  0
    2.2885   -5.8535   -2.8979 C   0  0  0  0  0  0  0  0  0  0  0  0
    2.4675   -7.4026   -3.6936 Cl  0  0  0  0  0  0  0  0  0  0  0  0
    1.1849   -5.6210   -2.0671 C   0  0  0  0  0  0  0  0  0  0  0  0
    1.0442   -4.3893   -1.4358 C   0  0  0  0  0  0  0  0  0  0  0  0
    3.0800    1.2497   -0.3892 C   0  0  0  0  0  0  0  0  0  0  0  0
    2.9719    2.2987    0.7012 C   0  0  0  0  0  0  0  0  0  0  0  0
    1.7511    2.6979    1.2709 C   0  0  0  0  0  0  0  0  0  0  0  0
    1.7095    3.6750    2.2683 C   0  0  0  0  0  0  0  0  0  0  0  0
    2.8826    4.2825    2.7211 C   0  0  0  0  0  0  0  0  0  0  0  0
    4.1057    3.9014    2.1663 C   0  0  0  0  0  0  0  0  0  0  0  0
    5.5970    4.6275    2.7003 Cl  0  0  0  0  0  0  0  0  0  0  0  0
    4.1380    2.9205    1.1684 C   0  0  0  0  0  0  0  0  0  0  0  0
    5.3234    2.5684    0.6468 F   0  0  0  0  0  0  0  0  0  0  0  0
    0.1745   -0.4269   -0.5729 H   0  0  0  0  0  0  0  0  0  0  0  0
    0.7282    0.7298   -1.5884 H   0  0  0  0  0  0  0  0  0  0  0  0
    2.1245   -0.2907    0.7868 H   0  0  0  0  0  0  0  0  0  0  0  0
    3.6858   -1.4278   -0.7358 H   0  0  0  0  0  0  0  0  0  0  0  0
    2.7782   -0.8303   -2.1582 H   0  0  0  0  0  0  0  0  0  0  0  0
    3.8631   -2.8524   -2.6206 H   0  0  0  0  0  0  0  0  0  0  0  0
    4.1013   -5.0453   -3.7385 H   0  0  0  0  0  0  0  0  0  0  0  0
    0.4423   -6.4068   -1.9190 H   0  0  0  0  0  0  0  0  0  0  0  0
    0.1925   -4.1889   -0.7826 H   0  0  0  0  0  0  0  0  0  0  0  0
    2.9078    1.7267   -1.3739 H   0  0  0  0  0  0  0  0  0  0  0  0
    4.1195    0.8914   -0.4184 H   0  0  0  0  0  0  0  0  0  0  0  0
    0.8390    2.2185    0.9104 H   0  0  0  0  0  0  0  0  0  0  0  0
    0.7500    3.9706    2.6995 H   0  0  0  0  0  0  0  0  0  0  0  0
    2.8662    5.0487    3.4979 H   0  0  0  0  0  0  0  0  0  0  0  0
  1  2  1  0
  1 21  1  0
  1 22  1  0
  2  3  1  0
  2 12  1  0
  2 23  1  1
  3  4  1  0
  3 24  1  0
  3 25  1  0
  4  5  1  0
  5  6  2  0
  5 11  1  0
  6  7  1  0
  6 26  1  0
  7  8  2  0
  7 27  1  0
  8  9  1  0
  8 10  1  0
 10 11  2  0
 10 28  1  0
 11 29  1  0
 12 13  1  0
 12 30  1  0
 12 31  1  0
 13 14  2  0
 13 19  1  0
 14 15  1  0
 14 32  1  0
 15 16  2  0
 15 33  1  0
 16 17  1  0
 16 34  1  0
 17 18  1  0
 17 19  2  0
 19 20  1  0
M  END

