
     RDKit          3D

 36 37  0  0  0  0  0  0  0  0999 V2000
    1.2171   -1.7685    2.6236 C   0  0  0  0  0  0  0  0  0  0  0  0
    2.2934   -0.9467    1.9579 C   0  0  0  0  0  0  0  0  0  0  0  0
    2.8871    0.1225    2.6435 C   0  0  0  0  0  0  0  0  0  0  0  0
    3.9481    0.8630    2.1164 C   0  0  0  0  0  0  0  0  0  0  0  0
    4.4246    0.5089    0.8592 C   0  0  0  0  0  0  0  0  0  0  0  0
    5.4500    1.1904    0.3230 F   0  0  0  0  0  0  0  0  0  0  0  0
    3.8545   -0.5277    0.1291 C   0  0  0  0  0  0  0  0  0  0  0  0
    2.7810   -1.2655    0.6627 C   0  0  0  0  0  0  0  0  0  0  0  0
    2.2557   -2.3530   -0.0688 N   0  0  0  0  0  0  0  0  0  0  0  0
    0.8681   -2.3051   -0.5671 C   0  0  1  0  0  0  0  0  0  0  0  0
    0.7441   -1.5978   -1.9337 C   0  0  0  0  0  0  0  0  0  0  0  0
    1.3509   -2.4262   -3.0747 C   0  0  0  0  0  0  0  0  0  0  0  0
    0.7644   -3.8422   -3.1293 C   0  0  0  0  0  0  0  0  0  0  0  0
    0.8966   -4.5625   -1.7813 C   0  0  2  0  0  0  0  0  0  0  0  0
    0.2822   -5.9617   -1.8276 C   0  0  0  0  0  0  0  0  0  0  0  0
   -0.3810   -6.3853   -2.7338 O   0  0  0  0  0  0  0  0  0  0  0  0
    0.5182   -6.7327   -0.7381 O   0  0  0  0  0  0  0  0  0  0  0  0
    0.2701   -3.7208   -0.6452 C   0  0  0  0  0  0  0  0  0  0  0  0
    1.2741   -1.6722    3.7180 H   0  0  0  0  0  0  0  0  0  0  0  0
    1.3242   -2.8332    2.3634 H   0  0  0  0  0  0  0  0  0  0  0  0
    0.1978   -1.4639    2.3280 H   0  0  0  0  0  0  0  0  0  0  0  0
    2.5212    0.3681    3.6444 H   0  0  0  0  0  0  0  0  0  0  0  0
    4.4114    1.6841    2.6656 H   0  0  0  0  0  0  0  0  0  0  0  0
    4.2484   -0.7520   -0.8647 H   0  0  0  0  0  0  0  0  0  0  0  0
    2.8969   -2.6169   -0.8116 H   0  0  0  0  0  0  0  0  0  0  0  0
    0.2856   -1.7343    0.1680 H   0  0  0  0  0  0  0  0  0  0  0  0
    1.2137   -0.6019   -1.8774 H   0  0  0  0  0  0  0  0  0  0  0  0
   -0.3274   -1.4290   -2.1421 H   0  0  0  0  0  0  0  0  0  0  0  0
    2.4493   -2.4865   -2.9540 H   0  0  0  0  0  0  0  0  0  0  0  0
    1.1905   -1.9142   -4.0372 H   0  0  0  0  0  0  0  0  0  0  0  0
    1.2462   -4.4374   -3.9203 H   0  0  0  0  0  0  0  0  0  0  0  0
   -0.3056   -3.7993   -3.3938 H   0  0  0  0  0  0  0  0  0  0  0  0
    1.9709   -4.7005   -1.5461 H   0  0  0  0  0  0  0  0  0  0  0  0
    1.0808   -6.2639   -0.1051 H   0  0  0  0  0  0  0  0  0  0  0  0
    0.3976   -4.2135    0.3321 H   0  0  0  0  0  0  0  0  0  0  0  0
   -0.8157   -3.6429   -0.8274 H   0  0  0  0  0  0  0  0  0  0  0  0
  1  2  1  0
  1 19  1  0
  1 20  1  0
  1 21  1  0
  2  3  2  0
  2  8  1  0
  3  4  1  0
  3 22  1  0
  4  5  2  0
  4 23  1  0
  5  6  1  0
  5  7  1  0
  7  8  2  0
  7 24  1  0
  8  9  1  0
  9 10  1  0
  9 25  1  0
 10 11  1  0
 10 18  1  0
 10 26  1  1
 11 12  1  0
 11 27  1  0
 11 28  1  0
 12 13  1  0
 12 29  1  0
 12 30  1  0
 13 14  1  0
 13 31  1  0
 13 32  1  0
 14 15  1  0
 14 18  1  0
 14 33  1  1
 15 16  2  0
 15 17  1  0
 17 34  1  0
 18 35  1  0
 18 36  1  0
M  END

