
     RDKit          3D

 62 64  0  0  0  0  0  0  0  0999 V2000
    5.1000   -0.0740   -3.8999 C   0  0  0  0  0  0  0  0  0  0  0  0
    5.9238    0.1674   -2.6339 C   0  0  0  0  0  0  0  0  0  0  0  0
    5.2159    1.0884   -1.6212 C   0  0  0  0  0  0  0  0  0  0  0  0
    6.0531    1.4012   -0.3970 C   0  0  0  0  0  0  0  0  0  0  0  0
    6.9541    2.4760   -0.4548 C   0  0  0  0  0  0  0  0  0  0  0  0
    7.8051    2.8007    0.6111 C   0  0  0  0  0  0  0  0  0  0  0  0
    8.7772    3.9503    0.5754 C   0  0  0  0  0  0  0  0  0  0  0  0
    9.4982    4.1732    1.5290 O   0  0  0  0  0  0  0  0  0  0  0  0
    8.8410    4.8212   -0.6739 C   0  0  0  0  0  0  0  0  0  0  0  0
    9.8527    5.9569   -0.5660 C   0  0  0  0  0  0  0  0  0  0  0  0
    7.7520    2.0164    1.7735 C   0  0  0  0  0  0  0  0  0  0  0  0
    6.8647    0.9491    1.8534 C   0  0  0  0  0  0  0  0  0  0  0  0
    6.0054    0.6251    0.7857 C   0  0  0  0  0  0  0  0  0  0  0  0
    5.0828   -0.5466    0.9487 C   0  0  0  0  0  0  0  0  0  0  0  0
    5.6138   -1.8407    0.8426 C   0  0  0  0  0  0  0  0  0  0  0  0
    4.8247   -2.9923    1.0157 C   0  0  0  0  0  0  0  0  0  0  0  0
    5.4578   -4.3297    0.9418 C   0  0  0  0  0  0  0  0  0  0  0  0
    5.1734   -5.3963    0.1598 C   0  0  0  0  0  0  0  0  0  0  0  0
    4.2225   -5.5827   -0.9480 C   0  0  0  0  0  0  0  0  0  0  0  0
    4.1584   -6.8424   -1.5763 C   0  0  0  0  0  0  0  0  0  0  0  0
    3.2946   -7.0759   -2.6390 C   0  0  0  0  0  0  0  0  0  0  0  0
    2.4296   -6.0885   -3.1401 C   0  0  0  0  0  0  0  0  0  0  0  0
    1.5740   -6.5777   -4.3159 C   0  0  0  0  0  0  0  0  0  0  0  0
    1.9134   -7.5695   -4.9168 O   0  0  0  0  0  0  0  0  0  0  0  0
    0.4542   -5.9433   -4.6142 O   0  0  0  0  0  0  0  0  0  0  0  0
    2.5034   -4.8006   -2.5404 C   0  0  0  0  0  0  0  0  0  0  0  0
    1.6696   -3.6189   -2.9530 C   0  0  0  0  0  0  0  0  0  0  0  0
    0.5383   -3.6856   -3.3893 O   0  0  0  0  0  0  0  0  0  0  0  0
    2.2145   -2.4098   -2.7694 O   0  0  0  0  0  0  0  0  0  0  0  0
    3.3835   -4.5827   -1.4674 C   0  0  0  0  0  0  0  0  0  0  0  0
    3.4688   -2.8145    1.3402 C   0  0  0  0  0  0  0  0  0  0  0  0
    2.9341   -1.5321    1.4616 C   0  0  0  0  0  0  0  0  0  0  0  0
    3.7131   -0.3800    1.2723 C   0  0  0  0  0  0  0  0  0  0  0  0
    3.0954    0.9871    1.4385 C   0  0  0  0  0  0  0  0  0  0  0  0
    5.6299   -0.7292   -4.6091 H   0  0  0  0  0  0  0  0  0  0  0  0
    4.8811    0.8724   -4.4217 H   0  0  0  0  0  0  0  0  0  0  0  0
    4.1279   -0.5427   -3.6716 H   0  0  0  0  0  0  0  0  0  0  0  0
    6.8991    0.6091   -2.9028 H   0  0  0  0  0  0  0  0  0  0  0  0
    6.1564   -0.7935   -2.1422 H   0  0  0  0  0  0  0  0  0  0  0  0
    4.2624    0.6232   -1.3269 H   0  0  0  0  0  0  0  0  0  0  0  0
    4.9532    2.0330   -2.1280 H   0  0  0  0  0  0  0  0  0  0  0  0
    6.9793    3.0705   -1.3710 H   0  0  0  0  0  0  0  0  0  0  0  0
    7.8272    5.2115   -0.8738 H   0  0  0  0  0  0  0  0  0  0  0  0
    9.0709    4.1672   -1.5349 H   0  0  0  0  0  0  0  0  0  0  0  0
    9.6156    6.6193    0.2799 H   0  0  0  0  0  0  0  0  0  0  0  0
    9.8639    6.5593   -1.4872 H   0  0  0  0  0  0  0  0  0  0  0  0
   10.8666    5.5669   -0.3932 H   0  0  0  0  0  0  0  0  0  0  0  0
    8.4164    2.2686    2.6019 H   0  0  0  0  0  0  0  0  0  0  0  0
    6.8246    0.3447    2.7631 H   0  0  0  0  0  0  0  0  0  0  0  0
    6.6780   -1.9529    0.6181 H   0  0  0  0  0  0  0  0  0  0  0  0
    6.3015   -4.4645    1.6298 H   0  0  0  0  0  0  0  0  0  0  0  0
    5.7891   -6.2842    0.3404 H   0  0  0  0  0  0  0  0  0  0  0  0
    4.8009   -7.6523   -1.2209 H   0  0  0  0  0  0  0  0  0  0  0  0
    3.2673   -8.0499   -3.1288 H   0  0  0  0  0  0  0  0  0  0  0  0
    0.3241   -5.1211   -4.0753 H   0  0  0  0  0  0  0  0  0  0  0  0
    3.1417   -2.4893   -2.4985 H   0  0  0  0  0  0  0  0  0  0  0  0
    3.3906   -3.6088   -0.9795 H   0  0  0  0  0  0  0  0  0  0  0  0
    2.8347   -3.6856    1.5213 H   0  0  0  0  0  0  0  0  0  0  0  0
    1.8812   -1.4189    1.7351 H   0  0  0  0  0  0  0  0  0  0  0  0
    2.1096    0.9199    1.9219 H   0  0  0  0  0  0  0  0  0  0  0  0
    2.9523    1.4872    0.4656 H   0  0  0  0  0  0  0  0  0  0  0  0
    3.7327    1.6506    2.0420 H   0  0  0  0  0  0  0  0  0  0  0  0
  1  2  1  0
  1 35  1  0
  1 36  1  0
  1 37  1  0
  2  3  1  0
  2 38  1  0
  2 39  1  0
  3  4  1  0
  3 40  1  0
  3 41  1  0
  4  5  2  0
  4 13  1  0
  5  6  1  0
  5 42  1  0
  6  7  1  0
  6 11  2  0
  7  8  2  0
  7  9  1  0
  9 10  1  0
  9 43  1  0
  9 44  1  0
 10 45  1  0
 10 46  1  0
 10 47  1  0
 11 12  1  0
 11 48  1  0
 12 13  2  0
 12 49  1  0
 13 14  1  0
 14 15  2  0
 14 33  1  0
 15 16  1  0
 15 50  1  0
 16 17  1  0
 16 31  2  0
 17 18  2  0
 17 51  1  0
 18 19  1  0
 18 52  1  0
 19 20  2  0
 19 30  1  0
 20 21  1  0
 20 53  1  0
 21 22  2  0
 21 54  1  0
 22 23  1  0
 22 26  1  0
 23 24  2  0
 23 25  1  0
 25 55  1  0
 26 27  1  0
 26 30  2  0
 27 28  2  0
 27 29  1  0
 29 56  1  0
 30 57  1  0
 31 32  1  0
 31 58  1  0
 32 33  2  0
 32 59  1  0
 33 34  1  0
 34 60  1  0
 34 61  1  0
 34 62  1  0
M  END

