
     RDKit          3D

 56 59  0  0  0  0  0  0  0  0999 V2000
    4.0879   -6.8488    4.0787 C   0  0  0  0  0  0  0  0  0  0  0  0
    4.9743   -6.8898    2.8566 C   0  0  0  0  0  0  0  0  0  0  0  0
    5.7639   -8.0145    2.5714 C   0  0  0  0  0  0  0  0  0  0  0  0
    6.5652   -8.0463    1.4268 C   0  0  0  0  0  0  0  0  0  0  0  0
    6.5854   -6.9637    0.5477 C   0  0  0  0  0  0  0  0  0  0  0  0
    5.8060   -5.8194    0.8082 C   0  0  0  0  0  0  0  0  0  0  0  0
    5.8919   -4.6617   -0.0993 C   0  0  0  0  0  0  0  0  0  0  0  0
    7.0331   -4.1188   -0.6756 C   0  0  0  0  0  0  0  0  0  0  0  0
    6.6601   -2.9425   -1.3817 C   0  0  0  0  0  0  0  0  0  0  0  0
    5.3002   -2.7907   -1.2227 C   0  0  0  0  0  0  0  0  0  0  0  0
    4.8235   -3.8327   -0.4450 N   0  0  0  0  0  0  0  0  0  0  0  0
    3.4351   -4.0519   -0.2216 C   0  0  0  0  0  0  0  0  0  0  0  0
    2.8564   -5.3030   -0.4936 C   0  0  0  0  0  0  0  0  0  0  0  0
    1.4899   -5.4522   -0.2987 C   0  0  0  0  0  0  0  0  0  0  0  0
    0.6589   -4.4071    0.1431 C   0  0  0  0  0  0  0  0  0  0  0  0
   -0.8107   -4.6033    0.2969 C   0  0  0  0  0  0  0  0  0  0  0  0
   -1.3592   -5.7194   -0.2749 N   0  0  0  0  0  0  0  0  0  0  0  0
   -1.5343   -3.8182    0.9164 O   0  0  0  0  0  0  0  0  0  0  0  0
    1.2571   -3.1359    0.4506 C   0  0  0  0  0  0  0  0  0  0  0  0
    0.4966   -2.1058    0.9118 N   0  0  0  0  0  0  0  0  0  0  0  0
    0.9608   -0.7879    1.2959 C   0  0  2  0  0  0  0  0  0  0  0  0
    1.5489   -0.7439    2.7232 C   0  0  0  0  0  0  0  0  0  0  0  0
    1.9817    0.6740    3.1211 C   0  0  0  0  0  0  0  0  0  0  0  0
    0.8348    1.6885    2.9843 C   0  0  2  0  0  0  0  0  0  0  0  0
   -0.1560    1.5069    3.9865 O   0  0  0  0  0  0  0  0  0  0  0  0
    0.2347    1.6378    1.5694 C   0  0  0  0  0  0  0  0  0  0  0  0
   -0.1924    0.2206    1.1655 C   0  0  0  0  0  0  0  0  0  0  0  0
    2.6551   -2.9975    0.2479 C   0  0  0  0  0  0  0  0  0  0  0  0
    5.0136   -5.8034    1.9714 C   0  0  0  0  0  0  0  0  0  0  0  0
    4.4283   -7.5554    4.8506 H   0  0  0  0  0  0  0  0  0  0  0  0
    3.0476   -7.1164    3.8229 H   0  0  0  0  0  0  0  0  0  0  0  0
    4.0602   -5.8424    4.5250 H   0  0  0  0  0  0  0  0  0  0  0  0
    5.7533   -8.8697    3.2532 H   0  0  0  0  0  0  0  0  0  0  0  0
    7.1761   -8.9279    1.2148 H   0  0  0  0  0  0  0  0  0  0  0  0
    7.1981   -7.0005   -0.3558 H   0  0  0  0  0  0  0  0  0  0  0  0
    8.0396   -4.5107   -0.5431 H   0  0  0  0  0  0  0  0  0  0  0  0
    7.3139   -2.2800   -1.9457 H   0  0  0  0  0  0  0  0  0  0  0  0
    4.6104   -2.0629   -1.6422 H   0  0  0  0  0  0  0  0  0  0  0  0
    3.4685   -6.1306   -0.8496 H   0  0  0  0  0  0  0  0  0  0  0  0
    1.0533   -6.4358   -0.4853 H   0  0  0  0  0  0  0  0  0  0  0  0
   -0.8863   -6.2327   -1.0051 H   0  0  0  0  0  0  0  0  0  0  0  0
   -2.3687   -5.7913   -0.2247 H   0  0  0  0  0  0  0  0  0  0  0  0
   -0.4700   -2.3720    1.1193 H   0  0  0  0  0  0  0  0  0  0  0  0
    1.7522   -0.4728    0.5908 H   0  0  0  0  0  0  0  0  0  0  0  0
    2.3959   -1.4433    2.8071 H   0  0  0  0  0  0  0  0  0  0  0  0
    0.7801   -1.1215    3.4229 H   0  0  0  0  0  0  0  0  0  0  0  0
    2.8198    0.9959    2.4772 H   0  0  0  0  0  0  0  0  0  0  0  0
    2.3524    0.6883    4.1585 H   0  0  0  0  0  0  0  0  0  0  0  0
    1.2290    2.7014    3.1670 H   0  0  0  0  0  0  0  0  0  0  0  0
   -0.5242    0.6179    3.9038 H   0  0  0  0  0  0  0  0  0  0  0  0
    0.9866    2.0112    0.8514 H   0  0  0  0  0  0  0  0  0  0  0  0
   -0.6245    2.3254    1.5203 H   0  0  0  0  0  0  0  0  0  0  0  0
   -0.5780    0.2089    0.1335 H   0  0  0  0  0  0  0  0  0  0  0  0
   -1.0301   -0.1152    1.8061 H   0  0  0  0  0  0  0  0  0  0  0  0
    3.1486   -2.0579    0.4897 H   0  0  0  0  0  0  0  0  0  0  0  0
    4.4252   -4.9129    2.2044 H   0  0  0  0  0  0  0  0  0  0  0  0
  1  2  1  0
  1 30  1  0
  1 31  1  0
  1 32  1  0
  2  3  2  0
  2 29  1  0
  3  4  1  0
  3 33  1  0
  4  5  2  0
  4 34  1  0
  5  6  1  0
  5 35  1  0
  6  7  1  0
  6 29  2  0
  7  8  2  0
  7 11  1  0
  8  9  1  0
  8 36  1  0
  9 10  2  0
  9 37  1  0
 10 11  1  0
 10 38  1  0
 11 12  1  0
 12 13  2  0
 12 28  1  0
 13 14  1  0
 13 39  1  0
 14 15  2  0
 14 40  1  0
 15 16  1  0
 15 19  1  0
 16 17  1  0
 16 18  2  0
 17 41  1  0
 17 42  1  0
 19 20  1  0
 19 28  2  0
 20 21  1  0
 20 43  1  0
 21 22  1  0
 21 27  1  0
 21 44  1  6
 22 23  1  0
 22 45  1  0
 22 46  1  0
 23 24  1  0
 23 47  1  0
 23 48  1  0
 24 25  1  0
 24 26  1  0
 24 49  1  1
 25 50  1  0
 26 27  1  0
 26 51  1  0
 26 52  1  0
 27 53  1  0
 27 54  1  0
 28 55  1  0
 29 56  1  0
M  END

