
     RDKit          3D

 19 20  0  0  0  0  0  0  0  0999 V2000
    1.0009    0.3068   -0.0825 O   0  0  0  0  0  0  0  0  0  0  0  0
    2.3925    0.1645    0.1015 C   0  0  0  0  0  0  0  0  0  0  0  0
    2.7767   -0.8138    1.1987 C   0  0  0  0  0  0  0  0  0  0  0  0
    3.4338   -0.3770    2.3471 C   0  0  0  0  0  0  0  0  0  0  0  0
    3.8140   -1.2524    3.3844 C   0  0  0  0  0  0  0  0  0  0  0  0
    3.5272   -2.6011    3.2789 C   0  0  0  0  0  0  0  0  0  0  0  0
    3.8755   -3.4570    4.2479 F   0  0  0  0  0  0  0  0  0  0  0  0
    2.8630   -3.0857    2.1470 C   0  0  0  0  0  0  0  0  0  0  0  0
    2.4158   -4.7475    1.8331 S   0  0  0  0  0  0  0  0  0  0  0  0
    1.7105   -4.2904    0.3052 C   0  0  0  0  0  0  0  0  0  0  0  0
    1.8253   -2.9562    0.0728 C   0  0  0  0  0  0  0  0  0  0  0  0
    1.3502   -2.3681   -1.0428 F   0  0  0  0  0  0  0  0  0  0  0  0
    2.4880   -2.2014    1.1057 C   0  0  0  0  0  0  0  0  0  0  0  0
    0.6879   -0.4720   -0.5609 H   0  0  0  0  0  0  0  0  0  0  0  0
    2.7803    1.1586    0.3734 H   0  0  0  0  0  0  0  0  0  0  0  0
    2.8948   -0.1261   -0.8424 H   0  0  0  0  0  0  0  0  0  0  0  0
    3.6645    0.6863    2.4509 H   0  0  0  0  0  0  0  0  0  0  0  0
    4.3292   -0.8877    4.2751 H   0  0  0  0  0  0  0  0  0  0  0  0
    1.2447   -5.0284   -0.3450 H   0  0  0  0  0  0  0  0  0  0  0  0
  1  2  1  0
  1 14  1  0
  2  3  1  0
  2 15  1  0
  2 16  1  0
  3  4  2  0
  3 13  1  0
  4  5  1  0
  4 17  1  0
  5  6  2  0
  5 18  1  0
  6  7  1  0
  6  8  1  0
  8  9  1  0
  8 13  2  0
  9 10  1  0
 10 11  2  0
 10 19  1  0
 11 12  1  0
 11 13  1  0
M  END

