
     RDKit          3D

 54 56  0  0  0  0  0  0  0  0999 V2000
    2.4920    1.7309    2.9733 C   0  0  0  0  0  0  0  0  0  0  0  0
    2.3496    0.2381    2.6281 C   0  0  1  0  0  0  0  0  0  0  0  0
    2.8756   -0.6213    3.7917 C   0  0  0  0  0  0  0  0  0  0  0  0
    0.8667   -0.0917    2.3786 C   0  0  0  0  0  0  0  0  0  0  0  0
    3.1270   -0.0862    1.3126 C   0  0  0  0  0  0  0  0  0  0  0  0
    4.6100    0.0527    1.3835 C   0  0  0  0  0  0  0  0  0  0  0  0
    5.3287    1.1184    1.2250 N   0  0  0  0  0  0  0  0  0  0  0  0
    6.6434    0.7008    1.4154 C   0  0  0  0  0  0  0  0  0  0  0  0
    7.8446    1.4165    1.3630 C   0  0  0  0  0  0  0  0  0  0  0  0
    9.0281    0.6979    1.5986 C   0  0  0  0  0  0  0  0  0  0  0  0
   10.3055    1.2929    1.5834 N   0  0  0  0  0  0  0  0  0  0  0  0
   10.6391    2.6135    1.3155 C   0  0  0  0  0  0  0  0  0  0  0  0
    9.8321    3.4800    1.0214 O   0  0  0  0  0  0  0  0  0  0  0  0
   11.9978    2.8605    1.3917 N   0  0  0  0  0  0  0  0  0  0  0  0
   12.5082    4.2334    1.2880 C   0  0  1  0  0  0  0  0  0  0  0  0
   13.9369    4.2997    1.8486 C   0  0  0  0  0  0  0  0  0  0  0  0
   14.9737    3.5928    0.9602 C   0  0  0  0  0  0  0  0  0  0  0  0
   14.9294    4.0864   -0.4960 C   0  0  2  0  0  0  0  0  0  0  0  0
   15.5419    5.4893   -0.6226 C   0  0  0  0  0  0  0  0  0  0  0  0
   16.0938    6.0740    0.2704 O   0  0  0  0  0  0  0  0  0  0  0  0
   15.4607    6.0550   -1.8489 O   0  0  0  0  0  0  0  0  0  0  0  0
   13.4890    3.9948   -1.0514 C   0  0  0  0  0  0  0  0  0  0  0  0
   12.4797    4.7356   -0.1691 C   0  0  0  0  0  0  0  0  0  0  0  0
    8.9844   -0.6940    1.8747 C   0  0  0  0  0  0  0  0  0  0  0  0
    7.7861   -1.4075    1.9248 C   0  0  0  0  0  0  0  0  0  0  0  0
    6.6298   -0.6752    1.6913 C   0  0  0  0  0  0  0  0  0  0  0  0
    5.3261   -1.0864    1.6697 O   0  0  0  0  0  0  0  0  0  0  0  0
    1.9554    1.9636    3.9077 H   0  0  0  0  0  0  0  0  0  0  0  0
    2.0705    2.3648    2.1761 H   0  0  0  0  0  0  0  0  0  0  0  0
    3.5460    2.0198    3.0996 H   0  0  0  0  0  0  0  0  0  0  0  0
    2.2755   -0.4473    4.6996 H   0  0  0  0  0  0  0  0  0  0  0  0
    3.9225   -0.3819    4.0358 H   0  0  0  0  0  0  0  0  0  0  0  0
    2.8245   -1.6967    3.5549 H   0  0  0  0  0  0  0  0  0  0  0  0
    0.2587    0.1479    3.2661 H   0  0  0  0  0  0  0  0  0  0  0  0
    0.7248   -1.1616    2.1531 H   0  0  0  0  0  0  0  0  0  0  0  0
    0.4647    0.4877    1.5313 H   0  0  0  0  0  0  0  0  0  0  0  0
    2.7689    0.5848    0.5167 H   0  0  0  0  0  0  0  0  0  0  0  0
    2.8993   -1.1201    1.0087 H   0  0  0  0  0  0  0  0  0  0  0  0
    7.8713    2.4806    1.1457 H   0  0  0  0  0  0  0  0  0  0  0  0
   11.0732    0.6474    1.7208 H   0  0  0  0  0  0  0  0  0  0  0  0
   12.5681    2.2076    1.9172 H   0  0  0  0  0  0  0  0  0  0  0  0
   11.8511    4.8895    1.8836 H   0  0  0  0  0  0  0  0  0  0  0  0
   13.9602    3.8806    2.8700 H   0  0  0  0  0  0  0  0  0  0  0  0
   14.2200    5.3586    1.9438 H   0  0  0  0  0  0  0  0  0  0  0  0
   14.7977    2.5030    0.9561 H   0  0  0  0  0  0  0  0  0  0  0  0
   15.9802    3.7525    1.3732 H   0  0  0  0  0  0  0  0  0  0  0  0
   15.5805    3.4359   -1.1107 H   0  0  0  0  0  0  0  0  0  0  0  0
   14.9857    5.4736   -2.4596 H   0  0  0  0  0  0  0  0  0  0  0  0
   13.2110    2.9293   -1.1042 H   0  0  0  0  0  0  0  0  0  0  0  0
   13.4260    4.3629   -2.0913 H   0  0  0  0  0  0  0  0  0  0  0  0
   11.4596    4.6270   -0.5640 H   0  0  0  0  0  0  0  0  0  0  0  0
   12.7039    5.8170   -0.1633 H   0  0  0  0  0  0  0  0  0  0  0  0
    9.9228   -1.2265    2.0558 H   0  0  0  0  0  0  0  0  0  0  0  0
    7.7665   -2.4775    2.1371 H   0  0  0  0  0  0  0  0  0  0  0  0
  2  1  1  1
  1 28  1  0
  1 29  1  0
  1 30  1  0
  2  3  1  0
  2  4  1  0
  2  5  1  0
  3 31  1  0
  3 32  1  0
  3 33  1  0
  4 34  1  0
  4 35  1  0
  4 36  1  0
  5  6  1  0
  5 37  1  0
  5 38  1  0
  6  7  2  0
  6 27  1  0
  7  8  1  0
  8  9  2  0
  8 26  1  0
  9 10  1  0
  9 39  1  0
 10 11  1  0
 10 24  2  0
 11 12  1  0
 11 40  1  0
 12 13  2  0
 12 14  1  0
 14 15  1  0
 14 41  1  0
 15 16  1  0
 15 23  1  0
 15 42  1  1
 16 17  1  0
 16 43  1  0
 16 44  1  0
 17 18  1  0
 17 45  1  0
 17 46  1  0
 18 19  1  0
 18 22  1  0
 18 47  1  6
 19 20  2  0
 19 21  1  0
 21 48  1  0
 22 23  1  0
 22 49  1  0
 22 50  1  0
 23 51  1  0
 23 52  1  0
 24 25  1  0
 24 53  1  0
 25 26  2  0
 25 54  1  0
 26 27  1  0
M  END

