
     RDKit          3D

 21 23  0  0  0  0  0  0  0  0999 V2000
   -3.0111   -1.1779   -0.0001 C   0  0  0  0  0  0  0  0  0  0  0  0
   -3.3700    0.1762   -0.0029 C   0  0  0  0  0  0  0  0  0  0  0  0
   -2.4830    1.1814   -0.0048 N   0  0  0  0  0  0  0  0  0  0  0  0
   -1.2028    0.8406   -0.0039 C   0  0  0  0  0  0  0  0  0  0  0  0
   -0.7250   -0.4917   -0.0011 C   0  0  0  0  0  0  0  0  0  0  0  0
   -1.6577   -1.5316    0.0008 C   0  0  0  0  0  0  0  0  0  0  0  0
    0.7429   -0.4527   -0.0008 C   0  0  0  0  0  0  0  0  0  0  0  0
    1.7156   -1.4586    0.0015 C   0  0  0  0  0  0  0  0  0  0  0  0
    3.0230   -1.1854    0.0015 N   0  0  0  0  0  0  0  0  0  0  0  0
    3.4082    0.0948   -0.0009 C   0  0  0  0  0  0  0  0  0  0  0  0
    2.5206    1.1811   -0.0035 C   0  0  0  0  0  0  0  0  0  0  0  0
    1.1585    0.8987   -0.0034 C   0  0  0  0  0  0  0  0  0  0  0  0
   -0.0432    1.8170   -0.0057 C   0  0  0  0  0  0  0  0  0  0  0  0
   -3.7894   -1.9447    0.0013 H   0  0  0  0  0  0  0  0  0  0  0  0
   -4.4285    0.4619   -0.0037 H   0  0  0  0  0  0  0  0  0  0  0  0
   -1.3500   -2.5808    0.0029 H   0  0  0  0  0  0  0  0  0  0  0  0
    1.4359   -2.5197    0.0035 H   0  0  0  0  0  0  0  0  0  0  0  0
    4.4903    0.2743   -0.0008 H   0  0  0  0  0  0  0  0  0  0  0  0
    2.8992    2.2069   -0.0054 H   0  0  0  0  0  0  0  0  0  0  0  0
   -0.0710    2.4719   -0.8937 H   0  0  0  0  0  0  0  0  0  0  0  0
   -0.0715    2.4762    0.8790 H   0  0  0  0  0  0  0  0  0  0  0  0
  1  2  2  0
  1  6  1  0
  1 14  1  0
  2  3  1  0
  2 15  1  0
  3  4  2  0
  4  5  1  0
  4 13  1  0
  5  6  2  0
  5  7  1  0
  6 16  1  0
  7  8  2  0
  7 12  1  0
  8  9  1  0
  8 17  1  0
  9 10  2  0
 10 11  1  0
 10 18  1  0
 11 12  2  0
 11 19  1  0
 12 13  1  0
 13 20  1  0
 13 21  1  0
M  END

