
     RDKit          3D

 38 39  0  0  0  0  0  0  0  0999 V2000
    0.9275    0.2268    0.0604 C   0  0  0  0  0  0  0  0  0  0  0  0
    2.4098    0.2545   -0.2008 C   0  0  0  0  0  0  0  0  0  0  0  0
    3.3290    0.8812    0.6523 C   0  0  0  0  0  0  0  0  0  0  0  0
    4.7000    0.8879    0.3851 C   0  0  0  0  0  0  0  0  0  0  0  0
    5.2069    0.2613   -0.7624 C   0  0  0  0  0  0  0  0  0  0  0  0
    6.7045    0.2653   -1.0931 C   0  0  1  0  0  0  0  0  0  0  0  0
    7.4081    1.5201   -0.8377 N   0  0  0  0  0  0  0  0  0  0  0  0
    6.8684    2.6785   -1.4260 N   0  0  0  0  0  0  0  0  0  0  0  0
    7.5280   -0.8874   -0.4647 C   0  0  2  0  0  0  0  0  0  0  0  0
    7.2470   -2.3008   -0.9923 C   0  0  0  0  0  0  0  0  0  0  0  0
    8.2943   -3.3297   -0.5284 C   0  0  0  0  0  0  0  0  0  0  0  0
    8.4010   -3.4856    0.9972 C   0  0  0  0  0  0  0  0  0  0  0  0
    8.7198   -2.1730    1.7181 C   0  0  0  0  0  0  0  0  0  0  0  0
    7.4244   -0.9470    1.3735 S   0  0  1  0  0  0  0  0  0  0  0  0
    7.8280    0.3633    1.9234 O   0  0  0  0  0  0  0  0  0  0  0  0
    6.1493   -1.5588    1.7870 O   0  0  0  0  0  0  0  0  0  0  0  0
    4.3010   -0.3587   -1.6351 C   0  0  0  0  0  0  0  0  0  0  0  0
    2.9424   -0.3585   -1.3402 C   0  0  0  0  0  0  0  0  0  0  0  0
    2.0961   -0.9649   -2.1960 F   0  0  0  0  0  0  0  0  0  0  0  0
    0.6810    0.7614    0.9888 H   0  0  0  0  0  0  0  0  0  0  0  0
    0.5570   -0.8076    0.1507 H   0  0  0  0  0  0  0  0  0  0  0  0
    0.3650    0.6921   -0.7657 H   0  0  0  0  0  0  0  0  0  0  0  0
    2.9573    1.3720    1.5560 H   0  0  0  0  0  0  0  0  0  0  0  0
    5.3793    1.3738    1.0877 H   0  0  0  0  0  0  0  0  0  0  0  0
    6.7784    0.0815   -2.1822 H   0  0  0  0  0  0  0  0  0  0  0  0
    7.5599    1.6718    0.1588 H   0  0  0  0  0  0  0  0  0  0  0  0
    5.8431    2.6911   -1.3833 H   0  0  0  0  0  0  0  0  0  0  0  0
    7.1343    2.7056   -2.4107 H   0  0  0  0  0  0  0  0  0  0  0  0
    8.5826   -0.6160   -0.6381 H   0  0  0  0  0  0  0  0  0  0  0  0
    7.2438   -2.2594   -2.0945 H   0  0  0  0  0  0  0  0  0  0  0  0
    6.2367   -2.6104   -0.6796 H   0  0  0  0  0  0  0  0  0  0  0  0
    9.2815   -3.0411   -0.9336 H   0  0  0  0  0  0  0  0  0  0  0  0
    8.0549   -4.3100   -0.9711 H   0  0  0  0  0  0  0  0  0  0  0  0
    9.1848   -4.2209    1.2440 H   0  0  0  0  0  0  0  0  0  0  0  0
    7.4545   -3.8780    1.4026 H   0  0  0  0  0  0  0  0  0  0  0  0
    9.6757   -1.7214    1.4107 H   0  0  0  0  0  0  0  0  0  0  0  0
    8.7104   -2.2704    2.8145 H   0  0  0  0  0  0  0  0  0  0  0  0
    4.6347   -0.8433   -2.5561 H   0  0  0  0  0  0  0  0  0  0  0  0
  1  2  1  0
  1 20  1  0
  1 21  1  0
  1 22  1  0
  2  3  2  0
  2 18  1  0
  3  4  1  0
  3 23  1  0
  4  5  2  0
  4 24  1  0
  5  6  1  0
  5 17  1  0
  6  7  1  0
  6  9  1  0
  6 25  1  6
  7  8  1  0
  7 26  1  0
  8 27  1  0
  8 28  1  0
  9 10  1  0
  9 14  1  0
  9 29  1  1
 10 11  1  0
 10 30  1  0
 10 31  1  0
 11 12  1  0
 11 32  1  0
 11 33  1  0
 12 13  1  0
 12 34  1  0
 12 35  1  0
 14 13  1  1
 13 36  1  0
 13 37  1  0
 14 15  2  0
 14 16  2  0
 17 18  2  0
 17 38  1  0
 18 19  1  0
M  END

