
     RDKit          3D

 43 43  0  0  0  0  0  0  0  0999 V2000
    4.1412    0.1615    1.4420 C   0  0  0  0  0  0  0  0  0  0  0  0
    3.2580    0.0977    0.3048 N   0  0  0  0  0  0  0  0  0  0  0  0
    3.7000    0.0603   -1.0031 C   0  0  0  0  0  0  0  0  0  0  0  0
    5.0598   -0.1216   -1.3346 C   0  0  0  0  0  0  0  0  0  0  0  0
    5.4629   -0.1829   -2.6699 C   0  0  0  0  0  0  0  0  0  0  0  0
    4.5526   -0.0581   -3.7289 C   0  0  0  0  0  0  0  0  0  0  0  0
    4.9988   -0.1704   -5.1696 C   0  0  0  0  0  0  0  0  0  0  0  0
    5.0458   -1.6401   -5.6471 C   0  0  0  0  0  0  0  0  0  0  0  0
    5.5090   -1.8810   -7.0264 N   0  0  0  0  0  0  0  0  0  0  0  0
    4.6334   -1.2747   -8.0234 C   0  0  0  0  0  0  0  0  0  0  0  0
    6.9708   -1.7088   -7.1711 C   0  0  1  0  0  0  0  0  0  0  0  0
    7.6607   -2.9457   -6.5483 C   0  0  0  0  0  0  0  0  0  0  0  0
    8.8043   -2.9533   -6.1707 O   0  0  0  0  0  0  0  0  0  0  0  0
    6.8745   -4.0268   -6.5246 O   0  0  0  0  0  0  0  0  0  0  0  0
    7.4746   -1.5256   -8.6335 C   0  0  1  0  0  0  0  0  0  0  0  0
    8.9171   -0.9992   -8.6522 C   0  0  0  0  0  0  0  0  0  0  0  0
    7.3434   -2.7918   -9.4937 C   0  0  0  0  0  0  0  0  0  0  0  0
    3.2010    0.1305   -3.3915 C   0  0  0  0  0  0  0  0  0  0  0  0
    2.7788    0.1905   -2.0672 C   0  0  0  0  0  0  0  0  0  0  0  0
    3.5411    0.2065    2.3620 H   0  0  0  0  0  0  0  0  0  0  0  0
    4.8142    1.0430    1.4288 H   0  0  0  0  0  0  0  0  0  0  0  0
    4.7772   -0.7383    1.5103 H   0  0  0  0  0  0  0  0  0  0  0  0
    2.3153    0.4371    0.4417 H   0  0  0  0  0  0  0  0  0  0  0  0
    5.8103   -0.2142   -0.5485 H   0  0  0  0  0  0  0  0  0  0  0  0
    6.5263   -0.3235   -2.8890 H   0  0  0  0  0  0  0  0  0  0  0  0
    5.9953    0.2877   -5.2843 H   0  0  0  0  0  0  0  0  0  0  0  0
    4.3127    0.4051   -5.8123 H   0  0  0  0  0  0  0  0  0  0  0  0
    4.0363   -2.0747   -5.5495 H   0  0  0  0  0  0  0  0  0  0  0  0
    5.6887   -2.2135   -4.9605 H   0  0  0  0  0  0  0  0  0  0  0  0
    3.5907   -1.5045   -7.7543 H   0  0  0  0  0  0  0  0  0  0  0  0
    4.8112   -1.6968   -9.0213 H   0  0  0  0  0  0  0  0  0  0  0  0
    4.7225   -0.1727   -8.0988 H   0  0  0  0  0  0  0  0  0  0  0  0
    7.3310   -0.8336   -6.6009 H   0  0  0  0  0  0  0  0  0  0  0  0
    5.9991   -3.6894   -6.8406 H   0  0  0  0  0  0  0  0  0  0  0  0
    6.8439   -0.7391   -9.0797 H   0  0  0  0  0  0  0  0  0  0  0  0
    9.6065   -1.7050   -8.1668 H   0  0  0  0  0  0  0  0  0  0  0  0
    8.9994   -0.0363   -8.1229 H   0  0  0  0  0  0  0  0  0  0  0  0
    9.2506   -0.8421   -9.6905 H   0  0  0  0  0  0  0  0  0  0  0  0
    8.0377   -3.5778   -9.1559 H   0  0  0  0  0  0  0  0  0  0  0  0
    7.5875   -2.5658  -10.5438 H   0  0  0  0  0  0  0  0  0  0  0  0
    6.3282   -3.2172   -9.4721 H   0  0  0  0  0  0  0  0  0  0  0  0
    2.4576    0.2409   -4.1875 H   0  0  0  0  0  0  0  0  0  0  0  0
    1.7185    0.3403   -1.8414 H   0  0  0  0  0  0  0  0  0  0  0  0
  1  2  1  0
  1 20  1  0
  1 21  1  0
  1 22  1  0
  2  3  1  0
  2 23  1  0
  3  4  2  0
  3 19  1  0
  4  5  1  0
  4 24  1  0
  5  6  2  0
  5 25  1  0
  6  7  1  0
  6 18  1  0
  7  8  1  0
  7 26  1  0
  7 27  1  0
  8  9  1  0
  8 28  1  0
  8 29  1  0
  9 10  1  0
  9 11  1  0
 10 30  1  0
 10 31  1  0
 10 32  1  0
 11 12  1  0
 11 15  1  0
 11 33  1  1
 12 13  2  0
 12 14  1  0
 14 34  1  0
 15 16  1  0
 15 17  1  0
 15 35  1  6
 16 36  1  0
 16 37  1  0
 16 38  1  0
 17 39  1  0
 17 40  1  0
 17 41  1  0
 18 19  2  0
 18 42  1  0
 19 43  1  0
M  END

