
     RDKit          3D

 65 69  0  0  0  0  0  0  0  0999 V2000
    4.1911   -3.6983    1.8546 C   0  0  0  0  0  0  0  0  0  0  0  0
    4.8672   -2.8109    0.8533 C   0  0  0  0  0  0  0  0  0  0  0  0
    5.3347   -1.5263    1.1208 C   0  0  0  0  0  0  0  0  0  0  0  0
    5.9083   -1.0039   -0.0606 C   0  0  0  0  0  0  0  0  0  0  0  0
    6.5382    0.3337   -0.2653 C   0  0  0  0  0  0  0  0  0  0  0  0
    5.8081   -1.9233   -1.0387 N   0  0  0  0  0  0  0  0  0  0  0  0
    5.1729   -3.0602   -0.5302 C   0  0  0  0  0  0  0  0  0  0  0  0
    4.9413   -4.1792   -1.3529 C   0  0  0  0  0  0  0  0  0  0  0  0
    4.2608   -5.3841   -0.7868 C   0  0  0  0  0  0  0  0  0  0  0  0
    2.8681   -5.5120   -0.8316 C   0  0  0  0  0  0  0  0  0  0  0  0
    2.2204   -6.6351   -0.3041 C   0  0  0  0  0  0  0  0  0  0  0  0
    2.9742   -7.6623    0.2855 C   0  0  0  0  0  0  0  0  0  0  0  0
    2.4489   -8.7893    0.8235 O   0  0  0  0  0  0  0  0  0  0  0  0
    1.0431   -9.0010    0.7917 C   0  0  0  0  0  0  0  0  0  0  0  0
    0.7056  -10.3216    1.4755 C   0  0  0  0  0  0  0  0  0  0  0  0
    0.8176  -10.2794    2.9249 N   0  0  0  0  0  0  0  0  0  0  0  0
   -0.2106  -11.0028    3.6698 C   0  0  0  0  0  0  0  0  0  0  0  0
    0.0351  -12.5188    3.7650 C   0  0  0  0  0  0  0  0  0  0  0  0
    1.4298  -12.7981    4.3419 C   0  0  0  0  0  0  0  0  0  0  0  0
    2.5052  -12.0293    3.5617 C   0  0  0  0  0  0  0  0  0  0  0  0
    2.1546  -10.5332    3.4694 C   0  0  0  0  0  0  0  0  0  0  0  0
    4.3754   -7.5425    0.3341 C   0  0  0  0  0  0  0  0  0  0  0  0
    5.0049   -6.4203   -0.1944 C   0  0  0  0  0  0  0  0  0  0  0  0
    5.3446   -4.1775   -2.7022 C   0  0  0  0  0  0  0  0  0  0  0  0
    5.2302   -5.1716   -3.7353 C   0  0  0  0  0  0  0  0  0  0  0  0
    4.6284   -6.5434   -3.6755 C   0  0  0  0  0  0  0  0  0  0  0  0
    5.8093   -4.6091   -4.8709 C   0  0  0  0  0  0  0  0  0  0  0  0
    6.2642   -3.3115   -4.5447 C   0  0  0  0  0  0  0  0  0  0  0  0
    6.9494   -2.3257   -5.4315 C   0  0  0  0  0  0  0  0  0  0  0  0
    5.9837   -3.0620   -3.2518 N   0  0  0  0  0  0  0  0  0  0  0  0
    6.3215   -1.7418   -2.4981 B   0  0  1  0  0  0  0  0  0  0  0  0
    5.6727   -0.6659   -3.1029 F   0  0  0  0  0  0  0  0  0  0  0  0
    7.6997   -1.5307   -2.4972 F   0  0  0  0  0  0  0  0  0  0  0  0
    4.7341   -4.6439    2.0055 H   0  0  0  0  0  0  0  0  0  0  0  0
    3.1711   -3.9725    1.5444 H   0  0  0  0  0  0  0  0  0  0  0  0
    4.1248   -3.1858    2.8256 H   0  0  0  0  0  0  0  0  0  0  0  0
    5.2739   -1.0032    2.0741 H   0  0  0  0  0  0  0  0  0  0  0  0
    6.0164    0.8886   -1.0607 H   0  0  0  0  0  0  0  0  0  0  0  0
    7.5822    0.2221   -0.5977 H   0  0  0  0  0  0  0  0  0  0  0  0
    6.5133    0.9201    0.6629 H   0  0  0  0  0  0  0  0  0  0  0  0
    2.2703   -4.7185   -1.2873 H   0  0  0  0  0  0  0  0  0  0  0  0
    1.1336   -6.6949   -0.3569 H   0  0  0  0  0  0  0  0  0  0  0  0
    0.7000   -9.0292   -0.2605 H   0  0  0  0  0  0  0  0  0  0  0  0
    0.5212   -8.1785    1.3123 H   0  0  0  0  0  0  0  0  0  0  0  0
    1.3140  -11.1201    0.9996 H   0  0  0  0  0  0  0  0  0  0  0  0
   -0.3427  -10.5412    1.2151 H   0  0  0  0  0  0  0  0  0  0  0  0
   -1.1950  -10.7914    3.2211 H   0  0  0  0  0  0  0  0  0  0  0  0
   -0.2406  -10.5860    4.6947 H   0  0  0  0  0  0  0  0  0  0  0  0
   -0.0491  -12.9704    2.7593 H   0  0  0  0  0  0  0  0  0  0  0  0
   -0.7475  -12.9882    4.3860 H   0  0  0  0  0  0  0  0  0  0  0  0
    1.6440  -13.8801    4.3424 H   0  0  0  0  0  0  0  0  0  0  0  0
    1.4517  -12.4766    5.4005 H   0  0  0  0  0  0  0  0  0  0  0  0
    2.5955  -12.4521    2.5444 H   0  0  0  0  0  0  0  0  0  0  0  0
    3.4944  -12.1508    4.0355 H   0  0  0  0  0  0  0  0  0  0  0  0
    2.8920   -9.9935    2.8608 H   0  0  0  0  0  0  0  0  0  0  0  0
    2.1952  -10.0939    4.4841 H   0  0  0  0  0  0  0  0  0  0  0  0
    4.9517   -8.3489    0.7921 H   0  0  0  0  0  0  0  0  0  0  0  0
    6.0940   -6.3421   -0.1487 H   0  0  0  0  0  0  0  0  0  0  0  0
    3.5626   -6.5176   -3.4014 H   0  0  0  0  0  0  0  0  0  0  0  0
    5.1251   -7.1830   -2.9299 H   0  0  0  0  0  0  0  0  0  0  0  0
    4.7156   -7.0338   -4.6563 H   0  0  0  0  0  0  0  0  0  0  0  0
    5.9017   -5.0794   -5.8488 H   0  0  0  0  0  0  0  0  0  0  0  0
    7.0766   -2.7364   -6.4421 H   0  0  0  0  0  0  0  0  0  0  0  0
    7.9355   -2.0570   -5.0212 H   0  0  0  0  0  0  0  0  0  0  0  0
    6.3710   -1.3903   -5.4889 H   0  0  0  0  0  0  0  0  0  0  0  0
  1  2  1  0
  1 34  1  0
  1 35  1  0
  1 36  1  0
  2  3  1  0
  2  7  2  0
  3  4  2  0
  3 37  1  0
  4  5  1  0
  4  6  1  0
  5 38  1  0
  5 39  1  0
  5 40  1  0
  6  7  1  0
  6 31  1  0
  7  8  1  0
  8  9  1  0
  8 24  2  0
  9 10  2  0
  9 23  1  0
 10 11  1  0
 10 41  1  0
 11 12  2  0
 11 42  1  0
 12 13  1  0
 12 22  1  0
 13 14  1  0
 14 15  1  0
 14 43  1  0
 14 44  1  0
 15 16  1  0
 15 45  1  0
 15 46  1  0
 16 17  1  0
 16 21  1  0
 17 18  1  0
 17 47  1  0
 17 48  1  0
 18 19  1  0
 18 49  1  0
 18 50  1  0
 19 20  1  0
 19 51  1  0
 19 52  1  0
 20 21  1  0
 20 53  1  0
 20 54  1  0
 21 55  1  0
 21 56  1  0
 22 23  2  0
 22 57  1  0
 23 58  1  0
 24 25  1  0
 24 30  1  0
 25 26  1  0
 25 27  2  0
 26 59  1  0
 26 60  1  0
 26 61  1  0
 27 28  1  0
 27 62  1  0
 28 29  1  0
 28 30  2  0
 29 63  1  0
 29 64  1  0
 29 65  1  0
 30 31  1  0
 31 32  1  6
 31 33  1  0
M  CHG  2  30   1  31  -1
M  END

