
     RDKit          3D

 84 88  0  0  0  0  0  0  0  0999 V2000
    4.5934   -0.0897    5.2395 C   0  0  0  0  0  0  0  0  0  0  0  0
    5.2708   -1.2245    4.9285 C   0  0  0  0  0  0  0  0  0  0  0  0
    4.4991   -2.2260    4.0251 C   0  0  2  0  0  0  0  0  0  0  0  0
    3.5220   -1.7317    4.0143 H   0  0  0  0  0  0  0  0  0  0  0  0
    4.0535   -3.6741    4.4837 C   0  0  1  0  0  0  0  0  0  0  0  0
    3.5378   -3.5775    5.9315 C   0  0  0  0  0  0  0  0  0  0  0  0
    2.8627   -4.0558    3.5717 C   0  0  0  0  0  0  0  0  0  0  0  0
    5.0864   -4.8124    4.3653 C   0  0  0  0  0  0  0  0  0  0  0  0
    4.8722   -2.1189    2.5993 N   0  0  0  0  0  0  0  0  0  0  0  0
    5.9710   -2.3227    1.8123 C   0  0  0  0  0  0  0  0  0  0  0  0
    6.0117   -1.9256    0.6653 O   0  0  0  0  0  0  0  0  0  0  0  0
    6.9949   -3.0109    2.3912 O   0  0  0  0  0  0  0  0  0  0  0  0
    8.1055   -3.2133    1.5295 C   0  0  2  0  0  0  0  0  0  0  0  0
    8.2024   -2.4108    0.7961 H   0  0  0  0  0  0  0  0  0  0  0  0
    8.4794   -4.5985    1.0918 C   0  0  0  0  0  0  0  0  0  0  0  0
    9.3541   -3.8319    2.0686 C   0  0  1  0  0  0  0  0  0  0  0  0
    9.2993   -4.1923    3.1020 H   0  0  0  0  0  0  0  0  0  0  0  0
   10.6893   -3.2215    1.6701 C   0  0  0  0  0  0  0  0  0  0  0  0
   10.9949   -1.9919    2.5298 C   0  0  0  0  0  0  0  0  0  0  0  0
   12.2070   -1.1357    2.1170 C   0  0  0  0  0  0  0  0  0  0  0  0
   12.3150    0.0451    2.9769 C   0  0  0  0  0  0  0  0  0  0  0  0
   12.2941    0.9740    3.7623 C   0  0  0  0  0  0  0  0  0  0  0  0
   12.3461    2.0786    4.6830 C   0  0  0  0  0  0  0  0  0  0  0  0
   13.3866    2.8885    4.5410 N   0  0  0  0  0  0  0  0  0  0  0  0
   13.5189    3.9386    5.3778 C   0  0  0  0  0  0  0  0  0  0  0  0
   14.6188    4.8278    5.2515 C   0  0  0  0  0  0  0  0  0  0  0  0
   14.7589    5.8980    6.1099 C   0  0  0  0  0  0  0  0  0  0  0  0
   13.7983    6.1269    7.1407 C   0  0  0  0  0  0  0  0  0  0  0  0
   13.8789    7.1579    8.0154 O   0  0  0  0  0  0  0  0  0  0  0  0
   14.9494    8.0735    7.9359 C   0  0  0  0  0  0  0  0  0  0  0  0
   12.7138    5.2710    7.2844 C   0  0  0  0  0  0  0  0  0  0  0  0
   12.5568    4.1728    6.4109 C   0  0  0  0  0  0  0  0  0  0  0  0
   11.4966    3.3341    6.5458 N   0  0  0  0  0  0  0  0  0  0  0  0
   11.3542    2.3139    5.7264 C   0  0  0  0  0  0  0  0  0  0  0  0
   10.0842    1.5064    5.9815 C   0  0  0  0  0  0  0  0  0  0  0  0
    9.9789    0.0572    5.5041 C   0  0  0  0  0  0  0  0  0  0  0  0
    8.7895   -0.7228    6.0820 C   0  0  2  0  0  0  0  0  0  0  0  0
    8.8720   -0.7228    7.1822 H   0  0  0  0  0  0  0  0  0  0  0  0
    8.7732   -2.1813    5.5862 C   0  0  0  0  0  0  0  0  0  0  0  0
    7.2914   -2.5869    5.6170 C   0  0  1  0  0  0  0  0  0  0  0  0
    7.0998   -3.3785    4.8867 H   0  0  0  0  0  0  0  0  0  0  0  0
    6.9505   -3.1631    6.9961 C   0  0  0  0  0  0  0  0  0  0  0  0
    7.1207   -4.3209    7.2956 O   0  0  0  0  0  0  0  0  0  0  0  0
    6.4884   -2.2367    7.8544 O   0  0  0  0  0  0  0  0  0  0  0  0
    6.1886   -2.6888    9.1774 C   0  0  0  0  0  0  0  0  0  0  0  0
    6.6207   -1.3563    5.2463 N   0  0  0  0  0  0  0  0  0  0  0  0
    7.3826   -0.1915    5.7086 C   0  0  0  0  0  0  0  0  0  0  0  0
    3.5728    0.0628    4.8877 H   0  0  0  0  0  0  0  0  0  0  0  0
    5.0299    0.7200    5.8226 H   0  0  0  0  0  0  0  0  0  0  0  0
    3.1705   -4.5592    6.2711 H   0  0  0  0  0  0  0  0  0  0  0  0
    2.7068   -2.8583    6.0156 H   0  0  0  0  0  0  0  0  0  0  0  0
    4.3192   -3.2484    6.6303 H   0  0  0  0  0  0  0  0  0  0  0  0
    2.4334   -5.0192    3.8881 H   0  0  0  0  0  0  0  0  0  0  0  0
    3.1773   -4.1551    2.5220 H   0  0  0  0  0  0  0  0  0  0  0  0
    2.0578   -3.3028    3.6160 H   0  0  0  0  0  0  0  0  0  0  0  0
    4.5626   -5.7791    4.4394 H   0  0  0  0  0  0  0  0  0  0  0  0
    5.8337   -4.8093    5.1678 H   0  0  0  0  0  0  0  0  0  0  0  0
    5.6053   -4.7891    3.3974 H   0  0  0  0  0  0  0  0  0  0  0  0
    4.2161   -1.5644    2.0618 H   0  0  0  0  0  0  0  0  0  0  0  0
    8.8165   -4.7390    0.0601 H   0  0  0  0  0  0  0  0  0  0  0  0
    7.8989   -5.4290    1.5019 H   0  0  0  0  0  0  0  0  0  0  0  0
   10.6527   -2.9365    0.6034 H   0  0  0  0  0  0  0  0  0  0  0  0
   11.4954   -3.9718    1.7608 H   0  0  0  0  0  0  0  0  0  0  0  0
   11.1335   -2.3058    3.5766 H   0  0  0  0  0  0  0  0  0  0  0  0
   10.1063   -1.3401    2.5226 H   0  0  0  0  0  0  0  0  0  0  0  0
   12.1097   -0.8201    1.0620 H   0  0  0  0  0  0  0  0  0  0  0  0
   13.1401   -1.7255    2.1713 H   0  0  0  0  0  0  0  0  0  0  0  0
   15.3440    4.6361    4.4581 H   0  0  0  0  0  0  0  0  0  0  0  0
   15.6112    6.5675    5.9938 H   0  0  0  0  0  0  0  0  0  0  0  0
   14.7914    8.8050    8.7396 H   0  0  0  0  0  0  0  0  0  0  0  0
   14.9665    8.6070    6.9686 H   0  0  0  0  0  0  0  0  0  0  0  0
   15.9266    7.5819    8.0904 H   0  0  0  0  0  0  0  0  0  0  0  0
   11.9771    5.4424    8.0699 H   0  0  0  0  0  0  0  0  0  0  0  0
    9.2515    2.0946    5.5517 H   0  0  0  0  0  0  0  0  0  0  0  0
    9.9314    1.5601    7.0714 H   0  0  0  0  0  0  0  0  0  0  0  0
   10.9018   -0.4872    5.7654 H   0  0  0  0  0  0  0  0  0  0  0  0
    9.9108    0.0303    4.4079 H   0  0  0  0  0  0  0  0  0  0  0  0
    9.4131   -2.8545    6.1756 H   0  0  0  0  0  0  0  0  0  0  0  0
    9.1052   -2.2230    4.5417 H   0  0  0  0  0  0  0  0  0  0  0  0
    5.8361   -1.8087    9.7287 H   0  0  0  0  0  0  0  0  0  0  0  0
    7.0842   -3.1110    9.6575 H   0  0  0  0  0  0  0  0  0  0  0  0
    5.4075   -3.4632    9.1537 H   0  0  0  0  0  0  0  0  0  0  0  0
    6.9126    0.2844    6.5871 H   0  0  0  0  0  0  0  0  0  0  0  0
    7.4036    0.5655    4.9031 H   0  0  0  0  0  0  0  0  0  0  0  0
  1  2  2  0
  1 48  1  0
  1 49  1  0
  2  3  1  0
  2 46  1  0
  3  4  1  6
  3  5  1  0
  3  9  1  0
  5  6  1  1
  5  7  1  0
  5  8  1  0
  6 50  1  0
  6 51  1  0
  6 52  1  0
  7 53  1  0
  7 54  1  0
  7 55  1  0
  8 56  1  0
  8 57  1  0
  8 58  1  0
  9 10  1  0
  9 59  1  0
 10 11  2  0
 10 12  1  0
 12 13  1  0
 13 14  1  6
 13 15  1  0
 13 16  1  0
 15 16  1  0
 15 60  1  0
 15 61  1  0
 16 17  1  1
 16 18  1  0
 18 19  1  0
 18 62  1  0
 18 63  1  0
 19 20  1  0
 19 64  1  0
 19 65  1  0
 20 21  1  0
 20 66  1  0
 20 67  1  0
 21 22  3  0
 22 23  1  0
 23 24  2  0
 23 34  1  0
 24 25  1  0
 25 26  2  0
 25 32  1  0
 26 27  1  0
 26 68  1  0
 27 28  2  0
 27 69  1  0
 28 29  1  0
 28 31  1  0
 29 30  1  0
 30 70  1  0
 30 71  1  0
 30 72  1  0
 31 32  2  0
 31 73  1  0
 32 33  1  0
 33 34  2  0
 34 35  1  0
 35 36  1  0
 35 74  1  0
 35 75  1  0
 36 37  1  0
 36 76  1  0
 36 77  1  0
 37 38  1  1
 37 39  1  0
 37 47  1  0
 39 40  1  0
 39 78  1  0
 39 79  1  0
 40 41  1  6
 40 42  1  0
 40 46  1  0
 42 43  2  0
 42 44  1  0
 44 45  1  0
 45 80  1  0
 45 81  1  0
 45 82  1  0
 46 47  1  0
 47 83  1  0
 47 84  1  0
M  END

