
     RDKit          3D

 44 45  0  0  0  0  0  0  0  0999 V2000
    4.7223    1.3980    0.5153 C   0  0  0  0  0  0  0  0  0  0  0  0
    3.4281    1.0267   -0.2168 C   0  0  1  0  0  0  0  0  0  0  0  0
    2.5122    0.1470    0.6412 C   0  0  0  0  0  0  0  0  0  0  0  0
    2.6895    2.2856   -0.6771 C   0  0  0  0  0  0  0  0  0  0  0  0
    3.7387    0.3518   -1.4786 O   0  0  0  0  0  0  0  0  0  0  0  0
    4.4038   -0.8245   -1.5124 C   0  0  0  0  0  0  0  0  0  0  0  0
    4.8009   -1.4271   -0.5310 O   0  0  0  0  0  0  0  0  0  0  0  0
    4.5756   -1.2663   -2.7999 N   0  0  0  0  0  0  0  0  0  0  0  0
    5.3037   -2.5071   -3.0340 C   0  0  0  0  0  0  0  0  0  0  0  0
    4.4887   -3.4658   -3.9065 C   0  0  0  0  0  0  0  0  0  0  0  0
    4.0262   -2.7916   -5.2169 C   0  0  2  0  0  0  0  0  0  0  0  0
    5.1525   -2.6025   -6.2251 C   0  0  0  0  0  0  0  0  0  0  0  0
    5.4105   -1.5947   -6.8225 O   0  0  0  0  0  0  0  0  0  0  0  0
    5.8582   -3.7671   -6.3909 O   0  0  0  0  0  0  0  0  0  0  0  0
    6.7604   -3.8624   -7.4378 C   0  0  0  0  0  0  0  0  0  0  0  0
    8.1185   -3.9961   -7.1328 C   0  0  0  0  0  0  0  0  0  0  0  0
    9.0007   -4.1604   -8.2000 C   0  0  0  0  0  0  0  0  0  0  0  0
    8.4929   -4.1779   -9.5029 C   0  0  0  0  0  0  0  0  0  0  0  0
    7.1140   -4.0349   -9.6765 C   0  0  0  0  0  0  0  0  0  0  0  0
    6.2611   -3.8852   -8.6589 N   0  0  0  0  0  0  0  0  0  0  0  0
    3.3161   -1.4620   -4.9146 C   0  0  0  0  0  0  0  0  0  0  0  0
    4.1493   -0.5528   -4.0014 C   0  0  0  0  0  0  0  0  0  0  0  0
    4.4857    2.0028    1.4048 H   0  0  0  0  0  0  0  0  0  0  0  0
    5.3739    1.9967   -0.1406 H   0  0  0  0  0  0  0  0  0  0  0  0
    5.2670    0.4996    0.8313 H   0  0  0  0  0  0  0  0  0  0  0  0
    2.1918    0.7047    1.5352 H   0  0  0  0  0  0  0  0  0  0  0  0
    3.0296   -0.7666    0.9592 H   0  0  0  0  0  0  0  0  0  0  0  0
    1.6107   -0.1338    0.0738 H   0  0  0  0  0  0  0  0  0  0  0  0
    2.3958    2.8946    0.1914 H   0  0  0  0  0  0  0  0  0  0  0  0
    1.7810    2.0194   -1.2387 H   0  0  0  0  0  0  0  0  0  0  0  0
    3.3324    2.8960   -1.3294 H   0  0  0  0  0  0  0  0  0  0  0  0
    5.5303   -2.9530   -2.0582 H   0  0  0  0  0  0  0  0  0  0  0  0
    6.2696   -2.2779   -3.5281 H   0  0  0  0  0  0  0  0  0  0  0  0
    3.5932   -3.7822   -3.3466 H   0  0  0  0  0  0  0  0  0  0  0  0
    5.0753   -4.3697   -4.1258 H   0  0  0  0  0  0  0  0  0  0  0  0
    3.3241   -3.4776   -5.7245 H   0  0  0  0  0  0  0  0  0  0  0  0
    8.4549   -3.9713   -6.0953 H   0  0  0  0  0  0  0  0  0  0  0  0
   10.0725   -4.2701   -8.0164 H   0  0  0  0  0  0  0  0  0  0  0  0
    9.1494   -4.3014  -10.3666 H   0  0  0  0  0  0  0  0  0  0  0  0
    6.6760   -4.0467  -10.6810 H   0  0  0  0  0  0  0  0  0  0  0  0
    2.3569   -1.6860   -4.4190 H   0  0  0  0  0  0  0  0  0  0  0  0
    3.0936   -0.9294   -5.8510 H   0  0  0  0  0  0  0  0  0  0  0  0
    3.5720    0.3282   -3.7043 H   0  0  0  0  0  0  0  0  0  0  0  0
    5.0398   -0.1993   -4.5531 H   0  0  0  0  0  0  0  0  0  0  0  0
  1  2  1  0
  1 23  1  0
  1 24  1  0
  1 25  1  0
  2  3  1  0
  2  4  1  0
  2  5  1  6
  3 26  1  0
  3 27  1  0
  3 28  1  0
  4 29  1  0
  4 30  1  0
  4 31  1  0
  5  6  1  0
  6  7  2  0
  6  8  1  0
  8  9  1  0
  8 22  1  0
  9 10  1  0
  9 32  1  0
  9 33  1  0
 10 11  1  0
 10 34  1  0
 10 35  1  0
 11 12  1  0
 11 21  1  0
 11 36  1  6
 12 13  2  0
 12 14  1  0
 14 15  1  0
 15 16  2  0
 15 20  1  0
 16 17  1  0
 16 37  1  0
 17 18  2  0
 17 38  1  0
 18 19  1  0
 18 39  1  0
 19 20  2  0
 19 40  1  0
 21 22  1  0
 21 41  1  0
 21 42  1  0
 22 43  1  0
 22 44  1  0
M  END

