
     RDKit          3D

 34 35  0  0  0  0  0  0  0  0999 V2000
    1.4031   -0.8235   -0.6675 C   0  0  0  0  0  0  0  0  0  0  0  0
    2.8245   -0.7959   -0.5801 O   0  0  0  0  0  0  0  0  0  0  0  0
    3.3288   -0.5770    0.6416 C   0  0  0  0  0  0  0  0  0  0  0  0
    2.6545   -0.4087    1.6267 O   0  0  0  0  0  0  0  0  0  0  0  0
    4.8496   -0.5650    0.6408 C   0  0  0  0  0  0  0  0  0  0  0  0
    5.4821   -0.7872   -0.5086 N   0  0  0  0  0  0  0  0  0  0  0  0
    6.8234   -0.7652   -0.4393 C   0  0  0  0  0  0  0  0  0  0  0  0
    7.5183   -0.5279    0.7330 C   0  0  0  0  0  0  0  0  0  0  0  0
    6.7410   -0.3029    1.9020 C   0  0  0  0  0  0  0  0  0  0  0  0
    7.3123   -0.0487    3.1066 N   0  0  0  0  0  0  0  0  0  0  0  0
    6.5668    0.1793    4.3450 C   0  0  1  0  0  0  0  0  0  0  0  0
    6.1516   -1.1397    5.0082 C   0  0  0  0  0  0  0  0  0  0  0  0
    7.3796    1.0733    5.2939 C   0  0  0  0  0  0  0  0  0  0  0  0
    7.7415    2.4349    4.7330 C   0  0  1  0  0  0  0  0  0  0  0  0
    8.7848    3.2876    5.4081 C   0  0  0  0  0  0  0  0  0  0  0  0
    9.0668    2.6861    4.0541 C   0  0  0  0  0  0  0  0  0  0  0  0
    5.4014   -0.3310    1.8301 N   0  0  0  0  0  0  0  0  0  0  0  0
    1.1645   -1.0084   -1.7222 H   0  0  0  0  0  0  0  0  0  0  0  0
    0.9697    0.1343   -0.3398 H   0  0  0  0  0  0  0  0  0  0  0  0
    0.9852   -1.6226   -0.0355 H   0  0  0  0  0  0  0  0  0  0  0  0
    7.3658   -0.9468   -1.3748 H   0  0  0  0  0  0  0  0  0  0  0  0
    8.6102   -0.5121    0.7570 H   0  0  0  0  0  0  0  0  0  0  0  0
    8.3231   -0.0610    3.1549 H   0  0  0  0  0  0  0  0  0  0  0  0
    5.6477    0.7119    4.0537 H   0  0  0  0  0  0  0  0  0  0  0  0
    7.0345   -1.7364    5.2932 H   0  0  0  0  0  0  0  0  0  0  0  0
    5.5327   -1.7324    4.3194 H   0  0  0  0  0  0  0  0  0  0  0  0
    5.5591   -0.9483    5.9172 H   0  0  0  0  0  0  0  0  0  0  0  0
    8.2995    0.5426    5.6073 H   0  0  0  0  0  0  0  0  0  0  0  0
    6.7834    1.2021    6.2136 H   0  0  0  0  0  0  0  0  0  0  0  0
    6.8871    2.9780    4.3118 H   0  0  0  0  0  0  0  0  0  0  0  0
    9.3064    2.8659    6.2733 H   0  0  0  0  0  0  0  0  0  0  0  0
    8.6141    4.3658    5.4749 H   0  0  0  0  0  0  0  0  0  0  0  0
    9.7897    1.8643    4.0091 H   0  0  0  0  0  0  0  0  0  0  0  0
    9.0916    3.3451    3.1816 H   0  0  0  0  0  0  0  0  0  0  0  0
  1  2  1  0
  1 18  1  0
  1 19  1  0
  1 20  1  0
  2  3  1  0
  3  4  2  0
  3  5  1  0
  5  6  2  0
  5 17  1  0
  6  7  1  0
  7  8  2  0
  7 21  1  0
  8  9  1  0
  8 22  1  0
  9 10  1  0
  9 17  2  0
 10 11  1  0
 10 23  1  0
 11 12  1  0
 11 13  1  0
 11 24  1  6
 12 25  1  0
 12 26  1  0
 12 27  1  0
 13 14  1  0
 13 28  1  0
 13 29  1  0
 14 15  1  0
 14 16  1  0
 14 30  1  6
 15 16  1  0
 15 31  1  0
 15 32  1  0
 16 33  1  0
 16 34  1  0
M  END

