
     RDKit          3D

 49 50  0  0  0  0  0  0  0  0999 V2000
    2.4114   -2.0607    0.4336 C   0  0  0  0  0  0  0  0  0  0  0  0
    3.1624   -0.7314    0.3613 C   0  0  0  0  0  0  0  0  0  0  0  0
    3.9727   -0.4222    1.6205 C   0  0  0  0  0  0  0  0  0  0  0  0
    4.7012    0.8293    1.4852 N   0  0  0  0  0  0  0  0  0  0  0  0
    5.4012    1.3156    2.6796 C   0  0  1  0  0  0  0  0  0  0  0  0
    6.6041    0.4038    2.9977 C   0  0  0  0  0  0  0  0  0  0  0  0
    7.7072    0.4999    1.9386 C   0  0  0  0  0  0  0  0  0  0  0  0
    8.1904    1.9454    1.7736 C   0  0  0  0  0  0  0  0  0  0  0  0
    7.0256    2.8980    1.4604 C   0  0  0  0  0  0  0  0  0  0  0  0
    5.8076    2.7967    2.4166 C   0  0  2  0  0  0  0  0  0  0  0  0
    5.8573    3.6177    3.6438 N   0  0  0  0  0  0  0  0  0  0  0  0
    7.0510    3.5566    4.4694 C   0  0  0  0  0  0  0  0  0  0  0  0
    5.4162    4.9877    3.4182 C   0  0  0  0  0  0  0  0  0  0  0  0
    3.9217    5.1370    3.1793 C   0  0  0  0  0  0  0  0  0  0  0  0
    2.9910    4.3204    3.8419 C   0  0  0  0  0  0  0  0  0  0  0  0
    1.6346    4.5474    3.6194 C   0  0  0  0  0  0  0  0  0  0  0  0
    1.2497    5.5730    2.7521 C   0  0  0  0  0  0  0  0  0  0  0  0
    2.2446    6.3424    2.1309 C   0  0  0  0  0  0  0  0  0  0  0  0
    1.9078    7.4646    1.1815 C   0  0  0  0  0  0  0  0  0  0  0  0
    3.5488    6.1144    2.3475 N   0  0  0  0  0  0  0  0  0  0  0  0
    1.8354   -2.2472   -0.4865 H   0  0  0  0  0  0  0  0  0  0  0  0
    1.7026   -2.0795    1.2784 H   0  0  0  0  0  0  0  0  0  0  0  0
    3.1057   -2.9072    0.5671 H   0  0  0  0  0  0  0  0  0  0  0  0
    2.4415    0.0896    0.1864 H   0  0  0  0  0  0  0  0  0  0  0  0
    3.8477   -0.7238   -0.5034 H   0  0  0  0  0  0  0  0  0  0  0  0
    4.6876   -1.2458    1.7894 H   0  0  0  0  0  0  0  0  0  0  0  0
    3.2927   -0.4258    2.5059 H   0  0  0  0  0  0  0  0  0  0  0  0
    4.0511    1.5491    1.1711 H   0  0  0  0  0  0  0  0  0  0  0  0
    4.7288    1.3232    3.5649 H   0  0  0  0  0  0  0  0  0  0  0  0
    6.2603   -0.6380    3.1010 H   0  0  0  0  0  0  0  0  0  0  0  0
    7.0070    0.6747    3.9871 H   0  0  0  0  0  0  0  0  0  0  0  0
    7.3099    0.1348    0.9768 H   0  0  0  0  0  0  0  0  0  0  0  0
    8.5508   -0.1578    2.2082 H   0  0  0  0  0  0  0  0  0  0  0  0
    8.9359    2.0069    0.9623 H   0  0  0  0  0  0  0  0  0  0  0  0
    8.7160    2.2615    2.6901 H   0  0  0  0  0  0  0  0  0  0  0  0
    6.6581    2.6604    0.4484 H   0  0  0  0  0  0  0  0  0  0  0  0
    7.3765    3.9433    1.4213 H   0  0  0  0  0  0  0  0  0  0  0  0
    4.9543    3.2218    1.8645 H   0  0  0  0  0  0  0  0  0  0  0  0
    7.3151    2.5177    4.7041 H   0  0  0  0  0  0  0  0  0  0  0  0
    6.8564    4.0646    5.4282 H   0  0  0  0  0  0  0  0  0  0  0  0
    7.9463    4.0399    4.0199 H   0  0  0  0  0  0  0  0  0  0  0  0
    5.9355    5.4975    2.5799 H   0  0  0  0  0  0  0  0  0  0  0  0
    5.6636    5.5745    4.3207 H   0  0  0  0  0  0  0  0  0  0  0  0
    3.3473    3.5314    4.5060 H   0  0  0  0  0  0  0  0  0  0  0  0
    0.8795    3.9330    4.1179 H   0  0  0  0  0  0  0  0  0  0  0  0
    0.1941    5.7749    2.5558 H   0  0  0  0  0  0  0  0  0  0  0  0
    0.8229    7.5845    1.0497 H   0  0  0  0  0  0  0  0  0  0  0  0
    2.3665    7.2808    0.1966 H   0  0  0  0  0  0  0  0  0  0  0  0
    2.3261    8.4146    1.5518 H   0  0  0  0  0  0  0  0  0  0  0  0
  1  2  1  0
  1 21  1  0
  1 22  1  0
  1 23  1  0
  2  3  1  0
  2 24  1  0
  2 25  1  0
  3  4  1  0
  3 26  1  0
  3 27  1  0
  4  5  1  0
  4 28  1  0
  5  6  1  0
  5 10  1  0
  5 29  1  1
  6  7  1  0
  6 30  1  0
  6 31  1  0
  7  8  1  0
  7 32  1  0
  7 33  1  0
  8  9  1  0
  8 34  1  0
  8 35  1  0
  9 10  1  0
  9 36  1  0
  9 37  1  0
 10 11  1  0
 10 38  1  6
 11 12  1  0
 11 13  1  0
 12 39  1  0
 12 40  1  0
 12 41  1  0
 13 14  1  0
 13 42  1  0
 13 43  1  0
 14 15  2  0
 14 20  1  0
 15 16  1  0
 15 44  1  0
 16 17  2  0
 16 45  1  0
 17 18  1  0
 17 46  1  0
 18 19  1  0
 18 20  2  0
 19 47  1  0
 19 48  1  0
 19 49  1  0
M  END

