
     RDKit          3D

 35 36  0  0  0  0  0  0  0  0999 V2000
    2.5123    1.0372   -0.5598 C   0  0  0  0  0  0  0  0  0  0  0  0
    2.1741   -0.2649   -0.1337 O   0  0  0  0  0  0  0  0  0  0  0  0
    2.8572   -1.3319   -0.6284 C   0  0  0  0  0  0  0  0  0  0  0  0
    3.9031   -1.2568   -1.5494 C   0  0  0  0  0  0  0  0  0  0  0  0
    4.5366   -2.4223   -1.9912 C   0  0  0  0  0  0  0  0  0  0  0  0
    4.1411   -3.6818   -1.5169 C   0  0  0  0  0  0  0  0  0  0  0  0
    4.7983   -4.9142   -1.9729 C   0  0  0  0  0  0  0  0  0  0  0  0
    4.3501   -6.2209   -1.9067 C   0  0  0  0  0  0  0  0  0  0  0  0
    5.3023   -7.1183   -2.4674 C   0  0  0  0  0  0  0  0  0  0  0  0
    6.4163   -6.5983   -2.9384 N   0  0  0  0  0  0  0  0  0  0  0  0
    6.3759   -4.9415   -2.7152 S   0  0  0  0  0  0  0  0  0  0  0  0
    3.0838   -3.7532   -0.5855 C   0  0  0  0  0  0  0  0  0  0  0  0
    2.4371   -2.5987   -0.1398 C   0  0  0  0  0  0  0  0  0  0  0  0
    1.3842   -2.5973    0.7822 N   0  0  0  0  0  0  0  0  0  0  0  0
    0.7806   -3.6566    1.3933 C   0  0  0  0  0  0  0  0  0  0  0  0
    1.0601   -4.8352    1.2356 O   0  0  0  0  0  0  0  0  0  0  0  0
   -0.3857   -3.2460    2.3104 C   0  0  1  0  0  0  0  0  0  0  0  0
   -0.2949   -3.9070    3.1970 H   0  0  0  0  0  0  0  0  0  0  0  0
   -0.3828   -1.8256    2.6314 N   0  0  0  0  0  0  0  0  0  0  0  0
   -1.7087   -3.6021    1.6074 C   0  0  0  0  0  0  0  0  0  0  0  0
   -2.8323   -3.2498    2.3882 O   0  0  0  0  0  0  0  0  0  0  0  0
    1.8355    1.7237   -0.0345 H   0  0  0  0  0  0  0  0  0  0  0  0
    2.3737    1.1579   -1.6488 H   0  0  0  0  0  0  0  0  0  0  0  0
    3.5557    1.2919   -0.3019 H   0  0  0  0  0  0  0  0  0  0  0  0
    4.2292   -0.2919   -1.9376 H   0  0  0  0  0  0  0  0  0  0  0  0
    5.3383   -2.3394   -2.7287 H   0  0  0  0  0  0  0  0  0  0  0  0
    3.3853   -6.5222   -1.4990 H   0  0  0  0  0  0  0  0  0  0  0  0
    5.1635   -8.2027   -2.5332 H   0  0  0  0  0  0  0  0  0  0  0  0
    2.7541   -4.7074   -0.1823 H   0  0  0  0  0  0  0  0  0  0  0  0
    0.9936   -1.6899    1.0454 H   0  0  0  0  0  0  0  0  0  0  0  0
    0.2125   -1.6263    3.4345 H   0  0  0  0  0  0  0  0  0  0  0  0
   -1.3316   -1.5418    2.8810 H   0  0  0  0  0  0  0  0  0  0  0  0
   -1.6930   -4.6724    1.3388 H   0  0  0  0  0  0  0  0  0  0  0  0
   -1.7850   -3.0179    0.6757 H   0  0  0  0  0  0  0  0  0  0  0  0
   -2.9003   -3.8742    3.1232 H   0  0  0  0  0  0  0  0  0  0  0  0
  1  2  1  0
  1 22  1  0
  1 23  1  0
  1 24  1  0
  2  3  1  0
  3  4  2  0
  3 13  1  0
  4  5  1  0
  4 25  1  0
  5  6  2  0
  5 26  1  0
  6  7  1  0
  6 12  1  0
  7  8  2  0
  7 11  1  0
  8  9  1  0
  8 27  1  0
  9 10  2  0
  9 28  1  0
 10 11  1  0
 12 13  2  0
 12 29  1  0
 13 14  1  0
 14 15  1  0
 14 30  1  0
 15 16  2  0
 15 17  1  0
 17 18  1  1
 17 19  1  0
 17 20  1  0
 19 31  1  0
 19 32  1  0
 20 21  1  0
 20 33  1  0
 20 34  1  0
 21 35  1  0
M  END

