
     RDKit          3D

 16 16  0  0  0  0  0  0  0  0999 V2000
    2.2654    1.2865   -0.2196 O   0  0  0  0  0  0  0  0  0  0  0  0
    2.2347    0.0939    0.0455 N   0  0  0  0  0  0  0  0  0  0  0  0
    1.5980   -0.7415   -0.5775 O   0  0  0  0  0  0  0  0  0  0  0  0
    3.0226   -0.3690    1.2012 C   0  0  0  0  0  0  0  0  0  0  0  0
    3.7562    0.5617    1.9356 C   0  0  0  0  0  0  0  0  0  0  0  0
    4.4985    0.1104    3.0287 C   0  0  0  0  0  0  0  0  0  0  0  0
    4.4983   -1.2434    3.3681 C   0  0  0  0  0  0  0  0  0  0  0  0
    5.1868   -1.7796    4.4120 O   0  0  0  0  0  0  0  0  0  0  0  0
    3.7480   -2.1755    2.6117 C   0  0  0  0  0  0  0  0  0  0  0  0
    3.7545   -3.4830    2.9479 O   0  0  0  0  0  0  0  0  0  0  0  0
    3.0063   -1.7303    1.5215 C   0  0  0  0  0  0  0  0  0  0  0  0
    3.7374    1.6112    1.6466 H   0  0  0  0  0  0  0  0  0  0  0  0
    5.0842    0.8163    3.6251 H   0  0  0  0  0  0  0  0  0  0  0  0
    5.6847   -1.0996    4.8842 H   0  0  0  0  0  0  0  0  0  0  0  0
    4.3244   -3.5940    3.7247 H   0  0  0  0  0  0  0  0  0  0  0  0
    2.4229   -2.4322    0.9278 H   0  0  0  0  0  0  0  0  0  0  0  0
  1  2  2  0
  2  3  1  0
  2  4  1  0
  4  5  2  0
  4 11  1  0
  5  6  1  0
  5 12  1  0
  6  7  2  0
  6 13  1  0
  7  8  1  0
  7  9  1  0
  8 14  1  0
  9 10  1  0
  9 11  2  0
 10 15  1  0
 11 16  1  0
M  CHG  2   2   1   3  -1
M  END

