
     RDKit          3D

 39 41  0  0  0  0  0  0  0  0999 V2000
    1.2925    0.1009   -0.4518 C   0  0  0  0  0  0  0  0  0  0  0  0
    2.5054    0.0996   -0.3971 C   0  0  0  0  0  0  0  0  0  0  0  0
    3.9368    0.1063   -0.3326 C   0  0  0  0  0  0  0  0  0  0  0  0
    4.6474    1.3319   -0.4692 C   0  0  0  0  0  0  0  0  0  0  0  0
    6.0332    1.3747   -0.4118 C   0  0  0  0  0  0  0  0  0  0  0  0
    6.7327    0.1754   -0.2146 C   0  0  0  0  0  0  0  0  0  0  0  0
    8.4641   -0.0337   -0.1060 S   0  0  0  0  0  0  0  0  0  0  0  0
    8.2762   -1.7726    0.1245 C   0  0  0  0  0  0  0  0  0  0  0  0
    9.4028   -2.7236    0.3070 C   0  0  0  0  0  0  0  0  0  0  0  0
    9.2154   -3.9180    0.4746 O   0  0  0  0  0  0  0  0  0  0  0  0
   10.6720   -2.1874    0.2763 N   0  0  0  0  0  0  0  0  0  0  0  0
   11.8497   -2.9059    0.4277 C   0  0  0  0  0  0  0  0  0  0  0  0
   13.0060   -2.3117    0.3850 N   0  0  0  0  0  0  0  0  0  0  0  0
   14.0421   -3.2066    0.5576 C   0  0  0  0  0  0  0  0  0  0  0  0
   15.4699   -2.6749    0.5350 C   0  0  1  0  0  0  0  0  0  0  0  0
   15.6261   -1.6305    1.6624 C   0  0  0  0  0  0  0  0  0  0  0  0
   16.4866   -3.8089    0.7419 C   0  0  0  0  0  0  0  0  0  0  0  0
   15.7238   -1.9972   -0.8295 C   0  0  0  0  0  0  0  0  0  0  0  0
   13.6372   -4.5051    0.7336 C   0  0  0  0  0  0  0  0  0  0  0  0
   11.9009   -4.6361    0.6846 S   0  0  0  0  0  0  0  0  0  0  0  0
    6.9630   -2.1573    0.1179 C   0  0  0  0  0  0  0  0  0  0  0  0
    6.0520   -1.0652   -0.0744 C   0  0  0  0  0  0  0  0  0  0  0  0
    4.6459   -1.0848   -0.1359 C   0  0  0  0  0  0  0  0  0  0  0  0
    0.2198    0.0992   -0.5007 H   0  0  0  0  0  0  0  0  0  0  0  0
    4.0812    2.2525   -0.6221 H   0  0  0  0  0  0  0  0  0  0  0  0
    6.5622    2.3240   -0.5186 H   0  0  0  0  0  0  0  0  0  0  0  0
   10.8211   -1.1928    0.1311 H   0  0  0  0  0  0  0  0  0  0  0  0
   15.4741   -2.0909    2.6519 H   0  0  0  0  0  0  0  0  0  0  0  0
   14.8899   -0.8214    1.5481 H   0  0  0  0  0  0  0  0  0  0  0  0
   16.6360   -1.1890    1.6417 H   0  0  0  0  0  0  0  0  0  0  0  0
   16.3454   -4.3087    1.7136 H   0  0  0  0  0  0  0  0  0  0  0  0
   17.5119   -3.4070    0.7212 H   0  0  0  0  0  0  0  0  0  0  0  0
   16.4122   -4.5708   -0.0505 H   0  0  0  0  0  0  0  0  0  0  0  0
   14.9894   -1.1986   -1.0102 H   0  0  0  0  0  0  0  0  0  0  0  0
   15.6439   -2.7245   -1.6535 H   0  0  0  0  0  0  0  0  0  0  0  0
   16.7336   -1.5561   -0.8595 H   0  0  0  0  0  0  0  0  0  0  0  0
   14.2468   -5.3916    0.8885 H   0  0  0  0  0  0  0  0  0  0  0  0
    6.6723   -3.2000    0.2487 H   0  0  0  0  0  0  0  0  0  0  0  0
    4.1064   -2.0279   -0.0303 H   0  0  0  0  0  0  0  0  0  0  0  0
  1  2  3  0
  1 24  1  0
  2  3  1  0
  3  4  1  0
  3 23  2  0
  4  5  2  0
  4 25  1  0
  5  6  1  0
  5 26  1  0
  6  7  2  0
  6 22  1  0
  7  8  1  0
  8  9  2  0
  8 21  1  0
  9 10  1  0
  9 11  1  0
 11 12  1  0
 11 27  1  0
 12 13  2  0
 12 20  1  0
 13 14  1  0
 14 15  1  0
 14 19  2  0
 15 16  1  1
 15 17  1  0
 15 18  1  0
 16 28  1  0
 16 29  1  0
 16 30  1  0
 17 31  1  0
 17 32  1  0
 17 33  1  0
 18 34  1  0
 18 35  1  0
 18 36  1  0
 19 20  1  0
 19 37  1  0
 21 22  2  0
 21 38  1  0
 22 23  1  0
 23 39  1  0
M  CHG  2   7   1  10  -1
M  END

