
     RDKit          3D

 48 51  0  0  0  0  0  0  0  0999 V2000
    0.9478    0.5252    0.1605 C   0  0  0  0  0  0  0  0  0  0  0  0
    2.3792    0.2472   -0.2925 C   0  0  1  0  0  0  0  0  0  0  0  0
    2.4651    0.3100   -1.8230 C   0  0  0  0  0  0  0  0  0  0  0  0
    3.2398    1.2884    0.2228 O   0  0  0  0  0  0  0  0  0  0  0  0
    4.4472    0.7222    0.5626 B   0  0  0  0  0  0  0  0  0  0  0  0
    5.6994    1.5401    0.9606 C   0  0  0  0  0  0  0  0  0  0  0  0
    6.8919    0.8980    1.3522 C   0  0  0  0  0  0  0  0  0  0  0  0
    8.0399    1.6097    1.7123 C   0  0  0  0  0  0  0  0  0  0  0  0
    7.9878    3.0089    1.6788 C   0  0  0  0  0  0  0  0  0  0  0  0
    6.8095    3.6817    1.2877 C   0  0  0  0  0  0  0  0  0  0  0  0
    5.6810    2.9570    0.9398 C   0  0  0  0  0  0  0  0  0  0  0  0
    7.0392    5.1833    1.4109 C   0  0  2  0  0  0  0  0  0  0  0  0
    6.4179    5.7553    2.7260 C   0  0  0  0  0  0  0  0  0  0  0  0
    6.1136    7.2228    2.4091 C   0  0  0  0  0  0  0  0  0  0  0  0
    5.5513    7.1422    0.9830 C   0  0  0  0  0  0  0  0  0  0  0  0
    6.4402    6.0894    0.2858 C   0  0  0  0  0  0  0  0  0  0  0  0
    8.5961    5.2286    1.4600 C   0  0  0  0  0  0  0  0  0  0  0  0
    8.9732    3.9265    2.0104 N   0  0  0  0  0  0  0  0  0  0  0  0
    4.4093   -0.6518    0.5077 O   0  0  0  0  0  0  0  0  0  0  0  0
    3.0358   -1.0608    0.3172 C   0  0  1  0  0  0  0  0  0  0  0  0
    2.4810   -1.4285    1.6995 C   0  0  0  0  0  0  0  0  0  0  0  0
    3.0109   -2.2840   -0.5963 C   0  0  0  0  0  0  0  0  0  0  0  0
    0.5904    1.4587   -0.3001 H   0  0  0  0  0  0  0  0  0  0  0  0
    0.8817    0.6434    1.2499 H   0  0  0  0  0  0  0  0  0  0  0  0
    0.2708   -0.2871   -0.1481 H   0  0  0  0  0  0  0  0  0  0  0  0
    2.1896    1.3231   -2.1522 H   0  0  0  0  0  0  0  0  0  0  0  0
    1.7817   -0.4072   -2.3022 H   0  0  0  0  0  0  0  0  0  0  0  0
    3.4871    0.1077   -2.1760 H   0  0  0  0  0  0  0  0  0  0  0  0
    6.9182   -0.1951    1.3695 H   0  0  0  0  0  0  0  0  0  0  0  0
    8.9538    1.0879    2.0086 H   0  0  0  0  0  0  0  0  0  0  0  0
    4.7631    3.4704    0.6373 H   0  0  0  0  0  0  0  0  0  0  0  0
    7.0771    5.6019    3.5946 H   0  0  0  0  0  0  0  0  0  0  0  0
    5.4753    5.2240    2.9376 H   0  0  0  0  0  0  0  0  0  0  0  0
    7.0437    7.8194    2.4181 H   0  0  0  0  0  0  0  0  0  0  0  0
    5.4224    7.6897    3.1289 H   0  0  0  0  0  0  0  0  0  0  0  0
    5.5432    8.1102    0.4576 H   0  0  0  0  0  0  0  0  0  0  0  0
    4.5062    6.7901    1.0244 H   0  0  0  0  0  0  0  0  0  0  0  0
    7.2583    6.5829   -0.2650 H   0  0  0  0  0  0  0  0  0  0  0  0
    5.8839    5.4967   -0.4554 H   0  0  0  0  0  0  0  0  0  0  0  0
    8.9747    6.0572    2.0808 H   0  0  0  0  0  0  0  0  0  0  0  0
    8.9977    5.3625    0.4347 H   0  0  0  0  0  0  0  0  0  0  0  0
    9.9441    3.6399    1.9516 H   0  0  0  0  0  0  0  0  0  0  0  0
    2.4853   -0.5620    2.3771 H   0  0  0  0  0  0  0  0  0  0  0  0
    3.1215   -2.2054    2.1431 H   0  0  0  0  0  0  0  0  0  0  0  0
    1.4541   -1.8195    1.6390 H   0  0  0  0  0  0  0  0  0  0  0  0
    3.5431   -2.0987   -1.5384 H   0  0  0  0  0  0  0  0  0  0  0  0
    1.9764   -2.5832   -0.8281 H   0  0  0  0  0  0  0  0  0  0  0  0
    3.5046   -3.1294   -0.0933 H   0  0  0  0  0  0  0  0  0  0  0  0
  2  1  1  6
  1 23  1  0
  1 24  1  0
  1 25  1  0
  2  3  1  0
  2  4  1  0
  2 20  1  0
  3 26  1  0
  3 27  1  0
  3 28  1  0
  4  5  1  0
  5  6  1  0
  5 19  1  0
  6  7  2  0
  6 11  1  0
  7  8  1  0
  7 29  1  0
  8  9  2  0
  8 30  1  0
  9 10  1  0
  9 18  1  0
 10 11  2  0
 10 12  1  0
 11 31  1  0
 12 13  1  1
 12 16  1  0
 12 17  1  0
 13 14  1  0
 13 32  1  0
 13 33  1  0
 14 15  1  0
 14 34  1  0
 14 35  1  0
 15 16  1  0
 15 36  1  0
 15 37  1  0
 16 38  1  0
 16 39  1  0
 17 18  1  0
 17 40  1  0
 17 41  1  0
 18 42  1  0
 19 20  1  0
 20 21  1  1
 20 22  1  0
 21 43  1  0
 21 44  1  0
 21 45  1  0
 22 46  1  0
 22 47  1  0
 22 48  1  0
M  END

