
     RDKit          3D

 48 51  0  0  0  0  0  0  0  0999 V2000
   -4.2031   -3.1423   -2.7785 N   0  0  0  0  0  0  0  0  0  0  0  0
   -3.7034   -3.1441   -3.8275 C   0  0  0  0  0  0  0  0  0  0  0  0
   -3.0779   -3.0964   -5.1248 C   0  0  0  0  0  0  0  0  0  0  0  0
   -3.7975   -2.4848   -6.0706 N   0  0  0  0  0  0  0  0  0  0  0  0
   -3.2358   -2.2442   -7.2478 C   0  0  0  0  0  0  0  0  0  0  0  0
   -1.8863   -2.5646   -7.4577 C   0  0  0  0  0  0  0  0  0  0  0  0
   -1.1659   -3.2053   -6.5527 N   0  0  0  0  0  0  0  0  0  0  0  0
   -1.7352   -3.5608   -5.3825 C   0  0  0  0  0  0  0  0  0  0  0  0
   -0.9840   -4.3172   -4.5329 N   0  0  0  0  0  0  0  0  0  0  0  0
    0.4629   -4.4590   -4.6973 C   0  0  0  0  0  0  0  0  0  0  0  0
    1.1718   -4.1326   -3.3772 C   0  0  0  0  0  0  0  0  0  0  0  0
    0.6536   -4.9431   -2.2841 N   0  0  0  0  0  0  0  0  0  0  0  0
    1.4624   -4.8899   -1.0647 C   0  0  2  0  0  0  0  0  0  0  0  0
    2.4967   -5.0736   -1.3956 H   0  0  0  0  0  0  0  0  0  0  0  0
    1.0647   -5.9531   -0.0254 C   0  0  0  0  0  0  0  0  0  0  0  0
    0.1051   -5.2878    0.8634 N   0  0  0  0  0  0  0  0  0  0  0  0
    0.3341   -3.8325    0.8618 C   0  0  2  0  0  0  0  0  0  0  0  0
    0.7069   -3.4791    1.8432 H   0  0  0  0  0  0  0  0  0  0  0  0
   -0.9274   -2.9795    0.5945 C   0  0  0  0  0  0  0  0  0  0  0  0
   -0.8394   -1.8784    0.0645 O   0  0  0  0  0  0  0  0  0  0  0  0
   -2.1317   -3.4636    0.9843 N   0  0  0  0  0  0  0  0  0  0  0  0
   -3.4241   -2.7823    0.8725 C   0  0  0  0  0  0  0  0  0  0  0  0
   -4.0619   -3.9700    1.6275 C   0  0  2  0  0  0  0  0  0  0  0  0
   -4.6079   -3.6357    2.8445 F   0  0  0  0  0  0  0  0  0  0  0  0
   -2.6580   -4.6090    1.7333 C   0  0  0  0  0  0  0  0  0  0  0  0
    1.4123   -3.5872   -0.2189 C   0  0  0  0  0  0  0  0  0  0  0  0
   -0.7890   -4.7715   -2.1353 C   0  0  0  0  0  0  0  0  0  0  0  0
   -1.4878   -5.1434   -3.4397 C   0  0  0  0  0  0  0  0  0  0  0  0
   -3.8391   -1.7523   -8.0167 H   0  0  0  0  0  0  0  0  0  0  0  0
   -1.3814   -2.2838   -8.3901 H   0  0  0  0  0  0  0  0  0  0  0  0
    0.7974   -3.7935   -5.5001 H   0  0  0  0  0  0  0  0  0  0  0  0
    0.6949   -5.4994   -4.9910 H   0  0  0  0  0  0  0  0  0  0  0  0
    1.0669   -3.0409   -3.1848 H   0  0  0  0  0  0  0  0  0  0  0  0
    2.2485   -4.3389   -3.4980 H   0  0  0  0  0  0  0  0  0  0  0  0
    1.9760   -6.2883    0.5096 H   0  0  0  0  0  0  0  0  0  0  0  0
    0.6261   -6.8395   -0.5130 H   0  0  0  0  0  0  0  0  0  0  0  0
    0.1101   -5.6841    1.7982 H   0  0  0  0  0  0  0  0  0  0  0  0
   -3.7606   -2.6286   -0.1652 H   0  0  0  0  0  0  0  0  0  0  0  0
   -3.4794   -1.8325    1.4299 H   0  0  0  0  0  0  0  0  0  0  0  0
   -4.8059   -4.5495    1.0600 H   0  0  0  0  0  0  0  0  0  0  0  0
   -2.5197   -5.5812    1.2389 H   0  0  0  0  0  0  0  0  0  0  0  0
   -2.3109   -4.6751    2.7796 H   0  0  0  0  0  0  0  0  0  0  0  0
    2.3918   -3.4368    0.2596 H   0  0  0  0  0  0  0  0  0  0  0  0
    1.1875   -2.6827   -0.7993 H   0  0  0  0  0  0  0  0  0  0  0  0
   -1.0671   -3.7273   -1.8848 H   0  0  0  0  0  0  0  0  0  0  0  0
   -1.1549   -5.4161   -1.3247 H   0  0  0  0  0  0  0  0  0  0  0  0
   -2.5712   -5.0469   -3.3352 H   0  0  0  0  0  0  0  0  0  0  0  0
   -1.2627   -6.1993   -3.6809 H   0  0  0  0  0  0  0  0  0  0  0  0
  1  2  3  0
  2  3  1  0
  3  4  2  0
  3  8  1  0
  4  5  1  0
  5  6  2  0
  5 29  1  0
  6  7  1  0
  6 30  1  0
  7  8  2  0
  8  9  1  0
  9 10  1  0
  9 28  1  0
 10 11  1  0
 10 31  1  0
 10 32  1  0
 11 12  1  0
 11 33  1  0
 11 34  1  0
 12 13  1  0
 12 27  1  0
 13 14  1  6
 13 15  1  0
 13 26  1  0
 15 16  1  0
 15 35  1  0
 15 36  1  0
 16 17  1  0
 16 37  1  0
 17 18  1  1
 17 19  1  0
 17 26  1  0
 19 20  2  0
 19 21  1  0
 21 22  1  0
 21 25  1  0
 22 23  1  0
 22 38  1  0
 22 39  1  0
 23 24  1  0
 23 25  1  0
 23 40  1  6
 25 41  1  0
 25 42  1  0
 26 43  1  0
 26 44  1  0
 27 28  1  0
 27 45  1  0
 27 46  1  0
 28 47  1  0
 28 48  1  0
M  END

