
     RDKit          3D

 40 41  0  0  0  0  0  0  0  0999 V2000
    1.2777    1.4140    5.9566 C   0  0  0  0  0  0  0  0  0  0  0  0
    1.5422    1.1806    4.5917 O   0  0  0  0  0  0  0  0  0  0  0  0
    2.3611    2.0266    3.9181 C   0  0  0  0  0  0  0  0  0  0  0  0
    2.9817    3.1530    4.4828 C   0  0  0  0  0  0  0  0  0  0  0  0
    3.8091    3.9581    3.6943 C   0  0  0  0  0  0  0  0  0  0  0  0
    4.0429    3.6738    2.3419 C   0  0  0  0  0  0  0  0  0  0  0  0
    4.9517    4.5507    1.5032 C   0  0  0  0  0  0  0  0  0  0  0  0
    6.3883    4.3168    1.7776 N   0  0  0  0  0  0  0  0  0  0  0  0
    6.9165    3.1073    1.1322 C   0  0  0  0  0  0  0  0  0  0  0  0
    7.1897    3.3105   -0.3693 C   0  0  0  0  0  0  0  0  0  0  0  0
    8.0983    4.5263   -0.6210 C   0  0  0  0  0  0  0  0  0  0  0  0
    7.5931    5.8143    0.0732 C   0  0  1  0  0  0  0  0  0  0  0  0
    8.4276    6.5344    0.1070 H   0  0  0  0  0  0  0  0  0  0  0  0
    6.4498    6.5032   -0.6852 C   0  0  0  0  0  0  0  0  0  0  0  0
    7.3047    5.4450    1.5436 C   0  0  1  0  0  0  0  0  0  0  0  0
    8.2774    5.0910    1.9435 H   0  0  0  0  0  0  0  0  0  0  0  0
    6.9667    6.6058    2.4879 C   0  0  0  0  0  0  0  0  0  0  0  0
    7.1502    7.7687    2.2472 O   0  0  0  0  0  0  0  0  0  0  0  0
    6.5043    6.1732    3.6750 O   0  0  0  0  0  0  0  0  0  0  0  0
    3.4037    2.5491    1.7925 C   0  0  0  0  0  0  0  0  0  0  0  0
    2.5776    1.7337    2.5613 C   0  0  0  0  0  0  0  0  0  0  0  0
    0.6059    0.6105    6.2871 H   0  0  0  0  0  0  0  0  0  0  0  0
    0.7783    2.3863    6.1195 H   0  0  0  0  0  0  0  0  0  0  0  0
    2.1990    1.3827    6.5662 H   0  0  0  0  0  0  0  0  0  0  0  0
    2.8223    3.4174    5.5283 H   0  0  0  0  0  0  0  0  0  0  0  0
    4.2677    4.8410    4.1483 H   0  0  0  0  0  0  0  0  0  0  0  0
    4.7328    5.6081    1.7137 H   0  0  0  0  0  0  0  0  0  0  0  0
    4.7039    4.3959    0.4378 H   0  0  0  0  0  0  0  0  0  0  0  0
    6.2131    2.2779    1.3006 H   0  0  0  0  0  0  0  0  0  0  0  0
    7.8569    2.8332    1.6433 H   0  0  0  0  0  0  0  0  0  0  0  0
    6.2343    3.4333   -0.9079 H   0  0  0  0  0  0  0  0  0  0  0  0
    7.6528    2.3990   -0.7832 H   0  0  0  0  0  0  0  0  0  0  0  0
    8.2137    4.7006   -1.7038 H   0  0  0  0  0  0  0  0  0  0  0  0
    9.1084    4.2942   -0.2368 H   0  0  0  0  0  0  0  0  0  0  0  0
    5.6053    5.8309   -0.8967 H   0  0  0  0  0  0  0  0  0  0  0  0
    6.8187    6.8731   -1.6555 H   0  0  0  0  0  0  0  0  0  0  0  0
    6.0713    7.3694   -0.1236 H   0  0  0  0  0  0  0  0  0  0  0  0
    6.4186    5.1979    3.5802 H   0  0  0  0  0  0  0  0  0  0  0  0
    3.5492    2.3097    0.7347 H   0  0  0  0  0  0  0  0  0  0  0  0
    2.0812    0.8605    2.1334 H   0  0  0  0  0  0  0  0  0  0  0  0
  1  2  1  0
  1 22  1  0
  1 23  1  0
  1 24  1  0
  2  3  1  0
  3  4  2  0
  3 21  1  0
  4  5  1  0
  4 25  1  0
  5  6  2  0
  5 26  1  0
  6  7  1  0
  6 20  1  0
  7  8  1  0
  7 27  1  0
  7 28  1  0
  8  9  1  0
  8 15  1  0
  9 10  1  0
  9 29  1  0
  9 30  1  0
 10 11  1  0
 10 31  1  0
 10 32  1  0
 11 12  1  0
 11 33  1  0
 11 34  1  0
 12 13  1  1
 12 14  1  0
 12 15  1  0
 14 35  1  0
 14 36  1  0
 14 37  1  0
 15 16  1  1
 15 17  1  0
 17 18  2  0
 17 19  1  0
 19 38  1  0
 20 21  2  0
 20 39  1  0
 21 40  1  0
M  END

