
     RDKit          3D

 25 26  0  0  0  0  0  0  0  0999 V2000
    2.7307   -0.1000   -1.5314 C   0  0  0  0  0  0  0  0  0  0  0  0
    2.4661    0.0456   -0.0308 C   0  0  1  0  0  0  0  0  0  0  0  0
    1.0625    0.5744    0.2745 C   0  0  0  0  0  0  0  0  0  0  0  0
    2.6932   -1.2337    0.6566 N   0  0  0  0  0  0  0  0  0  0  0  0
    3.6237   -1.5047    1.6099 C   0  0  0  0  0  0  0  0  0  0  0  0
    3.4427   -2.8396    1.9407 C   0  0  0  0  0  0  0  0  0  0  0  0
    4.2246   -3.4598    2.8898 O   0  0  0  0  0  0  0  0  0  0  0  0
    4.0800   -4.7378    3.2294 C   0  0  0  0  0  0  0  0  0  0  0  0
    3.2244   -5.5900    2.7587 N   0  0  0  0  0  0  0  0  0  0  0  0
    3.3949   -6.8030    3.3633 C   0  0  0  0  0  0  0  0  0  0  0  0
    2.2740   -8.2445    2.8664 Br  0  0  0  0  0  0  0  0  0  0  0  0
    4.3795   -6.9019    4.3039 C   0  0  0  0  0  0  0  0  0  0  0  0
    5.1721   -5.3546    4.4602 S   0  0  0  0  0  0  0  0  0  0  0  0
    2.3744   -3.2937    1.1300 C   0  0  0  0  0  0  0  0  0  0  0  0
    1.9389   -2.2964    0.3604 N   0  0  0  0  0  0  0  0  0  0  0  0
    2.5976    0.8686   -2.0377 H   0  0  0  0  0  0  0  0  0  0  0  0
    2.0323   -0.8269   -1.9716 H   0  0  0  0  0  0  0  0  0  0  0  0
    3.7572   -0.4510   -1.7190 H   0  0  0  0  0  0  0  0  0  0  0  0
    3.2110    0.7343    0.4002 H   0  0  0  0  0  0  0  0  0  0  0  0
    0.3025   -0.1279   -0.0985 H   0  0  0  0  0  0  0  0  0  0  0  0
    0.9092    1.5507   -0.2108 H   0  0  0  0  0  0  0  0  0  0  0  0
    0.9146    0.6989    1.3583 H   0  0  0  0  0  0  0  0  0  0  0  0
    4.3299   -0.7665    1.9815 H   0  0  0  0  0  0  0  0  0  0  0  0
    4.6767   -7.7642    4.8953 H   0  0  0  0  0  0  0  0  0  0  0  0
    1.9284   -4.2822    1.0890 H   0  0  0  0  0  0  0  0  0  0  0  0
  1  2  1  0
  1 16  1  0
  1 17  1  0
  1 18  1  0
  2  3  1  0
  2  4  1  0
  2 19  1  1
  3 20  1  0
  3 21  1  0
  3 22  1  0
  4  5  1  0
  4 15  1  0
  5  6  2  0
  5 23  1  0
  6  7  1  0
  6 14  1  0
  7  8  1  0
  8  9  2  0
  8 13  1  0
  9 10  1  0
 10 11  1  0
 10 12  2  0
 12 13  1  0
 12 24  1  0
 14 15  2  0
 14 25  1  0
M  END

