
     RDKit          3D

 33 35  0  0  0  0  0  0  0  0999 V2000
    1.5464   -0.3428    1.0772 C   0  0  0  0  0  0  0  0  0  0  0  0
    2.4704    0.0509    0.0922 O   0  0  0  0  0  0  0  0  0  0  0  0
    2.9362   -0.8795   -0.7871 C   0  0  0  0  0  0  0  0  0  0  0  0
    3.8622   -0.3853   -1.7430 C   0  0  0  0  0  0  0  0  0  0  0  0
    4.4221   -1.2147   -2.7034 C   0  0  0  0  0  0  0  0  0  0  0  0
    4.0489   -2.5682   -2.7031 C   0  0  0  0  0  0  0  0  0  0  0  0
    3.1199   -3.0819   -1.7583 C   0  0  0  0  0  0  0  0  0  0  0  0
    2.9696   -4.4823   -2.0464 C   0  0  0  0  0  0  0  0  0  0  0  0
    3.7855   -4.7618   -3.1160 C   0  0  0  0  0  0  0  0  0  0  0  0
    4.4491   -3.6163   -3.5225 N   0  0  0  0  0  0  0  0  0  0  0  0
    5.3550   -3.5193   -4.6394 C   0  0  0  0  0  0  0  0  0  0  0  0
    4.7448   -2.9974   -5.9330 C   0  0  0  0  0  0  0  0  0  0  0  0
    3.3682   -2.8306   -6.1068 C   0  0  0  0  0  0  0  0  0  0  0  0
    2.8888   -2.3679   -7.3395 C   0  0  0  0  0  0  0  0  0  0  0  0
    3.6706   -2.0732   -8.3747 N   0  0  0  0  0  0  0  0  0  0  0  0
    4.9915   -2.2315   -8.2087 C   0  0  0  0  0  0  0  0  0  0  0  0
    5.8389   -1.9083   -9.3371 C   0  0  0  0  0  0  0  0  0  0  0  0
    6.5427   -1.6578  -10.2244 N   0  0  0  0  0  0  0  0  0  0  0  0
    5.5753   -2.6847   -7.0165 C   0  0  0  0  0  0  0  0  0  0  0  0
    2.5596   -2.2225   -0.7878 C   0  0  0  0  0  0  0  0  0  0  0  0
    1.3113    0.5542    1.6663 H   0  0  0  0  0  0  0  0  0  0  0  0
    1.9640   -1.1133    1.7516 H   0  0  0  0  0  0  0  0  0  0  0  0
    0.6115   -0.7338    0.6344 H   0  0  0  0  0  0  0  0  0  0  0  0
    4.1176    0.6750   -1.6984 H   0  0  0  0  0  0  0  0  0  0  0  0
    5.1263   -0.8109   -3.4342 H   0  0  0  0  0  0  0  0  0  0  0  0
    2.3419   -5.1975   -1.5189 H   0  0  0  0  0  0  0  0  0  0  0  0
    3.9609   -5.7051   -3.6315 H   0  0  0  0  0  0  0  0  0  0  0  0
    5.7766   -4.5208   -4.8264 H   0  0  0  0  0  0  0  0  0  0  0  0
    6.2100   -2.8803   -4.3605 H   0  0  0  0  0  0  0  0  0  0  0  0
    2.6730   -3.0518   -5.2950 H   0  0  0  0  0  0  0  0  0  0  0  0
    1.8119   -2.2303   -7.4892 H   0  0  0  0  0  0  0  0  0  0  0  0
    6.6612   -2.7870   -6.9474 H   0  0  0  0  0  0  0  0  0  0  0  0
    1.8495   -2.6179   -0.0617 H   0  0  0  0  0  0  0  0  0  0  0  0
  1  2  1  0
  1 21  1  0
  1 22  1  0
  1 23  1  0
  2  3  1  0
  3  4  2  0
  3 20  1  0
  4  5  1  0
  4 24  1  0
  5  6  2  0
  5 25  1  0
  6  7  1  0
  6 10  1  0
  7  8  1  0
  7 20  2  0
  8  9  2  0
  8 26  1  0
  9 10  1  0
  9 27  1  0
 10 11  1  0
 11 12  1  0
 11 28  1  0
 11 29  1  0
 12 13  2  0
 12 19  1  0
 13 14  1  0
 13 30  1  0
 14 15  2  0
 14 31  1  0
 15 16  1  0
 16 17  1  0
 16 19  2  0
 17 18  3  0
 19 32  1  0
 20 33  1  0
M  END

