
     RDKit          3D

 53 56  0  0  0  0  0  0  0  0999 V2000
    3.1512   -0.9418   -0.7438 C   0  0  0  0  0  0  0  0  0  0  0  0
    2.4721   -0.0021    0.0560 O   0  0  0  0  0  0  0  0  0  0  0  0
    3.1830    0.7839    0.9063 C   0  0  0  0  0  0  0  0  0  0  0  0
    4.5774    0.7340    1.0608 C   0  0  0  0  0  0  0  0  0  0  0  0
    5.2092    1.5898    1.9675 C   0  0  0  0  0  0  0  0  0  0  0  0
    4.4866    2.5081    2.7460 C   0  0  0  0  0  0  0  0  0  0  0  0
    5.1656    3.4575    3.6672 C   0  0  0  0  0  0  0  0  0  0  0  0
    4.9286    4.8359    3.5260 C   0  0  0  0  0  0  0  0  0  0  0  0
    5.5370    5.7848    4.2217 N   0  0  0  0  0  0  0  0  0  0  0  0
    6.4650    5.3696    5.1077 C   0  0  0  0  0  0  0  0  0  0  0  0
    7.1365    6.3297    5.8240 N   0  0  0  0  0  0  0  0  0  0  0  0
    6.9598    7.7536    5.5607 C   0  0  0  0  0  0  0  0  0  0  0  0
    6.7485    8.5361    6.8623 C   0  0  0  0  0  0  0  0  0  0  0  0
    7.8511    8.2651    7.8998 C   0  0  2  0  0  0  0  0  0  0  0  0
    9.0866    8.9535    7.5168 N   0  0  0  0  0  0  0  0  0  0  0  0
    7.9866    6.7380    8.0988 C   0  0  0  0  0  0  0  0  0  0  0  0
    8.1883    5.9938    6.7743 C   0  0  0  0  0  0  0  0  0  0  0  0
    6.7582    4.0826    5.3483 N   0  0  0  0  0  0  0  0  0  0  0  0
    6.1135    3.1224    4.6740 C   0  0  0  0  0  0  0  0  0  0  0  0
    6.4549    1.7296    5.0696 C   0  0  0  0  0  0  0  0  0  0  0  0
    5.5023    0.6946    5.1132 C   0  0  0  0  0  0  0  0  0  0  0  0
    5.8387   -0.5832    5.5488 C   0  0  0  0  0  0  0  0  0  0  0  0
    7.1563   -0.8896    5.9477 C   0  0  0  0  0  0  0  0  0  0  0  0
    7.5079   -2.1732    6.3241 N   0  0  0  0  0  0  0  0  0  0  0  0
    8.1138    0.1460    5.9107 C   0  0  0  0  0  0  0  0  0  0  0  0
    7.7621    1.4247    5.4937 C   0  0  0  0  0  0  0  0  0  0  0  0
    3.0879    2.5451    2.5713 C   0  0  0  0  0  0  0  0  0  0  0  0
    2.4439    1.7014    1.6710 C   0  0  0  0  0  0  0  0  0  0  0  0
    2.3866   -1.4566   -1.3413 H   0  0  0  0  0  0  0  0  0  0  0  0
    3.6911   -1.6898   -0.1346 H   0  0  0  0  0  0  0  0  0  0  0  0
    3.8721   -0.4581   -1.4280 H   0  0  0  0  0  0  0  0  0  0  0  0
    5.1830    0.0401    0.4774 H   0  0  0  0  0  0  0  0  0  0  0  0
    6.2959    1.5423    2.0666 H   0  0  0  0  0  0  0  0  0  0  0  0
    4.2051    5.1753    2.7736 H   0  0  0  0  0  0  0  0  0  0  0  0
    6.1056    7.8712    4.8853 H   0  0  0  0  0  0  0  0  0  0  0  0
    7.8508    8.1411    5.0238 H   0  0  0  0  0  0  0  0  0  0  0  0
    5.7741    8.2467    7.2904 H   0  0  0  0  0  0  0  0  0  0  0  0
    6.7126    9.6149    6.6430 H   0  0  0  0  0  0  0  0  0  0  0  0
    7.5335    8.7092    8.8594 H   0  0  0  0  0  0  0  0  0  0  0  0
    9.4479    8.5983    6.6312 H   0  0  0  0  0  0  0  0  0  0  0  0
    9.8171    8.7799    8.2081 H   0  0  0  0  0  0  0  0  0  0  0  0
    7.0750    6.3512    8.5872 H   0  0  0  0  0  0  0  0  0  0  0  0
    8.8317    6.5197    8.7749 H   0  0  0  0  0  0  0  0  0  0  0  0
    8.1834    4.9085    6.9218 H   0  0  0  0  0  0  0  0  0  0  0  0
    9.1754    6.2618    6.3420 H   0  0  0  0  0  0  0  0  0  0  0  0
    4.4697    0.8940    4.8242 H   0  0  0  0  0  0  0  0  0  0  0  0
    5.0714   -1.3621    5.5838 H   0  0  0  0  0  0  0  0  0  0  0  0
    6.7589   -2.7935    6.6070 H   0  0  0  0  0  0  0  0  0  0  0  0
    8.3544   -2.2795    6.8700 H   0  0  0  0  0  0  0  0  0  0  0  0
    9.1433   -0.0630    6.2165 H   0  0  0  0  0  0  0  0  0  0  0  0
    8.5109    2.2186    5.4888 H   0  0  0  0  0  0  0  0  0  0  0  0
    2.4918    3.2419    3.1665 H   0  0  0  0  0  0  0  0  0  0  0  0
    1.3597    1.7292    1.5436 H   0  0  0  0  0  0  0  0  0  0  0  0
  1  2  1  0
  1 29  1  0
  1 30  1  0
  1 31  1  0
  2  3  1  0
  3  4  2  0
  3 28  1  0
  4  5  1  0
  4 32  1  0
  5  6  2  0
  5 33  1  0
  6  7  1  0
  6 27  1  0
  7  8  2  0
  7 19  1  0
  8  9  1  0
  8 34  1  0
  9 10  2  0
 10 11  1  0
 10 18  1  0
 11 12  1  0
 11 17  1  0
 12 13  1  0
 12 35  1  0
 12 36  1  0
 13 14  1  0
 13 37  1  0
 13 38  1  0
 14 15  1  0
 14 16  1  0
 14 39  1  1
 15 40  1  0
 15 41  1  0
 16 17  1  0
 16 42  1  0
 16 43  1  0
 17 44  1  0
 17 45  1  0
 18 19  2  0
 19 20  1  0
 20 21  2  0
 20 26  1  0
 21 22  1  0
 21 46  1  0
 22 23  2  0
 22 47  1  0
 23 24  1  0
 23 25  1  0
 24 48  1  0
 24 49  1  0
 25 26  2  0
 25 50  1  0
 26 51  1  0
 27 28  2  0
 27 52  1  0
 28 53  1  0
M  END

