
     RDKit          3D

 38 41  0  0  0  0  0  0  0  0999 V2000
    2.3312    1.0790   -1.6660 O   0  0  0  0  0  0  0  0  0  0  0  0
    2.2210    0.1378   -0.9297 C   0  0  0  0  0  0  0  0  0  0  0  0
    1.3282    0.1413    0.0814 O   0  0  0  0  0  0  0  0  0  0  0  0
    3.1206   -1.0985   -1.0182 C   0  0  1  0  0  0  0  0  0  0  0  0
    4.3984   -0.9013   -0.1534 C   0  0  0  0  0  0  0  0  0  0  0  0
    4.7035   -2.2383    0.3910 N   0  0  0  0  0  0  0  0  0  0  0  0
    5.9587   -2.7190    0.7521 C   0  0  0  0  0  0  0  0  0  0  0  0
    6.1412   -3.9098    0.9527 O   0  0  0  0  0  0  0  0  0  0  0  0
    7.0919   -1.7419    0.8728 C   0  0  0  0  0  0  0  0  0  0  0  0
    8.3623   -2.1960    0.4690 C   0  0  0  0  0  0  0  0  0  0  0  0
    9.5039   -1.4048    0.6042 C   0  0  0  0  0  0  0  0  0  0  0  0
    9.3527   -0.1465    1.1888 C   0  0  0  0  0  0  0  0  0  0  0  0
    8.1053    0.3202    1.6273 C   0  0  0  0  0  0  0  0  0  0  0  0
    6.9729   -0.4672    1.4654 C   0  0  0  0  0  0  0  0  0  0  0  0
    8.3037    1.7173    2.1724 C   0  0  0  0  0  0  0  0  0  0  0  0
    9.8478    1.8141    2.2129 C   0  0  0  0  0  0  0  0  0  0  0  0
   10.3574    0.7327    1.4011 O   0  0  0  0  0  0  0  0  0  0  0  0
    3.5482   -3.0468    0.2960 C   0  0  0  0  0  0  0  0  0  0  0  0
    3.3055   -4.3101    0.8483 C   0  0  0  0  0  0  0  0  0  0  0  0
    2.0536   -4.8962    0.6230 C   0  0  0  0  0  0  0  0  0  0  0  0
    1.0690   -4.2579   -0.1386 C   0  0  0  0  0  0  0  0  0  0  0  0
    1.3288   -3.0021   -0.7039 C   0  0  0  0  0  0  0  0  0  0  0  0
    2.5652   -2.3985   -0.4754 C   0  0  0  0  0  0  0  0  0  0  0  0
    1.3292   -0.7237    0.5251 H   0  0  0  0  0  0  0  0  0  0  0  0
    3.3911   -1.2010   -2.0818 H   0  0  0  0  0  0  0  0  0  0  0  0
    4.1817   -0.1956    0.6674 H   0  0  0  0  0  0  0  0  0  0  0  0
    5.2415   -0.5019   -0.7289 H   0  0  0  0  0  0  0  0  0  0  0  0
    8.4413   -3.2015    0.0514 H   0  0  0  0  0  0  0  0  0  0  0  0
   10.4861   -1.7542    0.2819 H   0  0  0  0  0  0  0  0  0  0  0  0
    6.0084   -0.1078    1.8282 H   0  0  0  0  0  0  0  0  0  0  0  0
    7.8557    1.8683    3.1666 H   0  0  0  0  0  0  0  0  0  0  0  0
    7.8638    2.4716    1.4970 H   0  0  0  0  0  0  0  0  0  0  0  0
   10.2369    1.6811    3.2370 H   0  0  0  0  0  0  0  0  0  0  0  0
   10.2450    2.7561    1.8091 H   0  0  0  0  0  0  0  0  0  0  0  0
    4.0776   -4.8188    1.4197 H   0  0  0  0  0  0  0  0  0  0  0  0
    1.8481   -5.8796    1.0535 H   0  0  0  0  0  0  0  0  0  0  0  0
    0.1031   -4.7408   -0.3027 H   0  0  0  0  0  0  0  0  0  0  0  0
    0.5723   -2.5044   -1.3171 H   0  0  0  0  0  0  0  0  0  0  0  0
  1  2  2  0
  2  3  1  0
  2  4  1  0
  3 24  1  0
  4  5  1  0
  4 23  1  0
  4 25  1  6
  5  6  1  0
  5 26  1  0
  5 27  1  0
  6  7  1  0
  6 18  1  0
  7  8  2  0
  7  9  1  0
  9 10  2  0
  9 14  1  0
 10 11  1  0
 10 28  1  0
 11 12  2  0
 11 29  1  0
 12 13  1  0
 12 17  1  0
 13 14  2  0
 13 15  1  0
 14 30  1  0
 15 16  1  0
 15 31  1  0
 15 32  1  0
 16 17  1  0
 16 33  1  0
 16 34  1  0
 18 19  2  0
 18 23  1  0
 19 20  1  0
 19 35  1  0
 20 21  2  0
 20 36  1  0
 21 22  1  0
 21 37  1  0
 22 23  2  0
 22 38  1  0
M  END

