
     RDKit          3D

 19 19  0  0  0  0  0  0  0  0999 V2000
    1.3453    2.0360    1.4930 C   0  0  0  0  0  0  0  0  0  0  0  0
    0.9112    3.0609    1.6499 H   0  0  0  0  0  0  0  0  0  0  0  0
    1.9324    2.1546    0.3418 O   0  0  0  0  0  0  0  0  0  0  0  0
    2.6359    1.0031   -0.1789 C   0  0  0  0  0  0  0  0  0  0  0  0
    4.1404    1.1651    0.0900 C   0  0  1  0  0  0  0  0  0  0  0  0
    4.5428    0.8350    1.5277 C   0  0  0  0  0  0  0  0  0  0  0  0
    4.5198   -0.6044    1.7286 N   0  0  0  0  0  0  0  0  0  0  0  0
    4.7407   -1.5358    0.7579 C   0  0  0  0  0  0  0  0  0  0  0  0
    4.8084   -2.7314    0.9732 O   0  0  0  0  0  0  0  0  0  0  0  0
    4.8316   -0.9986   -0.6711 C   0  0  0  0  0  0  0  0  0  0  0  0
    4.9189    0.4088   -0.8158 O   0  0  0  0  0  0  0  0  0  0  0  0
    2.4643    1.0031   -1.2643 H   0  0  0  0  0  0  0  0  0  0  0  0
    2.2110    0.1027    0.2875 H   0  0  0  0  0  0  0  0  0  0  0  0
    4.3901    2.2184   -0.1142 H   0  0  0  0  0  0  0  0  0  0  0  0
    3.8396    1.3062    2.2330 H   0  0  0  0  0  0  0  0  0  0  0  0
    5.5487    1.2524    1.7183 H   0  0  0  0  0  0  0  0  0  0  0  0
    4.4537   -0.9743    2.6728 H   0  0  0  0  0  0  0  0  0  0  0  0
    3.9637   -1.4159   -1.2196 H   0  0  0  0  0  0  0  0  0  0  0  0
    5.7332   -1.4303   -1.1297 H   0  0  0  0  0  0  0  0  0  0  0  0
  1  2  1  0
  1  3  2  0
  3  4  1  0
  4  5  1  0
  4 12  1  0
  4 13  1  0
  5  6  1  0
  5 11  1  0
  5 14  1  6
  6  7  1  0
  6 15  1  0
  6 16  1  0
  7  8  1  0
  7 17  1  0
  8  9  2  0
  8 10  1  0
 10 11  1  0
 10 18  1  0
 10 19  1  0
M  CHG  2   1  -1   3   1
M  END

