
     RDKit          3D

 39 43  0  0  0  0  0  0  0  0999 V2000
    0.7807    0.2510   -0.5668 Cl  0  0  0  0  0  0  0  0  0  0  0  0
    2.5206    0.2715   -0.6523 C   0  0  0  0  0  0  0  0  0  0  0  0
    3.1997   -0.8138   -1.2208 C   0  0  0  0  0  0  0  0  0  0  0  0
    4.5886   -0.7919   -1.2907 C   0  0  0  0  0  0  0  0  0  0  0  0
    5.3239    0.3066   -0.8003 C   0  0  0  0  0  0  0  0  0  0  0  0
    6.8042    0.2952   -0.8759 C   0  0  0  0  0  0  0  0  0  0  0  0
    7.3840   -0.8453   -1.0530 N   0  0  0  0  0  0  0  0  0  0  0  0
    8.7303   -0.9014   -1.1923 N   0  0  0  0  0  0  0  0  0  0  0  0
    9.5944    0.1190   -1.5573 C   0  0  0  0  0  0  0  0  0  0  0  0
   10.7971   -0.3456   -1.7510 N   0  0  0  0  0  0  0  0  0  0  0  0
   10.7555   -1.6943   -1.5108 N   0  0  0  0  0  0  0  0  0  0  0  0
    9.5312   -2.0465   -1.1847 C   0  0  0  0  0  0  0  0  0  0  0  0
    9.1290   -3.4170   -0.8411 C   0  0  0  0  0  0  0  0  0  0  0  0
   10.0476   -4.4485   -1.1271 C   0  0  0  0  0  0  0  0  0  0  0  0
    9.7434   -5.7711   -0.8154 C   0  0  0  0  0  0  0  0  0  0  0  0
    8.5211   -6.0917   -0.2123 C   0  0  0  0  0  0  0  0  0  0  0  0
    7.6081   -5.0755    0.0787 C   0  0  0  0  0  0  0  0  0  0  0  0
    7.9044   -3.7454   -0.2305 C   0  0  0  0  0  0  0  0  0  0  0  0
    8.9979    1.7353   -1.8422 S   0  0  0  0  0  0  0  0  0  0  0  0
    7.5493    1.6199   -0.7090 C   0  0  2  0  0  0  0  0  0  0  0  0
    6.9093    2.4454   -1.0358 H   0  0  0  0  0  0  0  0  0  0  0  0
    7.8490    1.9078    0.6816 N   0  0  0  0  0  0  0  0  0  0  0  0
    8.4984    1.1769    1.6300 C   0  0  0  0  0  0  0  0  0  0  0  0
    8.5739    1.8606    2.7508 N   0  0  0  0  0  0  0  0  0  0  0  0
    7.9493    3.0303    2.4419 C   0  0  0  0  0  0  0  0  0  0  0  0
    7.4963    3.1078    1.2029 N   0  0  0  0  0  0  0  0  0  0  0  0
    4.6191    1.3875   -0.2352 C   0  0  0  0  0  0  0  0  0  0  0  0
    3.2264    1.3712   -0.1569 C   0  0  0  0  0  0  0  0  0  0  0  0
    2.6355   -1.6623   -1.6109 H   0  0  0  0  0  0  0  0  0  0  0  0
    5.1242   -1.6290   -1.7404 H   0  0  0  0  0  0  0  0  0  0  0  0
   10.9977   -4.1859   -1.5944 H   0  0  0  0  0  0  0  0  0  0  0  0
   10.4647   -6.5594   -1.0448 H   0  0  0  0  0  0  0  0  0  0  0  0
    8.2840   -7.1302    0.0319 H   0  0  0  0  0  0  0  0  0  0  0  0
    6.6547   -5.3160    0.5558 H   0  0  0  0  0  0  0  0  0  0  0  0
    7.1848   -2.9630    0.0048 H   0  0  0  0  0  0  0  0  0  0  0  0
    8.8874    0.1747    1.4523 H   0  0  0  0  0  0  0  0  0  0  0  0
    7.8225    3.8485    3.1507 H   0  0  0  0  0  0  0  0  0  0  0  0
    5.1476    2.2477    0.1810 H   0  0  0  0  0  0  0  0  0  0  0  0
    2.6871    2.2073    0.2906 H   0  0  0  0  0  0  0  0  0  0  0  0
  1  2  1  0
  2  3  2  0
  2 28  1  0
  3  4  1  0
  3 29  1  0
  4  5  2  0
  4 30  1  0
  5  6  1  0
  5 27  1  0
  6  7  2  0
  6 20  1  0
  7  8  1  0
  8  9  1  0
  8 12  1  0
  9 10  2  0
  9 19  1  0
 10 11  1  0
 11 12  2  0
 12 13  1  0
 13 14  2  0
 13 18  1  0
 14 15  1  0
 14 31  1  0
 15 16  2  0
 15 32  1  0
 16 17  1  0
 16 33  1  0
 17 18  2  0
 17 34  1  0
 18 35  1  0
 19 20  1  0
 20 21  1  6
 20 22  1  0
 22 23  1  0
 22 26  1  0
 23 24  2  0
 23 36  1  0
 24 25  1  0
 25 26  2  0
 25 37  1  0
 27 28  2  0
 27 38  1  0
 28 39  1  0
M  END

