
     RDKit          3D

 50 56  0  0  0  0  0  0  0  0999 V2000
   -0.3559   -2.2915   -3.4388 C   0  0  0  0  0  0  0  0  0  0  0  0
    0.9317   -2.1872   -3.9737 C   0  0  0  0  0  0  0  0  0  0  0  0
    1.9511   -1.5893   -3.2279 C   0  0  0  0  0  0  0  0  0  0  0  0
    1.7228   -1.0882   -1.9287 C   0  0  0  0  0  0  0  0  0  0  0  0
    2.8758   -0.4013   -1.1054 B   0  0  0  0  0  0  0  0  0  0  0  0
    3.7854    0.4654   -1.7816 N   0  0  0  0  0  0  0  0  0  0  0  0
    4.8439    1.1563   -1.2063 C   0  0  0  0  0  0  0  0  0  0  0  0
    5.6628    1.9917   -1.9705 C   0  0  0  0  0  0  0  0  0  0  0  0
    6.7356    2.7040   -1.4122 C   0  0  0  0  0  0  0  0  0  0  0  0
    6.9921    2.5618   -0.0125 C   0  0  0  0  0  0  0  0  0  0  0  0
    6.1723    1.7277    0.7520 C   0  0  0  0  0  0  0  0  0  0  0  0
    5.0985    1.0166    0.1940 C   0  0  0  0  0  0  0  0  0  0  0  0
    4.2320    0.1434    0.9519 C   0  0  0  0  0  0  0  0  0  0  0  0
    4.4135   -0.1754    2.6600 S   0  0  0  0  0  0  0  0  0  0  0  0
    3.0589   -1.2628    2.6427 C   0  0  0  0  0  0  0  0  0  0  0  0
    2.5030   -1.3716    1.3979 C   0  0  0  0  0  0  0  0  0  0  0  0
    3.1564   -0.5651    0.4042 C   0  0  0  0  0  0  0  0  0  0  0  0
    8.0462    3.2585    0.5641 N   0  0  0  0  0  0  0  0  0  0  0  0
    8.9388    4.1467   -0.1068 B   0  0  0  0  0  0  0  0  0  0  0  0
   10.0705    4.8606    0.7232 C   0  0  0  0  0  0  0  0  0  0  0  0
   10.7813    4.1745    1.7307 C   0  0  0  0  0  0  0  0  0  0  0  0
   11.7774    4.8021    2.4835 C   0  0  0  0  0  0  0  0  0  0  0  0
   12.0843    6.1466    2.2529 C   0  0  0  0  0  0  0  0  0  0  0  0
   11.3923    6.8526    1.2638 C   0  0  0  0  0  0  0  0  0  0  0  0
   10.4056    6.2139    0.5077 C   0  0  0  0  0  0  0  0  0  0  0  0
    8.6731    4.2917   -1.6210 C   0  0  0  0  0  0  0  0  0  0  0  0
    9.3702    5.0428   -2.6284 C   0  0  0  0  0  0  0  0  0  0  0  0
    8.8384    4.9035   -3.8805 C   0  0  0  0  0  0  0  0  0  0  0  0
    7.4647    3.8402   -3.8919 S   0  0  0  0  0  0  0  0  0  0  0  0
    7.6045    3.5741   -2.1709 C   0  0  0  0  0  0  0  0  0  0  0  0
    0.4161   -1.2129   -1.4118 C   0  0  0  0  0  0  0  0  0  0  0  0
   -0.6119   -1.7990   -2.1553 C   0  0  0  0  0  0  0  0  0  0  0  0
   -1.1570   -2.7562   -4.0199 H   0  0  0  0  0  0  0  0  0  0  0  0
    1.1423   -2.5753   -4.9741 H   0  0  0  0  0  0  0  0  0  0  0  0
    2.9545   -1.5293   -3.6622 H   0  0  0  0  0  0  0  0  0  0  0  0
    3.6561    0.6490   -2.7719 H   0  0  0  0  0  0  0  0  0  0  0  0
    5.4574    2.0915   -3.0400 H   0  0  0  0  0  0  0  0  0  0  0  0
    6.3775    1.6281    1.8216 H   0  0  0  0  0  0  0  0  0  0  0  0
    2.7586   -1.7634    3.5624 H   0  0  0  0  0  0  0  0  0  0  0  0
    1.6523   -2.0204    1.1857 H   0  0  0  0  0  0  0  0  0  0  0  0
    8.1350    3.1260    1.5670 H   0  0  0  0  0  0  0  0  0  0  0  0
   10.5660    3.1177    1.9205 H   0  0  0  0  0  0  0  0  0  0  0  0
   12.3178    4.2407    3.2506 H   0  0  0  0  0  0  0  0  0  0  0  0
   12.8611    6.6423    2.8413 H   0  0  0  0  0  0  0  0  0  0  0  0
   11.6229    7.9057    1.0812 H   0  0  0  0  0  0  0  0  0  0  0  0
    9.8701    6.7859   -0.2551 H   0  0  0  0  0  0  0  0  0  0  0  0
   10.2474    5.6582   -2.4244 H   0  0  0  0  0  0  0  0  0  0  0  0
    9.1742    5.3591   -4.8113 H   0  0  0  0  0  0  0  0  0  0  0  0
    0.1933   -0.8261   -0.4135 H   0  0  0  0  0  0  0  0  0  0  0  0
   -1.6175   -1.8721   -1.7321 H   0  0  0  0  0  0  0  0  0  0  0  0
  1  2  2  0
  1 32  1  0
  1 33  1  0
  2  3  1  0
  2 34  1  0
  3  4  2  0
  3 35  1  0
  4  5  1  0
  4 31  1  0
  5  6  1  0
  5 17  1  0
  6  7  1  0
  6 36  1  0
  7  8  2  0
  7 12  1  0
  8  9  1  0
  8 37  1  0
  9 10  1  0
  9 30  2  0
 10 11  2  0
 10 18  1  0
 11 12  1  0
 11 38  1  0
 12 13  2  0
 13 14  1  0
 13 17  1  0
 14 15  2  0
 15 16  1  0
 15 39  1  0
 16 17  2  0
 16 40  1  0
 18 19  1  0
 18 41  1  0
 19 20  1  0
 19 26  2  0
 20 21  2  0
 20 25  1  0
 21 22  1  0
 21 42  1  0
 22 23  2  0
 22 43  1  0
 23 24  1  0
 23 44  1  0
 24 25  2  0
 24 45  1  0
 25 46  1  0
 26 27  1  0
 26 30  1  0
 27 28  2  0
 27 47  1  0
 28 29  1  0
 28 48  1  0
 29 30  1  0
 31 32  2  0
 31 49  1  0
 32 50  1  0
M  CHG  2  14   1  19  -1
M  END

