
     RDKit          3D

 45 48  0  0  0  0  0  0  0  0999 V2000
    2.6194    1.2078    0.1481 O   0  0  0  0  0  0  0  0  0  0  0  0
    2.2365    0.0590   -0.0368 C   0  0  0  0  0  0  0  0  0  0  0  0
    1.1800   -0.2414   -0.8453 N   0  0  0  0  0  0  0  0  0  0  0  0
    0.4255    0.7939   -1.5355 C   0  0  0  0  0  0  0  0  0  0  0  0
   -0.8267    1.2395   -0.7993 C   0  0  0  0  0  0  0  0  0  0  0  0
   -0.7215    1.9661    0.3978 C   0  0  0  0  0  0  0  0  0  0  0  0
   -1.8655    2.3682    1.0883 C   0  0  0  0  0  0  0  0  0  0  0  0
   -3.1337    2.0512    0.5885 C   0  0  0  0  0  0  0  0  0  0  0  0
   -4.3872    2.4792    1.3092 C   0  0  1  0  0  0  0  0  0  0  0  0
   -4.1230    3.1191    2.4600 F   0  0  0  0  0  0  0  0  0  0  0  0
   -5.1345    3.3074    0.5533 F   0  0  0  0  0  0  0  0  0  0  0  0
   -5.1698    1.4233    1.6080 F   0  0  0  0  0  0  0  0  0  0  0  0
   -3.2512    1.3309   -0.6060 C   0  0  0  0  0  0  0  0  0  0  0  0
   -2.1032    0.9299   -1.2905 C   0  0  0  0  0  0  0  0  0  0  0  0
    2.9346   -1.1032    0.6231 C   0  0  0  0  0  0  0  0  0  0  0  0
    4.0435   -0.8263    1.4340 C   0  0  0  0  0  0  0  0  0  0  0  0
    4.7528   -1.8387    2.0996 C   0  0  0  0  0  0  0  0  0  0  0  0
    4.3872   -3.1789    1.9774 C   0  0  0  0  0  0  0  0  0  0  0  0
    3.2889   -3.4999    1.1622 C   0  0  0  0  0  0  0  0  0  0  0  0
    2.5927   -4.7286    0.8020 C   0  0  0  0  0  0  0  0  0  0  0  0
    2.9077   -6.1123    1.2021 C   0  0  0  0  0  0  0  0  0  0  0  0
    4.2385   -6.5614    1.2872 C   0  0  0  0  0  0  0  0  0  0  0  0
    4.5296   -7.8802    1.6439 C   0  0  0  0  0  0  0  0  0  0  0  0
    3.4950   -8.7684    1.9174 C   0  0  0  0  0  0  0  0  0  0  0  0
    3.7521  -10.0318    2.2616 F   0  0  0  0  0  0  0  0  0  0  0  0
    2.1669   -8.3360    1.8345 C   0  0  0  0  0  0  0  0  0  0  0  0
    1.1837   -9.1966    2.1079 F   0  0  0  0  0  0  0  0  0  0  0  0
    1.8728   -7.0235    1.4878 C   0  0  0  0  0  0  0  0  0  0  0  0
    1.5647   -4.3331   -0.0039 C   0  0  0  0  0  0  0  0  0  0  0  0
    1.5425   -2.9777   -0.1907 O   0  0  0  0  0  0  0  0  0  0  0  0
    2.5902   -2.4589    0.5177 C   0  0  0  0  0  0  0  0  0  0  0  0
    0.8582   -1.2010   -0.9013 H   0  0  0  0  0  0  0  0  0  0  0  0
    0.1560    0.4233   -2.5370 H   0  0  0  0  0  0  0  0  0  0  0  0
    1.1045    1.6495   -1.6604 H   0  0  0  0  0  0  0  0  0  0  0  0
    0.2698    2.2173    0.7826 H   0  0  0  0  0  0  0  0  0  0  0  0
   -1.7753    2.9343    2.0167 H   0  0  0  0  0  0  0  0  0  0  0  0
   -4.2393    1.0827   -1.0005 H   0  0  0  0  0  0  0  0  0  0  0  0
   -2.2030    0.3692   -2.2244 H   0  0  0  0  0  0  0  0  0  0  0  0
    4.3323    0.2217    1.5326 H   0  0  0  0  0  0  0  0  0  0  0  0
    5.6040   -1.5673    2.7283 H   0  0  0  0  0  0  0  0  0  0  0  0
    4.9357   -3.9566    2.5120 H   0  0  0  0  0  0  0  0  0  0  0  0
    5.0573   -5.8819    1.0463 H   0  0  0  0  0  0  0  0  0  0  0  0
    5.5583   -8.2408    1.7072 H   0  0  0  0  0  0  0  0  0  0  0  0
    0.8250   -6.7184    1.4651 H   0  0  0  0  0  0  0  0  0  0  0  0
    0.7957   -4.8927   -0.5304 H   0  0  0  0  0  0  0  0  0  0  0  0
  1  2  2  0
  2  3  1  0
  2 15  1  0
  3  4  1  0
  3 32  1  0
  4  5  1  0
  4 33  1  0
  4 34  1  0
  5  6  2  0
  5 14  1  0
  6  7  1  0
  6 35  1  0
  7  8  2  0
  7 36  1  0
  8  9  1  0
  8 13  1  0
  9 10  1  1
  9 11  1  0
  9 12  1  0
 13 14  2  0
 13 37  1  0
 14 38  1  0
 15 16  2  0
 15 31  1  0
 16 17  1  0
 16 39  1  0
 17 18  2  0
 17 40  1  0
 18 19  1  0
 18 41  1  0
 19 20  1  0
 19 31  2  0
 20 21  1  0
 20 29  2  0
 21 22  2  0
 21 28  1  0
 22 23  1  0
 22 42  1  0
 23 24  2  0
 23 43  1  0
 24 25  1  0
 24 26  1  0
 26 27  1  0
 26 28  2  0
 28 44  1  0
 29 30  1  0
 29 45  1  0
 30 31  1  0
M  END

