
     RDKit          3D

 52 55  0  0  0  0  0  0  0  0999 V2000
    3.4445   -0.0179   -1.9060 C   0  0  0  0  0  0  0  0  0  0  0  0
    2.6199    0.7130   -0.8454 C   0  0  0  0  0  0  0  0  0  0  0  0
    2.7965    0.1635    0.5776 C   0  0  0  0  0  0  0  0  0  0  0  0
    4.1778    0.2476    1.0951 N   0  0  0  0  0  0  0  0  0  0  0  0
    4.9651   -0.9113    1.2333 C   0  0  0  0  0  0  0  0  0  0  0  0
    4.4382   -2.1583    1.4986 C   0  0  0  0  0  0  0  0  0  0  0  0
    3.1779   -2.5615    2.1251 C   0  0  0  0  0  0  0  0  0  0  0  0
    2.6766   -3.8628    1.8903 C   0  0  0  0  0  0  0  0  0  0  0  0
    1.5164   -4.3196    2.5147 C   0  0  0  0  0  0  0  0  0  0  0  0
    0.8224   -3.4941    3.4060 C   0  0  0  0  0  0  0  0  0  0  0  0
    1.3114   -2.2093    3.6688 C   0  0  0  0  0  0  0  0  0  0  0  0
    2.4687   -1.7493    3.0415 C   0  0  0  0  0  0  0  0  0  0  0  0
    6.4352   -0.7737    1.0589 C   0  0  0  0  0  0  0  0  0  0  0  0
    7.2543   -1.6813    1.6979 C   0  0  0  0  0  0  0  0  0  0  0  0
    8.6824   -1.9602    1.7155 C   0  0  0  0  0  0  0  0  0  0  0  0
    9.1604   -2.7164    2.8155 C   0  0  0  0  0  0  0  0  0  0  0  0
   10.4995   -3.0604    2.9472 C   0  0  0  0  0  0  0  0  0  0  0  0
   11.4194   -2.6743    1.9577 C   0  0  0  0  0  0  0  0  0  0  0  0
   12.7338   -2.9839    2.0232 O   0  0  0  0  0  0  0  0  0  0  0  0
   10.9675   -1.9498    0.8429 C   0  0  0  0  0  0  0  0  0  0  0  0
    9.6288   -1.6013    0.7220 C   0  0  0  0  0  0  0  0  0  0  0  0
    6.9500    0.4637    0.4149 C   0  0  0  0  0  0  0  0  0  0  0  0
    7.9928    0.5625   -0.2178 O   0  0  0  0  0  0  0  0  0  0  0  0
    6.1310    1.6604    0.7265 C   0  0  0  0  0  0  0  0  0  0  0  0
    6.7165    2.9347    0.6446 C   0  0  0  0  0  0  0  0  0  0  0  0
    5.9762    4.0619    0.9455 C   0  0  0  0  0  0  0  0  0  0  0  0
    6.5103    5.2857    0.8826 F   0  0  0  0  0  0  0  0  0  0  0  0
    4.6315    3.9204    1.3232 C   0  0  0  0  0  0  0  0  0  0  0  0
    3.9268    5.0130    1.6209 F   0  0  0  0  0  0  0  0  0  0  0  0
    4.0311    2.6726    1.3943 C   0  0  0  0  0  0  0  0  0  0  0  0
    4.7767    1.5132    1.0964 C   0  0  0  0  0  0  0  0  0  0  0  0
    3.2372    0.3837   -2.9102 H   0  0  0  0  0  0  0  0  0  0  0  0
    3.2178   -1.0965   -1.9207 H   0  0  0  0  0  0  0  0  0  0  0  0
    4.5262    0.0901   -1.7278 H   0  0  0  0  0  0  0  0  0  0  0  0
    1.5448    0.6239   -1.0819 H   0  0  0  0  0  0  0  0  0  0  0  0
    2.8439    1.7917   -0.8746 H   0  0  0  0  0  0  0  0  0  0  0  0
    2.5088   -0.8902    0.5833 H   0  0  0  0  0  0  0  0  0  0  0  0
    2.1031    0.6656    1.2719 H   0  0  0  0  0  0  0  0  0  0  0  0
    5.0942   -2.9940    1.2484 H   0  0  0  0  0  0  0  0  0  0  0  0
    3.2136   -4.5194    1.1999 H   0  0  0  0  0  0  0  0  0  0  0  0
    1.1515   -5.3290    2.3064 H   0  0  0  0  0  0  0  0  0  0  0  0
   -0.0854   -3.8514    3.8984 H   0  0  0  0  0  0  0  0  0  0  0  0
    0.7901   -1.5617    4.3791 H   0  0  0  0  0  0  0  0  0  0  0  0
    2.8510   -0.7545    3.2801 H   0  0  0  0  0  0  0  0  0  0  0  0
    6.7123   -2.3168    2.4046 H   0  0  0  0  0  0  0  0  0  0  0  0
    8.4559   -3.0325    3.5896 H   0  0  0  0  0  0  0  0  0  0  0  0
   10.8382   -3.6365    3.8141 H   0  0  0  0  0  0  0  0  0  0  0  0
   12.9129   -3.4834    2.8313 H   0  0  0  0  0  0  0  0  0  0  0  0
   11.6899   -1.6741    0.0720 H   0  0  0  0  0  0  0  0  0  0  0  0
    9.2918   -1.0378   -0.1445 H   0  0  0  0  0  0  0  0  0  0  0  0
    7.7597    3.0204    0.3355 H   0  0  0  0  0  0  0  0  0  0  0  0
    2.9848    2.6268    1.6941 H   0  0  0  0  0  0  0  0  0  0  0  0
  1  2  1  0
  1 32  1  0
  1 33  1  0
  1 34  1  0
  2  3  1  0
  2 35  1  0
  2 36  1  0
  3  4  1  0
  3 37  1  0
  3 38  1  0
  4  5  1  0
  4 31  1  0
  5  6  2  0
  5 13  1  0
  6  7  1  0
  6 39  1  0
  7  8  2  0
  7 12  1  0
  8  9  1  0
  8 40  1  0
  9 10  2  0
  9 41  1  0
 10 11  1  0
 10 42  1  0
 11 12  2  0
 11 43  1  0
 12 44  1  0
 13 14  2  0
 13 22  1  0
 14 15  1  0
 14 45  1  0
 15 16  2  0
 15 21  1  0
 16 17  1  0
 16 46  1  0
 17 18  2  0
 17 47  1  0
 18 19  1  0
 18 20  1  0
 19 48  1  0
 20 21  2  0
 20 49  1  0
 21 50  1  0
 22 23  2  0
 22 24  1  0
 24 25  1  0
 24 31  2  0
 25 26  2  0
 25 51  1  0
 26 27  1  0
 26 28  1  0
 28 29  1  0
 28 30  2  0
 30 31  1  0
 30 52  1  0
M  END

