
     RDKit          3D

 42 43  0  0  0  0  0  0  0  0999 V2000
    1.3167    0.4810   -0.1053 C   0  0  0  0  0  0  0  0  0  0  0  0
    2.8378    0.4301   -0.1058 C   0  0  0  0  0  0  0  0  0  0  0  0
    3.4877    1.1480    0.6293 O   0  0  0  0  0  0  0  0  0  0  0  0
    3.4391   -0.4753   -0.9863 N   0  0  0  0  0  0  0  0  0  0  0  0
    2.6371   -1.2866   -1.8989 C   0  0  0  0  0  0  0  0  0  0  0  0
    2.1532   -0.6417   -3.2106 C   0  0  0  0  0  0  0  0  0  0  0  0
    1.3867   -1.2585   -3.9301 O   0  0  0  0  0  0  0  0  0  0  0  0
    2.6372    0.6008   -3.4866 N   0  0  0  0  0  0  0  0  0  0  0  0
    2.2862    1.3498   -4.6787 C   0  0  1  0  0  0  0  0  0  0  0  0
    1.5508    2.6762   -4.4194 C   0  0  0  0  0  0  0  0  0  0  0  0
    1.6221    3.3754   -5.7827 C   0  0  0  0  0  0  0  0  0  0  0  0
    3.0224    3.0091   -6.3480 C   0  0  0  0  0  0  0  0  0  0  0  0
    3.4985    1.7731   -5.5393 C   0  0  0  0  0  0  0  0  0  0  0  0
    4.8622   -0.6665   -0.9857 C   0  0  0  0  0  0  0  0  0  0  0  0
    5.6006   -0.6988    0.2072 C   0  0  0  0  0  0  0  0  0  0  0  0
    6.9771   -0.9260    0.1761 C   0  0  0  0  0  0  0  0  0  0  0  0
    7.6680   -1.1368   -1.0263 C   0  0  0  0  0  0  0  0  0  0  0  0
    9.1556   -1.3897   -1.0532 C   0  0  0  0  0  0  0  0  0  0  0  0
    6.9191   -1.1070   -2.2117 C   0  0  0  0  0  0  0  0  0  0  0  0
    5.5436   -0.8718   -2.1974 C   0  0  0  0  0  0  0  0  0  0  0  0
    1.0217    1.2775    0.5879 H   0  0  0  0  0  0  0  0  0  0  0  0
    0.8839   -0.4712    0.2412 H   0  0  0  0  0  0  0  0  0  0  0  0
    0.9003    0.6931   -1.1012 H   0  0  0  0  0  0  0  0  0  0  0  0
    1.7350   -1.6683   -1.4009 H   0  0  0  0  0  0  0  0  0  0  0  0
    3.2162   -2.1763   -2.1832 H   0  0  0  0  0  0  0  0  0  0  0  0
    3.2761    1.0236   -2.8206 H   0  0  0  0  0  0  0  0  0  0  0  0
    1.6292    0.6832   -5.2579 H   0  0  0  0  0  0  0  0  0  0  0  0
    2.0995    3.2568   -3.6548 H   0  0  0  0  0  0  0  0  0  0  0  0
    0.5242    2.5283   -4.0498 H   0  0  0  0  0  0  0  0  0  0  0  0
    1.4578    4.4617   -5.7183 H   0  0  0  0  0  0  0  0  0  0  0  0
    0.8334    2.9720   -6.4395 H   0  0  0  0  0  0  0  0  0  0  0  0
    3.7279    3.8455   -6.2257 H   0  0  0  0  0  0  0  0  0  0  0  0
    2.9733    2.8001   -7.4275 H   0  0  0  0  0  0  0  0  0  0  0  0
    4.3335    2.0462   -4.8714 H   0  0  0  0  0  0  0  0  0  0  0  0
    3.8569    0.9481   -6.1736 H   0  0  0  0  0  0  0  0  0  0  0  0
    5.1025   -0.5333    1.1603 H   0  0  0  0  0  0  0  0  0  0  0  0
    7.5276   -0.9448    1.1211 H   0  0  0  0  0  0  0  0  0  0  0  0
    9.5934   -1.3326   -0.0457 H   0  0  0  0  0  0  0  0  0  0  0  0
    9.6773   -0.6547   -1.6886 H   0  0  0  0  0  0  0  0  0  0  0  0
    9.3861   -2.3880   -1.4624 H   0  0  0  0  0  0  0  0  0  0  0  0
    7.4186   -1.2637   -3.1723 H   0  0  0  0  0  0  0  0  0  0  0  0
    5.0028   -0.8386   -3.1446 H   0  0  0  0  0  0  0  0  0  0  0  0
  1  2  1  0
  1 21  1  0
  1 22  1  0
  1 23  1  0
  2  3  2  0
  2  4  1  0
  4  5  1  0
  4 14  1  0
  5  6  1  0
  5 24  1  0
  5 25  1  0
  6  7  2  0
  6  8  1  0
  8  9  1  0
  8 26  1  0
  9 10  1  0
  9 13  1  0
  9 27  1  6
 10 11  1  0
 10 28  1  0
 10 29  1  0
 11 12  1  0
 11 30  1  0
 11 31  1  0
 12 13  1  0
 12 32  1  0
 12 33  1  0
 13 34  1  0
 13 35  1  0
 14 15  2  0
 14 20  1  0
 15 16  1  0
 15 36  1  0
 16 17  2  0
 16 37  1  0
 17 18  1  0
 17 19  1  0
 18 38  1  0
 18 39  1  0
 18 40  1  0
 19 20  2  0
 19 41  1  0
 20 42  1  0
M  END

