
     RDKit          3D

 25 25  0  0  0  0  0  0  0  0999 V2000
    0.5721    1.3976    0.2622 N   0  0  0  0  0  0  0  0  0  0  0  0
    1.8901    0.7641    0.3231 C   0  0  1  0  0  0  0  0  0  0  0  0
    3.0519    1.4953   -0.3745 C   0  0  0  0  0  0  0  0  0  0  0  0
    2.7871    1.8418   -1.7715 N   0  0  0  0  0  0  0  0  0  0  0  0
    2.4891    3.2219   -2.1424 C   0  0  0  0  0  0  0  0  0  0  0  0
    2.9829    3.5146   -3.5503 C   0  0  0  0  0  0  0  0  0  0  0  0
    2.4353    2.5271   -4.4603 N   0  0  0  0  0  0  0  0  0  0  0  0
    2.3422    1.1967   -4.1512 C   0  0  0  0  0  0  0  0  0  0  0  0
    2.0139    0.3430   -4.9429 O   0  0  0  0  0  0  0  0  0  0  0  0
    2.6805    0.8166   -2.6805 C   0  0  0  0  0  0  0  0  0  0  0  0
    2.8298   -0.3503   -2.3786 O   0  0  0  0  0  0  0  0  0  0  0  0
    2.2521    0.4846    1.7964 C   0  0  0  0  0  0  0  0  0  0  0  0
    3.3803    0.3134    2.1792 O   0  0  0  0  0  0  0  0  0  0  0  0
    1.1838    0.4295    2.5939 O   0  0  0  0  0  0  0  0  0  0  0  0
    0.0809    1.1980   -0.6068 H   0  0  0  0  0  0  0  0  0  0  0  0
    0.6201    2.4109    0.3747 H   0  0  0  0  0  0  0  0  0  0  0  0
    1.7997   -0.2251   -0.1553 H   0  0  0  0  0  0  0  0  0  0  0  0
    3.9351    0.8441   -0.3179 H   0  0  0  0  0  0  0  0  0  0  0  0
    3.2942    2.4239    0.1646 H   0  0  0  0  0  0  0  0  0  0  0  0
    2.9929    3.8935   -1.4315 H   0  0  0  0  0  0  0  0  0  0  0  0
    1.4026    3.4294   -2.0805 H   0  0  0  0  0  0  0  0  0  0  0  0
    4.0903    3.5179   -3.5640 H   0  0  0  0  0  0  0  0  0  0  0  0
    2.6457    4.5165   -3.8562 H   0  0  0  0  0  0  0  0  0  0  0  0
    2.3228    2.7505   -5.4453 H   0  0  0  0  0  0  0  0  0  0  0  0
    0.4237    0.6745    2.0143 H   0  0  0  0  0  0  0  0  0  0  0  0
  1  2  1  0
  1 15  1  0
  1 16  1  0
  2  3  1  0
  2 12  1  0
  2 17  1  6
  3  4  1  0
  3 18  1  0
  3 19  1  0
  4  5  1  0
  4 10  1  0
  5  6  1  0
  5 20  1  0
  5 21  1  0
  6  7  1  0
  6 22  1  0
  6 23  1  0
  7  8  1  0
  7 24  1  0
  8  9  2  0
  8 10  1  0
 10 11  2  0
 12 13  2  0
 12 14  1  0
 14 25  1  0
M  END

