
     RDKit          3D

 20 21  0  0  0  0  0  0  0  0999 V2000
    2.1526   -1.0413   -0.4874 C   0  0  0  0  0  0  0  0  0  0  0  0
    2.3092    0.2707    0.0087 O   0  0  0  0  0  0  0  0  0  0  0  0
    3.0564    0.4603    1.1218 C   0  0  0  0  0  0  0  0  0  0  0  0
    3.6908   -0.5009    1.8433 C   0  0  0  0  0  0  0  0  0  0  0  0
    4.5030   -0.1921    3.0743 C   0  0  0  0  0  0  0  0  0  0  0  0
    4.5580    1.2619    3.4373 C   0  0  0  0  0  0  0  0  0  0  0  0
    5.2037    1.7486    4.4564 N   0  0  0  0  0  0  0  0  0  0  0  0
    5.0131    3.1561    4.4611 C   0  0  0  0  0  0  0  0  0  0  0  0
    5.4659    3.9279    5.2600 O   0  0  0  0  0  0  0  0  0  0  0  0
    4.1040    3.5416    3.2373 C   0  0  0  0  0  0  0  0  0  0  0  0
    3.7365    4.6465    2.9298 O   0  0  0  0  0  0  0  0  0  0  0  0
    3.8432    2.2296    2.6047 C   0  0  0  0  0  0  0  0  0  0  0  0
    3.1331    1.8658    1.5127 C   0  0  0  0  0  0  0  0  0  0  0  0
    1.5239   -0.9658   -1.3839 H   0  0  0  0  0  0  0  0  0  0  0  0
    1.6555   -1.6963    0.2508 H   0  0  0  0  0  0  0  0  0  0  0  0
    3.1250   -1.4886   -0.7622 H   0  0  0  0  0  0  0  0  0  0  0  0
    3.6311   -1.5495    1.5496 H   0  0  0  0  0  0  0  0  0  0  0  0
    5.5395   -0.5628    2.9597 H   0  0  0  0  0  0  0  0  0  0  0  0
    4.1155   -0.7539    3.9457 H   0  0  0  0  0  0  0  0  0  0  0  0
    2.6050    2.6027    0.9007 H   0  0  0  0  0  0  0  0  0  0  0  0
  1  2  1  0
  1 14  1  0
  1 15  1  0
  1 16  1  0
  2  3  1  0
  3  4  2  0
  3 13  1  0
  4  5  1  0
  4 17  1  0
  5  6  1  0
  5 18  1  0
  5 19  1  0
  6  7  2  0
  6 12  1  0
  7  8  1  0
  8  9  2  0
  8 10  1  0
 10 11  2  0
 10 12  1  0
 12 13  2  0
 13 20  1  0
M  END

