
     RDKit          3D

 35 36  0  0  0  0  0  0  0  0999 V2000
    1.1734   -0.3875    0.9963 C   0  0  0  0  0  0  0  0  0  0  0  0
    2.5726   -0.2996    0.3942 C   0  0  0  0  0  0  0  0  0  0  0  0
    3.3425   -1.9664    0.3745 S   0  0  0  0  0  0  0  0  0  0  0  0
    4.9743   -1.5432   -0.3711 C   0  0  1  0  0  0  0  0  0  0  0  0
    5.9422   -0.8196    0.5724 C   0  0  0  0  0  0  0  0  0  0  0  0
    6.9488   -1.8745    1.0099 C   0  0  0  0  0  0  0  0  0  0  0  0
    7.8072   -1.7626    1.8461 O   0  0  0  0  0  0  0  0  0  0  0  0
    6.7281   -3.0225    0.2272 N   0  0  0  0  0  0  0  0  0  0  0  0
    7.5260   -4.2079    0.2987 C   0  0  0  0  0  0  0  0  0  0  0  0
    8.2119   -4.6156   -0.8494 C   0  0  0  0  0  0  0  0  0  0  0  0
    8.9910   -5.7774   -0.8415 C   0  0  0  0  0  0  0  0  0  0  0  0
    9.7425   -6.2566   -2.0509 C   0  0  0  0  0  0  0  0  0  0  0  0
   10.7037   -6.9762   -1.9878 O   0  0  0  0  0  0  0  0  0  0  0  0
    9.2753   -5.8363   -3.2498 O   0  0  0  0  0  0  0  0  0  0  0  0
    9.1059   -6.5051    0.3517 C   0  0  0  0  0  0  0  0  0  0  0  0
    8.4057   -6.1036    1.4848 C   0  0  0  0  0  0  0  0  0  0  0  0
    7.5874   -4.9599    1.4892 C   0  0  0  0  0  0  0  0  0  0  0  0
    6.8180   -4.5758    2.7246 C   0  0  0  0  0  0  0  0  0  0  0  0
    5.6765   -2.8670   -0.6943 C   0  0  0  0  0  0  0  0  0  0  0  0
    5.3934   -3.6504   -1.5621 O   0  0  0  0  0  0  0  0  0  0  0  0
    0.7005    0.6072    0.9994 H   0  0  0  0  0  0  0  0  0  0  0  0
    1.2064   -0.7507    2.0354 H   0  0  0  0  0  0  0  0  0  0  0  0
    0.5301   -1.0677    0.4166 H   0  0  0  0  0  0  0  0  0  0  0  0
    3.2035    0.3884    0.9800 H   0  0  0  0  0  0  0  0  0  0  0  0
    2.5313    0.0758   -0.6415 H   0  0  0  0  0  0  0  0  0  0  0  0
    4.7881   -1.0091   -1.3146 H   0  0  0  0  0  0  0  0  0  0  0  0
    5.4677   -0.3789    1.4598 H   0  0  0  0  0  0  0  0  0  0  0  0
    6.5001   -0.0160    0.0629 H   0  0  0  0  0  0  0  0  0  0  0  0
    8.1385   -3.9937   -1.7434 H   0  0  0  0  0  0  0  0  0  0  0  0
    8.4068   -5.4205   -3.1489 H   0  0  0  0  0  0  0  0  0  0  0  0
    9.7396   -7.3937    0.3635 H   0  0  0  0  0  0  0  0  0  0  0  0
    8.4802   -6.6965    2.4001 H   0  0  0  0  0  0  0  0  0  0  0  0
    6.7096   -5.4356    3.4006 H   0  0  0  0  0  0  0  0  0  0  0  0
    5.8125   -4.2021    2.4756 H   0  0  0  0  0  0  0  0  0  0  0  0
    7.3355   -3.7681    3.2663 H   0  0  0  0  0  0  0  0  0  0  0  0
  1  2  1  0
  1 21  1  0
  1 22  1  0
  1 23  1  0
  2  3  1  0
  2 24  1  0
  2 25  1  0
  3  4  1  0
  4  5  1  0
  4 19  1  0
  4 26  1  6
  5  6  1  0
  5 27  1  0
  5 28  1  0
  6  7  2  0
  6  8  1  0
  8  9  1  0
  8 19  1  0
  9 10  2  0
  9 17  1  0
 10 11  1  0
 10 29  1  0
 11 12  1  0
 11 15  2  0
 12 13  2  0
 12 14  1  0
 14 30  1  0
 15 16  1  0
 15 31  1  0
 16 17  2  0
 16 32  1  0
 17 18  1  0
 18 33  1  0
 18 34  1  0
 18 35  1  0
 19 20  2  0
M  END

