
     RDKit          3D

 57 60  0  0  0  0  0  0  0  0999 V2000
   -0.3004   -1.0056    3.5043 C   0  0  0  0  0  0  0  0  0  0  0  0
    0.1832   -1.9756    4.4063 O   0  0  0  0  0  0  0  0  0  0  0  0
    0.7553   -3.1063    3.9159 C   0  0  0  0  0  0  0  0  0  0  0  0
    1.2163   -4.0352    4.8598 C   0  0  0  0  0  0  0  0  0  0  0  0
    1.8134   -5.2240    4.4465 C   0  0  0  0  0  0  0  0  0  0  0  0
    1.9650   -5.5087    3.0799 C   0  0  0  0  0  0  0  0  0  0  0  0
    2.5310   -6.6687    2.6054 O   0  0  0  0  0  0  0  0  0  0  0  0
    3.0702   -7.5910    3.5251 C   0  0  0  0  0  0  0  0  0  0  0  0
    1.5136   -4.5814    2.1222 C   0  0  0  0  0  0  0  0  0  0  0  0
    1.6808   -4.8325    0.6340 C   0  0  0  0  0  0  0  0  0  0  0  0
    0.3598   -4.7281   -0.1361 C   0  0  0  0  0  0  0  0  0  0  0  0
    0.0516   -3.6724   -0.6717 O   0  0  0  0  0  0  0  0  0  0  0  0
   -0.4600   -5.8316   -0.1782 N   0  0  0  0  0  0  0  0  0  0  0  0
   -1.6928   -5.7839   -0.9641 C   0  0  0  0  0  0  0  0  0  0  0  0
   -1.6700   -6.8600   -2.0542 C   0  0  0  0  0  0  0  0  0  0  0  0
   -1.4002   -8.2541   -1.4736 C   0  0  0  0  0  0  0  0  0  0  0  0
   -0.1253   -8.2281   -0.5916 C   0  0  2  0  0  0  0  0  0  0  0  0
    0.1983   -9.5821   -0.0137 C   0  0  0  0  0  0  0  0  0  0  0  0
    1.2948  -10.3829   -0.3286 C   0  0  0  0  0  0  0  0  0  0  0  0
    2.5564   -9.9333   -1.5553 S   0  0  1  0  0  0  0  0  0  0  0  0
    3.6569   -8.7984   -0.6845 C   0  0  0  0  0  0  0  0  0  0  0  0
    3.3250  -11.1539   -1.8228 O   0  0  0  0  0  0  0  0  0  0  0  0
    1.9226   -9.1993   -2.6587 O   0  0  0  0  0  0  0  0  0  0  0  0
    1.4611  -11.6624    0.2833 C   0  0  0  0  0  0  0  0  0  0  0  0
    0.6349  -12.1666    1.1704 N   0  0  0  0  0  0  0  0  0  0  0  0
   -0.4266  -11.4166    1.4929 C   0  0  0  0  0  0  0  0  0  0  0  0
   -1.4147  -11.6671    2.3384 N   0  0  0  0  0  0  0  0  0  0  0  0
   -2.1923  -10.5710    2.2451 C   0  0  0  0  0  0  0  0  0  0  0  0
   -1.7860   -9.6221    1.4043 N   0  0  0  0  0  0  0  0  0  0  0  0
   -0.6438  -10.1458    0.9079 N   0  0  0  0  0  0  0  0  0  0  0  0
   -0.2232   -7.1055    0.4794 C   0  0  0  0  0  0  0  0  0  0  0  0
    0.9100   -3.3900    2.5525 C   0  0  0  0  0  0  0  0  0  0  0  0
   -0.7174   -0.1922    4.1134 H   0  0  0  0  0  0  0  0  0  0  0  0
   -1.0958   -1.4086    2.8518 H   0  0  0  0  0  0  0  0  0  0  0  0
    0.5046   -0.5979    2.8663 H   0  0  0  0  0  0  0  0  0  0  0  0
    1.0965   -3.8080    5.9209 H   0  0  0  0  0  0  0  0  0  0  0  0
    2.1581   -5.9281    5.2038 H   0  0  0  0  0  0  0  0  0  0  0  0
    3.4985   -8.4131    2.9349 H   0  0  0  0  0  0  0  0  0  0  0  0
    2.2990   -8.0042    4.2000 H   0  0  0  0  0  0  0  0  0  0  0  0
    3.8710   -7.1391    4.1373 H   0  0  0  0  0  0  0  0  0  0  0  0
    2.1868   -5.7903    0.4683 H   0  0  0  0  0  0  0  0  0  0  0  0
    2.3124   -4.0439    0.1996 H   0  0  0  0  0  0  0  0  0  0  0  0
   -1.7743   -4.7763   -1.3882 H   0  0  0  0  0  0  0  0  0  0  0  0
   -2.5541   -5.9453   -0.2888 H   0  0  0  0  0  0  0  0  0  0  0  0
   -0.8895   -6.6056   -2.7914 H   0  0  0  0  0  0  0  0  0  0  0  0
   -2.6321   -6.8612   -2.5923 H   0  0  0  0  0  0  0  0  0  0  0  0
   -1.2614   -8.9865   -2.2841 H   0  0  0  0  0  0  0  0  0  0  0  0
   -2.2573   -8.5819   -0.8650 H   0  0  0  0  0  0  0  0  0  0  0  0
    0.7047   -7.9659   -1.2576 H   0  0  0  0  0  0  0  0  0  0  0  0
    4.1356   -9.3416    0.1402 H   0  0  0  0  0  0  0  0  0  0  0  0
    3.1005   -7.9249   -0.3213 H   0  0  0  0  0  0  0  0  0  0  0  0
    4.4028   -8.4984   -1.4342 H   0  0  0  0  0  0  0  0  0  0  0  0
    2.3253  -12.2657   -0.0108 H   0  0  0  0  0  0  0  0  0  0  0  0
   -3.1119  -10.4432    2.8173 H   0  0  0  0  0  0  0  0  0  0  0  0
    0.6912   -7.0691    1.0817 H   0  0  0  0  0  0  0  0  0  0  0  0
   -1.0589   -7.3226    1.1630 H   0  0  0  0  0  0  0  0  0  0  0  0
    0.5631   -2.6942    1.7877 H   0  0  0  0  0  0  0  0  0  0  0  0
  1  2  1  0
  1 33  1  0
  1 34  1  0
  1 35  1  0
  2  3  1  0
  3  4  2  0
  3 32  1  0
  4  5  1  0
  4 36  1  0
  5  6  2  0
  5 37  1  0
  6  7  1  0
  6  9  1  0
  7  8  1  0
  8 38  1  0
  8 39  1  0
  8 40  1  0
  9 10  1  0
  9 32  2  0
 10 11  1  0
 10 41  1  0
 10 42  1  0
 11 12  2  0
 11 13  1  0
 13 14  1  0
 13 31  1  0
 14 15  1  0
 14 43  1  0
 14 44  1  0
 15 16  1  0
 15 45  1  0
 15 46  1  0
 16 17  1  0
 16 47  1  0
 16 48  1  0
 17 18  1  0
 17 31  1  0
 17 49  1  6
 18 19  2  0
 18 30  1  0
 19 20  1  0
 19 24  1  0
 20 21  1  1
 20 22  2  0
 20 23  2  0
 21 50  1  0
 21 51  1  0
 21 52  1  0
 24 25  2  0
 24 53  1  0
 25 26  1  0
 26 27  2  0
 26 30  1  0
 27 28  1  0
 28 29  2  0
 28 54  1  0
 29 30  1  0
 31 55  1  0
 31 56  1  0
 32 57  1  0
M  END

