
     RDKit          3D

 61 65  0  0  0  0  0  0  0  0999 V2000
    1.4134   -0.7757   -3.5806 C   0  0  0  0  0  0  0  0  0  0  0  0
    2.7058   -0.5449   -2.8364 C   0  0  0  0  0  0  0  0  0  0  0  0
    3.3299    0.7392   -2.8979 C   0  0  0  0  0  0  0  0  0  0  0  0
    4.4946    1.0138   -2.2286 C   0  0  0  0  0  0  0  0  0  0  0  0
    5.1268    0.0067   -1.4408 C   0  0  0  0  0  0  0  0  0  0  0  0
    6.3276    0.2304   -0.7193 C   0  0  0  0  0  0  0  0  0  0  0  0
    6.9458    1.4863   -0.6965 N   0  0  0  0  0  0  0  0  0  0  0  0
    6.4284    2.7011   -0.2224 C   0  0  0  0  0  0  0  0  0  0  0  0
    5.1773    2.7898    0.4052 C   0  0  0  0  0  0  0  0  0  0  0  0
    4.6960    4.0247    0.8765 C   0  0  0  0  0  0  0  0  0  0  0  0
    3.4797    4.0928    1.5360 N   0  0  0  0  0  0  0  0  0  0  0  0
    5.4943    5.1758    0.7206 C   0  0  0  0  0  0  0  0  0  0  0  0
    6.7493    5.0865    0.1102 C   0  0  0  0  0  0  0  0  0  0  0  0
    7.5895    6.3298   -0.0612 C   0  0  0  0  0  0  0  0  0  0  0  0
    7.4393    6.9114   -1.3768 O   0  0  0  0  0  0  0  0  0  0  0  0
    8.3317    6.5484   -2.3221 C   0  0  0  0  0  0  0  0  0  0  0  0
    9.2709    5.8040   -2.1464 O   0  0  0  0  0  0  0  0  0  0  0  0
    7.9953    7.1707   -3.5024 N   0  0  0  0  0  0  0  0  0  0  0  0
    8.6429    7.0968   -4.7426 C   0  0  0  0  0  0  0  0  0  0  0  0
    9.8044    6.3339   -4.9546 C   0  0  0  0  0  0  0  0  0  0  0  0
   10.3769    6.3239   -6.2275 C   0  0  0  0  0  0  0  0  0  0  0  0
   11.8211    5.3747   -6.4904 Cl  0  0  0  0  0  0  0  0  0  0  0  0
    9.8418    7.0425   -7.2994 C   0  0  0  0  0  0  0  0  0  0  0  0
    8.6880    7.7925   -7.0612 C   0  0  0  0  0  0  0  0  0  0  0  0
    7.9802    8.7093   -8.3705 Cl  0  0  0  0  0  0  0  0  0  0  0  0
    8.0842    7.8299   -5.8060 C   0  0  0  0  0  0  0  0  0  0  0  0
    7.2194    3.8570   -0.3652 C   0  0  0  0  0  0  0  0  0  0  0  0
    6.9474   -0.8655   -0.0662 C   0  0  0  0  0  0  0  0  0  0  0  0
    8.1530   -0.7539    0.6952 C   0  0  0  0  0  0  0  0  0  0  0  0
    8.7202   -1.8564    1.2882 C   0  0  0  0  0  0  0  0  0  0  0  0
    8.1071   -3.1370    1.1649 C   0  0  0  0  0  0  0  0  0  0  0  0
    6.9331   -3.2797    0.4692 C   0  0  0  0  0  0  0  0  0  0  0  0
    6.3052   -2.1560   -0.1619 C   0  0  0  0  0  0  0  0  0  0  0  0
    5.1429   -2.3489   -0.7955 N   0  0  0  0  0  0  0  0  0  0  0  0
    4.5493   -1.3211   -1.4176 C   0  0  0  0  0  0  0  0  0  0  0  0
    3.3033   -1.5675   -2.1142 C   0  0  0  0  0  0  0  0  0  0  0  0
    2.6849   -2.9398   -2.0565 C   0  0  0  0  0  0  0  0  0  0  0  0
    1.0791    0.1341   -4.1001 H   0  0  0  0  0  0  0  0  0  0  0  0
    0.6045   -1.0931   -2.9007 H   0  0  0  0  0  0  0  0  0  0  0  0
    1.5163   -1.5752   -4.3339 H   0  0  0  0  0  0  0  0  0  0  0  0
    2.8628    1.5188   -3.5063 H   0  0  0  0  0  0  0  0  0  0  0  0
    4.9517    1.9996   -2.3068 H   0  0  0  0  0  0  0  0  0  0  0  0
    7.9578    1.4640   -0.7402 H   0  0  0  0  0  0  0  0  0  0  0  0
    4.5733    1.8925    0.5469 H   0  0  0  0  0  0  0  0  0  0  0  0
    2.8227    3.3407    1.3664 H   0  0  0  0  0  0  0  0  0  0  0  0
    3.0439    5.0047    1.6006 H   0  0  0  0  0  0  0  0  0  0  0  0
    5.1318    6.1395    1.0892 H   0  0  0  0  0  0  0  0  0  0  0  0
    8.6541    6.1152    0.1024 H   0  0  0  0  0  0  0  0  0  0  0  0
    7.2644    7.1188    0.6299 H   0  0  0  0  0  0  0  0  0  0  0  0
    7.1670    7.7530   -3.4527 H   0  0  0  0  0  0  0  0  0  0  0  0
   10.2426    5.7652   -4.1391 H   0  0  0  0  0  0  0  0  0  0  0  0
   10.3068    7.0191   -8.2837 H   0  0  0  0  0  0  0  0  0  0  0  0
    7.1828    8.4275   -5.6585 H   0  0  0  0  0  0  0  0  0  0  0  0
    8.1918    3.8022   -0.8597 H   0  0  0  0  0  0  0  0  0  0  0  0
    8.6198    0.2246    0.8256 H   0  0  0  0  0  0  0  0  0  0  0  0
    9.6398   -1.7511    1.8691 H   0  0  0  0  0  0  0  0  0  0  0  0
    8.5729   -4.0044    1.6398 H   0  0  0  0  0  0  0  0  0  0  0  0
    6.4331   -4.2451    0.3707 H   0  0  0  0  0  0  0  0  0  0  0  0
    3.3010   -3.6103   -1.4471 H   0  0  0  0  0  0  0  0  0  0  0  0
    2.5833   -3.3762   -3.0651 H   0  0  0  0  0  0  0  0  0  0  0  0
    1.6686   -2.9029   -1.6279 H   0  0  0  0  0  0  0  0  0  0  0  0
  1  2  1  0
  1 38  1  0
  1 39  1  0
  1 40  1  0
  2  3  2  0
  2 36  1  0
  3  4  1  0
  3 41  1  0
  4  5  2  0
  4 42  1  0
  5  6  1  0
  5 35  1  0
  6  7  1  0
  6 28  2  0
  7  8  1  0
  7 43  1  0
  8  9  2  0
  8 27  1  0
  9 10  1  0
  9 44  1  0
 10 11  1  0
 10 12  2  0
 11 45  1  0
 11 46  1  0
 12 13  1  0
 12 47  1  0
 13 14  1  0
 13 27  2  0
 14 15  1  0
 14 48  1  0
 14 49  1  0
 15 16  1  0
 16 17  2  0
 16 18  1  0
 18 19  1  0
 18 50  1  0
 19 20  2  0
 19 26  1  0
 20 21  1  0
 20 51  1  0
 21 22  1  0
 21 23  2  0
 23 24  1  0
 23 52  1  0
 24 25  1  0
 24 26  2  0
 26 53  1  0
 27 54  1  0
 28 29  1  0
 28 33  1  0
 29 30  2  0
 29 55  1  0
 30 31  1  0
 30 56  1  0
 31 32  2  0
 31 57  1  0
 32 33  1  0
 32 58  1  0
 33 34  2  0
 34 35  1  0
 35 36  2  0
 36 37  1  0
 37 59  1  0
 37 60  1  0
 37 61  1  0
M  END

