
     RDKit          3D

 54 56  0  0  0  0  0  0  0  0999 V2000
    1.7304    0.0222    3.5090 C   0  0  0  0  0  0  0  0  0  0  0  0
    2.8697    0.8737    3.0408 C   0  0  0  0  0  0  0  0  0  0  0  0
    3.1700    1.2697    1.7064 C   0  0  0  0  0  0  0  0  0  0  0  0
    4.3113    2.0423    1.8203 C   0  0  0  0  0  0  0  0  0  0  0  0
    5.0299    2.7675    0.8730 N   0  0  0  0  0  0  0  0  0  0  0  0
    4.8522    2.6727   -0.4945 C   0  0  0  0  0  0  0  0  0  0  0  0
    4.0923    1.8827   -1.0157 O   0  0  0  0  0  0  0  0  0  0  0  0
    5.7389    3.6193   -1.3169 C   0  0  0  0  0  0  0  0  0  0  0  0
    6.0103    4.9729   -0.7288 C   0  0  0  0  0  0  0  0  0  0  0  0
    5.0608    6.0248   -0.5496 C   0  0  0  0  0  0  0  0  0  0  0  0
    3.5976    6.0086   -0.8683 C   0  0  0  0  0  0  0  0  0  0  0  0
    5.6447    7.1057   -0.0470 N   0  0  0  0  0  0  0  0  0  0  0  0
    6.9441    6.7899    0.1097 N   0  0  0  0  0  0  0  0  0  0  0  0
    7.8511    7.8111    0.6146 C   0  0  0  0  0  0  0  0  0  0  0  0
    7.5028    8.3025    2.0302 C   0  0  1  0  0  0  0  0  0  0  0  0
    7.6014    7.1809    3.0679 C   0  0  0  0  0  0  0  0  0  0  0  0
    8.3904    9.4966    2.3979 C   0  0  0  0  0  0  0  0  0  0  0  0
    7.2213    5.5118   -0.2895 C   0  0  0  0  0  0  0  0  0  0  0  0
    8.5933    4.9155   -0.2490 C   0  0  0  0  0  0  0  0  0  0  0  0
    4.6534    2.0566    3.1568 N   0  0  0  0  0  0  0  0  0  0  0  0
    5.7591    2.6597    3.8024 C   0  0  0  0  0  0  0  0  0  0  0  0
    7.0407    2.6342    3.2294 C   0  0  0  0  0  0  0  0  0  0  0  0
    8.1111    3.2220    3.9092 C   0  0  0  0  0  0  0  0  0  0  0  0
    7.9294    3.8187    5.1578 C   0  0  0  0  0  0  0  0  0  0  0  0
    6.6487    3.8181    5.7225 C   0  0  0  0  0  0  0  0  0  0  0  0
    6.4030    4.5560    7.2879 Cl  0  0  0  0  0  0  0  0  0  0  0  0
    5.5617    3.2493    5.0605 C   0  0  0  0  0  0  0  0  0  0  0  0
    3.7532    1.3556    3.9021 N   0  0  0  0  0  0  0  0  0  0  0  0
    0.7596    0.4633    3.2292 H   0  0  0  0  0  0  0  0  0  0  0  0
    1.7659   -0.0822    4.6022 H   0  0  0  0  0  0  0  0  0  0  0  0
    1.7730   -0.9835    3.0595 H   0  0  0  0  0  0  0  0  0  0  0  0
    2.6416    1.0459    0.7866 H   0  0  0  0  0  0  0  0  0  0  0  0
    5.6118    3.5335    1.2018 H   0  0  0  0  0  0  0  0  0  0  0  0
    5.2373    3.6961   -2.2939 H   0  0  0  0  0  0  0  0  0  0  0  0
    6.6840    3.0809   -1.5053 H   0  0  0  0  0  0  0  0  0  0  0  0
    3.4181    5.7789   -1.9322 H   0  0  0  0  0  0  0  0  0  0  0  0
    3.1590    6.9913   -0.6469 H   0  0  0  0  0  0  0  0  0  0  0  0
    3.0575    5.2478   -0.2801 H   0  0  0  0  0  0  0  0  0  0  0  0
    7.8275    8.6618   -0.0867 H   0  0  0  0  0  0  0  0  0  0  0  0
    8.8707    7.3973    0.5951 H   0  0  0  0  0  0  0  0  0  0  0  0
    6.4548    8.6446    1.9874 H   0  0  0  0  0  0  0  0  0  0  0  0
    8.6369    6.8075    3.1553 H   0  0  0  0  0  0  0  0  0  0  0  0
    6.9553    6.3282    2.8090 H   0  0  0  0  0  0  0  0  0  0  0  0
    7.2939    7.5354    4.0643 H   0  0  0  0  0  0  0  0  0  0  0  0
    9.4563    9.2102    2.4299 H   0  0  0  0  0  0  0  0  0  0  0  0
    8.1258    9.8914    3.3914 H   0  0  0  0  0  0  0  0  0  0  0  0
    8.2865   10.3202    1.6728 H   0  0  0  0  0  0  0  0  0  0  0  0
    8.9963    4.8673    0.7762 H   0  0  0  0  0  0  0  0  0  0  0  0
    9.3112    5.4877   -0.8602 H   0  0  0  0  0  0  0  0  0  0  0  0
    8.5734    3.8904   -0.6443 H   0  0  0  0  0  0  0  0  0  0  0  0
    7.2057    2.1271    2.2784 H   0  0  0  0  0  0  0  0  0  0  0  0
    9.1104    3.1919    3.4677 H   0  0  0  0  0  0  0  0  0  0  0  0
    8.7632    4.2697    5.6973 H   0  0  0  0  0  0  0  0  0  0  0  0
    4.5689    3.2393    5.5075 H   0  0  0  0  0  0  0  0  0  0  0  0
  1  2  1  0
  1 29  1  0
  1 30  1  0
  1 31  1  0
  2  3  1  0
  2 28  2  0
  3  4  2  0
  3 32  1  0
  4  5  1  0
  4 20  1  0
  5  6  1  0
  5 33  1  0
  6  7  2  0
  6  8  1  0
  8  9  1  0
  8 34  1  0
  8 35  1  0
  9 10  1  0
  9 18  2  0
 10 11  1  0
 10 12  2  0
 11 36  1  0
 11 37  1  0
 11 38  1  0
 12 13  1  0
 13 14  1  0
 13 18  1  0
 14 15  1  0
 14 39  1  0
 14 40  1  0
 15 16  1  0
 15 17  1  0
 15 41  1  6
 16 42  1  0
 16 43  1  0
 16 44  1  0
 17 45  1  0
 17 46  1  0
 17 47  1  0
 18 19  1  0
 19 48  1  0
 19 49  1  0
 19 50  1  0
 20 21  1  0
 20 28  1  0
 21 22  2  0
 21 27  1  0
 22 23  1  0
 22 51  1  0
 23 24  2  0
 23 52  1  0
 24 25  1  0
 24 53  1  0
 25 26  1  0
 25 27  2  0
 27 54  1  0
M  END

