
     RDKit          3D

 40 41  0  0  0  0  0  0  0  0999 V2000
    1.2187   -0.4004    0.3822 C   0  0  0  0  0  0  0  0  0  0  0  0
    2.7132   -0.1156    0.2358 C   0  0  0  0  0  0  0  0  0  0  0  0
    3.1093    0.3485   -1.1660 C   0  0  0  0  0  0  0  0  0  0  0  0
    4.5326    0.6360   -1.2466 N   0  0  0  0  0  0  0  0  0  0  0  0
    5.0425    1.0656   -2.5494 C   0  0  1  0  0  0  0  0  0  0  0  0
    4.6712    2.5394   -2.8030 C   0  0  0  0  0  0  0  0  0  0  0  0
    5.0175    3.0682   -4.2061 C   0  0  0  0  0  0  0  0  0  0  0  0
    4.5578    4.4936   -4.4262 C   0  0  0  0  0  0  0  0  0  0  0  0
    5.3853    5.5767   -4.0801 C   0  0  0  0  0  0  0  0  0  0  0  0
    4.9380    6.8877   -4.2511 C   0  0  0  0  0  0  0  0  0  0  0  0
    3.6653    7.1457   -4.7675 C   0  0  0  0  0  0  0  0  0  0  0  0
    2.8336    6.0729   -5.1162 C   0  0  0  0  0  0  0  0  0  0  0  0
    1.5861    6.2500   -5.6284 O   0  0  0  0  0  0  0  0  0  0  0  0
    3.2837    4.7564   -4.9437 C   0  0  0  0  0  0  0  0  0  0  0  0
    6.5457    0.8402   -2.5774 C   0  0  1  0  0  0  0  0  0  0  0  0
    7.0989   -0.5551   -2.7553 C   0  0  0  0  0  0  0  0  0  0  0  0
    7.2686    0.4710   -3.8462 C   0  0  0  0  0  0  0  0  0  0  0  0
    0.9713   -0.7347    1.4022 H   0  0  0  0  0  0  0  0  0  0  0  0
    0.8864   -1.1882   -0.3147 H   0  0  0  0  0  0  0  0  0  0  0  0
    0.6163    0.4996    0.1733 H   0  0  0  0  0  0  0  0  0  0  0  0
    3.2886   -1.0260    0.4891 H   0  0  0  0  0  0  0  0  0  0  0  0
    3.0317    0.6552    0.9579 H   0  0  0  0  0  0  0  0  0  0  0  0
    2.5415    1.2632   -1.4093 H   0  0  0  0  0  0  0  0  0  0  0  0
    2.7828   -0.4147   -1.9129 H   0  0  0  0  0  0  0  0  0  0  0  0
    5.0558   -0.1861   -0.9484 H   0  0  0  0  0  0  0  0  0  0  0  0
    4.5987    0.4559   -3.3737 H   0  0  0  0  0  0  0  0  0  0  0  0
    5.1651    3.1568   -2.0334 H   0  0  0  0  0  0  0  0  0  0  0  0
    3.5885    2.6685   -2.6423 H   0  0  0  0  0  0  0  0  0  0  0  0
    4.5537    2.4138   -4.9641 H   0  0  0  0  0  0  0  0  0  0  0  0
    6.1055    3.0100   -4.3658 H   0  0  0  0  0  0  0  0  0  0  0  0
    6.3848    5.3884   -3.6792 H   0  0  0  0  0  0  0  0  0  0  0  0
    5.5875    7.7255   -3.9835 H   0  0  0  0  0  0  0  0  0  0  0  0
    3.3185    8.1751   -4.9042 H   0  0  0  0  0  0  0  0  0  0  0  0
    1.4008    7.1955   -5.6992 H   0  0  0  0  0  0  0  0  0  0  0  0
    2.6147    3.9407   -5.2296 H   0  0  0  0  0  0  0  0  0  0  0  0
    7.0913    1.4826   -1.8758 H   0  0  0  0  0  0  0  0  0  0  0  0
    6.3879   -1.3687   -2.9331 H   0  0  0  0  0  0  0  0  0  0  0  0
    7.9755   -0.8485   -2.1709 H   0  0  0  0  0  0  0  0  0  0  0  0
    6.6755    0.3455   -4.7568 H   0  0  0  0  0  0  0  0  0  0  0  0
    8.2634    0.8919   -4.0184 H   0  0  0  0  0  0  0  0  0  0  0  0
  1  2  1  0
  1 18  1  0
  1 19  1  0
  1 20  1  0
  2  3  1  0
  2 21  1  0
  2 22  1  0
  3  4  1  0
  3 23  1  0
  3 24  1  0
  4  5  1  0
  4 25  1  0
  5  6  1  0
  5 15  1  0
  5 26  1  6
  6  7  1  0
  6 27  1  0
  6 28  1  0
  7  8  1  0
  7 29  1  0
  7 30  1  0
  8  9  2  0
  8 14  1  0
  9 10  1  0
  9 31  1  0
 10 11  2  0
 10 32  1  0
 11 12  1  0
 11 33  1  0
 12 13  1  0
 12 14  2  0
 13 34  1  0
 14 35  1  0
 15 16  1  0
 15 17  1  0
 15 36  1  1
 16 17  1  0
 16 37  1  0
 16 38  1  0
 17 39  1  0
 17 40  1  0
M  END

