
     RDKit          3D

 46 47  0  0  0  0  0  0  0  0999 V2000
    1.1440   -2.9808    0.8405 C   0  0  0  0  0  0  0  0  0  0  0  0
    2.1682   -2.6477   -0.2504 C   0  0  1  0  0  0  0  0  0  0  0  0
    1.4850   -2.5863   -1.6267 C   0  0  0  0  0  0  0  0  0  0  0  0
    2.4424   -2.4543   -2.8008 C   0  0  0  0  0  0  0  0  0  0  0  0
    3.6296   -2.8071   -2.7452 O   0  0  0  0  0  0  0  0  0  0  0  0
    1.9191   -1.9645   -3.9441 N   0  0  0  0  0  0  0  0  0  0  0  0
    2.6565   -1.9115   -5.2117 C   0  0  2  0  0  0  0  0  0  0  0  0
    3.3168   -2.7956   -5.2140 H   0  0  0  0  0  0  0  0  0  0  0  0
    3.5980   -0.6777   -5.2314 C   0  0  0  0  0  0  0  0  0  0  0  0
    3.4951    0.2357   -6.0098 O   0  0  0  0  0  0  0  0  0  0  0  0
    4.5545   -0.6984   -4.3023 O   0  0  0  0  0  0  0  0  0  0  0  0
    1.6907   -2.0300   -6.4111 C   0  0  1  0  0  0  0  0  0  0  0  0
    0.6646   -0.8898   -6.5087 C   0  0  0  0  0  0  0  0  0  0  0  0
    2.4639   -2.2022   -7.7256 C   0  0  0  0  0  0  0  0  0  0  0  0
    2.7788   -1.3648    0.0655 N   0  0  0  0  0  0  0  0  0  0  0  0
    4.0438   -1.2056    0.0207 C   0  0  0  0  0  0  0  0  0  0  0  0
    5.0083   -2.1457   -0.3758 N   0  0  0  0  0  0  0  0  0  0  0  0
    6.5957   -1.4932   -0.5245 S   0  0  1  0  0  0  0  0  0  0  0  0
    7.5193   -2.1616    0.3838 O   0  0  0  0  0  0  0  0  0  0  0  0
    6.9211   -1.4077   -1.9487 O   0  0  0  0  0  0  0  0  0  0  0  0
    6.0778    0.0754    0.1637 C   0  0  0  0  0  0  0  0  0  0  0  0
    6.8886    1.1674    0.4590 C   0  0  0  0  0  0  0  0  0  0  0  0
    6.2692    2.2990    0.9991 C   0  0  0  0  0  0  0  0  0  0  0  0
    4.8857    2.3145    1.2397 C   0  0  0  0  0  0  0  0  0  0  0  0
    4.0930    1.2021    0.9479 C   0  0  0  0  0  0  0  0  0  0  0  0
    4.7034    0.0705    0.4007 C   0  0  0  0  0  0  0  0  0  0  0  0
    0.6560   -3.9494    0.6462 H   0  0  0  0  0  0  0  0  0  0  0  0
    0.3708   -2.1982    0.8968 H   0  0  0  0  0  0  0  0  0  0  0  0
    1.6389   -3.0355    1.8213 H   0  0  0  0  0  0  0  0  0  0  0  0
    2.9133   -3.4642   -0.2863 H   0  0  0  0  0  0  0  0  0  0  0  0
    0.7639   -1.7520   -1.6422 H   0  0  0  0  0  0  0  0  0  0  0  0
    0.9061   -3.5137   -1.7863 H   0  0  0  0  0  0  0  0  0  0  0  0
    0.9712   -1.6053   -3.9362 H   0  0  0  0  0  0  0  0  0  0  0  0
    4.5160   -1.5118   -3.7521 H   0  0  0  0  0  0  0  0  0  0  0  0
    1.1360   -2.9690   -6.2274 H   0  0  0  0  0  0  0  0  0  0  0  0
    1.1638    0.0724   -6.6845 H   0  0  0  0  0  0  0  0  0  0  0  0
    0.0435   -0.7932   -5.6006 H   0  0  0  0  0  0  0  0  0  0  0  0
   -0.0317   -1.0823   -7.3399 H   0  0  0  0  0  0  0  0  0  0  0  0
    3.0251   -1.2905   -7.9756 H   0  0  0  0  0  0  0  0  0  0  0  0
    1.7678   -2.4142   -8.5521 H   0  0  0  0  0  0  0  0  0  0  0  0
    3.1759   -3.0418   -7.6670 H   0  0  0  0  0  0  0  0  0  0  0  0
    4.7365   -2.7311   -1.1774 H   0  0  0  0  0  0  0  0  0  0  0  0
    7.9641    1.1417    0.2731 H   0  0  0  0  0  0  0  0  0  0  0  0
    6.8703    3.1798    1.2372 H   0  0  0  0  0  0  0  0  0  0  0  0
    4.4252    3.2099    1.6641 H   0  0  0  0  0  0  0  0  0  0  0  0
    3.0174    1.1914    1.1333 H   0  0  0  0  0  0  0  0  0  0  0  0
  1  2  1  0
  1 27  1  0
  1 28  1  0
  1 29  1  0
  2  3  1  0
  2 15  1  0
  2 30  1  6
  3  4  1  0
  3 31  1  0
  3 32  1  0
  4  5  2  0
  4  6  1  0
  6  7  1  0
  6 33  1  0
  7  8  1  1
  7  9  1  0
  7 12  1  0
  9 10  2  0
  9 11  1  0
 11 34  1  0
 12 13  1  0
 12 14  1  0
 12 35  1  1
 13 36  1  0
 13 37  1  0
 13 38  1  0
 14 39  1  0
 14 40  1  0
 14 41  1  0
 15 16  2  0
 16 17  1  0
 16 26  1  0
 18 17  1  6
 17 42  1  0
 18 19  2  0
 18 20  2  0
 18 21  1  0
 21 22  2  0
 21 26  1  0
 22 23  1  0
 22 43  1  0
 23 24  2  0
 23 44  1  0
 24 25  1  0
 24 45  1  0
 25 26  2  0
 25 46  1  0
M  END

