
     RDKit          3D

 41 41  0  0  0  0  0  0  0  0999 V2000
    1.0541   -0.2531   -0.6767 C   0  0  0  0  0  0  0  0  0  0  0  0
    2.5381   -0.3114   -0.3151 C   0  0  0  0  0  0  0  0  0  0  0  0
    2.8356    0.1782    1.1015 C   0  0  0  0  0  0  0  0  0  0  0  0
    4.2527    0.0884    1.4100 N   0  0  0  0  0  0  0  0  0  0  0  0
    4.6256    0.5327    2.7376 C   0  0  1  0  0  0  0  0  0  0  0  0
    4.3023   -0.4948    3.8156 C   0  0  0  0  0  0  0  0  0  0  0  0
    4.4795   -1.8641    3.5724 C   0  0  0  0  0  0  0  0  0  0  0  0
    4.2167   -2.7962    4.5778 C   0  0  0  0  0  0  0  0  0  0  0  0
    3.7878   -2.3790    5.8410 C   0  0  0  0  0  0  0  0  0  0  0  0
    3.6152   -1.0163    6.0748 C   0  0  0  0  0  0  0  0  0  0  0  0
    3.1211   -0.6600    7.3353 O   0  0  0  0  0  0  0  0  0  0  0  0
    3.7065    0.3140    8.0569 C   0  0  1  0  0  0  0  0  0  0  0  0
    5.0374    0.1763    8.1248 F   0  0  0  0  0  0  0  0  0  0  0  0
    3.4655    1.5459    7.5628 F   0  0  0  0  0  0  0  0  0  0  0  0
    3.2078    0.2683    9.2864 F   0  0  0  0  0  0  0  0  0  0  0  0
    3.8543   -0.0715    5.0744 C   0  0  0  0  0  0  0  0  0  0  0  0
    6.1297    0.8982    2.7554 C   0  0  1  0  0  0  0  0  0  0  0  0
    6.8753   -0.2270    2.4658 O   0  0  0  0  0  0  0  0  0  0  0  0
    8.2707   -0.0776    2.6180 C   0  0  0  0  0  0  0  0  0  0  0  0
    6.4161    1.8917    1.7855 O   0  0  0  0  0  0  0  0  0  0  0  0
    6.2688    3.2288    2.2020 C   0  0  0  0  0  0  0  0  0  0  0  0
    0.8766   -0.6117   -1.7028 H   0  0  0  0  0  0  0  0  0  0  0  0
    0.6615    0.7756   -0.6123 H   0  0  0  0  0  0  0  0  0  0  0  0
    0.4509   -0.8789    0.0023 H   0  0  0  0  0  0  0  0  0  0  0  0
    3.1185    0.2969   -1.0339 H   0  0  0  0  0  0  0  0  0  0  0  0
    2.9182   -1.3422   -0.4142 H   0  0  0  0  0  0  0  0  0  0  0  0
    2.2792   -0.4431    1.8257 H   0  0  0  0  0  0  0  0  0  0  0  0
    2.4372    1.2139    1.2251 H   0  0  0  0  0  0  0  0  0  0  0  0
    4.8032    0.6050    0.7249 H   0  0  0  0  0  0  0  0  0  0  0  0
    4.1006    1.4743    3.0216 H   0  0  0  0  0  0  0  0  0  0  0  0
    4.8197   -2.1740    2.5839 H   0  0  0  0  0  0  0  0  0  0  0  0
    4.3526   -3.8630    4.3823 H   0  0  0  0  0  0  0  0  0  0  0  0
    3.5795   -3.0883    6.6439 H   0  0  0  0  0  0  0  0  0  0  0  0
    3.6804    0.9876    5.2698 H   0  0  0  0  0  0  0  0  0  0  0  0
    6.3899    1.2992    3.7622 H   0  0  0  0  0  0  0  0  0  0  0  0
    8.7275   -1.0530    2.4008 H   0  0  0  0  0  0  0  0  0  0  0  0
    8.5340    0.2160    3.6534 H   0  0  0  0  0  0  0  0  0  0  0  0
    8.6772    0.6764    1.9231 H   0  0  0  0  0  0  0  0  0  0  0  0
    6.6156    3.8694    1.3784 H   0  0  0  0  0  0  0  0  0  0  0  0
    6.8782    3.4480    3.1005 H   0  0  0  0  0  0  0  0  0  0  0  0
    5.2181    3.4931    2.4276 H   0  0  0  0  0  0  0  0  0  0  0  0
  1  2  1  0
  1 22  1  0
  1 23  1  0
  1 24  1  0
  2  3  1  0
  2 25  1  0
  2 26  1  0
  3  4  1  0
  3 27  1  0
  3 28  1  0
  4  5  1  0
  4 29  1  0
  5  6  1  0
  5 17  1  0
  5 30  1  1
  6  7  2  0
  6 16  1  0
  7  8  1  0
  7 31  1  0
  8  9  2  0
  8 32  1  0
  9 10  1  0
  9 33  1  0
 10 11  1  0
 10 16  2  0
 11 12  1  0
 12 13  1  1
 12 14  1  0
 12 15  1  0
 16 34  1  0
 17 18  1  0
 17 20  1  0
 17 35  1  1
 18 19  1  0
 19 36  1  0
 19 37  1  0
 19 38  1  0
 20 21  1  0
 21 39  1  0
 21 40  1  0
 21 41  1  0
M  END

