
     RDKit          3D

 60 61  0  0  0  0  0  0  0  0999 V2000
   -2.2711   -1.0688   -1.6629 C   0  0  0  0  0  0  0  0  0  0  0  0
   -2.2004    0.2379   -1.1664 C   0  0  0  0  0  0  0  0  0  0  0  0
   -1.0438    0.6855   -0.5276 C   0  0  0  0  0  0  0  0  0  0  0  0
    0.0761   -0.1544   -0.3685 C   0  0  0  0  0  0  0  0  0  0  0  0
    1.2983    0.3623    0.3630 C   0  0  0  0  0  0  0  0  0  0  0  0
    2.4401   -0.6305    0.6327 C   0  0  0  0  0  0  0  0  0  0  0  0
    3.6669    0.1229    1.2172 C   0  0  1  0  0  0  0  0  0  0  0  0
    4.9890   -0.3779    0.6079 C   0  0  0  0  0  0  0  0  0  0  0  0
    6.2035    0.4943    0.9406 C   0  0  1  0  0  0  0  0  0  0  0  0
    7.5008   -0.0814    0.3501 C   0  0  0  0  0  0  0  0  0  0  0  0
    8.7138    0.8194    0.6084 C   0  0  0  0  0  0  0  0  0  0  0  0
    8.4656    2.2448    0.1010 C   0  0  0  0  0  0  0  0  0  0  0  0
    7.1846    2.8333    0.7030 C   0  0  0  0  0  0  0  0  0  0  0  0
    5.9569    1.9398    0.4606 C   0  0  2  0  0  0  0  0  0  0  0  0
    4.7043    2.5233    1.1302 C   0  0  0  0  0  0  0  0  0  0  0  0
    3.4299    1.6594    1.0563 C   0  0  0  0  0  0  0  0  0  0  0  0
    2.1126    1.9708   -0.2744 P   0  0  0  0  0  0  0  0  0  0  0  0
    2.9470    1.5124   -1.9257 C   0  0  0  0  0  0  0  0  0  0  0  0
    1.9733    0.9871   -3.0047 C   0  0  0  0  0  0  0  0  0  0  0  0
    1.0289    2.0632   -3.5581 C   0  0  0  0  0  0  0  0  0  0  0  0
    1.8088    3.2669   -4.1004 C   0  0  0  0  0  0  0  0  0  0  0  0
    2.7594    3.8336   -3.0393 C   0  0  0  0  0  0  0  0  0  0  0  0
    3.6955    2.7536   -2.4750 C   0  0  0  0  0  0  0  0  0  0  0  0
   -0.0149   -1.4659   -0.8632 C   0  0  0  0  0  0  0  0  0  0  0  0
   -1.1743   -1.9173   -1.5053 C   0  0  0  0  0  0  0  0  0  0  0  0
   -3.1763   -1.4216   -2.1636 H   0  0  0  0  0  0  0  0  0  0  0  0
   -3.0534    0.9128   -1.2772 H   0  0  0  0  0  0  0  0  0  0  0  0
   -0.9992    1.7087   -0.1440 H   0  0  0  0  0  0  0  0  0  0  0  0
    0.9328    0.7205    1.3438 H   0  0  0  0  0  0  0  0  0  0  0  0
    2.7309   -1.1194   -0.3121 H   0  0  0  0  0  0  0  0  0  0  0  0
    2.1073   -1.4397    1.3052 H   0  0  0  0  0  0  0  0  0  0  0  0
    3.7253   -0.0767    2.3029 H   0  0  0  0  0  0  0  0  0  0  0  0
    4.8967   -0.4304   -0.4918 H   0  0  0  0  0  0  0  0  0  0  0  0
    5.1647   -1.4158    0.9426 H   0  0  0  0  0  0  0  0  0  0  0  0
    6.3200    0.5272    2.0433 H   0  0  0  0  0  0  0  0  0  0  0  0
    7.3690   -0.2084   -0.7412 H   0  0  0  0  0  0  0  0  0  0  0  0
    7.6780   -1.0921    0.7571 H   0  0  0  0  0  0  0  0  0  0  0  0
    9.6140    0.3926    0.1346 H   0  0  0  0  0  0  0  0  0  0  0  0
    8.9203    0.8511    1.6943 H   0  0  0  0  0  0  0  0  0  0  0  0
    8.3776    2.2280   -1.0011 H   0  0  0  0  0  0  0  0  0  0  0  0
    9.3283    2.8921    0.3325 H   0  0  0  0  0  0  0  0  0  0  0  0
    6.9966    3.8425    0.2969 H   0  0  0  0  0  0  0  0  0  0  0  0
    7.3217    2.9618    1.7935 H   0  0  0  0  0  0  0  0  0  0  0  0
    5.7930    1.8902   -0.6328 H   0  0  0  0  0  0  0  0  0  0  0  0
    4.5005    3.5356    0.7409 H   0  0  0  0  0  0  0  0  0  0  0  0
    4.9521    2.6658    2.1988 H   0  0  0  0  0  0  0  0  0  0  0  0
    2.8217    1.9638    1.9260 H   0  0  0  0  0  0  0  0  0  0  0  0
    3.6879    0.7237   -1.7280 H   0  0  0  0  0  0  0  0  0  0  0  0
    1.3966    0.1286   -2.6321 H   0  0  0  0  0  0  0  0  0  0  0  0
    2.5886    0.6017   -3.8404 H   0  0  0  0  0  0  0  0  0  0  0  0
    0.3406    2.3988   -2.7630 H   0  0  0  0  0  0  0  0  0  0  0  0
    0.3950    1.6268   -4.3484 H   0  0  0  0  0  0  0  0  0  0  0  0
    1.1156    4.0504   -4.4512 H   0  0  0  0  0  0  0  0  0  0  0  0
    2.3943    2.9517   -4.9848 H   0  0  0  0  0  0  0  0  0  0  0  0
    2.1663    4.2687   -2.2162 H   0  0  0  0  0  0  0  0  0  0  0  0
    3.3601    4.6576   -3.4610 H   0  0  0  0  0  0  0  0  0  0  0  0
    4.3477    3.1944   -1.7042 H   0  0  0  0  0  0  0  0  0  0  0  0
    4.3708    2.4098   -3.2814 H   0  0  0  0  0  0  0  0  0  0  0  0
    0.8247   -2.1536   -0.7487 H   0  0  0  0  0  0  0  0  0  0  0  0
   -1.2169   -2.9433   -1.8806 H   0  0  0  0  0  0  0  0  0  0  0  0
  1  2  1  0
  1 25  1  0
  1 26  1  0
  2  3  1  0
  2 27  1  0
  3  4  1  0
  3 28  1  0
  4  5  1  0
  4 24  1  0
  5  6  1  0
  5 29  1  0
  6  7  1  0
  6 30  1  0
  6 31  1  0
  7  8  1  0
  7 16  1  0
  7 32  1  1
  8  9  1  0
  8 33  1  0
  8 34  1  0
  9 10  1  0
  9 14  1  0
  9 35  1  1
 10 11  1  0
 10 36  1  0
 10 37  1  0
 11 12  1  0
 11 38  1  0
 11 39  1  0
 12 13  1  0
 12 40  1  0
 12 41  1  0
 13 14  1  0
 13 42  1  0
 13 43  1  0
 14 15  1  0
 14 44  1  6
 15 16  1  0
 15 45  1  0
 15 46  1  0
 16 47  1  0
 18 19  1  0
 18 23  1  0
 18 48  1  0
 19 20  1  0
 19 49  1  0
 19 50  1  0
 20 21  1  0
 20 51  1  0
 20 52  1  0
 21 22  1  0
 21 53  1  0
 21 54  1  0
 22 23  1  0
 22 55  1  0
 22 56  1  0
 23 57  1  0
 23 58  1  0
 24 25  1  0
 24 59  1  0
 25 60  1  0
M  CHG  8   1  -1   2   1   3  -1   4   1   5  -1  16   1  17  -3  18   1
M  CHG  2  24   1  25   1
M  END

