
     RDKit          3D

 47 49  0  0  0  0  0  0  0  0999 V2000
    0.7420   -1.5014   -1.2629 O   0  0  0  0  0  0  0  0  0  0  0  0
    1.0666   -1.3844   -0.1118 C   0  0  0  0  0  0  0  0  0  0  0  0
    0.5708   -0.3649    0.6270 O   0  0  0  0  0  0  0  0  0  0  0  0
    1.9990   -2.3531    0.6315 C   0  0  1  0  0  0  0  0  0  0  0  0
    2.6236   -3.3715   -0.3375 C   0  0  0  0  0  0  0  0  0  0  0  0
    3.7157   -2.7432   -1.2183 C   0  0  0  0  0  0  0  0  0  0  0  0
    4.8018   -2.0127   -0.4139 C   0  0  2  0  0  0  0  0  0  0  0  0
    5.6257   -2.9876    0.3108 N   0  0  0  0  0  0  0  0  0  0  0  0
    6.8765   -2.6205    0.7797 C   0  0  0  0  0  0  0  0  0  0  0  0
    7.2736   -1.4618    0.7608 O   0  0  0  0  0  0  0  0  0  0  0  0
    7.6441   -3.6426    1.2905 N   0  0  0  0  0  0  0  0  0  0  0  0
    8.9775   -3.3589    1.8255 C   0  0  0  0  0  0  0  0  0  0  0  0
    9.5363   -4.7531    2.1204 C   0  0  0  0  0  0  0  0  0  0  0  0
    8.2813   -5.5677    2.5046 C   0  0  2  0  0  0  0  0  0  0  0  0
    8.4326   -7.0743    2.5173 C   0  0  0  0  0  0  0  0  0  0  0  0
    8.1648   -7.8082    3.6828 C   0  0  0  0  0  0  0  0  0  0  0  0
    8.2974   -9.1986    3.7201 C   0  0  0  0  0  0  0  0  0  0  0  0
    8.7051   -9.8767    2.5697 C   0  0  0  0  0  0  0  0  0  0  0  0
    8.8753  -11.6167    2.5999 Cl  0  0  0  0  0  0  0  0  0  0  0  0
    8.9793   -9.1737    1.3924 C   0  0  0  0  0  0  0  0  0  0  0  0
    8.8419   -7.7851    1.3755 C   0  0  0  0  0  0  0  0  0  0  0  0
    7.2232   -5.0189    1.5186 C   0  0  0  0  0  0  0  0  0  0  0  0
    4.1607   -0.9939    0.5493 C   0  0  0  0  0  0  0  0  0  0  0  0
    3.1029   -1.6416    1.4477 C   0  0  0  0  0  0  0  0  0  0  0  0
    0.9294   -0.3943    1.5254 H   0  0  0  0  0  0  0  0  0  0  0  0
    1.3388   -2.8935    1.3368 H   0  0  0  0  0  0  0  0  0  0  0  0
    1.8383   -3.8014   -0.9759 H   0  0  0  0  0  0  0  0  0  0  0  0
    3.0419   -4.1994    0.2604 H   0  0  0  0  0  0  0  0  0  0  0  0
    3.2444   -2.0179   -1.8987 H   0  0  0  0  0  0  0  0  0  0  0  0
    4.1772   -3.5139   -1.8605 H   0  0  0  0  0  0  0  0  0  0  0  0
    5.4553   -1.4537   -1.1050 H   0  0  0  0  0  0  0  0  0  0  0  0
    5.4834   -3.9612    0.0697 H   0  0  0  0  0  0  0  0  0  0  0  0
    8.9102   -2.7408    2.7399 H   0  0  0  0  0  0  0  0  0  0  0  0
    9.5774   -2.7886    1.1008 H   0  0  0  0  0  0  0  0  0  0  0  0
   10.2978   -4.7530    2.9140 H   0  0  0  0  0  0  0  0  0  0  0  0
    9.9998   -5.1789    1.2151 H   0  0  0  0  0  0  0  0  0  0  0  0
    7.9787   -5.2498    3.5166 H   0  0  0  0  0  0  0  0  0  0  0  0
    7.8453   -7.2826    4.5872 H   0  0  0  0  0  0  0  0  0  0  0  0
    8.0867   -9.7560    4.6343 H   0  0  0  0  0  0  0  0  0  0  0  0
    9.2986   -9.7144    0.4999 H   0  0  0  0  0  0  0  0  0  0  0  0
    9.0634   -7.2514    0.4473 H   0  0  0  0  0  0  0  0  0  0  0  0
    6.2065   -5.0696    1.9446 H   0  0  0  0  0  0  0  0  0  0  0  0
    7.2188   -5.6134    0.5829 H   0  0  0  0  0  0  0  0  0  0  0  0
    3.7029   -0.1899   -0.0541 H   0  0  0  0  0  0  0  0  0  0  0  0
    4.9549   -0.5273    1.1491 H   0  0  0  0  0  0  0  0  0  0  0  0
    2.6824   -0.8923    2.1430 H   0  0  0  0  0  0  0  0  0  0  0  0
    3.5873   -2.3934    2.0920 H   0  0  0  0  0  0  0  0  0  0  0  0
  1  2  2  0
  2  3  1  0
  2  4  1  0
  3 25  1  0
  4  5  1  0
  4 24  1  0
  4 26  1  1
  5  6  1  0
  5 27  1  0
  5 28  1  0
  6  7  1  0
  6 29  1  0
  6 30  1  0
  7  8  1  0
  7 23  1  0
  7 31  1  6
  8  9  1  0
  8 32  1  0
  9 10  2  0
  9 11  1  0
 11 12  1  0
 11 22  1  0
 12 13  1  0
 12 33  1  0
 12 34  1  0
 13 14  1  0
 13 35  1  0
 13 36  1  0
 14 15  1  0
 14 22  1  0
 14 37  1  1
 15 16  2  0
 15 21  1  0
 16 17  1  0
 16 38  1  0
 17 18  2  0
 17 39  1  0
 18 19  1  0
 18 20  1  0
 20 21  2  0
 20 40  1  0
 21 41  1  0
 22 42  1  0
 22 43  1  0
 23 24  1  0
 23 44  1  0
 23 45  1  0
 24 46  1  0
 24 47  1  0
M  END

