
     RDKit          3D

 47 49  0  0  0  0  0  0  0  0999 V2000
    1.6595    0.3390   -0.7338 C   0  0  0  0  0  0  0  0  0  0  0  0
    2.7676    0.0991    0.1119 O   0  0  0  0  0  0  0  0  0  0  0  0
    3.2447    1.1001    0.9011 C   0  0  0  0  0  0  0  0  0  0  0  0
    2.7138    2.3906    0.9555 C   0  0  0  0  0  0  0  0  0  0  0  0
    3.2808    3.3480    1.8019 C   0  0  0  0  0  0  0  0  0  0  0  0
    4.3774    2.9889    2.5829 C   0  0  0  0  0  0  0  0  0  0  0  0
    5.0802    4.2119    3.6888 S   0  0  1  0  0  0  0  0  0  0  0  0
    6.4679    3.8411    3.9540 O   0  0  0  0  0  0  0  0  0  0  0  0
    4.6996    5.5362    3.2016 O   0  0  0  0  0  0  0  0  0  0  0  0
    4.2229    4.0778    5.1505 N   0  0  0  0  0  0  0  0  0  0  0  0
    4.1854    2.9513    5.9884 C   0  0  0  0  0  0  0  0  0  0  0  0
    5.3405    2.2118    6.3032 C   0  0  0  0  0  0  0  0  0  0  0  0
    5.2697    1.1127    7.1583 C   0  0  0  0  0  0  0  0  0  0  0  0
    4.0560    0.7400    7.7433 C   0  0  0  0  0  0  0  0  0  0  0  0
    2.9018    1.4720    7.4595 C   0  0  0  0  0  0  0  0  0  0  0  0
    2.9677    2.5559    6.5837 C   0  0  0  0  0  0  0  0  0  0  0  0
    1.5001    3.4577    6.2273 Cl  0  0  0  0  0  0  0  0  0  0  0  0
    4.9391    1.7064    2.5370 C   0  0  0  0  0  0  0  0  0  0  0  0
    4.3709    0.7447    1.6955 C   0  0  0  0  0  0  0  0  0  0  0  0
    4.8282   -0.5687    1.5521 N   0  0  0  0  0  0  0  0  0  0  0  0
    5.8830   -1.1759    2.2175 C   0  0  0  0  0  0  0  0  0  0  0  0
    6.5817   -0.6145    3.0407 O   0  0  0  0  0  0  0  0  0  0  0  0
    6.0465   -2.4971    1.8318 N   0  0  0  0  0  0  0  0  0  0  0  0
    7.0077   -3.4095    2.2868 C   0  0  0  0  0  0  0  0  0  0  0  0
    8.0174   -3.1402    3.2263 C   0  0  0  0  0  0  0  0  0  0  0  0
    8.9166   -4.1473    3.5914 C   0  0  0  0  0  0  0  0  0  0  0  0
    8.8355   -5.4280    3.0398 C   0  0  0  0  0  0  0  0  0  0  0  0
    7.8356   -5.7114    2.1027 C   0  0  0  0  0  0  0  0  0  0  0  0
    6.9494   -4.7078    1.7472 C   0  0  0  0  0  0  0  0  0  0  0  0
    5.9732   -4.9600    0.8407 F   0  0  0  0  0  0  0  0  0  0  0  0
    1.4626   -0.6013   -1.2650 H   0  0  0  0  0  0  0  0  0  0  0  0
    1.8777    1.1312   -1.4706 H   0  0  0  0  0  0  0  0  0  0  0  0
    0.7631    0.6208   -0.1547 H   0  0  0  0  0  0  0  0  0  0  0  0
    1.8603    2.6630    0.3350 H   0  0  0  0  0  0  0  0  0  0  0  0
    2.8869    4.3643    1.8402 H   0  0  0  0  0  0  0  0  0  0  0  0
    3.3515    4.6024    5.0954 H   0  0  0  0  0  0  0  0  0  0  0  0
    6.2897    2.5212    5.8664 H   0  0  0  0  0  0  0  0  0  0  0  0
    6.1804    0.5509    7.3776 H   0  0  0  0  0  0  0  0  0  0  0  0
    4.0038   -0.1139    8.4224 H   0  0  0  0  0  0  0  0  0  0  0  0
    1.9411    1.2074    7.9046 H   0  0  0  0  0  0  0  0  0  0  0  0
    5.8138    1.4515    3.1297 H   0  0  0  0  0  0  0  0  0  0  0  0
    4.2915   -1.1067    0.8805 H   0  0  0  0  0  0  0  0  0  0  0  0
    5.4085   -2.8830    1.1456 H   0  0  0  0  0  0  0  0  0  0  0  0
    8.0802   -2.1429    3.6549 H   0  0  0  0  0  0  0  0  0  0  0  0
    9.6950   -3.9178    4.3229 H   0  0  0  0  0  0  0  0  0  0  0  0
    9.5433   -6.2063    3.3323 H   0  0  0  0  0  0  0  0  0  0  0  0
    7.7304   -6.6957    1.6425 H   0  0  0  0  0  0  0  0  0  0  0  0
  1  2  1  0
  1 31  1  0
  1 32  1  0
  1 33  1  0
  2  3  1  0
  3  4  2  0
  3 19  1  0
  4  5  1  0
  4 34  1  0
  5  6  2  0
  5 35  1  0
  6  7  1  0
  6 18  1  0
  7  8  2  0
  7  9  2  0
  7 10  1  1
 10 11  1  0
 10 36  1  0
 11 12  2  0
 11 16  1  0
 12 13  1  0
 12 37  1  0
 13 14  2  0
 13 38  1  0
 14 15  1  0
 14 39  1  0
 15 16  2  0
 15 40  1  0
 16 17  1  0
 18 19  2  0
 18 41  1  0
 19 20  1  0
 20 21  1  0
 20 42  1  0
 21 22  2  0
 21 23  1  0
 23 24  1  0
 23 43  1  0
 24 25  2  0
 24 29  1  0
 25 26  1  0
 25 44  1  0
 26 27  2  0
 26 45  1  0
 27 28  1  0
 27 46  1  0
 28 29  2  0
 28 47  1  0
 29 30  1  0
M  END

