
     RDKit          3D

 24 24  0  0  0  0  0  0  0  0999 V2000
    1.1935   -0.0677    0.2506 C   0  0  0  0  0  0  0  0  0  0  0  0
    2.6844    0.1801    0.0805 C   0  0  2  0  0  0  0  0  0  0  0  0
    3.2292   -0.7343    0.4126 H   0  0  0  0  0  0  0  0  0  0  0  0
    3.0431    1.2832    0.8844 O   0  0  0  0  0  0  0  0  0  0  0  0
    3.0698    0.4429   -1.3800 C   0  0  0  0  0  0  0  0  0  0  0  0
    4.5019    0.6697   -1.4658 N   0  0  0  0  0  0  0  0  0  0  0  0
    5.1323    1.2311   -2.5623 C   0  0  0  0  0  0  0  0  0  0  0  0
    4.4283    1.8892   -3.5942 C   0  0  0  0  0  0  0  0  0  0  0  0
    5.0844    2.4903   -4.6676 C   0  0  0  0  0  0  0  0  0  0  0  0
    6.4761    2.4389   -4.7510 C   0  0  0  0  0  0  0  0  0  0  0  0
    7.3838    3.2535   -6.2170 Br  0  0  0  0  0  0  0  0  0  0  0  0
    7.2123    1.7843   -3.7604 C   0  0  0  0  0  0  0  0  0  0  0  0
    6.5439    1.1941   -2.6904 C   0  0  0  0  0  0  0  0  0  0  0  0
    7.5873    0.3078   -1.3498 Br  0  0  0  0  0  0  0  0  0  0  0  0
    0.6156    0.8017   -0.1013 H   0  0  0  0  0  0  0  0  0  0  0  0
    0.9616   -0.2188    1.3150 H   0  0  0  0  0  0  0  0  0  0  0  0
    0.8706   -0.9604   -0.3071 H   0  0  0  0  0  0  0  0  0  0  0  0
    3.9181    1.5758    0.5858 H   0  0  0  0  0  0  0  0  0  0  0  0
    2.5399    1.3514   -1.7061 H   0  0  0  0  0  0  0  0  0  0  0  0
    2.7318   -0.3915   -2.0279 H   0  0  0  0  0  0  0  0  0  0  0  0
    5.0697   -0.0256   -0.9869 H   0  0  0  0  0  0  0  0  0  0  0  0
    3.3397    1.9313   -3.5581 H   0  0  0  0  0  0  0  0  0  0  0  0
    4.5056    2.9928   -5.4440 H   0  0  0  0  0  0  0  0  0  0  0  0
    8.2994    1.7324   -3.8182 H   0  0  0  0  0  0  0  0  0  0  0  0
  1  2  1  0
  1 15  1  0
  1 16  1  0
  1 17  1  0
  2  3  1  1
  2  4  1  0
  2  5  1  0
  4 18  1  0
  5  6  1  0
  5 19  1  0
  5 20  1  0
  6  7  1  0
  6 21  1  0
  7  8  2  0
  7 13  1  0
  8  9  1  0
  8 22  1  0
  9 10  2  0
  9 23  1  0
 10 11  1  0
 10 12  1  0
 12 13  2  0
 12 24  1  0
 13 14  1  0
M  END

