
     RDKit          3D

 84 90  0  0  0  0  0  0  0  0999 V2000
    4.8011   -2.6542    4.9495 C   0  0  0  0  0  0  0  0  0  0  0  0
    3.9183   -3.9016    5.1350 C   0  0  1  0  0  0  0  0  0  0  0  0
    3.4395   -3.9408    6.6053 C   0  0  0  0  0  0  0  0  0  0  0  0
    2.6937   -3.7707    4.1994 C   0  0  0  0  0  0  0  0  0  0  0  0
    4.6729   -5.2038    4.8095 C   0  0  0  0  0  0  0  0  0  0  0  0
    6.0150   -5.2290    4.3941 C   0  0  0  0  0  0  0  0  0  0  0  0
    6.6694   -6.4280    4.1110 C   0  0  0  0  0  0  0  0  0  0  0  0
    6.0138   -7.6680    4.2274 C   0  0  0  0  0  0  0  0  0  0  0  0
    6.7310   -8.9155    3.9514 C   0  0  0  0  0  0  0  0  0  0  0  0
    8.1055   -9.1287    4.0037 C   0  0  0  0  0  0  0  0  0  0  0  0
    8.3688  -10.4903    3.6939 C   0  0  0  0  0  0  0  0  0  0  0  0
    9.7098  -11.0919    3.6869 C   0  0  0  0  0  0  0  0  0  0  0  0
    9.9650  -12.4110    4.1135 C   0  0  0  0  0  0  0  0  0  0  0  0
   11.2686  -12.9069    4.1274 C   0  0  0  0  0  0  0  0  0  0  0  0
   12.3398  -12.1084    3.7151 C   0  0  0  0  0  0  0  0  0  0  0  0
   12.1005  -10.7973    3.2907 C   0  0  0  0  0  0  0  0  0  0  0  0
   10.8014  -10.2924    3.2831 C   0  0  0  0  0  0  0  0  0  0  0  0
    7.1936  -11.1215    3.4279 N   0  0  0  0  0  0  0  0  0  0  0  0
    6.1677  -10.1853    3.5565 C   0  0  0  0  0  0  0  0  0  0  0  0
    4.9092  -10.4287    3.2410 N   0  0  0  0  0  0  0  0  0  0  0  0
    4.5393  -11.6008    2.7615 C   0  0  0  0  0  0  0  0  0  0  0  0
    3.2309  -11.9676    2.2698 C   0  0  0  0  0  0  0  0  0  0  0  0
    2.0133  -11.1506    2.2515 C   0  0  0  0  0  0  0  0  0  0  0  0
    2.0430   -9.7436    2.2565 C   0  0  0  0  0  0  0  0  0  0  0  0
    0.8635   -8.9971    2.2123 C   0  0  0  0  0  0  0  0  0  0  0  0
   -0.4002   -9.6074    2.1642 C   0  0  0  0  0  0  0  0  0  0  0  0
   -1.7184   -8.8129    2.1150 C   0  0  1  0  0  0  0  0  0  0  0  0
   -1.4823   -7.2918    2.1204 C   0  0  0  0  0  0  0  0  0  0  0  0
   -2.4896   -9.1779    0.8250 C   0  0  0  0  0  0  0  0  0  0  0  0
   -2.5803   -9.1730    3.3479 C   0  0  0  0  0  0  0  0  0  0  0  0
   -0.4235  -11.0164    2.1628 C   0  0  0  0  0  0  0  0  0  0  0  0
    0.7454  -11.7687    2.2038 C   0  0  0  0  0  0  0  0  0  0  0  0
    3.3693  -13.2746    1.8123 C   0  0  0  0  0  0  0  0  0  0  0  0
    4.7086  -13.6970    2.0280 C   0  0  0  0  0  0  0  0  0  0  0  0
    5.2255  -15.0239    1.6623 C   0  0  0  0  0  0  0  0  0  0  0  0
    4.6965  -15.6579    0.5167 C   0  0  0  0  0  0  0  0  0  0  0  0
    5.1215  -16.9315    0.1423 C   0  0  0  0  0  0  0  0  0  0  0  0
    6.0747  -17.6064    0.9118 C   0  0  0  0  0  0  0  0  0  0  0  0
    6.5988  -16.9937    2.0539 C   0  0  0  0  0  0  0  0  0  0  0  0
    6.1852  -15.7155    2.4290 C   0  0  0  0  0  0  0  0  0  0  0  0
    5.4069  -12.6831    2.6056 N   0  0  0  0  0  0  0  0  0  0  0  0
    6.9088  -12.6229    3.0658 B   0  0  1  0  0  0  0  0  0  0  0  0
    7.7467  -13.0567    2.0642 F   0  0  0  0  0  0  0  0  0  0  0  0
    7.0531  -13.3970    4.2299 F   0  0  0  0  0  0  0  0  0  0  0  0
    4.6656   -7.6490    4.6425 C   0  0  0  0  0  0  0  0  0  0  0  0
    4.0214   -6.4474    4.9237 C   0  0  0  0  0  0  0  0  0  0  0  0
    4.2229   -1.7490    5.1931 H   0  0  0  0  0  0  0  0  0  0  0  0
    5.1543   -2.5505    3.9116 H   0  0  0  0  0  0  0  0  0  0  0  0
    5.6813   -2.6711    5.6111 H   0  0  0  0  0  0  0  0  0  0  0  0
    2.8933   -3.0165    6.8561 H   0  0  0  0  0  0  0  0  0  0  0  0
    4.2927   -4.0302    7.2964 H   0  0  0  0  0  0  0  0  0  0  0  0
    2.7645   -4.7888    6.7958 H   0  0  0  0  0  0  0  0  0  0  0  0
    2.1382   -2.8445    4.4210 H   0  0  0  0  0  0  0  0  0  0  0  0
    1.9955   -4.6135    4.3161 H   0  0  0  0  0  0  0  0  0  0  0  0
    3.0052   -3.7366    3.1433 H   0  0  0  0  0  0  0  0  0  0  0  0
    6.5734   -4.2998    4.2790 H   0  0  0  0  0  0  0  0  0  0  0  0
    7.7071   -6.3961    3.7714 H   0  0  0  0  0  0  0  0  0  0  0  0
    8.8633   -8.4117    4.3083 H   0  0  0  0  0  0  0  0  0  0  0  0
    9.1414  -13.0378    4.4506 H   0  0  0  0  0  0  0  0  0  0  0  0
   11.4485  -13.9298    4.4676 H   0  0  0  0  0  0  0  0  0  0  0  0
   13.3579  -12.5058    3.7242 H   0  0  0  0  0  0  0  0  0  0  0  0
   12.9292  -10.1665    2.9595 H   0  0  0  0  0  0  0  0  0  0  0  0
   10.6222   -9.2739    2.9324 H   0  0  0  0  0  0  0  0  0  0  0  0
    3.0031   -9.2301    2.2870 H   0  0  0  0  0  0  0  0  0  0  0  0
    0.9499   -7.9104    2.2102 H   0  0  0  0  0  0  0  0  0  0  0  0
   -0.8937   -6.9638    1.2494 H   0  0  0  0  0  0  0  0  0  0  0  0
   -0.9597   -6.9600    3.0313 H   0  0  0  0  0  0  0  0  0  0  0  0
   -2.4486   -6.7646    2.0837 H   0  0  0  0  0  0  0  0  0  0  0  0
   -1.9005   -8.9279   -0.0716 H   0  0  0  0  0  0  0  0  0  0  0  0
   -3.4399   -8.6210    0.7747 H   0  0  0  0  0  0  0  0  0  0  0  0
   -2.7302  -10.2509    0.7791 H   0  0  0  0  0  0  0  0  0  0  0  0
   -2.0564   -8.9207    4.2836 H   0  0  0  0  0  0  0  0  0  0  0  0
   -2.8246  -10.2457    3.3802 H   0  0  0  0  0  0  0  0  0  0  0  0
   -3.5310   -8.6150    3.3283 H   0  0  0  0  0  0  0  0  0  0  0  0
   -1.3789  -11.5454    2.1351 H   0  0  0  0  0  0  0  0  0  0  0  0
    0.6741  -12.8584    2.2226 H   0  0  0  0  0  0  0  0  0  0  0  0
    2.5960  -13.8938    1.3658 H   0  0  0  0  0  0  0  0  0  0  0  0
    3.9665  -15.1319   -0.1019 H   0  0  0  0  0  0  0  0  0  0  0  0
    4.7105  -17.3971   -0.7569 H   0  0  0  0  0  0  0  0  0  0  0  0
    6.4075  -18.6063    0.6215 H   0  0  0  0  0  0  0  0  0  0  0  0
    7.3389  -17.5171    2.6644 H   0  0  0  0  0  0  0  0  0  0  0  0
    6.5915  -15.2545    3.3275 H   0  0  0  0  0  0  0  0  0  0  0  0
    4.1258   -8.5893    4.7515 H   0  0  0  0  0  0  0  0  0  0  0  0
    2.9793   -6.4870    5.2492 H   0  0  0  0  0  0  0  0  0  0  0  0
  2  1  1  1
  1 47  1  0
  1 48  1  0
  1 49  1  0
  2  3  1  0
  2  4  1  0
  2  5  1  0
  3 50  1  0
  3 51  1  0
  3 52  1  0
  4 53  1  0
  4 54  1  0
  4 55  1  0
  5  6  2  0
  5 46  1  0
  6  7  1  0
  6 56  1  0
  7  8  2  0
  7 57  1  0
  8  9  1  0
  8 45  1  0
  9 10  1  0
  9 19  2  0
 10 11  2  0
 10 58  1  0
 11 12  1  0
 11 18  1  0
 12 13  2  0
 12 17  1  0
 13 14  1  0
 13 59  1  0
 14 15  2  0
 14 60  1  0
 15 16  1  0
 15 61  1  0
 16 17  2  0
 16 62  1  0
 17 63  1  0
 18 19  1  0
 18 42  1  0
 19 20  1  0
 20 21  2  0
 21 22  1  0
 21 41  1  0
 22 23  1  0
 22 33  2  0
 23 24  2  0
 23 32  1  0
 24 25  1  0
 24 64  1  0
 25 26  2  0
 25 65  1  0
 26 27  1  0
 26 31  1  0
 27 28  1  6
 27 29  1  0
 27 30  1  0
 28 66  1  0
 28 67  1  0
 28 68  1  0
 29 69  1  0
 29 70  1  0
 29 71  1  0
 30 72  1  0
 30 73  1  0
 30 74  1  0
 31 32  2  0
 31 75  1  0
 32 76  1  0
 33 34  1  0
 33 77  1  0
 34 35  1  0
 34 41  2  0
 35 36  2  0
 35 40  1  0
 36 37  1  0
 36 78  1  0
 37 38  2  0
 37 79  1  0
 38 39  1  0
 38 80  1  0
 39 40  2  0
 39 81  1  0
 40 82  1  0
 41 42  1  0
 42 43  1  6
 42 44  1  0
 45 46  2  0
 45 83  1  0
 46 84  1  0
M  CHG  2  41   1  42  -1
M  END

