
     RDKit          3D

 56 58  0  0  0  0  0  0  0  0999 V2000
    6.0176    5.2066   -5.3234 C   0  0  0  0  0  0  0  0  0  0  0  0
    4.9697    5.5926   -4.2754 C   0  0  1  0  0  0  0  0  0  0  0  0
    3.6262    4.8849   -4.5688 C   0  0  0  0  0  0  0  0  0  0  0  0
    3.7784    3.4588   -4.2916 N   0  0  0  0  0  0  0  0  0  0  0  0
    2.4071    2.4951   -4.1797 S   0  0  1  0  0  0  0  0  0  0  0  0
    2.7933    1.3726   -3.3223 O   0  0  0  0  0  0  0  0  0  0  0  0
    1.2260    3.3162   -3.8833 O   0  0  0  0  0  0  0  0  0  0  0  0
    2.2131    1.8834   -5.8589 C   0  0  0  0  0  0  0  0  0  0  0  0
    3.0760    0.8874   -6.3242 C   0  0  0  0  0  0  0  0  0  0  0  0
    2.9329    0.4138   -7.6266 C   0  0  0  0  0  0  0  0  0  0  0  0
    1.9103    0.9220   -8.4449 C   0  0  0  0  0  0  0  0  0  0  0  0
    1.7653    0.4254   -9.7756 N   0  0  0  0  0  0  0  0  0  0  0  0
    1.5305    1.2233  -10.8957 C   0  0  0  0  0  0  0  0  0  0  0  0
    1.5518    2.4314  -10.8848 O   0  0  0  0  0  0  0  0  0  0  0  0
    1.2025    0.3787  -12.1486 C   0  0  2  0  0  0  0  0  0  0  0  0
    1.9278    0.9689  -13.3661 C   0  0  0  0  0  0  0  0  0  0  0  0
   -0.3289    0.4273  -12.3481 C   0  0  0  0  0  0  0  0  0  0  0  0
    1.6808   -1.0543  -11.8517 C   0  0  0  0  0  0  0  0  0  0  0  0
    1.5220   -1.2838  -10.0655 S   0  0  1  0  0  0  0  0  0  0  0  0
    2.6497   -2.0281   -9.5127 O   0  0  0  0  0  0  0  0  0  0  0  0
    0.1546   -1.6398   -9.6955 O   0  0  0  0  0  0  0  0  0  0  0  0
    1.0357    1.9047   -7.9611 C   0  0  0  0  0  0  0  0  0  0  0  0
    1.1911    2.3914   -6.6628 C   0  0  0  0  0  0  0  0  0  0  0  0
    5.3752    5.2670   -2.8928 N   0  0  0  0  0  0  0  0  0  0  0  0
    6.7956    5.2843   -2.5292 C   0  0  0  0  0  0  0  0  0  0  0  0
    7.3157    6.6911   -2.2225 C   0  0  0  0  0  0  0  0  0  0  0  0
    6.5374    7.3089   -1.2150 O   0  0  0  0  0  0  0  0  0  0  0  0
    5.1667    7.3667   -1.5617 C   0  0  0  0  0  0  0  0  0  0  0  0
    4.6095    5.9701   -1.8536 C   0  0  0  0  0  0  0  0  0  0  0  0
    5.6118    5.3986   -6.3279 H   0  0  0  0  0  0  0  0  0  0  0  0
    6.2700    4.1372   -5.2656 H   0  0  0  0  0  0  0  0  0  0  0  0
    6.9414    5.7950   -5.2272 H   0  0  0  0  0  0  0  0  0  0  0  0
    4.7711    6.6786   -4.3945 H   0  0  0  0  0  0  0  0  0  0  0  0
    3.3617    5.0384   -5.6277 H   0  0  0  0  0  0  0  0  0  0  0  0
    2.8115    5.3256   -3.9695 H   0  0  0  0  0  0  0  0  0  0  0  0
    4.3456    3.3194   -3.4469 H   0  0  0  0  0  0  0  0  0  0  0  0
    3.8536    0.4900   -5.6697 H   0  0  0  0  0  0  0  0  0  0  0  0
    3.5996   -0.3569   -8.0128 H   0  0  0  0  0  0  0  0  0  0  0  0
    1.6253    2.0162  -13.5057 H   0  0  0  0  0  0  0  0  0  0  0  0
    1.6747    0.4038  -14.2766 H   0  0  0  0  0  0  0  0  0  0  0  0
    3.0211    0.9476  -13.2357 H   0  0  0  0  0  0  0  0  0  0  0  0
   -0.6614    1.4699  -12.4556 H   0  0  0  0  0  0  0  0  0  0  0  0
   -0.8595   -0.0280  -11.4989 H   0  0  0  0  0  0  0  0  0  0  0  0
   -0.6056   -0.1214  -13.2623 H   0  0  0  0  0  0  0  0  0  0  0  0
    2.7484   -1.2001  -12.0670 H   0  0  0  0  0  0  0  0  0  0  0  0
    1.0866   -1.8427  -12.3340 H   0  0  0  0  0  0  0  0  0  0  0  0
    0.2433    2.2927   -8.6005 H   0  0  0  0  0  0  0  0  0  0  0  0
    0.5164    3.1486   -6.2606 H   0  0  0  0  0  0  0  0  0  0  0  0
    7.4044    4.8029   -3.3056 H   0  0  0  0  0  0  0  0  0  0  0  0
    6.9076    4.6747   -1.6146 H   0  0  0  0  0  0  0  0  0  0  0  0
    7.3144    7.3132   -3.1436 H   0  0  0  0  0  0  0  0  0  0  0  0
    8.3506    6.6512   -1.8470 H   0  0  0  0  0  0  0  0  0  0  0  0
    5.0233    8.0309   -2.4407 H   0  0  0  0  0  0  0  0  0  0  0  0
    4.6393    7.8247   -0.7102 H   0  0  0  0  0  0  0  0  0  0  0  0
    3.5489    6.0346   -2.1384 H   0  0  0  0  0  0  0  0  0  0  0  0
    4.6582    5.3737   -0.9255 H   0  0  0  0  0  0  0  0  0  0  0  0
  1  2  1  0
  1 30  1  0
  1 31  1  0
  1 32  1  0
  2  3  1  0
  2 24  1  0
  2 33  1  1
  3  4  1  0
  3 34  1  0
  3 35  1  0
  5  4  1  6
  4 36  1  0
  5  6  2  0
  5  7  2  0
  5  8  1  0
  8  9  2  0
  8 23  1  0
  9 10  1  0
  9 37  1  0
 10 11  2  0
 10 38  1  0
 11 12  1  0
 11 22  1  0
 12 13  1  0
 19 12  1  1
 13 14  2  0
 13 15  1  0
 15 16  1  6
 15 17  1  0
 15 18  1  0
 16 39  1  0
 16 40  1  0
 16 41  1  0
 17 42  1  0
 17 43  1  0
 17 44  1  0
 18 19  1  0
 18 45  1  0
 18 46  1  0
 19 20  2  0
 19 21  2  0
 22 23  2  0
 22 47  1  0
 23 48  1  0
 24 25  1  0
 24 29  1  0
 25 26  1  0
 25 49  1  0
 25 50  1  0
 26 27  1  0
 26 51  1  0
 26 52  1  0
 27 28  1  0
 28 29  1  0
 28 53  1  0
 28 54  1  0
 29 55  1  0
 29 56  1  0
M  END

