
     RDKit          3D

 21 20  0  0  0  0  0  0  0  0999 V2000
    1.3370    0.5211    0.0301 C   0  0  0  0  0  0  0  0  0  0  0  0
    2.6903   -0.0193    0.1778 N   0  0  0  0  0  0  0  0  0  0  0  0
    3.0940   -0.1784    1.5917 C   0  0  0  0  0  0  0  0  0  0  0  0
    2.4463   -1.3918    2.2862 C   0  0  0  0  0  0  0  0  0  0  0  0
    1.3599   -1.3239    2.8059 O   0  0  0  0  0  0  0  0  0  0  0  0
    3.1276   -2.5391    2.2200 O   0  0  0  0  0  0  0  0  0  0  0  0
    2.9048   -1.2003   -0.6614 C   0  0  0  0  0  0  0  0  0  0  0  0
    4.6978   -1.5500   -0.7201 P   0  0  1  0  0  0  0  0  0  0  0  0
    5.2159   -2.2553    0.4997 O   0  0  0  0  0  0  0  0  0  0  0  0
    4.9823   -2.3609   -2.0850 O   0  0  0  0  0  0  0  0  0  0  0  0
    5.2929   -0.0849   -1.0257 O   0  0  0  0  0  0  0  0  0  0  0  0
    1.2620    1.4732    0.5761 H   0  0  0  0  0  0  0  0  0  0  0  0
    0.5553   -0.1583    0.4197 H   0  0  0  0  0  0  0  0  0  0  0  0
    1.1366    0.7197   -1.0340 H   0  0  0  0  0  0  0  0  0  0  0  0
    2.7710    0.7206    2.1327 H   0  0  0  0  0  0  0  0  0  0  0  0
    4.1907   -0.2418    1.6596 H   0  0  0  0  0  0  0  0  0  0  0  0
    3.9794   -2.4552    1.7192 H   0  0  0  0  0  0  0  0  0  0  0  0
    2.5776   -0.9732   -1.6882 H   0  0  0  0  0  0  0  0  0  0  0  0
    2.3644   -2.1118   -0.3330 H   0  0  0  0  0  0  0  0  0  0  0  0
    5.4681   -3.1800   -1.9003 H   0  0  0  0  0  0  0  0  0  0  0  0
    4.6348    0.5657   -0.7007 H   0  0  0  0  0  0  0  0  0  0  0  0
  1  2  1  0
  1 12  1  0
  1 13  1  0
  1 14  1  0
  2  3  1  0
  2  7  1  0
  3  4  1  0
  3 15  1  0
  3 16  1  0
  4  5  2  0
  4  6  1  0
  6 17  1  0
  7  8  1  0
  7 18  1  0
  7 19  1  0
  8  9  2  0
  8 10  1  6
  8 11  1  0
 10 20  1  0
 11 21  1  0
M  END

