
     RDKit          3D

 38 38  0  0  0  0  0  0  0  0999 V2000
    3.0160    1.2376   -0.8398 C   0  0  0  0  0  0  0  0  0  0  0  0
    2.6507    0.0626    0.0673 C   0  0  0  0  0  0  0  0  0  0  0  0
    2.9394   -1.3107   -0.5526 C   0  0  0  0  0  0  0  0  0  0  0  0
    4.3566   -1.5442   -0.8544 N   0  0  0  0  0  0  0  0  0  0  0  0
    5.1309   -1.8727    0.3403 C   0  0  0  0  0  0  0  0  0  0  0  0
    6.6416   -1.6508    0.2085 C   0  0  0  0  0  0  0  0  0  0  0  0
    7.3590   -1.8925    1.5405 C   0  0  0  0  0  0  0  0  0  0  0  0
    8.9039   -1.7143    1.5061 C   0  0  1  0  0  0  0  0  0  0  0  0
    9.5916   -2.7850    0.6234 C   0  0  0  0  0  0  0  0  0  0  0  0
    9.2220   -0.3357    1.1134 N   0  0  0  0  0  0  0  0  0  0  0  0
    9.3976   -1.8942    2.8944 C   0  0  0  0  0  0  0  0  0  0  0  0
    9.7964   -2.0598    3.9693 N   0  0  0  0  0  0  0  0  0  0  0  0
    4.5546   -2.4796   -1.9287 C   0  0  1  0  0  0  0  0  0  0  0  0
    4.2354   -2.0527   -3.3361 C   0  0  0  0  0  0  0  0  0  0  0  0
    5.6691   -2.2642   -2.9250 C   0  0  0  0  0  0  0  0  0  0  0  0
    2.8127    2.2034   -0.3502 H   0  0  0  0  0  0  0  0  0  0  0  0
    2.4366    1.2116   -1.7785 H   0  0  0  0  0  0  0  0  0  0  0  0
    4.0828    1.2064   -1.1088 H   0  0  0  0  0  0  0  0  0  0  0  0
    1.5751    0.0965    0.3151 H   0  0  0  0  0  0  0  0  0  0  0  0
    3.1767    0.1604    1.0333 H   0  0  0  0  0  0  0  0  0  0  0  0
    2.3836   -1.3877   -1.5001 H   0  0  0  0  0  0  0  0  0  0  0  0
    2.5330   -2.1084    0.1092 H   0  0  0  0  0  0  0  0  0  0  0  0
    4.9435   -2.9258    0.6575 H   0  0  0  0  0  0  0  0  0  0  0  0
    4.7655   -1.2418    1.1656 H   0  0  0  0  0  0  0  0  0  0  0  0
    6.8039   -0.6139   -0.1298 H   0  0  0  0  0  0  0  0  0  0  0  0
    7.0452   -2.3141   -0.5714 H   0  0  0  0  0  0  0  0  0  0  0  0
    7.1394   -2.9112    1.9023 H   0  0  0  0  0  0  0  0  0  0  0  0
    6.9666   -1.1937    2.2964 H   0  0  0  0  0  0  0  0  0  0  0  0
    9.2753   -2.6690   -0.4243 H   0  0  0  0  0  0  0  0  0  0  0  0
    9.3430   -3.8067    0.9508 H   0  0  0  0  0  0  0  0  0  0  0  0
   10.6856   -2.6693    0.6649 H   0  0  0  0  0  0  0  0  0  0  0  0
    8.9536   -0.1907    0.1401 H   0  0  0  0  0  0  0  0  0  0  0  0
   10.2285   -0.1753    1.1648 H   0  0  0  0  0  0  0  0  0  0  0  0
    4.3305   -3.5358   -1.6885 H   0  0  0  0  0  0  0  0  0  0  0  0
    3.9063   -1.0196   -3.4772 H   0  0  0  0  0  0  0  0  0  0  0  0
    3.7621   -2.7786   -4.0030 H   0  0  0  0  0  0  0  0  0  0  0  0
    6.2819   -1.3691   -2.7964 H   0  0  0  0  0  0  0  0  0  0  0  0
    6.2049   -3.1400   -3.3029 H   0  0  0  0  0  0  0  0  0  0  0  0
  1  2  1  0
  1 16  1  0
  1 17  1  0
  1 18  1  0
  2  3  1  0
  2 19  1  0
  2 20  1  0
  3  4  1  0
  3 21  1  0
  3 22  1  0
  4  5  1  0
  4 13  1  0
  5  6  1  0
  5 23  1  0
  5 24  1  0
  6  7  1  0
  6 25  1  0
  6 26  1  0
  7  8  1  0
  7 27  1  0
  7 28  1  0
  8  9  1  0
  8 10  1  0
  8 11  1  1
  9 29  1  0
  9 30  1  0
  9 31  1  0
 10 32  1  0
 10 33  1  0
 11 12  3  0
 13 14  1  0
 13 15  1  0
 13 34  1  1
 14 15  1  0
 14 35  1  0
 14 36  1  0
 15 37  1  0
 15 38  1  0
M  END

