
     RDKit          3D

 35 35  0  0  0  0  0  0  0  0999 V2000
    0.8903    0.1332    1.1330 C   0  0  0  0  0  0  0  0  0  0  0  0
    2.3553    0.3157    1.3971 C   0  0  0  0  0  0  0  0  0  0  0  0
    3.0081    1.4845    1.3932 C   0  0  0  0  0  0  0  0  0  0  0  0
    4.4786    1.6604    1.6528 C   0  0  0  0  0  0  0  0  0  0  0  0
    5.2211    2.2596    0.4473 C   0  0  0  0  0  0  0  0  0  0  0  0
    6.6370    2.4714    0.7025 N   0  0  0  0  0  0  0  0  0  0  0  0
    7.2538    3.6683    0.4804 C   0  0  0  0  0  0  0  0  0  0  0  0
    6.6633    4.7114    0.2663 O   0  0  0  0  0  0  0  0  0  0  0  0
    8.7722    3.6445    0.5916 C   0  0  0  0  0  0  0  0  0  0  0  0
    9.4546    4.3326    1.6257 C   0  0  0  0  0  0  0  0  0  0  0  0
    8.9094    4.9683    2.6822 O   0  0  0  0  0  0  0  0  0  0  0  0
    7.5799    4.7817    3.1442 C   0  0  0  0  0  0  0  0  0  0  0  0
   10.8648    4.3963    1.6115 C   0  0  0  0  0  0  0  0  0  0  0  0
   11.6112    3.7820    0.6171 C   0  0  0  0  0  0  0  0  0  0  0  0
   10.9673    3.0733   -0.3987 C   0  0  0  0  0  0  0  0  0  0  0  0
    9.5763    3.0324   -0.3967 C   0  0  0  0  0  0  0  0  0  0  0  0
    8.9548    2.3343   -1.5489 N   0  0  0  0  0  0  0  0  0  0  0  0
    7.8467    2.6964   -1.9100 O   0  0  0  0  0  0  0  0  0  0  0  0
    9.6028    1.4467   -2.0799 O   0  0  0  0  0  0  0  0  0  0  0  0
    0.7204   -0.5389    0.2734 H   0  0  0  0  0  0  0  0  0  0  0  0
    0.3904    1.0910    0.9213 H   0  0  0  0  0  0  0  0  0  0  0  0
    0.3837   -0.3337    1.9962 H   0  0  0  0  0  0  0  0  0  0  0  0
    2.9245   -0.5991    1.6148 H   0  0  0  0  0  0  0  0  0  0  0  0
    2.4462    2.4031    1.1731 H   0  0  0  0  0  0  0  0  0  0  0  0
    4.9288    0.6893    1.9248 H   0  0  0  0  0  0  0  0  0  0  0  0
    4.6307    2.3337    2.5166 H   0  0  0  0  0  0  0  0  0  0  0  0
    4.8040    3.2424    0.1857 H   0  0  0  0  0  0  0  0  0  0  0  0
    5.0956    1.6066   -0.4346 H   0  0  0  0  0  0  0  0  0  0  0  0
    7.2240    1.6543    0.8272 H   0  0  0  0  0  0  0  0  0  0  0  0
    7.5657    5.1659    4.1732 H   0  0  0  0  0  0  0  0  0  0  0  0
    7.3071    3.7143    3.1549 H   0  0  0  0  0  0  0  0  0  0  0  0
    6.8572    5.3326    2.5270 H   0  0  0  0  0  0  0  0  0  0  0  0
   11.3422    4.9443    2.4258 H   0  0  0  0  0  0  0  0  0  0  0  0
   12.7013    3.8480    0.6320 H   0  0  0  0  0  0  0  0  0  0  0  0
   11.5137    2.5701   -1.1946 H   0  0  0  0  0  0  0  0  0  0  0  0
  1  2  1  0
  1 20  1  0
  1 21  1  0
  1 22  1  0
  2  3  2  0
  2 23  1  0
  3  4  1  0
  3 24  1  0
  4  5  1  0
  4 25  1  0
  4 26  1  0
  5  6  1  0
  5 27  1  0
  5 28  1  0
  6  7  1  0
  6 29  1  0
  7  8  2  0
  7  9  1  0
  9 10  2  0
  9 16  1  0
 10 11  1  0
 10 13  1  0
 11 12  1  0
 12 30  1  0
 12 31  1  0
 12 32  1  0
 13 14  2  0
 13 33  1  0
 14 15  1  0
 14 34  1  0
 15 16  2  0
 15 35  1  0
 16 17  1  0
 17 18  2  0
 17 19  1  0
M  CHG  2  17   1  19  -1
M  END

