
     RDKit          3D

 36 36  0  0  0  0  0  0  0  0999 V2000
    2.7482    3.1175   -0.7563 C   0  0  0  0  0  0  0  0  0  0  0  0
    2.4669    2.5372    0.6328 C   0  0  1  0  0  0  0  0  0  0  0  0
    3.4018    3.1451    1.6885 C   0  0  0  0  0  0  0  0  0  0  0  0
    0.7700    3.1068    1.2375 S   0  0  0  0  0  0  0  0  0  0  0  0
   -0.3992    2.5712   -0.0450 C   0  0  1  0  0  0  0  0  0  0  0  0
   -0.2149    3.1428   -1.2454 F   0  0  0  0  0  0  0  0  0  0  0  0
   -0.3904    1.2374   -0.2556 F   0  0  0  0  0  0  0  0  0  0  0  0
   -1.6239    2.9045    0.3769 F   0  0  0  0  0  0  0  0  0  0  0  0
    2.5231    0.9640    0.6997 C   0  0  2  0  0  0  0  0  0  0  0  0
    1.9125    0.5895   -0.1442 H   0  0  0  0  0  0  0  0  0  0  0  0
    2.0932    0.4875    1.9978 N   0  0  0  0  0  0  0  0  0  0  0  0
    3.9284    0.4021    0.4360 C   0  0  0  0  0  0  0  0  0  0  0  0
    4.5563   -0.2450    1.2401 O   0  0  0  0  0  0  0  0  0  0  0  0
    4.3572    0.6631   -0.8072 O   0  0  0  0  0  0  0  0  0  0  0  0
    5.6486    0.1330   -1.2042 C   0  0  0  0  0  0  0  0  0  0  0  0
    5.5305   -1.2419   -1.8140 C   0  0  0  0  0  0  0  0  0  0  0  0
    5.2855   -1.3870   -3.1883 C   0  0  0  0  0  0  0  0  0  0  0  0
    5.1573   -2.6557   -3.7589 C   0  0  0  0  0  0  0  0  0  0  0  0
    5.2739   -3.7965   -2.9586 C   0  0  0  0  0  0  0  0  0  0  0  0
    5.5180   -3.6625   -1.5882 C   0  0  0  0  0  0  0  0  0  0  0  0
    5.6445   -2.3932   -1.0180 C   0  0  0  0  0  0  0  0  0  0  0  0
    2.5096    4.1908   -0.7728 H   0  0  0  0  0  0  0  0  0  0  0  0
    2.1595    2.6235   -1.5413 H   0  0  0  0  0  0  0  0  0  0  0  0
    3.8099    2.9913   -1.0078 H   0  0  0  0  0  0  0  0  0  0  0  0
    3.2835    4.2376    1.7462 H   0  0  0  0  0  0  0  0  0  0  0  0
    4.4483    2.9355    1.4128 H   0  0  0  0  0  0  0  0  0  0  0  0
    3.2105    2.6983    2.6740 H   0  0  0  0  0  0  0  0  0  0  0  0
    2.5705   -0.3768    2.2431 H   0  0  0  0  0  0  0  0  0  0  0  0
    1.0871    0.3519    2.0311 H   0  0  0  0  0  0  0  0  0  0  0  0
    6.3092    0.1242   -0.3271 H   0  0  0  0  0  0  0  0  0  0  0  0
    6.0227    0.8566   -1.9406 H   0  0  0  0  0  0  0  0  0  0  0  0
    5.1974   -0.4967   -3.8178 H   0  0  0  0  0  0  0  0  0  0  0  0
    4.9694   -2.7547   -4.8311 H   0  0  0  0  0  0  0  0  0  0  0  0
    5.1769   -4.7901   -3.4038 H   0  0  0  0  0  0  0  0  0  0  0  0
    5.6115   -4.5517   -0.9595 H   0  0  0  0  0  0  0  0  0  0  0  0
    5.8228   -2.2851    0.0543 H   0  0  0  0  0  0  0  0  0  0  0  0
  1  2  1  0
  1 22  1  0
  1 23  1  0
  1 24  1  0
  2  3  1  0
  2  4  1  1
  2  9  1  0
  3 25  1  0
  3 26  1  0
  3 27  1  0
  4  5  1  0
  5  6  1  6
  5  7  1  0
  5  8  1  0
  9 10  1  6
  9 11  1  0
  9 12  1  0
 11 28  1  0
 11 29  1  0
 12 13  2  0
 12 14  1  0
 14 15  1  0
 15 16  1  0
 15 30  1  0
 15 31  1  0
 16 17  2  0
 16 21  1  0
 17 18  1  0
 17 32  1  0
 18 19  2  0
 18 33  1  0
 19 20  1  0
 19 34  1  0
 20 21  2  0
 20 35  1  0
 21 36  1  0
M  END

