
     RDKit          3D

 51 51  0  0  0  0  0  0  0  0999 V2000
    5.7079    1.7573   -0.5671 C   0  0  0  0  0  0  0  0  0  0  0  0
    4.8042    0.7179    0.0884 C   0  0  0  0  0  0  0  0  0  0  0  0
    4.9862   -0.5904   -0.5199 N   0  0  0  0  0  0  0  0  0  0  0  0
    4.2350   -1.6951    0.0846 C   0  0  1  0  0  0  0  0  0  0  0  0
    2.7791   -1.6508   -0.4494 C   0  0  0  0  0  0  0  0  0  0  0  0
    1.6447   -2.2615    0.3803 C   0  0  0  0  0  0  0  0  0  0  0  0
    1.3597   -1.6637    2.0793 S   0  0  1  0  0  0  0  0  0  0  0  0
    1.0533    0.1110    1.9333 C   0  0  0  0  0  0  0  0  0  0  0  0
    0.1077   -2.2905    2.5253 O   0  0  0  0  0  0  0  0  0  0  0  0
    2.5891   -1.8337    2.8759 O   0  0  0  0  0  0  0  0  0  0  0  0
    5.0313   -3.0273   -0.1783 C   0  0  1  0  0  0  0  0  0  0  0  0
    6.3850   -2.8055    0.2691 O   0  0  0  0  0  0  0  0  0  0  0  0
    6.6639   -2.6538    1.6522 C   0  0  0  0  0  0  0  0  0  0  0  0
    8.1392   -2.3208    1.7982 C   0  0  0  0  0  0  0  0  0  0  0  0
    4.3981   -4.2141    0.5724 C   0  0  0  0  0  0  0  0  0  0  0  0
    5.1206   -5.5671    0.4557 C   0  0  0  0  0  0  0  0  0  0  0  0
    4.9117   -6.2751   -0.8936 C   0  0  0  0  0  0  0  0  0  0  0  0
    5.8126   -5.8223   -2.0611 C   0  0  0  0  0  0  0  0  0  0  0  0
    6.2329   -4.3413   -2.0882 C   0  0  0  0  0  0  0  0  0  0  0  0
    5.1697   -3.3006   -1.6986 C   0  0  0  0  0  0  0  0  0  0  0  0
    5.5516    2.7546   -0.1269 H   0  0  0  0  0  0  0  0  0  0  0  0
    5.5109    1.8146   -1.6488 H   0  0  0  0  0  0  0  0  0  0  0  0
    6.7718    1.4977   -0.4333 H   0  0  0  0  0  0  0  0  0  0  0  0
    3.7526    1.0356   -0.0385 H   0  0  0  0  0  0  0  0  0  0  0  0
    4.9830    0.7078    1.1888 H   0  0  0  0  0  0  0  0  0  0  0  0
    5.9745   -0.8394   -0.4816 H   0  0  0  0  0  0  0  0  0  0  0  0
    4.1816   -1.5759    1.1827 H   0  0  0  0  0  0  0  0  0  0  0  0
    2.7327   -2.1155   -1.4475 H   0  0  0  0  0  0  0  0  0  0  0  0
    2.5353   -0.5924   -0.6311 H   0  0  0  0  0  0  0  0  0  0  0  0
    1.7563   -3.3395    0.5642 H   0  0  0  0  0  0  0  0  0  0  0  0
    0.6718   -2.1202   -0.1149 H   0  0  0  0  0  0  0  0  0  0  0  0
    0.1782    0.2784    1.2918 H   0  0  0  0  0  0  0  0  0  0  0  0
    1.9475    0.6189    1.5505 H   0  0  0  0  0  0  0  0  0  0  0  0
    0.8403    0.4363    2.9610 H   0  0  0  0  0  0  0  0  0  0  0  0
    6.4334   -3.5830    2.2048 H   0  0  0  0  0  0  0  0  0  0  0  0
    6.0464   -1.8547    2.1026 H   0  0  0  0  0  0  0  0  0  0  0  0
    8.7634   -3.1181    1.3656 H   0  0  0  0  0  0  0  0  0  0  0  0
    8.4038   -2.2109    2.8617 H   0  0  0  0  0  0  0  0  0  0  0  0
    8.3847   -1.3796    1.2816 H   0  0  0  0  0  0  0  0  0  0  0  0
    3.3778   -4.3565    0.1845 H   0  0  0  0  0  0  0  0  0  0  0  0
    4.2725   -3.9397    1.6320 H   0  0  0  0  0  0  0  0  0  0  0  0
    4.7241   -6.2179    1.2530 H   0  0  0  0  0  0  0  0  0  0  0  0
    6.1967   -5.4505    0.6681 H   0  0  0  0  0  0  0  0  0  0  0  0
    3.8506   -6.1520   -1.1764 H   0  0  0  0  0  0  0  0  0  0  0  0
    5.0479   -7.3613   -0.7577 H   0  0  0  0  0  0  0  0  0  0  0  0
    5.2977   -6.0770   -3.0045 H   0  0  0  0  0  0  0  0  0  0  0  0
    6.7355   -6.4283   -2.0614 H   0  0  0  0  0  0  0  0  0  0  0  0
    6.5846   -4.1116   -3.1080 H   0  0  0  0  0  0  0  0  0  0  0  0
    7.1024   -4.1846   -1.4341 H   0  0  0  0  0  0  0  0  0  0  0  0
    4.1846   -3.5940   -2.0985 H   0  0  0  0  0  0  0  0  0  0  0  0
    5.4177   -2.3418   -2.1767 H   0  0  0  0  0  0  0  0  0  0  0  0
  1  2  1  0
  1 21  1  0
  1 22  1  0
  1 23  1  0
  2  3  1  0
  2 24  1  0
  2 25  1  0
  3  4  1  0
  3 26  1  0
  4  5  1  0
  4 11  1  0
  4 27  1  1
  5  6  1  0
  5 28  1  0
  5 29  1  0
  7  6  1  6
  6 30  1  0
  6 31  1  0
  7  8  1  0
  7  9  2  0
  7 10  2  0
  8 32  1  0
  8 33  1  0
  8 34  1  0
 11 12  1  1
 11 15  1  0
 11 20  1  0
 12 13  1  0
 13 14  1  0
 13 35  1  0
 13 36  1  0
 14 37  1  0
 14 38  1  0
 14 39  1  0
 15 16  1  0
 15 40  1  0
 15 41  1  0
 16 17  1  0
 16 42  1  0
 16 43  1  0
 17 18  1  0
 17 44  1  0
 17 45  1  0
 18 19  1  0
 18 46  1  0
 18 47  1  0
 19 20  1  0
 19 48  1  0
 19 49  1  0
 20 50  1  0
 20 51  1  0
M  END

