
     RDKit          3D

 26 28  0  0  0  0  0  0  0  0999 V2000
    0.9964   -0.1033   -0.1353 N   0  0  0  0  0  0  0  0  0  0  0  0
    2.3822   -0.0790   -0.0830 C   0  0  0  0  0  0  0  0  0  0  0  0
    3.0639    1.1710   -0.0444 C   0  0  0  0  0  0  0  0  0  0  0  0
    4.4514    1.2621   -0.0424 C   0  0  0  0  0  0  0  0  0  0  0  0
    5.1903    0.0715   -0.0809 C   0  0  0  0  0  0  0  0  0  0  0  0
    6.5503   -0.1889   -0.0845 N   0  0  0  0  0  0  0  0  0  0  0  0
    6.6459   -1.4837   -0.1248 C   0  0  0  0  0  0  0  0  0  0  0  0
    7.8869   -2.2548   -0.1480 C   0  0  0  0  0  0  0  0  0  0  0  0
    9.1125   -1.5555   -0.1408 C   0  0  0  0  0  0  0  0  0  0  0  0
   10.3357   -2.2144   -0.1578 C   0  0  0  0  0  0  0  0  0  0  0  0
   10.3548   -3.6147   -0.1821 C   0  0  0  0  0  0  0  0  0  0  0  0
   11.8805   -4.4615   -0.2023 Cl  0  0  0  0  0  0  0  0  0  0  0  0
    9.1665   -4.3450   -0.1901 C   0  0  0  0  0  0  0  0  0  0  0  0
    7.9532   -3.6602   -0.1735 C   0  0  0  0  0  0  0  0  0  0  0  0
    6.8357   -4.3914   -0.1817 F   0  0  0  0  0  0  0  0  0  0  0  0
    5.4385   -2.1437   -0.1445 O   0  0  0  0  0  0  0  0  0  0  0  0
    4.5028   -1.1549   -0.1184 C   0  0  0  0  0  0  0  0  0  0  0  0
    3.1206   -1.2788   -0.1194 C   0  0  0  0  0  0  0  0  0  0  0  0
    0.5166    0.7203    0.2093 H   0  0  0  0  0  0  0  0  0  0  0  0
    0.5455   -0.9674    0.1428 H   0  0  0  0  0  0  0  0  0  0  0  0
    2.4641    2.0849   -0.0198 H   0  0  0  0  0  0  0  0  0  0  0  0
    4.9535    2.2307   -0.0098 H   0  0  0  0  0  0  0  0  0  0  0  0
    9.0675   -0.4653   -0.1212 H   0  0  0  0  0  0  0  0  0  0  0  0
   11.2731   -1.6575   -0.1525 H   0  0  0  0  0  0  0  0  0  0  0  0
    9.1637   -5.4347   -0.2092 H   0  0  0  0  0  0  0  0  0  0  0  0
    2.6310   -2.2537   -0.1509 H   0  0  0  0  0  0  0  0  0  0  0  0
  1  2  1  0
  1 19  1  0
  1 20  1  0
  2  3  2  0
  2 18  1  0
  3  4  1  0
  3 21  1  0
  4  5  2  0
  4 22  1  0
  5  6  1  0
  5 17  1  0
  6  7  2  0
  7  8  1  0
  7 16  1  0
  8  9  2  0
  8 14  1  0
  9 10  1  0
  9 23  1  0
 10 11  2  0
 10 24  1  0
 11 12  1  0
 11 13  1  0
 13 14  2  0
 13 25  1  0
 14 15  1  0
 16 17  1  0
 17 18  2  0
 18 26  1  0
M  END

