
     RDKit          3D

 65 68  0  0  0  0  0  0  0  0999 V2000
    7.6356    0.8969   -1.6251 C   0  0  0  0  0  0  0  0  0  0  0  0
    6.4849   -0.0525   -1.3507 C   0  0  0  0  0  0  0  0  0  0  0  0
    6.6536   -0.6206   -0.0698 O   0  0  0  0  0  0  0  0  0  0  0  0
    5.6444   -1.5199    0.2950 C   0  0  0  0  0  0  0  0  0  0  0  0
    5.9117   -2.0728    1.6729 C   0  0  0  0  0  0  0  0  0  0  0  0
    7.0265   -1.7120    2.4397 C   0  0  0  0  0  0  0  0  0  0  0  0
    7.2233   -2.2546    3.7071 C   0  0  0  0  0  0  0  0  0  0  0  0
    6.3285   -3.1836    4.2849 C   0  0  0  0  0  0  0  0  0  0  0  0
    6.6110   -3.7043    5.6229 C   0  0  0  0  0  0  0  0  0  0  0  0
    5.9007   -4.5929    6.3571 C   0  0  0  0  0  0  0  0  0  0  0  0
    6.2383   -5.0763    7.6991 C   0  0  0  0  0  0  0  0  0  0  0  0
    7.3793   -4.6699    8.4228 C   0  0  0  0  0  0  0  0  0  0  0  0
    7.6405   -5.1672    9.6943 C   0  0  0  0  0  0  0  0  0  0  0  0
    6.7792   -6.0967   10.3138 C   0  0  0  0  0  0  0  0  0  0  0  0
    7.0661   -6.5871   11.6850 C   0  0  0  0  0  0  0  0  0  0  0  0
    7.6221   -5.7490   12.6697 C   0  0  0  0  0  0  0  0  0  0  0  0
    7.9025   -6.2015   13.9592 C   0  0  0  0  0  0  0  0  0  0  0  0
    7.6421   -7.5232   14.3567 C   0  0  0  0  0  0  0  0  0  0  0  0
    7.9345   -8.1128   15.7338 C   0  0  1  0  0  0  0  0  0  0  0  0
    8.8137   -7.2396   16.6568 C   0  0  0  0  0  0  0  0  0  0  0  0
    8.0690   -6.0990   17.3752 C   0  0  0  0  0  0  0  0  0  0  0  0
    6.7905   -6.5590   18.1061 C   0  0  2  0  0  0  0  0  0  0  0  0
    7.0882   -7.3237   19.4044 C   0  0  0  0  0  0  0  0  0  0  0  0
    5.9059   -7.3581   17.1276 C   0  0  0  0  0  0  0  0  0  0  0  0
    6.6450   -8.5390   16.4883 C   0  0  0  0  0  0  0  0  0  0  0  0
    7.1059   -8.3586   13.3676 C   0  0  0  0  0  0  0  0  0  0  0  0
    6.8695   -9.6528   13.6401 F   0  0  0  0  0  0  0  0  0  0  0  0
    6.8207   -7.9124   12.0765 C   0  0  0  0  0  0  0  0  0  0  0  0
    6.3263   -8.8077   11.2101 F   0  0  0  0  0  0  0  0  0  0  0  0
    5.6438   -6.5108    9.5926 C   0  0  0  0  0  0  0  0  0  0  0  0
    5.3825   -6.0085    8.3204 C   0  0  0  0  0  0  0  0  0  0  0  0
    5.2137   -3.5339    3.4984 C   0  0  0  0  0  0  0  0  0  0  0  0
    4.2946   -4.4056    3.9389 F   0  0  0  0  0  0  0  0  0  0  0  0
    5.0184   -2.9899    2.2305 C   0  0  0  0  0  0  0  0  0  0  0  0
    3.9354   -3.3641    1.5304 F   0  0  0  0  0  0  0  0  0  0  0  0
    7.5283    1.3550   -2.6205 H   0  0  0  0  0  0  0  0  0  0  0  0
    8.5968    0.3611   -1.5899 H   0  0  0  0  0  0  0  0  0  0  0  0
    7.6626    1.7005   -0.8729 H   0  0  0  0  0  0  0  0  0  0  0  0
    6.4473   -0.8520   -2.1204 H   0  0  0  0  0  0  0  0  0  0  0  0
    5.5148    0.4850   -1.4047 H   0  0  0  0  0  0  0  0  0  0  0  0
    5.5746   -2.3578   -0.4322 H   0  0  0  0  0  0  0  0  0  0  0  0
    4.6475   -1.0281    0.2812 H   0  0  0  0  0  0  0  0  0  0  0  0
    7.7341   -0.9973    2.0200 H   0  0  0  0  0  0  0  0  0  0  0  0
    8.1009   -1.9575    4.2864 H   0  0  0  0  0  0  0  0  0  0  0  0
    7.5307   -3.2943    6.0525 H   0  0  0  0  0  0  0  0  0  0  0  0
    4.9830   -5.0089    5.9393 H   0  0  0  0  0  0  0  0  0  0  0  0
    8.0823   -3.9587    7.9840 H   0  0  0  0  0  0  0  0  0  0  0  0
    8.5457   -4.8450   10.2139 H   0  0  0  0  0  0  0  0  0  0  0  0
    7.8177   -4.7046   12.4199 H   0  0  0  0  0  0  0  0  0  0  0  0
    8.3352   -5.5001   14.6714 H   0  0  0  0  0  0  0  0  0  0  0  0
    8.4965   -9.0410   15.5321 H   0  0  0  0  0  0  0  0  0  0  0  0
    9.6724   -6.8353   16.0955 H   0  0  0  0  0  0  0  0  0  0  0  0
    9.2493   -7.9099   17.4170 H   0  0  0  0  0  0  0  0  0  0  0  0
    7.7841   -5.3189   16.6505 H   0  0  0  0  0  0  0  0  0  0  0  0
    8.7564   -5.6113   18.0881 H   0  0  0  0  0  0  0  0  0  0  0  0
    6.2320   -5.6505   18.3938 H   0  0  0  0  0  0  0  0  0  0  0  0
    7.6674   -8.2451   19.2341 H   0  0  0  0  0  0  0  0  0  0  0  0
    6.1546   -7.6140   19.9137 H   0  0  0  0  0  0  0  0  0  0  0  0
    7.6680   -6.6988   20.1034 H   0  0  0  0  0  0  0  0  0  0  0  0
    5.5505   -6.6789   16.3321 H   0  0  0  0  0  0  0  0  0  0  0  0
    5.0025   -7.7226   17.6460 H   0  0  0  0  0  0  0  0  0  0  0  0
    5.9765   -9.0876   15.8090 H   0  0  0  0  0  0  0  0  0  0  0  0
    6.9357   -9.2604   17.2710 H   0  0  0  0  0  0  0  0  0  0  0  0
    4.9510   -7.2264   10.0361 H   0  0  0  0  0  0  0  0  0  0  0  0
    4.4878   -6.3425    7.7880 H   0  0  0  0  0  0  0  0  0  0  0  0
  1  2  1  0
  1 36  1  0
  1 37  1  0
  1 38  1  0
  2  3  1  0
  2 39  1  0
  2 40  1  0
  3  4  1  0
  4  5  1  0
  4 41  1  0
  4 42  1  0
  5  6  2  0
  5 34  1  0
  6  7  1  0
  6 43  1  0
  7  8  2  0
  7 44  1  0
  8  9  1  0
  8 32  1  0
  9 10  2  0
  9 45  1  0
 10 11  1  0
 10 46  1  0
 11 12  2  0
 11 31  1  0
 12 13  1  0
 12 47  1  0
 13 14  2  0
 13 48  1  0
 14 15  1  0
 14 30  1  0
 15 16  2  0
 15 28  1  0
 16 17  1  0
 16 49  1  0
 17 18  2  0
 17 50  1  0
 18 19  1  0
 18 26  1  0
 19 20  1  0
 19 25  1  0
 19 51  1  6
 20 21  1  0
 20 52  1  0
 20 53  1  0
 21 22  1  0
 21 54  1  0
 21 55  1  0
 22 23  1  0
 22 24  1  0
 22 56  1  1
 23 57  1  0
 23 58  1  0
 23 59  1  0
 24 25  1  0
 24 60  1  0
 24 61  1  0
 25 62  1  0
 25 63  1  0
 26 27  1  0
 26 28  2  0
 28 29  1  0
 30 31  2  0
 30 64  1  0
 31 65  1  0
 32 33  1  0
 32 34  2  0
 34 35  1  0
M  END

