
     RDKit          3D

 42 43  0  0  0  0  0  0  0  0999 V2000
    0.9451    0.5938    0.2636 C   0  0  0  0  0  0  0  0  0  0  0  0
    2.3316   -0.0578    0.2594 C   0  0  1  0  0  0  0  0  0  0  0  0
    2.7654    0.0724    1.2646 H   0  0  0  0  0  0  0  0  0  0  0  0
    2.2837   -1.5625   -0.0251 C   0  0  0  0  0  0  0  0  0  0  0  0
    2.0719   -1.7957   -1.4524 N   0  0  0  0  0  0  0  0  0  0  0  0
    1.5187   -3.0327   -1.7904 C   0  0  0  0  0  0  0  0  0  0  0  0
    1.2882   -3.8906   -0.9545 O   0  0  0  0  0  0  0  0  0  0  0  0
    1.2496   -3.2339   -3.1474 N   0  0  0  0  0  0  0  0  0  0  0  0
    0.5724   -2.2199   -3.9551 C   0  0  0  0  0  0  0  0  0  0  0  0
    0.8180   -2.4990   -5.4342 C   0  0  0  0  0  0  0  0  0  0  0  0
    0.4226   -3.8091   -5.7828 O   0  0  0  0  0  0  0  0  0  0  0  0
    1.0968   -4.8012   -5.0166 C   0  0  2  0  0  0  0  0  0  0  0  0
    0.5935   -6.1480   -5.5210 C   0  0  0  0  0  0  0  0  0  0  0  0
    1.4403   -7.3313   -5.0760 C   0  0  0  0  0  0  0  0  0  0  0  0
    2.4547   -7.2455   -4.4397 O   0  0  0  0  0  0  0  0  0  0  0  0
    0.9788   -8.5418   -5.4648 O   0  0  0  0  0  0  0  0  0  0  0  0
    0.8555   -4.5902   -3.5202 C   0  0  0  0  0  0  0  0  0  0  0  0
    3.1591   -1.2037   -2.2340 C   0  0  0  0  0  0  0  0  0  0  0  0
    3.2454    0.3100   -1.9890 C   0  0  1  0  0  0  0  0  0  0  0  0
    4.2388    0.6330   -2.3447 H   0  0  0  0  0  0  0  0  0  0  0  0
    2.2015    1.1292   -2.7555 C   0  0  0  0  0  0  0  0  0  0  0  0
    3.2689    0.6004   -0.5959 O   0  0  0  0  0  0  0  0  0  0  0  0
    0.3791    0.2611    1.1487 H   0  0  0  0  0  0  0  0  0  0  0  0
    0.3569    0.3269   -0.6262 H   0  0  0  0  0  0  0  0  0  0  0  0
    1.0409    1.6889    0.3086 H   0  0  0  0  0  0  0  0  0  0  0  0
    1.4779   -2.0452    0.5413 H   0  0  0  0  0  0  0  0  0  0  0  0
    3.2340   -2.0322    0.2965 H   0  0  0  0  0  0  0  0  0  0  0  0
    0.9223   -1.2152   -3.6944 H   0  0  0  0  0  0  0  0  0  0  0  0
   -0.5202   -2.2503   -3.7629 H   0  0  0  0  0  0  0  0  0  0  0  0
    1.8926   -2.3484   -5.6670 H   0  0  0  0  0  0  0  0  0  0  0  0
    0.2283   -1.8100   -6.0581 H   0  0  0  0  0  0  0  0  0  0  0  0
    2.1871   -4.7343   -5.2001 H   0  0  0  0  0  0  0  0  0  0  0  0
    0.5852   -6.1155   -6.6247 H   0  0  0  0  0  0  0  0  0  0  0  0
   -0.4554   -6.3037   -5.2107 H   0  0  0  0  0  0  0  0  0  0  0  0
    0.1561   -8.4499   -5.9663 H   0  0  0  0  0  0  0  0  0  0  0  0
    1.4426   -5.3080   -2.9356 H   0  0  0  0  0  0  0  0  0  0  0  0
   -0.2165   -4.7644   -3.2939 H   0  0  0  0  0  0  0  0  0  0  0  0
    3.0337   -1.4166   -3.3020 H   0  0  0  0  0  0  0  0  0  0  0  0
    4.1185   -1.6637   -1.9221 H   0  0  0  0  0  0  0  0  0  0  0  0
    1.1739    0.7887   -2.5664 H   0  0  0  0  0  0  0  0  0  0  0  0
    2.3907    1.0671   -3.8399 H   0  0  0  0  0  0  0  0  0  0  0  0
    2.2698    2.1862   -2.4579 H   0  0  0  0  0  0  0  0  0  0  0  0
  1  2  1  0
  1 23  1  0
  1 24  1  0
  1 25  1  0
  2  3  1  1
  2  4  1  0
  2 22  1  0
  4  5  1  0
  4 26  1  0
  4 27  1  0
  5  6  1  0
  5 18  1  0
  6  7  2  0
  6  8  1  0
  8  9  1  0
  8 17  1  0
  9 10  1  0
  9 28  1  0
  9 29  1  0
 10 11  1  0
 10 30  1  0
 10 31  1  0
 11 12  1  0
 12 13  1  0
 12 17  1  0
 12 32  1  1
 13 14  1  0
 13 33  1  0
 13 34  1  0
 14 15  2  0
 14 16  1  0
 16 35  1  0
 17 36  1  0
 17 37  1  0
 18 19  1  0
 18 38  1  0
 18 39  1  0
 19 20  1  6
 19 21  1  0
 19 22  1  0
 21 40  1  0
 21 41  1  0
 21 42  1  0
M  END

