
     RDKit          3D

 61 68  0  0  0  0  0  0  0  0999 V2000
    6.6182   -3.4038   -2.7654 C   0  0  0  0  0  0  0  0  0  0  0  0
    7.2600   -2.6310   -1.7942 C   0  0  0  0  0  0  0  0  0  0  0  0
    6.5354   -1.6977   -1.0477 C   0  0  0  0  0  0  0  0  0  0  0  0
    5.1548   -1.5208   -1.2526 C   0  0  0  0  0  0  0  0  0  0  0  0
    4.4045   -0.4861   -0.4814 C   0  0  0  0  0  0  0  0  0  0  0  0
    4.9102    0.8051   -0.4349 C   0  0  0  0  0  0  0  0  0  0  0  0
    4.2486    1.8652    0.2380 C   0  0  0  0  0  0  0  0  0  0  0  0
    4.7665    3.1906    0.2769 C   0  0  0  0  0  0  0  0  0  0  0  0
    4.0883    4.1922    0.9396 C   0  0  0  0  0  0  0  0  0  0  0  0
    2.8597    3.9146    1.5936 C   0  0  0  0  0  0  0  0  0  0  0  0
    2.3311    2.6408    1.5709 C   0  0  0  0  0  0  0  0  0  0  0  0
    3.0062    1.5867    0.8931 C   0  0  0  0  0  0  0  0  0  0  0  0
    2.5016    0.2606    0.8473 C   0  0  0  0  0  0  0  0  0  0  0  0
    3.1616   -0.7695    0.1934 C   0  0  0  0  0  0  0  0  0  0  0  0
    2.5920   -2.1480    0.2756 C   0  0  0  0  0  0  0  0  0  0  0  0
    3.3223   -3.1709    0.8824 C   0  0  0  0  0  0  0  0  0  0  0  0
    2.8318   -4.4922    1.0521 C   0  0  0  0  0  0  0  0  0  0  0  0
    1.5634   -4.7980    0.5920 C   0  0  0  0  0  0  0  0  0  0  0  0
    0.8162   -3.7663   -0.0366 C   0  0  0  0  0  0  0  0  0  0  0  0
   -0.4523   -4.2419   -0.4678 C   0  0  0  0  0  0  0  0  0  0  0  0
   -1.3005   -3.3658   -1.1190 C   0  0  0  0  0  0  0  0  0  0  0  0
   -0.8615   -2.0291   -1.3348 C   0  0  0  0  0  0  0  0  0  0  0  0
    0.3776   -1.5723   -0.9085 C   0  0  0  0  0  0  0  0  0  0  0  0
    1.2736   -2.4475   -0.2210 C   0  0  0  0  0  0  0  0  0  0  0  0
   -0.5166   -5.6655   -0.0775 C   0  0  0  0  0  0  0  0  0  0  0  0
   -1.5131   -6.6190   -0.2424 C   0  0  0  0  0  0  0  0  0  0  0  0
   -1.3164   -7.9344    0.2323 C   0  0  0  0  0  0  0  0  0  0  0  0
   -2.4031   -8.9380    0.0458 C   0  0  0  0  0  0  0  0  0  0  0  0
   -2.3274  -10.2476    0.5630 C   0  0  0  0  0  0  0  0  0  0  0  0
   -3.3819  -11.1323    0.3467 C   0  0  0  0  0  0  0  0  0  0  0  0
   -4.4948  -10.7004   -0.3774 C   0  0  0  0  0  0  0  0  0  0  0  0
   -4.4885   -9.3839   -0.8485 C   0  0  0  0  0  0  0  0  0  0  0  0
   -3.4843   -8.5356   -0.6463 N   0  0  0  0  0  0  0  0  0  0  0  0
   -0.0969   -8.2523    0.8639 C   0  0  0  0  0  0  0  0  0  0  0  0
    0.9141   -7.3000    1.0334 C   0  0  0  0  0  0  0  0  0  0  0  0
    0.7141   -6.0014    0.5677 C   0  0  0  0  0  0  0  0  0  0  0  0
    4.5224   -2.3072   -2.2336 C   0  0  0  0  0  0  0  0  0  0  0  0
    5.2468   -3.2358   -2.9830 C   0  0  0  0  0  0  0  0  0  0  0  0
    7.1830   -4.1342   -3.3504 H   0  0  0  0  0  0  0  0  0  0  0  0
    8.3306   -2.7566   -1.6119 H   0  0  0  0  0  0  0  0  0  0  0  0
    7.0423   -1.1063   -0.2810 H   0  0  0  0  0  0  0  0  0  0  0  0
    5.8409    1.0285   -0.9628 H   0  0  0  0  0  0  0  0  0  0  0  0
    5.7132    3.4024   -0.2277 H   0  0  0  0  0  0  0  0  0  0  0  0
    4.4957    5.2061    0.9641 H   0  0  0  0  0  0  0  0  0  0  0  0
    2.3329    4.7171    2.1162 H   0  0  0  0  0  0  0  0  0  0  0  0
    1.3847    2.4242    2.0740 H   0  0  0  0  0  0  0  0  0  0  0  0
    1.5706    0.0417    1.3766 H   0  0  0  0  0  0  0  0  0  0  0  0
    4.3222   -2.9394    1.2562 H   0  0  0  0  0  0  0  0  0  0  0  0
    3.4625   -5.2370    1.5444 H   0  0  0  0  0  0  0  0  0  0  0  0
   -2.2861   -3.6776   -1.4740 H   0  0  0  0  0  0  0  0  0  0  0  0
   -1.5260   -1.3387   -1.8609 H   0  0  0  0  0  0  0  0  0  0  0  0
    0.6694   -0.5393   -1.1064 H   0  0  0  0  0  0  0  0  0  0  0  0
   -2.4583   -6.3862   -0.7338 H   0  0  0  0  0  0  0  0  0  0  0  0
   -1.4586  -10.5754    1.1338 H   0  0  0  0  0  0  0  0  0  0  0  0
   -3.3340  -12.1500    0.7433 H   0  0  0  0  0  0  0  0  0  0  0  0
   -5.3443  -11.3588   -0.5713 H   0  0  0  0  0  0  0  0  0  0  0  0
   -5.3427   -8.9993   -1.4195 H   0  0  0  0  0  0  0  0  0  0  0  0
    0.0837   -9.2638    1.2305 H   0  0  0  0  0  0  0  0  0  0  0  0
    1.8483   -7.5818    1.5258 H   0  0  0  0  0  0  0  0  0  0  0  0
    3.4545   -2.1795   -2.4210 H   0  0  0  0  0  0  0  0  0  0  0  0
    4.7360   -3.8306   -3.7447 H   0  0  0  0  0  0  0  0  0  0  0  0
  1  2  2  0
  1 38  1  0
  1 39  1  0
  2  3  1  0
  2 40  1  0
  3  4  2  0
  3 41  1  0
  4  5  1  0
  4 37  1  0
  5  6  2  0
  5 14  1  0
  6  7  1  0
  6 42  1  0
  7  8  2  0
  7 12  1  0
  8  9  1  0
  8 43  1  0
  9 10  2  0
  9 44  1  0
 10 11  1  0
 10 45  1  0
 11 12  2  0
 11 46  1  0
 12 13  1  0
 13 14  2  0
 13 47  1  0
 14 15  1  0
 15 16  2  0
 15 24  1  0
 16 17  1  0
 16 48  1  0
 17 18  2  0
 17 49  1  0
 18 19  1  0
 18 36  1  0
 19 20  1  0
 19 24  2  0
 20 21  2  0
 20 25  1  0
 21 22  1  0
 21 50  1  0
 22 23  2  0
 22 51  1  0
 23 24  1  0
 23 52  1  0
 25 26  1  0
 25 36  2  0
 26 27  2  0
 26 53  1  0
 27 28  1  0
 27 34  1  0
 28 29  2  0
 28 33  1  0
 29 30  1  0
 29 54  1  0
 30 31  2  0
 30 55  1  0
 31 32  1  0
 31 56  1  0
 32 33  2  0
 32 57  1  0
 34 35  2  0
 34 58  1  0
 35 36  1  0
 35 59  1  0
 37 38  2  0
 37 60  1  0
 38 61  1  0
M  END

