
     RDKit          3D

 50 51  0  0  0  0  0  0  0  0999 V2000
    1.2467   -3.4249    0.1434 C   0  0  0  0  0  0  0  0  0  0  0  0
    2.2738   -2.3226   -0.0476 C   0  0  0  0  0  0  0  0  0  0  0  0
    3.5452   -2.6743    0.5423 O   0  0  0  0  0  0  0  0  0  0  0  0
    3.7368   -2.3911    1.8265 C   0  0  0  0  0  0  0  0  0  0  0  0
    2.9188   -1.8988    2.5676 O   0  0  0  0  0  0  0  0  0  0  0  0
    5.1081   -2.8324    2.3306 C   0  0  0  0  0  0  0  0  0  0  0  0
    5.3270   -2.9533    3.5764 N   0  0  0  0  0  0  0  0  0  0  0  0
    6.2567   -3.0345    1.3497 C   0  0  0  0  0  0  0  0  0  0  0  0
    6.3858   -2.2630    0.4258 O   0  0  0  0  0  0  0  0  0  0  0  0
    7.2064   -4.1731    1.6442 C   0  0  0  0  0  0  0  0  0  0  0  0
    8.4471   -4.1858    0.7544 C   0  0  0  0  0  0  0  0  0  0  0  0
    9.4267   -5.3395    1.0536 C   0  0  1  0  0  0  0  0  0  0  0  0
    8.8760   -6.7373    0.6858 C   0  0  0  0  0  0  0  0  0  0  0  0
    8.8769   -6.9886   -0.8338 C   0  0  0  0  0  0  0  0  0  0  0  0
   10.1817   -6.7813   -1.4628 N   0  0  0  0  0  0  0  0  0  0  0  0
   11.1228   -7.8811   -1.3049 C   0  0  0  0  0  0  0  0  0  0  0  0
   10.7463   -9.1164   -2.1077 C   0  0  0  0  0  0  0  0  0  0  0  0
   10.2333   -8.9954   -3.4090 C   0  0  0  0  0  0  0  0  0  0  0  0
    9.9364  -10.1304   -4.1665 C   0  0  0  0  0  0  0  0  0  0  0  0
   10.1473  -11.4081   -3.6357 C   0  0  0  0  0  0  0  0  0  0  0  0
   10.6530  -11.5402   -2.3399 C   0  0  0  0  0  0  0  0  0  0  0  0
   10.9459  -10.4009   -1.5827 C   0  0  0  0  0  0  0  0  0  0  0  0
   10.7077   -5.4525   -1.1611 C   0  0  0  0  0  0  0  0  0  0  0  0
   10.7858   -5.1412    0.3447 C   0  0  0  0  0  0  0  0  0  0  0  0
    0.3174   -3.1612   -0.3863 H   0  0  0  0  0  0  0  0  0  0  0  0
    1.0052   -3.5587    1.2083 H   0  0  0  0  0  0  0  0  0  0  0  0
    1.6134   -4.3805   -0.2624 H   0  0  0  0  0  0  0  0  0  0  0  0
    1.9305   -1.3766    0.3956 H   0  0  0  0  0  0  0  0  0  0  0  0
    2.5019   -2.1624   -1.1105 H   0  0  0  0  0  0  0  0  0  0  0  0
    4.4794   -2.6769    4.0957 H   0  0  0  0  0  0  0  0  0  0  0  0
    6.6158   -5.1038    1.5448 H   0  0  0  0  0  0  0  0  0  0  0  0
    7.4600   -4.1203    2.7174 H   0  0  0  0  0  0  0  0  0  0  0  0
    8.9757   -3.2269    0.8876 H   0  0  0  0  0  0  0  0  0  0  0  0
    8.1288   -4.1922   -0.3005 H   0  0  0  0  0  0  0  0  0  0  0  0
    9.6120   -5.3240    2.1433 H   0  0  0  0  0  0  0  0  0  0  0  0
    7.8567   -6.8813    1.0826 H   0  0  0  0  0  0  0  0  0  0  0  0
    9.4984   -7.5027    1.1809 H   0  0  0  0  0  0  0  0  0  0  0  0
    8.1526   -6.3122   -1.3227 H   0  0  0  0  0  0  0  0  0  0  0  0
    8.5358   -8.0126   -1.0516 H   0  0  0  0  0  0  0  0  0  0  0  0
   11.2893   -8.1881   -0.2489 H   0  0  0  0  0  0  0  0  0  0  0  0
   12.1035   -7.5210   -1.6645 H   0  0  0  0  0  0  0  0  0  0  0  0
   10.0606   -7.9944   -3.8111 H   0  0  0  0  0  0  0  0  0  0  0  0
    9.5375  -10.0187   -5.1786 H   0  0  0  0  0  0  0  0  0  0  0  0
    9.9138  -12.2963   -4.2287 H   0  0  0  0  0  0  0  0  0  0  0  0
   10.8149  -12.5335   -1.9127 H   0  0  0  0  0  0  0  0  0  0  0  0
   11.3356  -10.5117   -0.5659 H   0  0  0  0  0  0  0  0  0  0  0  0
   10.0574   -4.7090   -1.6569 H   0  0  0  0  0  0  0  0  0  0  0  0
   11.7024   -5.3502   -1.6248 H   0  0  0  0  0  0  0  0  0  0  0  0
   11.1495   -4.1102    0.4955 H   0  0  0  0  0  0  0  0  0  0  0  0
   11.5339   -5.8057    0.8120 H   0  0  0  0  0  0  0  0  0  0  0  0
  1  2  1  0
  1 25  1  0
  1 26  1  0
  1 27  1  0
  2  3  1  0
  2 28  1  0
  2 29  1  0
  3  4  1  0
  4  5  2  0
  4  6  1  0
  6  7  2  0
  6  8  1  0
  7 30  1  0
  8  9  2  0
  8 10  1  0
 10 11  1  0
 10 31  1  0
 10 32  1  0
 11 12  1  0
 11 33  1  0
 11 34  1  0
 12 13  1  0
 12 24  1  0
 12 35  1  1
 13 14  1  0
 13 36  1  0
 13 37  1  0
 14 15  1  0
 14 38  1  0
 14 39  1  0
 15 16  1  0
 15 23  1  0
 16 17  1  0
 16 40  1  0
 16 41  1  0
 17 18  2  0
 17 22  1  0
 18 19  1  0
 18 42  1  0
 19 20  2  0
 19 43  1  0
 20 21  1  0
 20 44  1  0
 21 22  2  0
 21 45  1  0
 22 46  1  0
 23 24  1  0
 23 47  1  0
 23 48  1  0
 24 49  1  0
 24 50  1  0
M  END

