
     RDKit          3D

 63 67  0  0  0  0  0  0  0  0999 V2000
    7.0904    1.2889   -1.6379 C   0  0  0  0  0  0  0  0  0  0  0  0
    7.0930   -0.0365   -1.8070 C   0  0  0  0  0  0  0  0  0  0  0  0
    7.7056   -0.6460   -3.0280 C   0  0  0  0  0  0  0  0  0  0  0  0
    8.2310    0.0152   -3.9123 O   0  0  0  0  0  0  0  0  0  0  0  0
    7.7179   -2.0168   -3.0796 N   0  0  0  0  0  0  0  0  0  0  0  0
    8.1665   -2.8481   -4.2032 C   0  0  1  0  0  0  0  0  0  0  0  0
    7.6223   -2.5826   -5.1277 H   0  0  0  0  0  0  0  0  0  0  0  0
    9.6619   -2.8599   -4.4725 C   0  0  0  0  0  0  0  0  0  0  0  0
    7.5395   -4.0717   -3.4740 C   0  0  0  0  0  0  0  0  0  0  0  0
    6.9453   -3.0681   -2.4326 C   0  0  2  0  0  0  0  0  0  0  0  0
    7.2355   -3.2544   -1.3839 H   0  0  0  0  0  0  0  0  0  0  0  0
    5.4196   -2.8769   -2.5405 C   0  0  0  0  0  0  0  0  0  0  0  0
    4.9558   -1.9154   -3.1285 O   0  0  0  0  0  0  0  0  0  0  0  0
    4.6277   -3.8395   -1.9591 N   0  0  0  0  0  0  0  0  0  0  0  0
    3.1744   -3.7070   -2.0320 C   0  0  0  0  0  0  0  0  0  0  0  0
    2.5378   -4.9539   -2.6544 C   0  0  0  0  0  0  0  0  0  0  0  0
    2.9529   -6.2800   -1.9754 C   0  0  2  0  0  0  0  0  0  0  0  0
    2.6198   -7.3782   -2.7983 O   0  0  0  0  0  0  0  0  0  0  0  0
    2.2310   -6.3982   -0.6043 C   0  0  0  0  0  0  0  0  0  0  0  0
    2.3472   -7.7130    0.0385 N   0  0  0  0  0  0  0  0  0  0  0  0
    3.2696   -7.9200    1.0298 C   0  0  0  0  0  0  0  0  0  0  0  0
    3.4543   -9.0218    1.6920 N   0  0  0  0  0  0  0  0  0  0  0  0
    2.6224  -10.0339    1.3319 C   0  0  0  0  0  0  0  0  0  0  0  0
    1.6267   -9.9508    0.3468 C   0  0  0  0  0  0  0  0  0  0  0  0
    1.0224  -11.2340    0.3337 C   0  0  0  0  0  0  0  0  0  0  0  0
    1.5911  -12.0244    1.2211 N   0  0  0  0  0  0  0  0  0  0  0  0
    2.5708  -11.3060    1.8390 N   0  0  0  0  0  0  0  0  0  0  0  0
    3.3527  -11.9317    2.8568 C   0  0  0  0  0  0  0  0  0  0  0  0
    3.0850  -13.2710    3.1828 C   0  0  0  0  0  0  0  0  0  0  0  0
    3.8295  -13.9110    4.1719 C   0  0  0  0  0  0  0  0  0  0  0  0
    4.8374  -13.2094    4.8300 C   0  0  0  0  0  0  0  0  0  0  0  0
    5.5533  -13.8247    5.7812 F   0  0  0  0  0  0  0  0  0  0  0  0
    5.1143  -11.8815    4.5177 C   0  0  0  0  0  0  0  0  0  0  0  0
    4.3709  -11.2366    3.5274 C   0  0  0  0  0  0  0  0  0  0  0  0
    1.4335   -8.7299   -0.3857 C   0  0  0  0  0  0  0  0  0  0  0  0
    0.6162   -8.5028   -1.2684 O   0  0  0  0  0  0  0  0  0  0  0  0
    4.4876   -6.3073   -1.8491 C   0  0  0  0  0  0  0  0  0  0  0  0
    5.0954   -5.0284   -1.2589 C   0  0  0  0  0  0  0  0  0  0  0  0
    6.6544    1.7561   -0.7514 H   0  0  0  0  0  0  0  0  0  0  0  0
    7.5296    1.9321   -2.4059 H   0  0  0  0  0  0  0  0  0  0  0  0
    6.6543   -0.6969   -1.0538 H   0  0  0  0  0  0  0  0  0  0  0  0
    9.9876   -1.8644   -4.8065 H   0  0  0  0  0  0  0  0  0  0  0  0
    9.9030   -3.5923   -5.2606 H   0  0  0  0  0  0  0  0  0  0  0  0
   10.2250   -3.1252   -3.5629 H   0  0  0  0  0  0  0  0  0  0  0  0
    8.2856   -4.7559   -3.0449 H   0  0  0  0  0  0  0  0  0  0  0  0
    6.8014   -4.6467   -4.0494 H   0  0  0  0  0  0  0  0  0  0  0  0
    2.9573   -2.8128   -2.6288 H   0  0  0  0  0  0  0  0  0  0  0  0
    2.7762   -3.5256   -1.0146 H   0  0  0  0  0  0  0  0  0  0  0  0
    2.8468   -5.0337   -3.7084 H   0  0  0  0  0  0  0  0  0  0  0  0
    1.4388   -4.8572   -2.6510 H   0  0  0  0  0  0  0  0  0  0  0  0
    1.7038   -7.6547   -2.6138 H   0  0  0  0  0  0  0  0  0  0  0  0
    1.1578   -6.2177   -0.7578 H   0  0  0  0  0  0  0  0  0  0  0  0
    2.5989   -5.6418    0.1021 H   0  0  0  0  0  0  0  0  0  0  0  0
    3.8909   -7.0515    1.2727 H   0  0  0  0  0  0  0  0  0  0  0  0
    0.2046  -11.5960   -0.2878 H   0  0  0  0  0  0  0  0  0  0  0  0
    2.2919  -13.7963    2.6534 H   0  0  0  0  0  0  0  0  0  0  0  0
    3.6361  -14.9517    4.4390 H   0  0  0  0  0  0  0  0  0  0  0  0
    5.9104  -11.3593    5.0516 H   0  0  0  0  0  0  0  0  0  0  0  0
    4.5776  -10.1988    3.2747 H   0  0  0  0  0  0  0  0  0  0  0  0
    4.8759   -6.4613   -2.8683 H   0  0  0  0  0  0  0  0  0  0  0  0
    4.8034   -7.1856   -1.2628 H   0  0  0  0  0  0  0  0  0  0  0  0
    6.1883   -5.0942   -1.3061 H   0  0  0  0  0  0  0  0  0  0  0  0
    4.8386   -4.9392   -0.1836 H   0  0  0  0  0  0  0  0  0  0  0  0
  1  2  2  0
  1 39  1  0
  1 40  1  0
  2  3  1  0
  2 41  1  0
  3  4  2  0
  3  5  1  0
  5  6  1  0
  5 10  1  0
  6  7  1  6
  6  8  1  0
  6  9  1  0
  8 42  1  0
  8 43  1  0
  8 44  1  0
  9 10  1  0
  9 45  1  0
  9 46  1  0
 10 11  1  1
 10 12  1  0
 12 13  2  0
 12 14  1  0
 14 15  1  0
 14 38  1  0
 15 16  1  0
 15 47  1  0
 15 48  1  0
 16 17  1  0
 16 49  1  0
 16 50  1  0
 17 18  1  6
 17 19  1  0
 17 37  1  0
 18 51  1  0
 19 20  1  0
 19 52  1  0
 19 53  1  0
 20 21  1  0
 20 35  1  0
 21 22  2  0
 21 54  1  0
 22 23  1  0
 23 24  2  0
 23 27  1  0
 24 25  1  0
 24 35  1  0
 25 26  2  0
 25 55  1  0
 26 27  1  0
 27 28  1  0
 28 29  2  0
 28 34  1  0
 29 30  1  0
 29 56  1  0
 30 31  2  0
 30 57  1  0
 31 32  1  0
 31 33  1  0
 33 34  2  0
 33 58  1  0
 34 59  1  0
 35 36  2  0
 37 38  1  0
 37 60  1  0
 37 61  1  0
 38 62  1  0
 38 63  1  0
M  END

