
     RDKit          3D

 43 45  0  0  0  0  0  0  0  0999 V2000
    9.5940    0.4883    3.3316 C   0  0  0  0  0  0  0  0  0  0  0  0
    8.4897    1.1735    2.5940 C   0  0  0  0  0  0  0  0  0  0  0  0
    7.5581    0.6961    1.6903 C   0  0  0  0  0  0  0  0  0  0  0  0
    6.7690    1.8206    1.3352 C   0  0  0  0  0  0  0  0  0  0  0  0
    5.6521    1.7040    0.3360 C   0  0  0  0  0  0  0  0  0  0  0  0
    5.5437    0.6288   -0.2472 O   0  0  0  0  0  0  0  0  0  0  0  0
    4.7901    2.7452    0.0856 N   0  0  0  0  0  0  0  0  0  0  0  0
    3.7379    2.5508   -0.9119 C   0  0  0  0  0  0  0  0  0  0  0  0
    3.7833    3.6527   -1.9744 C   0  0  0  0  0  0  0  0  0  0  0  0
    3.7738    5.0464   -1.3350 C   0  0  0  0  0  0  0  0  0  0  0  0
    4.8663    5.2123   -0.2505 C   0  0  1  0  0  0  0  0  0  0  0  0
    6.2963    5.2559   -0.8487 C   0  0  0  0  0  0  0  0  0  0  0  0
    6.5644    6.5558   -1.6198 C   0  0  0  0  0  0  0  0  0  0  0  0
    6.1815    7.7695   -0.7736 C   0  0  0  0  0  0  0  0  0  0  0  0
    4.8543    7.6727   -0.2933 O   0  0  0  0  0  0  0  0  0  0  0  0
    4.6518    6.5337    0.5153 C   0  0  0  0  0  0  0  0  0  0  0  0
    4.7358    4.0418    0.7514 C   0  0  0  0  0  0  0  0  0  0  0  0
    7.1947    2.9141    1.9766 N   0  0  0  0  0  0  0  0  0  0  0  0
    8.2268    2.5124    2.7306 N   0  0  0  0  0  0  0  0  0  0  0  0
    8.9387    3.4663    3.5555 C   0  0  0  0  0  0  0  0  0  0  0  0
    9.6238   -0.5747    3.0572 H   0  0  0  0  0  0  0  0  0  0  0  0
    9.4608    0.5490    4.4253 H   0  0  0  0  0  0  0  0  0  0  0  0
   10.5805    0.9236    3.0970 H   0  0  0  0  0  0  0  0  0  0  0  0
    7.4401   -0.3160    1.3155 H   0  0  0  0  0  0  0  0  0  0  0  0
    2.7563    2.5725   -0.3981 H   0  0  0  0  0  0  0  0  0  0  0  0
    3.8690    1.5535   -1.3466 H   0  0  0  0  0  0  0  0  0  0  0  0
    2.9185    3.5405   -2.6499 H   0  0  0  0  0  0  0  0  0  0  0  0
    4.6840    3.5168   -2.5964 H   0  0  0  0  0  0  0  0  0  0  0  0
    2.7917    5.2074   -0.8527 H   0  0  0  0  0  0  0  0  0  0  0  0
    3.8626    5.8326   -2.0998 H   0  0  0  0  0  0  0  0  0  0  0  0
    6.4795    4.3802   -1.4902 H   0  0  0  0  0  0  0  0  0  0  0  0
    7.0165    5.1729   -0.0157 H   0  0  0  0  0  0  0  0  0  0  0  0
    5.9877    6.5759   -2.5598 H   0  0  0  0  0  0  0  0  0  0  0  0
    7.6291    6.6214   -1.9024 H   0  0  0  0  0  0  0  0  0  0  0  0
    6.2377    8.7026   -1.3554 H   0  0  0  0  0  0  0  0  0  0  0  0
    6.8849    7.8647    0.0825 H   0  0  0  0  0  0  0  0  0  0  0  0
    3.6197    6.5998    0.8960 H   0  0  0  0  0  0  0  0  0  0  0  0
    5.3359    6.5630    1.3917 H   0  0  0  0  0  0  0  0  0  0  0  0
    3.7557    4.1264    1.2638 H   0  0  0  0  0  0  0  0  0  0  0  0
    5.5189    4.0974    1.5124 H   0  0  0  0  0  0  0  0  0  0  0  0
    8.4304    4.4327    3.4600 H   0  0  0  0  0  0  0  0  0  0  0  0
    9.9852    3.5755    3.2273 H   0  0  0  0  0  0  0  0  0  0  0  0
    8.9315    3.1577    4.6129 H   0  0  0  0  0  0  0  0  0  0  0  0
  1  2  1  0
  1 21  1  0
  1 22  1  0
  1 23  1  0
  2  3  2  0
  2 19  1  0
  3  4  1  0
  3 24  1  0
  4  5  1  0
  4 18  2  0
  5  6  2  0
  5  7  1  0
  7  8  1  0
  7 17  1  0
  8  9  1  0
  8 25  1  0
  8 26  1  0
  9 10  1  0
  9 27  1  0
  9 28  1  0
 11 10  1  6
 10 29  1  0
 10 30  1  0
 11 12  1  0
 11 16  1  0
 11 17  1  0
 12 13  1  0
 12 31  1  0
 12 32  1  0
 13 14  1  0
 13 33  1  0
 13 34  1  0
 14 15  1  0
 14 35  1  0
 14 36  1  0
 15 16  1  0
 16 37  1  0
 16 38  1  0
 17 39  1  0
 17 40  1  0
 18 19  1  0
 19 20  1  0
 20 41  1  0
 20 42  1  0
 20 43  1  0
M  END

