
     RDKit          3D

 40 42  0  0  0  0  0  0  0  0999 V2000
   -3.4983    1.2286    2.8267 C   0  0  0  0  0  0  0  0  0  0  0  0
   -3.4735   -0.1729    3.0320 C   0  0  0  0  0  0  0  0  0  0  0  0
   -2.7439   -0.9922    2.1949 C   0  0  0  0  0  0  0  0  0  0  0  0
   -1.9924   -0.4541    1.1102 C   0  0  0  0  0  0  0  0  0  0  0  0
   -1.1977   -1.2713    0.2342 C   0  0  0  0  0  0  0  0  0  0  0  0
   -1.0907   -2.7710    0.4281 C   0  0  0  0  0  0  0  0  0  0  0  0
   -2.3610   -3.4510    0.2095 N   0  0  0  0  0  0  0  0  0  0  0  0
   -2.3700   -4.9079    0.3281 C   0  0  1  0  0  0  0  0  0  0  0  0
   -3.8271   -5.3711    0.4637 C   0  0  0  0  0  0  0  0  0  0  0  0
   -4.0498   -6.8832    0.5870 C   0  0  0  0  0  0  0  0  0  0  0  0
   -3.7322   -7.6917   -0.6746 C   0  0  0  0  0  0  0  0  0  0  0  0
   -2.3779   -8.0319   -0.8958 O   0  0  0  0  0  0  0  0  0  0  0  0
   -1.3486   -7.1327   -0.5419 C   0  0  0  0  0  0  0  0  0  0  0  0
   -1.6000   -5.6415   -0.7934 C   0  0  0  0  0  0  0  0  0  0  0  0
   -0.5037   -0.6688   -0.8009 C   0  0  0  0  0  0  0  0  0  0  0  0
   -0.5481    0.7309   -1.0163 C   0  0  0  0  0  0  0  0  0  0  0  0
   -1.2913    1.5329   -0.1805 C   0  0  0  0  0  0  0  0  0  0  0  0
   -2.0258    0.9676    0.8999 C   0  0  0  0  0  0  0  0  0  0  0  0
   -2.7919    1.7825    1.7807 C   0  0  0  0  0  0  0  0  0  0  0  0
   -4.0816    1.8665    3.4958 H   0  0  0  0  0  0  0  0  0  0  0  0
   -4.0436   -0.6084    3.8568 H   0  0  0  0  0  0  0  0  0  0  0  0
   -2.7640   -2.0726    2.3348 H   0  0  0  0  0  0  0  0  0  0  0  0
   -0.7683   -2.9892    1.4634 H   0  0  0  0  0  0  0  0  0  0  0  0
   -0.2704   -3.1354   -0.2258 H   0  0  0  0  0  0  0  0  0  0  0  0
   -2.7755   -3.1572   -0.6748 H   0  0  0  0  0  0  0  0  0  0  0  0
   -1.8518   -5.1453    1.2777 H   0  0  0  0  0  0  0  0  0  0  0  0
   -4.3903   -5.0068   -0.4172 H   0  0  0  0  0  0  0  0  0  0  0  0
   -4.2617   -4.8534    1.3335 H   0  0  0  0  0  0  0  0  0  0  0  0
   -5.1164   -7.0501    0.8149 H   0  0  0  0  0  0  0  0  0  0  0  0
   -3.4922   -7.2997    1.4448 H   0  0  0  0  0  0  0  0  0  0  0  0
   -4.1413   -7.1478   -1.5527 H   0  0  0  0  0  0  0  0  0  0  0  0
   -4.2617   -8.6577   -0.6334 H   0  0  0  0  0  0  0  0  0  0  0  0
   -0.4783   -7.4594   -1.1337 H   0  0  0  0  0  0  0  0  0  0  0  0
   -1.0662   -7.2665    0.5244 H   0  0  0  0  0  0  0  0  0  0  0  0
   -2.1107   -5.5046   -1.7642 H   0  0  0  0  0  0  0  0  0  0  0  0
   -0.6110   -5.1653   -0.8993 H   0  0  0  0  0  0  0  0  0  0  0  0
    0.1033   -1.2896   -1.4664 H   0  0  0  0  0  0  0  0  0  0  0  0
    0.0147    1.1672   -1.8453 H   0  0  0  0  0  0  0  0  0  0  0  0
   -1.3271    2.6151   -0.3332 H   0  0  0  0  0  0  0  0  0  0  0  0
   -2.8087    2.8629    1.6118 H   0  0  0  0  0  0  0  0  0  0  0  0
  1  2  2  0
  1 19  1  0
  1 20  1  0
  2  3  1  0
  2 21  1  0
  3  4  2  0
  3 22  1  0
  4  5  1  0
  4 18  1  0
  5  6  1  0
  5 15  2  0
  6  7  1  0
  6 23  1  0
  6 24  1  0
  7  8  1  0
  7 25  1  0
  8  9  1  0
  8 14  1  0
  8 26  1  1
  9 10  1  0
  9 27  1  0
  9 28  1  0
 10 11  1  0
 10 29  1  0
 10 30  1  0
 11 12  1  0
 11 31  1  0
 11 32  1  0
 12 13  1  0
 13 14  1  0
 13 33  1  0
 13 34  1  0
 14 35  1  0
 14 36  1  0
 15 16  1  0
 15 37  1  0
 16 17  2  0
 16 38  1  0
 17 18  1  0
 17 39  1  0
 18 19  2  0
 19 40  1  0
M  END

