
     RDKit          3D

 43 45  0  0  0  0  0  0  0  0999 V2000
    2.3619   -1.2377   -2.9958 C   0  0  0  0  0  0  0  0  0  0  0  0
    2.8401   -0.5361   -1.7685 C   0  0  0  0  0  0  0  0  0  0  0  0
    4.0143   -0.6921   -1.1781 N   0  0  0  0  0  0  0  0  0  0  0  0
    3.9446    0.1491   -0.1136 C   0  0  0  0  0  0  0  0  0  0  0  0
    5.2614    0.3889    1.0606 S   0  0  0  0  0  0  0  0  0  0  0  0
    6.2399   -1.1032    0.7870 C   0  0  0  0  0  0  0  0  0  0  0  0
    7.5096   -0.8930    0.3337 C   0  0  0  0  0  0  0  0  0  0  0  0
    8.7030   -1.7032    0.0980 C   0  0  0  0  0  0  0  0  0  0  0  0
    8.7940   -3.1112    0.1261 C   0  0  0  0  0  0  0  0  0  0  0  0
   10.0023   -3.7648   -0.1120 C   0  0  0  0  0  0  0  0  0  0  0  0
   11.1654   -3.0279   -0.3917 C   0  0  0  0  0  0  0  0  0  0  0  0
   12.3805   -3.5732   -0.6345 O   0  0  0  0  0  0  0  0  0  0  0  0
   12.5349   -4.9778   -0.6124 C   0  0  0  0  0  0  0  0  0  0  0  0
   13.9711   -5.3396   -0.9080 C   0  0  0  0  0  0  0  0  0  0  0  0
   14.9496   -4.3667   -1.1520 C   0  0  0  0  0  0  0  0  0  0  0  0
   16.2723   -4.7261   -1.4229 C   0  0  0  0  0  0  0  0  0  0  0  0
   16.6406   -6.0731   -1.4544 C   0  0  0  0  0  0  0  0  0  0  0  0
   15.6833   -7.0615   -1.2143 C   0  0  0  0  0  0  0  0  0  0  0  0
   14.3655   -6.6876   -0.9449 C   0  0  0  0  0  0  0  0  0  0  0  0
   13.1749   -7.9442   -0.6448 Cl  0  0  0  0  0  0  0  0  0  0  0  0
   11.0957   -1.6234   -0.4373 C   0  0  0  0  0  0  0  0  0  0  0  0
    9.8894   -0.9847   -0.2018 C   0  0  0  0  0  0  0  0  0  0  0  0
    5.5993   -2.4001    1.1963 C   0  0  0  0  0  0  0  0  0  0  0  0
    5.9952   -3.4929    0.8667 O   0  0  0  0  0  0  0  0  0  0  0  0
    4.5158   -2.2912    1.9831 O   0  0  0  0  0  0  0  0  0  0  0  0
    2.8105    0.8204    0.0037 N   0  0  0  0  0  0  0  0  0  0  0  0
    2.1202    0.3782   -1.0713 N   0  0  0  0  0  0  0  0  0  0  0  0
    1.1845    0.7263   -1.2499 H   0  0  0  0  0  0  0  0  0  0  0  0
    3.1593   -1.9005   -3.3538 H   0  0  0  0  0  0  0  0  0  0  0  0
    2.1091   -0.5253   -3.7978 H   0  0  0  0  0  0  0  0  0  0  0  0
    1.4673   -1.8476   -2.7894 H   0  0  0  0  0  0  0  0  0  0  0  0
    7.7038    0.1636    0.1209 H   0  0  0  0  0  0  0  0  0  0  0  0
    7.8959   -3.6920    0.3258 H   0  0  0  0  0  0  0  0  0  0  0  0
   10.0213   -4.8542   -0.0828 H   0  0  0  0  0  0  0  0  0  0  0  0
   11.8694   -5.4531   -1.3571 H   0  0  0  0  0  0  0  0  0  0  0  0
   12.2430   -5.3846    0.3740 H   0  0  0  0  0  0  0  0  0  0  0  0
   14.6544   -3.3177   -1.1257 H   0  0  0  0  0  0  0  0  0  0  0  0
   17.0169   -3.9487   -1.6098 H   0  0  0  0  0  0  0  0  0  0  0  0
   17.6732   -6.3612   -1.6656 H   0  0  0  0  0  0  0  0  0  0  0  0
   15.9467   -8.1203   -1.2333 H   0  0  0  0  0  0  0  0  0  0  0  0
   12.0030   -1.0596   -0.6621 H   0  0  0  0  0  0  0  0  0  0  0  0
    9.8543    0.1075   -0.2426 H   0  0  0  0  0  0  0  0  0  0  0  0
    4.3550   -1.3483    2.1791 H   0  0  0  0  0  0  0  0  0  0  0  0
  1  2  1  0
  1 29  1  0
  1 30  1  0
  1 31  1  0
  2  3  2  0
  2 27  1  0
  3  4  1  0
  4  5  1  0
  4 26  2  0
  5  6  1  0
  6  7  2  0
  6 23  1  0
  7  8  1  0
  7 32  1  0
  8  9  2  0
  8 22  1  0
  9 10  1  0
  9 33  1  0
 10 11  2  0
 10 34  1  0
 11 12  1  0
 11 21  1  0
 12 13  1  0
 13 14  1  0
 13 35  1  0
 13 36  1  0
 14 15  2  0
 14 19  1  0
 15 16  1  0
 15 37  1  0
 16 17  2  0
 16 38  1  0
 17 18  1  0
 17 39  1  0
 18 19  2  0
 18 40  1  0
 19 20  1  0
 21 22  2  0
 21 41  1  0
 22 42  1  0
 23 24  2  0
 23 25  1  0
 25 43  1  0
 26 27  1  0
 27 28  1  0
M  END

