
     RDKit          3D

144152  0  0  0  0  0  0  0  0999 V2000
    1.2065    0.0303   -6.0005 C   0  0  0  0  0  0  0  0  0  0  0  0
    2.1386    0.6872   -5.1708 O   0  0  0  0  0  0  0  0  0  0  0  0
    2.9171   -0.0429   -4.3335 C   0  0  0  0  0  0  0  0  0  0  0  0
    3.8272    0.6837   -3.5578 C   0  0  0  0  0  0  0  0  0  0  0  0
    4.6752    0.0186   -2.6665 C   0  0  0  0  0  0  0  0  0  0  0  0
    5.5259    0.8070   -1.9569 O   0  0  0  0  0  0  0  0  0  0  0  0
    6.4744    0.2117   -1.1027 C   0  0  0  0  0  0  0  0  0  0  0  0
    4.6143   -1.3803   -2.5442 C   0  0  0  0  0  0  0  0  0  0  0  0
    3.6965   -2.1071   -3.3207 C   0  0  0  0  0  0  0  0  0  0  0  0
    3.6135   -3.5886   -3.1892 C   0  0  0  0  0  0  0  0  0  0  0  0
    2.9092   -4.2984   -2.2103 C   0  0  0  0  0  0  0  0  0  0  0  0
    2.0275   -3.7862   -1.1453 C   0  0  0  0  0  0  0  0  0  0  0  0
    2.4614   -2.8374   -0.2061 C   0  0  0  0  0  0  0  0  0  0  0  0
    1.5770   -2.3602    0.7717 C   0  0  0  0  0  0  0  0  0  0  0  0
    1.9060   -1.4530    1.7256 O   0  0  0  0  0  0  0  0  0  0  0  0
    3.2179   -0.9385    1.7646 C   0  0  0  0  0  0  0  0  0  0  0  0
    0.2456   -2.8244    0.8161 C   0  0  0  0  0  0  0  0  0  0  0  0
   -0.6003   -2.4288    1.8071 O   0  0  0  0  0  0  0  0  0  0  0  0
   -1.2372   -1.1742    1.6225 C   0  0  0  0  0  0  0  0  0  0  0  0
   -0.1958   -3.7455   -0.1547 C   0  0  0  0  0  0  0  0  0  0  0  0
   -1.5009   -4.1124   -0.0632 O   0  0  0  0  0  0  0  0  0  0  0  0
   -2.0623   -4.9093   -1.0825 C   0  0  0  0  0  0  0  0  0  0  0  0
    0.6963   -4.2391   -1.1144 C   0  0  0  0  0  0  0  0  0  0  0  0
    3.0802   -5.6908   -2.5243 C   0  0  0  0  0  0  0  0  0  0  0  0
    2.7656   -6.7146   -1.7462 N   0  0  0  0  0  0  0  0  0  0  0  0
    3.0758   -7.9496   -2.0903 C   0  0  0  0  0  0  0  0  0  0  0  0
    2.8064   -9.1682   -1.3565 C   0  0  0  0  0  0  0  0  0  0  0  0
    2.3568   -9.2666    0.0429 C   0  0  0  0  0  0  0  0  0  0  0  0
    1.5079   -8.3033    0.6232 C   0  0  0  0  0  0  0  0  0  0  0  0
    1.1188   -8.4235    1.9660 C   0  0  0  0  0  0  0  0  0  0  0  0
    0.2923   -7.5661    2.6078 O   0  0  0  0  0  0  0  0  0  0  0  0
   -0.1592   -6.4118    1.9340 C   0  0  0  0  0  0  0  0  0  0  0  0
    1.5953   -9.4926    2.7555 C   0  0  0  0  0  0  0  0  0  0  0  0
    1.2669   -9.5574    4.0736 O   0  0  0  0  0  0  0  0  0  0  0  0
    0.2258  -10.4572    4.4162 C   0  0  0  0  0  0  0  0  0  0  0  0
    2.4465  -10.4533    2.1733 C   0  0  0  0  0  0  0  0  0  0  0  0
    2.8543  -11.4499    3.0018 O   0  0  0  0  0  0  0  0  0  0  0  0
    3.7354  -12.4341    2.5090 C   0  0  0  0  0  0  0  0  0  0  0  0
    2.8260  -10.3367    0.8334 C   0  0  0  0  0  0  0  0  0  0  0  0
    3.1933  -10.2147   -2.2123 C   0  0  0  0  0  0  0  0  0  0  0  0
    3.0720  -11.6781   -1.9861 C   0  0  0  0  0  0  0  0  0  0  0  0
    1.8199  -12.2469   -1.7458 C   0  0  0  0  0  0  0  0  0  0  0  0
    1.7017  -13.6332   -1.5330 C   0  0  0  0  0  0  0  0  0  0  0  0
    0.4441  -14.0923   -1.3118 O   0  0  0  0  0  0  0  0  0  0  0  0
    0.2399  -15.4697   -1.0956 C   0  0  0  0  0  0  0  0  0  0  0  0
    2.8362  -14.4488   -1.5627 C   0  0  0  0  0  0  0  0  0  0  0  0
    4.0968  -13.8734   -1.8121 C   0  0  0  0  0  0  0  0  0  0  0  0
    5.1375  -14.7455   -1.8290 O   0  0  0  0  0  0  0  0  0  0  0  0
    6.4349  -14.2666   -2.1071 C   0  0  0  0  0  0  0  0  0  0  0  0
    4.2218  -12.4960   -2.0207 C   0  0  0  0  0  0  0  0  0  0  0  0
    3.7374   -9.6236   -3.3990 C   0  0  0  0  0  0  0  0  0  0  0  0
    4.2194  -10.3617   -4.5831 C   0  0  0  0  0  0  0  0  0  0  0  0
    3.4185  -11.3757   -5.1368 C   0  0  0  0  0  0  0  0  0  0  0  0
    3.8450  -12.1080   -6.2454 C   0  0  0  0  0  0  0  0  0  0  0  0
    5.0973  -11.8803   -6.8390 C   0  0  0  0  0  0  0  0  0  0  0  0
    5.6046  -12.6714   -8.0592 C   0  0  1  0  0  0  0  0  0  0  0  0
    4.5896  -13.7273   -8.5328 C   0  0  0  0  0  0  0  0  0  0  0  0
    5.8675  -11.6936   -9.2285 C   0  0  0  0  0  0  0  0  0  0  0  0
    6.9199  -13.3966   -7.6907 C   0  0  0  0  0  0  0  0  0  0  0  0
    5.8969  -10.8720   -6.2684 C   0  0  0  0  0  0  0  0  0  0  0  0
    5.4745  -10.1217   -5.1737 C   0  0  0  0  0  0  0  0  0  0  0  0
    3.6951   -8.2740   -3.2989 N   0  0  0  0  0  0  0  0  0  0  0  0
    4.1197   -7.1963   -4.3638 B   0  0  2  0  0  0  0  0  0  0  0  0
    3.3733   -7.4081   -5.5181 F   0  0  0  0  0  0  0  0  0  0  0  0
    5.4828   -7.2498   -4.6118 F   0  0  0  0  0  0  0  0  0  0  0  0
    3.7804   -5.8020   -3.7217 N   0  0  0  0  0  0  0  0  0  0  0  0
    4.1223   -4.5510   -4.1282 C   0  0  0  0  0  0  0  0  0  0  0  0
    4.8713   -4.2440   -5.3578 C   0  0  0  0  0  0  0  0  0  0  0  0
    4.6126   -4.8872   -6.5815 C   0  0  0  0  0  0  0  0  0  0  0  0
    5.3181   -4.5434   -7.7359 C   0  0  0  0  0  0  0  0  0  0  0  0
    6.3178   -3.5579   -7.7301 C   0  0  0  0  0  0  0  0  0  0  0  0
    7.1187   -3.1641   -8.9848 C   0  0  1  0  0  0  0  0  0  0  0  0
    6.6879   -3.9652  -10.2266 C   0  0  0  0  0  0  0  0  0  0  0  0
    6.9045   -1.6611   -9.2800 C   0  0  0  0  0  0  0  0  0  0  0  0
    8.6220   -3.4296   -8.7357 C   0  0  0  0  0  0  0  0  0  0  0  0
    6.5748   -2.9233   -6.4995 C   0  0  0  0  0  0  0  0  0  0  0  0
    5.8688   -3.2467   -5.3456 C   0  0  0  0  0  0  0  0  0  0  0  0
    2.8488   -1.4427   -4.2176 C   0  0  0  0  0  0  0  0  0  0  0  0
    0.7064    0.8124   -6.5876 H   0  0  0  0  0  0  0  0  0  0  0  0
    0.4463   -0.5165   -5.4141 H   0  0  0  0  0  0  0  0  0  0  0  0
    1.6974   -0.6776   -6.6921 H   0  0  0  0  0  0  0  0  0  0  0  0
    3.8782    1.7687   -3.6517 H   0  0  0  0  0  0  0  0  0  0  0  0
    5.9981   -0.3520   -0.2798 H   0  0  0  0  0  0  0  0  0  0  0  0
    7.0656    1.0311   -0.6717 H   0  0  0  0  0  0  0  0  0  0  0  0
    7.1524   -0.4695   -1.6481 H   0  0  0  0  0  0  0  0  0  0  0  0
    5.2760   -1.9175   -1.8658 H   0  0  0  0  0  0  0  0  0  0  0  0
    3.4901   -2.4894   -0.2369 H   0  0  0  0  0  0  0  0  0  0  0  0
    3.2504   -0.2322    2.6051 H   0  0  0  0  0  0  0  0  0  0  0  0
    3.4773   -0.4014    0.8345 H   0  0  0  0  0  0  0  0  0  0  0  0
    3.9650   -1.7338    1.9386 H   0  0  0  0  0  0  0  0  0  0  0  0
   -1.8823   -1.0115    2.4976 H   0  0  0  0  0  0  0  0  0  0  0  0
   -1.8630   -1.1725    0.7121 H   0  0  0  0  0  0  0  0  0  0  0  0
   -0.5020   -0.3538    1.5610 H   0  0  0  0  0  0  0  0  0  0  0  0
   -3.1277   -5.0209   -0.8392 H   0  0  0  0  0  0  0  0  0  0  0  0
   -1.6029   -5.9130   -1.1278 H   0  0  0  0  0  0  0  0  0  0  0  0
   -1.9666   -4.4326   -2.0746 H   0  0  0  0  0  0  0  0  0  0  0  0
    0.3674   -4.9620   -1.8581 H   0  0  0  0  0  0  0  0  0  0  0  0
    1.1692   -7.4650    0.0209 H   0  0  0  0  0  0  0  0  0  0  0  0
   -0.7536   -5.8327    2.6522 H   0  0  0  0  0  0  0  0  0  0  0  0
   -0.7970   -6.6674    1.0699 H   0  0  0  0  0  0  0  0  0  0  0  0
    0.6803   -5.7907    1.5821 H   0  0  0  0  0  0  0  0  0  0  0  0
    0.0819  -10.3797    5.5034 H   0  0  0  0  0  0  0  0  0  0  0  0
    0.4905  -11.4980    4.1625 H   0  0  0  0  0  0  0  0  0  0  0  0
   -0.7192  -10.1873    3.9116 H   0  0  0  0  0  0  0  0  0  0  0  0
    3.9222  -13.1286    3.3394 H   0  0  0  0  0  0  0  0  0  0  0  0
    4.6979  -11.9978    2.1863 H   0  0  0  0  0  0  0  0  0  0  0  0
    3.3009  -12.9939    1.6616 H   0  0  0  0  0  0  0  0  0  0  0  0
    3.5049  -11.0643    0.3993 H   0  0  0  0  0  0  0  0  0  0  0  0
    0.9176  -11.6354   -1.7146 H   0  0  0  0  0  0  0  0  0  0  0  0
   -0.8392  -15.6063   -0.9426 H   0  0  0  0  0  0  0  0  0  0  0  0
    0.7764  -15.8300   -0.1991 H   0  0  0  0  0  0  0  0  0  0  0  0
    0.5577  -16.0749   -1.9639 H   0  0  0  0  0  0  0  0  0  0  0  0
    2.7923  -15.5260   -1.4104 H   0  0  0  0  0  0  0  0  0  0  0  0
    7.1006  -15.1402   -2.0891 H   0  0  0  0  0  0  0  0  0  0  0  0
    6.7778  -13.5412   -1.3473 H   0  0  0  0  0  0  0  0  0  0  0  0
    6.4928  -13.7902   -3.1019 H   0  0  0  0  0  0  0  0  0  0  0  0
    5.1908  -12.0397   -2.2139 H   0  0  0  0  0  0  0  0  0  0  0  0
    2.4385  -11.5856   -4.7056 H   0  0  0  0  0  0  0  0  0  0  0  0
    3.1753  -12.8703   -6.6433 H   0  0  0  0  0  0  0  0  0  0  0  0
    3.6356  -13.2713   -8.8405 H   0  0  0  0  0  0  0  0  0  0  0  0
    4.3763  -14.4728   -7.7509 H   0  0  0  0  0  0  0  0  0  0  0  0
    4.9930  -14.2678   -9.4037 H   0  0  0  0  0  0  0  0  0  0  0  0
    4.9453  -11.1633   -9.5140 H   0  0  0  0  0  0  0  0  0  0  0  0
    6.2343  -12.2413  -10.1124 H   0  0  0  0  0  0  0  0  0  0  0  0
    6.6215  -10.9354   -8.9685 H   0  0  0  0  0  0  0  0  0  0  0  0
    6.7608  -14.1062   -6.8629 H   0  0  0  0  0  0  0  0  0  0  0  0
    7.7060  -12.6911   -7.3819 H   0  0  0  0  0  0  0  0  0  0  0  0
    7.3018  -13.9638   -8.5557 H   0  0  0  0  0  0  0  0  0  0  0  0
    6.8810  -10.6539   -6.6897 H   0  0  0  0  0  0  0  0  0  0  0  0
    6.1192   -9.3404   -4.7756 H   0  0  0  0  0  0  0  0  0  0  0  0
    3.8524   -5.6644   -6.6343 H   0  0  0  0  0  0  0  0  0  0  0  0
    5.0702   -5.0710   -8.6570 H   0  0  0  0  0  0  0  0  0  0  0  0
    5.6278   -3.8000  -10.4751 H   0  0  0  0  0  0  0  0  0  0  0  0
    6.8430   -5.0471  -10.0922 H   0  0  0  0  0  0  0  0  0  0  0  0
    7.2844   -3.6513  -11.0978 H   0  0  0  0  0  0  0  0  0  0  0  0
    5.8409   -1.4429   -9.4664 H   0  0  0  0  0  0  0  0  0  0  0  0
    7.4757   -1.3598  -10.1736 H   0  0  0  0  0  0  0  0  0  0  0  0
    7.2344   -1.0260   -8.4439 H   0  0  0  0  0  0  0  0  0  0  0  0
    8.8048   -4.4951   -8.5242 H   0  0  0  0  0  0  0  0  0  0  0  0
    9.0065   -2.8486   -7.8837 H   0  0  0  0  0  0  0  0  0  0  0  0
    9.2135   -3.1513   -9.6236 H   0  0  0  0  0  0  0  0  0  0  0  0
    7.3472   -2.1537   -6.4329 H   0  0  0  0  0  0  0  0  0  0  0  0
    6.1075   -2.7317   -4.4154 H   0  0  0  0  0  0  0  0  0  0  0  0
    2.1468   -2.0257   -4.8110 H   0  0  0  0  0  0  0  0  0  0  0  0
  1  2  1  0
  1 79  1  0
  1 80  1  0
  1 81  1  0
  2  3  1  0
  3  4  2  0
  3 78  1  0
  4  5  1  0
  4 82  1  0
  5  6  1  0
  5  8  2  0
  6  7  1  0
  7 83  1  0
  7 84  1  0
  7 85  1  0
  8  9  1  0
  8 86  1  0
  9 10  1  0
  9 78  2  0
 10 11  2  0
 10 67  1  0
 11 12  1  0
 11 24  1  0
 12 13  2  0
 12 23  1  0
 13 14  1  0
 13 87  1  0
 14 15  1  0
 14 17  2  0
 15 16  1  0
 16 88  1  0
 16 89  1  0
 16 90  1  0
 17 18  1  0
 17 20  1  0
 18 19  1  0
 19 91  1  0
 19 92  1  0
 19 93  1  0
 20 21  1  0
 20 23  2  0
 21 22  1  0
 22 94  1  0
 22 95  1  0
 22 96  1  0
 23 97  1  0
 24 25  2  0
 24 66  1  0
 25 26  1  0
 26 27  2  0
 26 62  1  0
 27 28  1  0
 27 40  1  0
 28 29  2  0
 28 39  1  0
 29 30  1  0
 29 98  1  0
 30 31  1  0
 30 33  2  0
 31 32  1  0
 32 99  1  0
 32100  1  0
 32101  1  0
 33 34  1  0
 33 36  1  0
 34 35  1  0
 35102  1  0
 35103  1  0
 35104  1  0
 36 37  1  0
 36 39  2  0
 37 38  1  0
 38105  1  0
 38106  1  0
 38107  1  0
 39108  1  0
 40 41  1  0
 40 51  2  0
 41 42  2  0
 41 50  1  0
 42 43  1  0
 42109  1  0
 43 44  1  0
 43 46  2  0
 44 45  1  0
 45110  1  0
 45111  1  0
 45112  1  0
 46 47  1  0
 46113  1  0
 47 48  1  0
 47 50  2  0
 48 49  1  0
 49114  1  0
 49115  1  0
 49116  1  0
 50117  1  0
 51 52  1  0
 51 62  1  0
 52 53  2  0
 52 61  1  0
 53 54  1  0
 53118  1  0
 54 55  2  0
 54119  1  0
 55 56  1  0
 55 60  1  0
 56 57  1  6
 56 58  1  0
 56 59  1  0
 57120  1  0
 57121  1  0
 57122  1  0
 58123  1  0
 58124  1  0
 58125  1  0
 59126  1  0
 59127  1  0
 59128  1  0
 60 61  2  0
 60129  1  0
 61130  1  0
 62 63  1  0
 63 64  1  6
 63 65  1  0
 63 66  1  0
 66 67  2  0
 67 68  1  0
 68 69  2  0
 68 77  1  0
 69 70  1  0
 69131  1  0
 70 71  2  0
 70132  1  0
 71 72  1  0
 71 76  1  0
 72 73  1  6
 72 74  1  0
 72 75  1  0
 73133  1  0
 73134  1  0
 73135  1  0
 74136  1  0
 74137  1  0
 74138  1  0
 75139  1  0
 75140  1  0
 75141  1  0
 76 77  2  0
 76142  1  0
 77143  1  0
 78144  1  0
M  CHG  2  63  -1  66   1
M  END

