
     RDKit          3D

 58 60  0  0  0  0  0  0  0  0999 V2000
    0.4928   -0.1673    2.8519 C   0  0  0  0  0  0  0  0  0  0  0  0
    2.0073   -0.3511    2.7370 C   0  0  0  0  0  0  0  0  0  0  0  0
    2.6357    0.4936    1.6223 C   0  0  0  0  0  0  0  0  0  0  0  0
    4.1729    0.4013    1.5187 C   0  0  1  0  0  0  0  0  0  0  0  0
    4.6870   -0.9863    1.0748 C   0  0  0  0  0  0  0  0  0  0  0  0
    4.4676   -1.2669   -0.4212 C   0  0  0  0  0  0  0  0  0  0  0  0
    5.0771   -0.1845   -1.3459 C   0  0  2  0  0  0  0  0  0  0  0  0
    6.6346   -0.2635   -1.4091 C   0  0  1  0  0  0  0  0  0  0  0  0
    7.1337   -1.5452   -2.1203 C   0  0  0  0  0  0  0  0  0  0  0  0
    6.9318   -1.5151   -3.6444 C   0  0  0  0  0  0  0  0  0  0  0  0
    7.5715   -0.2830   -4.3218 C   0  0  2  0  0  0  0  0  0  0  0  0
    9.1101   -0.3505   -4.4169 C   0  0  0  0  0  0  0  0  0  0  0  0
    9.6443   -1.4532   -5.3513 C   0  0  0  0  0  0  0  0  0  0  0  0
   11.1491   -1.4469   -5.4808 C   0  0  0  0  0  0  0  0  0  0  0  0
   11.9564   -2.3088   -4.7283 C   0  0  0  0  0  0  0  0  0  0  0  0
   13.2938   -2.3135   -4.7881 N   0  0  0  0  0  0  0  0  0  0  0  0
   13.8929   -1.4743   -5.5877 C   0  0  0  0  0  0  0  0  0  0  0  0
   15.2239   -1.4887   -5.6400 F   0  0  0  0  0  0  0  0  0  0  0  0
   13.1963   -0.5620   -6.3960 C   0  0  0  0  0  0  0  0  0  0  0  0
   13.8627    0.2672   -7.2010 F   0  0  0  0  0  0  0  0  0  0  0  0
   11.8121   -0.5496   -6.3385 C   0  0  0  0  0  0  0  0  0  0  0  0
    7.0962    0.9980   -3.6016 C   0  0  0  0  0  0  0  0  0  0  0  0
    7.3187    0.9475   -2.0827 C   0  0  0  0  0  0  0  0  0  0  0  0
    4.5159    1.1854   -0.9019 C   0  0  0  0  0  0  0  0  0  0  0  0
    4.7596    1.4827    0.5851 C   0  0  0  0  0  0  0  0  0  0  0  0
    0.0697   -0.7833    3.6615 H   0  0  0  0  0  0  0  0  0  0  0  0
   -0.0180   -0.4520    1.9165 H   0  0  0  0  0  0  0  0  0  0  0  0
    0.2304    0.8834    3.0614 H   0  0  0  0  0  0  0  0  0  0  0  0
    2.2293   -1.4198    2.5720 H   0  0  0  0  0  0  0  0  0  0  0  0
    2.4840   -0.0912    3.7001 H   0  0  0  0  0  0  0  0  0  0  0  0
    2.3663    1.5520    1.7942 H   0  0  0  0  0  0  0  0  0  0  0  0
    2.1642    0.2235    0.6606 H   0  0  0  0  0  0  0  0  0  0  0  0
    4.5646    0.5927    2.5347 H   0  0  0  0  0  0  0  0  0  0  0  0
    4.2146   -1.7829    1.6726 H   0  0  0  0  0  0  0  0  0  0  0  0
    5.7647   -1.0484    1.3053 H   0  0  0  0  0  0  0  0  0  0  0  0
    3.3843   -1.3232   -0.6261 H   0  0  0  0  0  0  0  0  0  0  0  0
    4.8635   -2.2647   -0.6689 H   0  0  0  0  0  0  0  0  0  0  0  0
    4.6933   -0.3720   -2.3633 H   0  0  0  0  0  0  0  0  0  0  0  0
    7.0067   -0.3025   -0.3714 H   0  0  0  0  0  0  0  0  0  0  0  0
    6.6456   -2.4408   -1.7048 H   0  0  0  0  0  0  0  0  0  0  0  0
    8.2080   -1.6674   -1.8962 H   0  0  0  0  0  0  0  0  0  0  0  0
    5.8519   -1.5120   -3.8713 H   0  0  0  0  0  0  0  0  0  0  0  0
    7.3179   -2.4481   -4.0877 H   0  0  0  0  0  0  0  0  0  0  0  0
    7.1967   -0.2394   -5.3612 H   0  0  0  0  0  0  0  0  0  0  0  0
    9.5622   -0.4832   -3.4196 H   0  0  0  0  0  0  0  0  0  0  0  0
    9.4796    0.6243   -4.7816 H   0  0  0  0  0  0  0  0  0  0  0  0
    9.1904   -1.3302   -6.3501 H   0  0  0  0  0  0  0  0  0  0  0  0
    9.3254   -2.4422   -4.9860 H   0  0  0  0  0  0  0  0  0  0  0  0
   11.4980   -3.0353   -4.0477 H   0  0  0  0  0  0  0  0  0  0  0  0
   11.2646    0.1560   -6.9687 H   0  0  0  0  0  0  0  0  0  0  0  0
    6.0217    1.1427   -3.8104 H   0  0  0  0  0  0  0  0  0  0  0  0
    7.6084    1.8782   -4.0273 H   0  0  0  0  0  0  0  0  0  0  0  0
    6.9928    1.8934   -1.6241 H   0  0  0  0  0  0  0  0  0  0  0  0
    8.4017    0.8841   -1.8773 H   0  0  0  0  0  0  0  0  0  0  0  0
    3.4294    1.1858   -1.0971 H   0  0  0  0  0  0  0  0  0  0  0  0
    4.9213    2.0006   -1.5209 H   0  0  0  0  0  0  0  0  0  0  0  0
    4.3365    2.4687    0.8440 H   0  0  0  0  0  0  0  0  0  0  0  0
    5.8456    1.5615    0.7696 H   0  0  0  0  0  0  0  0  0  0  0  0
  1  2  1  0
  1 26  1  0
  1 27  1  0
  1 28  1  0
  2  3  1  0
  2 29  1  0
  2 30  1  0
  3  4  1  0
  3 31  1  0
  3 32  1  0
  4  5  1  0
  4 25  1  0
  4 33  1  1
  5  6  1  0
  5 34  1  0
  5 35  1  0
  6  7  1  0
  6 36  1  0
  6 37  1  0
  7  8  1  0
  7 24  1  0
  7 38  1  6
  8  9  1  0
  8 23  1  0
  8 39  1  1
  9 10  1  0
  9 40  1  0
  9 41  1  0
 10 11  1  0
 10 42  1  0
 10 43  1  0
 11 12  1  0
 11 22  1  0
 11 44  1  6
 12 13  1  0
 12 45  1  0
 12 46  1  0
 13 14  1  0
 13 47  1  0
 13 48  1  0
 14 15  2  0
 14 21  1  0
 15 16  1  0
 15 49  1  0
 16 17  2  0
 17 18  1  0
 17 19  1  0
 19 20  1  0
 19 21  2  0
 21 50  1  0
 22 23  1  0
 22 51  1  0
 22 52  1  0
 23 53  1  0
 23 54  1  0
 24 25  1  0
 24 55  1  0
 24 56  1  0
 25 57  1  0
 25 58  1  0
M  END

