
     RDKit          3D

 39 40  0  0  0  0  0  0  0  0999 V2000
    6.4632    4.3012   -1.5649 N   0  0  0  0  0  0  0  0  0  0  0  0
    5.9155    5.1786   -0.5369 C   0  0  0  0  0  0  0  0  0  0  0  0
    5.3325    4.4196    0.6598 C   0  0  0  0  0  0  0  0  0  0  0  0
    4.6125    4.9750    1.4803 O   0  0  0  0  0  0  0  0  0  0  0  0
    5.7308    3.1253    0.7391 N   0  0  0  0  0  0  0  0  0  0  0  0
    5.3094    2.2110    1.7783 C   0  0  0  0  0  0  0  0  0  0  0  0
    6.4854    1.6830    2.6188 C   0  0  0  0  0  0  0  0  0  0  0  0
    6.8804    0.5395    2.4452 O   0  0  0  0  0  0  0  0  0  0  0  0
    7.0679    2.5273    3.5381 N   0  0  0  0  0  0  0  0  0  0  0  0
    6.7266    3.9332    3.7432 C   0  0  0  0  0  0  0  0  0  0  0  0
    7.8672    4.8606    3.3685 C   0  0  0  0  0  0  0  0  0  0  0  0
    7.6003    6.2069    3.0739 C   0  0  0  0  0  0  0  0  0  0  0  0
    8.6382    7.0895    2.7725 C   0  0  0  0  0  0  0  0  0  0  0  0
    9.9590    6.6262    2.7620 C   0  0  0  0  0  0  0  0  0  0  0  0
   10.2256    5.2869    3.0458 C   0  0  0  0  0  0  0  0  0  0  0  0
    9.1909    4.3875    3.3510 C   0  0  0  0  0  0  0  0  0  0  0  0
    9.5077    2.9277    3.6115 C   0  0  0  0  0  0  0  0  0  0  0  0
    8.3280    2.1149    4.1614 C   0  0  1  0  0  0  0  0  0  0  0  0
    8.4615    1.0567    3.8902 H   0  0  0  0  0  0  0  0  0  0  0  0
    8.2737    2.1355    5.7059 C   0  0  0  0  0  0  0  0  0  0  0  0
    7.0573    1.8429    6.2430 N   0  0  0  0  0  0  0  0  0  0  0  0
    9.2639    2.3464    6.3808 O   0  0  0  0  0  0  0  0  0  0  0  0
    7.2266    4.7454   -2.0705 H   0  0  0  0  0  0  0  0  0  0  0  0
    5.7558    4.0483   -2.2540 H   0  0  0  0  0  0  0  0  0  0  0  0
    5.1299    5.8784   -0.8764 H   0  0  0  0  0  0  0  0  0  0  0  0
    6.7242    5.8027   -0.1214 H   0  0  0  0  0  0  0  0  0  0  0  0
    6.3242    2.8102   -0.0281 H   0  0  0  0  0  0  0  0  0  0  0  0
    4.8520    1.3125    1.3380 H   0  0  0  0  0  0  0  0  0  0  0  0
    4.5532    2.7286    2.3856 H   0  0  0  0  0  0  0  0  0  0  0  0
    6.4819    4.0775    4.8125 H   0  0  0  0  0  0  0  0  0  0  0  0
    5.8236    4.2056    3.1845 H   0  0  0  0  0  0  0  0  0  0  0  0
    6.5636    6.5555    3.0698 H   0  0  0  0  0  0  0  0  0  0  0  0
    8.4184    8.1360    2.5457 H   0  0  0  0  0  0  0  0  0  0  0  0
   10.7805    7.3098    2.5324 H   0  0  0  0  0  0  0  0  0  0  0  0
   11.2579    4.9244    3.0355 H   0  0  0  0  0  0  0  0  0  0  0  0
   10.3420    2.8407    4.3231 H   0  0  0  0  0  0  0  0  0  0  0  0
    9.8393    2.4643    2.6661 H   0  0  0  0  0  0  0  0  0  0  0  0
    6.9874    1.7420    7.2485 H   0  0  0  0  0  0  0  0  0  0  0  0
    6.2673    1.6014    5.6600 H   0  0  0  0  0  0  0  0  0  0  0  0
  1  2  1  0
  1 23  1  0
  1 24  1  0
  2  3  1  0
  2 25  1  0
  2 26  1  0
  3  4  2  0
  3  5  1  0
  5  6  1  0
  5 27  1  0
  6  7  1  0
  6 28  1  0
  6 29  1  0
  7  8  2  0
  7  9  1  0
  9 10  1  0
  9 18  1  0
 10 11  1  0
 10 30  1  0
 10 31  1  0
 11 12  1  0
 11 16  2  0
 12 13  2  0
 12 32  1  0
 13 14  1  0
 13 33  1  0
 14 15  2  0
 14 34  1  0
 15 16  1  0
 15 35  1  0
 16 17  1  0
 17 18  1  0
 17 36  1  0
 17 37  1  0
 18 19  1  1
 18 20  1  0
 20 21  1  0
 20 22  2  0
 21 38  1  0
 21 39  1  0
M  END

