
     RDKit          3D

 32 34  0  0  0  0  0  0  0  0999 V2000
    3.3308   -3.1224   -0.0017 C   0  0  0  0  0  0  0  0  0  0  0  0
    3.4687   -1.6546   -0.2742 C   0  0  0  0  0  0  0  0  0  0  0  0
    4.6005   -0.8788   -0.2351 C   0  0  0  0  0  0  0  0  0  0  0  0
    4.3778    0.5071   -0.5417 C   0  0  0  0  0  0  0  0  0  0  0  0
    5.5199    1.5096   -0.6414 C   0  0  1  0  0  0  0  0  0  0  0  0
    6.1548    1.5649   -1.9804 N   0  0  0  0  0  0  0  0  0  0  0  0
    5.3136    1.7605   -3.0920 N   0  0  0  0  0  0  0  0  0  0  0  0
    5.1669    2.8889   -0.1691 C   0  0  0  0  0  0  0  0  0  0  0  0
    5.5966    3.6272    0.8927 C   0  0  0  0  0  0  0  0  0  0  0  0
    4.9120    4.8970    0.8222 C   0  0  0  0  0  0  0  0  0  0  0  0
    4.8946    6.0790    1.5822 C   0  0  0  0  0  0  0  0  0  0  0  0
    4.0664    7.1209    1.1675 C   0  0  0  0  0  0  0  0  0  0  0  0
    3.2583    7.0131    0.0185 C   0  0  0  0  0  0  0  0  0  0  0  0
    3.2678    5.8443   -0.7442 C   0  0  0  0  0  0  0  0  0  0  0  0
    2.1937    5.6543   -2.2995 Br  0  0  0  0  0  0  0  0  0  0  0  0
    4.0977    4.8057   -0.3267 C   0  0  0  0  0  0  0  0  0  0  0  0
    4.2538    3.5941   -0.9216 O   0  0  0  0  0  0  0  0  0  0  0  0
    3.0533    0.7556   -0.8227 C   0  0  0  0  0  0  0  0  0  0  0  0
    2.0872   -0.6772   -0.6989 S   0  0  0  0  0  0  0  0  0  0  0  0
    4.3130   -3.5530    0.2433 H   0  0  0  0  0  0  0  0  0  0  0  0
    2.9320   -3.6667   -0.8739 H   0  0  0  0  0  0  0  0  0  0  0  0
    2.6541   -3.3223    0.8459 H   0  0  0  0  0  0  0  0  0  0  0  0
    5.5830   -1.2876    0.0149 H   0  0  0  0  0  0  0  0  0  0  0  0
    6.3178    1.1697    0.0374 H   0  0  0  0  0  0  0  0  0  0  0  0
    6.6874    0.7102   -2.1321 H   0  0  0  0  0  0  0  0  0  0  0  0
    5.0823    2.7507   -3.1544 H   0  0  0  0  0  0  0  0  0  0  0  0
    4.4274    1.2499   -2.9959 H   0  0  0  0  0  0  0  0  0  0  0  0
    6.3202    3.3079    1.6394 H   0  0  0  0  0  0  0  0  0  0  0  0
    5.5146    6.1798    2.4756 H   0  0  0  0  0  0  0  0  0  0  0  0
    4.0360    8.0498    1.7422 H   0  0  0  0  0  0  0  0  0  0  0  0
    2.6181    7.8436   -0.2832 H   0  0  0  0  0  0  0  0  0  0  0  0
    2.5890    1.7090   -1.0672 H   0  0  0  0  0  0  0  0  0  0  0  0
  1  2  1  0
  1 20  1  0
  1 21  1  0
  1 22  1  0
  2  3  2  0
  2 19  1  0
  3  4  1  0
  3 23  1  0
  4  5  1  0
  4 18  2  0
  5  6  1  0
  5  8  1  0
  5 24  1  1
  6  7  1  0
  6 25  1  0
  7 26  1  0
  7 27  1  0
  8  9  2  0
  8 17  1  0
  9 10  1  0
  9 28  1  0
 10 11  2  0
 10 16  1  0
 11 12  1  0
 11 29  1  0
 12 13  2  0
 12 30  1  0
 13 14  1  0
 13 31  1  0
 14 15  1  0
 14 16  2  0
 16 17  1  0
 18 19  1  0
 18 32  1  0
M  END

