
     RDKit          3D

 69 71  0  0  0  0  0  0  0  0999 V2000
    2.0918   -5.7037   -5.6523 C   0  0  0  0  0  0  0  0  0  0  0  0
    1.6141   -5.5807   -4.2154 C   0  0  0  0  0  0  0  0  0  0  0  0
    2.7167   -5.5417   -3.2867 O   0  0  0  0  0  0  0  0  0  0  0  0
    3.2945   -4.3543   -3.0532 C   0  0  0  0  0  0  0  0  0  0  0  0
    2.9503   -3.3277   -3.5909 O   0  0  0  0  0  0  0  0  0  0  0  0
    4.4687   -4.4263   -2.0774 C   0  0  1  0  0  0  0  0  0  0  0  0
    4.4001   -3.2360   -1.1013 C   0  0  1  0  0  0  0  0  0  0  0  0
    3.0462   -3.1917   -0.5722 O   0  0  0  0  0  0  0  0  0  0  0  0
    2.4746   -1.7491   -0.0332 S   0  0  1  0  0  0  0  0  0  0  0  0
    2.4816   -1.7729    1.4282 O   0  0  0  0  0  0  0  0  0  0  0  0
    3.1620   -0.6765   -0.7519 O   0  0  0  0  0  0  0  0  0  0  0  0
    0.7865   -1.8770   -0.6042 C   0  0  0  0  0  0  0  0  0  0  0  0
    0.5061   -1.7283   -1.9657 C   0  0  0  0  0  0  0  0  0  0  0  0
   -0.8305   -1.8004   -2.3617 C   0  0  0  0  0  0  0  0  0  0  0  0
   -1.8586   -2.0079   -1.4368 C   0  0  0  0  0  0  0  0  0  0  0  0
   -1.5531   -2.1501   -0.0707 C   0  0  0  0  0  0  0  0  0  0  0  0
   -2.5293   -2.3532    0.9178 N   0  0  0  0  0  0  0  0  0  0  0  0
   -3.8892   -2.4532    0.7849 C   0  0  0  0  0  0  0  0  0  0  0  0
   -4.5144   -2.3953   -0.2570 O   0  0  0  0  0  0  0  0  0  0  0  0
   -4.6046   -2.7111    2.1210 C   0  0  0  0  0  0  0  0  0  0  0  0
   -3.8281   -2.4310    3.2621 O   0  0  0  0  0  0  0  0  0  0  0  0
   -3.9066   -1.0927    3.7232 C   0  0  0  0  0  0  0  0  0  0  0  0
   -3.0307   -0.9699    4.9585 C   0  0  0  0  0  0  0  0  0  0  0  0
   -3.1360    0.3484    5.4283 O   0  0  0  0  0  0  0  0  0  0  0  0
   -2.3488    0.6292    6.5643 C   0  0  0  0  0  0  0  0  0  0  0  0
   -2.6150    2.0568    7.0076 C   0  0  0  0  0  0  0  0  0  0  0  0
   -4.3291    2.3481    7.5939 S   0  0  0  0  0  0  0  0  0  0  0  0
   -0.2115   -2.0830    0.3438 C   0  0  0  0  0  0  0  0  0  0  0  0
    5.4341   -3.3543    0.0284 C   0  0  0  0  0  0  0  0  0  0  0  0
    5.6458   -4.8187    0.4948 C   0  0  2  0  0  0  0  0  0  0  0  0
    6.8511   -5.5162   -0.2178 C   0  0  0  0  0  0  0  0  0  0  0  0
    6.1995   -6.2224   -1.4352 C   0  0  0  0  0  0  0  0  0  0  0  0
    4.7061   -5.7829   -1.3459 C   0  0  1  0  0  0  0  0  0  0  0  0
    4.4650   -5.5899    0.0867 N   0  0  0  0  0  0  0  0  0  0  0  0
    4.2131   -6.8009    0.8423 C   0  0  0  0  0  0  0  0  0  0  0  0
    1.2258   -5.8113   -6.3250 H   0  0  0  0  0  0  0  0  0  0  0  0
    2.7368   -6.5872   -5.7801 H   0  0  0  0  0  0  0  0  0  0  0  0
    2.6513   -4.8071   -5.9567 H   0  0  0  0  0  0  0  0  0  0  0  0
    1.0290   -6.4602   -3.9107 H   0  0  0  0  0  0  0  0  0  0  0  0
    1.0031   -4.6774   -4.0762 H   0  0  0  0  0  0  0  0  0  0  0  0
    5.3417   -4.2172   -2.7214 H   0  0  0  0  0  0  0  0  0  0  0  0
    4.5508   -2.3037   -1.6611 H   0  0  0  0  0  0  0  0  0  0  0  0
    1.3111   -1.5794   -2.6861 H   0  0  0  0  0  0  0  0  0  0  0  0
   -1.0844   -1.6890   -3.4188 H   0  0  0  0  0  0  0  0  0  0  0  0
   -2.8983   -2.0604   -1.7530 H   0  0  0  0  0  0  0  0  0  0  0  0
   -2.2013   -2.4542    1.8753 H   0  0  0  0  0  0  0  0  0  0  0  0
   -4.8657   -3.7827    2.1495 H   0  0  0  0  0  0  0  0  0  0  0  0
   -5.5504   -2.1421    2.1027 H   0  0  0  0  0  0  0  0  0  0  0  0
   -4.9504   -0.8324    3.9820 H   0  0  0  0  0  0  0  0  0  0  0  0
   -3.5662   -0.3753    2.9518 H   0  0  0  0  0  0  0  0  0  0  0  0
   -1.9810   -1.2228    4.7009 H   0  0  0  0  0  0  0  0  0  0  0  0
   -3.3631   -1.7032    5.7210 H   0  0  0  0  0  0  0  0  0  0  0  0
   -1.2709    0.5129    6.3216 H   0  0  0  0  0  0  0  0  0  0  0  0
   -2.5856   -0.0753    7.3867 H   0  0  0  0  0  0  0  0  0  0  0  0
   -2.3761    2.7549    6.1904 H   0  0  0  0  0  0  0  0  0  0  0  0
   -1.9659    2.3045    7.8609 H   0  0  0  0  0  0  0  0  0  0  0  0
   -4.9221    1.9259    6.4545 H   0  0  0  0  0  0  0  0  0  0  0  0
    0.0640   -2.1829    1.3957 H   0  0  0  0  0  0  0  0  0  0  0  0
    5.0856   -2.7316    0.8645 H   0  0  0  0  0  0  0  0  0  0  0  0
    6.3850   -2.9153   -0.3148 H   0  0  0  0  0  0  0  0  0  0  0  0
    5.7525   -4.8428    1.5887 H   0  0  0  0  0  0  0  0  0  0  0  0
    7.3244   -6.2478    0.4544 H   0  0  0  0  0  0  0  0  0  0  0  0
    7.6349   -4.7986   -0.5041 H   0  0  0  0  0  0  0  0  0  0  0  0
    6.2743   -7.3164   -1.3407 H   0  0  0  0  0  0  0  0  0  0  0  0
    6.6648   -5.9570   -2.3969 H   0  0  0  0  0  0  0  0  0  0  0  0
    4.0226   -6.5383   -1.7484 H   0  0  0  0  0  0  0  0  0  0  0  0
    4.0208   -6.5437    1.8959 H   0  0  0  0  0  0  0  0  0  0  0  0
    5.0381   -7.5482    0.8257 H   0  0  0  0  0  0  0  0  0  0  0  0
    3.3091   -7.2963    0.4542 H   0  0  0  0  0  0  0  0  0  0  0  0
  1  2  1  0
  1 36  1  0
  1 37  1  0
  1 38  1  0
  2  3  1  0
  2 39  1  0
  2 40  1  0
  3  4  1  0
  4  5  2  0
  4  6  1  0
  6  7  1  0
  6 33  1  0
  6 41  1  6
  7  8  1  0
  7 29  1  0
  7 42  1  6
  9  8  1  6
  9 10  2  0
  9 11  2  0
  9 12  1  0
 12 13  2  0
 12 28  1  0
 13 14  1  0
 13 43  1  0
 14 15  2  0
 14 44  1  0
 15 16  1  0
 15 45  1  0
 16 17  1  0
 16 28  2  0
 17 18  1  0
 17 46  1  0
 18 19  2  0
 18 20  1  0
 20 21  1  0
 20 47  1  0
 20 48  1  0
 21 22  1  0
 22 23  1  0
 22 49  1  0
 22 50  1  0
 23 24  1  0
 23 51  1  0
 23 52  1  0
 24 25  1  0
 25 26  1  0
 25 53  1  0
 25 54  1  0
 26 27  1  0
 26 55  1  0
 26 56  1  0
 27 57  1  0
 28 58  1  0
 29 30  1  0
 29 59  1  0
 29 60  1  0
 30 31  1  0
 30 34  1  0
 30 61  1  1
 31 32  1  0
 31 62  1  0
 31 63  1  0
 32 33  1  0
 32 64  1  0
 32 65  1  0
 33 34  1  0
 33 66  1  6
 34 35  1  0
 35 67  1  0
 35 68  1  0
 35 69  1  0
M  END

