
     RDKit          3D

 59 62  0  0  0  0  0  0  0  0999 V2000
    6.9737    0.7199    3.1380 C   0  0  0  0  0  0  0  0  0  0  0  0
    5.8573    0.1115    2.3237 C   0  0  0  0  0  0  0  0  0  0  0  0
    4.5263    0.5105    2.4820 C   0  0  0  0  0  0  0  0  0  0  0  0
    3.5124   -0.0617    1.7069 C   0  0  0  0  0  0  0  0  0  0  0  0
    3.7801   -1.0495    0.7517 C   0  0  0  0  0  0  0  0  0  0  0  0
    2.6652   -1.6304   -0.0825 C   0  0  0  0  0  0  0  0  0  0  0  0
    5.1231   -1.4696    0.5865 C   0  0  0  0  0  0  0  0  0  0  0  0
    5.4955   -2.5358   -0.4283 C   0  0  0  0  0  0  0  0  0  0  0  0
    4.9705   -3.8618   -0.1027 N   0  0  0  0  0  0  0  0  0  0  0  0
    4.9915   -4.8160   -1.2069 C   0  0  0  0  0  0  0  0  0  0  0  0
    6.3658   -5.4569   -1.4747 C   0  0  0  0  0  0  0  0  0  0  0  0
    6.9809   -6.1006   -0.1975 C   0  0  2  0  0  0  0  0  0  0  0  0
    6.9116   -5.0648    0.9461 C   0  0  0  0  0  0  0  0  0  0  0  0
    5.5028   -4.4700    1.1158 C   0  0  0  0  0  0  0  0  0  0  0  0
    8.3947   -6.5990   -0.4766 C   0  0  0  0  0  0  0  0  0  0  0  0
    9.5926   -5.8774   -0.4801 C   0  0  0  0  0  0  0  0  0  0  0  0
   10.7984   -6.5443   -0.7257 C   0  0  0  0  0  0  0  0  0  0  0  0
   10.8116   -7.9254   -0.9555 C   0  0  0  0  0  0  0  0  0  0  0  0
    9.6142   -8.6492   -0.9586 C   0  0  0  0  0  0  0  0  0  0  0  0
    8.4070   -7.9798   -0.7361 C   0  0  0  0  0  0  0  0  0  0  0  0
    7.0008   -8.5524   -0.6731 C   0  0  2  0  0  0  0  0  0  0  0  0
    6.9915   -9.4952   -0.0808 H   0  0  0  0  0  0  0  0  0  0  0  0
    6.3655   -8.7751   -1.9844 N   0  0  0  0  0  0  0  0  0  0  0  0
    7.2152   -9.3545   -3.0100 C   0  0  0  0  0  0  0  0  0  0  0  0
    5.1293   -9.5292   -1.8563 C   0  0  0  0  0  0  0  0  0  0  0  0
    6.2584   -7.4549    0.1526 C   0  0  1  0  0  0  0  0  0  0  0  0
    5.1924   -7.4198   -0.1027 H   0  0  0  0  0  0  0  0  0  0  0  0
    6.2965   -7.7604    1.5335 O   0  0  0  0  0  0  0  0  0  0  0  0
    6.1250   -0.8823    1.3675 C   0  0  0  0  0  0  0  0  0  0  0  0
    6.5879    1.4266    3.8878 H   0  0  0  0  0  0  0  0  0  0  0  0
    7.6857    1.2686    2.4978 H   0  0  0  0  0  0  0  0  0  0  0  0
    7.5529   -0.0528    3.6707 H   0  0  0  0  0  0  0  0  0  0  0  0
    4.2740    1.2793    3.2182 H   0  0  0  0  0  0  0  0  0  0  0  0
    2.4802    0.2728    1.8476 H   0  0  0  0  0  0  0  0  0  0  0  0
    1.6872   -1.2325    0.2258 H   0  0  0  0  0  0  0  0  0  0  0  0
    2.6509   -2.7277   -0.0070 H   0  0  0  0  0  0  0  0  0  0  0  0
    2.7991   -1.3911   -1.1526 H   0  0  0  0  0  0  0  0  0  0  0  0
    6.5995   -2.5177   -0.5591 H   0  0  0  0  0  0  0  0  0  0  0  0
    5.0740   -2.2614   -1.4105 H   0  0  0  0  0  0  0  0  0  0  0  0
    4.6299   -4.3148   -2.1200 H   0  0  0  0  0  0  0  0  0  0  0  0
    4.2563   -5.6097   -0.9813 H   0  0  0  0  0  0  0  0  0  0  0  0
    7.0671   -4.6903   -1.8476 H   0  0  0  0  0  0  0  0  0  0  0  0
    6.2746   -6.2215   -2.2611 H   0  0  0  0  0  0  0  0  0  0  0  0
    7.6249   -4.2520    0.7271 H   0  0  0  0  0  0  0  0  0  0  0  0
    7.2356   -5.5162    1.8957 H   0  0  0  0  0  0  0  0  0  0  0  0
    5.5035   -3.7187    1.9198 H   0  0  0  0  0  0  0  0  0  0  0  0
    4.8118   -5.2692    1.4355 H   0  0  0  0  0  0  0  0  0  0  0  0
    9.5976   -4.8024   -0.2821 H   0  0  0  0  0  0  0  0  0  0  0  0
   11.7378   -5.9853   -0.7233 H   0  0  0  0  0  0  0  0  0  0  0  0
   11.7604   -8.4405   -1.1269 H   0  0  0  0  0  0  0  0  0  0  0  0
    9.6270   -9.7287   -1.1303 H   0  0  0  0  0  0  0  0  0  0  0  0
    8.0893   -8.7196   -3.2057 H   0  0  0  0  0  0  0  0  0  0  0  0
    6.6425   -9.4336   -3.9476 H   0  0  0  0  0  0  0  0  0  0  0  0
    7.5806  -10.3778   -2.7592 H   0  0  0  0  0  0  0  0  0  0  0  0
    4.4514   -9.0601   -1.1290 H   0  0  0  0  0  0  0  0  0  0  0  0
    5.2981  -10.5795   -1.5234 H   0  0  0  0  0  0  0  0  0  0  0  0
    4.6073   -9.5630   -2.8255 H   0  0  0  0  0  0  0  0  0  0  0  0
    7.2241   -7.8316    1.8013 H   0  0  0  0  0  0  0  0  0  0  0  0
    7.1594   -1.2132    1.2241 H   0  0  0  0  0  0  0  0  0  0  0  0
  1  2  1  0
  1 30  1  0
  1 31  1  0
  1 32  1  0
  2  3  2  0
  2 29  1  0
  3  4  1  0
  3 33  1  0
  4  5  2  0
  4 34  1  0
  5  6  1  0
  5  7  1  0
  6 35  1  0
  6 36  1  0
  6 37  1  0
  7  8  1  0
  7 29  2  0
  8  9  1  0
  8 38  1  0
  8 39  1  0
  9 10  1  0
  9 14  1  0
 10 11  1  0
 10 40  1  0
 10 41  1  0
 12 11  1  6
 11 42  1  0
 11 43  1  0
 12 13  1  0
 12 15  1  0
 12 26  1  0
 13 14  1  0
 13 44  1  0
 13 45  1  0
 14 46  1  0
 14 47  1  0
 15 16  2  0
 15 20  1  0
 16 17  1  0
 16 48  1  0
 17 18  2  0
 17 49  1  0
 18 19  1  0
 18 50  1  0
 19 20  2  0
 19 51  1  0
 20 21  1  0
 21 22  1  1
 21 23  1  0
 21 26  1  0
 23 24  1  0
 23 25  1  0
 24 52  1  0
 24 53  1  0
 24 54  1  0
 25 55  1  0
 25 56  1  0
 25 57  1  0
 26 27  1  6
 26 28  1  0
 28 58  1  0
 29 59  1  0
M  END

