
     RDKit          3D

 44 47  0  0  0  0  0  0  0  0999 V2000
    4.9630   -0.4071   -4.2887 C   0  0  0  0  0  0  0  0  0  0  0  0
    4.4031   -0.0525   -2.9938 N   0  0  0  0  0  0  0  0  0  0  0  0
    3.0783   -0.6026   -2.7065 C   0  0  0  0  0  0  0  0  0  0  0  0
    2.6884   -0.4879   -1.2381 C   0  0  0  0  0  0  0  0  0  0  0  0
    2.9064    0.9376   -0.7415 C   0  0  0  0  0  0  0  0  0  0  0  0
    4.3884    1.2954   -0.8882 C   0  0  2  0  0  0  0  0  0  0  0  0
    4.6953    2.6792   -0.5660 N   0  0  0  0  0  0  0  0  0  0  0  0
    4.3551    3.6810   -1.4282 C   0  0  0  0  0  0  0  0  0  0  0  0
    3.5310    3.5515   -2.3161 O   0  0  0  0  0  0  0  0  0  0  0  0
    5.0455    5.0315   -1.2185 C   0  0  0  0  0  0  0  0  0  0  0  0
    6.3774    4.9813   -0.6134 N   0  0  0  0  0  0  0  0  0  0  0  0
    7.3964    4.3230   -1.2751 C   0  0  0  0  0  0  0  0  0  0  0  0
    8.6301    4.2623   -0.8808 N   0  0  0  0  0  0  0  0  0  0  0  0
    8.8953    4.9213    0.2860 C   0  0  0  0  0  0  0  0  0  0  0  0
    7.9392    5.6034    1.0206 C   0  0  0  0  0  0  0  0  0  0  0  0
    8.4554    6.1725    2.1442 O   0  0  0  0  0  0  0  0  0  0  0  0
    9.7849    5.8552    2.1461 C   0  0  0  0  0  0  0  0  0  0  0  0
   10.7100    6.2330    3.1178 C   0  0  0  0  0  0  0  0  0  0  0  0
   12.0233    5.8012    2.9286 C   0  0  0  0  0  0  0  0  0  0  0  0
   12.3942    5.0223    1.8109 C   0  0  0  0  0  0  0  0  0  0  0  0
   11.4584    4.6526    0.8482 C   0  0  0  0  0  0  0  0  0  0  0  0
   10.1313    5.0768    1.0197 C   0  0  0  0  0  0  0  0  0  0  0  0
    6.5603    5.6993    0.6190 C   0  0  0  0  0  0  0  0  0  0  0  0
    5.6412    6.2726    1.1729 O   0  0  0  0  0  0  0  0  0  0  0  0
    5.0017    0.9423   -2.2724 C   0  0  0  0  0  0  0  0  0  0  0  0
    6.0278    1.5017   -2.6331 O   0  0  0  0  0  0  0  0  0  0  0  0
    5.0724   -1.5015   -4.3707 H   0  0  0  0  0  0  0  0  0  0  0  0
    5.9426    0.0722   -4.3935 H   0  0  0  0  0  0  0  0  0  0  0  0
    4.3075   -0.0628   -5.1090 H   0  0  0  0  0  0  0  0  0  0  0  0
    3.0779   -1.6605   -3.0196 H   0  0  0  0  0  0  0  0  0  0  0  0
    2.3261   -0.0877   -3.3365 H   0  0  0  0  0  0  0  0  0  0  0  0
    3.2886   -1.1953   -0.6381 H   0  0  0  0  0  0  0  0  0  0  0  0
    1.6352   -0.7895   -1.1246 H   0  0  0  0  0  0  0  0  0  0  0  0
    2.6059    1.0485    0.3124 H   0  0  0  0  0  0  0  0  0  0  0  0
    2.3092    1.6462   -1.3346 H   0  0  0  0  0  0  0  0  0  0  0  0
    4.9612    0.6798   -0.1728 H   0  0  0  0  0  0  0  0  0  0  0  0
    5.4853    2.8429    0.0448 H   0  0  0  0  0  0  0  0  0  0  0  0
    4.4271    5.6543   -0.5554 H   0  0  0  0  0  0  0  0  0  0  0  0
    5.0830    5.5135   -2.2056 H   0  0  0  0  0  0  0  0  0  0  0  0
    7.0917    3.7889   -2.1824 H   0  0  0  0  0  0  0  0  0  0  0  0
   10.4121    6.8357    3.9772 H   0  0  0  0  0  0  0  0  0  0  0  0
   12.7839    6.0736    3.6645 H   0  0  0  0  0  0  0  0  0  0  0  0
   13.4347    4.7071    1.7038 H   0  0  0  0  0  0  0  0  0  0  0  0
   11.7370    4.0509   -0.0192 H   0  0  0  0  0  0  0  0  0  0  0  0
  1  2  1  0
  1 27  1  0
  1 28  1  0
  1 29  1  0
  2  3  1  0
  2 25  1  0
  3  4  1  0
  3 30  1  0
  3 31  1  0
  4  5  1  0
  4 32  1  0
  4 33  1  0
  5  6  1  0
  5 34  1  0
  5 35  1  0
  6  7  1  0
  6 25  1  0
  6 36  1  1
  7  8  1  0
  7 37  1  0
  8  9  2  0
  8 10  1  0
 10 11  1  0
 10 38  1  0
 10 39  1  0
 11 12  1  0
 11 23  1  0
 12 13  2  0
 12 40  1  0
 13 14  1  0
 14 15  2  0
 14 22  1  0
 15 16  1  0
 15 23  1  0
 16 17  1  0
 17 18  1  0
 17 22  2  0
 18 19  2  0
 18 41  1  0
 19 20  1  0
 19 42  1  0
 20 21  2  0
 20 43  1  0
 21 22  1  0
 21 44  1  0
 23 24  2  0
 25 26  2  0
M  END

