
     RDKit          3D

 49 50  0  0  0  0  0  0  0  0999 V2000
    1.1595    0.2474    0.4862 C   0  0  0  0  0  0  0  0  0  0  0  0
    2.4911    0.1309   -0.2710 C   0  0  1  0  0  0  0  0  0  0  0  0
    3.6400    0.7189    0.5610 C   0  0  0  0  0  0  0  0  0  0  0  0
    2.8051   -1.3009   -0.7976 C   0  0  1  0  0  0  0  0  0  0  0  0
    3.0239   -2.3248    0.3299 C   0  0  0  0  0  0  0  0  0  0  0  0
    3.3223   -3.7612   -0.1228 C   0  0  0  0  0  0  0  0  0  0  0  0
    2.1366   -4.4448   -0.8241 C   0  0  0  0  0  0  0  0  0  0  0  0
    2.1446   -4.3457   -2.3734 C   0  0  2  0  0  0  0  0  0  0  0  0
    0.8308   -4.8879   -2.8393 C   0  0  0  0  0  0  0  0  0  0  0  0
   -0.1581   -5.3526   -3.2295 N   0  0  0  0  0  0  0  0  0  0  0  0
    3.2541   -5.1223   -2.9869 N   0  0  0  0  0  0  0  0  0  0  0  0
    3.4108   -6.4939   -2.4956 C   0  0  0  0  0  0  0  0  0  0  0  0
    4.7075   -7.2086   -2.9080 C   0  0  0  0  0  0  0  0  0  0  0  0
    4.8028   -7.6382   -4.3783 C   0  0  0  0  0  0  0  0  0  0  0  0
    5.2418   -6.5378   -5.3586 C   0  0  0  0  0  0  0  0  0  0  0  0
    4.7157   -5.1272   -5.0381 C   0  0  0  0  0  0  0  0  0  0  0  0
    3.2935   -5.0402   -4.4586 C   0  0  0  0  0  0  0  0  0  0  0  0
    2.2567   -2.8451   -2.8244 C   0  0  0  0  0  0  0  0  0  0  0  0
    1.7733   -1.7473   -1.8598 C   0  0  0  0  0  0  0  0  0  0  0  0
    0.9562    1.2986    0.7474 H   0  0  0  0  0  0  0  0  0  0  0  0
    1.1724   -0.3228    1.4296 H   0  0  0  0  0  0  0  0  0  0  0  0
    0.3067   -0.1112   -0.1109 H   0  0  0  0  0  0  0  0  0  0  0  0
    2.4017    0.7607   -1.1761 H   0  0  0  0  0  0  0  0  0  0  0  0
    3.7447    0.2147    1.5356 H   0  0  0  0  0  0  0  0  0  0  0  0
    3.4641    1.7871    0.7673 H   0  0  0  0  0  0  0  0  0  0  0  0
    4.6055    0.6356    0.0351 H   0  0  0  0  0  0  0  0  0  0  0  0
    3.7688   -1.2108   -1.3357 H   0  0  0  0  0  0  0  0  0  0  0  0
    2.1333   -2.3507    0.9835 H   0  0  0  0  0  0  0  0  0  0  0  0
    3.8552   -1.9802    0.9661 H   0  0  0  0  0  0  0  0  0  0  0  0
    3.5902   -4.3507    0.7694 H   0  0  0  0  0  0  0  0  0  0  0  0
    4.2087   -3.7882   -0.7788 H   0  0  0  0  0  0  0  0  0  0  0  0
    1.1945   -3.9963   -0.4756 H   0  0  0  0  0  0  0  0  0  0  0  0
    2.0594   -5.4991   -0.5306 H   0  0  0  0  0  0  0  0  0  0  0  0
    2.5495   -7.1321   -2.8001 H   0  0  0  0  0  0  0  0  0  0  0  0
    3.4083   -6.4693   -1.3998 H   0  0  0  0  0  0  0  0  0  0  0  0
    4.7583   -8.1148   -2.2805 H   0  0  0  0  0  0  0  0  0  0  0  0
    5.5773   -6.5916   -2.6218 H   0  0  0  0  0  0  0  0  0  0  0  0
    3.8197   -8.0397   -4.6813 H   0  0  0  0  0  0  0  0  0  0  0  0
    5.5032   -8.4858   -4.4654 H   0  0  0  0  0  0  0  0  0  0  0  0
    4.9248   -6.8298   -6.3746 H   0  0  0  0  0  0  0  0  0  0  0  0
    6.3441   -6.4932   -5.3956 H   0  0  0  0  0  0  0  0  0  0  0  0
    4.7544   -4.5255   -5.9620 H   0  0  0  0  0  0  0  0  0  0  0  0
    5.3838   -4.6230   -4.3213 H   0  0  0  0  0  0  0  0  0  0  0  0
    2.6335   -5.8061   -4.9189 H   0  0  0  0  0  0  0  0  0  0  0  0
    2.8734   -4.0753   -4.7591 H   0  0  0  0  0  0  0  0  0  0  0  0
    1.7155   -2.7249   -3.7735 H   0  0  0  0  0  0  0  0  0  0  0  0
    3.3205   -2.6695   -3.0463 H   0  0  0  0  0  0  0  0  0  0  0  0
    0.8143   -2.0293   -1.3943 H   0  0  0  0  0  0  0  0  0  0  0  0
    1.5432   -0.8659   -2.4819 H   0  0  0  0  0  0  0  0  0  0  0  0
  1  2  1  0
  1 20  1  0
  1 21  1  0
  1 22  1  0
  2  3  1  0
  2  4  1  0
  2 23  1  6
  3 24  1  0
  3 25  1  0
  3 26  1  0
  4  5  1  0
  4 19  1  0
  4 27  1  6
  5  6  1  0
  5 28  1  0
  5 29  1  0
  6  7  1  0
  6 30  1  0
  6 31  1  0
  7  8  1  0
  7 32  1  0
  7 33  1  0
  8  9  1  6
  8 11  1  0
  8 18  1  0
  9 10  3  0
 11 12  1  0
 11 17  1  0
 12 13  1  0
 12 34  1  0
 12 35  1  0
 13 14  1  0
 13 36  1  0
 13 37  1  0
 14 15  1  0
 14 38  1  0
 14 39  1  0
 15 16  1  0
 15 40  1  0
 15 41  1  0
 16 17  1  0
 16 42  1  0
 16 43  1  0
 17 44  1  0
 17 45  1  0
 18 19  1  0
 18 46  1  0
 18 47  1  0
 19 48  1  0
 19 49  1  0
M  END

