
     RDKit          3D

 51 53  0  0  0  0  0  0  0  0999 V2000
    6.0486   -0.5581   -0.7111 O   0  0  0  0  0  0  0  0  0  0  0  0
    5.1460    0.0254   -1.3000 C   0  0  0  0  0  0  0  0  0  0  0  0
    4.8523   -0.2198   -2.7751 C   0  0  0  0  0  0  0  0  0  0  0  0
    6.1196   -0.2624   -3.6310 C   0  0  1  0  0  0  0  0  0  0  0  0
    5.8990   -0.6959   -5.0889 C   0  0  0  0  0  0  0  0  0  0  0  0
    7.2300   -0.3396   -5.7673 C   0  0  0  0  0  0  0  0  0  0  0  0
    7.6863    0.9778   -5.0849 C   0  0  0  0  0  0  0  0  0  0  0  0
    6.8531    1.0892   -3.7779 C   0  0  0  0  0  0  0  0  0  0  0  0
    4.3134    0.9019   -0.6670 N   0  0  0  0  0  0  0  0  0  0  0  0
    4.4857    1.2560    0.7301 C   0  0  0  0  0  0  0  0  0  0  0  0
    5.3329    2.5302    0.8845 C   0  0  0  0  0  0  0  0  0  0  0  0
    4.8345    3.5947    0.5464 O   0  0  0  0  0  0  0  0  0  0  0  0
    6.6060    2.4368    1.3876 N   0  0  0  0  0  0  0  0  0  0  0  0
    7.3529    1.2156    1.6826 C   0  0  0  0  0  0  0  0  0  0  0  0
    8.6787    1.1998    0.9150 C   0  0  0  0  0  0  0  0  0  0  0  0
    9.4395    2.4314    1.1283 N   0  0  0  0  0  0  0  0  0  0  0  0
   10.7187    2.3484    1.5977 C   0  0  0  0  0  0  0  0  0  0  0  0
   11.2669    1.2957    1.8869 O   0  0  0  0  0  0  0  0  0  0  0  0
   11.5097    3.6577    1.7989 C   0  0  0  0  0  0  0  0  0  0  0  0
   11.2403    4.2516    3.0997 N   0  0  0  0  0  0  0  0  0  0  0  0
   11.6217    3.8592    4.3344 C   0  0  0  0  0  0  0  0  0  0  0  0
   11.0876    4.6777    5.2155 N   0  0  0  0  0  0  0  0  0  0  0  0
   10.3673    5.5727    4.5027 N   0  0  0  0  0  0  0  0  0  0  0  0
   10.4470    5.3313    3.2400 N   0  0  0  0  0  0  0  0  0  0  0  0
    8.6868    3.6501    0.8318 C   0  0  0  0  0  0  0  0  0  0  0  0
    7.3652    3.6643    1.6065 C   0  0  0  0  0  0  0  0  0  0  0  0
    4.1422    0.5286   -3.1679 H   0  0  0  0  0  0  0  0  0  0  0  0
    4.3426   -1.1984   -2.8296 H   0  0  0  0  0  0  0  0  0  0  0  0
    6.8059   -0.9829   -3.1532 H   0  0  0  0  0  0  0  0  0  0  0  0
    5.0725   -0.1087   -5.5310 H   0  0  0  0  0  0  0  0  0  0  0  0
    5.6308   -1.7604   -5.1868 H   0  0  0  0  0  0  0  0  0  0  0  0
    7.1458   -0.2483   -6.8612 H   0  0  0  0  0  0  0  0  0  0  0  0
    7.9625   -1.1398   -5.5697 H   0  0  0  0  0  0  0  0  0  0  0  0
    7.5029    1.8464   -5.7366 H   0  0  0  0  0  0  0  0  0  0  0  0
    8.7684    0.9666   -4.8820 H   0  0  0  0  0  0  0  0  0  0  0  0
    6.1103    1.9014   -3.8682 H   0  0  0  0  0  0  0  0  0  0  0  0
    7.4706    1.3221   -2.8966 H   0  0  0  0  0  0  0  0  0  0  0  0
    3.6887    1.4769   -1.2197 H   0  0  0  0  0  0  0  0  0  0  0  0
    4.8752    0.3812    1.2607 H   0  0  0  0  0  0  0  0  0  0  0  0
    3.5028    1.5099    1.1532 H   0  0  0  0  0  0  0  0  0  0  0  0
    6.7878    0.3325    1.3688 H   0  0  0  0  0  0  0  0  0  0  0  0
    7.5509    1.1583    2.7692 H   0  0  0  0  0  0  0  0  0  0  0  0
    8.4619    1.0862   -0.1619 H   0  0  0  0  0  0  0  0  0  0  0  0
    9.3018    0.3566    1.2353 H   0  0  0  0  0  0  0  0  0  0  0  0
   11.3150    4.4279    1.0435 H   0  0  0  0  0  0  0  0  0  0  0  0
   12.5683    3.3733    1.7538 H   0  0  0  0  0  0  0  0  0  0  0  0
   12.2602    3.0005    4.5329 H   0  0  0  0  0  0  0  0  0  0  0  0
    8.4780    3.6916   -0.2531 H   0  0  0  0  0  0  0  0  0  0  0  0
    9.2569    4.5430    1.1101 H   0  0  0  0  0  0  0  0  0  0  0  0
    6.7424    4.5088    1.2876 H   0  0  0  0  0  0  0  0  0  0  0  0
    7.5836    3.7728    2.6845 H   0  0  0  0  0  0  0  0  0  0  0  0
  1  2  2  0
  2  3  1  0
  2  9  1  0
  3  4  1  0
  3 27  1  0
  3 28  1  0
  4  5  1  0
  4  8  1  0
  4 29  1  1
  5  6  1  0
  5 30  1  0
  5 31  1  0
  6  7  1  0
  6 32  1  0
  6 33  1  0
  7  8  1  0
  7 34  1  0
  7 35  1  0
  8 36  1  0
  8 37  1  0
  9 10  1  0
  9 38  1  0
 10 11  1  0
 10 39  1  0
 10 40  1  0
 11 12  2  0
 11 13  1  0
 13 14  1  0
 13 26  1  0
 14 15  1  0
 14 41  1  0
 14 42  1  0
 15 16  1  0
 15 43  1  0
 15 44  1  0
 16 17  1  0
 16 25  1  0
 17 18  2  0
 17 19  1  0
 19 20  1  0
 19 45  1  0
 19 46  1  0
 20 21  1  0
 20 24  1  0
 21 22  2  0
 21 47  1  0
 22 23  1  0
 23 24  2  0
 25 26  1  0
 25 48  1  0
 25 49  1  0
 26 50  1  0
 26 51  1  0
M  END

