
     RDKit          3D

 40 41  0  0  0  0  0  0  0  0999 V2000
    1.5360   -1.8680   -0.5444 C   0  0  0  0  0  0  0  0  0  0  0  0
    2.2054   -0.7333   -0.0507 O   0  0  0  0  0  0  0  0  0  0  0  0
    3.0788   -0.8737    0.9834 C   0  0  0  0  0  0  0  0  0  0  0  0
    3.7147    0.2932    1.4304 C   0  0  0  0  0  0  0  0  0  0  0  0
    4.6230    0.2506    2.4817 C   0  0  0  0  0  0  0  0  0  0  0  0
    4.9218   -0.9687    3.1185 C   0  0  0  0  0  0  0  0  0  0  0  0
    5.8362   -1.0707    4.1926 N   0  0  0  0  0  0  0  0  0  0  0  0
    6.5775   -0.0683    4.7933 C   0  0  0  0  0  0  0  0  0  0  0  0
    6.5466    1.1041    4.4645 O   0  0  0  0  0  0  0  0  0  0  0  0
    7.3721   -0.5550    5.8282 N   0  0  0  0  0  0  0  0  0  0  0  0
    8.2533    0.1560    6.6591 C   0  0  0  0  0  0  0  0  0  0  0  0
    8.4772    1.5447    6.5610 C   0  0  0  0  0  0  0  0  0  0  0  0
    9.3753    2.1594    7.4355 C   0  0  0  0  0  0  0  0  0  0  0  0
   10.0610    1.4310    8.4097 C   0  0  0  0  0  0  0  0  0  0  0  0
    9.8433    0.0474    8.5136 C   0  0  0  0  0  0  0  0  0  0  0  0
   10.5331   -0.8227    9.5287 C   0  0  0  0  0  0  0  0  0  0  0  0
   11.5135   -0.1789   10.4917 C   0  0  0  0  0  0  0  0  0  0  0  0
   10.3087   -2.0175    9.5757 O   0  0  0  0  0  0  0  0  0  0  0  0
    8.9433   -0.5733    7.6384 C   0  0  0  0  0  0  0  0  0  0  0  0
    4.2889   -2.1528    2.6789 C   0  0  0  0  0  0  0  0  0  0  0  0
    4.5811   -3.4823    3.3347 C   0  0  0  0  0  0  0  0  0  0  0  0
    3.3747   -2.0879    1.6154 C   0  0  0  0  0  0  0  0  0  0  0  0
    0.8926   -1.5223   -1.3650 H   0  0  0  0  0  0  0  0  0  0  0  0
    0.9027   -2.3443    0.2269 H   0  0  0  0  0  0  0  0  0  0  0  0
    2.2388   -2.6252   -0.9391 H   0  0  0  0  0  0  0  0  0  0  0  0
    3.4812    1.2377    0.9349 H   0  0  0  0  0  0  0  0  0  0  0  0
    5.1131    1.1585    2.8239 H   0  0  0  0  0  0  0  0  0  0  0  0
    5.9547   -2.0070    4.5546 H   0  0  0  0  0  0  0  0  0  0  0  0
    7.3264   -1.5464    6.0306 H   0  0  0  0  0  0  0  0  0  0  0  0
    7.9461    2.1175    5.8049 H   0  0  0  0  0  0  0  0  0  0  0  0
    9.5397    3.2365    7.3489 H   0  0  0  0  0  0  0  0  0  0  0  0
   10.7561    1.9416    9.0777 H   0  0  0  0  0  0  0  0  0  0  0  0
   11.0201    0.6003   11.0948 H   0  0  0  0  0  0  0  0  0  0  0  0
   12.3402    0.3055    9.9475 H   0  0  0  0  0  0  0  0  0  0  0  0
   11.9173   -0.9539   11.1554 H   0  0  0  0  0  0  0  0  0  0  0  0
    8.7982   -1.6517    7.7477 H   0  0  0  0  0  0  0  0  0  0  0  0
    5.6478   -3.7609    3.2530 H   0  0  0  0  0  0  0  0  0  0  0  0
    4.0027   -4.2906    2.8664 H   0  0  0  0  0  0  0  0  0  0  0  0
    4.3216   -3.4820    4.4093 H   0  0  0  0  0  0  0  0  0  0  0  0
    2.8974   -3.0135    1.2918 H   0  0  0  0  0  0  0  0  0  0  0  0
  1  2  1  0
  1 23  1  0
  1 24  1  0
  1 25  1  0
  2  3  1  0
  3  4  2  0
  3 22  1  0
  4  5  1  0
  4 26  1  0
  5  6  2  0
  5 27  1  0
  6  7  1  0
  6 20  1  0
  7  8  1  0
  7 28  1  0
  8  9  2  0
  8 10  1  0
 10 11  1  0
 10 29  1  0
 11 12  2  0
 11 19  1  0
 12 13  1  0
 12 30  1  0
 13 14  2  0
 13 31  1  0
 14 15  1  0
 14 32  1  0
 15 16  1  0
 15 19  2  0
 16 17  1  0
 16 18  2  0
 17 33  1  0
 17 34  1  0
 17 35  1  0
 19 36  1  0
 20 21  1  0
 20 22  2  0
 21 37  1  0
 21 38  1  0
 21 39  1  0
 22 40  1  0
M  END

