
     RDKit          3D

 91103  0  0  0  0  0  0  0  0999 V2000
   19.2176   -5.8304   -0.0785 N   0  0  0  0  0  0  0  0  0  0  0  0
   18.2589   -5.2214   -0.3209 C   0  0  0  0  0  0  0  0  0  0  0  0
   17.0726   -4.4700   -0.6233 C   0  0  0  0  0  0  0  0  0  0  0  0
   16.1445   -4.1673    0.3885 C   0  0  0  0  0  0  0  0  0  0  0  0
   14.9939   -3.4391    0.0880 C   0  0  0  0  0  0  0  0  0  0  0  0
   14.7373   -2.9931   -1.2187 C   0  0  0  0  0  0  0  0  0  0  0  0
   11.3042   -1.3144   -0.8518 C   0  0  2  0  0  0  0  0  0  0  0  0
   10.3332   -0.1838   -0.7338 C   0  0  0  0  0  0  0  0  0  0  0  0
    9.7121    0.3141   -1.8438 C   0  0  0  0  0  0  0  0  0  0  0  0
   10.0959   -0.0806   -3.2083 C   0  0  0  0  0  0  0  0  0  0  0  0
   11.1725   -0.9541   -3.2842 C   0  0  0  0  0  0  0  0  0  0  0  0
   11.1956   -1.9810   -2.1783 C   0  0  1  0  0  0  0  0  0  0  0  0
   11.8174   -1.2865   -4.5026 C   0  0  0  0  0  0  0  0  0  0  0  0
   12.8718   -2.2033   -4.6047 C   0  0  0  0  0  0  0  0  0  0  0  0
   12.4377   -3.3076   -3.8028 C   0  0  0  0  0  0  0  0  0  0  0  0
   12.3195   -3.0404   -2.2926 C   0  0  2  0  0  0  0  0  0  0  0  0
   11.9135   -4.1614   -1.3715 C   0  0  0  0  0  0  0  0  0  0  0  0
   11.5729   -3.8037   -0.1213 C   0  0  0  0  0  0  0  0  0  0  0  0
   11.6600   -2.3574    0.2511 C   0  0  2  0  0  0  0  0  0  0  0  0
   11.3378   -1.9972    1.6119 C   0  0  0  0  0  0  0  0  0  0  0  0
   11.0783   -1.7018    2.7037 N   0  0  0  0  0  0  0  0  0  0  0  0
   12.7491   -1.5025   -0.4478 C   0  0  1  0  0  0  0  0  0  0  0  0
   13.4918   -2.2156   -1.5878 C   0  0  1  0  0  0  0  0  0  0  0  0
   11.4751   -3.9330   -4.6417 C   0  0  0  0  0  0  0  0  0  0  0  0
   10.7987   -3.0818   -5.6090 C   0  0  0  0  0  0  0  0  0  0  0  0
   10.8245   -1.6400   -5.5211 C   0  0  0  0  0  0  0  0  0  0  0  0
    9.7024   -0.7149   -5.5507 C   0  0  0  0  0  0  0  0  0  0  0  0
    9.4273    0.1563   -4.4590 C   0  0  0  0  0  0  0  0  0  0  0  0
    8.3873    0.9817   -4.7741 N   0  0  0  0  0  0  0  0  0  0  0  0
    8.0014    0.6692   -5.9954 C   0  0  0  0  0  0  0  0  0  0  0  0
    6.8996    1.3567   -6.6854 C   0  0  0  0  0  0  0  0  0  0  0  0
    6.5191    2.6269   -6.2011 C   0  0  0  0  0  0  0  0  0  0  0  0
    5.4680    3.3351   -6.7680 C   0  0  0  0  0  0  0  0  0  0  0  0
    4.7457    2.8070   -7.8581 C   0  0  0  0  0  0  0  0  0  0  0  0
    3.6805    3.5283   -8.4427 N   0  0  0  0  0  0  0  0  0  0  0  0
    3.7539    4.9432   -8.5674 C   0  0  0  0  0  0  0  0  0  0  0  0
    4.9347    5.5639   -9.0135 C   0  0  0  0  0  0  0  0  0  0  0  0
    5.0010    6.9533   -9.1302 C   0  0  0  0  0  0  0  0  0  0  0  0
    3.8906    7.7464   -8.8231 C   0  0  0  0  0  0  0  0  0  0  0  0
    2.7114    7.1325   -8.3888 C   0  0  0  0  0  0  0  0  0  0  0  0
    2.6419    5.7450   -8.2531 C   0  0  0  0  0  0  0  0  0  0  0  0
    2.5252    2.8464   -8.9152 C   0  0  0  0  0  0  0  0  0  0  0  0
    1.9224    1.8368   -8.1430 C   0  0  0  0  0  0  0  0  0  0  0  0
    0.7900    1.1701   -8.6135 C   0  0  0  0  0  0  0  0  0  0  0  0
    0.2285    1.5072   -9.8495 C   0  0  0  0  0  0  0  0  0  0  0  0
    0.8189    2.5171  -10.6158 C   0  0  0  0  0  0  0  0  0  0  0  0
    1.9612    3.1776  -10.1603 C   0  0  0  0  0  0  0  0  0  0  0  0
    5.1151    1.5379   -8.3411 C   0  0  0  0  0  0  0  0  0  0  0  0
    6.1635    0.8260   -7.7621 C   0  0  0  0  0  0  0  0  0  0  0  0
    8.7780   -0.3799   -6.5199 N   0  0  0  0  0  0  0  0  0  0  0  0
    8.7875   -0.9111   -7.8504 C   0  0  0  0  0  0  0  0  0  0  0  0
    9.3541   -0.1668   -8.8919 C   0  0  0  0  0  0  0  0  0  0  0  0
    9.3725   -0.6906  -10.1867 C   0  0  0  0  0  0  0  0  0  0  0  0
    8.8351   -1.9562  -10.4424 C   0  0  0  0  0  0  0  0  0  0  0  0
    8.2754   -2.7000   -9.3988 C   0  0  0  0  0  0  0  0  0  0  0  0
    8.2487   -2.1789   -8.1023 C   0  0  0  0  0  0  0  0  0  0  0  0
   15.6807   -3.2903   -2.2194 C   0  0  0  0  0  0  0  0  0  0  0  0
   16.8303   -4.0216   -1.9358 C   0  0  0  0  0  0  0  0  0  0  0  0
   16.3302   -4.5042    1.4101 H   0  0  0  0  0  0  0  0  0  0  0  0
   14.2902   -3.2137    0.8903 H   0  0  0  0  0  0  0  0  0  0  0  0
   10.0838    0.2026    0.2578 H   0  0  0  0  0  0  0  0  0  0  0  0
    8.9414    1.0808   -1.7313 H   0  0  0  0  0  0  0  0  0  0  0  0
   10.2249   -2.5064   -2.2694 H   0  0  0  0  0  0  0  0  0  0  0  0
   13.2241   -2.4194   -5.6194 H   0  0  0  0  0  0  0  0  0  0  0  0
   11.9094   -5.2017   -1.7029 H   0  0  0  0  0  0  0  0  0  0  0  0
   11.2594   -4.5237    0.6372 H   0  0  0  0  0  0  0  0  0  0  0  0
   13.2865   -0.7827    0.1749 H   0  0  0  0  0  0  0  0  0  0  0  0
   13.7852   -1.4394   -2.3150 H   0  0  0  0  0  0  0  0  0  0  0  0
   11.0112   -4.9039   -4.4283 H   0  0  0  0  0  0  0  0  0  0  0  0
   10.0037   -3.5468   -6.2029 H   0  0  0  0  0  0  0  0  0  0  0  0
    7.0618    3.0395   -5.3494 H   0  0  0  0  0  0  0  0  0  0  0  0
    5.1948    4.3111   -6.3635 H   0  0  0  0  0  0  0  0  0  0  0  0
    5.8006    4.9499   -9.2683 H   0  0  0  0  0  0  0  0  0  0  0  0
    5.9270    7.4186   -9.4780 H   0  0  0  0  0  0  0  0  0  0  0  0
    3.9438    8.8331   -8.9216 H   0  0  0  0  0  0  0  0  0  0  0  0
    1.8375    7.7400   -8.1393 H   0  0  0  0  0  0  0  0  0  0  0  0
    1.7227    5.2729   -7.9013 H   0  0  0  0  0  0  0  0  0  0  0  0
    2.3467    1.5797   -7.1705 H   0  0  0  0  0  0  0  0  0  0  0  0
    0.3339    0.3891   -7.9994 H   0  0  0  0  0  0  0  0  0  0  0  0
   -0.6623    0.9883  -10.2114 H   0  0  0  0  0  0  0  0  0  0  0  0
    0.3939    2.7879  -11.5860 H   0  0  0  0  0  0  0  0  0  0  0  0
    2.4243    3.9573  -10.7681 H   0  0  0  0  0  0  0  0  0  0  0  0
    4.5702    1.1013   -9.1796 H   0  0  0  0  0  0  0  0  0  0  0  0
    6.3967   -0.1592   -8.1629 H   0  0  0  0  0  0  0  0  0  0  0  0
    9.7735    0.8185   -8.6799 H   0  0  0  0  0  0  0  0  0  0  0  0
    9.8125   -0.1075  -10.9992 H   0  0  0  0  0  0  0  0  0  0  0  0
    8.8526   -2.3635  -11.4561 H   0  0  0  0  0  0  0  0  0  0  0  0
    7.8523   -3.6883   -9.5944 H   0  0  0  0  0  0  0  0  0  0  0  0
    7.7961   -2.7415   -7.2828 H   0  0  0  0  0  0  0  0  0  0  0  0
   15.5089   -2.9382   -3.2393 H   0  0  0  0  0  0  0  0  0  0  0  0
   17.5515   -4.2446   -2.7245 H   0  0  0  0  0  0  0  0  0  0  0  0
  1  2  3  0
  2  3  1  0
  3  4  2  0
  3 58  1  0
  4  5  1  0
  4 59  1  0
  5  6  2  0
  5 60  1  0
  6 23  1  0
  6 57  1  0
  7  8  1  1
  7 12  1  0
  7 19  1  0
  7 22  1  0
  8  9  2  0
  8 61  1  0
  9 10  1  0
  9 62  1  0
 10 11  2  0
 10 28  1  0
 11 12  1  0
 11 13  1  0
 12 16  1  0
 12 63  1  1
 13 14  2  0
 13 26  1  0
 14 15  1  0
 14 64  1  0
 16 15  1  6
 15 24  2  0
 16 17  1  0
 16 23  1  0
 17 18  2  0
 17 65  1  0
 18 19  1  0
 18 66  1  0
 19 20  1  1
 19 22  1  0
 20 21  3  0
 22 23  1  0
 22 67  1  1
 23 68  1  6
 24 25  1  0
 24 69  1  0
 25 26  2  0
 25 70  1  0
 26 27  1  0
 27 28  2  0
 27 50  1  0
 28 29  1  0
 29 30  2  0
 30 31  1  0
 30 50  1  0
 31 32  2  0
 31 49  1  0
 32 33  1  0
 32 71  1  0
 33 34  2  0
 33 72  1  0
 34 35  1  0
 34 48  1  0
 35 36  1  0
 35 42  1  0
 36 37  2  0
 36 41  1  0
 37 38  1  0
 37 73  1  0
 38 39  2  0
 38 74  1  0
 39 40  1  0
 39 75  1  0
 40 41  2  0
 40 76  1  0
 41 77  1  0
 42 43  2  0
 42 47  1  0
 43 44  1  0
 43 78  1  0
 44 45  2  0
 44 79  1  0
 45 46  1  0
 45 80  1  0
 46 47  2  0
 46 81  1  0
 47 82  1  0
 48 49  2  0
 48 83  1  0
 49 84  1  0
 50 51  1  0
 51 52  2  0
 51 56  1  0
 52 53  1  0
 52 85  1  0
 53 54  2  0
 53 86  1  0
 54 55  1  0
 54 87  1  0
 55 56  2  0
 55 88  1  0
 56 89  1  0
 57 58  2  0
 57 90  1  0
 58 91  1  0
M  END

