
     RDKit          3D

 26 27  0  0  0  0  0  0  0  0999 V2000
    1.1609   -0.0381    0.6333 N   0  0  0  0  0  0  0  0  0  0  0  0
    2.5403    0.0296    0.4271 N   0  0  0  0  0  0  0  0  0  0  0  0
    3.1467    1.1726   -0.0093 C   0  0  0  0  0  0  0  0  0  0  0  0
    2.5173    2.1857   -0.2675 O   0  0  0  0  0  0  0  0  0  0  0  0
    4.6503    1.1170   -0.1412 C   0  0  0  0  0  0  0  0  0  0  0  0
    5.3515    2.3288   -0.1550 C   0  0  0  0  0  0  0  0  0  0  0  0
    6.7429    2.2976   -0.2893 C   0  0  0  0  0  0  0  0  0  0  0  0
    7.4438    1.1728   -0.4169 N   0  0  0  0  0  0  0  0  0  0  0  0
    6.7750    0.0098   -0.4216 C   0  0  0  0  0  0  0  0  0  0  0  0
    7.5891   -1.1935   -0.5801 C   0  0  0  0  0  0  0  0  0  0  0  0
    8.9478   -1.3746   -0.7422 C   0  0  0  0  0  0  0  0  0  0  0  0
    9.1577   -2.7765   -0.8431 C   0  0  0  0  0  0  0  0  0  0  0  0
    7.9089   -3.3346   -0.7337 C   0  0  0  0  0  0  0  0  0  0  0  0
    7.4905   -4.7064   -0.7595 N   0  0  0  0  0  0  0  0  0  0  0  0
    8.3803   -5.5342   -0.9079 O   0  0  0  0  0  0  0  0  0  0  0  0
    6.2990   -4.9399   -0.6327 O   0  0  0  0  0  0  0  0  0  0  0  0
    6.9571   -2.3963   -0.5751 O   0  0  0  0  0  0  0  0  0  0  0  0
    5.3771   -0.0686   -0.2888 C   0  0  0  0  0  0  0  0  0  0  0  0
    0.6958    0.0415   -0.2744 H   0  0  0  0  0  0  0  0  0  0  0  0
    0.8752    0.7961    1.1537 H   0  0  0  0  0  0  0  0  0  0  0  0
    3.0762   -0.7432    0.8038 H   0  0  0  0  0  0  0  0  0  0  0  0
    4.8035    3.2682   -0.0673 H   0  0  0  0  0  0  0  0  0  0  0  0
    7.3157    3.2319   -0.2957 H   0  0  0  0  0  0  0  0  0  0  0  0
    9.6834   -0.5759   -0.7810 H   0  0  0  0  0  0  0  0  0  0  0  0
   10.0868   -3.3231   -0.9776 H   0  0  0  0  0  0  0  0  0  0  0  0
    4.8928   -1.0453   -0.3302 H   0  0  0  0  0  0  0  0  0  0  0  0
  1  2  1  0
  1 19  1  0
  1 20  1  0
  2  3  1  0
  2 21  1  0
  3  4  2  0
  3  5  1  0
  5  6  2  0
  5 18  1  0
  6  7  1  0
  6 22  1  0
  7  8  2  0
  7 23  1  0
  8  9  1  0
  9 10  1  0
  9 18  2  0
 10 11  2  0
 10 17  1  0
 11 12  1  0
 11 24  1  0
 12 13  2  0
 12 25  1  0
 13 14  1  0
 13 17  1  0
 14 15  2  0
 14 16  1  0
 18 26  1  0
M  CHG  2  14   1  16  -1
M  END

