
     RDKit          3D

 39 39  0  0  0  0  0  0  0  0999 V2000
    1.0294   -0.3131    0.6767 C   0  0  0  0  0  0  0  0  0  0  0  0
    2.5328   -0.2332    0.4341 C   0  0  0  0  0  0  0  0  0  0  0  0
    3.0359    1.1069    0.7027 N   0  0  0  0  0  0  0  0  0  0  0  0
    4.4806    1.2990    0.5425 C   0  0  1  0  0  0  0  0  0  0  0  0
    4.8114    1.4438   -0.9591 C   0  0  0  0  0  0  0  0  0  0  0  0
    6.6219    1.5194   -1.2469 S   0  0  0  0  0  0  0  0  0  0  0  0
    6.6808    1.1899   -3.0505 C   0  0  0  0  0  0  0  0  0  0  0  0
    6.4878   -0.2703   -3.4510 C   0  0  0  0  0  0  0  0  0  0  0  0
    4.9326    2.5105    1.3448 C   0  0  0  0  0  0  0  0  0  0  0  0
    6.0664    2.4587    2.1618 C   0  0  0  0  0  0  0  0  0  0  0  0
    6.4737    3.5890    2.8753 C   0  0  0  0  0  0  0  0  0  0  0  0
    5.7690    4.7970    2.8026 C   0  0  0  0  0  0  0  0  0  0  0  0
    6.2295    6.0032    3.5832 C   0  0  0  0  0  0  0  0  0  0  0  0
    4.6166    4.8598    1.9828 C   0  0  0  0  0  0  0  0  0  0  0  0
    3.8208    6.1376    1.8722 C   0  0  0  0  0  0  0  0  0  0  0  0
    4.2230    3.7199    1.2713 C   0  0  0  0  0  0  0  0  0  0  0  0
    0.6442   -1.3187    0.4463 H   0  0  0  0  0  0  0  0  0  0  0  0
    0.4960    0.4197    0.0515 H   0  0  0  0  0  0  0  0  0  0  0  0
    0.7841   -0.0978    1.7309 H   0  0  0  0  0  0  0  0  0  0  0  0
    2.7413   -0.4889   -0.6187 H   0  0  0  0  0  0  0  0  0  0  0  0
    3.0517   -1.0109    1.0410 H   0  0  0  0  0  0  0  0  0  0  0  0
    2.7737    1.3810    1.6489 H   0  0  0  0  0  0  0  0  0  0  0  0
    5.0489    0.4192    0.9151 H   0  0  0  0  0  0  0  0  0  0  0  0
    4.3275    2.3516   -1.3536 H   0  0  0  0  0  0  0  0  0  0  0  0
    4.4083    0.5780   -1.5054 H   0  0  0  0  0  0  0  0  0  0  0  0
    7.6772    1.5460   -3.3569 H   0  0  0  0  0  0  0  0  0  0  0  0
    5.9465    1.8444   -3.5486 H   0  0  0  0  0  0  0  0  0  0  0  0
    7.2462   -0.9119   -2.9766 H   0  0  0  0  0  0  0  0  0  0  0  0
    6.5714   -0.3870   -4.5452 H   0  0  0  0  0  0  0  0  0  0  0  0
    5.4963   -0.6482   -3.1546 H   0  0  0  0  0  0  0  0  0  0  0  0
    6.6395    1.5309    2.2400 H   0  0  0  0  0  0  0  0  0  0  0  0
    7.3641    3.5301    3.5082 H   0  0  0  0  0  0  0  0  0  0  0  0
    7.1359    5.7811    4.1651 H   0  0  0  0  0  0  0  0  0  0  0  0
    5.4560    6.3547    4.2877 H   0  0  0  0  0  0  0  0  0  0  0  0
    6.4572    6.8554    2.9200 H   0  0  0  0  0  0  0  0  0  0  0  0
    3.4374    6.4667    2.8534 H   0  0  0  0  0  0  0  0  0  0  0  0
    2.9595    6.0156    1.1994 H   0  0  0  0  0  0  0  0  0  0  0  0
    4.4354    6.9678    1.4838 H   0  0  0  0  0  0  0  0  0  0  0  0
    3.3281    3.7665    0.6448 H   0  0  0  0  0  0  0  0  0  0  0  0
  1  2  1  0
  1 17  1  0
  1 18  1  0
  1 19  1  0
  2  3  1  0
  2 20  1  0
  2 21  1  0
  3  4  1  0
  3 22  1  0
  4  5  1  0
  4  9  1  0
  4 23  1  1
  5  6  1  0
  5 24  1  0
  5 25  1  0
  6  7  1  0
  7  8  1  0
  7 26  1  0
  7 27  1  0
  8 28  1  0
  8 29  1  0
  8 30  1  0
  9 10  2  0
  9 16  1  0
 10 11  1  0
 10 31  1  0
 11 12  2  0
 11 32  1  0
 12 13  1  0
 12 14  1  0
 13 33  1  0
 13 34  1  0
 13 35  1  0
 14 15  1  0
 14 16  2  0
 15 36  1  0
 15 37  1  0
 15 38  1  0
 16 39  1  0
M  END

