
     RDKit          3D

 44 46  0  0  0  0  0  0  0  0999 V2000
    8.9922    2.3350    7.9429 C   0  0  0  0  0  0  0  0  0  0  0  0
    9.0702    1.3799    6.7411 C   0  0  0  0  0  0  0  0  0  0  0  0
    7.8720    0.4625    6.6323 C   0  0  0  0  0  0  0  0  0  0  0  0
    6.7182    0.8590    5.9350 C   0  0  0  0  0  0  0  0  0  0  0  0
    5.5935    0.0385    5.8749 C   0  0  0  0  0  0  0  0  0  0  0  0
    5.6019   -1.2269    6.4853 C   0  0  0  0  0  0  0  0  0  0  0  0
    4.3262   -2.0180    6.4275 C   0  0  0  0  0  0  0  0  0  0  0  0
    3.2579   -1.4648    6.6967 O   0  0  0  0  0  0  0  0  0  0  0  0
    4.3554   -3.3263    6.0276 N   0  0  0  0  0  0  0  0  0  0  0  0
    5.5551   -4.0314    5.5502 C   0  0  0  0  0  0  0  0  0  0  0  0
    4.9860   -5.6535    4.9305 S   0  0  0  0  0  0  0  0  0  0  0  0
    3.5833   -5.5932    6.1076 C   0  0  0  0  0  0  0  0  0  0  0  0
    3.1201   -4.1410    6.0681 C   0  0  2  0  0  0  0  0  0  0  0  0
    2.1427   -3.9254    4.8660 C   0  0  0  0  0  0  0  0  0  0  0  0
    1.6906   -4.8766    4.2534 O   0  0  0  0  0  0  0  0  0  0  0  0
    1.8308   -2.6187    4.6230 N   0  0  0  0  0  0  0  0  0  0  0  0
    1.0311   -2.1082    3.5898 C   0  0  0  0  0  0  0  0  0  0  0  0
    0.3078   -2.8801    2.6630 C   0  0  0  0  0  0  0  0  0  0  0  0
   -0.4523   -2.2557    1.6692 C   0  0  0  0  0  0  0  0  0  0  0  0
   -0.5125   -0.8635    1.5746 C   0  0  0  0  0  0  0  0  0  0  0  0
    0.2027   -0.0803    2.4869 C   0  0  0  0  0  0  0  0  0  0  0  0
    0.9582   -0.7071    3.4664 C   0  0  0  0  0  0  0  0  0  0  0  0
    1.6585    0.0415    4.3445 F   0  0  0  0  0  0  0  0  0  0  0  0
    6.7451   -1.6277    7.1921 C   0  0  0  0  0  0  0  0  0  0  0  0
    7.8590   -0.7890    7.2675 C   0  0  0  0  0  0  0  0  0  0  0  0
    9.8796    2.9867    7.9862 H   0  0  0  0  0  0  0  0  0  0  0  0
    8.9337    1.7774    8.8913 H   0  0  0  0  0  0  0  0  0  0  0  0
    8.1004    2.9789    7.8822 H   0  0  0  0  0  0  0  0  0  0  0  0
    9.9883    0.7736    6.8166 H   0  0  0  0  0  0  0  0  0  0  0  0
    9.1619    1.9694    5.8135 H   0  0  0  0  0  0  0  0  0  0  0  0
    6.6995    1.8319    5.4351 H   0  0  0  0  0  0  0  0  0  0  0  0
    4.6921    0.3673    5.3529 H   0  0  0  0  0  0  0  0  0  0  0  0
    6.2804   -4.1792    6.3636 H   0  0  0  0  0  0  0  0  0  0  0  0
    6.0509   -3.4846    4.7348 H   0  0  0  0  0  0  0  0  0  0  0  0
    3.9069   -5.8870    7.1177 H   0  0  0  0  0  0  0  0  0  0  0  0
    2.7971   -6.2657    5.7458 H   0  0  0  0  0  0  0  0  0  0  0  0
    2.5705   -3.8659    6.9844 H   0  0  0  0  0  0  0  0  0  0  0  0
    2.1892   -1.9410    5.3077 H   0  0  0  0  0  0  0  0  0  0  0  0
    0.3566   -3.9635    2.7393 H   0  0  0  0  0  0  0  0  0  0  0  0
   -1.0067   -2.8753    0.9602 H   0  0  0  0  0  0  0  0  0  0  0  0
   -1.1110   -0.3834    0.7973 H   0  0  0  0  0  0  0  0  0  0  0  0
    0.1898    1.0109    2.4522 H   0  0  0  0  0  0  0  0  0  0  0  0
    6.7646   -2.5861    7.7151 H   0  0  0  0  0  0  0  0  0  0  0  0
    8.7370   -1.1149    7.8327 H   0  0  0  0  0  0  0  0  0  0  0  0
  1  2  1  0
  1 26  1  0
  1 27  1  0
  1 28  1  0
  2  3  1  0
  2 29  1  0
  2 30  1  0
  3  4  2  0
  3 25  1  0
  4  5  1  0
  4 31  1  0
  5  6  2  0
  5 32  1  0
  6  7  1  0
  6 24  1  0
  7  8  2  0
  7  9  1  0
  9 10  1  0
  9 13  1  0
 10 11  1  0
 10 33  1  0
 10 34  1  0
 11 12  1  0
 12 13  1  0
 12 35  1  0
 12 36  1  0
 13 14  1  0
 13 37  1  1
 14 15  2  0
 14 16  1  0
 16 17  1  0
 16 38  1  0
 17 18  2  0
 17 22  1  0
 18 19  1  0
 18 39  1  0
 19 20  2  0
 19 40  1  0
 20 21  1  0
 20 41  1  0
 21 22  2  0
 21 42  1  0
 22 23  1  0
 24 25  2  0
 24 43  1  0
 25 44  1  0
M  END

