
     RDKit          3D

 50 50  0  0  0  0  0  0  0  0999 V2000
    1.1376    0.1254    3.9358 C   0  0  0  0  0  0  0  0  0  0  0  0
    2.5467    0.7155    4.0188 C   0  0  1  0  0  0  0  0  0  0  0  0
    3.1668    0.5415    5.4116 C   0  0  0  0  0  0  0  0  0  0  0  0
    3.3725    0.1222    2.9647 N   0  0  0  0  0  0  0  0  0  0  0  0
    4.5195    0.7211    2.4833 C   0  0  0  0  0  0  0  0  0  0  0  0
    4.7624    1.9727    2.9007 N   0  0  0  0  0  0  0  0  0  0  0  0
    5.8596    2.6033    2.4864 C   0  0  0  0  0  0  0  0  0  0  0  0
    6.8162    2.0228    1.6536 C   0  0  0  0  0  0  0  0  0  0  0  0
    6.5674    0.7251    1.2055 C   0  0  0  0  0  0  0  0  0  0  0  0
    5.3993    0.0520    1.5734 C   0  0  0  0  0  0  0  0  0  0  0  0
    5.2130   -1.3226    0.9770 C   0  0  0  0  0  0  0  0  0  0  0  0
    6.1832   -1.9897    0.6396 O   0  0  0  0  0  0  0  0  0  0  0  0
    3.9161   -1.7423    0.8155 N   0  0  0  0  0  0  0  0  0  0  0  0
    3.4788   -2.9839    0.1149 C   0  0  1  0  0  0  0  0  0  0  0  0
    3.9993   -2.9414   -1.3364 C   0  0  0  0  0  0  0  0  0  0  0  0
    4.0663   -4.1964    0.8572 C   0  0  0  0  0  0  0  0  0  0  0  0
    1.9232   -2.9001    0.1936 C   0  0  0  0  0  0  0  0  0  0  0  0
    0.9431   -4.0490   -0.1989 C   0  0  1  0  0  0  0  0  0  0  0  0
    0.9354   -5.1917    0.8379 C   0  0  0  0  0  0  0  0  0  0  0  0
   -0.4656   -3.4117   -0.1996 C   0  0  0  0  0  0  0  0  0  0  0  0
    1.2001   -4.6356   -1.5996 C   0  0  0  0  0  0  0  0  0  0  0  0
    0.4814    0.5778    4.6952 H   0  0  0  0  0  0  0  0  0  0  0  0
    1.1490   -0.9638    4.1188 H   0  0  0  0  0  0  0  0  0  0  0  0
    0.6910    0.3013    2.9449 H   0  0  0  0  0  0  0  0  0  0  0  0
    2.5034    1.7918    3.7987 H   0  0  0  0  0  0  0  0  0  0  0  0
    3.2587   -0.5266    5.6737 H   0  0  0  0  0  0  0  0  0  0  0  0
    2.5430    1.0256    6.1805 H   0  0  0  0  0  0  0  0  0  0  0  0
    4.1664    0.9981    5.4472 H   0  0  0  0  0  0  0  0  0  0  0  0
    3.3611   -0.8917    2.9213 H   0  0  0  0  0  0  0  0  0  0  0  0
    5.9903    3.6300    2.8503 H   0  0  0  0  0  0  0  0  0  0  0  0
    7.7158    2.5677    1.3628 H   0  0  0  0  0  0  0  0  0  0  0  0
    7.2657    0.2016    0.5490 H   0  0  0  0  0  0  0  0  0  0  0  0
    3.2054   -1.0248    0.9223 H   0  0  0  0  0  0  0  0  0  0  0  0
    5.0903   -2.8160   -1.3310 H   0  0  0  0  0  0  0  0  0  0  0  0
    3.5523   -2.0980   -1.8867 H   0  0  0  0  0  0  0  0  0  0  0  0
    3.7647   -3.8666   -1.8777 H   0  0  0  0  0  0  0  0  0  0  0  0
    5.1575   -4.0962    0.9185 H   0  0  0  0  0  0  0  0  0  0  0  0
    3.8377   -5.1293    0.3230 H   0  0  0  0  0  0  0  0  0  0  0  0
    3.6621   -4.2713    1.8785 H   0  0  0  0  0  0  0  0  0  0  0  0
    1.6405   -2.0175   -0.4092 H   0  0  0  0  0  0  0  0  0  0  0  0
    1.6769   -2.6386    1.2385 H   0  0  0  0  0  0  0  0  0  0  0  0
    0.7643   -4.8062    1.8565 H   0  0  0  0  0  0  0  0  0  0  0  0
    1.8739   -5.7614    0.8476 H   0  0  0  0  0  0  0  0  0  0  0  0
    0.1232   -5.9022    0.6123 H   0  0  0  0  0  0  0  0  0  0  0  0
   -0.7040   -2.9634    0.7791 H   0  0  0  0  0  0  0  0  0  0  0  0
   -1.2372   -4.1676   -0.4176 H   0  0  0  0  0  0  0  0  0  0  0  0
   -0.5477   -2.6187   -0.9608 H   0  0  0  0  0  0  0  0  0  0  0  0
    2.1344   -5.2144   -1.6441 H   0  0  0  0  0  0  0  0  0  0  0  0
    1.2497   -3.8488   -2.3690 H   0  0  0  0  0  0  0  0  0  0  0  0
    0.3815   -5.3201   -1.8762 H   0  0  0  0  0  0  0  0  0  0  0  0
  1  2  1  0
  1 22  1  0
  1 23  1  0
  1 24  1  0
  2  3  1  0
  2  4  1  0
  2 25  1  6
  3 26  1  0
  3 27  1  0
  3 28  1  0
  4  5  1  0
  4 29  1  0
  5  6  2  0
  5 10  1  0
  6  7  1  0
  7  8  2  0
  7 30  1  0
  8  9  1  0
  8 31  1  0
  9 10  2  0
  9 32  1  0
 10 11  1  0
 11 12  2  0
 11 13  1  0
 14 13  1  1
 13 33  1  0
 14 15  1  0
 14 16  1  0
 14 17  1  0
 15 34  1  0
 15 35  1  0
 15 36  1  0
 16 37  1  0
 16 38  1  0
 16 39  1  0
 18 17  1  1
 17 40  1  0
 17 41  1  0
 18 19  1  0
 18 20  1  0
 18 21  1  0
 19 42  1  0
 19 43  1  0
 19 44  1  0
 20 45  1  0
 20 46  1  0
 20 47  1  0
 21 48  1  0
 21 49  1  0
 21 50  1  0
M  END

