
     RDKit          3D

 39 39  0  0  0  0  0  0  0  0999 V2000
   -1.5637   -4.4445    1.7278 C   0  0  0  0  0  0  0  0  0  0  0  0
   -0.3451   -3.8841    1.2823 O   0  0  0  0  0  0  0  0  0  0  0  0
    0.8166   -4.5478    1.5043 C   0  0  0  0  0  0  0  0  0  0  0  0
    0.9068   -5.8232    2.0886 C   0  0  0  0  0  0  0  0  0  0  0  0
    2.0651   -6.4568    2.2843 N   0  0  0  0  0  0  0  0  0  0  0  0
    3.1910   -5.8467    1.9182 C   0  0  0  0  0  0  0  0  0  0  0  0
    3.2089   -4.5726    1.3412 C   0  0  0  0  0  0  0  0  0  0  0  0
    2.0059   -3.9049    1.1056 C   0  0  0  0  0  0  0  0  0  0  0  0
    2.0370   -2.4705    0.6120 C   0  0  0  0  0  0  0  0  0  0  0  0
    2.5318   -1.6193    1.3364 O   0  0  0  0  0  0  0  0  0  0  0  0
    1.5341   -2.1996   -0.6329 N   0  0  0  0  0  0  0  0  0  0  0  0
    1.5519   -0.8232   -1.1018 C   0  0  0  0  0  0  0  0  0  0  0  0
    1.0604   -3.2131   -1.5694 C   0  0  0  0  0  0  0  0  0  0  0  0
    2.1208   -3.6991   -2.5662 C   0  0  0  0  0  0  0  0  0  0  0  0
    1.5650   -4.7196   -3.5621 C   0  0  0  0  0  0  0  0  0  0  0  0
    2.6093   -5.2483   -4.5489 C   0  0  0  0  0  0  0  0  0  0  0  0
    2.0817   -6.3328   -5.4930 C   0  0  0  0  0  0  0  0  0  0  0  0
    1.6240   -7.5072   -4.7548 N   0  0  0  0  0  0  0  0  0  0  0  0
   -2.3491   -3.7206    1.4734 H   0  0  0  0  0  0  0  0  0  0  0  0
   -1.5624   -4.6049    2.8201 H   0  0  0  0  0  0  0  0  0  0  0  0
   -1.7828   -5.4034    1.2255 H   0  0  0  0  0  0  0  0  0  0  0  0
    0.0050   -6.3514    2.4126 H   0  0  0  0  0  0  0  0  0  0  0  0
    4.1281   -6.3865    2.0960 H   0  0  0  0  0  0  0  0  0  0  0  0
    4.1559   -4.0927    1.0837 H   0  0  0  0  0  0  0  0  0  0  0  0
    1.9505   -0.1885   -0.3020 H   0  0  0  0  0  0  0  0  0  0  0  0
    0.5315   -0.4906   -1.3605 H   0  0  0  0  0  0  0  0  0  0  0  0
    2.1879   -0.7100   -1.9966 H   0  0  0  0  0  0  0  0  0  0  0  0
    0.2027   -2.7847   -2.1174 H   0  0  0  0  0  0  0  0  0  0  0  0
    0.6610   -4.0680   -1.0099 H   0  0  0  0  0  0  0  0  0  0  0  0
    2.9568   -4.1465   -1.9997 H   0  0  0  0  0  0  0  0  0  0  0  0
    2.5444   -2.8361   -3.1103 H   0  0  0  0  0  0  0  0  0  0  0  0
    0.7312   -4.2644   -4.1294 H   0  0  0  0  0  0  0  0  0  0  0  0
    1.1289   -5.5771   -3.0229 H   0  0  0  0  0  0  0  0  0  0  0  0
    3.4725   -5.6537   -3.9866 H   0  0  0  0  0  0  0  0  0  0  0  0
    3.0123   -4.4171   -5.1550 H   0  0  0  0  0  0  0  0  0  0  0  0
    2.8655   -6.5524   -6.2506 H   0  0  0  0  0  0  0  0  0  0  0  0
    1.2200   -5.9303   -6.0551 H   0  0  0  0  0  0  0  0  0  0  0  0
    2.4182   -7.9928   -4.3347 H   0  0  0  0  0  0  0  0  0  0  0  0
    1.1795   -8.1774   -5.3814 H   0  0  0  0  0  0  0  0  0  0  0  0
  1  2  1  0
  1 19  1  0
  1 20  1  0
  1 21  1  0
  2  3  1  0
  3  4  2  0
  3  8  1  0
  4  5  1  0
  4 22  1  0
  5  6  2  0
  6  7  1  0
  6 23  1  0
  7  8  2  0
  7 24  1  0
  8  9  1  0
  9 10  2  0
  9 11  1  0
 11 12  1  0
 11 13  1  0
 12 25  1  0
 12 26  1  0
 12 27  1  0
 13 14  1  0
 13 28  1  0
 13 29  1  0
 14 15  1  0
 14 30  1  0
 14 31  1  0
 15 16  1  0
 15 32  1  0
 15 33  1  0
 16 17  1  0
 16 34  1  0
 16 35  1  0
 17 18  1  0
 17 36  1  0
 17 37  1  0
 18 38  1  0
 18 39  1  0
M  END

