
     RDKit          3D

 66 68  0  0  0  0  0  0  0  0999 V2000
    2.7889   -0.5092   -2.3597 C   0  0  0  0  0  0  0  0  0  0  0  0
    3.2719   -1.4402   -1.2417 C   0  0  1  0  0  0  0  0  0  0  0  0
    3.3628   -2.8948   -1.7196 C   0  0  0  0  0  0  0  0  0  0  0  0
    4.5977   -0.9555   -0.6179 C   0  0  0  0  0  0  0  0  0  0  0  0
    5.7227   -0.9060   -1.5371 N   0  0  0  0  0  0  0  0  0  0  0  0
    6.1938    0.2937   -2.0317 C   0  0  0  0  0  0  0  0  0  0  0  0
    5.6907    1.3607   -1.7066 O   0  0  0  0  0  0  0  0  0  0  0  0
    7.2599    0.2260   -2.9270 N   0  0  0  0  0  0  0  0  0  0  0  0
    7.9768   -0.9917   -3.2732 C   0  0  0  0  0  0  0  0  0  0  0  0
    8.4534   -0.9637   -4.7304 C   0  0  0  0  0  0  0  0  0  0  0  0
    9.2396    0.3094   -5.0464 C   0  0  0  0  0  0  0  0  0  0  0  0
    8.4160    1.5553   -4.6915 C   0  0  2  0  0  0  0  0  0  0  0  0
    9.1964    2.8466   -4.9538 C   0  0  0  0  0  0  0  0  0  0  0  0
    8.3150    4.0965   -5.0053 C   0  0  0  0  0  0  0  0  0  0  0  0
    7.0937    4.0369   -4.9992 O   0  0  0  0  0  0  0  0  0  0  0  0
    8.9661    5.2964   -5.0882 N   0  0  0  0  0  0  0  0  0  0  0  0
    8.2109    6.5468   -5.2160 C   0  0  0  0  0  0  0  0  0  0  0  0
    9.2443    7.5383   -5.7712 C   0  0  2  0  0  0  0  0  0  0  0  0
    9.3163    7.5026   -7.3012 C   0  0  0  0  0  0  0  0  0  0  0  0
   10.5432    7.0473   -5.0708 C   0  0  2  0  0  0  0  0  0  0  0  0
   11.7786    7.5530   -5.6568 N   0  0  0  0  0  0  0  0  0  0  0  0
   11.9577    9.0056   -5.5609 C   0  0  0  0  0  0  0  0  0  0  0  0
   12.4989    9.4505   -4.1980 C   0  0  0  0  0  0  0  0  0  0  0  0
   13.7039    8.7761   -3.8851 O   0  0  0  0  0  0  0  0  0  0  0  0
   13.5473    7.3697   -3.8989 C   0  0  0  0  0  0  0  0  0  0  0  0
   13.0252    6.8928   -5.2580 C   0  0  0  0  0  0  0  0  0  0  0  0
   10.4077    5.5127   -5.1484 C   0  0  0  0  0  0  0  0  0  0  0  0
    7.9506    1.4775   -3.2298 C   0  0  0  0  0  0  0  0  0  0  0  0
    1.7960   -0.8160   -2.7272 H   0  0  0  0  0  0  0  0  0  0  0  0
    3.4824   -0.5293   -3.2162 H   0  0  0  0  0  0  0  0  0  0  0  0
    2.7257    0.5347   -2.0172 H   0  0  0  0  0  0  0  0  0  0  0  0
    2.5316   -1.4021   -0.4201 H   0  0  0  0  0  0  0  0  0  0  0  0
    4.1024   -2.9979   -2.5324 H   0  0  0  0  0  0  0  0  0  0  0  0
    2.3964   -3.2491   -2.1130 H   0  0  0  0  0  0  0  0  0  0  0  0
    3.6599   -3.5747   -0.9030 H   0  0  0  0  0  0  0  0  0  0  0  0
    4.8610   -1.6140    0.2294 H   0  0  0  0  0  0  0  0  0  0  0  0
    4.4693    0.0617   -0.2223 H   0  0  0  0  0  0  0  0  0  0  0  0
    6.2359   -1.7584   -1.7018 H   0  0  0  0  0  0  0  0  0  0  0  0
    7.3199   -1.8638   -3.1519 H   0  0  0  0  0  0  0  0  0  0  0  0
    8.8505   -1.1411   -2.6018 H   0  0  0  0  0  0  0  0  0  0  0  0
    7.5696   -1.0186   -5.3892 H   0  0  0  0  0  0  0  0  0  0  0  0
    9.0622   -1.8620   -4.9268 H   0  0  0  0  0  0  0  0  0  0  0  0
    9.5268    0.3262   -6.1117 H   0  0  0  0  0  0  0  0  0  0  0  0
   10.1834    0.3145   -4.4674 H   0  0  0  0  0  0  0  0  0  0  0  0
    7.5109    1.5767   -5.3210 H   0  0  0  0  0  0  0  0  0  0  0  0
    9.7294    2.7738   -5.9197 H   0  0  0  0  0  0  0  0  0  0  0  0
    9.9878    2.9763   -4.1942 H   0  0  0  0  0  0  0  0  0  0  0  0
    7.8184    6.8650   -4.2330 H   0  0  0  0  0  0  0  0  0  0  0  0
    7.3430    6.3992   -5.8745 H   0  0  0  0  0  0  0  0  0  0  0  0
    8.9906    8.5594   -5.4443 H   0  0  0  0  0  0  0  0  0  0  0  0
    9.4851    6.4803   -7.6752 H   0  0  0  0  0  0  0  0  0  0  0  0
   10.1334    8.1295   -7.6852 H   0  0  0  0  0  0  0  0  0  0  0  0
    8.3692    7.8603   -7.7352 H   0  0  0  0  0  0  0  0  0  0  0  0
   10.4371    7.3194   -3.9967 H   0  0  0  0  0  0  0  0  0  0  0  0
   11.0112    9.5207   -5.7828 H   0  0  0  0  0  0  0  0  0  0  0  0
   12.6834    9.3106   -6.3364 H   0  0  0  0  0  0  0  0  0  0  0  0
   11.7443    9.2732   -3.4026 H   0  0  0  0  0  0  0  0  0  0  0  0
   12.7275   10.5279   -4.2037 H   0  0  0  0  0  0  0  0  0  0  0  0
   12.8605    7.0515   -3.0854 H   0  0  0  0  0  0  0  0  0  0  0  0
   14.5375    6.9357   -3.6871 H   0  0  0  0  0  0  0  0  0  0  0  0
   12.9041    5.7995   -5.2626 H   0  0  0  0  0  0  0  0  0  0  0  0
   13.7891    7.1320   -6.0198 H   0  0  0  0  0  0  0  0  0  0  0  0
   10.9274    5.0081   -4.3184 H   0  0  0  0  0  0  0  0  0  0  0  0
   10.8447    5.1388   -6.0935 H   0  0  0  0  0  0  0  0  0  0  0  0
    7.2591    2.2954   -3.0006 H   0  0  0  0  0  0  0  0  0  0  0  0
    8.8389    1.5826   -2.5677 H   0  0  0  0  0  0  0  0  0  0  0  0
  1  2  1  0
  1 29  1  0
  1 30  1  0
  1 31  1  0
  2  3  1  0
  2  4  1  0
  2 32  1  1
  3 33  1  0
  3 34  1  0
  3 35  1  0
  4  5  1  0
  4 36  1  0
  4 37  1  0
  5  6  1  0
  5 38  1  0
  6  7  2  0
  6  8  1  0
  8  9  1  0
  8 28  1  0
  9 10  1  0
  9 39  1  0
  9 40  1  0
 10 11  1  0
 10 41  1  0
 10 42  1  0
 11 12  1  0
 11 43  1  0
 11 44  1  0
 12 13  1  0
 12 28  1  0
 12 45  1  6
 13 14  1  0
 13 46  1  0
 13 47  1  0
 14 15  2  0
 14 16  1  0
 16 17  1  0
 16 27  1  0
 17 18  1  0
 17 48  1  0
 17 49  1  0
 18 19  1  0
 18 20  1  0
 18 50  1  6
 19 51  1  0
 19 52  1  0
 19 53  1  0
 20 21  1  0
 20 27  1  0
 20 54  1  1
 21 22  1  0
 21 26  1  0
 22 23  1  0
 22 55  1  0
 22 56  1  0
 23 24  1  0
 23 57  1  0
 23 58  1  0
 24 25  1  0
 25 26  1  0
 25 59  1  0
 25 60  1  0
 26 61  1  0
 26 62  1  0
 27 63  1  0
 27 64  1  0
 28 65  1  0
 28 66  1  0
M  END

