
     RDKit          3D

 43 46  0  0  0  0  0  0  0  0999 V2000
    3.1368    3.4279   -5.8602 N   0  0  0  0  0  0  0  0  0  0  0  0
    4.1335    3.8250   -5.0229 C   0  0  0  0  0  0  0  0  0  0  0  0
    5.2548    4.1328   -5.3935 O   0  0  0  0  0  0  0  0  0  0  0  0
    3.7458    3.8591   -3.5801 C   0  0  0  0  0  0  0  0  0  0  0  0
    4.5808    4.2196   -2.4938 C   0  0  0  0  0  0  0  0  0  0  0  0
    3.7801    4.0973   -1.3687 C   0  0  0  0  0  0  0  0  0  0  0  0
    4.0582    4.3644    0.0822 C   0  0  2  0  0  0  0  0  0  0  0  0
    3.6897    3.1890    1.0108 C   0  0  0  0  0  0  0  0  0  0  0  0
    3.9547    3.5437    2.4786 C   0  0  0  0  0  0  0  0  0  0  0  0
    3.2783    4.8620    2.8688 C   0  0  0  0  0  0  0  0  0  0  0  0
    3.6722    5.9380    1.9584 N   0  0  0  0  0  0  0  0  0  0  0  0
    4.3507    7.0148    2.4849 C   0  0  0  0  0  0  0  0  0  0  0  0
    4.5919    7.0845    3.6861 O   0  0  0  0  0  0  0  0  0  0  0  0
    4.8313    8.1541    1.6189 C   0  0  0  0  0  0  0  0  0  0  0  0
    5.5492    9.1653    2.2183 C   0  0  0  0  0  0  0  0  0  0  0  0
    5.9947   10.3499    1.0546 S   0  0  0  0  0  0  0  0  0  0  0  0
    5.1801    9.4091   -0.1892 C   0  0  0  0  0  0  0  0  0  0  0  0
    5.1424    9.8760   -1.5916 C   0  0  1  0  0  0  0  0  0  0  0  0
    5.0991    8.8654   -2.7237 C   0  0  0  0  0  0  0  0  0  0  0  0
    3.8808    9.6760   -2.4163 C   0  0  0  0  0  0  0  0  0  0  0  0
    4.6378    8.3163    0.2652 N   0  0  0  0  0  0  0  0  0  0  0  0
    3.3625    5.6645    0.5618 C   0  0  0  0  0  0  0  0  0  0  0  0
    2.5602    3.6880   -1.8389 N   0  0  0  0  0  0  0  0  0  0  0  0
    1.7287    3.4904   -1.2950 H   0  0  0  0  0  0  0  0  0  0  0  0
    2.5195    3.5368   -3.1662 N   0  0  0  0  0  0  0  0  0  0  0  0
    3.3240    3.3812   -6.8531 H   0  0  0  0  0  0  0  0  0  0  0  0
    2.2255    3.1860   -5.4920 H   0  0  0  0  0  0  0  0  0  0  0  0
    5.6239    4.5192   -2.5437 H   0  0  0  0  0  0  0  0  0  0  0  0
    5.1438    4.5387    0.1638 H   0  0  0  0  0  0  0  0  0  0  0  0
    4.2461    2.2847    0.7161 H   0  0  0  0  0  0  0  0  0  0  0  0
    2.6162    2.9487    0.8886 H   0  0  0  0  0  0  0  0  0  0  0  0
    5.0412    3.6376    2.6481 H   0  0  0  0  0  0  0  0  0  0  0  0
    3.5966    2.7365    3.1389 H   0  0  0  0  0  0  0  0  0  0  0  0
    3.5460    5.1678    3.8860 H   0  0  0  0  0  0  0  0  0  0  0  0
    2.1781    4.7467    2.8202 H   0  0  0  0  0  0  0  0  0  0  0  0
    5.8123    9.2338    3.2707 H   0  0  0  0  0  0  0  0  0  0  0  0
    5.7055   10.7957   -1.7717 H   0  0  0  0  0  0  0  0  0  0  0  0
    5.0960    7.8102   -2.4388 H   0  0  0  0  0  0  0  0  0  0  0  0
    5.6751    9.0977   -3.6237 H   0  0  0  0  0  0  0  0  0  0  0  0
    3.0483    9.1764   -1.9140 H   0  0  0  0  0  0  0  0  0  0  0  0
    3.5944   10.4827   -3.0969 H   0  0  0  0  0  0  0  0  0  0  0  0
    3.6630    6.5117   -0.0590 H   0  0  0  0  0  0  0  0  0  0  0  0
    2.2654    5.5429    0.4613 H   0  0  0  0  0  0  0  0  0  0  0  0
  1  2  1  0
  1 26  1  0
  1 27  1  0
  2  3  2  0
  2  4  1  0
  4  5  1  0
  4 25  2  0
  5  6  2  0
  5 28  1  0
  6  7  1  0
  6 23  1  0
  7  8  1  0
  7 22  1  0
  7 29  1  6
  8  9  1  0
  8 30  1  0
  8 31  1  0
  9 10  1  0
  9 32  1  0
  9 33  1  0
 10 11  1  0
 10 34  1  0
 10 35  1  0
 11 12  1  0
 11 22  1  0
 12 13  2  0
 12 14  1  0
 14 15  2  0
 14 21  1  0
 15 16  1  0
 15 36  1  0
 16 17  1  0
 17 18  1  0
 17 21  2  0
 18 19  1  0
 18 20  1  0
 18 37  1  6
 19 20  1  0
 19 38  1  0
 19 39  1  0
 20 40  1  0
 20 41  1  0
 22 42  1  0
 22 43  1  0
 23 24  1  0
 23 25  1  0
M  END

