
     RDKit          3D

 54 56  0  0  0  0  0  0  0  0999 V2000
   10.6700    0.3809    0.4132 C   0  0  0  0  0  0  0  0  0  0  0  0
    9.5121    0.2656   -0.4153 O   0  0  0  0  0  0  0  0  0  0  0  0
    8.9888    1.4213   -0.8582 C   0  0  0  0  0  0  0  0  0  0  0  0
    9.4471    2.5048   -0.5922 O   0  0  0  0  0  0  0  0  0  0  0  0
    7.7924    1.2224   -1.7832 C   0  0  0  0  0  0  0  0  0  0  0  0
    7.0307    0.0122   -1.5780 N   0  0  0  0  0  0  0  0  0  0  0  0
    6.2551    0.0481   -0.3527 C   0  0  0  0  0  0  0  0  0  0  0  0
    6.2713   -0.4277   -2.7414 C   0  0  0  0  0  0  0  0  0  0  0  0
    7.1371   -0.9805   -3.8927 C   0  0  1  0  0  0  0  0  0  0  0  0
    8.1210   -2.0731   -3.4388 C   0  0  0  0  0  0  0  0  0  0  0  0
    7.4410   -3.4184   -3.1548 C   0  0  0  0  0  0  0  0  0  0  0  0
    6.6217   -3.8532   -4.2793 N   0  0  0  0  0  0  0  0  0  0  0  0
    6.5746   -5.1524   -4.7201 C   0  0  0  0  0  0  0  0  0  0  0  0
    7.3506   -6.1946   -4.1714 C   0  0  0  0  0  0  0  0  0  0  0  0
    7.2284   -7.4721   -4.7488 C   0  0  0  0  0  0  0  0  0  0  0  0
    7.9859   -8.5031   -4.2311 N   0  0  0  0  0  0  0  0  0  0  0  0
    8.0830   -9.8600   -4.5618 C   0  0  0  0  0  0  0  0  0  0  0  0
    8.9766  -10.6416   -3.7992 C   0  0  0  0  0  0  0  0  0  0  0  0
    9.1345  -11.9998   -4.0614 C   0  0  0  0  0  0  0  0  0  0  0  0
    8.4133  -12.6223   -5.0847 C   0  0  0  0  0  0  0  0  0  0  0  0
    7.5323  -11.8385   -5.8324 C   0  0  0  0  0  0  0  0  0  0  0  0
    6.5308  -12.6587   -7.2395 Br  0  0  0  0  0  0  0  0  0  0  0  0
    7.3508  -10.4755   -5.5957 C   0  0  0  0  0  0  0  0  0  0  0  0
    6.3969   -7.7095   -5.7756 N   0  0  0  0  0  0  0  0  0  0  0  0
    5.6978   -6.6593   -6.2033 C   0  0  0  0  0  0  0  0  0  0  0  0
    5.7317   -5.4190   -5.7479 N   0  0  0  0  0  0  0  0  0  0  0  0
    5.6260   -2.8764   -4.7222 C   0  0  0  0  0  0  0  0  0  0  0  0
    6.2678   -1.5236   -5.0434 C   0  0  0  0  0  0  0  0  0  0  0  0
   10.9454   -0.6420    0.6981 H   0  0  0  0  0  0  0  0  0  0  0  0
   10.4528    0.9825    1.3087 H   0  0  0  0  0  0  0  0  0  0  0  0
   11.4962    0.8608   -0.1332 H   0  0  0  0  0  0  0  0  0  0  0  0
    8.2166    1.2246   -2.8009 H   0  0  0  0  0  0  0  0  0  0  0  0
    7.1875    2.1521   -1.7034 H   0  0  0  0  0  0  0  0  0  0  0  0
    6.9128    0.2545    0.5060 H   0  0  0  0  0  0  0  0  0  0  0  0
    5.7805   -0.9296   -0.1757 H   0  0  0  0  0  0  0  0  0  0  0  0
    5.4534    0.8217   -0.3598 H   0  0  0  0  0  0  0  0  0  0  0  0
    5.6200    0.3817   -3.1471 H   0  0  0  0  0  0  0  0  0  0  0  0
    5.5825   -1.2128   -2.3926 H   0  0  0  0  0  0  0  0  0  0  0  0
    7.7316   -0.1435   -4.2984 H   0  0  0  0  0  0  0  0  0  0  0  0
    8.6531   -1.7418   -2.5342 H   0  0  0  0  0  0  0  0  0  0  0  0
    8.8700   -2.2281   -4.2343 H   0  0  0  0  0  0  0  0  0  0  0  0
    6.8198   -3.3507   -2.2385 H   0  0  0  0  0  0  0  0  0  0  0  0
    8.2178   -4.1640   -2.9500 H   0  0  0  0  0  0  0  0  0  0  0  0
    8.0208   -6.0455   -3.3261 H   0  0  0  0  0  0  0  0  0  0  0  0
    8.5841   -8.2275   -3.4621 H   0  0  0  0  0  0  0  0  0  0  0  0
    9.5507  -10.1743   -2.9935 H   0  0  0  0  0  0  0  0  0  0  0  0
    9.8321  -12.5866   -3.4585 H   0  0  0  0  0  0  0  0  0  0  0  0
    8.5322  -13.6855   -5.2953 H   0  0  0  0  0  0  0  0  0  0  0  0
    6.6617   -9.8793   -6.1869 H   0  0  0  0  0  0  0  0  0  0  0  0
    5.0093   -6.8503   -7.0370 H   0  0  0  0  0  0  0  0  0  0  0  0
    4.8567   -2.7605   -3.9318 H   0  0  0  0  0  0  0  0  0  0  0  0
    5.1216   -3.2905   -5.6014 H   0  0  0  0  0  0  0  0  0  0  0  0
    5.4737   -0.8033   -5.3048 H   0  0  0  0  0  0  0  0  0  0  0  0
    6.8975   -1.6413   -5.9413 H   0  0  0  0  0  0  0  0  0  0  0  0
  1  2  1  0
  1 29  1  0
  1 30  1  0
  1 31  1  0
  2  3  1  0
  3  4  2  0
  3  5  1  0
  5  6  1  0
  5 32  1  0
  5 33  1  0
  6  7  1  0
  6  8  1  0
  7 34  1  0
  7 35  1  0
  7 36  1  0
  8  9  1  0
  8 37  1  0
  8 38  1  0
  9 10  1  0
  9 28  1  0
  9 39  1  6
 10 11  1  0
 10 40  1  0
 10 41  1  0
 11 12  1  0
 11 42  1  0
 11 43  1  0
 12 13  1  0
 12 27  1  0
 13 14  2  0
 13 26  1  0
 14 15  1  0
 14 44  1  0
 15 16  1  0
 15 24  2  0
 16 17  1  0
 16 45  1  0
 17 18  2  0
 17 23  1  0
 18 19  1  0
 18 46  1  0
 19 20  2  0
 19 47  1  0
 20 21  1  0
 20 48  1  0
 21 22  1  0
 21 23  2  0
 23 49  1  0
 24 25  1  0
 25 26  2  0
 25 50  1  0
 27 28  1  0
 27 51  1  0
 27 52  1  0
 28 53  1  0
 28 54  1  0
M  END

