
     RDKit          3D

 34 37  0  0  0  0  0  0  0  0999 V2000
    1.2193    0.3430   -0.0738 C   0  0  0  0  0  0  0  0  0  0  0  0
    2.7197    0.2864   -0.0713 C   0  0  0  0  0  0  0  0  0  0  0  0
    3.3953    1.4465   -0.0580 N   0  0  0  0  0  0  0  0  0  0  0  0
    4.7217    1.3877   -0.0560 C   0  0  0  0  0  0  0  0  0  0  0  0
    5.4166    0.1654   -0.0673 C   0  0  0  0  0  0  0  0  0  0  0  0
    6.8693    0.1301   -0.0646 C   0  0  0  0  0  0  0  0  0  0  0  0
    7.7005    1.1271   -0.0519 N   0  0  0  0  0  0  0  0  0  0  0  0
    8.9665    0.5959   -0.0551 N   0  0  0  0  0  0  0  0  0  0  0  0
    8.8357   -0.7073   -0.0699 C   0  0  0  0  0  0  0  0  0  0  0  0
    9.8651   -1.7075   -0.0789 C   0  0  0  0  0  0  0  0  0  0  0  0
    9.8316   -3.1178   -0.0950 C   0  0  0  0  0  0  0  0  0  0  0  0
    8.6417   -4.0249   -0.1081 C   0  0  0  0  0  0  0  0  0  0  0  0
   11.0808   -3.6266   -0.0985 N   0  0  0  0  0  0  0  0  0  0  0  0
   11.9165   -2.5883   -0.0852 C   0  0  0  0  0  0  0  0  0  0  0  0
   13.3283   -2.5518   -0.0820 C   0  0  0  0  0  0  0  0  0  0  0  0
   13.9802   -1.3387   -0.0671 C   0  0  0  0  0  0  0  0  0  0  0  0
   13.2239   -0.1347   -0.0549 C   0  0  0  0  0  0  0  0  0  0  0  0
   14.0496    1.3996   -0.0360 Cl  0  0  0  0  0  0  0  0  0  0  0  0
   11.8496   -0.1541   -0.0578 C   0  0  0  0  0  0  0  0  0  0  0  0
   11.2182   -1.3731   -0.0727 N   0  0  0  0  0  0  0  0  0  0  0  0
    7.5235   -1.0705   -0.0766 O   0  0  0  0  0  0  0  0  0  0  0  0
    4.6153   -0.9887   -0.0808 C   0  0  0  0  0  0  0  0  0  0  0  0
    3.2893   -0.9297   -0.0828 N   0  0  0  0  0  0  0  0  0  0  0  0
    0.8747    1.3840   -0.0614 H   0  0  0  0  0  0  0  0  0  0  0  0
    0.8192   -0.1926    0.8020 H   0  0  0  0  0  0  0  0  0  0  0  0
    0.8231   -0.1698   -0.9650 H   0  0  0  0  0  0  0  0  0  0  0  0
    5.2777    2.3316   -0.0452 H   0  0  0  0  0  0  0  0  0  0  0  0
    7.6942   -3.4758   -0.0930 H   0  0  0  0  0  0  0  0  0  0  0  0
    8.6785   -4.6994    0.7623 H   0  0  0  0  0  0  0  0  0  0  0  0
    8.6700   -4.6638   -1.0053 H   0  0  0  0  0  0  0  0  0  0  0  0
   13.8652   -3.5006   -0.0917 H   0  0  0  0  0  0  0  0  0  0  0  0
   15.0695   -1.2823   -0.0643 H   0  0  0  0  0  0  0  0  0  0  0  0
   11.2106    0.7283   -0.0492 H   0  0  0  0  0  0  0  0  0  0  0  0
    5.0731   -1.9844   -0.0902 H   0  0  0  0  0  0  0  0  0  0  0  0
  1  2  1  0
  1 24  1  0
  1 25  1  0
  1 26  1  0
  2  3  2  0
  2 23  1  0
  3  4  1  0
  4  5  2  0
  4 27  1  0
  5  6  1  0
  5 22  1  0
  6  7  2  0
  6 21  1  0
  7  8  1  0
  8  9  2  0
  9 10  1  0
  9 21  1  0
 10 11  2  0
 10 20  1  0
 11 12  1  0
 11 13  1  0
 12 28  1  0
 12 29  1  0
 12 30  1  0
 13 14  2  0
 14 15  1  0
 14 20  1  0
 15 16  2  0
 15 31  1  0
 16 17  1  0
 16 32  1  0
 17 18  1  0
 17 19  2  0
 19 20  1  0
 19 33  1  0
 22 23  2  0
 22 34  1  0
M  END

