
     RDKit          3D

 27 28  0  0  0  0  0  0  0  0999 V2000
    1.0576   -0.0406    0.1543 C   0  0  0  0  0  0  0  0  0  0  0  0
    2.5127   -0.0474    0.0574 N   0  0  0  0  0  0  0  0  0  0  0  0
    3.1406   -1.3000   -0.0408 C   0  0  0  0  0  0  0  0  0  0  0  0
    2.4956   -2.3480   -0.0641 O   0  0  0  0  0  0  0  0  0  0  0  0
    4.5833   -1.2855   -0.1387 C   0  0  0  0  0  0  0  0  0  0  0  0
    5.3554   -2.9074   -0.0865 S   0  0  0  0  0  0  0  0  0  0  0  0
    4.9856   -3.4799   -1.7851 C   0  0  0  0  0  0  0  0  0  0  0  0
    6.8706   -2.5995   -0.0813 O   0  0  0  0  0  0  0  0  0  0  0  0
    5.3442   -0.1309   -0.1506 C   0  0  0  0  0  0  0  0  0  0  0  0
    6.6566   -0.1068   -0.2497 O   0  0  0  0  0  0  0  0  0  0  0  0
    4.6454    1.1402   -0.0515 C   0  0  0  0  0  0  0  0  0  0  0  0
    5.3594    2.3534   -0.0565 C   0  0  0  0  0  0  0  0  0  0  0  0
    4.6974    3.5693    0.0419 C   0  0  0  0  0  0  0  0  0  0  0  0
    3.2983    3.5786    0.1467 C   0  0  0  0  0  0  0  0  0  0  0  0
    2.5702    2.3934    0.1537 C   0  0  0  0  0  0  0  0  0  0  0  0
    3.2269    1.1468    0.0551 C   0  0  0  0  0  0  0  0  0  0  0  0
    0.7259   -1.0841    0.1303 H   0  0  0  0  0  0  0  0  0  0  0  0
    0.6087    0.5050   -0.6907 H   0  0  0  0  0  0  0  0  0  0  0  0
    0.7281    0.4261    1.0958 H   0  0  0  0  0  0  0  0  0  0  0  0
    3.8950   -3.5734   -1.8748 H   0  0  0  0  0  0  0  0  0  0  0  0
    5.4779   -4.4564   -1.8960 H   0  0  0  0  0  0  0  0  0  0  0  0
    5.4018   -2.7518   -2.4943 H   0  0  0  0  0  0  0  0  0  0  0  0
    6.9797   -1.0797   -0.2250 H   0  0  0  0  0  0  0  0  0  0  0  0
    6.4460    2.3052   -0.1387 H   0  0  0  0  0  0  0  0  0  0  0  0
    5.2579    4.5064    0.0382 H   0  0  0  0  0  0  0  0  0  0  0  0
    2.7637    4.5288    0.2248 H   0  0  0  0  0  0  0  0  0  0  0  0
    1.4858    2.4378    0.2368 H   0  0  0  0  0  0  0  0  0  0  0  0
  1  2  1  0
  1 17  1  0
  1 18  1  0
  1 19  1  0
  2  3  1  0
  2 16  1  0
  3  4  2  0
  3  5  1  0
  5  6  1  0
  5  9  2  0
  6  7  1  0
  6  8  1  6
  7 20  1  0
  7 21  1  0
  7 22  1  0
  9 10  1  0
  9 11  1  0
 10 23  1  0
 11 12  1  0
 11 16  2  0
 12 13  2  0
 12 24  1  0
 13 14  1  0
 13 25  1  0
 14 15  2  0
 14 26  1  0
 15 16  1  0
 15 27  1  0
M  CHG  2   6   1   8  -1
M  END

