
     RDKit          3D

 57 60  0  0  0  0  0  0  0  0999 V2000
    3.0623    0.9798   -7.8373 C   0  0  0  0  0  0  0  0  0  0  0  0
    3.8785    1.2434   -6.5959 C   0  0  0  0  0  0  0  0  0  0  0  0
    3.5315    2.2560   -5.6909 C   0  0  0  0  0  0  0  0  0  0  0  0
    4.2920    2.5050   -4.5452 C   0  0  0  0  0  0  0  0  0  0  0  0
    5.4415    1.7466   -4.2947 C   0  0  0  0  0  0  0  0  0  0  0  0
    6.2363    1.9846   -3.1426 N   0  0  0  0  0  0  0  0  0  0  0  0
    6.7983    0.9447   -2.4805 N   0  0  0  0  0  0  0  0  0  0  0  0
    7.5065    1.4186   -1.4766 C   0  0  0  0  0  0  0  0  0  0  0  0
    8.1962    0.4322   -0.5505 C   0  0  1  0  0  0  0  0  0  0  0  0
    7.5981    0.4985    0.8617 C   0  0  0  0  0  0  0  0  0  0  0  0
    8.0342   -0.8807   -1.0791 O   0  0  0  0  0  0  0  0  0  0  0  0
    9.7227    0.6691   -0.5240 C   0  0  0  0  0  0  0  0  0  0  0  0
   10.2848    0.4557   -1.7881 O   0  0  0  0  0  0  0  0  0  0  0  0
    7.4306    2.8528   -1.4519 C   0  0  0  0  0  0  0  0  0  0  0  0
    7.9578    3.8871   -0.6523 C   0  0  0  0  0  0  0  0  0  0  0  0
    7.6770    5.2025   -0.9878 C   0  0  0  0  0  0  0  0  0  0  0  0
    6.8807    5.5204   -2.1213 C   0  0  0  0  0  0  0  0  0  0  0  0
    6.5587    6.9354   -2.5290 C   0  0  0  0  0  0  0  0  0  0  0  0
    5.6245    7.1966   -3.2764 O   0  0  0  0  0  0  0  0  0  0  0  0
    7.3752    7.9091   -2.0317 N   0  0  0  0  0  0  0  0  0  0  0  0
    7.1283    9.3132   -2.2980 C   0  0  2  0  0  0  0  0  0  0  0  0
    6.0384    9.4810   -2.2542 H   0  0  0  0  0  0  0  0  0  0  0  0
    7.6142    9.7683   -3.6873 C   0  0  0  0  0  0  0  0  0  0  0  0
    7.7778   10.1043   -1.2003 C   0  0  0  0  0  0  0  0  0  0  0  0
    8.5910    9.6738   -0.2830 N   0  0  0  0  0  0  0  0  0  0  0  0
    8.8999   10.8263    0.4122 C   0  0  0  0  0  0  0  0  0  0  0  0
    9.8152   10.8590    1.5876 C   0  0  0  0  0  0  0  0  0  0  0  0
    8.3112   11.8972   -0.0556 N   0  0  0  0  0  0  0  0  0  0  0  0
    7.5626   11.4188   -1.1336 O   0  0  0  0  0  0  0  0  0  0  0  0
    6.3288    4.5127   -2.9090 C   0  0  0  0  0  0  0  0  0  0  0  0
    6.6029    3.1817   -2.5608 C   0  0  0  0  0  0  0  0  0  0  0  0
    5.8035    0.7244   -5.1846 C   0  0  0  0  0  0  0  0  0  0  0  0
    5.0243    0.4791   -6.3124 C   0  0  0  0  0  0  0  0  0  0  0  0
    2.1267    1.5582   -7.8371 H   0  0  0  0  0  0  0  0  0  0  0  0
    2.8019   -0.0873   -7.9286 H   0  0  0  0  0  0  0  0  0  0  0  0
    3.6226    1.2530   -8.7480 H   0  0  0  0  0  0  0  0  0  0  0  0
    2.6370    2.8579   -5.8723 H   0  0  0  0  0  0  0  0  0  0  0  0
    3.9732    3.2729   -3.8393 H   0  0  0  0  0  0  0  0  0  0  0  0
    6.5186    0.2890    0.8238 H   0  0  0  0  0  0  0  0  0  0  0  0
    7.7425    1.4885    1.3226 H   0  0  0  0  0  0  0  0  0  0  0  0
    8.0741   -0.2613    1.5000 H   0  0  0  0  0  0  0  0  0  0  0  0
    7.3277   -0.8298   -1.7462 H   0  0  0  0  0  0  0  0  0  0  0  0
   10.1499   -0.0096    0.2437 H   0  0  0  0  0  0  0  0  0  0  0  0
    9.9520    1.7018   -0.2167 H   0  0  0  0  0  0  0  0  0  0  0  0
    9.8800   -0.3705   -2.0994 H   0  0  0  0  0  0  0  0  0  0  0  0
    8.5746    3.6653    0.2204 H   0  0  0  0  0  0  0  0  0  0  0  0
    8.0588    5.9998   -0.3463 H   0  0  0  0  0  0  0  0  0  0  0  0
    8.1751    7.6850   -1.4506 H   0  0  0  0  0  0  0  0  0  0  0  0
    7.3976   10.8360   -3.8413 H   0  0  0  0  0  0  0  0  0  0  0  0
    7.0857    9.1844   -4.4530 H   0  0  0  0  0  0  0  0  0  0  0  0
    8.6981    9.6065   -3.7931 H   0  0  0  0  0  0  0  0  0  0  0  0
   10.8109   10.4834    1.3051 H   0  0  0  0  0  0  0  0  0  0  0  0
    9.4310   10.2065    2.3871 H   0  0  0  0  0  0  0  0  0  0  0  0
    9.9087   11.8836    1.9695 H   0  0  0  0  0  0  0  0  0  0  0  0
    5.7128    4.7926   -3.7625 H   0  0  0  0  0  0  0  0  0  0  0  0
    6.6945    0.1301   -4.9790 H   0  0  0  0  0  0  0  0  0  0  0  0
    5.3192   -0.3223   -6.9962 H   0  0  0  0  0  0  0  0  0  0  0  0
  1  2  1  0
  1 34  1  0
  1 35  1  0
  1 36  1  0
  2  3  2  0
  2 33  1  0
  3  4  1  0
  3 37  1  0
  4  5  2  0
  4 38  1  0
  5  6  1  0
  5 32  1  0
  6  7  1  0
  6 31  1  0
  7  8  2  0
  8  9  1  0
  8 14  1  0
  9 10  1  0
  9 11  1  6
  9 12  1  0
 10 39  1  0
 10 40  1  0
 10 41  1  0
 11 42  1  0
 12 13  1  0
 12 43  1  0
 12 44  1  0
 13 45  1  0
 14 15  1  0
 14 31  2  0
 15 16  2  0
 15 46  1  0
 16 17  1  0
 16 47  1  0
 17 18  1  0
 17 30  2  0
 18 19  2  0
 18 20  1  0
 20 21  1  0
 20 48  1  0
 21 22  1  6
 21 23  1  0
 21 24  1  0
 23 49  1  0
 23 50  1  0
 23 51  1  0
 24 25  2  0
 24 29  1  0
 25 26  1  0
 26 27  1  0
 26 28  2  0
 27 52  1  0
 27 53  1  0
 27 54  1  0
 28 29  1  0
 30 31  1  0
 30 55  1  0
 32 33  2  0
 32 56  1  0
 33 57  1  0
M  END

