
     RDKit          3D

 67 71  0  0  0  0  0  0  0  0999 V2000
    6.9946    4.8978   -0.8461 C   0  0  0  0  0  0  0  0  0  0  0  0
    6.0759    4.4239    0.0999 O   0  0  0  0  0  0  0  0  0  0  0  0
    5.7047    3.0636   -0.0276 C   0  0  1  0  0  0  0  0  0  0  0  0
    6.6134    2.4550   -0.2202 H   0  0  0  0  0  0  0  0  0  0  0  0
    5.0761    2.6377    1.2999 C   0  0  0  0  0  0  0  0  0  0  0  0
    3.6968    3.2778    1.4727 C   0  0  0  0  0  0  0  0  0  0  0  0
    2.7987    2.9597    0.2774 C   0  0  0  0  0  0  0  0  0  0  0  0
    3.4155    3.3947   -0.9706 N   0  0  0  0  0  0  0  0  0  0  0  0
    2.5629    3.2446   -2.1427 C   0  0  0  0  0  0  0  0  0  0  0  0
    1.2655    4.0023   -2.0735 C   0  0  0  0  0  0  0  0  0  0  0  0
   -0.2520    3.1294   -2.0002 S   0  0  0  0  0  0  0  0  0  0  0  0
   -1.1040    4.6774   -2.0245 C   0  0  0  0  0  0  0  0  0  0  0  0
   -2.4831    4.6794   -1.9943 N   0  0  0  0  0  0  0  0  0  0  0  0
   -3.3409    5.7643   -2.1316 C   0  0  0  0  0  0  0  0  0  0  0  0
   -3.0080    6.9159   -2.3097 O   0  0  0  0  0  0  0  0  0  0  0  0
   -4.7784    5.3448   -2.0367 C   0  0  0  0  0  0  0  0  0  0  0  0
   -5.8060    6.2863   -2.1623 C   0  0  0  0  0  0  0  0  0  0  0  0
   -7.0859    5.9469   -2.0784 N   0  0  0  0  0  0  0  0  0  0  0  0
   -7.4019    4.6556   -1.8619 C   0  0  0  0  0  0  0  0  0  0  0  0
   -8.7281    4.3343   -1.7523 N   0  0  0  0  0  0  0  0  0  0  0  0
   -9.2334    2.9860   -1.5046 C   0  0  0  0  0  0  0  0  0  0  0  0
  -10.2562    2.9787   -0.3585 C   0  0  0  0  0  0  0  0  0  0  0  0
  -11.3813    4.0065   -0.5534 C   0  0  2  0  0  0  0  0  0  0  0  0
  -12.3809    3.5603   -1.6273 C   0  0  0  0  0  0  0  0  0  0  0  0
  -12.2378    2.6033   -2.3396 O   0  0  0  0  0  0  0  0  0  0  0  0
  -13.4845    4.3333   -1.7484 O   0  0  0  0  0  0  0  0  0  0  0  0
  -10.7748    5.3944   -0.8721 C   0  0  0  0  0  0  0  0  0  0  0  0
   -9.7693    5.3239   -2.0245 C   0  0  0  0  0  0  0  0  0  0  0  0
   -6.3466    3.6920   -1.7580 C   0  0  0  0  0  0  0  0  0  0  0  0
   -5.0800    4.0502   -1.8417 N   0  0  0  0  0  0  0  0  0  0  0  0
   -0.3311    5.7104   -2.0740 N   0  0  0  0  0  0  0  0  0  0  0  0
    1.0050    5.3614   -2.0994 C   0  0  0  0  0  0  0  0  0  0  0  0
    1.9518    6.4729   -2.2047 C   0  0  0  0  0  0  0  0  0  0  0  0
    1.5899    7.7689   -2.5193 C   0  0  0  0  0  0  0  0  0  0  0  0
    2.7087    8.6441   -2.5797 C   0  0  0  0  0  0  0  0  0  0  0  0
    2.5637   10.3379   -2.9576 Cl  0  0  0  0  0  0  0  0  0  0  0  0
    3.9057    8.0287   -2.3088 C   0  0  0  0  0  0  0  0  0  0  0  0
    3.6788    6.3535   -1.9455 S   0  0  0  0  0  0  0  0  0  0  0  0
    4.7281    2.8053   -1.1883 C   0  0  0  0  0  0  0  0  0  0  0  0
    7.2715    5.9220   -0.5543 H   0  0  0  0  0  0  0  0  0  0  0  0
    6.5803    4.9361   -1.8724 H   0  0  0  0  0  0  0  0  0  0  0  0
    7.9166    4.2807   -0.8722 H   0  0  0  0  0  0  0  0  0  0  0  0
    5.7545    2.9166    2.1213 H   0  0  0  0  0  0  0  0  0  0  0  0
    4.9829    1.5373    1.3067 H   0  0  0  0  0  0  0  0  0  0  0  0
    3.8103    4.3702    1.5526 H   0  0  0  0  0  0  0  0  0  0  0  0
    3.2165    2.9226    2.3992 H   0  0  0  0  0  0  0  0  0  0  0  0
    1.8296    3.4688    0.3860 H   0  0  0  0  0  0  0  0  0  0  0  0
    2.5834    1.8623    0.2544 H   0  0  0  0  0  0  0  0  0  0  0  0
    2.3379    2.1721   -2.3515 H   0  0  0  0  0  0  0  0  0  0  0  0
    3.1362    3.6086   -3.0142 H   0  0  0  0  0  0  0  0  0  0  0  0
   -2.9712    3.7927   -1.8742 H   0  0  0  0  0  0  0  0  0  0  0  0
   -5.5607    7.3383   -2.3369 H   0  0  0  0  0  0  0  0  0  0  0  0
   -8.4090    2.3131   -1.2462 H   0  0  0  0  0  0  0  0  0  0  0  0
   -9.7085    2.5921   -2.4197 H   0  0  0  0  0  0  0  0  0  0  0  0
   -9.7365    3.2094    0.5862 H   0  0  0  0  0  0  0  0  0  0  0  0
  -10.6797    1.9674   -0.2679 H   0  0  0  0  0  0  0  0  0  0  0  0
  -11.9565    4.0854    0.3877 H   0  0  0  0  0  0  0  0  0  0  0  0
  -13.4823    5.0446   -1.0921 H   0  0  0  0  0  0  0  0  0  0  0  0
  -10.2640    5.7704    0.0294 H   0  0  0  0  0  0  0  0  0  0  0  0
  -11.5574    6.1304   -1.1222 H   0  0  0  0  0  0  0  0  0  0  0  0
   -9.2842    6.2933   -2.1799 H   0  0  0  0  0  0  0  0  0  0  0  0
  -10.2883    5.0504   -2.9640 H   0  0  0  0  0  0  0  0  0  0  0  0
   -6.5460    2.6278   -1.6164 H   0  0  0  0  0  0  0  0  0  0  0  0
    0.5558    8.0600   -2.6969 H   0  0  0  0  0  0  0  0  0  0  0  0
    4.8953    8.4798   -2.2797 H   0  0  0  0  0  0  0  0  0  0  0  0
    5.1433    3.2111   -2.1254 H   0  0  0  0  0  0  0  0  0  0  0  0
    4.6628    1.6989   -1.3322 H   0  0  0  0  0  0  0  0  0  0  0  0
  1  2  1  0
  1 40  1  0
  1 41  1  0
  1 42  1  0
  2  3  1  0
  3  4  1  6
  3  5  1  0
  3 39  1  0
  5  6  1  0
  5 43  1  0
  5 44  1  0
  6  7  1  0
  6 45  1  0
  6 46  1  0
  7  8  1  0
  7 47  1  0
  7 48  1  0
  8  9  1  0
  8 39  1  0
  9 10  1  0
  9 49  1  0
  9 50  1  0
 10 11  1  0
 10 32  2  0
 11 12  1  0
 12 13  1  0
 12 31  2  0
 13 14  1  0
 13 51  1  0
 14 15  2  0
 14 16  1  0
 16 17  2  0
 16 30  1  0
 17 18  1  0
 17 52  1  0
 18 19  2  0
 19 20  1  0
 19 29  1  0
 20 21  1  0
 20 28  1  0
 21 22  1  0
 21 53  1  0
 21 54  1  0
 22 23  1  0
 22 55  1  0
 22 56  1  0
 23 24  1  0
 23 27  1  0
 23 57  1  1
 24 25  2  0
 24 26  1  0
 26 58  1  0
 27 28  1  0
 27 59  1  0
 27 60  1  0
 28 61  1  0
 28 62  1  0
 29 30  2  0
 29 63  1  0
 31 32  1  0
 32 33  1  0
 33 34  2  0
 33 38  1  0
 34 35  1  0
 34 64  1  0
 35 36  1  0
 35 37  2  0
 37 38  1  0
 37 65  1  0
 39 66  1  0
 39 67  1  0
M  END

