
     RDKit          3D

 36 36  0  0  0  0  0  0  0  0999 V2000
    0.9579    0.6109   -0.0088 C   0  0  0  0  0  0  0  0  0  0  0  0
    2.4283    0.2408   -0.1985 C   0  0  1  0  0  0  0  0  0  0  0  0
    2.6545   -1.2362   -0.5322 C   0  0  0  0  0  0  0  0  0  0  0  0
    2.2371   -1.5222   -1.9006 N   0  0  0  0  0  0  0  0  0  0  0  0
    1.5225   -2.6737   -2.1492 C   0  0  0  0  0  0  0  0  0  0  0  0
    1.0798   -3.3655   -1.2237 O   0  0  0  0  0  0  0  0  0  0  0  0
    1.3061   -3.0070   -3.4577 N   0  0  0  0  0  0  0  0  0  0  0  0
    0.6686   -4.2449   -3.8553 C   0  0  1  0  0  0  0  0  0  0  0  0
   -0.8161   -4.3767   -3.4008 C   0  0  0  0  0  0  0  0  0  0  0  0
   -0.9436   -4.9039   -2.1210 O   0  0  0  0  0  0  0  0  0  0  0  0
    0.8381   -4.3505   -5.3758 C   0  0  0  0  0  0  0  0  0  0  0  0
    1.3539   -3.4911   -6.0426 O   0  0  0  0  0  0  0  0  0  0  0  0
    0.3848   -5.4802   -5.9403 O   0  0  0  0  0  0  0  0  0  0  0  0
    2.8658   -0.6685   -2.9013 C   0  0  0  0  0  0  0  0  0  0  0  0
    2.6874    0.8119   -2.5329 C   0  0  2  0  0  0  0  0  0  0  0  0
    3.5716    1.7300   -3.3759 C   0  0  0  0  0  0  0  0  0  0  0  0
    4.9382    1.4832   -3.1523 O   0  0  0  0  0  0  0  0  0  0  0  0
    3.0701    1.0565   -1.1856 O   0  0  0  0  0  0  0  0  0  0  0  0
    0.5561    0.1127    0.8871 H   0  0  0  0  0  0  0  0  0  0  0  0
    0.3376    0.3020   -0.8637 H   0  0  0  0  0  0  0  0  0  0  0  0
    0.8563    1.6987    0.1238 H   0  0  0  0  0  0  0  0  0  0  0  0
    2.9728    0.4652    0.7327 H   0  0  0  0  0  0  0  0  0  0  0  0
    2.0911   -1.8917    0.1421 H   0  0  0  0  0  0  0  0  0  0  0  0
    3.7318   -1.4657   -0.4209 H   0  0  0  0  0  0  0  0  0  0  0  0
    1.7580   -2.5198   -4.2251 H   0  0  0  0  0  0  0  0  0  0  0  0
    1.1888   -5.1176   -3.4094 H   0  0  0  0  0  0  0  0  0  0  0  0
   -1.3539   -5.0551   -4.0883 H   0  0  0  0  0  0  0  0  0  0  0  0
   -1.2830   -3.3761   -3.5239 H   0  0  0  0  0  0  0  0  0  0  0  0
   -0.3151   -4.4062   -1.5536 H   0  0  0  0  0  0  0  0  0  0  0  0
    0.0159   -6.0799   -5.2744 H   0  0  0  0  0  0  0  0  0  0  0  0
    2.4129   -0.8208   -3.8897 H   0  0  0  0  0  0  0  0  0  0  0  0
    3.9476   -0.8834   -2.9809 H   0  0  0  0  0  0  0  0  0  0  0  0
    1.6266    1.0907   -2.6885 H   0  0  0  0  0  0  0  0  0  0  0  0
    3.2975    2.7783   -3.1435 H   0  0  0  0  0  0  0  0  0  0  0  0
    3.3717    1.5640   -4.4473 H   0  0  0  0  0  0  0  0  0  0  0  0
    5.0592    1.5227   -2.1914 H   0  0  0  0  0  0  0  0  0  0  0  0
  1  2  1  0
  1 19  1  0
  1 20  1  0
  1 21  1  0
  2  3  1  0
  2 18  1  0
  2 22  1  1
  3  4  1  0
  3 23  1  0
  3 24  1  0
  4  5  1  0
  4 14  1  0
  5  6  2  0
  5  7  1  0
  7  8  1  0
  7 25  1  0
  8  9  1  0
  8 11  1  0
  8 26  1  1
  9 10  1  0
  9 27  1  0
  9 28  1  0
 10 29  1  0
 11 12  2  0
 11 13  1  0
 13 30  1  0
 14 15  1  0
 14 31  1  0
 14 32  1  0
 15 16  1  0
 15 18  1  0
 15 33  1  1
 16 17  1  0
 16 34  1  0
 16 35  1  0
 17 36  1  0
M  END

