
     RDKit          3D

 33 33  0  0  0  0  0  0  0  0999 V2000
   13.1657    5.7434    4.7987 C   0  0  0  0  0  0  0  0  0  0  0  0
   12.4186    6.2070    3.5866 C   0  0  0  0  0  0  0  0  0  0  0  0
   12.5950    5.7424    2.3829 N   0  0  0  0  0  0  0  0  0  0  0  0
   11.7708    6.3484    1.4614 C   0  0  0  0  0  0  0  0  0  0  0  0
   11.8869    5.9270    0.0192 C   0  0  0  0  0  0  0  0  0  0  0  0
   12.0004    4.4840   -0.0829 N   0  0  0  0  0  0  0  0  0  0  0  0
   11.3220    3.7529   -1.0050 C   0  0  0  0  0  0  0  0  0  0  0  0
   10.6405    4.2793   -1.9015 O   0  0  0  0  0  0  0  0  0  0  0  0
   11.4402    2.3928   -0.9082 N   0  0  0  0  0  0  0  0  0  0  0  0
   10.8363    1.5001   -1.8888 C   0  0  2  0  0  0  0  0  0  0  0  0
   11.0314    1.9110   -2.8938 H   0  0  0  0  0  0  0  0  0  0  0  0
    9.3005    1.4339   -1.6993 C   0  0  0  0  0  0  0  0  0  0  0  0
    8.7354    0.4222   -1.3402 O   0  0  0  0  0  0  0  0  0  0  0  0
    8.6527    2.5616   -1.9417 O   0  0  0  0  0  0  0  0  0  0  0  0
   11.4588    0.0966   -1.7563 C   0  0  1  0  0  0  0  0  0  0  0  0
   10.9209   -0.5559   -2.4687 H   0  0  0  0  0  0  0  0  0  0  0  0
   12.9452    0.0640   -2.0801 C   0  0  0  0  0  0  0  0  0  0  0  0
   11.2764   -0.3672   -0.4298 O   0  0  0  0  0  0  0  0  0  0  0  0
   10.9336    7.3040    1.9726 C   0  0  0  0  0  0  0  0  0  0  0  0
   11.1936    7.4637    3.6775 S   0  0  0  0  0  0  0  0  0  0  0  0
   13.8664    4.9532    4.4975 H   0  0  0  0  0  0  0  0  0  0  0  0
   12.4845    5.3402    5.5654 H   0  0  0  0  0  0  0  0  0  0  0  0
   13.7372    6.5646    5.2605 H   0  0  0  0  0  0  0  0  0  0  0  0
   12.7728    6.4145   -0.4319 H   0  0  0  0  0  0  0  0  0  0  0  0
   11.0143    6.2449   -0.5658 H   0  0  0  0  0  0  0  0  0  0  0  0
   12.5915    4.0320    0.6071 H   0  0  0  0  0  0  0  0  0  0  0  0
   11.7201    1.9450   -0.0395 H   0  0  0  0  0  0  0  0  0  0  0  0
    9.3064    3.3028   -2.1027 H   0  0  0  0  0  0  0  0  0  0  0  0
   13.1287    0.3766   -3.1198 H   0  0  0  0  0  0  0  0  0  0  0  0
   13.3276   -0.9586   -1.9473 H   0  0  0  0  0  0  0  0  0  0  0  0
   13.5128    0.7308   -1.4136 H   0  0  0  0  0  0  0  0  0  0  0  0
   10.3137   -0.4752   -0.3331 H   0  0  0  0  0  0  0  0  0  0  0  0
   10.1926    7.9055    1.4491 H   0  0  0  0  0  0  0  0  0  0  0  0
  1  2  1  0
  1 21  1  0
  1 22  1  0
  1 23  1  0
  2  3  2  0
  2 20  1  0
  3  4  1  0
  4  5  1  0
  4 19  2  0
  5  6  1  0
  5 24  1  0
  5 25  1  0
  6  7  1  0
  6 26  1  0
  7  8  2  0
  7  9  1  0
  9 10  1  0
  9 27  1  0
 10 11  1  6
 10 12  1  0
 10 15  1  0
 12 13  2  0
 12 14  1  0
 14 28  1  0
 15 16  1  6
 15 17  1  0
 15 18  1  0
 17 29  1  0
 17 30  1  0
 17 31  1  0
 18 32  1  0
 19 20  1  0
 19 33  1  0
M  END

