
     RDKit          3D

 38 39  0  0  0  0  0  0  0  0999 V2000
    3.6506    4.3782    2.1844 C   0  0  0  0  0  0  0  0  0  0  0  0
    3.6082    2.9974    2.4265 O   0  0  0  0  0  0  0  0  0  0  0  0
    3.7798    2.6448    3.7820 C   0  0  0  0  0  0  0  0  0  0  0  0
    3.7116    1.1234    3.8915 C   0  0  0  0  0  0  0  0  0  0  0  0
    4.6060    0.3882    2.9962 N   0  0  0  0  0  0  0  0  0  0  0  0
    6.0364    0.6880    3.1368 C   0  0  0  0  0  0  0  0  0  0  0  0
    6.5889    0.2880    4.4727 C   0  0  0  0  0  0  0  0  0  0  0  0
    6.7701    1.1267    5.4755 N   0  0  0  0  0  0  0  0  0  0  0  0
    7.2431    0.3773    6.5201 C   0  0  0  0  0  0  0  0  0  0  0  0
    7.3511   -0.9422    6.1474 C   0  0  0  0  0  0  0  0  0  0  0  0
    6.9305   -0.9974    4.8334 N   0  0  0  0  0  0  0  0  0  0  0  0
    6.8814   -2.2083    4.0194 C   0  0  0  0  0  0  0  0  0  0  0  0
    5.7726   -3.1697    4.4096 C   0  0  0  0  0  0  0  0  0  0  0  0
    4.4310   -2.8372    4.1572 C   0  0  0  0  0  0  0  0  0  0  0  0
    3.4088   -3.7125    4.5144 C   0  0  0  0  0  0  0  0  0  0  0  0
    3.7127   -4.9426    5.1308 C   0  0  0  0  0  0  0  0  0  0  0  0
    2.6593   -5.8486    5.4975 C   0  0  0  0  0  0  0  0  0  0  0  0
    1.8081   -6.5809    5.7933 N   0  0  0  0  0  0  0  0  0  0  0  0
    5.0542   -5.2806    5.3811 C   0  0  0  0  0  0  0  0  0  0  0  0
    6.0704   -4.3955    5.0203 C   0  0  0  0  0  0  0  0  0  0  0  0
    3.5287    4.5372    1.1026 H   0  0  0  0  0  0  0  0  0  0  0  0
    4.6144    4.8261    2.5012 H   0  0  0  0  0  0  0  0  0  0  0  0
    2.8379    4.9175    2.7125 H   0  0  0  0  0  0  0  0  0  0  0  0
    2.9859    3.0948    4.4148 H   0  0  0  0  0  0  0  0  0  0  0  0
    4.7485    3.0212    4.1674 H   0  0  0  0  0  0  0  0  0  0  0  0
    2.6838    0.7946    3.6640 H   0  0  0  0  0  0  0  0  0  0  0  0
    3.9204    0.8400    4.9356 H   0  0  0  0  0  0  0  0  0  0  0  0
    4.3307    0.6021    2.0375 H   0  0  0  0  0  0  0  0  0  0  0  0
    6.2777    1.7599    3.0147 H   0  0  0  0  0  0  0  0  0  0  0  0
    6.5634    0.1568    2.3265 H   0  0  0  0  0  0  0  0  0  0  0  0
    7.4862    0.8216    7.4848 H   0  0  0  0  0  0  0  0  0  0  0  0
    7.6845   -1.8284    6.6821 H   0  0  0  0  0  0  0  0  0  0  0  0
    7.8564   -2.7152    4.0912 H   0  0  0  0  0  0  0  0  0  0  0  0
    6.7531   -1.8994    2.9734 H   0  0  0  0  0  0  0  0  0  0  0  0
    4.2065   -1.8788    3.6752 H   0  0  0  0  0  0  0  0  0  0  0  0
    2.3668   -3.4538    4.3158 H   0  0  0  0  0  0  0  0  0  0  0  0
    5.2929   -6.2341    5.8560 H   0  0  0  0  0  0  0  0  0  0  0  0
    7.1114   -4.6678    5.2153 H   0  0  0  0  0  0  0  0  0  0  0  0
  1  2  1  0
  1 21  1  0
  1 22  1  0
  1 23  1  0
  2  3  1  0
  3  4  1  0
  3 24  1  0
  3 25  1  0
  4  5  1  0
  4 26  1  0
  4 27  1  0
  5  6  1  0
  5 28  1  0
  6  7  1  0
  6 29  1  0
  6 30  1  0
  7  8  2  0
  7 11  1  0
  8  9  1  0
  9 10  2  0
  9 31  1  0
 10 11  1  0
 10 32  1  0
 11 12  1  0
 12 13  1  0
 12 33  1  0
 12 34  1  0
 13 14  2  0
 13 20  1  0
 14 15  1  0
 14 35  1  0
 15 16  2  0
 15 36  1  0
 16 17  1  0
 16 19  1  0
 17 18  3  0
 19 20  2  0
 19 37  1  0
 20 38  1  0
M  END

