
     RDKit          3D

 39 40  0  0  0  0  0  0  0  0999 V2000
    1.4135   -0.3200   -0.1999 C   0  0  0  0  0  0  0  0  0  0  0  0
    2.9371   -0.1658   -0.1271 C   0  0  1  0  0  0  0  0  0  0  0  0
    3.6404   -0.8852   -1.2832 C   0  0  0  0  0  0  0  0  0  0  0  0
    3.3074    1.3157   -0.0741 C   0  0  0  0  0  0  0  0  0  0  0  0
    4.7093    1.4332    0.1253 O   0  0  0  0  0  0  0  0  0  0  0  0
    5.2891    2.6510    0.1996 C   0  0  0  0  0  0  0  0  0  0  0  0
    4.5943    3.8702    0.0870 C   0  0  0  0  0  0  0  0  0  0  0  0
    5.2950    5.0703    0.1786 C   0  0  0  0  0  0  0  0  0  0  0  0
    6.6857    5.0973    0.3782 C   0  0  0  0  0  0  0  0  0  0  0  0
    7.3607    6.4280    0.4339 C   0  0  0  0  0  0  0  0  0  0  0  0
    6.7137    7.4602    0.3953 O   0  0  0  0  0  0  0  0  0  0  0  0
    8.8979    6.4770    0.5037 C   0  0  1  0  0  0  0  0  0  0  0  0
    9.4976    7.9101    0.4606 C   0  0  0  0  0  0  0  0  0  0  0  0
   10.6102    7.9031    1.5374 C   0  0  0  0  0  0  0  0  0  0  0  0
   10.7495    6.4120    1.9115 C   0  0  0  0  0  0  0  0  0  0  0  0
    9.4254    5.8165    1.7146 N   0  0  0  0  0  0  0  0  0  0  0  0
    7.3689    3.8680    0.4950 C   0  0  0  0  0  0  0  0  0  0  0  0
    6.6815    2.6647    0.4088 C   0  0  0  0  0  0  0  0  0  0  0  0
    1.1278   -1.3835   -0.2012 H   0  0  0  0  0  0  0  0  0  0  0  0
    1.0099    0.1307   -1.1230 H   0  0  0  0  0  0  0  0  0  0  0  0
    0.9108    0.1596    0.6559 H   0  0  0  0  0  0  0  0  0  0  0  0
    3.2877   -0.6113    0.8217 H   0  0  0  0  0  0  0  0  0  0  0  0
    3.3097   -0.4834   -2.2569 H   0  0  0  0  0  0  0  0  0  0  0  0
    3.4133   -1.9631   -1.2724 H   0  0  0  0  0  0  0  0  0  0  0  0
    4.7315   -0.7636   -1.2199 H   0  0  0  0  0  0  0  0  0  0  0  0
    2.7690    1.8168    0.7518 H   0  0  0  0  0  0  0  0  0  0  0  0
    3.0161    1.8169   -1.0177 H   0  0  0  0  0  0  0  0  0  0  0  0
    3.5163    3.8893   -0.0726 H   0  0  0  0  0  0  0  0  0  0  0  0
    4.7708    6.0241    0.0910 H   0  0  0  0  0  0  0  0  0  0  0  0
    9.2685    5.9016   -0.3661 H   0  0  0  0  0  0  0  0  0  0  0  0
    8.7126    8.6482    0.6740 H   0  0  0  0  0  0  0  0  0  0  0  0
    9.8931    8.1371   -0.5413 H   0  0  0  0  0  0  0  0  0  0  0  0
   10.2974    8.4835    2.4213 H   0  0  0  0  0  0  0  0  0  0  0  0
   11.5560    8.3411    1.1826 H   0  0  0  0  0  0  0  0  0  0  0  0
   11.1044    6.2378    2.9390 H   0  0  0  0  0  0  0  0  0  0  0  0
   11.4620    5.9133    1.2300 H   0  0  0  0  0  0  0  0  0  0  0  0
    8.8326    6.0585    2.5112 H   0  0  0  0  0  0  0  0  0  0  0  0
    8.4407    3.8679    0.6991 H   0  0  0  0  0  0  0  0  0  0  0  0
    7.1988    1.7081    0.5061 H   0  0  0  0  0  0  0  0  0  0  0  0
  1  2  1  0
  1 19  1  0
  1 20  1  0
  1 21  1  0
  2  3  1  0
  2  4  1  0
  2 22  1  1
  3 23  1  0
  3 24  1  0
  3 25  1  0
  4  5  1  0
  4 26  1  0
  4 27  1  0
  5  6  1  0
  6  7  2  0
  6 18  1  0
  7  8  1  0
  7 28  1  0
  8  9  2  0
  8 29  1  0
  9 10  1  0
  9 17  1  0
 10 11  2  0
 10 12  1  0
 12 13  1  0
 12 16  1  0
 12 30  1  6
 13 14  1  0
 13 31  1  0
 13 32  1  0
 14 15  1  0
 14 33  1  0
 14 34  1  0
 15 16  1  0
 15 35  1  0
 15 36  1  0
 16 37  1  0
 17 18  2  0
 17 38  1  0
 18 39  1  0
M  END

