
     RDKit          3D

 45 46  0  0  0  0  0  0  0  0999 V2000
    6.8328    2.9856    1.7051 C   0  0  0  0  0  0  0  0  0  0  0  0
    6.0267    1.8378    1.5746 O   0  0  0  0  0  0  0  0  0  0  0  0
    4.6705    1.9418    1.6622 C   0  0  0  0  0  0  0  0  0  0  0  0
    4.0297    3.1708    1.8914 C   0  0  0  0  0  0  0  0  0  0  0  0
    2.6406    3.2369    2.0206 C   0  0  0  0  0  0  0  0  0  0  0  0
    1.8815    2.0728    1.9307 C   0  0  0  0  0  0  0  0  0  0  0  0
    2.5250    0.8556    1.6912 C   0  0  0  0  0  0  0  0  0  0  0  0
    3.9146    0.7492    1.5233 C   0  0  0  0  0  0  0  0  0  0  0  0
    4.5330   -0.6521    1.3349 C   0  0  1  0  0  0  0  0  0  0  0  0
    5.8605   -0.7355    0.5322 C   0  0  0  0  0  0  0  0  0  0  0  0
    4.8061   -1.2225    2.7461 C   0  0  0  0  0  0  0  0  0  0  0  0
    3.5234   -1.6115    0.6287 C   0  0  0  0  0  0  0  0  0  0  0  0
    3.1711   -2.6403    1.1892 O   0  0  0  0  0  0  0  0  0  0  0  0
    3.0818   -1.3225   -0.6468 N   0  0  0  0  0  0  0  0  0  0  0  0
    3.3211   -0.1192   -1.4418 C   0  0  0  0  0  0  0  0  0  0  0  0
    3.8958   -0.4700   -2.8215 C   0  0  0  0  0  0  0  0  0  0  0  0
    3.0360   -1.4994   -3.5725 C   0  0  2  0  0  0  0  0  0  0  0  0
    1.7609   -0.8617   -4.1407 C   0  0  0  0  0  0  0  0  0  0  0  0
    1.4513    0.2909   -4.0044 O   0  0  0  0  0  0  0  0  0  0  0  0
    0.9650   -1.6930   -4.8550 O   0  0  0  0  0  0  0  0  0  0  0  0
    2.7362   -2.7083   -2.6539 C   0  0  0  0  0  0  0  0  0  0  0  0
    2.1785   -2.2689   -1.2966 C   0  0  0  0  0  0  0  0  0  0  0  0
    7.8732    2.6484    1.6010 H   0  0  0  0  0  0  0  0  0  0  0  0
    6.7109    3.4661    2.6925 H   0  0  0  0  0  0  0  0  0  0  0  0
    6.6202    3.7326    0.9190 H   0  0  0  0  0  0  0  0  0  0  0  0
    4.6157    4.0850    1.9807 H   0  0  0  0  0  0  0  0  0  0  0  0
    2.1616    4.2027    2.1996 H   0  0  0  0  0  0  0  0  0  0  0  0
    0.7957    2.1036    2.0456 H   0  0  0  0  0  0  0  0  0  0  0  0
    1.9190   -0.0519    1.6346 H   0  0  0  0  0  0  0  0  0  0  0  0
    6.7039   -0.3853    1.1373 H   0  0  0  0  0  0  0  0  0  0  0  0
    5.8544   -0.1428   -0.3920 H   0  0  0  0  0  0  0  0  0  0  0  0
    6.0477   -1.7877    0.2644 H   0  0  0  0  0  0  0  0  0  0  0  0
    5.5011   -0.5548    3.2772 H   0  0  0  0  0  0  0  0  0  0  0  0
    5.2490   -2.2267    2.6828 H   0  0  0  0  0  0  0  0  0  0  0  0
    3.8781   -1.3041    3.3274 H   0  0  0  0  0  0  0  0  0  0  0  0
    3.9937    0.5612   -0.9143 H   0  0  0  0  0  0  0  0  0  0  0  0
    2.3674    0.4209   -1.5738 H   0  0  0  0  0  0  0  0  0  0  0  0
    4.9086   -0.8874   -2.6948 H   0  0  0  0  0  0  0  0  0  0  0  0
    3.9832    0.4497   -3.4185 H   0  0  0  0  0  0  0  0  0  0  0  0
    3.5994   -1.8626   -4.4526 H   0  0  0  0  0  0  0  0  0  0  0  0
    1.3475   -2.5810   -4.8952 H   0  0  0  0  0  0  0  0  0  0  0  0
    3.6735   -3.2653   -2.4917 H   0  0  0  0  0  0  0  0  0  0  0  0
    2.0322   -3.4164   -3.1248 H   0  0  0  0  0  0  0  0  0  0  0  0
    2.0536   -3.1254   -0.6242 H   0  0  0  0  0  0  0  0  0  0  0  0
    1.1863   -1.7950   -1.4306 H   0  0  0  0  0  0  0  0  0  0  0  0
  1  2  1  0
  1 23  1  0
  1 24  1  0
  1 25  1  0
  2  3  1  0
  3  4  2  0
  3  8  1  0
  4  5  1  0
  4 26  1  0
  5  6  2  0
  5 27  1  0
  6  7  1  0
  6 28  1  0
  7  8  2  0
  7 29  1  0
  8  9  1  0
  9 10  1  0
  9 11  1  0
  9 12  1  6
 10 30  1  0
 10 31  1  0
 10 32  1  0
 11 33  1  0
 11 34  1  0
 11 35  1  0
 12 13  2  0
 12 14  1  0
 14 15  1  0
 14 22  1  0
 15 16  1  0
 15 36  1  0
 15 37  1  0
 16 17  1  0
 16 38  1  0
 16 39  1  0
 17 18  1  0
 17 21  1  0
 17 40  1  6
 18 19  2  0
 18 20  1  0
 20 41  1  0
 21 22  1  0
 21 42  1  0
 21 43  1  0
 22 44  1  0
 22 45  1  0
M  END

