
     RDKit          3D

 40 42  0  0  0  0  0  0  0  0999 V2000
    2.0195    2.1025    0.5949 C   0  0  0  0  0  0  0  0  0  0  0  0
    1.6143    1.2865    1.8221 C   0  0  0  0  0  0  0  0  0  0  0  0
    2.2319   -0.1282    1.8754 C   0  0  0  0  0  0  0  0  0  0  0  0
    3.7227   -0.1445    2.0592 C   0  0  0  0  0  0  0  0  0  0  0  0
    4.5977   -0.1291    1.0945 N   0  0  0  0  0  0  0  0  0  0  0  0
    5.8885   -0.1027    1.5653 C   0  0  0  0  0  0  0  0  0  0  0  0
    7.0147   -0.0752    0.5577 C   0  0  0  0  0  0  0  0  0  0  0  0
    8.3380   -0.1671    1.1392 N   0  0  0  0  0  0  0  0  0  0  0  0
    9.1025    0.9247    1.4996 C   0  0  0  0  0  0  0  0  0  0  0  0
   10.2531    0.4709    2.1093 C   0  0  0  0  0  0  0  0  0  0  0  0
   10.1824   -0.9527    2.1303 C   0  0  0  0  0  0  0  0  0  0  0  0
    8.9922   -1.3250    1.5279 C   0  0  0  0  0  0  0  0  0  0  0  0
    8.4279   -2.6993    1.3074 C   0  0  0  0  0  0  0  0  0  0  0  0
    9.4689   -3.7093    1.4059 N   0  0  0  0  0  0  0  0  0  0  0  0
    9.0118   -5.0609    1.2789 C   0  0  1  0  0  0  0  0  0  0  0  0
    9.8720   -6.1479    1.8639 C   0  0  0  0  0  0  0  0  0  0  0  0
    8.5708   -5.7784    2.5312 C   0  0  0  0  0  0  0  0  0  0  0  0
    6.0168   -0.0955    2.9305 C   0  0  0  0  0  0  0  0  0  0  0  0
    4.4493   -0.1272    3.6624 S   0  0  0  0  0  0  0  0  0  0  0  0
    1.5645    3.1055    0.6206 H   0  0  0  0  0  0  0  0  0  0  0  0
    1.6930    1.6094   -0.3358 H   0  0  0  0  0  0  0  0  0  0  0  0
    3.1117    2.2255    0.5316 H   0  0  0  0  0  0  0  0  0  0  0  0
    0.5164    1.1758    1.8474 H   0  0  0  0  0  0  0  0  0  0  0  0
    1.8876    1.8292    2.7441 H   0  0  0  0  0  0  0  0  0  0  0  0
    2.0139   -0.6630    0.9366 H   0  0  0  0  0  0  0  0  0  0  0  0
    1.7601   -0.6975    2.6925 H   0  0  0  0  0  0  0  0  0  0  0  0
    6.9548    0.8584   -0.0252 H   0  0  0  0  0  0  0  0  0  0  0  0
    6.8623   -0.8920   -0.1654 H   0  0  0  0  0  0  0  0  0  0  0  0
    8.7587    1.9343    1.2832 H   0  0  0  0  0  0  0  0  0  0  0  0
   11.0614    1.0926    2.4903 H   0  0  0  0  0  0  0  0  0  0  0  0
   10.9129   -1.6489    2.5353 H   0  0  0  0  0  0  0  0  0  0  0  0
    7.8869   -2.7335    0.3329 H   0  0  0  0  0  0  0  0  0  0  0  0
    7.6603   -2.9315    2.0697 H   0  0  0  0  0  0  0  0  0  0  0  0
   10.2131   -3.5110    0.7376 H   0  0  0  0  0  0  0  0  0  0  0  0
    8.4565   -5.3214    0.3601 H   0  0  0  0  0  0  0  0  0  0  0  0
   10.7956   -5.8278    2.3537 H   0  0  0  0  0  0  0  0  0  0  0  0
    9.9384   -7.1006    1.3312 H   0  0  0  0  0  0  0  0  0  0  0  0
    8.6301   -5.2116    3.4642 H   0  0  0  0  0  0  0  0  0  0  0  0
    7.7298   -6.4743    2.4637 H   0  0  0  0  0  0  0  0  0  0  0  0
    6.9318   -0.0811    3.5195 H   0  0  0  0  0  0  0  0  0  0  0  0
  1  2  1  0
  1 20  1  0
  1 21  1  0
  1 22  1  0
  2  3  1  0
  2 23  1  0
  2 24  1  0
  3  4  1  0
  3 25  1  0
  3 26  1  0
  4  5  2  0
  4 19  1  0
  5  6  1  0
  6  7  1  0
  6 18  2  0
  7  8  1  0
  7 27  1  0
  7 28  1  0
  8  9  1  0
  8 12  1  0
  9 10  2  0
  9 29  1  0
 10 11  1  0
 10 30  1  0
 11 12  2  0
 11 31  1  0
 12 13  1  0
 13 14  1  0
 13 32  1  0
 13 33  1  0
 14 15  1  0
 14 34  1  0
 15 16  1  0
 15 17  1  0
 15 35  1  6
 16 17  1  0
 16 36  1  0
 16 37  1  0
 17 38  1  0
 17 39  1  0
 18 19  1  0
 18 40  1  0
M  END

