
     RDKit          3D

 38 37  0  0  0  0  0  0  0  0999 V2000
    2.2699    0.6269   -3.6125 N   0  0  0  0  0  0  0  0  0  0  0  0
    3.2888    0.5898   -2.5706 C   0  0  1  0  0  0  0  0  0  0  0  0
    3.7928    1.9521   -2.0564 C   0  0  0  0  0  0  0  0  0  0  0  0
    2.7264    2.8103   -1.3805 C   0  0  0  0  0  0  0  0  0  0  0  0
    3.2036    4.2093   -1.0659 C   0  0  0  0  0  0  0  0  0  0  0  0
    4.2396    4.7053   -1.4423 O   0  0  0  0  0  0  0  0  0  0  0  0
    2.3077    4.8667   -0.3022 O   0  0  0  0  0  0  0  0  0  0  0  0
    2.5900    6.2361   -0.0690 C   0  0  0  0  0  0  0  0  0  0  0  0
    2.4526    7.0795   -1.3331 C   0  0  0  0  0  0  0  0  0  0  0  0
    1.8514    6.6761   -2.3055 O   0  0  0  0  0  0  0  0  0  0  0  0
    3.1859    8.4232   -1.3235 C   0  0  1  0  0  0  0  0  0  0  0  0
    4.5214    8.2290   -1.9001 N   0  0  0  0  0  0  0  0  0  0  0  0
    2.4485    9.5066   -2.1192 C   0  0  0  0  0  0  0  0  0  0  0  0
    0.9673    9.7262   -1.7534 C   0  0  0  0  0  0  0  0  0  0  0  0
    0.7168    9.9153   -0.2642 C   0  0  0  0  0  0  0  0  0  0  0  0
    0.9745    9.0715    0.5576 O   0  0  0  0  0  0  0  0  0  0  0  0
    0.1812   11.0899    0.1263 O   0  0  0  0  0  0  0  0  0  0  0  0
    2.8871   -0.3318   -1.3877 C   0  0  0  0  0  0  0  0  0  0  0  0
    3.3276   -0.1652   -0.2786 O   0  0  0  0  0  0  0  0  0  0  0  0
    1.8077   -1.7146   -1.7694 S   0  0  0  0  0  0  0  0  0  0  0  0
    2.6495    0.9964   -4.4830 H   0  0  0  0  0  0  0  0  0  0  0  0
    1.4811    1.2183   -3.3490 H   0  0  0  0  0  0  0  0  0  0  0  0
    4.1601    0.0667   -3.0070 H   0  0  0  0  0  0  0  0  0  0  0  0
    4.2218    2.5075   -2.9057 H   0  0  0  0  0  0  0  0  0  0  0  0
    4.6169    1.7770   -1.3495 H   0  0  0  0  0  0  0  0  0  0  0  0
    2.3653    2.3506   -0.4475 H   0  0  0  0  0  0  0  0  0  0  0  0
    1.8350    2.9416   -2.0209 H   0  0  0  0  0  0  0  0  0  0  0  0
    3.5909    6.3635    0.3727 H   0  0  0  0  0  0  0  0  0  0  0  0
    1.8420    6.6057    0.6486 H   0  0  0  0  0  0  0  0  0  0  0  0
    3.3151    8.7518   -0.2812 H   0  0  0  0  0  0  0  0  0  0  0  0
    4.4353    7.7911   -2.8197 H   0  0  0  0  0  0  0  0  0  0  0  0
    5.0695    7.5775   -1.3371 H   0  0  0  0  0  0  0  0  0  0  0  0
    2.4814    9.2313   -3.1856 H   0  0  0  0  0  0  0  0  0  0  0  0
    3.0215   10.4415   -2.0134 H   0  0  0  0  0  0  0  0  0  0  0  0
    0.3945    8.8339   -2.0522 H   0  0  0  0  0  0  0  0  0  0  0  0
    0.5717   10.5719   -2.3399 H   0  0  0  0  0  0  0  0  0  0  0  0
    0.0296   11.6627   -0.6382 H   0  0  0  0  0  0  0  0  0  0  0  0
    1.6213   -1.2956   -3.0508 H   0  0  0  0  0  0  0  0  0  0  0  0
  1  2  1  0
  1 21  1  0
  1 22  1  0
  2  3  1  0
  2 18  1  0
  2 23  1  6
  3  4  1  0
  3 24  1  0
  3 25  1  0
  4  5  1  0
  4 26  1  0
  4 27  1  0
  5  6  2  0
  5  7  1  0
  7  8  1  0
  8  9  1  0
  8 28  1  0
  8 29  1  0
  9 10  2  0
  9 11  1  0
 11 12  1  0
 11 13  1  0
 11 30  1  1
 12 31  1  0
 12 32  1  0
 13 14  1  0
 13 33  1  0
 13 34  1  0
 14 15  1  0
 14 35  1  0
 14 36  1  0
 15 16  2  0
 15 17  1  0
 17 37  1  0
 18 19  2  0
 18 20  1  0
 20 38  1  0
M  END

