
     RDKit          3D

 67 68  0  0  0  0  0  0  0  0999 V2000
    1.8147    0.5295   -1.1253 C   0  0  0  0  0  0  0  0  0  0  0  0
    3.2389    0.6567   -0.5822 C   0  0  0  0  0  0  0  0  0  0  0  0
    3.3108    0.5969    0.9486 C   0  0  0  0  0  0  0  0  0  0  0  0
    4.7288    0.6673    1.5335 C   0  0  0  0  0  0  0  0  0  0  0  0
    5.4452    2.0271    1.4026 C   0  0  1  0  0  0  0  0  0  0  0  0
    4.8679    3.0562    2.3897 C   0  0  0  0  0  0  0  0  0  0  0  0
    5.2858    4.4220    2.0653 N   0  0  0  0  0  0  0  0  0  0  0  0
    4.5462    5.3140    2.8891 O   0  0  0  0  0  0  0  0  0  0  0  0
    5.4044    6.2793    3.4863 C   0  0  0  0  0  0  0  0  0  0  0  0
    4.5648    7.2553    4.2744 C   0  0  0  0  0  0  0  0  0  0  0  0
    5.0117    7.7353    5.5133 C   0  0  0  0  0  0  0  0  0  0  0  0
    4.2633    8.6770    6.2261 C   0  0  0  0  0  0  0  0  0  0  0  0
    3.0490    9.1400    5.7129 C   0  0  0  0  0  0  0  0  0  0  0  0
    2.5899    8.6579    4.4825 C   0  0  0  0  0  0  0  0  0  0  0  0
    3.3435    7.7252    3.7665 C   0  0  0  0  0  0  0  0  0  0  0  0
    6.9782    1.8313    1.4811 C   0  0  0  0  0  0  0  0  0  0  0  0
    7.5008    0.7749    1.1457 O   0  0  0  0  0  0  0  0  0  0  0  0
    7.6993    2.9098    1.8989 N   0  0  0  0  0  0  0  0  0  0  0  0
    9.1574    2.9131    1.9520 C   0  0  1  0  0  0  0  0  0  0  0  0
    9.6343    3.9614    0.9206 C   0  0  0  0  0  0  0  0  0  0  0  0
    9.7937    5.1272    1.2378 O   0  0  0  0  0  0  0  0  0  0  0  0
    9.8500    3.5325   -0.5022 C   0  0  0  0  0  0  0  0  0  0  0  0
    9.5627    2.2423   -0.9884 C   0  0  0  0  0  0  0  0  0  0  0  0
    9.7909    1.9237   -2.3284 C   0  0  0  0  0  0  0  0  0  0  0  0
   10.3144    2.8969   -3.1766 C   0  0  0  0  0  0  0  0  0  0  0  0
   10.5408    2.5908   -4.4591 F   0  0  0  0  0  0  0  0  0  0  0  0
   10.6068    4.1859   -2.7265 C   0  0  0  0  0  0  0  0  0  0  0  0
   10.3667    4.4955   -1.3921 C   0  0  0  0  0  0  0  0  0  0  0  0
    9.7352    3.0749    3.3969 C   0  0  1  0  0  0  0  0  0  0  0  0
    9.3435    1.8180    4.1991 C   0  0  0  0  0  0  0  0  0  0  0  0
   11.2721    3.1504    3.3104 C   0  0  0  0  0  0  0  0  0  0  0  0
    9.1902    4.3200    4.1210 C   0  0  0  0  0  0  0  0  0  0  0  0
    1.7957    0.5702   -2.2261 H   0  0  0  0  0  0  0  0  0  0  0  0
    1.1677    1.3408   -0.7511 H   0  0  0  0  0  0  0  0  0  0  0  0
    1.3536   -0.4246   -0.8197 H   0  0  0  0  0  0  0  0  0  0  0  0
    3.6798    1.6022   -0.9469 H   0  0  0  0  0  0  0  0  0  0  0  0
    3.8699   -0.1471   -1.0024 H   0  0  0  0  0  0  0  0  0  0  0  0
    2.8532   -0.3513    1.2823 H   0  0  0  0  0  0  0  0  0  0  0  0
    2.6717    1.3920    1.3756 H   0  0  0  0  0  0  0  0  0  0  0  0
    5.3652   -0.0865    1.0478 H   0  0  0  0  0  0  0  0  0  0  0  0
    4.6980    0.3938    2.6032 H   0  0  0  0  0  0  0  0  0  0  0  0
    5.2721    2.4056    0.3754 H   0  0  0  0  0  0  0  0  0  0  0  0
    5.2087    2.8334    3.4142 H   0  0  0  0  0  0  0  0  0  0  0  0
    3.7655    2.9836    2.3953 H   0  0  0  0  0  0  0  0  0  0  0  0
    4.9806    4.6388    1.1107 H   0  0  0  0  0  0  0  0  0  0  0  0
    5.9719    6.8082    2.6952 H   0  0  0  0  0  0  0  0  0  0  0  0
    6.1449    5.7876    4.1425 H   0  0  0  0  0  0  0  0  0  0  0  0
    5.9556    7.3679    5.9266 H   0  0  0  0  0  0  0  0  0  0  0  0
    4.6271    9.0426    7.1899 H   0  0  0  0  0  0  0  0  0  0  0  0
    2.4592    9.8713    6.2715 H   0  0  0  0  0  0  0  0  0  0  0  0
    1.6381    9.0117    4.0775 H   0  0  0  0  0  0  0  0  0  0  0  0
    2.9809    7.3440    2.8097 H   0  0  0  0  0  0  0  0  0  0  0  0
    7.1856    3.7784    2.0766 H   0  0  0  0  0  0  0  0  0  0  0  0
    9.4626    1.9178    1.6084 H   0  0  0  0  0  0  0  0  0  0  0  0
    9.1291    1.4787   -0.3387 H   0  0  0  0  0  0  0  0  0  0  0  0
    9.5673    0.9311   -2.7238 H   0  0  0  0  0  0  0  0  0  0  0  0
   11.0143    4.9187   -3.4258 H   0  0  0  0  0  0  0  0  0  0  0  0
   10.5770    5.4935   -1.0034 H   0  0  0  0  0  0  0  0  0  0  0  0
    9.7449    0.9007    3.7394 H   0  0  0  0  0  0  0  0  0  0  0  0
    8.2503    1.7068    4.2650 H   0  0  0  0  0  0  0  0  0  0  0  0
    9.7359    1.8832    5.2268 H   0  0  0  0  0  0  0  0  0  0  0  0
   11.6858    2.2882    2.7603 H   0  0  0  0  0  0  0  0  0  0  0  0
   11.7106    3.1365    4.3211 H   0  0  0  0  0  0  0  0  0  0  0  0
   11.6093    4.0712    2.8129 H   0  0  0  0  0  0  0  0  0  0  0  0
    8.0948    4.2670    4.2310 H   0  0  0  0  0  0  0  0  0  0  0  0
    9.4409    5.2409    3.5793 H   0  0  0  0  0  0  0  0  0  0  0  0
    9.6147    4.3794    5.1366 H   0  0  0  0  0  0  0  0  0  0  0  0
  1  2  1  0
  1 33  1  0
  1 34  1  0
  1 35  1  0
  2  3  1  0
  2 36  1  0
  2 37  1  0
  3  4  1  0
  3 38  1  0
  3 39  1  0
  4  5  1  0
  4 40  1  0
  4 41  1  0
  5  6  1  0
  5 16  1  0
  5 42  1  6
  6  7  1  0
  6 43  1  0
  6 44  1  0
  7  8  1  0
  7 45  1  0
  8  9  1  0
  9 10  1  0
  9 46  1  0
  9 47  1  0
 10 11  2  0
 10 15  1  0
 11 12  1  0
 11 48  1  0
 12 13  2  0
 12 49  1  0
 13 14  1  0
 13 50  1  0
 14 15  2  0
 14 51  1  0
 15 52  1  0
 16 17  2  0
 16 18  1  0
 18 19  1  0
 18 53  1  0
 19 20  1  0
 19 29  1  0
 19 54  1  6
 20 21  2  0
 20 22  1  0
 22 23  2  0
 22 28  1  0
 23 24  1  0
 23 55  1  0
 24 25  2  0
 24 56  1  0
 25 26  1  0
 25 27  1  0
 27 28  2  0
 27 57  1  0
 28 58  1  0
 29 30  1  1
 29 31  1  0
 29 32  1  0
 30 59  1  0
 30 60  1  0
 30 61  1  0
 31 62  1  0
 31 63  1  0
 31 64  1  0
 32 65  1  0
 32 66  1  0
 32 67  1  0
M  END

