
     RDKit          3D

 56 58  0  0  0  0  0  0  0  0999 V2000
    1.2398    1.2699   -0.1477 C   0  0  0  0  0  0  0  0  0  0  0  0
    2.6623    0.9938   -0.0378 N   0  0  0  0  0  0  0  0  0  0  0  0
    3.0720    0.3422    1.1933 C   0  0  0  0  0  0  0  0  0  0  0  0
    3.4384    1.1223   -1.1695 C   0  0  0  0  0  0  0  0  0  0  0  0
    2.9519    1.3642   -2.2657 O   0  0  0  0  0  0  0  0  0  0  0  0
    4.9384    1.0000   -1.0334 C   0  0  0  0  0  0  0  0  0  0  0  0
    5.6698    1.6503   -0.0254 C   0  0  0  0  0  0  0  0  0  0  0  0
    7.0686    1.5996   -0.0152 C   0  0  0  0  0  0  0  0  0  0  0  0
    7.8770    2.3369    1.0482 C   0  0  0  0  0  0  0  0  0  0  0  0
    8.6990    3.4472    0.5830 N   0  0  0  0  0  0  0  0  0  0  0  0
    7.9839    4.5392   -0.0551 C   0  0  0  0  0  0  0  0  0  0  0  0
    8.8786    5.7315   -0.3345 C   0  0  0  0  0  0  0  0  0  0  0  0
    8.6461    6.5507   -1.4492 C   0  0  0  0  0  0  0  0  0  0  0  0
    9.4360    7.6752   -1.6922 C   0  0  0  0  0  0  0  0  0  0  0  0
   10.4831    7.9939   -0.8204 C   0  0  0  0  0  0  0  0  0  0  0  0
   11.3101    9.2328   -1.0480 C   0  0  1  0  0  0  0  0  0  0  0  0
   11.3631    9.5720   -2.3492 F   0  0  0  0  0  0  0  0  0  0  0  0
   10.8068   10.2970   -0.3894 F   0  0  0  0  0  0  0  0  0  0  0  0
   12.5765    9.0774   -0.6198 F   0  0  0  0  0  0  0  0  0  0  0  0
   10.7332    7.1777    0.2897 C   0  0  0  0  0  0  0  0  0  0  0  0
    9.9361    6.0584    0.5286 C   0  0  0  0  0  0  0  0  0  0  0  0
    7.7429    0.8826   -1.0137 C   0  0  0  0  0  0  0  0  0  0  0  0
    7.0230    0.2409   -2.0361 C   0  0  0  0  0  0  0  0  0  0  0  0
    7.6395   -0.4800   -3.0672 N   0  0  0  0  0  0  0  0  0  0  0  0
    8.9685   -0.6928   -3.2982 C   0  0  0  0  0  0  0  0  0  0  0  0
    9.8943   -0.2827   -2.6139 O   0  0  0  0  0  0  0  0  0  0  0  0
    9.2151   -1.5244   -4.5408 C   0  0  0  0  0  0  0  0  0  0  0  0
   10.5320   -1.8222   -4.9091 C   0  0  0  0  0  0  0  0  0  0  0  0
   10.7379   -2.5872   -6.0576 C   0  0  0  0  0  0  0  0  0  0  0  0
    9.6281   -3.0212   -6.7870 C   0  0  0  0  0  0  0  0  0  0  0  0
    8.3512   -2.6700   -6.3343 C   0  0  0  0  0  0  0  0  0  0  0  0
    8.1497   -1.9394   -5.2376 N   0  0  0  0  0  0  0  0  0  0  0  0
    5.6196    0.3186   -2.0438 C   0  0  0  0  0  0  0  0  0  0  0  0
    0.9035    1.8656    0.7178 H   0  0  0  0  0  0  0  0  0  0  0  0
    0.6476    0.3360   -0.1713 H   0  0  0  0  0  0  0  0  0  0  0  0
    1.0524    1.8219   -1.0756 H   0  0  0  0  0  0  0  0  0  0  0  0
    2.4095   -0.5176    1.4025 H   0  0  0  0  0  0  0  0  0  0  0  0
    3.0097    1.0278    2.0579 H   0  0  0  0  0  0  0  0  0  0  0  0
    4.0982   -0.0332    1.1202 H   0  0  0  0  0  0  0  0  0  0  0  0
    5.1469    2.2221    0.7454 H   0  0  0  0  0  0  0  0  0  0  0  0
    8.5476    1.6198    1.5509 H   0  0  0  0  0  0  0  0  0  0  0  0
    7.1890    2.7192    1.8220 H   0  0  0  0  0  0  0  0  0  0  0  0
    9.4477    3.1127   -0.0234 H   0  0  0  0  0  0  0  0  0  0  0  0
    7.1815    4.8582    0.6384 H   0  0  0  0  0  0  0  0  0  0  0  0
    7.4649    4.2518   -0.9937 H   0  0  0  0  0  0  0  0  0  0  0  0
    7.8377    6.3017   -2.1425 H   0  0  0  0  0  0  0  0  0  0  0  0
    9.2482    8.2992   -2.5680 H   0  0  0  0  0  0  0  0  0  0  0  0
   11.5582    7.4168    0.9640 H   0  0  0  0  0  0  0  0  0  0  0  0
   10.1308    5.4110    1.3857 H   0  0  0  0  0  0  0  0  0  0  0  0
    8.8301    0.8164   -1.0196 H   0  0  0  0  0  0  0  0  0  0  0  0
    7.0401   -0.9130   -3.7700 H   0  0  0  0  0  0  0  0  0  0  0  0
   11.3506   -1.4494   -4.2923 H   0  0  0  0  0  0  0  0  0  0  0  0
   11.7504   -2.8419   -6.3809 H   0  0  0  0  0  0  0  0  0  0  0  0
    9.7435   -3.6215   -7.6921 H   0  0  0  0  0  0  0  0  0  0  0  0
    7.4584   -2.9927   -6.8814 H   0  0  0  0  0  0  0  0  0  0  0  0
    5.0442   -0.1407   -2.8510 H   0  0  0  0  0  0  0  0  0  0  0  0
  1  2  1  0
  1 34  1  0
  1 35  1  0
  1 36  1  0
  2  3  1  0
  2  4  1  0
  3 37  1  0
  3 38  1  0
  3 39  1  0
  4  5  2  0
  4  6  1  0
  6  7  2  0
  6 33  1  0
  7  8  1  0
  7 40  1  0
  8  9  1  0
  8 22  2  0
  9 10  1  0
  9 41  1  0
  9 42  1  0
 10 11  1  0
 10 43  1  0
 11 12  1  0
 11 44  1  0
 11 45  1  0
 12 13  2  0
 12 21  1  0
 13 14  1  0
 13 46  1  0
 14 15  2  0
 14 47  1  0
 15 16  1  0
 15 20  1  0
 16 17  1  6
 16 18  1  0
 16 19  1  0
 20 21  2  0
 20 48  1  0
 21 49  1  0
 22 23  1  0
 22 50  1  0
 23 24  1  0
 23 33  2  0
 24 25  1  0
 24 51  1  0
 25 26  2  0
 25 27  1  0
 27 28  2  0
 27 32  1  0
 28 29  1  0
 28 52  1  0
 29 30  2  0
 29 53  1  0
 30 31  1  0
 30 54  1  0
 31 32  2  0
 31 55  1  0
 33 56  1  0
M  END

