
     RDKit          3D

 80 85  0  0  0  0  0  0  0  0999 V2000
    1.9993    0.4162    5.5753 C   0  0  0  0  0  0  0  0  0  0  0  0
    3.4188    0.5119    5.0140 C   0  0  0  0  0  0  0  0  0  0  0  0
    3.9710   -0.8354    4.5398 C   0  0  0  0  0  0  0  0  0  0  0  0
    5.3821   -0.7355    3.9827 C   0  0  0  0  0  0  0  0  0  0  0  0
    5.7921   -2.0334    3.5760 O   0  0  0  0  0  0  0  0  0  0  0  0
    7.0180   -2.2168    3.0370 C   0  0  0  0  0  0  0  0  0  0  0  0
    7.9676   -1.2010    2.8375 C   0  0  0  0  0  0  0  0  0  0  0  0
    9.2037   -1.5116    2.2685 C   0  0  0  0  0  0  0  0  0  0  0  0
    9.5577   -2.8165    1.8823 C   0  0  0  0  0  0  0  0  0  0  0  0
   10.8787   -3.1398    1.2906 C   0  0  0  0  0  0  0  0  0  0  0  0
   11.5941   -4.3051    1.6317 C   0  0  0  0  0  0  0  0  0  0  0  0
   12.8369   -4.6003    1.0778 C   0  0  0  0  0  0  0  0  0  0  0  0
   13.4418   -3.7396    0.1419 C   0  0  0  0  0  0  0  0  0  0  0  0
   14.7674   -4.0438   -0.4531 C   0  0  0  0  0  0  0  0  0  0  0  0
   15.6563   -3.0096   -0.7886 C   0  0  0  0  0  0  0  0  0  0  0  0
   16.8909   -3.3219   -1.3411 C   0  0  0  0  0  0  0  0  0  0  0  0
   17.7279   -2.3231   -1.6412 F   0  0  0  0  0  0  0  0  0  0  0  0
   17.3125   -4.6393   -1.5926 C   0  0  0  0  0  0  0  0  0  0  0  0
   18.5842   -4.9113   -2.1598 C   0  0  0  0  0  0  0  0  0  0  0  0
   19.6796   -5.1369   -2.6472 C   0  0  0  0  0  0  0  0  0  0  0  0
   20.9615   -5.3864   -3.2175 C   0  0  0  0  0  0  0  0  0  0  0  0
   21.8268   -4.2911   -3.5423 C   0  0  0  0  0  0  0  0  0  0  0  0
   23.0658   -4.5142   -4.0935 C   0  0  0  0  0  0  0  0  0  0  0  0
   23.5289   -5.8357   -4.3609 C   0  0  0  0  0  0  0  0  0  0  0  0
   24.8032   -6.0927   -4.9284 C   0  0  0  0  0  0  0  0  0  0  0  0
   25.2508   -7.3840   -5.1799 C   0  0  0  0  0  0  0  0  0  0  0  0
   26.5886   -7.6378   -5.7748 C   0  0  0  0  0  0  0  0  0  0  0  0
   27.3586   -8.7512   -5.3943 C   0  0  0  0  0  0  0  0  0  0  0  0
   28.6193   -8.9829   -5.9487 C   0  0  0  0  0  0  0  0  0  0  0  0
   29.1647   -8.1182   -6.9081 C   0  0  0  0  0  0  0  0  0  0  0  0
   30.5237   -8.3646   -7.5159 C   0  0  0  0  0  0  0  0  0  0  0  0
   28.3948   -7.0069   -7.2919 C   0  0  0  0  0  0  0  0  0  0  0  0
   27.1372   -6.7709   -6.7404 C   0  0  0  0  0  0  0  0  0  0  0  0
   24.3853   -8.4715   -4.8483 C   0  0  0  0  0  0  0  0  0  0  0  0
   23.1422   -8.2569   -4.2979 C   0  0  0  0  0  0  0  0  0  0  0  0
   22.6714   -6.9389   -4.0348 C   0  0  0  0  0  0  0  0  0  0  0  0
   21.3975   -6.6860   -3.4682 C   0  0  0  0  0  0  0  0  0  0  0  0
   16.4008   -5.6796   -1.2517 C   0  0  0  0  0  0  0  0  0  0  0  0
   16.8272   -6.9317   -1.5168 O   0  0  0  0  0  0  0  0  0  0  0  0
   15.9981   -8.0336   -1.2173 C   0  0  0  0  0  0  0  0  0  0  0  0
   15.1552   -5.3776   -0.6918 C   0  0  0  0  0  0  0  0  0  0  0  0
   12.7429   -2.5723   -0.2099 C   0  0  0  0  0  0  0  0  0  0  0  0
   11.5034   -2.2978    0.3535 C   0  0  0  0  0  0  0  0  0  0  0  0
   10.8788   -1.1745   -0.0461 F   0  0  0  0  0  0  0  0  0  0  0  0
    8.5744   -3.8021    2.0996 C   0  0  0  0  0  0  0  0  0  0  0  0
    8.8261   -5.0742    1.7425 F   0  0  0  0  0  0  0  0  0  0  0  0
    7.3357   -3.5315    2.6584 C   0  0  0  0  0  0  0  0  0  0  0  0
    1.6305    1.3995    5.9072 H   0  0  0  0  0  0  0  0  0  0  0  0
    1.9562   -0.2660    6.4405 H   0  0  0  0  0  0  0  0  0  0  0  0
    1.2947    0.0335    4.8184 H   0  0  0  0  0  0  0  0  0  0  0  0
    4.0906    0.9336    5.7837 H   0  0  0  0  0  0  0  0  0  0  0  0
    3.4343    1.2308    4.1746 H   0  0  0  0  0  0  0  0  0  0  0  0
    3.3159   -1.2617    3.7604 H   0  0  0  0  0  0  0  0  0  0  0  0
    3.9734   -1.5597    5.3729 H   0  0  0  0  0  0  0  0  0  0  0  0
    6.0768   -0.3420    4.7491 H   0  0  0  0  0  0  0  0  0  0  0  0
    5.4129   -0.0418    3.1209 H   0  0  0  0  0  0  0  0  0  0  0  0
    7.7586   -0.1703    3.1212 H   0  0  0  0  0  0  0  0  0  0  0  0
    9.9265   -0.7085    2.1226 H   0  0  0  0  0  0  0  0  0  0  0  0
   11.1630   -4.9888    2.3633 H   0  0  0  0  0  0  0  0  0  0  0  0
   13.3612   -5.4999    1.4054 H   0  0  0  0  0  0  0  0  0  0  0  0
   15.4212   -1.9621   -0.5998 H   0  0  0  0  0  0  0  0  0  0  0  0
   21.4818   -3.2747   -3.3432 H   0  0  0  0  0  0  0  0  0  0  0  0
   23.7160   -3.6692   -4.3365 H   0  0  0  0  0  0  0  0  0  0  0  0
   25.4522   -5.2407   -5.1457 H   0  0  0  0  0  0  0  0  0  0  0  0
   26.9796   -9.4362   -4.6322 H   0  0  0  0  0  0  0  0  0  0  0  0
   29.1950   -9.8536   -5.6212 H   0  0  0  0  0  0  0  0  0  0  0  0
   31.0029   -9.2576   -7.0883 H   0  0  0  0  0  0  0  0  0  0  0  0
   31.1988   -7.5081   -7.3506 H   0  0  0  0  0  0  0  0  0  0  0  0
   30.4542   -8.5108   -8.6072 H   0  0  0  0  0  0  0  0  0  0  0  0
   28.7852   -6.3170   -8.0464 H   0  0  0  0  0  0  0  0  0  0  0  0
   26.5567   -5.9111   -7.0831 H   0  0  0  0  0  0  0  0  0  0  0  0
   24.7095   -9.4924   -5.0614 H   0  0  0  0  0  0  0  0  0  0  0  0
   22.4931   -9.1051   -4.0636 H   0  0  0  0  0  0  0  0  0  0  0  0
   20.7456   -7.5275   -3.2228 H   0  0  0  0  0  0  0  0  0  0  0  0
   16.5580   -8.9309   -1.5118 H   0  0  0  0  0  0  0  0  0  0  0  0
   15.0509   -7.9997   -1.7842 H   0  0  0  0  0  0  0  0  0  0  0  0
   15.7681   -8.0919   -0.1386 H   0  0  0  0  0  0  0  0  0  0  0  0
   14.4549   -6.1788   -0.4641 H   0  0  0  0  0  0  0  0  0  0  0  0
   13.1326   -1.8741   -0.9521 H   0  0  0  0  0  0  0  0  0  0  0  0
    6.6103   -4.3337    2.7969 H   0  0  0  0  0  0  0  0  0  0  0  0
  1  2  1  0
  1 48  1  0
  1 49  1  0
  1 50  1  0
  2  3  1  0
  2 51  1  0
  2 52  1  0
  3  4  1  0
  3 53  1  0
  3 54  1  0
  4  5  1  0
  4 55  1  0
  4 56  1  0
  5  6  1  0
  6  7  2  0
  6 47  1  0
  7  8  1  0
  7 57  1  0
  8  9  2  0
  8 58  1  0
  9 10  1  0
  9 45  1  0
 10 11  2  0
 10 43  1  0
 11 12  1  0
 11 59  1  0
 12 13  2  0
 12 60  1  0
 13 14  1  0
 13 42  1  0
 14 15  2  0
 14 41  1  0
 15 16  1  0
 15 61  1  0
 16 17  1  0
 16 18  2  0
 18 19  1  0
 18 38  1  0
 19 20  3  0
 20 21  1  0
 21 22  2  0
 21 37  1  0
 22 23  1  0
 22 62  1  0
 23 24  2  0
 23 63  1  0
 24 25  1  0
 24 36  1  0
 25 26  2  0
 25 64  1  0
 26 27  1  0
 26 34  1  0
 27 28  2  0
 27 33  1  0
 28 29  1  0
 28 65  1  0
 29 30  2  0
 29 66  1  0
 30 31  1  0
 30 32  1  0
 31 67  1  0
 31 68  1  0
 31 69  1  0
 32 33  2  0
 32 70  1  0
 33 71  1  0
 34 35  2  0
 34 72  1  0
 35 36  1  0
 35 73  1  0
 36 37  2  0
 37 74  1  0
 38 39  1  0
 38 41  2  0
 39 40  1  0
 40 75  1  0
 40 76  1  0
 40 77  1  0
 41 78  1  0
 42 43  2  0
 42 79  1  0
 43 44  1  0
 45 46  1  0
 45 47  2  0
 47 80  1  0
M  END

