
     RDKit          3D

 48 51  0  0  0  0  0  0  0  0999 V2000
    0.9752   -1.3376   -0.7643 C   0  0  0  0  0  0  0  0  0  0  0  0
    2.4428   -1.1945   -1.1511 C   0  0  0  0  0  0  0  0  0  0  0  0
    2.9930    0.1678   -1.1013 N   0  0  0  0  0  0  0  0  0  0  0  0
    2.0916    1.3187   -1.1338 C   0  0  0  0  0  0  0  0  0  0  0  0
    1.7357    1.8051   -2.5423 C   0  0  0  0  0  0  0  0  0  0  0  0
    4.3478    0.3333   -1.2766 C   0  0  0  0  0  0  0  0  0  0  0  0
    4.9506    1.6347   -1.2998 C   0  0  0  0  0  0  0  0  0  0  0  0
    6.3127    1.7897   -1.4423 C   0  0  0  0  0  0  0  0  0  0  0  0
    7.1788    0.6781   -1.5844 C   0  0  0  0  0  0  0  0  0  0  0  0
    8.5862    0.7645   -1.7382 C   0  0  0  0  0  0  0  0  0  0  0  0
    9.3743   -0.3637   -1.8805 C   0  0  0  0  0  0  0  0  0  0  0  0
   10.8079   -0.4066   -2.0415 C   0  0  0  0  0  0  0  0  0  0  0  0
   11.7454    0.5946   -2.0965 C   0  0  0  0  0  0  0  0  0  0  0  0
   11.4187    1.9842   -1.9933 C   0  0  0  0  0  0  0  0  0  0  0  0
   11.1518    3.1132   -1.9083 N   0  0  0  0  0  0  0  0  0  0  0  0
   13.1663    0.2531   -2.2699 C   0  0  0  0  0  0  0  0  0  0  0  0
   13.6185   -0.9583   -2.3746 N   0  0  0  0  0  0  0  0  0  0  0  0
   14.9840   -0.9850   -2.5284 C   0  0  0  0  0  0  0  0  0  0  0  0
   15.7700   -2.1443   -2.6679 C   0  0  0  0  0  0  0  0  0  0  0  0
   17.1464   -2.0139   -2.8157 C   0  0  0  0  0  0  0  0  0  0  0  0
   17.7575   -0.7440   -2.8271 C   0  0  0  0  0  0  0  0  0  0  0  0
   17.0006    0.4189   -2.6906 C   0  0  0  0  0  0  0  0  0  0  0  0
   15.6146    0.2902   -2.5417 C   0  0  0  0  0  0  0  0  0  0  0  0
   14.4025    1.5337   -2.3508 S   0  0  0  0  0  0  0  0  0  0  0  0
    8.7233   -1.6964   -1.8746 C   0  0  0  0  0  0  0  0  0  0  0  0
    9.2778   -2.7565   -1.9904 O   0  0  0  0  0  0  0  0  0  0  0  0
    7.3426   -1.7134   -1.7208 O   0  0  0  0  0  0  0  0  0  0  0  0
    6.5791   -0.6026   -1.5785 C   0  0  0  0  0  0  0  0  0  0  0  0
    5.2088   -0.7826   -1.4367 C   0  0  0  0  0  0  0  0  0  0  0  0
    0.7149   -2.4068   -0.7912 H   0  0  0  0  0  0  0  0  0  0  0  0
    0.2939   -0.8200   -1.4562 H   0  0  0  0  0  0  0  0  0  0  0  0
    0.7784   -0.9766    0.2572 H   0  0  0  0  0  0  0  0  0  0  0  0
    2.5945   -1.6221   -2.1616 H   0  0  0  0  0  0  0  0  0  0  0  0
    3.0340   -1.8217   -0.4645 H   0  0  0  0  0  0  0  0  0  0  0  0
    2.5375    2.1360   -0.5488 H   0  0  0  0  0  0  0  0  0  0  0  0
    1.1759    1.0523   -0.5920 H   0  0  0  0  0  0  0  0  0  0  0  0
    2.6332    2.1081   -3.1033 H   0  0  0  0  0  0  0  0  0  0  0  0
    1.0584    2.6726   -2.4884 H   0  0  0  0  0  0  0  0  0  0  0  0
    1.2287    1.0166   -3.1211 H   0  0  0  0  0  0  0  0  0  0  0  0
    4.3378    2.5279   -1.2031 H   0  0  0  0  0  0  0  0  0  0  0  0
    6.7432    2.7944   -1.4505 H   0  0  0  0  0  0  0  0  0  0  0  0
    9.0387    1.7571   -1.7416 H   0  0  0  0  0  0  0  0  0  0  0  0
   11.2188   -1.4152   -2.1359 H   0  0  0  0  0  0  0  0  0  0  0  0
   15.2816   -3.1205   -2.6571 H   0  0  0  0  0  0  0  0  0  0  0  0
   17.7654   -2.9078   -2.9248 H   0  0  0  0  0  0  0  0  0  0  0  0
   18.8412   -0.6674   -2.9446 H   0  0  0  0  0  0  0  0  0  0  0  0
   17.4783    1.4009   -2.7000 H   0  0  0  0  0  0  0  0  0  0  0  0
    4.8446   -1.8059   -1.4575 H   0  0  0  0  0  0  0  0  0  0  0  0
  1  2  1  0
  1 30  1  0
  1 31  1  0
  1 32  1  0
  2  3  1  0
  2 33  1  0
  2 34  1  0
  3  4  1  0
  3  6  1  0
  4  5  1  0
  4 35  1  0
  4 36  1  0
  5 37  1  0
  5 38  1  0
  5 39  1  0
  6  7  2  0
  6 29  1  0
  7  8  1  0
  7 40  1  0
  8  9  2  0
  8 41  1  0
  9 10  1  0
  9 28  1  0
 10 11  2  0
 10 42  1  0
 11 12  1  0
 11 25  1  0
 12 13  2  0
 12 43  1  0
 13 14  1  0
 13 16  1  0
 14 15  3  0
 16 17  2  0
 16 24  1  0
 17 18  1  0
 18 19  2  0
 18 23  1  0
 19 20  1  0
 19 44  1  0
 20 21  2  0
 20 45  1  0
 21 22  1  0
 21 46  1  0
 22 23  2  0
 22 47  1  0
 23 24  1  0
 25 26  2  0
 25 27  1  0
 27 28  1  0
 28 29  2  0
 29 48  1  0
M  END

