
     RDKit          3D

 40 41  0  0  0  0  0  0  0  0999 V2000
    1.3697   -0.6627    1.5551 C   0  0  0  0  0  0  0  0  0  0  0  0
    2.7140   -0.5094    0.8851 C   0  0  0  0  0  0  0  0  0  0  0  0
    2.9886   -1.1105   -0.3510 C   0  0  0  0  0  0  0  0  0  0  0  0
    4.2430   -0.9581   -0.9502 C   0  0  0  0  0  0  0  0  0  0  0  0
    5.2629   -0.2077   -0.3538 C   0  0  0  0  0  0  0  0  0  0  0  0
    6.6765   -0.1209   -0.9301 C   0  0  1  0  0  0  0  0  0  0  0  0
    6.8382   -0.6837   -2.3467 C   0  0  0  0  0  0  0  0  0  0  0  0
    7.2594    1.2407   -0.7517 N   0  0  0  0  0  0  0  0  0  0  0  0
    6.9435    2.3016   -1.7351 C   0  0  1  0  0  0  0  0  0  0  0  0
    5.4551    2.6783   -1.7507 C   0  0  0  0  0  0  0  0  0  0  0  0
    7.8022    3.5169   -1.4137 C   0  0  0  0  0  0  0  0  0  0  0  0
    7.8127    4.0857   -0.1298 C   0  0  0  0  0  0  0  0  0  0  0  0
    8.5922    5.2084    0.1307 C   0  0  0  0  0  0  0  0  0  0  0  0
    8.5866    5.7341    1.3644 F   0  0  0  0  0  0  0  0  0  0  0  0
    9.3787    5.8027   -0.8553 C   0  0  0  0  0  0  0  0  0  0  0  0
    9.3764    5.2494   -2.1360 C   0  0  0  0  0  0  0  0  0  0  0  0
    8.5949    4.1247   -2.3951 C   0  0  0  0  0  0  0  0  0  0  0  0
    8.6109    3.6113   -3.6410 F   0  0  0  0  0  0  0  0  0  0  0  0
    4.9785    0.4145    0.8917 C   0  0  0  0  0  0  0  0  0  0  0  0
    5.8998    1.1695    1.5283 O   0  0  0  0  0  0  0  0  0  0  0  0
    3.7218    0.2533    1.4889 C   0  0  0  0  0  0  0  0  0  0  0  0
    0.6957   -1.3043    0.9683 H   0  0  0  0  0  0  0  0  0  0  0  0
    0.8745    0.3140    1.6876 H   0  0  0  0  0  0  0  0  0  0  0  0
    1.4713   -1.1078    2.5591 H   0  0  0  0  0  0  0  0  0  0  0  0
    2.2207   -1.7077   -0.8496 H   0  0  0  0  0  0  0  0  0  0  0  0
    4.4236   -1.4506   -1.9075 H   0  0  0  0  0  0  0  0  0  0  0  0
    7.3074   -0.7446   -0.2681 H   0  0  0  0  0  0  0  0  0  0  0  0
    6.1811   -0.1863   -3.0765 H   0  0  0  0  0  0  0  0  0  0  0  0
    6.6087   -1.7590   -2.3695 H   0  0  0  0  0  0  0  0  0  0  0  0
    7.8796   -0.5625   -2.6854 H   0  0  0  0  0  0  0  0  0  0  0  0
    8.2742    1.1451   -0.7178 H   0  0  0  0  0  0  0  0  0  0  0  0
    7.2153    1.9750   -2.7533 H   0  0  0  0  0  0  0  0  0  0  0  0
    5.1149    3.0000   -0.7551 H   0  0  0  0  0  0  0  0  0  0  0  0
    4.8261    1.8349   -2.0662 H   0  0  0  0  0  0  0  0  0  0  0  0
    5.2961    3.5076   -2.4566 H   0  0  0  0  0  0  0  0  0  0  0  0
    7.2112    3.6587    0.6749 H   0  0  0  0  0  0  0  0  0  0  0  0
    9.9775    6.6824   -0.6129 H   0  0  0  0  0  0  0  0  0  0  0  0
    9.9747    5.6768   -2.9427 H   0  0  0  0  0  0  0  0  0  0  0  0
    6.6054    1.3653    0.8537 H   0  0  0  0  0  0  0  0  0  0  0  0
    3.5523    0.7521    2.4468 H   0  0  0  0  0  0  0  0  0  0  0  0
  1  2  1  0
  1 22  1  0
  1 23  1  0
  1 24  1  0
  2  3  2  0
  2 21  1  0
  3  4  1  0
  3 25  1  0
  4  5  2  0
  4 26  1  0
  5  6  1  0
  5 19  1  0
  6  7  1  0
  6  8  1  0
  6 27  1  1
  7 28  1  0
  7 29  1  0
  7 30  1  0
  8  9  1  0
  8 31  1  0
  9 10  1  0
  9 11  1  0
  9 32  1  6
 10 33  1  0
 10 34  1  0
 10 35  1  0
 11 12  2  0
 11 17  1  0
 12 13  1  0
 12 36  1  0
 13 14  1  0
 13 15  2  0
 15 16  1  0
 15 37  1  0
 16 17  2  0
 16 38  1  0
 17 18  1  0
 19 20  1  0
 19 21  2  0
 20 39  1  0
 21 40  1  0
M  END

