
     RDKit          3D

 25 25  0  0  0  0  0  0  0  0999 V2000
    2.4525    0.5912    1.3064 C   0  0  0  0  0  0  0  0  0  0  0  0
    2.4594    0.0300   -0.1240 C   0  0  0  0  0  0  0  0  0  0  0  0
    2.9894   -1.3868   -0.2093 C   0  0  0  0  0  0  0  0  0  0  0  0
    4.3566   -1.6272   -0.3950 C   0  0  0  0  0  0  0  0  0  0  0  0
    4.8697   -2.9343   -0.4321 C   0  0  0  0  0  0  0  0  0  0  0  0
    6.3446   -3.1880   -0.6382 C   0  0  0  0  0  0  0  0  0  0  0  0
    3.9877   -4.0080   -0.2801 C   0  0  0  0  0  0  0  0  0  0  0  0
    2.6148   -3.7868   -0.0946 C   0  0  0  0  0  0  0  0  0  0  0  0
    1.8459   -4.9009    0.0375 O   0  0  0  0  0  0  0  0  0  0  0  0
    0.4566   -4.7636    0.2216 C   0  0  0  0  0  0  0  0  0  0  0  0
    2.1160   -2.4762   -0.0591 C   0  0  0  0  0  0  0  0  0  0  0  0
    2.0611    1.6215    1.3268 H   0  0  0  0  0  0  0  0  0  0  0  0
    3.4687    0.6052    1.7319 H   0  0  0  0  0  0  0  0  0  0  0  0
    1.8250   -0.0235    1.9717 H   0  0  0  0  0  0  0  0  0  0  0  0
    3.0698    0.6860   -0.7673 H   0  0  0  0  0  0  0  0  0  0  0  0
    1.4347    0.0633   -0.5315 H   0  0  0  0  0  0  0  0  0  0  0  0
    5.0382   -0.7802   -0.5182 H   0  0  0  0  0  0  0  0  0  0  0  0
    6.9083   -2.2480   -0.7309 H   0  0  0  0  0  0  0  0  0  0  0  0
    6.5252   -3.7808   -1.5506 H   0  0  0  0  0  0  0  0  0  0  0  0
    6.7739   -3.7574    0.2031 H   0  0  0  0  0  0  0  0  0  0  0  0
    4.3424   -5.0412   -0.3064 H   0  0  0  0  0  0  0  0  0  0  0  0
    0.0489   -5.7807    0.3001 H   0  0  0  0  0  0  0  0  0  0  0  0
   -0.0253   -4.2511   -0.6311 H   0  0  0  0  0  0  0  0  0  0  0  0
    0.2141   -4.2099    1.1471 H   0  0  0  0  0  0  0  0  0  0  0  0
    1.0507   -2.2864    0.0798 H   0  0  0  0  0  0  0  0  0  0  0  0
  1  2  1  0
  1 12  1  0
  1 13  1  0
  1 14  1  0
  2  3  1  0
  2 15  1  0
  2 16  1  0
  3  4  2  0
  3 11  1  0
  4  5  1  0
  4 17  1  0
  5  6  1  0
  5  7  2  0
  6 18  1  0
  6 19  1  0
  6 20  1  0
  7  8  1  0
  7 21  1  0
  8  9  1  0
  8 11  2  0
  9 10  1  0
 10 22  1  0
 10 23  1  0
 10 24  1  0
 11 25  1  0
M  END

