
     RDKit          3D

 62 65  0  0  0  0  0  0  0  0999 V2000
    5.0894    1.8438    0.6700 C   0  0  0  0  0  0  0  0  0  0  0  0
    5.4189    0.9145    1.5799 C   0  0  0  0  0  0  0  0  0  0  0  0
    4.4857   -0.0135    2.2530 C   0  0  0  0  0  0  0  0  0  0  0  0
    3.1685    0.4083    2.5148 C   0  0  0  0  0  0  0  0  0  0  0  0
    2.2684   -0.4038    3.1979 C   0  0  0  0  0  0  0  0  0  0  0  0
    2.6788   -1.6561    3.6586 C   0  0  0  0  0  0  0  0  0  0  0  0
    3.9838   -2.1086    3.4289 C   0  0  0  0  0  0  0  0  0  0  0  0
    4.3770   -3.4634    3.9487 C   0  0  0  0  0  0  0  0  0  0  0  0
    4.1801   -4.6041    3.1690 C   0  0  0  0  0  0  0  0  0  0  0  0
    3.5297   -4.4230    1.8438 C   0  0  0  0  0  0  0  0  0  0  0  0
    2.5077   -5.1347    1.3532 C   0  0  0  0  0  0  0  0  0  0  0  0
    4.5540   -5.9014    3.6844 C   0  0  0  0  0  0  0  0  0  0  0  0
    4.5037   -7.1315    2.8467 C   0  0  0  0  0  0  0  0  0  0  0  0
    5.0347   -7.2811    1.6276 C   0  0  0  0  0  0  0  0  0  0  0  0
    5.0263   -6.0243    4.9909 C   0  0  0  0  0  0  0  0  0  0  0  0
    5.4111   -7.4009    5.5299 C   0  0  0  0  0  0  0  0  0  0  0  0
    6.8151   -7.5981    5.3400 C   0  0  0  0  0  0  0  0  0  0  0  0
    7.8741   -8.5369    5.5097 C   0  0  0  0  0  0  0  0  0  0  0  0
    7.8773   -9.9195    5.3615 C   0  0  0  0  0  0  0  0  0  0  0  0
    6.7421  -10.4884    4.7554 C   0  0  0  0  0  0  0  0  0  0  0  0
    5.9091  -11.3857    5.4218 C   0  0  0  0  0  0  0  0  0  0  0  0
    4.6598  -10.7644    5.5263 C   0  0  0  0  0  0  0  0  0  0  0  0
    4.0871  -10.4235    6.7583 C   0  0  0  0  0  0  0  0  0  0  0  0
    3.8394   -9.0676    6.9847 C   0  0  0  0  0  0  0  0  0  0  0  0
    4.3023   -7.9257    6.2819 C   0  0  0  0  0  0  0  0  0  0  0  0
    5.1955   -4.8652    5.8170 C   0  0  0  0  0  0  0  0  0  0  0  0
    5.6863   -4.9524    7.1525 C   0  0  0  0  0  0  0  0  0  0  0  0
    5.8676   -3.8232    7.9244 C   0  0  0  0  0  0  0  0  0  0  0  0
    5.5682   -2.5457    7.3958 C   0  0  0  0  0  0  0  0  0  0  0  0
    5.0898   -2.4250    6.1075 C   0  0  0  0  0  0  0  0  0  0  0  0
    4.8886   -3.5705    5.2827 C   0  0  0  0  0  0  0  0  0  0  0  0
    4.9001   -1.2998    2.7051 C   0  0  0  0  0  0  0  0  0  0  0  0
    6.2473   -1.8519    2.4377 C   0  0  0  0  0  0  0  0  0  0  0  0
    6.9659   -1.7312    1.3106 C   0  0  0  0  0  0  0  0  0  0  0  0
    5.8442    2.5187    0.2579 H   0  0  0  0  0  0  0  0  0  0  0  0
    4.0687    1.9564    0.2922 H   0  0  0  0  0  0  0  0  0  0  0  0
    6.4700    0.8253    1.8728 H   0  0  0  0  0  0  0  0  0  0  0  0
    2.8645    1.4094    2.2024 H   0  0  0  0  0  0  0  0  0  0  0  0
    1.2511   -0.0539    3.3910 H   0  0  0  0  0  0  0  0  0  0  0  0
    1.9835   -2.2966    4.2061 H   0  0  0  0  0  0  0  0  0  0  0  0
    3.8941   -3.5736    1.2567 H   0  0  0  0  0  0  0  0  0  0  0  0
    2.0710   -5.9794    1.8925 H   0  0  0  0  0  0  0  0  0  0  0  0
    2.0705   -4.8883    0.3816 H   0  0  0  0  0  0  0  0  0  0  0  0
    4.0280   -7.9997    3.3158 H   0  0  0  0  0  0  0  0  0  0  0  0
    5.5421   -6.4620    1.1105 H   0  0  0  0  0  0  0  0  0  0  0  0
    4.9725   -8.2374    1.1005 H   0  0  0  0  0  0  0  0  0  0  0  0
    7.2542   -6.6218    5.0934 H   0  0  0  0  0  0  0  0  0  0  0  0
    8.8280   -8.0678    5.7892 H   0  0  0  0  0  0  0  0  0  0  0  0
    8.6585  -10.5220    5.8393 H   0  0  0  0  0  0  0  0  0  0  0  0
    6.2456   -9.8161    4.0474 H   0  0  0  0  0  0  0  0  0  0  0  0
    6.2884  -12.0447    6.2104 H   0  0  0  0  0  0  0  0  0  0  0  0
    4.4181  -10.0623    4.7214 H   0  0  0  0  0  0  0  0  0  0  0  0
    3.9852  -11.1423    7.5797 H   0  0  0  0  0  0  0  0  0  0  0  0
    3.1908   -8.8201    7.8366 H   0  0  0  0  0  0  0  0  0  0  0  0
    3.6211   -7.0883    6.4856 H   0  0  0  0  0  0  0  0  0  0  0  0
    5.9237   -5.9344    7.5631 H   0  0  0  0  0  0  0  0  0  0  0  0
    6.2449   -3.9156    8.9461 H   0  0  0  0  0  0  0  0  0  0  0  0
    5.7147   -1.6532    8.0094 H   0  0  0  0  0  0  0  0  0  0  0  0
    4.8555   -1.4381    5.7060 H   0  0  0  0  0  0  0  0  0  0  0  0
    6.6640   -2.4650    3.2440 H   0  0  0  0  0  0  0  0  0  0  0  0
    6.6021   -1.1842    0.4372 H   0  0  0  0  0  0  0  0  0  0  0  0
    7.9471   -2.2064    1.2241 H   0  0  0  0  0  0  0  0  0  0  0  0
  1  2  2  0
  1 35  1  0
  1 36  1  0
  2  3  1  0
  2 37  1  0
  3  4  2  0
  3 32  1  0
  4  5  1  0
  4 38  1  0
  5  6  2  0
  5 39  1  0
  6  7  1  0
  6 40  1  0
  7  8  1  0
  7 32  2  0
  8  9  2  0
  8 31  1  0
  9 10  1  0
  9 12  1  0
 10 11  2  0
 10 41  1  0
 11 42  1  0
 11 43  1  0
 12 13  1  0
 12 15  2  0
 13 14  2  0
 13 44  1  0
 14 45  1  0
 14 46  1  0
 15 16  1  0
 15 26  1  0
 16 17  2  0
 16 25  1  0
 17 18  1  0
 17 47  1  0
 18 19  2  0
 18 48  1  0
 19 20  1  0
 19 49  1  0
 20 21  2  0
 20 50  1  0
 21 22  1  0
 21 51  1  0
 22 23  2  0
 22 52  1  0
 23 24  1  0
 23 53  1  0
 24 25  2  0
 24 54  1  0
 25 55  1  0
 26 27  1  0
 26 31  2  0
 27 28  2  0
 27 56  1  0
 28 29  1  0
 28 57  1  0
 29 30  2  0
 29 58  1  0
 30 31  1  0
 30 59  1  0
 32 33  1  0
 33 34  2  0
 33 60  1  0
 34 61  1  0
 34 62  1  0
M  END

