
     RDKit          3D

 49 51  0  0  0  0  0  0  0  0999 V2000
    3.4341   -0.9422   -2.1345 O   0  0  0  0  0  0  0  0  0  0  0  0
    2.9774    0.1745   -1.9467 C   0  0  0  0  0  0  0  0  0  0  0  0
    1.7283    0.5857   -2.2989 N   0  0  0  0  0  0  0  0  0  0  0  0
    0.7067   -0.1300   -2.9329 C   0  0  0  0  0  0  0  0  0  0  0  0
    0.8328   -1.4712   -3.3347 C   0  0  0  0  0  0  0  0  0  0  0  0
   -0.2374   -2.1063   -3.9621 C   0  0  0  0  0  0  0  0  0  0  0  0
   -1.4388   -1.4350   -4.2011 C   0  0  0  0  0  0  0  0  0  0  0  0
   -2.7315   -2.3001   -4.9919 Cl  0  0  0  0  0  0  0  0  0  0  0  0
   -1.5771   -0.0925   -3.8032 C   0  0  0  0  0  0  0  0  0  0  0  0
   -2.8574    0.6853   -4.0367 C   0  0  1  0  0  0  0  0  0  0  0  0
   -3.1594    0.7699   -5.3413 F   0  0  0  0  0  0  0  0  0  0  0  0
   -3.9044    0.1223   -3.4146 F   0  0  0  0  0  0  0  0  0  0  0  0
   -2.7556    1.9457   -3.5738 F   0  0  0  0  0  0  0  0  0  0  0  0
   -0.5036    0.5411   -3.1753 C   0  0  0  0  0  0  0  0  0  0  0  0
    3.7130    1.3703   -1.2574 C   0  0  0  0  0  0  0  0  0  0  0  0
    3.0637    2.4076   -1.1149 O   0  0  0  0  0  0  0  0  0  0  0  0
    4.9959    1.2398   -0.8434 N   0  0  0  0  0  0  0  0  0  0  0  0
    5.6279    2.3803   -0.1663 C   0  0  0  0  0  0  0  0  0  0  0  0
    6.1313    1.9815    1.2253 C   0  0  0  0  0  0  0  0  0  0  0  0
    7.0657    0.7553    1.1989 C   0  0  2  0  0  0  0  0  0  0  0  0
    8.4908    1.0686    0.6733 C   0  0  0  0  0  0  0  0  0  0  0  0
    9.2708    2.0503    1.5224 C   0  0  0  0  0  0  0  0  0  0  0  0
    9.7962    1.6591    2.7662 C   0  0  0  0  0  0  0  0  0  0  0  0
   10.5020    2.5603    3.5665 C   0  0  0  0  0  0  0  0  0  0  0  0
   10.6997    3.8768    3.1368 C   0  0  0  0  0  0  0  0  0  0  0  0
   10.1884    4.2802    1.9009 C   0  0  0  0  0  0  0  0  0  0  0  0
    9.4820    3.3735    1.1037 C   0  0  0  0  0  0  0  0  0  0  0  0
    6.3892   -0.3756    0.3982 C   0  0  0  0  0  0  0  0  0  0  0  0
    5.8798    0.0736   -0.9772 C   0  0  0  0  0  0  0  0  0  0  0  0
    1.5568    1.5566   -2.0287 H   0  0  0  0  0  0  0  0  0  0  0  0
    1.7644   -2.0021   -3.1520 H   0  0  0  0  0  0  0  0  0  0  0  0
   -0.1444   -3.1473   -4.2760 H   0  0  0  0  0  0  0  0  0  0  0  0
   -0.6141    1.5821   -2.8685 H   0  0  0  0  0  0  0  0  0  0  0  0
    4.8903    3.1881   -0.1066 H   0  0  0  0  0  0  0  0  0  0  0  0
    6.4628    2.7352   -0.7978 H   0  0  0  0  0  0  0  0  0  0  0  0
    5.2559    1.7513    1.8561 H   0  0  0  0  0  0  0  0  0  0  0  0
    6.6352    2.8452    1.6876 H   0  0  0  0  0  0  0  0  0  0  0  0
    7.1857    0.4049    2.2385 H   0  0  0  0  0  0  0  0  0  0  0  0
    8.4457    1.4445   -0.3617 H   0  0  0  0  0  0  0  0  0  0  0  0
    9.0455    0.1156    0.6257 H   0  0  0  0  0  0  0  0  0  0  0  0
    9.6568    0.6295    3.1097 H   0  0  0  0  0  0  0  0  0  0  0  0
   10.9050    2.2322    4.5283 H   0  0  0  0  0  0  0  0  0  0  0  0
   11.2540    4.5824    3.7608 H   0  0  0  0  0  0  0  0  0  0  0  0
   10.3417    5.3048    1.5520 H   0  0  0  0  0  0  0  0  0  0  0  0
    9.0931    3.6986    0.1341 H   0  0  0  0  0  0  0  0  0  0  0  0
    5.5291   -0.7612    0.9720 H   0  0  0  0  0  0  0  0  0  0  0  0
    7.0834   -1.2216    0.2607 H   0  0  0  0  0  0  0  0  0  0  0  0
    5.3420   -0.7339   -1.4775 H   0  0  0  0  0  0  0  0  0  0  0  0
    6.7273    0.3680   -1.6232 H   0  0  0  0  0  0  0  0  0  0  0  0
  1  2  2  0
  2  3  1  0
  2 15  1  0
  3  4  1  0
  3 30  1  0
  4  5  2  0
  4 14  1  0
  5  6  1  0
  5 31  1  0
  6  7  2  0
  6 32  1  0
  7  8  1  0
  7  9  1  0
  9 10  1  0
  9 14  2  0
 10 11  1  6
 10 12  1  0
 10 13  1  0
 14 33  1  0
 15 16  2  0
 15 17  1  0
 17 18  1  0
 17 29  1  0
 18 19  1  0
 18 34  1  0
 18 35  1  0
 19 20  1  0
 19 36  1  0
 19 37  1  0
 20 21  1  0
 20 28  1  0
 20 38  1  1
 21 22  1  0
 21 39  1  0
 21 40  1  0
 22 23  2  0
 22 27  1  0
 23 24  1  0
 23 41  1  0
 24 25  2  0
 24 42  1  0
 25 26  1  0
 25 43  1  0
 26 27  2  0
 26 44  1  0
 27 45  1  0
 28 29  1  0
 28 46  1  0
 28 47  1  0
 29 48  1  0
 29 49  1  0
M  END

