
     RDKit          3D

 46 47  0  0  0  0  0  0  0  0999 V2000
   10.6009   -6.8694   -1.2837 C   0  0  0  0  0  0  0  0  0  0  0  0
   10.6066   -5.5534   -1.7681 O   0  0  0  0  0  0  0  0  0  0  0  0
    9.3242   -5.0053   -1.9299 C   0  0  0  0  0  0  0  0  0  0  0  0
    9.4941   -3.5938   -2.4627 C   0  0  0  0  0  0  0  0  0  0  0  0
    8.1831   -3.0811   -2.6909 O   0  0  0  0  0  0  0  0  0  0  0  0
    8.0461   -1.8152   -3.1431 C   0  0  0  0  0  0  0  0  0  0  0  0
    9.0963   -1.0355   -3.2763 N   0  0  0  0  0  0  0  0  0  0  0  0
    8.9121    0.2192   -3.7188 C   0  0  0  0  0  0  0  0  0  0  0  0
    7.6576    0.7219   -4.0405 C   0  0  0  0  0  0  0  0  0  0  0  0
    6.5337   -0.1093   -3.9088 C   0  0  0  0  0  0  0  0  0  0  0  0
    6.7146   -1.4154   -3.4529 C   0  0  0  0  0  0  0  0  0  0  0  0
    5.7069   -2.3746   -3.2802 N   0  0  0  0  0  0  0  0  0  0  0  0
    4.3698   -2.2380   -3.5296 C   0  0  0  0  0  0  0  0  0  0  0  0
    3.8338   -1.2217   -3.9343 O   0  0  0  0  0  0  0  0  0  0  0  0
    3.5468   -3.5131   -3.3048 C   0  0  0  0  0  0  0  0  0  0  0  0
    3.7820   -4.2068   -1.6067 S   0  0  0  0  0  0  0  0  0  0  0  0
    3.3904   -5.9382   -1.8497 C   0  0  0  0  0  0  0  0  0  0  0  0
    2.1249   -6.3863   -1.4390 C   0  0  0  0  0  0  0  0  0  0  0  0
    1.7735   -7.7366   -1.4877 C   0  0  0  0  0  0  0  0  0  0  0  0
    2.6928   -8.6969   -1.9313 C   0  0  0  0  0  0  0  0  0  0  0  0
    2.3958  -10.1754   -2.0409 C   0  0  0  0  0  0  0  0  0  0  0  0
    1.3256  -10.6305   -1.3245 N   0  0  0  0  0  0  0  0  0  0  0  0
    3.0749  -10.9005   -2.7445 O   0  0  0  0  0  0  0  0  0  0  0  0
    3.9643   -8.2750   -2.3332 C   0  0  0  0  0  0  0  0  0  0  0  0
    4.2994   -6.9242   -2.2948 C   0  0  0  0  0  0  0  0  0  0  0  0
    5.6687   -6.5846   -2.7257 N   0  0  0  0  0  0  0  0  0  0  0  0
    5.8268   -5.5618   -3.3759 O   0  0  0  0  0  0  0  0  0  0  0  0
    6.5561   -7.3596   -2.4163 O   0  0  0  0  0  0  0  0  0  0  0  0
   11.6455   -7.2068   -1.2135 H   0  0  0  0  0  0  0  0  0  0  0  0
   10.0484   -7.5570   -1.9550 H   0  0  0  0  0  0  0  0  0  0  0  0
   10.1395   -6.9393   -0.2769 H   0  0  0  0  0  0  0  0  0  0  0  0
    8.7729   -4.9767   -0.9657 H   0  0  0  0  0  0  0  0  0  0  0  0
    8.7074   -5.6026   -2.6301 H   0  0  0  0  0  0  0  0  0  0  0  0
   10.0711   -3.5989   -3.4019 H   0  0  0  0  0  0  0  0  0  0  0  0
   10.0377   -2.9582   -1.7464 H   0  0  0  0  0  0  0  0  0  0  0  0
    9.8108    0.8377   -3.8162 H   0  0  0  0  0  0  0  0  0  0  0  0
    7.5457    1.7482   -4.3961 H   0  0  0  0  0  0  0  0  0  0  0  0
    5.5313    0.2339   -4.1561 H   0  0  0  0  0  0  0  0  0  0  0  0
    6.0374   -3.2844   -2.9632 H   0  0  0  0  0  0  0  0  0  0  0  0
    3.8614   -4.2803   -4.0255 H   0  0  0  0  0  0  0  0  0  0  0  0
    2.4938   -3.2493   -3.4600 H   0  0  0  0  0  0  0  0  0  0  0  0
    1.4083   -5.6456   -1.0795 H   0  0  0  0  0  0  0  0  0  0  0  0
    0.7614   -8.0268   -1.1963 H   0  0  0  0  0  0  0  0  0  0  0  0
    0.9191  -10.0982   -0.5672 H   0  0  0  0  0  0  0  0  0  0  0  0
    1.1574  -11.6303   -1.3420 H   0  0  0  0  0  0  0  0  0  0  0  0
    4.6872   -9.0141   -2.6795 H   0  0  0  0  0  0  0  0  0  0  0  0
  1  2  1  0
  1 29  1  0
  1 30  1  0
  1 31  1  0
  2  3  1  0
  3  4  1  0
  3 32  1  0
  3 33  1  0
  4  5  1  0
  4 34  1  0
  4 35  1  0
  5  6  1  0
  6  7  2  0
  6 11  1  0
  7  8  1  0
  8  9  2  0
  8 36  1  0
  9 10  1  0
  9 37  1  0
 10 11  2  0
 10 38  1  0
 11 12  1  0
 12 13  1  0
 12 39  1  0
 13 14  2  0
 13 15  1  0
 15 16  1  0
 15 40  1  0
 15 41  1  0
 16 17  2  0
 17 18  1  0
 17 25  1  0
 18 19  2  0
 18 42  1  0
 19 20  1  0
 19 43  1  0
 20 21  1  0
 20 24  2  0
 21 22  1  0
 21 23  2  0
 22 44  1  0
 22 45  1  0
 24 25  1  0
 24 46  1  0
 25 26  2  0
 26 27  1  0
 26 28  1  0
M  CHG  4  16   1  26   1  27  -1  28  -1
M  END

