
     RDKit          3D

 54 58  0  0  0  0  0  0  0  0999 V2000
    3.4414    0.1194   -1.0223 C   0  0  0  0  0  0  0  0  0  0  0  0
    2.3803    0.0556    0.0849 C   0  0  0  0  0  0  0  0  0  0  0  0
    2.7844   -0.5759    1.3447 N   0  0  0  0  0  0  0  0  0  0  0  0
    3.4455    0.2125    2.3110 C   0  0  0  0  0  0  0  0  0  0  0  0
    3.9793    1.4770    1.9946 C   0  0  0  0  0  0  0  0  0  0  0  0
    4.6288    2.2589    2.9505 C   0  0  0  0  0  0  0  0  0  0  0  0
    4.8029    1.8075    4.2659 C   0  0  0  0  0  0  0  0  0  0  0  0
    5.5031    2.6362    5.2438 C   0  0  0  0  0  0  0  0  0  0  0  0
    5.6893    2.2658    6.4627 N   0  0  0  0  0  0  0  0  0  0  0  0
    6.3385    3.0797    7.2945 N   0  0  0  0  0  0  0  0  0  0  0  0
    6.5858    2.7653    8.6218 C   0  0  0  0  0  0  0  0  0  0  0  0
    6.1683    1.5500    9.2028 C   0  0  0  0  0  0  0  0  0  0  0  0
    6.4719    1.3426   10.5433 C   0  0  0  0  0  0  0  0  0  0  0  0
    7.1680    2.3255   11.2603 C   0  0  0  0  0  0  0  0  0  0  0  0
    7.5306    3.4893   10.5798 C   0  0  0  0  0  0  0  0  0  0  0  0
    7.2505    3.7109    9.2943 N   0  0  0  0  0  0  0  0  0  0  0  0
    4.2770    0.5416    4.5918 C   0  0  0  0  0  0  0  0  0  0  0  0
    3.5959   -0.2246    3.6522 C   0  0  0  0  0  0  0  0  0  0  0  0
    2.7873   -1.6992    4.2216 S   0  0  0  0  0  0  0  0  0  0  0  0
    2.7522   -2.6290    2.7117 C   0  0  0  0  0  0  0  0  0  0  0  0
    2.6809   -4.0184    2.8067 C   0  0  0  0  0  0  0  0  0  0  0  0
    2.4909   -4.8352    1.6765 C   0  0  0  0  0  0  0  0  0  0  0  0
    2.3946   -6.3097    1.7962 C   0  0  0  0  0  0  0  0  0  0  0  0
    1.8170   -6.9153    2.9310 C   0  0  0  0  0  0  0  0  0  0  0  0
    1.7237   -8.2987    3.0467 C   0  0  0  0  0  0  0  0  0  0  0  0
    2.2089   -9.1296    2.0193 C   0  0  0  0  0  0  0  0  0  0  0  0
    2.1144  -10.5574    2.1316 C   0  0  0  0  0  0  0  0  0  0  0  0
    2.0376  -11.7129    2.2218 N   0  0  0  0  0  0  0  0  0  0  0  0
    2.7885   -8.5403    0.8797 C   0  0  0  0  0  0  0  0  0  0  0  0
    2.8780   -7.1557    0.7768 C   0  0  0  0  0  0  0  0  0  0  0  0
    2.3923   -4.1864    0.4366 C   0  0  0  0  0  0  0  0  0  0  0  0
    2.4966   -2.8000    0.3284 C   0  0  0  0  0  0  0  0  0  0  0  0
    2.6842   -1.9762    1.4571 C   0  0  0  0  0  0  0  0  0  0  0  0
    3.0178    0.6153   -1.9105 H   0  0  0  0  0  0  0  0  0  0  0  0
    3.7847   -0.8800   -1.3260 H   0  0  0  0  0  0  0  0  0  0  0  0
    4.3311    0.6858   -0.7119 H   0  0  0  0  0  0  0  0  0  0  0  0
    1.4926   -0.4819   -0.2809 H   0  0  0  0  0  0  0  0  0  0  0  0
    2.0326    1.0712    0.3261 H   0  0  0  0  0  0  0  0  0  0  0  0
    3.8978    1.8716    0.9844 H   0  0  0  0  0  0  0  0  0  0  0  0
    5.0193    3.2367    2.6554 H   0  0  0  0  0  0  0  0  0  0  0  0
    5.8755    3.6152    4.8886 H   0  0  0  0  0  0  0  0  0  0  0  0
    6.6912    3.9900    6.9885 H   0  0  0  0  0  0  0  0  0  0  0  0
    5.6300    0.8161    8.6046 H   0  0  0  0  0  0  0  0  0  0  0  0
    6.1659    0.4133   11.0312 H   0  0  0  0  0  0  0  0  0  0  0  0
    7.4218    2.1933   12.3136 H   0  0  0  0  0  0  0  0  0  0  0  0
    8.0764    4.2864   11.0987 H   0  0  0  0  0  0  0  0  0  0  0  0
    4.3879    0.1696    5.6120 H   0  0  0  0  0  0  0  0  0  0  0  0
    2.7820   -4.4705    3.7957 H   0  0  0  0  0  0  0  0  0  0  0  0
    1.4091   -6.2904    3.7279 H   0  0  0  0  0  0  0  0  0  0  0  0
    1.2649   -8.7462    3.9305 H   0  0  0  0  0  0  0  0  0  0  0  0
    3.1766   -9.1767    0.0821 H   0  0  0  0  0  0  0  0  0  0  0  0
    3.3569   -6.7209   -0.1027 H   0  0  0  0  0  0  0  0  0  0  0  0
    2.2148   -4.7661   -0.4715 H   0  0  0  0  0  0  0  0  0  0  0  0
    2.4224   -2.3625   -0.6646 H   0  0  0  0  0  0  0  0  0  0  0  0
  1  2  1  0
  1 34  1  0
  1 35  1  0
  1 36  1  0
  2  3  1  0
  2 37  1  0
  2 38  1  0
  3  4  1  0
  3 33  1  0
  4  5  1  0
  4 18  2  0
  5  6  2  0
  5 39  1  0
  6  7  1  0
  6 40  1  0
  7  8  1  0
  7 17  2  0
  8  9  2  0
  8 41  1  0
  9 10  1  0
 10 11  1  0
 10 42  1  0
 11 12  2  0
 11 16  1  0
 12 13  1  0
 12 43  1  0
 13 14  2  0
 13 44  1  0
 14 15  1  0
 14 45  1  0
 15 16  2  0
 15 46  1  0
 17 18  1  0
 17 47  1  0
 18 19  1  0
 19 20  1  0
 20 21  1  0
 20 33  2  0
 21 22  2  0
 21 48  1  0
 22 23  1  0
 22 31  1  0
 23 24  2  0
 23 30  1  0
 24 25  1  0
 24 49  1  0
 25 26  2  0
 25 50  1  0
 26 27  1  0
 26 29  1  0
 27 28  3  0
 29 30  2  0
 29 51  1  0
 30 52  1  0
 31 32  2  0
 31 53  1  0
 32 33  1  0
 32 54  1  0
M  END

