
     RDKit          3D

 35 36  0  0  0  0  0  0  0  0999 V2000
    0.5446   -0.2301   -0.7532 C   0  0  0  0  0  0  0  0  0  0  0  0
    2.0082    0.1091   -0.4453 C   0  0  1  0  0  0  0  0  0  0  0  0
    2.7775   -1.1087    0.1242 C   0  0  0  0  0  0  0  0  0  0  0  0
    3.0838   -2.1523   -0.8462 N   0  0  0  0  0  0  0  0  0  0  0  0
    3.7771   -1.6411   -2.0256 C   0  0  0  0  0  0  0  0  0  0  0  0
    3.0673   -0.4574   -2.7012 C   0  0  0  0  0  0  0  0  0  0  0  0
    2.7501    0.6634   -1.6893 C   0  0  2  0  0  0  0  0  0  0  0  0
    3.9574    1.3843   -1.2519 N   0  0  0  0  0  0  0  0  0  0  0  0
    4.6179    2.6290   -2.1390 S   0  0  1  0  0  0  0  0  0  0  0  0
    6.0705    2.4885   -2.0707 O   0  0  0  0  0  0  0  0  0  0  0  0
    3.9105    2.7097   -3.4224 O   0  0  0  0  0  0  0  0  0  0  0  0
    4.1637    4.1283   -1.2313 C   0  0  0  0  0  0  0  0  0  0  0  0
    3.4309    5.0969   -1.9265 C   0  0  0  0  0  0  0  0  0  0  0  0
    3.0889    6.3018   -1.3100 C   0  0  0  0  0  0  0  0  0  0  0  0
    3.4832    6.5422    0.0083 C   0  0  0  0  0  0  0  0  0  0  0  0
    4.2162    5.5823    0.7099 C   0  0  0  0  0  0  0  0  0  0  0  0
    4.5629    4.3766    0.0926 C   0  0  0  0  0  0  0  0  0  0  0  0
    5.4736    3.2133    1.0212 Cl  0  0  0  0  0  0  0  0  0  0  0  0
    0.0153   -0.5292    0.1659 H   0  0  0  0  0  0  0  0  0  0  0  0
    0.4487   -1.0599   -1.4719 H   0  0  0  0  0  0  0  0  0  0  0  0
    0.0120    0.6354   -1.1790 H   0  0  0  0  0  0  0  0  0  0  0  0
    2.0202    0.9069    0.3168 H   0  0  0  0  0  0  0  0  0  0  0  0
    2.2117   -1.5518    0.9607 H   0  0  0  0  0  0  0  0  0  0  0  0
    3.7332   -0.7609    0.5603 H   0  0  0  0  0  0  0  0  0  0  0  0
    2.2360   -2.6467   -1.1209 H   0  0  0  0  0  0  0  0  0  0  0  0
    3.9202   -2.4652   -2.7428 H   0  0  0  0  0  0  0  0  0  0  0  0
    4.7947   -1.3343   -1.7167 H   0  0  0  0  0  0  0  0  0  0  0  0
    2.1225   -0.8073   -3.1526 H   0  0  0  0  0  0  0  0  0  0  0  0
    3.6718   -0.0398   -3.5216 H   0  0  0  0  0  0  0  0  0  0  0  0
    2.1163    1.4163   -2.1804 H   0  0  0  0  0  0  0  0  0  0  0  0
    4.6900    0.8623   -0.7778 H   0  0  0  0  0  0  0  0  0  0  0  0
    3.1389    4.8825   -2.9555 H   0  0  0  0  0  0  0  0  0  0  0  0
    2.5168    7.0509   -1.8619 H   0  0  0  0  0  0  0  0  0  0  0  0
    3.2212    7.4819    0.5003 H   0  0  0  0  0  0  0  0  0  0  0  0
    4.5292    5.7574    1.7406 H   0  0  0  0  0  0  0  0  0  0  0  0
  1  2  1  0
  1 19  1  0
  1 20  1  0
  1 21  1  0
  2  3  1  0
  2  7  1  0
  2 22  1  1
  3  4  1  0
  3 23  1  0
  3 24  1  0
  4  5  1  0
  4 25  1  0
  5  6  1  0
  5 26  1  0
  5 27  1  0
  6  7  1  0
  6 28  1  0
  6 29  1  0
  7  8  1  0
  7 30  1  6
  9  8  1  1
  8 31  1  0
  9 10  2  0
  9 11  2  0
  9 12  1  0
 12 13  2  0
 12 17  1  0
 13 14  1  0
 13 32  1  0
 14 15  2  0
 14 33  1  0
 15 16  1  0
 15 34  1  0
 16 17  2  0
 16 35  1  0
 17 18  1  0
M  END

