
     RDKit          3D

 43 45  0  0  0  0  0  0  0  0999 V2000
    1.9291   -0.4815    0.7508 O   0  0  0  0  0  0  0  0  0  0  0  0
    2.3167    0.1057   -0.2482 C   0  0  0  0  0  0  0  0  0  0  0  0
    1.7259    1.4571   -0.5814 C   0  0  0  0  0  0  0  0  0  0  0  0
    2.5164    2.5795   -0.8774 C   0  0  0  0  0  0  0  0  0  0  0  0
    1.9327    3.8388   -1.0520 C   0  0  0  0  0  0  0  0  0  0  0  0
    0.5505    3.9944   -0.9459 C   0  0  0  0  0  0  0  0  0  0  0  0
   -0.2213    2.8708   -0.6439 C   0  0  0  0  0  0  0  0  0  0  0  0
   -1.6900    3.0246   -0.5235 N   0  0  0  0  0  0  0  0  0  0  0  0
   -2.1508    4.1447   -0.6704 O   0  0  0  0  0  0  0  0  0  0  0  0
   -2.3438    2.0225   -0.2891 O   0  0  0  0  0  0  0  0  0  0  0  0
    0.3407    1.6132   -0.4420 C   0  0  0  0  0  0  0  0  0  0  0  0
    3.3095   -0.3919   -1.0625 N   0  0  0  0  0  0  0  0  0  0  0  0
    4.0062   -1.6125   -0.6503 C   0  0  0  0  0  0  0  0  0  0  0  0
    3.6806   -2.7759   -1.5922 C   0  0  0  0  0  0  0  0  0  0  0  0
    3.9043   -2.4159   -2.9994 N   0  0  0  0  0  0  0  0  0  0  0  0
    5.4450   -2.7178   -3.6361 S   0  0  1  0  0  0  0  0  0  0  0  0
    5.5402   -1.9225   -4.8635 O   0  0  0  0  0  0  0  0  0  0  0  0
    6.4612   -2.6019   -2.5811 O   0  0  0  0  0  0  0  0  0  0  0  0
    5.3564   -4.4516   -4.0888 C   0  0  0  0  0  0  0  0  0  0  0  0
    4.5619   -4.8368   -5.1747 C   0  0  0  0  0  0  0  0  0  0  0  0
    4.5158   -6.1784   -5.5464 C   0  0  0  0  0  0  0  0  0  0  0  0
    5.2717   -7.1178   -4.8312 C   0  0  0  0  0  0  0  0  0  0  0  0
    5.2117   -8.7959   -5.2976 Cl  0  0  0  0  0  0  0  0  0  0  0  0
    6.0751   -6.7297   -3.7550 C   0  0  0  0  0  0  0  0  0  0  0  0
    6.1202   -5.3837   -3.3834 C   0  0  0  0  0  0  0  0  0  0  0  0
    3.2284   -1.1786   -3.3984 C   0  0  0  0  0  0  0  0  0  0  0  0
    3.5482   -0.0104   -2.4533 C   0  0  0  0  0  0  0  0  0  0  0  0
    3.6013    2.4738   -0.9510 H   0  0  0  0  0  0  0  0  0  0  0  0
    2.5612    4.7053   -1.2693 H   0  0  0  0  0  0  0  0  0  0  0  0
    0.0614    4.9583   -1.0829 H   0  0  0  0  0  0  0  0  0  0  0  0
   -0.2930    0.7700   -0.1698 H   0  0  0  0  0  0  0  0  0  0  0  0
    3.6964   -1.8469    0.3753 H   0  0  0  0  0  0  0  0  0  0  0  0
    5.0933   -1.4289   -0.6749 H   0  0  0  0  0  0  0  0  0  0  0  0
    2.6201   -3.0624   -1.4881 H   0  0  0  0  0  0  0  0  0  0  0  0
    4.2868   -3.6559   -1.3349 H   0  0  0  0  0  0  0  0  0  0  0  0
    3.9897   -4.0908   -5.7293 H   0  0  0  0  0  0  0  0  0  0  0  0
    3.9039   -6.5036   -6.3891 H   0  0  0  0  0  0  0  0  0  0  0  0
    6.6629   -7.4757   -3.2181 H   0  0  0  0  0  0  0  0  0  0  0  0
    6.7506   -5.0497   -2.5577 H   0  0  0  0  0  0  0  0  0  0  0  0
    2.1425   -1.3787   -3.3831 H   0  0  0  0  0  0  0  0  0  0  0  0
    3.5194   -0.9271   -4.4261 H   0  0  0  0  0  0  0  0  0  0  0  0
    2.9260    0.8514   -2.7222 H   0  0  0  0  0  0  0  0  0  0  0  0
    4.6069    0.2798   -2.5824 H   0  0  0  0  0  0  0  0  0  0  0  0
  1  2  2  0
  2  3  1  0
  2 12  1  0
  3  4  2  0
  3 11  1  0
  4  5  1  0
  4 28  1  0
  5  6  2  0
  5 29  1  0
  6  7  1  0
  6 30  1  0
  7  8  1  0
  7 11  2  0
  8  9  2  0
  8 10  1  0
 11 31  1  0
 12 13  1  0
 12 27  1  0
 13 14  1  0
 13 32  1  0
 13 33  1  0
 14 15  1  0
 14 34  1  0
 14 35  1  0
 15 16  1  0
 15 26  1  0
 16 17  2  0
 16 18  2  0
 16 19  1  6
 19 20  2  0
 19 25  1  0
 20 21  1  0
 20 36  1  0
 21 22  2  0
 21 37  1  0
 22 23  1  0
 22 24  1  0
 24 25  2  0
 24 38  1  0
 25 39  1  0
 26 27  1  0
 26 40  1  0
 26 41  1  0
 27 42  1  0
 27 43  1  0
M  CHG  2   8   1  10  -1
M  END

