
     RDKit          3D

 43 43  0  0  0  0  0  0  0  0999 V2000
    3.0212   -1.4235   -8.0614 N   0  0  0  0  0  0  0  0  0  0  0  0
    2.8995   -1.3451   -6.6821 C   0  0  0  0  0  0  0  0  0  0  0  0
    1.7345   -0.5545   -6.1367 C   0  0  0  0  0  0  0  0  0  0  0  0
    2.1534    0.8108   -5.5638 C   0  0  0  0  0  0  0  0  0  0  0  0
    0.9718    1.6222   -5.0290 C   0  0  0  0  0  0  0  0  0  0  0  0
    1.3614    2.9778   -4.4245 C   0  0  0  0  0  0  0  0  0  0  0  0
    1.9880    3.8969   -5.3638 N   0  0  0  0  0  0  0  0  0  0  0  0
    1.2596    4.7432   -6.1533 C   0  0  0  0  0  0  0  0  0  0  0  0
    0.0409    4.8006   -6.0972 O   0  0  0  0  0  0  0  0  0  0  0  0
    2.0707    5.6018   -7.1229 C   0  0  0  0  0  0  0  0  0  0  0  0
    1.5440    7.0471   -7.2022 C   0  0  1  0  0  0  0  0  0  0  0  0
    1.7674    7.8378   -5.8948 C   0  0  0  0  0  0  0  0  0  0  0  0
    3.2321    8.2452   -5.6760 C   0  0  0  0  0  0  0  0  0  0  0  0
    3.7892    9.0153   -6.8813 C   0  0  0  0  0  0  0  0  0  0  0  0
    3.6040    8.2296   -8.1867 C   0  0  0  0  0  0  0  0  0  0  0  0
    2.1367    7.8248   -8.3948 C   0  0  0  0  0  0  0  0  0  0  0  0
    3.7627   -1.9720   -5.9630 N   0  0  0  0  0  0  0  0  0  0  0  0
    3.4487   -1.8898   -4.5911 O   0  0  0  0  0  0  0  0  0  0  0  0
    2.7364   -0.5974   -8.5770 H   0  0  0  0  0  0  0  0  0  0  0  0
    3.9034   -1.8144   -8.3806 H   0  0  0  0  0  0  0  0  0  0  0  0
    1.2638   -1.1502   -5.3392 H   0  0  0  0  0  0  0  0  0  0  0  0
    0.9848   -0.4223   -6.9341 H   0  0  0  0  0  0  0  0  0  0  0  0
    2.6723    1.3915   -6.3476 H   0  0  0  0  0  0  0  0  0  0  0  0
    2.8875    0.6355   -4.7598 H   0  0  0  0  0  0  0  0  0  0  0  0
    0.4486    1.0396   -4.2497 H   0  0  0  0  0  0  0  0  0  0  0  0
    0.2342    1.7978   -5.8312 H   0  0  0  0  0  0  0  0  0  0  0  0
    2.0536    2.8303   -3.5785 H   0  0  0  0  0  0  0  0  0  0  0  0
    0.4590    3.4747   -4.0391 H   0  0  0  0  0  0  0  0  0  0  0  0
    2.9947    3.8852   -5.4650 H   0  0  0  0  0  0  0  0  0  0  0  0
    1.9655    5.1311   -8.1170 H   0  0  0  0  0  0  0  0  0  0  0  0
    3.1437    5.5646   -6.8736 H   0  0  0  0  0  0  0  0  0  0  0  0
    0.4571    6.9499   -7.3540 H   0  0  0  0  0  0  0  0  0  0  0  0
    1.3899    7.2620   -5.0335 H   0  0  0  0  0  0  0  0  0  0  0  0
    1.1505    8.7535   -5.9382 H   0  0  0  0  0  0  0  0  0  0  0  0
    3.8527    7.3475   -5.4986 H   0  0  0  0  0  0  0  0  0  0  0  0
    3.3184    8.8544   -4.7604 H   0  0  0  0  0  0  0  0  0  0  0  0
    4.8540    9.2586   -6.7256 H   0  0  0  0  0  0  0  0  0  0  0  0
    3.2596    9.9827   -6.9657 H   0  0  0  0  0  0  0  0  0  0  0  0
    4.2441    7.3284   -8.1648 H   0  0  0  0  0  0  0  0  0  0  0  0
    3.9540    8.8273   -9.0454 H   0  0  0  0  0  0  0  0  0  0  0  0
    2.0281    7.2366   -9.3225 H   0  0  0  0  0  0  0  0  0  0  0  0
    1.5371    8.7415   -8.5411 H   0  0  0  0  0  0  0  0  0  0  0  0
    4.1393   -2.4334   -4.1935 H   0  0  0  0  0  0  0  0  0  0  0  0
  1  2  1  0
  1 19  1  0
  1 20  1  0
  2  3  1  0
  2 17  2  0
  3  4  1  0
  3 21  1  0
  3 22  1  0
  4  5  1  0
  4 23  1  0
  4 24  1  0
  5  6  1  0
  5 25  1  0
  5 26  1  0
  6  7  1  0
  6 27  1  0
  6 28  1  0
  7  8  1  0
  7 29  1  0
  8  9  2  0
  8 10  1  0
 10 11  1  0
 10 30  1  0
 10 31  1  0
 11 12  1  0
 11 16  1  0
 11 32  1  6
 12 13  1  0
 12 33  1  0
 12 34  1  0
 13 14  1  0
 13 35  1  0
 13 36  1  0
 14 15  1  0
 14 37  1  0
 14 38  1  0
 15 16  1  0
 15 39  1  0
 15 40  1  0
 16 41  1  0
 16 42  1  0
 17 18  1  0
 18 43  1  0
M  END

