
     RDKit          3D

 36 37  0  0  0  0  0  0  0  0999 V2000
    1.0983   -0.1261    0.0566 C   0  0  0  0  0  0  0  0  0  0  0  0
    2.5100    0.2172    0.0655 N   0  0  0  0  0  0  0  0  0  0  0  0
    2.9977    0.8685   -1.1477 C   0  0  1  0  0  0  0  0  0  0  0  0
    2.5330    2.3207   -1.1954 C   0  0  0  0  0  0  0  0  0  0  0  0
    2.3381    3.0862   -0.0353 C   0  0  0  0  0  0  0  0  0  0  0  0
    1.9199    4.4179   -0.0859 C   0  0  0  0  0  0  0  0  0  0  0  0
    1.6772    5.0089   -1.3288 C   0  0  0  0  0  0  0  0  0  0  0  0
    1.1504    6.6736   -1.4155 Cl  0  0  0  0  0  0  0  0  0  0  0  0
    1.8420    4.2809   -2.5089 C   0  0  0  0  0  0  0  0  0  0  0  0
    2.2635    2.9571   -2.4130 C   0  0  0  0  0  0  0  0  0  0  0  0
    2.4094    2.2644   -3.5592 F   0  0  0  0  0  0  0  0  0  0  0  0
    4.5363    0.6969   -1.2332 C   0  0  1  0  0  0  0  0  0  0  0  0
    5.2227    1.2440   -2.4989 C   0  0  0  0  0  0  0  0  0  0  0  0
    6.7052    1.2148   -2.1171 C   0  0  0  0  0  0  0  0  0  0  0  0
    6.7214    1.7566   -0.6719 C   0  0  2  0  0  0  0  0  0  0  0  0
    7.9557    1.3654    0.1387 C   0  0  0  0  0  0  0  0  0  0  0  0
    5.3689    1.2810   -0.0589 C   0  0  0  0  0  0  0  0  0  0  0  0
    0.8410   -0.6673    0.9805 H   0  0  0  0  0  0  0  0  0  0  0  0
    0.7889   -0.7534   -0.8085 H   0  0  0  0  0  0  0  0  0  0  0  0
    0.4834    0.7879    0.0309 H   0  0  0  0  0  0  0  0  0  0  0  0
    3.0689   -0.6131    0.2489 H   0  0  0  0  0  0  0  0  0  0  0  0
    2.5869    0.3788   -2.0565 H   0  0  0  0  0  0  0  0  0  0  0  0
    2.5024    2.5979    0.9270 H   0  0  0  0  0  0  0  0  0  0  0  0
    1.7751    4.9950    0.8284 H   0  0  0  0  0  0  0  0  0  0  0  0
    1.6479    4.7206   -3.4873 H   0  0  0  0  0  0  0  0  0  0  0  0
    4.6967   -0.3982   -1.2460 H   0  0  0  0  0  0  0  0  0  0  0  0
    4.9128    2.2853   -2.6872 H   0  0  0  0  0  0  0  0  0  0  0  0
    4.9805    0.6642   -3.4030 H   0  0  0  0  0  0  0  0  0  0  0  0
    7.3466    1.7964   -2.7986 H   0  0  0  0  0  0  0  0  0  0  0  0
    7.0756    0.1733   -2.1321 H   0  0  0  0  0  0  0  0  0  0  0  0
    6.6922    2.8589   -0.7376 H   0  0  0  0  0  0  0  0  0  0  0  0
    8.0309    0.2689    0.2407 H   0  0  0  0  0  0  0  0  0  0  0  0
    7.9249    1.7925    1.1546 H   0  0  0  0  0  0  0  0  0  0  0  0
    8.8826    1.7195   -0.3423 H   0  0  0  0  0  0  0  0  0  0  0  0
    4.8463    2.1207    0.4220 H   0  0  0  0  0  0  0  0  0  0  0  0
    5.5289    0.5259    0.7273 H   0  0  0  0  0  0  0  0  0  0  0  0
  1  2  1  0
  1 18  1  0
  1 19  1  0
  1 20  1  0
  2  3  1  0
  2 21  1  0
  3  4  1  0
  3 12  1  0
  3 22  1  6
  4  5  2  0
  4 10  1  0
  5  6  1  0
  5 23  1  0
  6  7  2  0
  6 24  1  0
  7  8  1  0
  7  9  1  0
  9 10  2  0
  9 25  1  0
 10 11  1  0
 12 13  1  0
 12 17  1  0
 12 26  1  6
 13 14  1  0
 13 27  1  0
 13 28  1  0
 14 15  1  0
 14 29  1  0
 14 30  1  0
 15 16  1  0
 15 17  1  0
 15 31  1  6
 16 32  1  0
 16 33  1  0
 16 34  1  0
 17 35  1  0
 17 36  1  0
M  END

