
     RDKit          3D

 41 42  0  0  0  0  0  0  0  0999 V2000
    0.8487    0.8795    1.8453 C   0  0  0  0  0  0  0  0  0  0  0  0
    2.3273    1.1512    2.1232 C   0  0  0  0  0  0  0  0  0  0  0  0
    3.2739    0.3336    1.2226 C   0  0  0  0  0  0  0  0  0  0  0  0
    4.7407    0.5657    1.4513 C   0  0  0  0  0  0  0  0  0  0  0  0
    5.7004   -0.2450    2.1330 C   0  0  0  0  0  0  0  0  0  0  0  0
    5.4636   -1.5292    2.8344 C   0  0  0  0  0  0  0  0  0  0  0  0
    4.4710   -1.6228    3.8313 C   0  0  0  0  0  0  0  0  0  0  0  0
    4.2425   -2.8212    4.4990 C   0  0  0  0  0  0  0  0  0  0  0  0
    4.9930   -3.9621    4.1892 C   0  0  0  0  0  0  0  0  0  0  0  0
    5.9759   -3.8953    3.1954 C   0  0  0  0  0  0  0  0  0  0  0  0
    6.7497   -4.9441    2.8076 O   0  0  0  0  0  0  0  0  0  0  0  0
    6.5585   -6.1990    3.4156 C   0  0  0  0  0  0  0  0  0  0  0  0
    6.2074   -2.6774    2.5051 C   0  0  0  0  0  0  0  0  0  0  0  0
    7.0982   -2.6600    1.4741 O   0  0  0  0  0  0  0  0  0  0  0  0
    8.4755   -2.5904    1.8164 C   0  0  0  0  0  0  0  0  0  0  0  0
    6.9216    0.2878    2.0706 N   0  0  0  0  0  0  0  0  0  0  0  0
    6.7805    1.4376    1.3845 N   0  0  0  0  0  0  0  0  0  0  0  0
    7.9189    2.2902    1.1363 C   0  0  0  0  0  0  0  0  0  0  0  0
    5.4946    1.6356    0.9727 C   0  0  0  0  0  0  0  0  0  0  0  0
    5.1332    2.7807    0.2545 N   0  0  0  0  0  0  0  0  0  0  0  0
    0.1956    1.4786    2.4999 H   0  0  0  0  0  0  0  0  0  0  0  0
    0.6010   -0.1827    2.0087 H   0  0  0  0  0  0  0  0  0  0  0  0
    0.5843    1.1196    0.8013 H   0  0  0  0  0  0  0  0  0  0  0  0
    2.5559    0.9322    3.1802 H   0  0  0  0  0  0  0  0  0  0  0  0
    2.5388    2.2289    1.9973 H   0  0  0  0  0  0  0  0  0  0  0  0
    3.0287    0.5586    0.1661 H   0  0  0  0  0  0  0  0  0  0  0  0
    3.0555   -0.7388    1.3556 H   0  0  0  0  0  0  0  0  0  0  0  0
    3.9001   -0.7310    4.0957 H   0  0  0  0  0  0  0  0  0  0  0  0
    3.4779   -2.8772    5.2778 H   0  0  0  0  0  0  0  0  0  0  0  0
    4.8038   -4.8940    4.7223 H   0  0  0  0  0  0  0  0  0  0  0  0
    7.2729   -6.8880    2.9445 H   0  0  0  0  0  0  0  0  0  0  0  0
    5.5344   -6.5829    3.2554 H   0  0  0  0  0  0  0  0  0  0  0  0
    6.7570   -6.1681    4.5029 H   0  0  0  0  0  0  0  0  0  0  0  0
    9.0369   -2.6445    0.8722 H   0  0  0  0  0  0  0  0  0  0  0  0
    8.7759   -3.4366    2.4571 H   0  0  0  0  0  0  0  0  0  0  0  0
    8.6987   -1.6333    2.3154 H   0  0  0  0  0  0  0  0  0  0  0  0
    8.5915    2.2378    2.0028 H   0  0  0  0  0  0  0  0  0  0  0  0
    7.5697    3.3239    1.0019 H   0  0  0  0  0  0  0  0  0  0  0  0
    8.4800    1.9786    0.2376 H   0  0  0  0  0  0  0  0  0  0  0  0
    5.5697    2.8452   -0.6649 H   0  0  0  0  0  0  0  0  0  0  0  0
    4.1266    2.8630    0.1478 H   0  0  0  0  0  0  0  0  0  0  0  0
  1  2  1  0
  1 21  1  0
  1 22  1  0
  1 23  1  0
  2  3  1  0
  2 24  1  0
  2 25  1  0
  3  4  1  0
  3 26  1  0
  3 27  1  0
  4  5  1  0
  4 19  2  0
  5  6  1  0
  5 16  2  0
  6  7  2  0
  6 13  1  0
  7  8  1  0
  7 28  1  0
  8  9  2  0
  8 29  1  0
  9 10  1  0
  9 30  1  0
 10 11  1  0
 10 13  2  0
 11 12  1  0
 12 31  1  0
 12 32  1  0
 12 33  1  0
 13 14  1  0
 14 15  1  0
 15 34  1  0
 15 35  1  0
 15 36  1  0
 16 17  1  0
 17 18  1  0
 17 19  1  0
 18 37  1  0
 18 38  1  0
 18 39  1  0
 19 20  1  0
 20 40  1  0
 20 41  1  0
M  END

