
     RDKit          3D

 46 48  0  0  0  0  0  0  0  0999 V2000
    0.8091    1.9121   -0.7299 C   0  0  0  0  0  0  0  0  0  0  0  0
    2.1803    1.5333   -0.6362 O   0  0  0  0  0  0  0  0  0  0  0  0
    3.0831    2.5186   -0.8223 C   0  0  0  0  0  0  0  0  0  0  0  0
    2.7667    3.6630   -1.0566 O   0  0  0  0  0  0  0  0  0  0  0  0
    4.4887    2.0364   -0.7069 C   0  0  0  0  0  0  0  0  0  0  0  0
    5.5262    2.9677   -0.8770 C   0  0  0  0  0  0  0  0  0  0  0  0
    6.8519    2.5651   -0.7763 C   0  0  0  0  0  0  0  0  0  0  0  0
    7.1968    1.2171   -0.5152 C   0  0  0  0  0  0  0  0  0  0  0  0
    8.6083    0.8750   -0.4342 C   0  0  0  0  0  0  0  0  0  0  0  0
    9.2361   -0.3359   -0.3911 C   0  0  0  0  0  0  0  0  0  0  0  0
    8.8194   -1.7184   -0.4555 C   0  0  0  0  0  0  0  0  0  0  0  0
    9.9384   -2.5150   -0.4110 C   0  0  0  0  0  0  0  0  0  0  0  0
   10.0405   -3.9721   -0.4753 C   0  0  0  0  0  0  0  0  0  0  0  0
    8.9649   -4.7846   -0.0952 C   0  0  0  0  0  0  0  0  0  0  0  0
    9.0606   -6.1777   -0.1676 C   0  0  0  0  0  0  0  0  0  0  0  0
   10.2320   -6.7944   -0.6174 C   0  0  0  0  0  0  0  0  0  0  0  0
   10.4198   -8.1268   -0.7176 O   0  0  0  0  0  0  0  0  0  0  0  0
    9.3721   -8.9998   -0.3588 C   0  0  0  0  0  0  0  0  0  0  0  0
   11.3364   -5.9817   -1.0068 C   0  0  0  0  0  0  0  0  0  0  0  0
   12.4284   -6.6509   -1.4403 O   0  0  0  0  0  0  0  0  0  0  0  0
   13.5642   -5.9240   -1.8490 C   0  0  0  0  0  0  0  0  0  0  0  0
   11.2279   -4.5951   -0.9304 C   0  0  0  0  0  0  0  0  0  0  0  0
   11.0813   -1.7125   -0.3311 N   0  0  0  0  0  0  0  0  0  0  0  0
   10.7449   -0.3626   -0.2813 C   0  0  0  0  0  0  0  0  0  0  0  0
   11.5251    0.5578   -0.1577 O   0  0  0  0  0  0  0  0  0  0  0  0
    6.1391    0.2951   -0.3333 C   0  0  0  0  0  0  0  0  0  0  0  0
    4.8111    0.6971   -0.4274 C   0  0  0  0  0  0  0  0  0  0  0  0
    0.2258    1.0004   -0.5499 H   0  0  0  0  0  0  0  0  0  0  0  0
    0.5817    2.3198   -1.7269 H   0  0  0  0  0  0  0  0  0  0  0  0
    0.5612    2.6784    0.0204 H   0  0  0  0  0  0  0  0  0  0  0  0
    5.2659    4.0070   -1.0861 H   0  0  0  0  0  0  0  0  0  0  0  0
    7.6519    3.2983   -0.9076 H   0  0  0  0  0  0  0  0  0  0  0  0
    9.2961    1.7281   -0.4159 H   0  0  0  0  0  0  0  0  0  0  0  0
    7.8143   -2.0961   -0.6128 H   0  0  0  0  0  0  0  0  0  0  0  0
    8.0491   -4.3312    0.2872 H   0  0  0  0  0  0  0  0  0  0  0  0
    8.2102   -6.7840    0.1438 H   0  0  0  0  0  0  0  0  0  0  0  0
    9.7457  -10.0189   -0.5247 H   0  0  0  0  0  0  0  0  0  0  0  0
    8.4739   -8.8409   -0.9824 H   0  0  0  0  0  0  0  0  0  0  0  0
    9.0916   -8.8894    0.7043 H   0  0  0  0  0  0  0  0  0  0  0  0
   14.3165   -6.6646   -2.1510 H   0  0  0  0  0  0  0  0  0  0  0  0
   13.9771   -5.3097   -1.0280 H   0  0  0  0  0  0  0  0  0  0  0  0
   13.3446   -5.2659   -2.7093 H   0  0  0  0  0  0  0  0  0  0  0  0
   12.0603   -3.9768   -1.2644 H   0  0  0  0  0  0  0  0  0  0  0  0
   12.0136   -2.0409   -0.1142 H   0  0  0  0  0  0  0  0  0  0  0  0
    6.3591   -0.7427   -0.0882 H   0  0  0  0  0  0  0  0  0  0  0  0
    4.0075   -0.0251   -0.2789 H   0  0  0  0  0  0  0  0  0  0  0  0
  1  2  1  0
  1 28  1  0
  1 29  1  0
  1 30  1  0
  2  3  1  0
  3  4  2  0
  3  5  1  0
  5  6  2  0
  5 27  1  0
  6  7  1  0
  6 31  1  0
  7  8  2  0
  7 32  1  0
  8  9  1  0
  8 26  1  0
  9 10  2  0
  9 33  1  0
 10 11  1  0
 10 24  1  0
 11 12  2  0
 11 34  1  0
 12 13  1  0
 12 23  1  0
 13 14  2  0
 13 22  1  0
 14 15  1  0
 14 35  1  0
 15 16  2  0
 15 36  1  0
 16 17  1  0
 16 19  1  0
 17 18  1  0
 18 37  1  0
 18 38  1  0
 18 39  1  0
 19 20  1  0
 19 22  2  0
 20 21  1  0
 21 40  1  0
 21 41  1  0
 21 42  1  0
 22 43  1  0
 23 24  1  0
 23 44  1  0
 24 25  2  0
 26 27  2  0
 26 45  1  0
 27 46  1  0
M  END

