
     RDKit          3D

 40 42  0  0  0  0  0  0  0  0999 V2000
    0.7598   -1.0731    1.4388 C   0  0  0  0  0  0  0  0  0  0  0  0
    2.1565   -0.6199    1.0170 C   0  0  1  0  0  0  0  0  0  0  0  0
    2.1513   -0.3705   -0.0529 H   0  0  0  0  0  0  0  0  0  0  0  0
    2.7774    0.5347    1.8487 C   0  0  1  0  0  0  0  0  0  0  0  0
    3.5026    1.0734    1.2127 H   0  0  0  0  0  0  0  0  0  0  0  0
    1.8247    1.5318    2.4604 C   0  0  0  0  0  0  0  0  0  0  0  0
    1.4416    1.4559    3.8058 C   0  0  0  0  0  0  0  0  0  0  0  0
    0.5368    2.3823    4.3334 C   0  0  0  0  0  0  0  0  0  0  0  0
    0.0054    3.3900    3.5242 C   0  0  0  0  0  0  0  0  0  0  0  0
    0.3898    3.4748    2.1820 C   0  0  0  0  0  0  0  0  0  0  0  0
    1.2990    2.5546    1.6558 C   0  0  0  0  0  0  0  0  0  0  0  0
    3.5319   -0.1548    2.8609 O   0  0  0  0  0  0  0  0  0  0  0  0
    3.8813   -1.3928    2.4335 C   0  0  0  0  0  0  0  0  0  0  0  0
    4.6664   -2.0874    3.0178 O   0  0  0  0  0  0  0  0  0  0  0  0
    3.1715   -1.6585    1.2554 N   0  0  0  0  0  0  0  0  0  0  0  0
    3.2823   -2.7511    0.3681 C   0  0  0  0  0  0  0  0  0  0  0  0
    2.5428   -2.7791   -0.6020 O   0  0  0  0  0  0  0  0  0  0  0  0
    4.2987   -3.7834    0.6628 C   0  0  0  0  0  0  0  0  0  0  0  0
    4.4472   -4.8196   -0.1908 C   0  0  0  0  0  0  0  0  0  0  0  0
    5.3884   -5.9348   -0.0762 C   0  0  0  0  0  0  0  0  0  0  0  0
    5.3954   -6.9218   -1.0825 C   0  0  0  0  0  0  0  0  0  0  0  0
    6.2724   -8.0060   -1.0227 C   0  0  0  0  0  0  0  0  0  0  0  0
    7.1623   -8.1251    0.0482 C   0  0  0  0  0  0  0  0  0  0  0  0
    7.1685   -7.1532    1.0577 C   0  0  0  0  0  0  0  0  0  0  0  0
    6.2938   -6.0711    0.9982 C   0  0  0  0  0  0  0  0  0  0  0  0
    0.0232   -0.2799    1.2440 H   0  0  0  0  0  0  0  0  0  0  0  0
    0.7218   -1.3190    2.5113 H   0  0  0  0  0  0  0  0  0  0  0  0
    0.4766   -1.9612    0.8573 H   0  0  0  0  0  0  0  0  0  0  0  0
    1.8677    0.6772    4.4404 H   0  0  0  0  0  0  0  0  0  0  0  0
    0.2490    2.3168    5.3858 H   0  0  0  0  0  0  0  0  0  0  0  0
   -0.7009    4.1134    3.9393 H   0  0  0  0  0  0  0  0  0  0  0  0
   -0.0129    4.2658    1.5445 H   0  0  0  0  0  0  0  0  0  0  0  0
    1.6061    2.6360    0.6086 H   0  0  0  0  0  0  0  0  0  0  0  0
    4.8910   -3.6727    1.5695 H   0  0  0  0  0  0  0  0  0  0  0  0
    3.7916   -4.8303   -1.0684 H   0  0  0  0  0  0  0  0  0  0  0  0
    4.6994   -6.8298   -1.9208 H   0  0  0  0  0  0  0  0  0  0  0  0
    6.2613   -8.7599   -1.8138 H   0  0  0  0  0  0  0  0  0  0  0  0
    7.8506   -8.9725    0.0992 H   0  0  0  0  0  0  0  0  0  0  0  0
    7.8624   -7.2427    1.8973 H   0  0  0  0  0  0  0  0  0  0  0  0
    6.3109   -5.3228    1.7932 H   0  0  0  0  0  0  0  0  0  0  0  0
  1  2  1  0
  1 26  1  0
  1 27  1  0
  1 28  1  0
  2  3  1  6
  2  4  1  0
  2 15  1  0
  4  5  1  6
  4  6  1  0
  4 12  1  0
  6  7  2  0
  6 11  1  0
  7  8  1  0
  7 29  1  0
  8  9  2  0
  8 30  1  0
  9 10  1  0
  9 31  1  0
 10 11  2  0
 10 32  1  0
 11 33  1  0
 12 13  1  0
 13 14  2  0
 13 15  1  0
 15 16  1  0
 16 17  2  0
 16 18  1  0
 18 19  2  0
 18 34  1  0
 19 20  1  0
 19 35  1  0
 20 21  2  0
 20 25  1  0
 21 22  1  0
 21 36  1  0
 22 23  2  0
 22 37  1  0
 23 24  1  0
 23 38  1  0
 24 25  2  0
 24 39  1  0
 25 40  1  0
M  END

