
     RDKit          3D

 37 37  0  0  0  0  0  0  0  0999 V2000
    1.4295   -0.1521   -0.8330 C   0  0  0  0  0  0  0  0  0  0  0  0
    2.7931   -0.0592   -0.4307 O   0  0  0  0  0  0  0  0  0  0  0  0
    3.0225    0.5243    0.7680 C   0  0  0  0  0  0  0  0  0  0  0  0
    2.1257    0.9481    1.4664 O   0  0  0  0  0  0  0  0  0  0  0  0
    4.4728    0.5517    1.0519 C   0  0  0  0  0  0  0  0  0  0  0  0
    5.0531    1.0734    2.1536 C   0  0  0  0  0  0  0  0  0  0  0  0
    6.5465    1.0745    2.3281 C   0  0  0  0  0  0  0  0  0  0  0  0
    7.0434    2.5039    2.6090 C   0  0  0  0  0  0  0  0  0  0  0  0
    6.3044    3.2220    3.6286 N   0  0  0  0  0  0  0  0  0  0  0  0
    5.1243    2.8552    3.9291 C   0  0  0  0  0  0  0  0  0  0  0  0
    4.3788    3.5899    5.0351 C   0  0  0  0  0  0  0  0  0  0  0  0
    3.3280    3.1666    5.4678 O   0  0  0  0  0  0  0  0  0  0  0  0
    5.0070    4.6877    5.4392 O   0  0  0  0  0  0  0  0  0  0  0  0
    4.4904    5.5455    6.5163 C   0  0  1  0  0  0  0  0  0  0  0  0
    4.4124    4.7511    7.8240 C   0  0  0  0  0  0  0  0  0  0  0  0
    5.5507    6.6437    6.6088 C   0  0  0  0  0  0  0  0  0  0  0  0
    3.1328    6.1294    6.1122 C   0  0  0  0  0  0  0  0  0  0  0  0
    4.3266    1.7255    3.2986 C   0  0  0  0  0  0  0  0  0  0  0  0
    1.4310   -0.6485   -1.8115 H   0  0  0  0  0  0  0  0  0  0  0  0
    0.9731    0.8466   -0.9134 H   0  0  0  0  0  0  0  0  0  0  0  0
    0.8439   -0.7393   -0.1087 H   0  0  0  0  0  0  0  0  0  0  0  0
    5.1013    0.1010    0.2796 H   0  0  0  0  0  0  0  0  0  0  0  0
    7.0601    0.6474    1.4536 H   0  0  0  0  0  0  0  0  0  0  0  0
    6.8016    0.4453    3.2018 H   0  0  0  0  0  0  0  0  0  0  0  0
    7.0067    3.1136    1.6867 H   0  0  0  0  0  0  0  0  0  0  0  0
    8.1048    2.4856    2.9084 H   0  0  0  0  0  0  0  0  0  0  0  0
    5.3906    4.3035    8.0595 H   0  0  0  0  0  0  0  0  0  0  0  0
    3.6618    3.9529    7.7625 H   0  0  0  0  0  0  0  0  0  0  0  0
    4.1398    5.4273    8.6493 H   0  0  0  0  0  0  0  0  0  0  0  0
    6.5338    6.2113    6.8477 H   0  0  0  0  0  0  0  0  0  0  0  0
    5.2834    7.3673    7.3939 H   0  0  0  0  0  0  0  0  0  0  0  0
    5.6363    7.1790    5.6514 H   0  0  0  0  0  0  0  0  0  0  0  0
    2.3686    5.3459    6.0318 H   0  0  0  0  0  0  0  0  0  0  0  0
    3.2120    6.6497    5.1449 H   0  0  0  0  0  0  0  0  0  0  0  0
    2.8079    6.8622    6.8674 H   0  0  0  0  0  0  0  0  0  0  0  0
    3.3316    2.0817    2.9987 H   0  0  0  0  0  0  0  0  0  0  0  0
    4.1099    0.9780    4.0856 H   0  0  0  0  0  0  0  0  0  0  0  0
  1  2  1  0
  1 19  1  0
  1 20  1  0
  1 21  1  0
  2  3  1  0
  3  4  2  0
  3  5  1  0
  5  6  2  0
  5 22  1  0
  6  7  1  0
  6 18  1  0
  7  8  1  0
  7 23  1  0
  7 24  1  0
  8  9  1  0
  8 25  1  0
  8 26  1  0
  9 10  2  0
 10 11  1  0
 10 18  1  0
 11 12  2  0
 11 13  1  0
 14 13  1  6
 14 15  1  0
 14 16  1  0
 14 17  1  0
 15 27  1  0
 15 28  1  0
 15 29  1  0
 16 30  1  0
 16 31  1  0
 16 32  1  0
 17 33  1  0
 17 34  1  0
 17 35  1  0
 18 36  1  0
 18 37  1  0
M  END

