
     RDKit          3D

 55 56  0  0  0  0  0  0  0  0999 V2000
    2.2499    1.8462    0.6798 C   0  0  0  0  0  0  0  0  0  0  0  0
    2.1257    0.3399    0.3802 C   0  0  1  0  0  0  0  0  0  0  0  0
    0.8239   -0.1753    1.0246 C   0  0  0  0  0  0  0  0  0  0  0  0
    1.9865    0.2047   -1.1727 C   0  0  0  0  0  0  0  0  0  0  0  0
    1.7773   -1.1552   -1.6612 N   0  0  0  0  0  0  0  0  0  0  0  0
    0.4432   -1.4726   -2.1692 C   0  0  0  0  0  0  0  0  0  0  0  0
    0.2443   -1.0647   -3.6435 C   0  0  0  0  0  0  0  0  0  0  0  0
    1.2779   -1.5762   -4.5362 N   0  0  0  0  0  0  0  0  0  0  0  0
    0.9907   -2.7569   -5.3822 C   0  0  1  0  0  0  0  0  0  0  0  0
   -0.1512   -2.3931   -6.3592 C   0  0  0  0  0  0  0  0  0  0  0  0
    2.2194   -3.1152   -6.2381 C   0  0  0  0  0  0  0  0  0  0  0  0
    0.5790   -4.0137   -4.5741 C   0  0  0  0  0  0  0  0  0  0  0  0
    2.6056   -1.2748   -4.0159 C   0  0  0  0  0  0  0  0  0  0  0  0
    2.8031   -1.7006   -2.5494 C   0  0  0  0  0  0  0  0  0  0  0  0
    3.3447   -0.5268    0.8603 C   0  0  1  0  0  0  0  0  0  0  0  0
    4.7492   -0.0405    0.4098 C   0  0  0  0  0  0  0  0  0  0  0  0
    5.4169    0.9854    1.3442 C   0  0  0  0  0  0  0  0  0  0  0  0
    5.3533    0.5306    2.8096 C   0  0  0  0  0  0  0  0  0  0  0  0
    4.0180    0.1436    3.2454 N   0  0  0  0  0  0  0  0  0  0  0  0
    3.4220   -0.8631    2.3740 C   0  0  0  0  0  0  0  0  0  0  0  0
    1.3377    2.3765    0.3580 H   0  0  0  0  0  0  0  0  0  0  0  0
    3.0970    2.3086    0.1504 H   0  0  0  0  0  0  0  0  0  0  0  0
    2.3777    2.0445    1.7546 H   0  0  0  0  0  0  0  0  0  0  0  0
   -0.0512    0.3263    0.5789 H   0  0  0  0  0  0  0  0  0  0  0  0
    0.7890    0.0266    2.1061 H   0  0  0  0  0  0  0  0  0  0  0  0
    0.7053   -1.2596    0.8754 H   0  0  0  0  0  0  0  0  0  0  0  0
    2.8847    0.6404   -1.6424 H   0  0  0  0  0  0  0  0  0  0  0  0
    1.1542    0.8640   -1.4837 H   0  0  0  0  0  0  0  0  0  0  0  0
   -0.3147   -0.9826   -1.5388 H   0  0  0  0  0  0  0  0  0  0  0  0
    0.2836   -2.5611   -2.0671 H   0  0  0  0  0  0  0  0  0  0  0  0
    0.2427    0.0440   -3.7000 H   0  0  0  0  0  0  0  0  0  0  0  0
   -0.7502   -1.3875   -3.9831 H   0  0  0  0  0  0  0  0  0  0  0  0
    0.1321   -1.5187   -6.9646 H   0  0  0  0  0  0  0  0  0  0  0  0
   -1.0880   -2.1522   -5.8347 H   0  0  0  0  0  0  0  0  0  0  0  0
   -0.3672   -3.2352   -7.0357 H   0  0  0  0  0  0  0  0  0  0  0  0
    2.5880   -2.2382   -6.7926 H   0  0  0  0  0  0  0  0  0  0  0  0
    1.9403   -3.8866   -6.9716 H   0  0  0  0  0  0  0  0  0  0  0  0
    3.0475   -3.5245   -5.6399 H   0  0  0  0  0  0  0  0  0  0  0  0
   -0.3351   -3.8352   -3.9865 H   0  0  0  0  0  0  0  0  0  0  0  0
    1.3766   -4.3176   -3.8782 H   0  0  0  0  0  0  0  0  0  0  0  0
    0.3752   -4.8647   -5.2450 H   0  0  0  0  0  0  0  0  0  0  0  0
    2.7601   -0.1768   -4.0749 H   0  0  0  0  0  0  0  0  0  0  0  0
    3.3840   -1.7234   -4.6455 H   0  0  0  0  0  0  0  0  0  0  0  0
    3.7980   -1.3897   -2.1931 H   0  0  0  0  0  0  0  0  0  0  0  0
    2.7729   -2.8046   -2.4827 H   0  0  0  0  0  0  0  0  0  0  0  0
    3.1647   -1.4937    0.3597 H   0  0  0  0  0  0  0  0  0  0  0  0
    4.7243    0.3531   -0.6193 H   0  0  0  0  0  0  0  0  0  0  0  0
    5.4036   -0.9306    0.3681 H   0  0  0  0  0  0  0  0  0  0  0  0
    4.9306    1.9701    1.2528 H   0  0  0  0  0  0  0  0  0  0  0  0
    6.4683    1.1334    1.0399 H   0  0  0  0  0  0  0  0  0  0  0  0
    5.7386    1.3174    3.4797 H   0  0  0  0  0  0  0  0  0  0  0  0
    6.0166   -0.3453    2.9461 H   0  0  0  0  0  0  0  0  0  0  0  0
    3.4160    0.9616    3.3234 H   0  0  0  0  0  0  0  0  0  0  0  0
    2.4362   -1.1405    2.7738 H   0  0  0  0  0  0  0  0  0  0  0  0
    4.0458   -1.7719    2.4694 H   0  0  0  0  0  0  0  0  0  0  0  0
  2  1  1  6
  1 21  1  0
  1 22  1  0
  1 23  1  0
  2  3  1  0
  2  4  1  0
  2 15  1  0
  3 24  1  0
  3 25  1  0
  3 26  1  0
  4  5  1  0
  4 27  1  0
  4 28  1  0
  5  6  1  0
  5 14  1  0
  6  7  1  0
  6 29  1  0
  6 30  1  0
  7  8  1  0
  7 31  1  0
  7 32  1  0
  8  9  1  0
  8 13  1  0
  9 10  1  6
  9 11  1  0
  9 12  1  0
 10 33  1  0
 10 34  1  0
 10 35  1  0
 11 36  1  0
 11 37  1  0
 11 38  1  0
 12 39  1  0
 12 40  1  0
 12 41  1  0
 13 14  1  0
 13 42  1  0
 13 43  1  0
 14 44  1  0
 14 45  1  0
 15 16  1  0
 15 20  1  0
 15 46  1  6
 16 17  1  0
 16 47  1  0
 16 48  1  0
 17 18  1  0
 17 49  1  0
 17 50  1  0
 18 19  1  0
 18 51  1  0
 18 52  1  0
 19 20  1  0
 19 53  1  0
 20 54  1  0
 20 55  1  0
M  END

