
     RDKit          3D

 82 84  0  0  0  0  0  0  0  0999 V2000
    2.8633    2.0829   -0.6422 C   0  0  0  0  0  0  0  0  0  0  0  0
    3.1968    2.0654    0.8445 C   0  0  1  0  0  0  0  0  0  0  0  0
    1.9999    2.3258    1.7453 C   0  0  0  0  0  0  0  0  0  0  0  0
    3.7071    0.7579    1.2152 O   0  0  0  0  0  0  0  0  0  0  0  0
    5.0213    0.5219    1.0236 C   0  0  0  0  0  0  0  0  0  0  0  0
    5.8147    1.3200    0.5770 O   0  0  0  0  0  0  0  0  0  0  0  0
    5.3001   -0.7675    1.4207 N   0  0  0  0  0  0  0  0  0  0  0  0
    6.5329   -1.4299    1.4065 C   0  0  0  0  0  0  0  0  0  0  0  0
    7.7316   -0.8427    0.9710 C   0  0  0  0  0  0  0  0  0  0  0  0
    8.9113   -1.5847    1.0061 C   0  0  0  0  0  0  0  0  0  0  0  0
    8.9722   -2.9154    1.4595 C   0  0  0  0  0  0  0  0  0  0  0  0
   10.3016   -3.5644    1.5138 C   0  0  0  0  0  0  0  0  0  0  0  0
   11.3777   -3.1530    2.2614 C   0  0  0  0  0  0  0  0  0  0  0  0
   12.5504   -3.8335    2.0791 N   0  0  0  0  0  0  0  0  0  0  0  0
   12.4399   -4.7731    1.1878 C   0  0  0  0  0  0  0  0  0  0  0  0
   13.5341   -5.7491    0.8060 C   0  0  1  0  0  0  0  0  0  0  0  0
   13.6422   -5.9767   -0.7197 C   0  0  0  0  0  0  0  0  0  0  0  0
   14.2279   -4.7642   -1.4503 C   0  0  0  0  0  0  0  0  0  0  0  0
   15.6034   -4.3543   -0.8858 C   0  0  2  0  0  0  0  0  0  0  0  0
   16.6396   -5.3399   -1.1910 N   0  0  0  0  0  0  0  0  0  0  0  0
   17.2321   -5.4175   -2.4160 C   0  0  0  0  0  0  0  0  0  0  0  0
   16.9499   -4.7056   -3.3611 O   0  0  0  0  0  0  0  0  0  0  0  0
   18.1697   -6.3956   -2.4093 O   0  0  0  0  0  0  0  0  0  0  0  0
   18.9765   -6.6998   -3.5907 C   0  0  1  0  0  0  0  0  0  0  0  0
   19.8213   -5.4812   -3.9794 C   0  0  0  0  0  0  0  0  0  0  0  0
   19.8697   -7.8451   -3.1088 C   0  0  0  0  0  0  0  0  0  0  0  0
   18.0748   -7.1637   -4.7402 C   0  0  0  0  0  0  0  0  0  0  0  0
   15.5173   -4.1319    0.6320 C   0  0  0  0  0  0  0  0  0  0  0  0
   14.8999   -5.3218    1.3829 C   0  0  0  0  0  0  0  0  0  0  0  0
   10.8237   -4.8843    0.4886 S   0  0  0  0  0  0  0  0  0  0  0  0
    7.7500   -3.4857    1.8834 C   0  0  0  0  0  0  0  0  0  0  0  0
    7.6328   -5.1530    2.5877 S   0  0  1  0  0  0  0  0  0  0  0  0
    8.7541   -5.3265    3.5111 O   0  0  0  0  0  0  0  0  0  0  0  0
    6.2440   -5.3125    3.0421 O   0  0  0  0  0  0  0  0  0  0  0  0
    7.9325   -6.1843    1.3017 N   0  0  0  0  0  0  0  0  0  0  0  0
    6.9232   -6.9947    0.5642 C   0  0  1  0  0  0  0  0  0  0  0  0
    5.8278   -6.0841   -0.0098 C   0  0  0  0  0  0  0  0  0  0  0  0
    7.7055   -7.6439   -0.5902 C   0  0  0  0  0  0  0  0  0  0  0  0
    6.3126   -8.0845    1.4653 C   0  0  0  0  0  0  0  0  0  0  0  0
    6.5631   -2.7582    1.8656 C   0  0  0  0  0  0  0  0  0  0  0  0
    2.4620    3.0676   -0.9292 H   0  0  0  0  0  0  0  0  0  0  0  0
    2.1072    1.3180   -0.8818 H   0  0  0  0  0  0  0  0  0  0  0  0
    3.7645    1.8955   -1.2439 H   0  0  0  0  0  0  0  0  0  0  0  0
    3.9957    2.7957    1.0457 H   0  0  0  0  0  0  0  0  0  0  0  0
    1.2117    1.5746    1.5774 H   0  0  0  0  0  0  0  0  0  0  0  0
    1.5783    3.3210    1.5364 H   0  0  0  0  0  0  0  0  0  0  0  0
    2.2926    2.2895    2.8054 H   0  0  0  0  0  0  0  0  0  0  0  0
    4.5046   -1.2880    1.7733 H   0  0  0  0  0  0  0  0  0  0  0  0
    7.7300    0.1847    0.6138 H   0  0  0  0  0  0  0  0  0  0  0  0
    9.8367   -1.1160    0.6642 H   0  0  0  0  0  0  0  0  0  0  0  0
   11.3312   -2.3378    2.9860 H   0  0  0  0  0  0  0  0  0  0  0  0
   13.2576   -6.7134    1.2712 H   0  0  0  0  0  0  0  0  0  0  0  0
   12.6585   -6.2416   -1.1424 H   0  0  0  0  0  0  0  0  0  0  0  0
   14.2908   -6.8530   -0.8897 H   0  0  0  0  0  0  0  0  0  0  0  0
   13.5437   -3.9030   -1.3552 H   0  0  0  0  0  0  0  0  0  0  0  0
   14.3302   -4.9674   -2.5272 H   0  0  0  0  0  0  0  0  0  0  0  0
   15.9071   -3.4165   -1.3773 H   0  0  0  0  0  0  0  0  0  0  0  0
   16.9659   -5.9795   -0.4773 H   0  0  0  0  0  0  0  0  0  0  0  0
   20.4299   -5.1493   -3.1235 H   0  0  0  0  0  0  0  0  0  0  0  0
   19.1840   -4.6491   -4.3041 H   0  0  0  0  0  0  0  0  0  0  0  0
   20.5046   -5.7475   -4.8011 H   0  0  0  0  0  0  0  0  0  0  0  0
   20.4850   -7.5230   -2.2549 H   0  0  0  0  0  0  0  0  0  0  0  0
   20.5396   -8.1745   -3.9175 H   0  0  0  0  0  0  0  0  0  0  0  0
   19.2596   -8.7037   -2.7891 H   0  0  0  0  0  0  0  0  0  0  0  0
   17.4180   -6.3517   -5.0767 H   0  0  0  0  0  0  0  0  0  0  0  0
   17.4528   -8.0142   -4.4189 H   0  0  0  0  0  0  0  0  0  0  0  0
   18.6934   -7.4954   -5.5890 H   0  0  0  0  0  0  0  0  0  0  0  0
   14.8981   -3.2408    0.8166 H   0  0  0  0  0  0  0  0  0  0  0  0
   16.5202   -3.9075    1.0326 H   0  0  0  0  0  0  0  0  0  0  0  0
   14.7896   -5.0688    2.4470 H   0  0  0  0  0  0  0  0  0  0  0  0
   15.5716   -6.1977    1.3343 H   0  0  0  0  0  0  0  0  0  0  0  0
    8.8077   -6.6687    1.4956 H   0  0  0  0  0  0  0  0  0  0  0  0
    6.2662   -5.2879   -0.6310 H   0  0  0  0  0  0  0  0  0  0  0  0
    5.2320   -5.6239    0.7897 H   0  0  0  0  0  0  0  0  0  0  0  0
    5.1490   -6.6784   -0.6405 H   0  0  0  0  0  0  0  0  0  0  0  0
    8.1457   -6.8790   -1.2474 H   0  0  0  0  0  0  0  0  0  0  0  0
    7.0373   -8.2808   -1.1898 H   0  0  0  0  0  0  0  0  0  0  0  0
    8.5205   -8.2818   -0.2093 H   0  0  0  0  0  0  0  0  0  0  0  0
    5.7852   -7.6327    2.3163 H   0  0  0  0  0  0  0  0  0  0  0  0
    7.0996   -8.7488    1.8583 H   0  0  0  0  0  0  0  0  0  0  0  0
    5.6008   -8.7042    0.8965 H   0  0  0  0  0  0  0  0  0  0  0  0
    5.6562   -3.2373    2.2388 H   0  0  0  0  0  0  0  0  0  0  0  0
  1  2  1  0
  1 41  1  0
  1 42  1  0
  1 43  1  0
  2  3  1  0
  2  4  1  0
  2 44  1  6
  3 45  1  0
  3 46  1  0
  3 47  1  0
  4  5  1  0
  5  6  2  0
  5  7  1  0
  7  8  1  0
  7 48  1  0
  8  9  2  0
  8 40  1  0
  9 10  1  0
  9 49  1  0
 10 11  2  0
 10 50  1  0
 11 12  1  0
 11 31  1  0
 12 13  2  0
 12 30  1  0
 13 14  1  0
 13 51  1  0
 14 15  2  0
 15 16  1  0
 15 30  1  0
 16 17  1  0
 16 29  1  0
 16 52  1  1
 17 18  1  0
 17 53  1  0
 17 54  1  0
 18 19  1  0
 18 55  1  0
 18 56  1  0
 19 20  1  0
 19 28  1  0
 19 57  1  6
 20 21  1  0
 20 58  1  0
 21 22  2  0
 21 23  1  0
 24 23  1  1
 24 25  1  0
 24 26  1  0
 24 27  1  0
 25 59  1  0
 25 60  1  0
 25 61  1  0
 26 62  1  0
 26 63  1  0
 26 64  1  0
 27 65  1  0
 27 66  1  0
 27 67  1  0
 28 29  1  0
 28 68  1  0
 28 69  1  0
 29 70  1  0
 29 71  1  0
 31 32  1  0
 31 40  2  0
 32 33  2  0
 32 34  2  0
 32 35  1  6
 36 35  1  1
 35 72  1  0
 36 37  1  0
 36 38  1  0
 36 39  1  0
 37 73  1  0
 37 74  1  0
 37 75  1  0
 38 76  1  0
 38 77  1  0
 38 78  1  0
 39 79  1  0
 39 80  1  0
 39 81  1  0
 40 82  1  0
M  END

