
     RDKit          3D

 42 42  0  0  0  0  0  0  0  0999 V2000
    2.9524   -0.7538   -0.9485 C   0  0  0  0  0  0  0  0  0  0  0  0
    2.5799   -0.1044    0.3899 C   0  0  1  0  0  0  0  0  0  0  0  0
    3.0230   -0.9416    1.5962 C   0  0  0  0  0  0  0  0  0  0  0  0
    3.0461    1.3039    0.4983 N   0  0  0  0  0  0  0  0  0  0  0  0
    2.0133    2.3081    0.7343 C   0  0  0  0  0  0  0  0  0  0  0  0
    1.2885    2.7574   -0.5443 C   0  0  0  0  0  0  0  0  0  0  0  0
    0.1001    3.6805   -0.2721 C   0  0  0  0  0  0  0  0  0  0  0  0
   -1.0972    2.9630    0.3464 C   0  0  0  0  0  0  0  0  0  0  0  0
   -1.1511    1.7804    0.5501 O   0  0  0  0  0  0  0  0  0  0  0  0
   -2.1471    3.7552    0.6589 O   0  0  0  0  0  0  0  0  0  0  0  0
    4.3794    1.6034    0.4257 C   0  0  0  0  0  0  0  0  0  0  0  0
    5.2433    0.7452    0.2831 O   0  0  0  0  0  0  0  0  0  0  0  0
    4.8170    3.0848    0.5733 C   0  0  0  0  0  0  0  0  0  0  0  0
    6.2067    3.3025    0.2530 N   0  0  0  0  0  0  0  0  0  0  0  0
    6.5085    3.3021   -1.1753 C   0  0  0  0  0  0  0  0  0  0  0  0
    7.9972    3.4134   -1.4096 C   0  0  1  0  0  0  0  0  0  0  0  0
    8.8521    2.1685   -1.3571 C   0  0  0  0  0  0  0  0  0  0  0  0
    8.6117    2.8680   -2.6718 C   0  0  0  0  0  0  0  0  0  0  0  0
    2.4756   -1.7441   -1.0247 H   0  0  0  0  0  0  0  0  0  0  0  0
    4.0395   -0.8767   -1.0381 H   0  0  0  0  0  0  0  0  0  0  0  0
    2.5987   -0.1429   -1.7943 H   0  0  0  0  0  0  0  0  0  0  0  0
    1.4812   -0.0304    0.4218 H   0  0  0  0  0  0  0  0  0  0  0  0
    4.1168   -1.0433    1.6166 H   0  0  0  0  0  0  0  0  0  0  0  0
    2.5763   -1.9473    1.5436 H   0  0  0  0  0  0  0  0  0  0  0  0
    2.6947   -0.4759    2.5393 H   0  0  0  0  0  0  0  0  0  0  0  0
    2.4461    3.1813    1.2425 H   0  0  0  0  0  0  0  0  0  0  0  0
    1.2766    1.8808    1.4321 H   0  0  0  0  0  0  0  0  0  0  0  0
    0.9266    1.8696   -1.0855 H   0  0  0  0  0  0  0  0  0  0  0  0
    2.0039    3.2684   -1.2090 H   0  0  0  0  0  0  0  0  0  0  0  0
   -0.2450    4.1479   -1.2120 H   0  0  0  0  0  0  0  0  0  0  0  0
    0.3888    4.5180    0.3908 H   0  0  0  0  0  0  0  0  0  0  0  0
   -1.9603    4.6777    0.4327 H   0  0  0  0  0  0  0  0  0  0  0  0
    4.6254    3.3853    1.6212 H   0  0  0  0  0  0  0  0  0  0  0  0
    4.1932    3.7442   -0.0521 H   0  0  0  0  0  0  0  0  0  0  0  0
    6.7529    2.5601    0.6915 H   0  0  0  0  0  0  0  0  0  0  0  0
    5.9944    4.1664   -1.6371 H   0  0  0  0  0  0  0  0  0  0  0  0
    6.1344    2.3943   -1.6960 H   0  0  0  0  0  0  0  0  0  0  0  0
    8.4434    4.3252   -0.9966 H   0  0  0  0  0  0  0  0  0  0  0  0
    8.3428    1.2149   -1.1847 H   0  0  0  0  0  0  0  0  0  0  0  0
    9.8458    2.2366   -0.9050 H   0  0  0  0  0  0  0  0  0  0  0  0
    7.9502    2.3822   -3.3961 H   0  0  0  0  0  0  0  0  0  0  0  0
    9.4380    3.4221   -3.1262 H   0  0  0  0  0  0  0  0  0  0  0  0
  1  2  1  0
  1 19  1  0
  1 20  1  0
  1 21  1  0
  2  3  1  0
  2  4  1  0
  2 22  1  6
  3 23  1  0
  3 24  1  0
  3 25  1  0
  4  5  1  0
  4 11  1  0
  5  6  1  0
  5 26  1  0
  5 27  1  0
  6  7  1  0
  6 28  1  0
  6 29  1  0
  7  8  1  0
  7 30  1  0
  7 31  1  0
  8  9  2  0
  8 10  1  0
 10 32  1  0
 11 12  2  0
 11 13  1  0
 13 14  1  0
 13 33  1  0
 13 34  1  0
 14 15  1  0
 14 35  1  0
 15 16  1  0
 15 36  1  0
 15 37  1  0
 16 17  1  0
 16 18  1  0
 16 38  1  1
 17 18  1  0
 17 39  1  0
 17 40  1  0
 18 41  1  0
 18 42  1  0
M  END

