
     RDKit          3D

 75 79  0  0  0  0  0  0  0  0999 V2000
   11.2844  -14.9606   -0.6799 O   0  0  0  0  0  0  0  0  0  0  0  0
   10.5726  -14.7159   -1.6388 C   0  0  0  0  0  0  0  0  0  0  0  0
    9.6179  -15.7587   -2.2159 C   0  0  0  0  0  0  0  0  0  0  0  0
   10.3383  -16.9968   -2.7722 C   0  0  1  0  0  0  0  0  0  0  0  0
   11.0544  -17.8854   -1.7408 C   0  0  0  0  0  0  0  0  0  0  0  0
   11.3438  -19.1848   -2.5146 C   0  0  0  0  0  0  0  0  0  0  0  0
   10.1919  -19.3200   -3.5532 C   0  0  0  0  0  0  0  0  0  0  0  0
    9.3932  -17.9962   -3.4683 C   0  0  0  0  0  0  0  0  0  0  0  0
   10.5595  -13.5076   -2.3007 N   0  0  0  0  0  0  0  0  0  0  0  0
   11.3103  -12.3396   -2.0513 C   0  0  0  0  0  0  0  0  0  0  0  0
   12.2624  -12.2448   -1.0198 C   0  0  0  0  0  0  0  0  0  0  0  0
   12.9539  -11.0434   -0.8742 C   0  0  0  0  0  0  0  0  0  0  0  0
   12.7257   -9.9447   -1.7054 C   0  0  0  0  0  0  0  0  0  0  0  0
   11.7784  -10.0283   -2.7484 C   0  0  0  0  0  0  0  0  0  0  0  0
   11.5413   -8.9648   -3.6375 N   0  0  0  0  0  0  0  0  0  0  0  0
   12.4389   -7.8190   -3.6110 C   0  0  0  0  0  0  0  0  0  0  0  0
   12.3751   -7.0439   -4.9318 C   0  0  0  0  0  0  0  0  0  0  0  0
   10.9538   -6.6072   -5.3119 C   0  0  2  0  0  0  0  0  0  0  0  0
   10.4988   -5.5402   -4.4173 N   0  0  0  0  0  0  0  0  0  0  0  0
    9.3194   -4.7794   -4.8296 C   0  0  2  0  0  0  0  0  0  0  0  0
    9.1806   -4.8695   -5.9292 H   0  0  0  0  0  0  0  0  0  0  0  0
    9.5064   -3.2765   -4.5262 C   0  0  0  0  0  0  0  0  0  0  0  0
   10.5604   -2.5916   -5.4079 C   0  0  0  0  0  0  0  0  0  0  0  0
   10.7469   -1.1844   -5.0953 N   0  0  0  0  0  0  0  0  0  0  0  0
    9.9055   -0.1416   -5.4286 C   0  0  0  0  0  0  0  0  0  0  0  0
   10.4727    0.9847   -4.8728 C   0  0  0  0  0  0  0  0  0  0  0  0
   11.6288    0.6616   -4.2092 N   0  0  0  0  0  0  0  0  0  0  0  0
   11.7632   -0.6357   -4.3578 C   0  0  0  0  0  0  0  0  0  0  0  0
    8.0277   -5.2736   -4.1779 C   0  0  0  0  0  0  0  0  0  0  0  0
    6.8301   -5.3052   -4.9071 C   0  0  0  0  0  0  0  0  0  0  0  0
    5.6310   -5.6936   -4.3013 C   0  0  0  0  0  0  0  0  0  0  0  0
    5.6142   -6.0547   -2.9511 C   0  0  0  0  0  0  0  0  0  0  0  0
    6.8034   -6.0269   -2.2149 C   0  0  0  0  0  0  0  0  0  0  0  0
    8.0002   -5.6411   -2.8247 C   0  0  0  0  0  0  0  0  0  0  0  0
   10.0406   -7.8448   -5.2639 C   0  0  0  0  0  0  0  0  0  0  0  0
   10.1530   -8.5998   -3.9401 C   0  0  0  0  0  0  0  0  0  0  0  0
   11.0832  -11.2457   -2.8992 C   0  0  0  0  0  0  0  0  0  0  0  0
    8.9788  -15.3202   -3.0013 H   0  0  0  0  0  0  0  0  0  0  0  0
    8.9490  -16.0694   -1.3947 H   0  0  0  0  0  0  0  0  0  0  0  0
   11.0876  -16.6560   -3.5132 H   0  0  0  0  0  0  0  0  0  0  0  0
   10.3634  -18.0811   -0.9010 H   0  0  0  0  0  0  0  0  0  0  0  0
   11.9480  -17.4139   -1.3104 H   0  0  0  0  0  0  0  0  0  0  0  0
   11.4193  -20.0586   -1.8491 H   0  0  0  0  0  0  0  0  0  0  0  0
   12.3131  -19.1022   -3.0332 H   0  0  0  0  0  0  0  0  0  0  0  0
    9.5469  -20.1877   -3.3448 H   0  0  0  0  0  0  0  0  0  0  0  0
   10.5964  -19.4716   -4.5665 H   0  0  0  0  0  0  0  0  0  0  0  0
    8.4956  -18.1305   -2.8389 H   0  0  0  0  0  0  0  0  0  0  0  0
    9.0428  -17.6397   -4.4506 H   0  0  0  0  0  0  0  0  0  0  0  0
    9.9149  -13.4389   -3.0784 H   0  0  0  0  0  0  0  0  0  0  0  0
   12.4387  -13.0940   -0.3658 H   0  0  0  0  0  0  0  0  0  0  0  0
   13.6911  -10.9537   -0.0714 H   0  0  0  0  0  0  0  0  0  0  0  0
   13.2746   -9.0215   -1.5241 H   0  0  0  0  0  0  0  0  0  0  0  0
   13.4675   -8.1793   -3.4681 H   0  0  0  0  0  0  0  0  0  0  0  0
   12.2110   -7.1381   -2.7630 H   0  0  0  0  0  0  0  0  0  0  0  0
   12.7661   -7.6862   -5.7374 H   0  0  0  0  0  0  0  0  0  0  0  0
   13.0430   -6.1658   -4.8727 H   0  0  0  0  0  0  0  0  0  0  0  0
   10.9732   -6.2441   -6.3642 H   0  0  0  0  0  0  0  0  0  0  0  0
   11.2748   -4.9203   -4.2043 H   0  0  0  0  0  0  0  0  0  0  0  0
    9.7723   -3.1514   -3.4621 H   0  0  0  0  0  0  0  0  0  0  0  0
    8.5414   -2.7655   -4.6644 H   0  0  0  0  0  0  0  0  0  0  0  0
   10.2789   -2.6830   -6.4702 H   0  0  0  0  0  0  0  0  0  0  0  0
   11.5414   -3.0803   -5.3032 H   0  0  0  0  0  0  0  0  0  0  0  0
    9.0072   -0.2914   -6.0233 H   0  0  0  0  0  0  0  0  0  0  0  0
   10.1064    2.0098   -4.9242 H   0  0  0  0  0  0  0  0  0  0  0  0
   12.5778   -1.2463   -3.9645 H   0  0  0  0  0  0  0  0  0  0  0  0
    6.8356   -5.0279   -5.9663 H   0  0  0  0  0  0  0  0  0  0  0  0
    4.7083   -5.7180   -4.8872 H   0  0  0  0  0  0  0  0  0  0  0  0
    4.6792   -6.3606   -2.4749 H   0  0  0  0  0  0  0  0  0  0  0  0
    6.7993   -6.3107   -1.1591 H   0  0  0  0  0  0  0  0  0  0  0  0
    8.9334   -5.6329   -2.2572 H   0  0  0  0  0  0  0  0  0  0  0  0
   10.3315   -8.5157   -6.0900 H   0  0  0  0  0  0  0  0  0  0  0  0
    8.9903   -7.5604   -5.4324 H   0  0  0  0  0  0  0  0  0  0  0  0
    9.5382   -9.5067   -3.9895 H   0  0  0  0  0  0  0  0  0  0  0  0
    9.7351   -7.9770   -3.1240 H   0  0  0  0  0  0  0  0  0  0  0  0
   10.3692  -11.3569   -3.7186 H   0  0  0  0  0  0  0  0  0  0  0  0
  1  2  2  0
  2  3  1  0
  2  9  1  0
  3  4  1  0
  3 38  1  0
  3 39  1  0
  4  5  1  0
  4  8  1  0
  4 40  1  6
  5  6  1  0
  5 41  1  0
  5 42  1  0
  6  7  1  0
  6 43  1  0
  6 44  1  0
  7  8  1  0
  7 45  1  0
  7 46  1  0
  8 47  1  0
  8 48  1  0
  9 10  1  0
  9 49  1  0
 10 11  2  0
 10 37  1  0
 11 12  1  0
 11 50  1  0
 12 13  2  0
 12 51  1  0
 13 14  1  0
 13 52  1  0
 14 15  1  0
 14 37  2  0
 15 16  1  0
 15 36  1  0
 16 17  1  0
 16 53  1  0
 16 54  1  0
 17 18  1  0
 17 55  1  0
 17 56  1  0
 18 19  1  0
 18 35  1  0
 18 57  1  6
 19 20  1  0
 19 58  1  0
 20 21  1  6
 20 22  1  0
 20 29  1  0
 22 23  1  0
 22 59  1  0
 22 60  1  0
 23 24  1  0
 23 61  1  0
 23 62  1  0
 24 25  1  0
 24 28  1  0
 25 26  2  0
 25 63  1  0
 26 27  1  0
 26 64  1  0
 27 28  2  0
 28 65  1  0
 29 30  2  0
 29 34  1  0
 30 31  1  0
 30 66  1  0
 31 32  2  0
 31 67  1  0
 32 33  1  0
 32 68  1  0
 33 34  2  0
 33 69  1  0
 34 70  1  0
 35 36  1  0
 35 71  1  0
 35 72  1  0
 36 73  1  0
 36 74  1  0
 37 75  1  0
M  END

