
     RDKit          3D

 37 38  0  0  0  0  0  0  0  0999 V2000
    2.9984    2.1083    1.0986 C   0  0  0  0  0  0  0  0  0  0  0  0
    2.4683    0.8098    0.7123 N   0  0  0  0  0  0  0  0  0  0  0  0
    1.1900    0.7725    0.0319 C   0  0  0  0  0  0  0  0  0  0  0  0
    3.0212   -0.3207    1.2244 C   0  0  0  0  0  0  0  0  0  0  0  0
    4.1205   -0.3424    1.9361 N   0  0  0  0  0  0  0  0  0  0  0  0
    4.4653   -1.6143    2.2957 C   0  0  0  0  0  0  0  0  0  0  0  0
    5.5629   -1.8007    3.0563 N   0  0  0  0  0  0  0  0  0  0  0  0
    3.6296   -2.6513    1.8328 C   0  0  0  0  0  0  0  0  0  0  0  0
    3.7820   -4.0334    2.2554 C   0  0  0  0  0  0  0  0  0  0  0  0
    4.6226   -4.3230    3.1221 O   0  0  0  0  0  0  0  0  0  0  0  0
    2.9559   -5.0380    1.7400 N   0  0  0  0  0  0  0  0  0  0  0  0
    2.3926   -5.0530    0.3880 C   0  0  0  0  0  0  0  0  0  0  0  0
    3.0112   -6.1796   -0.4436 C   0  0  0  0  0  0  0  0  0  0  0  0
    2.8840   -7.4240    0.1990 O   0  0  0  0  0  0  0  0  0  0  0  0
    3.5448   -7.4309    1.4502 C   0  0  0  0  0  0  0  0  0  0  0  0
    2.9969   -6.3521    2.3892 C   0  0  2  0  0  0  0  0  0  0  0  0
    1.6386   -6.7792    2.9894 C   0  0  0  0  0  0  0  0  0  0  0  0
    0.7400   -5.7752    3.1782 N   0  0  0  0  0  0  0  0  0  0  0  0
    1.4255   -7.9358    3.3028 O   0  0  0  0  0  0  0  0  0  0  0  0
    2.2836   -1.8998    0.9401 S   0  0  0  0  0  0  0  0  0  0  0  0
    3.0446    2.7704    0.2189 H   0  0  0  0  0  0  0  0  0  0  0  0
    4.0055    1.9734    1.5082 H   0  0  0  0  0  0  0  0  0  0  0  0
    2.3664    2.5923    1.8669 H   0  0  0  0  0  0  0  0  0  0  0  0
    1.0972    1.6593   -0.6119 H   0  0  0  0  0  0  0  0  0  0  0  0
    0.3330    0.7611    0.7327 H   0  0  0  0  0  0  0  0  0  0  0  0
    1.1231   -0.1176   -0.6130 H   0  0  0  0  0  0  0  0  0  0  0  0
    6.0249   -0.9871    3.4379 H   0  0  0  0  0  0  0  0  0  0  0  0
    5.6822   -2.7352    3.4446 H   0  0  0  0  0  0  0  0  0  0  0  0
    2.5824   -4.0973   -0.1150 H   0  0  0  0  0  0  0  0  0  0  0  0
    1.2991   -5.2027    0.4394 H   0  0  0  0  0  0  0  0  0  0  0  0
    4.0804   -5.9476   -0.6367 H   0  0  0  0  0  0  0  0  0  0  0  0
    2.4946   -6.2557   -1.4134 H   0  0  0  0  0  0  0  0  0  0  0  0
    4.6314   -7.2650    1.3089 H   0  0  0  0  0  0  0  0  0  0  0  0
    3.3791   -8.4171    1.9022 H   0  0  0  0  0  0  0  0  0  0  0  0
    3.6901   -6.2558    3.2386 H   0  0  0  0  0  0  0  0  0  0  0  0
    0.9850   -4.8150    2.9761 H   0  0  0  0  0  0  0  0  0  0  0  0
   -0.1249   -5.9892    3.6598 H   0  0  0  0  0  0  0  0  0  0  0  0
  1  2  1  0
  1 21  1  0
  1 22  1  0
  1 23  1  0
  2  3  1  0
  2  4  1  0
  3 24  1  0
  3 25  1  0
  3 26  1  0
  4  5  2  0
  4 20  1  0
  5  6  1  0
  6  7  1  0
  6  8  2  0
  7 27  1  0
  7 28  1  0
  8  9  1  0
  8 20  1  0
  9 10  2  0
  9 11  1  0
 11 12  1  0
 11 16  1  0
 12 13  1  0
 12 29  1  0
 12 30  1  0
 13 14  1  0
 13 31  1  0
 13 32  1  0
 14 15  1  0
 15 16  1  0
 15 33  1  0
 15 34  1  0
 16 17  1  0
 16 35  1  1
 17 18  1  0
 17 19  2  0
 18 36  1  0
 18 37  1  0
M  END

