
     RDKit          3D

 40 43  0  0  0  0  0  0  0  0999 V2000
    2.1448    2.1070    4.6052 C   0  0  0  0  0  0  0  0  0  0  0  0
    3.2891    1.9007    3.6135 C   0  0  0  0  0  0  0  0  0  0  0  0
    2.8090    1.7750    2.1576 C   0  0  0  0  0  0  0  0  0  0  0  0
    3.9375    1.4971    1.1899 C   0  0  0  0  0  0  0  0  0  0  0  0
    4.3053    2.4775    0.2304 C   0  0  0  0  0  0  0  0  0  0  0  0
    5.3567    2.2174   -0.6504 C   0  0  0  0  0  0  0  0  0  0  0  0
    5.8402    2.9969   -1.6393 N   0  0  0  0  0  0  0  0  0  0  0  0
    5.3787    4.3466   -1.9225 C   0  0  0  0  0  0  0  0  0  0  0  0
    5.9121    4.8428   -3.2483 C   0  0  0  0  0  0  0  0  0  0  0  0
    6.7318    5.9747   -3.3062 C   0  0  0  0  0  0  0  0  0  0  0  0
    7.2390    6.4668   -4.5267 C   0  0  0  0  0  0  0  0  0  0  0  0
    6.8986    5.7715   -5.6713 C   0  0  0  0  0  0  0  0  0  0  0  0
    6.0831    4.6344   -5.6239 C   0  0  0  0  0  0  0  0  0  0  0  0
    5.5739    4.1480   -4.4361 C   0  0  0  0  0  0  0  0  0  0  0  0
    5.8909    4.1648   -6.8909 O   0  0  0  0  0  0  0  0  0  0  0  0
    6.7169    4.9539   -7.7439 C   0  0  0  0  0  0  0  0  0  0  0  0
    7.2334    6.0332   -6.9679 O   0  0  0  0  0  0  0  0  0  0  0  0
    5.9634    1.0028   -0.4808 N   0  0  0  0  0  0  0  0  0  0  0  0
    7.0065    0.5273   -1.1986 N   0  0  0  0  0  0  0  0  0  0  0  0
    7.1906   -0.6651   -0.6314 C   0  0  0  0  0  0  0  0  0  0  0  0
    6.3604   -0.9910    0.3788 N   0  0  0  0  0  0  0  0  0  0  0  0
    5.5655    0.0752    0.4866 C   0  0  0  0  0  0  0  0  0  0  0  0
    4.5488    0.3239    1.3189 N   0  0  0  0  0  0  0  0  0  0  0  0
    2.5201    2.1897    5.6376 H   0  0  0  0  0  0  0  0  0  0  0  0
    1.4337    1.2645    4.5763 H   0  0  0  0  0  0  0  0  0  0  0  0
    1.5759    3.0261    4.3840 H   0  0  0  0  0  0  0  0  0  0  0  0
    3.8543    0.9889    3.8660 H   0  0  0  0  0  0  0  0  0  0  0  0
    4.0050    2.7388    3.6873 H   0  0  0  0  0  0  0  0  0  0  0  0
    2.2684    2.6877    1.8572 H   0  0  0  0  0  0  0  0  0  0  0  0
    2.0947    0.9363    2.0910 H   0  0  0  0  0  0  0  0  0  0  0  0
    3.7725    3.4252    0.1814 H   0  0  0  0  0  0  0  0  0  0  0  0
    6.6745    2.6455   -2.1038 H   0  0  0  0  0  0  0  0  0  0  0  0
    5.6766    5.0434   -1.1175 H   0  0  0  0  0  0  0  0  0  0  0  0
    4.2739    4.3399   -1.9417 H   0  0  0  0  0  0  0  0  0  0  0  0
    6.9891    6.4956   -2.3807 H   0  0  0  0  0  0  0  0  0  0  0  0
    7.8744    7.3524   -4.5692 H   0  0  0  0  0  0  0  0  0  0  0  0
    4.9366    3.2620   -4.4187 H   0  0  0  0  0  0  0  0  0  0  0  0
    6.1171    5.3504   -8.5799 H   0  0  0  0  0  0  0  0  0  0  0  0
    7.5525    4.3379   -8.1286 H   0  0  0  0  0  0  0  0  0  0  0  0
    7.9817   -1.3280   -0.9848 H   0  0  0  0  0  0  0  0  0  0  0  0
  1  2  1  0
  1 24  1  0
  1 25  1  0
  1 26  1  0
  2  3  1  0
  2 27  1  0
  2 28  1  0
  3  4  1  0
  3 29  1  0
  3 30  1  0
  4  5  1  0
  4 23  2  0
  5  6  2  0
  5 31  1  0
  6  7  1  0
  6 18  1  0
  7  8  1  0
  7 32  1  0
  8  9  1  0
  8 33  1  0
  8 34  1  0
  9 10  2  0
  9 14  1  0
 10 11  1  0
 10 35  1  0
 11 12  2  0
 11 36  1  0
 12 13  1  0
 12 17  1  0
 13 14  2  0
 13 15  1  0
 14 37  1  0
 15 16  1  0
 16 17  1  0
 16 38  1  0
 16 39  1  0
 18 19  1  0
 18 22  1  0
 19 20  2  0
 20 21  1  0
 20 40  1  0
 21 22  2  0
 22 23  1  0
M  END

