
     RDKit          3D

 43 47  0  0  0  0  0  0  0  0999 V2000
    1.0510   -0.7895   -0.4188 O   0  0  0  0  0  0  0  0  0  0  0  0
    2.1428   -0.2925   -0.1937 C   0  0  0  0  0  0  0  0  0  0  0  0
    2.6726    0.8046   -0.8300 N   0  0  0  0  0  0  0  0  0  0  0  0
    2.1129    1.5914   -1.8530 C   0  0  0  0  0  0  0  0  0  0  0  0
    0.8431    1.3414   -2.4027 C   0  0  0  0  0  0  0  0  0  0  0  0
    0.3485    2.1681   -3.4212 C   0  0  0  0  0  0  0  0  0  0  0  0
    1.1097    3.2318   -3.8870 C   0  0  0  0  0  0  0  0  0  0  0  0
    2.3898    3.4850   -3.3336 C   0  0  0  0  0  0  0  0  0  0  0  0
    2.8930    2.6704   -2.3207 C   0  0  0  0  0  0  0  0  0  0  0  0
    2.9876    4.5753   -3.9216 N   0  0  0  0  0  0  0  0  0  0  0  0
    4.2561    5.2690   -3.7556 C   0  0  0  0  0  0  0  0  0  0  0  0
    4.1015    6.4037   -4.8355 C   0  0  0  0  0  0  0  0  0  0  0  0
    2.7894    6.2314   -5.4792 N   0  0  0  0  0  0  0  0  0  0  0  0
    2.2594    5.2185   -4.9201 C   0  0  0  0  0  0  0  0  0  0  0  0
    0.7003    4.4114   -5.1608 S   0  0  0  0  0  0  0  0  0  0  0  0
    3.0288   -0.8708    0.8444 C   0  0  0  0  0  0  0  0  0  0  0  0
    2.8361   -1.9490    1.6700 C   0  0  0  0  0  0  0  0  0  0  0  0
    4.0091   -2.0549    2.4690 C   0  0  0  0  0  0  0  0  0  0  0  0
    4.8499   -1.0321    2.0820 C   0  0  0  0  0  0  0  0  0  0  0  0
    6.1785   -0.6089    2.5110 C   0  0  0  0  0  0  0  0  0  0  0  0
    6.8627   -1.2946    3.5366 C   0  0  0  0  0  0  0  0  0  0  0  0
    8.1332   -0.8907    3.9464 C   0  0  0  0  0  0  0  0  0  0  0  0
    8.7593    0.2062    3.3486 C   0  0  0  0  0  0  0  0  0  0  0  0
    8.0737    0.8769    2.3361 C   0  0  0  0  0  0  0  0  0  0  0  0
    8.7153    2.0439    1.6858 N   0  0  0  0  0  0  0  0  0  0  0  0
    9.8265    2.3621    2.0732 O   0  0  0  0  0  0  0  0  0  0  0  0
    8.0914    2.6123    0.8043 O   0  0  0  0  0  0  0  0  0  0  0  0
    6.8061    0.4949    1.9082 C   0  0  0  0  0  0  0  0  0  0  0  0
    4.2495   -0.3125    1.0916 O   0  0  0  0  0  0  0  0  0  0  0  0
    3.5956    1.0861   -0.5186 H   0  0  0  0  0  0  0  0  0  0  0  0
    0.2559    0.5062   -2.0305 H   0  0  0  0  0  0  0  0  0  0  0  0
   -0.6390    1.9664   -3.8424 H   0  0  0  0  0  0  0  0  0  0  0  0
    3.8804    2.8681   -1.8962 H   0  0  0  0  0  0  0  0  0  0  0  0
    5.1088    4.5979   -3.9565 H   0  0  0  0  0  0  0  0  0  0  0  0
    4.3658    5.6631   -2.7307 H   0  0  0  0  0  0  0  0  0  0  0  0
    4.9013    6.3489   -5.5929 H   0  0  0  0  0  0  0  0  0  0  0  0
    4.1665    7.4051   -4.3780 H   0  0  0  0  0  0  0  0  0  0  0  0
    1.9493   -2.5772    1.6845 H   0  0  0  0  0  0  0  0  0  0  0  0
    4.2088   -2.7979    3.2373 H   0  0  0  0  0  0  0  0  0  0  0  0
    6.3941   -2.1542    4.0196 H   0  0  0  0  0  0  0  0  0  0  0  0
    8.6436   -1.4370    4.7426 H   0  0  0  0  0  0  0  0  0  0  0  0
    9.7504    0.5461    3.6462 H   0  0  0  0  0  0  0  0  0  0  0  0
    6.3237    1.0589    1.1131 H   0  0  0  0  0  0  0  0  0  0  0  0
  1  2  2  0
  2  3  1  0
  2 16  1  0
  3  4  1  0
  3 30  1  0
  4  5  2  0
  4  9  1  0
  5  6  1  0
  5 31  1  0
  6  7  2  0
  6 32  1  0
  7  8  1  0
  7 15  1  0
  8  9  2  0
  8 10  1  0
  9 33  1  0
 10 11  1  0
 10 14  1  0
 11 12  1  0
 11 34  1  0
 11 35  1  0
 12 13  1  0
 12 36  1  0
 12 37  1  0
 13 14  2  0
 14 15  1  0
 16 17  2  0
 16 29  1  0
 17 18  1  0
 17 38  1  0
 18 19  2  0
 18 39  1  0
 19 20  1  0
 19 29  1  0
 20 21  2  0
 20 28  1  0
 21 22  1  0
 21 40  1  0
 22 23  2  0
 22 41  1  0
 23 24  1  0
 23 42  1  0
 24 25  1  0
 24 28  2  0
 25 26  2  0
 25 27  1  0
 28 43  1  0
M  CHG  2  25   1  27  -1
M  END

