
     RDKit          3D

 55 56  0  0  0  0  0  0  0  0999 V2000
    4.5676    1.5770   -3.5397 C   0  0  0  0  0  0  0  0  0  0  0  0
    4.9758    0.7098   -2.3506 C   0  0  0  0  0  0  0  0  0  0  0  0
    4.1056    0.9007   -1.1826 N   0  0  0  0  0  0  0  0  0  0  0  0
    2.8075    0.2069   -1.1590 C   0  0  0  0  0  0  0  0  0  0  0  0
    2.8760   -1.2937   -0.8720 C   0  0  0  0  0  0  0  0  0  0  0  0
    4.8668    1.1453    0.3003 S   0  0  1  0  0  0  0  0  0  0  0  0
    3.8112    1.0857    1.3155 O   0  0  0  0  0  0  0  0  0  0  0  0
    6.0645    0.3011    0.4188 O   0  0  0  0  0  0  0  0  0  0  0  0
    5.4486    2.8465    0.1851 C   0  0  0  0  0  0  0  0  0  0  0  0
    4.5261    3.8874    0.0381 C   0  0  0  0  0  0  0  0  0  0  0  0
    4.9945    5.2022    0.0187 C   0  0  0  0  0  0  0  0  0  0  0  0
    6.3606    5.4655    0.1496 C   0  0  0  0  0  0  0  0  0  0  0  0
    7.2831    4.4192    0.2943 C   0  0  0  0  0  0  0  0  0  0  0  0
    8.7392    4.7983    0.4445 C   0  0  0  0  0  0  0  0  0  0  0  0
    9.0591    5.9546    0.6897 O   0  0  0  0  0  0  0  0  0  0  0  0
    9.6457    3.7915    0.2973 N   0  0  0  0  0  0  0  0  0  0  0  0
   11.0924    4.0119    0.3827 C   0  0  1  0  0  0  0  0  0  0  0  0
   11.7481    2.8696    1.1684 C   0  0  0  0  0  0  0  0  0  0  0  0
   11.7197    4.2300   -0.9971 C   0  0  0  0  0  0  0  0  0  0  0  0
   11.7320    3.1692   -1.9174 C   0  0  0  0  0  0  0  0  0  0  0  0
   12.2727    3.2887   -3.2028 C   0  0  0  0  0  0  0  0  0  0  0  0
   12.2808    2.1288   -4.1694 C   0  0  0  0  0  0  0  0  0  0  0  0
   12.8199    4.5304   -3.5593 C   0  0  0  0  0  0  0  0  0  0  0  0
   12.8160    5.5932   -2.6583 C   0  0  0  0  0  0  0  0  0  0  0  0
   12.2713    5.4756   -1.3678 C   0  0  0  0  0  0  0  0  0  0  0  0
   12.2850    6.6664   -0.4356 C   0  0  0  0  0  0  0  0  0  0  0  0
    6.8133    3.0971    0.3254 C   0  0  0  0  0  0  0  0  0  0  0  0
    5.2494    1.4035   -4.3877 H   0  0  0  0  0  0  0  0  0  0  0  0
    4.6044    2.6458   -3.2782 H   0  0  0  0  0  0  0  0  0  0  0  0
    3.5472    1.3463   -3.8847 H   0  0  0  0  0  0  0  0  0  0  0  0
    6.0061    0.9485   -2.0501 H   0  0  0  0  0  0  0  0  0  0  0  0
    4.9943   -0.3574   -2.6378 H   0  0  0  0  0  0  0  0  0  0  0  0
    2.3420    0.3941   -2.1405 H   0  0  0  0  0  0  0  0  0  0  0  0
    2.1754    0.7014   -0.4091 H   0  0  0  0  0  0  0  0  0  0  0  0
    3.5071   -1.8275   -1.6004 H   0  0  0  0  0  0  0  0  0  0  0  0
    1.8671   -1.7344   -0.9188 H   0  0  0  0  0  0  0  0  0  0  0  0
    3.2799   -1.4756    0.1351 H   0  0  0  0  0  0  0  0  0  0  0  0
    3.4607    3.6680   -0.0539 H   0  0  0  0  0  0  0  0  0  0  0  0
    4.2882    6.0284   -0.0924 H   0  0  0  0  0  0  0  0  0  0  0  0
    6.7448    6.4871    0.1494 H   0  0  0  0  0  0  0  0  0  0  0  0
    9.3279    2.8940   -0.0474 H   0  0  0  0  0  0  0  0  0  0  0  0
   11.1973    4.9349    0.9627 H   0  0  0  0  0  0  0  0  0  0  0  0
   11.6158    1.8965    0.6675 H   0  0  0  0  0  0  0  0  0  0  0  0
   11.3118    2.7960    2.1764 H   0  0  0  0  0  0  0  0  0  0  0  0
   12.8303    3.0440    1.2663 H   0  0  0  0  0  0  0  0  0  0  0  0
   11.3032    2.2045   -1.6263 H   0  0  0  0  0  0  0  0  0  0  0  0
   11.7334    1.2623   -3.7692 H   0  0  0  0  0  0  0  0  0  0  0  0
   13.3101    1.7986   -4.3912 H   0  0  0  0  0  0  0  0  0  0  0  0
   11.8193    2.4038   -5.1324 H   0  0  0  0  0  0  0  0  0  0  0  0
   13.2527    4.6678   -4.5549 H   0  0  0  0  0  0  0  0  0  0  0  0
   13.2451    6.5523   -2.9627 H   0  0  0  0  0  0  0  0  0  0  0  0
   12.6697    7.5585   -0.9511 H   0  0  0  0  0  0  0  0  0  0  0  0
   12.9316    6.4933    0.4421 H   0  0  0  0  0  0  0  0  0  0  0  0
   11.2760    6.8925   -0.0567 H   0  0  0  0  0  0  0  0  0  0  0  0
    7.4738    2.2426    0.4827 H   0  0  0  0  0  0  0  0  0  0  0  0
  1  2  1  0
  1 28  1  0
  1 29  1  0
  1 30  1  0
  2  3  1  0
  2 31  1  0
  2 32  1  0
  3  4  1  0
  6  3  1  6
  4  5  1  0
  4 33  1  0
  4 34  1  0
  5 35  1  0
  5 36  1  0
  5 37  1  0
  6  7  2  0
  6  8  2  0
  6  9  1  0
  9 10  2  0
  9 27  1  0
 10 11  1  0
 10 38  1  0
 11 12  2  0
 11 39  1  0
 12 13  1  0
 12 40  1  0
 13 14  1  0
 13 27  2  0
 14 15  2  0
 14 16  1  0
 16 17  1  0
 16 41  1  0
 17 18  1  0
 17 19  1  0
 17 42  1  1
 18 43  1  0
 18 44  1  0
 18 45  1  0
 19 20  2  0
 19 25  1  0
 20 21  1  0
 20 46  1  0
 21 22  1  0
 21 23  2  0
 22 47  1  0
 22 48  1  0
 22 49  1  0
 23 24  1  0
 23 50  1  0
 24 25  2  0
 24 51  1  0
 25 26  1  0
 26 52  1  0
 26 53  1  0
 26 54  1  0
 27 55  1  0
M  END

