
     RDKit          3D

 57 60  0  0  0  0  0  0  0  0999 V2000
    1.3989    0.4216   -1.7798 C   0  0  0  0  0  0  0  0  0  0  0  0
    2.6038    0.2915   -1.0511 O   0  0  0  0  0  0  0  0  0  0  0  0
    3.1846    1.3914   -0.5110 C   0  0  0  0  0  0  0  0  0  0  0  0
    2.6801    2.6938   -0.6055 C   0  0  0  0  0  0  0  0  0  0  0  0
    3.3619    3.7556   -0.0012 C   0  0  0  0  0  0  0  0  0  0  0  0
    4.5586    3.5109    0.6725 C   0  0  0  0  0  0  0  0  0  0  0  0
    5.4283    4.8682    1.4693 S   0  0  1  0  0  0  0  0  0  0  0  0
    6.8583    4.5675    1.3977 O   0  0  0  0  0  0  0  0  0  0  0  0
    4.8541    6.1089    0.9412 O   0  0  0  0  0  0  0  0  0  0  0  0
    5.0159    4.8024    3.0732 N   0  0  0  0  0  0  0  0  0  0  0  0
    3.7937    5.4117    3.6049 C   0  0  0  0  0  0  0  0  0  0  0  0
    4.0034    5.2737    5.1173 C   0  0  0  0  0  0  0  0  0  0  0  0
    4.7469    3.9346    5.2457 C   0  0  0  0  0  0  0  0  0  0  0  0
    5.6948    3.9134    4.0332 C   0  0  0  0  0  0  0  0  0  0  0  0
    5.1009    2.2218    0.7373 C   0  0  0  0  0  0  0  0  0  0  0  0
    4.4059    1.1521    0.1725 C   0  0  0  0  0  0  0  0  0  0  0  0
    4.9102   -0.1645    0.2252 N   0  0  0  0  0  0  0  0  0  0  0  0
    5.1551   -0.9846    1.6969 S   0  0  1  0  0  0  0  0  0  0  0  0
    5.7111   -2.2740    1.2980 O   0  0  0  0  0  0  0  0  0  0  0  0
    5.8557   -0.0556    2.5842 O   0  0  0  0  0  0  0  0  0  0  0  0
    3.5291   -1.2779    2.3893 C   0  0  0  0  0  0  0  0  0  0  0  0
    2.7967   -2.3989    1.9812 C   0  0  0  0  0  0  0  0  0  0  0  0
    1.5244   -2.6295    2.4939 C   0  0  0  0  0  0  0  0  0  0  0  0
    0.9654   -1.7387    3.4389 C   0  0  0  0  0  0  0  0  0  0  0  0
   -0.3115   -1.9510    3.9900 N   0  0  0  0  0  0  0  0  0  0  0  0
   -0.8078   -1.1541    5.1177 C   0  0  0  0  0  0  0  0  0  0  0  0
   -2.0611   -1.9096    5.5852 C   0  0  0  0  0  0  0  0  0  0  0  0
   -2.5567   -2.5965    4.3127 C   0  0  0  0  0  0  0  0  0  0  0  0
   -1.2957   -2.8045    3.4811 C   0  0  0  0  0  0  0  0  0  0  0  0
   -1.1806   -3.5525    2.5355 O   0  0  0  0  0  0  0  0  0  0  0  0
    1.7239   -0.6214    3.8476 C   0  0  0  0  0  0  0  0  0  0  0  0
    2.9973   -0.3927    3.3281 C   0  0  0  0  0  0  0  0  0  0  0  0
    1.1245   -0.5883   -2.1106 H   0  0  0  0  0  0  0  0  0  0  0  0
    1.5280    1.0699   -2.6639 H   0  0  0  0  0  0  0  0  0  0  0  0
    0.5876    0.8267   -1.1503 H   0  0  0  0  0  0  0  0  0  0  0  0
    1.7530    2.8913   -1.1438 H   0  0  0  0  0  0  0  0  0  0  0  0
    2.9829    4.7761   -0.0731 H   0  0  0  0  0  0  0  0  0  0  0  0
    2.8848    4.8651    3.2797 H   0  0  0  0  0  0  0  0  0  0  0  0
    3.7009    6.4527    3.2662 H   0  0  0  0  0  0  0  0  0  0  0  0
    3.0578    5.3038    5.6796 H   0  0  0  0  0  0  0  0  0  0  0  0
    4.6382    6.0989    5.4802 H   0  0  0  0  0  0  0  0  0  0  0  0
    4.0289    3.1001    5.1742 H   0  0  0  0  0  0  0  0  0  0  0  0
    5.2861    3.8236    6.1981 H   0  0  0  0  0  0  0  0  0  0  0  0
    5.8306    2.8942    3.6360 H   0  0  0  0  0  0  0  0  0  0  0  0
    6.6943    4.3093    4.2769 H   0  0  0  0  0  0  0  0  0  0  0  0
    6.0650    2.0400    1.2096 H   0  0  0  0  0  0  0  0  0  0  0  0
    4.4924   -0.7947   -0.4581 H   0  0  0  0  0  0  0  0  0  0  0  0
    3.2359   -3.1054    1.2740 H   0  0  0  0  0  0  0  0  0  0  0  0
    0.9513   -3.4953    2.1734 H   0  0  0  0  0  0  0  0  0  0  0  0
   -1.0486   -0.1255    4.7897 H   0  0  0  0  0  0  0  0  0  0  0  0
   -0.0432   -1.0808    5.9054 H   0  0  0  0  0  0  0  0  0  0  0  0
   -2.7986   -1.2380    6.0467 H   0  0  0  0  0  0  0  0  0  0  0  0
   -1.7797   -2.6635    6.3371 H   0  0  0  0  0  0  0  0  0  0  0  0
   -3.2375   -1.9526    3.7281 H   0  0  0  0  0  0  0  0  0  0  0  0
   -3.0698   -3.5557    4.4666 H   0  0  0  0  0  0  0  0  0  0  0  0
    1.3265    0.0840    4.5764 H   0  0  0  0  0  0  0  0  0  0  0  0
    3.5856    0.4632    3.6617 H   0  0  0  0  0  0  0  0  0  0  0  0
  1  2  1  0
  1 33  1  0
  1 34  1  0
  1 35  1  0
  2  3  1  0
  3  4  2  0
  3 16  1  0
  4  5  1  0
  4 36  1  0
  5  6  2  0
  5 37  1  0
  7  6  1  6
  6 15  1  0
  7  8  2  0
  7  9  2  0
  7 10  1  0
 10 11  1  0
 10 14  1  0
 11 12  1  0
 11 38  1  0
 11 39  1  0
 12 13  1  0
 12 40  1  0
 12 41  1  0
 13 14  1  0
 13 42  1  0
 13 43  1  0
 14 44  1  0
 14 45  1  0
 15 16  2  0
 15 46  1  0
 16 17  1  0
 18 17  1  6
 17 47  1  0
 18 19  2  0
 18 20  2  0
 18 21  1  0
 21 22  2  0
 21 32  1  0
 22 23  1  0
 22 48  1  0
 23 24  2  0
 23 49  1  0
 24 25  1  0
 24 31  1  0
 25 26  1  0
 25 29  1  0
 26 27  1  0
 26 50  1  0
 26 51  1  0
 27 28  1  0
 27 52  1  0
 27 53  1  0
 28 29  1  0
 28 54  1  0
 28 55  1  0
 29 30  2  0
 31 32  2  0
 31 56  1  0
 32 57  1  0
M  END

