
     RDKit          3D

 36 38  0  0  0  0  0  0  0  0999 V2000
    0.4265   -1.4554    3.5552 O   0  0  0  0  0  0  0  0  0  0  0  0
    1.6139   -1.7335    3.5159 N   0  0  0  0  0  0  0  0  0  0  0  0
    2.1185   -2.7413    3.9825 O   0  0  0  0  0  0  0  0  0  0  0  0
    2.5128   -0.7727    2.8559 C   0  0  0  0  0  0  0  0  0  0  0  0
    2.5206    0.5392    3.3426 C   0  0  0  0  0  0  0  0  0  0  0  0
    1.6845    0.8742    4.3240 F   0  0  0  0  0  0  0  0  0  0  0  0
    3.4250    1.4818    2.8667 C   0  0  0  0  0  0  0  0  0  0  0  0
    4.3214    1.0866    1.8720 C   0  0  0  0  0  0  0  0  0  0  0  0
    4.3060   -0.2067    1.3513 C   0  0  0  0  0  0  0  0  0  0  0  0
    3.3980   -1.1807    1.8229 C   0  0  0  0  0  0  0  0  0  0  0  0
    3.3732   -2.4722    1.3127 N   0  0  0  0  0  0  0  0  0  0  0  0
    4.5308   -3.0187    0.6177 C   0  0  0  0  0  0  0  0  0  0  0  0
    4.5870   -4.5344    0.8084 C   0  0  0  0  0  0  0  0  0  0  0  0
    3.3339   -5.1695    0.4160 N   0  0  0  0  0  0  0  0  0  0  0  0
    3.3438   -6.4215   -0.1669 C   0  0  0  0  0  0  0  0  0  0  0  0
    2.1781   -7.2344   -0.2980 C   0  0  0  0  0  0  0  0  0  0  0  0
    2.2105   -8.4086   -0.9079 N   0  0  0  0  0  0  0  0  0  0  0  0
    3.3815   -8.8351   -1.3966 C   0  0  0  0  0  0  0  0  0  0  0  0
    4.5315   -8.0614   -1.2451 C   0  0  0  0  0  0  0  0  0  0  0  0
    4.5151   -6.8765   -0.6380 N   0  0  0  0  0  0  0  0  0  0  0  0
    2.1556   -4.6040    1.0566 C   0  0  0  0  0  0  0  0  0  0  0  0
    2.1272   -3.0883    0.8617 C   0  0  0  0  0  0  0  0  0  0  0  0
    3.4128    2.4900    3.2823 H   0  0  0  0  0  0  0  0  0  0  0  0
    5.0363    1.8117    1.4757 H   0  0  0  0  0  0  0  0  0  0  0  0
    4.9891   -0.4619    0.5418 H   0  0  0  0  0  0  0  0  0  0  0  0
    5.4478   -2.5839    1.0387 H   0  0  0  0  0  0  0  0  0  0  0  0
    4.5034   -2.7801   -0.4666 H   0  0  0  0  0  0  0  0  0  0  0  0
    4.7990   -4.7480    1.8751 H   0  0  0  0  0  0  0  0  0  0  0  0
    5.3941   -4.9664    0.2061 H   0  0  0  0  0  0  0  0  0  0  0  0
    1.2125   -6.9239    0.1096 H   0  0  0  0  0  0  0  0  0  0  0  0
    3.4054   -9.8064   -1.9006 H   0  0  0  0  0  0  0  0  0  0  0  0
    5.4993   -8.4125   -1.6230 H   0  0  0  0  0  0  0  0  0  0  0  0
    2.1417   -4.8296    2.1405 H   0  0  0  0  0  0  0  0  0  0  0  0
    1.2443   -5.0195    0.6098 H   0  0  0  0  0  0  0  0  0  0  0  0
    1.2627   -2.6669    1.3870 H   0  0  0  0  0  0  0  0  0  0  0  0
    1.9815   -2.8710   -0.2176 H   0  0  0  0  0  0  0  0  0  0  0  0
  1  2  2  0
  2  3  1  0
  2  4  1  0
  4  5  2  0
  4 10  1  0
  5  6  1  0
  5  7  1  0
  7  8  2  0
  7 23  1  0
  8  9  1  0
  8 24  1  0
  9 10  2  0
  9 25  1  0
 10 11  1  0
 11 12  1  0
 11 22  1  0
 12 13  1  0
 12 26  1  0
 12 27  1  0
 13 14  1  0
 13 28  1  0
 13 29  1  0
 14 15  1  0
 14 21  1  0
 15 16  2  0
 15 20  1  0
 16 17  1  0
 16 30  1  0
 17 18  2  0
 18 19  1  0
 18 31  1  0
 19 20  2  0
 19 32  1  0
 21 22  1  0
 21 33  1  0
 21 34  1  0
 22 35  1  0
 22 36  1  0
M  CHG  2   2   1   3  -1
M  END

