
     RDKit          3D

 64 68  0  0  0  0  0  0  0  0999 V2000
   13.2379  -10.4308    6.3519 C   0  0  0  0  0  0  0  0  0  0  0  0
   12.2182  -10.0484    5.3062 C   0  0  0  0  0  0  0  0  0  0  0  0
   11.0338  -10.7862    5.1430 C   0  0  0  0  0  0  0  0  0  0  0  0
   10.0802  -10.3987    4.2009 C   0  0  0  0  0  0  0  0  0  0  0  0
   10.2909   -9.2792    3.3928 C   0  0  0  0  0  0  0  0  0  0  0  0
   11.4761   -8.5326    3.5218 C   0  0  0  0  0  0  0  0  0  0  0  0
   11.8134   -7.3240    2.7359 C   0  0  0  0  0  0  0  0  0  0  0  0
   12.6381   -6.4140    3.2113 N   0  0  0  0  0  0  0  0  0  0  0  0
   12.8336   -5.5123    2.2061 C   0  0  0  0  0  0  0  0  0  0  0  0
   13.6749   -4.4695    2.2505 N   0  0  0  0  0  0  0  0  0  0  0  0
   13.7745   -3.8200    1.1025 C   0  0  0  0  0  0  0  0  0  0  0  0
   13.1118   -4.0721   -0.0364 N   0  0  0  0  0  0  0  0  0  0  0  0
   12.2331   -5.0812   -0.1007 C   0  0  0  0  0  0  0  0  0  0  0  0
   11.6567   -5.2895   -1.3561 N   0  0  0  0  0  0  0  0  0  0  0  0
   10.2106   -5.1797   -1.6293 C   0  0  2  0  0  0  0  0  0  0  0  0
    9.6742   -5.8083   -0.9036 H   0  0  0  0  0  0  0  0  0  0  0  0
    9.9252   -5.7104   -3.0448 C   0  0  0  0  0  0  0  0  0  0  0  0
   10.3119   -7.1689   -3.2909 C   0  0  0  0  0  0  0  0  0  0  0  0
   10.0206   -7.6470   -4.7130 C   0  0  0  0  0  0  0  0  0  0  0  0
   10.3113   -9.0168   -4.9000 O   0  0  0  0  0  0  0  0  0  0  0  0
    9.6976   -3.7406   -1.4805 C   0  0  1  0  0  0  0  0  0  0  0  0
    8.1699   -3.4686   -1.5739 C   0  0  0  0  0  0  0  0  0  0  0  0
    8.3278   -2.4099   -0.4532 C   0  0  0  0  0  0  0  0  0  0  0  0
    9.6912   -3.0496   -0.0884 C   0  0  0  0  0  0  0  0  0  0  0  0
   12.0712   -5.8750    1.0628 C   0  0  0  0  0  0  0  0  0  0  0  0
   11.4094   -7.0510    1.4276 N   0  0  0  0  0  0  0  0  0  0  0  0
   10.6838   -7.9402    0.5316 C   0  0  0  0  0  0  0  0  0  0  0  0
    9.1655   -7.8304    0.5675 C   0  0  0  0  0  0  0  0  0  0  0  0
    8.4908   -6.8648    1.3251 C   0  0  0  0  0  0  0  0  0  0  0  0
    7.0942   -6.7929    1.3234 C   0  0  0  0  0  0  0  0  0  0  0  0
    6.3600   -7.6978    0.5537 C   0  0  0  0  0  0  0  0  0  0  0  0
    4.6150   -7.6155    0.5441 Cl  0  0  0  0  0  0  0  0  0  0  0  0
    7.0121   -8.6745   -0.2069 C   0  0  0  0  0  0  0  0  0  0  0  0
    8.4058   -8.7344   -0.1929 C   0  0  0  0  0  0  0  0  0  0  0  0
   12.4201   -8.9300    4.4905 C   0  0  0  0  0  0  0  0  0  0  0  0
   13.1839  -11.5021    6.5980 H   0  0  0  0  0  0  0  0  0  0  0  0
   13.0706   -9.8698    7.2880 H   0  0  0  0  0  0  0  0  0  0  0  0
   14.2622  -10.2048    6.0189 H   0  0  0  0  0  0  0  0  0  0  0  0
   10.8562  -11.6686    5.7644 H   0  0  0  0  0  0  0  0  0  0  0  0
    9.1546  -10.9702    4.0955 H   0  0  0  0  0  0  0  0  0  0  0  0
    9.5108   -8.9816    2.6954 H   0  0  0  0  0  0  0  0  0  0  0  0
   14.4725   -2.9742    1.0677 H   0  0  0  0  0  0  0  0  0  0  0  0
   12.1705   -4.6878   -2.0013 H   0  0  0  0  0  0  0  0  0  0  0  0
   10.4515   -5.0607   -3.7705 H   0  0  0  0  0  0  0  0  0  0  0  0
    8.8496   -5.5760   -3.2484 H   0  0  0  0  0  0  0  0  0  0  0  0
    9.7668   -7.8293   -2.5959 H   0  0  0  0  0  0  0  0  0  0  0  0
   11.3878   -7.3004   -3.0780 H   0  0  0  0  0  0  0  0  0  0  0  0
   10.5624   -7.0096   -5.4434 H   0  0  0  0  0  0  0  0  0  0  0  0
    8.9464   -7.5306   -4.9351 H   0  0  0  0  0  0  0  0  0  0  0  0
   11.2622   -9.1393   -4.7800 H   0  0  0  0  0  0  0  0  0  0  0  0
   10.2349   -3.1026   -2.2057 H   0  0  0  0  0  0  0  0  0  0  0  0
    7.5866   -4.3392   -1.2301 H   0  0  0  0  0  0  0  0  0  0  0  0
    7.7637   -3.1396   -2.5430 H   0  0  0  0  0  0  0  0  0  0  0  0
    7.5535   -2.3783    0.3285 H   0  0  0  0  0  0  0  0  0  0  0  0
    8.4474   -1.3945   -0.8624 H   0  0  0  0  0  0  0  0  0  0  0  0
    9.5898   -3.7839    0.7265 H   0  0  0  0  0  0  0  0  0  0  0  0
   10.5334   -2.3848    0.1511 H   0  0  0  0  0  0  0  0  0  0  0  0
   10.9789   -8.9756    0.7623 H   0  0  0  0  0  0  0  0  0  0  0  0
   11.0442   -7.7371   -0.4876 H   0  0  0  0  0  0  0  0  0  0  0  0
    9.0589   -6.1593    1.9350 H   0  0  0  0  0  0  0  0  0  0  0  0
    6.5758   -6.0404    1.9198 H   0  0  0  0  0  0  0  0  0  0  0  0
    6.4289   -9.3804   -0.8005 H   0  0  0  0  0  0  0  0  0  0  0  0
    8.9082   -9.5058   -0.7839 H   0  0  0  0  0  0  0  0  0  0  0  0
   13.3266   -8.3309    4.5929 H   0  0  0  0  0  0  0  0  0  0  0  0
  1  2  1  0
  1 36  1  0
  1 37  1  0
  1 38  1  0
  2  3  2  0
  2 35  1  0
  3  4  1  0
  3 39  1  0
  4  5  2  0
  4 40  1  0
  5  6  1  0
  5 41  1  0
  6  7  1  0
  6 35  2  0
  7  8  2  0
  7 26  1  0
  8  9  1  0
  9 10  2  0
  9 25  1  0
 10 11  1  0
 11 12  2  0
 11 42  1  0
 12 13  1  0
 13 14  1  0
 13 25  2  0
 14 15  1  0
 14 43  1  0
 15 16  1  1
 15 17  1  0
 15 21  1  0
 17 18  1  0
 17 44  1  0
 17 45  1  0
 18 19  1  0
 18 46  1  0
 18 47  1  0
 19 20  1  0
 19 48  1  0
 19 49  1  0
 20 50  1  0
 21 22  1  0
 21 24  1  0
 21 51  1  6
 22 23  1  0
 22 52  1  0
 22 53  1  0
 23 24  1  0
 23 54  1  0
 23 55  1  0
 24 56  1  0
 24 57  1  0
 25 26  1  0
 26 27  1  0
 27 28  1  0
 27 58  1  0
 27 59  1  0
 28 29  2  0
 28 34  1  0
 29 30  1  0
 29 60  1  0
 30 31  2  0
 30 61  1  0
 31 32  1  0
 31 33  1  0
 33 34  2  0
 33 62  1  0
 34 63  1  0
 35 64  1  0
M  END

