
     RDKit          3D

 81 85  0  0  0  0  0  0  0  0999 V2000
   16.8343   -2.6013   -2.7259 C   0  0  0  0  0  0  0  0  0  0  0  0
   15.4153   -2.7896   -3.2711 C   0  0  1  0  0  0  0  0  0  0  0  0
   15.4049   -3.0268   -4.7844 C   0  0  0  0  0  0  0  0  0  0  0  0
   14.6971   -3.9235   -2.5375 C   0  0  0  0  0  0  0  0  0  0  0  0
   14.5913   -1.6183   -2.9434 O   0  0  0  0  0  0  0  0  0  0  0  0
   14.8800   -0.3875   -3.4035 C   0  0  0  0  0  0  0  0  0  0  0  0
   15.8241   -0.0859   -4.1122 O   0  0  0  0  0  0  0  0  0  0  0  0
   13.9590    0.5100   -2.9363 N   0  0  0  0  0  0  0  0  0  0  0  0
   13.9316    1.8913   -3.3756 C   0  0  1  0  0  0  0  0  0  0  0  0
   14.8349    2.0111   -3.9963 H   0  0  0  0  0  0  0  0  0  0  0  0
   12.7094    2.2106   -4.2613 C   0  0  0  0  0  0  0  0  0  0  0  0
   11.3258    2.1827   -3.5619 C   0  0  0  0  0  0  0  0  0  0  0  0
   10.6827    3.5720   -3.4816 C   0  0  0  0  0  0  0  0  0  0  0  0
    9.3656    3.6684   -2.7092 C   0  0  0  0  0  0  0  0  0  0  0  0
    9.0197    5.1395   -2.3666 C   0  0  0  0  0  0  0  0  0  0  0  0
    9.6777    5.6664   -1.1118 C   0  0  0  0  0  0  0  0  0  0  0  0
   10.9219    6.1551   -0.9773 C   0  0  0  0  0  0  0  0  0  0  0  0
   11.4126    6.7165    0.3043 C   0  0  2  0  0  0  0  0  0  0  0  0
   10.6158    6.8689    1.0398 H   0  0  0  0  0  0  0  0  0  0  0  0
   12.5409    7.7109    0.3852 C   0  0  0  0  0  0  0  0  0  0  0  0
   12.7525    6.3623    1.0016 C   0  0  1  0  0  0  0  0  0  0  0  0
   12.6053    6.2900    2.5235 C   0  0  0  0  0  0  0  0  0  0  0  0
   12.4966    7.2767    3.2067 O   0  0  0  0  0  0  0  0  0  0  0  0
   12.5518    5.0605    3.0353 O   0  0  0  0  0  0  0  0  0  0  0  0
   13.7576    5.5098    0.4112 N   0  0  0  0  0  0  0  0  0  0  0  0
   13.7232    4.1572    0.4153 C   0  0  0  0  0  0  0  0  0  0  0  0
   12.7867    3.5195    0.8948 O   0  0  0  0  0  0  0  0  0  0  0  0
   14.9948    3.3915    0.0186 C   0  0  2  0  0  0  0  0  0  0  0  0
   15.1052    2.7161    0.8873 H   0  0  0  0  0  0  0  0  0  0  0  0
   16.3489    4.0766   -0.2079 C   0  0  0  0  0  0  0  0  0  0  0  0
   17.1853    2.8503   -0.6346 C   0  0  2  0  0  0  0  0  0  0  0  0
   17.5605    2.3602    0.2729 H   0  0  0  0  0  0  0  0  0  0  0  0
   18.4244    3.1160   -1.3664 N   0  0  0  0  0  0  0  0  0  0  0  0
   19.5688    2.6809   -0.7857 N   0  0  0  0  0  0  0  0  0  0  0  0
   20.5405    2.9895   -1.5656 N   0  0  0  0  0  0  0  0  0  0  0  0
   20.0921    3.6203   -2.6598 N   0  0  0  0  0  0  0  0  0  0  0  0
   18.7736    3.7032   -2.5476 C   0  0  0  0  0  0  0  0  0  0  0  0
   17.9320    4.3531   -3.5676 C   0  0  0  0  0  0  0  0  0  0  0  0
   18.5606    4.9206   -4.6908 C   0  0  0  0  0  0  0  0  0  0  0  0
   17.7665    5.5560   -5.6420 C   0  0  0  0  0  0  0  0  0  0  0  0
   16.3839    5.6113   -5.4435 C   0  0  0  0  0  0  0  0  0  0  0  0
   15.8534    5.0145   -4.2969 C   0  0  0  0  0  0  0  0  0  0  0  0
   16.6063    4.3928   -3.3841 N   0  0  0  0  0  0  0  0  0  0  0  0
   16.1821    1.8775   -1.3419 C   0  0  0  0  0  0  0  0  0  0  0  0
   14.8724    2.5107   -1.1516 N   0  0  0  0  0  0  0  0  0  0  0  0
   14.0649    2.8809   -2.1989 C   0  0  0  0  0  0  0  0  0  0  0  0
   13.4446    3.9344   -2.1822 O   0  0  0  0  0  0  0  0  0  0  0  0
   17.4137   -3.5260   -2.8730 H   0  0  0  0  0  0  0  0  0  0  0  0
   16.8056   -2.3885   -1.6455 H   0  0  0  0  0  0  0  0  0  0  0  0
   17.3499   -1.7791   -3.2381 H   0  0  0  0  0  0  0  0  0  0  0  0
   15.9323   -3.9653   -5.0157 H   0  0  0  0  0  0  0  0  0  0  0  0
   15.8993   -2.2045   -5.3171 H   0  0  0  0  0  0  0  0  0  0  0  0
   14.3705   -3.1183   -5.1511 H   0  0  0  0  0  0  0  0  0  0  0  0
   15.2211   -4.8766   -2.7043 H   0  0  0  0  0  0  0  0  0  0  0  0
   13.6628   -4.0257   -2.8993 H   0  0  0  0  0  0  0  0  0  0  0  0
   14.6661   -3.7272   -1.4550 H   0  0  0  0  0  0  0  0  0  0  0  0
   13.2035    0.1505   -2.3641 H   0  0  0  0  0  0  0  0  0  0  0  0
   12.7409    1.4883   -5.0920 H   0  0  0  0  0  0  0  0  0  0  0  0
   12.8683    3.2016   -4.7144 H   0  0  0  0  0  0  0  0  0  0  0  0
   11.4203    1.7818   -2.5359 H   0  0  0  0  0  0  0  0  0  0  0  0
   10.6526    1.4850   -4.0893 H   0  0  0  0  0  0  0  0  0  0  0  0
   10.5236    3.9558   -4.5072 H   0  0  0  0  0  0  0  0  0  0  0  0
   11.4175    4.2371   -3.0120 H   0  0  0  0  0  0  0  0  0  0  0  0
    9.4278    3.0834   -1.7746 H   0  0  0  0  0  0  0  0  0  0  0  0
    8.5432    3.2238   -3.2975 H   0  0  0  0  0  0  0  0  0  0  0  0
    7.9289    5.2375   -2.2456 H   0  0  0  0  0  0  0  0  0  0  0  0
    9.2883    5.7724   -3.2307 H   0  0  0  0  0  0  0  0  0  0  0  0
    9.0553    5.6345   -0.2074 H   0  0  0  0  0  0  0  0  0  0  0  0
   11.6019    6.1944   -1.8353 H   0  0  0  0  0  0  0  0  0  0  0  0
   12.4608    8.5529    1.0760 H   0  0  0  0  0  0  0  0  0  0  0  0
   13.0794    7.9093   -0.5471 H   0  0  0  0  0  0  0  0  0  0  0  0
   12.4783    4.3843    2.3135 H   0  0  0  0  0  0  0  0  0  0  0  0
   14.5573    5.9699   -0.0073 H   0  0  0  0  0  0  0  0  0  0  0  0
   16.7581    4.5583    0.6919 H   0  0  0  0  0  0  0  0  0  0  0  0
   16.2823    4.7986   -1.0330 H   0  0  0  0  0  0  0  0  0  0  0  0
   19.6444    4.8523   -4.7866 H   0  0  0  0  0  0  0  0  0  0  0  0
   18.2220    6.0067   -6.5271 H   0  0  0  0  0  0  0  0  0  0  0  0
   15.7254    6.1059   -6.1606 H   0  0  0  0  0  0  0  0  0  0  0  0
   14.7772    5.0350   -4.0952 H   0  0  0  0  0  0  0  0  0  0  0  0
   16.2202    0.8876   -0.8603 H   0  0  0  0  0  0  0  0  0  0  0  0
   16.4159    1.7443   -2.4037 H   0  0  0  0  0  0  0  0  0  0  0  0
  1  2  1  0
  1 48  1  0
  1 49  1  0
  1 50  1  0
  2  3  1  0
  2  4  1  0
  2  5  1  6
  3 51  1  0
  3 52  1  0
  3 53  1  0
  4 54  1  0
  4 55  1  0
  4 56  1  0
  5  6  1  0
  6  7  2  0
  6  8  1  0
  8  9  1  0
  8 57  1  0
  9 10  1  6
  9 11  1  0
  9 46  1  0
 11 12  1  0
 11 58  1  0
 11 59  1  0
 12 13  1  0
 12 60  1  0
 12 61  1  0
 13 14  1  0
 13 62  1  0
 13 63  1  0
 14 15  1  0
 14 64  1  0
 14 65  1  0
 15 16  1  0
 15 66  1  0
 15 67  1  0
 16 17  2  0
 16 68  1  0
 17 18  1  0
 17 69  1  0
 18 19  1  1
 18 20  1  0
 18 21  1  0
 20 21  1  0
 20 70  1  0
 20 71  1  0
 21 22  1  1
 21 25  1  0
 22 23  2  0
 22 24  1  0
 24 72  1  0
 25 26  1  0
 25 73  1  0
 26 27  2  0
 26 28  1  0
 28 29  1  1
 28 30  1  0
 28 45  1  0
 30 31  1  0
 30 74  1  0
 30 75  1  0
 31 32  1  1
 31 33  1  0
 31 44  1  0
 33 34  1  0
 33 37  1  0
 34 35  2  0
 35 36  1  0
 36 37  2  0
 37 38  1  0
 38 39  2  0
 38 43  1  0
 39 40  1  0
 39 76  1  0
 40 41  2  0
 40 77  1  0
 41 42  1  0
 41 78  1  0
 42 43  2  0
 42 79  1  0
 44 45  1  0
 44 80  1  0
 44 81  1  0
 45 46  1  0
 46 47  2  0
M  END

