
     RDKit          3D

 45 45  0  0  0  0  0  0  0  0999 V2000
    0.6162    2.0005    1.4362 C   0  0  0  0  0  0  0  0  0  0  0  0
    2.2611    2.7453    1.6647 S   0  0  0  0  0  0  0  0  0  0  0  0
    3.3025    1.4005    0.9626 C   0  0  0  0  0  0  0  0  0  0  0  0
    4.7942    1.7192    1.0506 C   0  0  0  0  0  0  0  0  0  0  0  0
    5.2944    2.0259    2.4704 C   0  0  1  0  0  0  0  0  0  0  0  0
    4.9517    3.0492    2.7292 H   0  0  0  0  0  0  0  0  0  0  0  0
    4.8032    1.0181    3.4181 N   0  0  0  0  0  0  0  0  0  0  0  0
    6.8379    2.0397    2.4856 C   0  0  0  0  0  0  0  0  0  0  0  0
    7.4876    1.5082    1.5971 O   0  0  0  0  0  0  0  0  0  0  0  0
    7.4667    2.6625    3.5406 N   0  0  0  0  0  0  0  0  0  0  0  0
    6.8075    3.2827    4.6779 C   0  0  0  0  0  0  0  0  0  0  0  0
    8.9323    2.6023    3.5738 C   0  0  0  0  0  0  0  0  0  0  0  0
    9.6481    3.5675    2.6024 C   0  0  1  0  0  0  0  0  0  0  0  0
    9.3049    5.0570    2.8170 C   0  0  0  0  0  0  0  0  0  0  0  0
   10.0087    5.6533    4.0507 C   0  0  0  0  0  0  0  0  0  0  0  0
   11.4555    5.4600    4.0581 N   0  0  0  0  0  0  0  0  0  0  0  0
   12.1993    6.3678    3.2062 C   0  0  0  0  0  0  0  0  0  0  0  0
   11.8023    4.0495    3.9100 C   0  0  0  0  0  0  0  0  0  0  0  0
   11.1801    3.3780    2.6703 C   0  0  0  0  0  0  0  0  0  0  0  0
   -0.1201    2.7079    1.8440 H   0  0  0  0  0  0  0  0  0  0  0  0
    0.5279    1.0450    1.9767 H   0  0  0  0  0  0  0  0  0  0  0  0
    0.3966    1.8381    0.3693 H   0  0  0  0  0  0  0  0  0  0  0  0
    3.0151    1.2458   -0.0899 H   0  0  0  0  0  0  0  0  0  0  0  0
    3.0868    0.4713    1.5133 H   0  0  0  0  0  0  0  0  0  0  0  0
    5.0413    2.5714    0.3961 H   0  0  0  0  0  0  0  0  0  0  0  0
    5.3572    0.8540    0.6698 H   0  0  0  0  0  0  0  0  0  0  0  0
    3.8321    1.2239    3.6577 H   0  0  0  0  0  0  0  0  0  0  0  0
    5.3290    1.0283    4.2897 H   0  0  0  0  0  0  0  0  0  0  0  0
    5.7182    3.2598    4.5696 H   0  0  0  0  0  0  0  0  0  0  0  0
    7.1127    4.3363    4.7920 H   0  0  0  0  0  0  0  0  0  0  0  0
    7.0646    2.7597    5.6175 H   0  0  0  0  0  0  0  0  0  0  0  0
    9.2353    1.5778    3.3080 H   0  0  0  0  0  0  0  0  0  0  0  0
    9.2415    2.7790    4.6154 H   0  0  0  0  0  0  0  0  0  0  0  0
    9.3099    3.2721    1.5977 H   0  0  0  0  0  0  0  0  0  0  0  0
    8.2132    5.1968    2.8922 H   0  0  0  0  0  0  0  0  0  0  0  0
    9.6154    5.6187    1.9189 H   0  0  0  0  0  0  0  0  0  0  0  0
    9.6009    5.1922    4.9706 H   0  0  0  0  0  0  0  0  0  0  0  0
    9.7942    6.7321    4.1291 H   0  0  0  0  0  0  0  0  0  0  0  0
   11.9579    7.4094    3.4751 H   0  0  0  0  0  0  0  0  0  0  0  0
   12.0178    6.2607    2.1133 H   0  0  0  0  0  0  0  0  0  0  0  0
   13.2803    6.2276    3.3711 H   0  0  0  0  0  0  0  0  0  0  0  0
   11.4723    3.5207    4.8239 H   0  0  0  0  0  0  0  0  0  0  0  0
   12.9005    3.9550    3.8838 H   0  0  0  0  0  0  0  0  0  0  0  0
   11.4367    2.3043    2.6557 H   0  0  0  0  0  0  0  0  0  0  0  0
   11.6293    3.8108    1.7599 H   0  0  0  0  0  0  0  0  0  0  0  0
  1  2  1  0
  1 20  1  0
  1 21  1  0
  1 22  1  0
  2  3  1  0
  3  4  1  0
  3 23  1  0
  3 24  1  0
  4  5  1  0
  4 25  1  0
  4 26  1  0
  5  6  1  1
  5  7  1  0
  5  8  1  0
  7 27  1  0
  7 28  1  0
  8  9  2  0
  8 10  1  0
 10 11  1  0
 10 12  1  0
 11 29  1  0
 11 30  1  0
 11 31  1  0
 12 13  1  0
 12 32  1  0
 12 33  1  0
 13 14  1  0
 13 19  1  0
 13 34  1  6
 14 15  1  0
 14 35  1  0
 14 36  1  0
 15 16  1  0
 15 37  1  0
 15 38  1  0
 16 17  1  0
 16 18  1  0
 17 39  1  0
 17 40  1  0
 17 41  1  0
 18 19  1  0
 18 42  1  0
 18 43  1  0
 19 44  1  0
 19 45  1  0
M  END

