
     RDKit          3D

 66 69  0  0  0  0  0  0  0  0999 V2000
   -2.2796    3.0707   -4.3711 C   0  0  0  0  0  0  0  0  0  0  0  0
   -1.6010    2.4905   -3.2124 N   0  0  0  0  0  0  0  0  0  0  0  0
   -0.6273    1.5065   -3.4638 C   0  0  0  0  0  0  0  0  0  0  0  0
   -0.1430    1.3653   -4.5711 O   0  0  0  0  0  0  0  0  0  0  0  0
   -0.2920    0.5575   -2.3476 C   0  0  0  0  0  0  0  0  0  0  0  0
   -1.3400   -0.0815   -1.6673 C   0  0  0  0  0  0  0  0  0  0  0  0
   -1.0811   -1.0738   -0.7224 C   0  0  0  0  0  0  0  0  0  0  0  0
    0.2400   -1.4206   -0.4407 C   0  0  0  0  0  0  0  0  0  0  0  0
    1.2889   -0.7785   -1.1047 C   0  0  0  0  0  0  0  0  0  0  0  0
    1.0481    0.2075   -2.0674 C   0  0  0  0  0  0  0  0  0  0  0  0
    2.2036    0.8853   -2.7890 C   0  0  0  0  0  0  0  0  0  0  0  0
    3.4247    0.9668   -1.9987 N   0  0  0  0  0  0  0  0  0  0  0  0
    3.6258    1.8742   -0.9397 C   0  0  0  0  0  0  0  0  0  0  0  0
    2.8184    2.6911   -0.5302 O   0  0  0  0  0  0  0  0  0  0  0  0
    4.8855    1.6649   -0.4756 N   0  0  0  0  0  0  0  0  0  0  0  0
    5.6137    0.6573   -1.2205 C   0  0  2  0  0  0  0  0  0  0  0  0
    6.9102    1.1608   -1.8885 C   0  0  0  0  0  0  0  0  0  0  0  0
    7.9456    1.6223   -0.8857 C   0  0  0  0  0  0  0  0  0  0  0  0
    8.8018    0.6744   -0.2681 C   0  0  0  0  0  0  0  0  0  0  0  0
    9.7357    1.0440    0.6941 C   0  0  0  0  0  0  0  0  0  0  0  0
    9.8124    2.3985    1.0454 C   0  0  0  0  0  0  0  0  0  0  0  0
   10.6193    3.0503    1.9487 N   0  0  0  0  0  0  0  0  0  0  0  0
   11.3160    2.6130    2.5359 H   0  0  0  0  0  0  0  0  0  0  0  0
   10.3168    4.3983    1.9369 C   0  0  0  0  0  0  0  0  0  0  0  0
    9.3135    4.6574    1.0291 C   0  0  0  0  0  0  0  0  0  0  0  0
    8.7203    5.9988    0.7071 C   0  0  0  0  0  0  0  0  0  0  0  0
    9.1978    6.6007   -0.6245 C   0  0  0  0  0  0  0  0  0  0  0  0
    8.6210    7.9258   -0.8202 N   0  0  0  0  0  0  0  0  0  0  0  0
    8.9735    3.3809    0.4422 C   0  0  0  0  0  0  0  0  0  0  0  0
    8.0379    2.9698   -0.5275 C   0  0  0  0  0  0  0  0  0  0  0  0
    4.5641    0.2123   -2.2464 C   0  0  0  0  0  0  0  0  0  0  0  0
    4.7016   -0.6173   -3.1121 O   0  0  0  0  0  0  0  0  0  0  0  0
   -1.8246    3.0478   -1.9485 C   0  0  0  0  0  0  0  0  0  0  0  0
   -2.9776    3.6883   -1.6394 C   0  0  0  0  0  0  0  0  0  0  0  0
   -3.1761    4.5132   -0.4150 C   0  0  0  0  0  0  0  0  0  0  0  0
   -2.3345    5.1845    0.1174 O   0  0  0  0  0  0  0  0  0  0  0  0
   -4.4512    4.5115    0.0555 O   0  0  0  0  0  0  0  0  0  0  0  0
   -0.6666    2.9998   -0.9544 C   0  0  0  0  0  0  0  0  0  0  0  0
   -0.7801    2.6236    0.1808 O   0  0  0  0  0  0  0  0  0  0  0  0
    0.4570    3.4033   -1.5433 O   0  0  0  0  0  0  0  0  0  0  0  0
   -1.7555    2.7340   -5.2722 H   0  0  0  0  0  0  0  0  0  0  0  0
   -2.2497    4.1688   -4.3149 H   0  0  0  0  0  0  0  0  0  0  0  0
   -3.3322    2.7454   -4.4238 H   0  0  0  0  0  0  0  0  0  0  0  0
   -2.3714    0.2004   -1.8891 H   0  0  0  0  0  0  0  0  0  0  0  0
   -1.9072   -1.5660   -0.2044 H   0  0  0  0  0  0  0  0  0  0  0  0
    0.4607   -2.1904    0.3028 H   0  0  0  0  0  0  0  0  0  0  0  0
    2.3180   -1.0540   -0.8651 H   0  0  0  0  0  0  0  0  0  0  0  0
    1.9203    1.8967   -3.1058 H   0  0  0  0  0  0  0  0  0  0  0  0
    2.4638    0.3206   -3.6970 H   0  0  0  0  0  0  0  0  0  0  0  0
    5.2795    2.2315    0.2661 H   0  0  0  0  0  0  0  0  0  0  0  0
    5.8564   -0.2117   -0.5819 H   0  0  0  0  0  0  0  0  0  0  0  0
    6.6516    1.9801   -2.5783 H   0  0  0  0  0  0  0  0  0  0  0  0
    7.2947    0.3302   -2.5011 H   0  0  0  0  0  0  0  0  0  0  0  0
    8.7318   -0.3764   -0.5641 H   0  0  0  0  0  0  0  0  0  0  0  0
   10.3902    0.2990    1.1535 H   0  0  0  0  0  0  0  0  0  0  0  0
   10.8430    5.0900    2.5932 H   0  0  0  0  0  0  0  0  0  0  0  0
    8.9534    6.7210    1.5056 H   0  0  0  0  0  0  0  0  0  0  0  0
    7.6170    5.9199    0.6814 H   0  0  0  0  0  0  0  0  0  0  0  0
    8.9855    5.8794   -1.4438 H   0  0  0  0  0  0  0  0  0  0  0  0
   10.2960    6.7022   -0.5891 H   0  0  0  0  0  0  0  0  0  0  0  0
    7.6121    7.8564   -0.9632 H   0  0  0  0  0  0  0  0  0  0  0  0
    8.9958    8.3596   -1.6636 H   0  0  0  0  0  0  0  0  0  0  0  0
    7.3911    3.7072   -1.0119 H   0  0  0  0  0  0  0  0  0  0  0  0
   -3.8092    3.6620   -2.3490 H   0  0  0  0  0  0  0  0  0  0  0  0
   -4.9779    3.8494   -0.4137 H   0  0  0  0  0  0  0  0  0  0  0  0
    1.2542    3.2114   -0.9809 H   0  0  0  0  0  0  0  0  0  0  0  0
  1  2  1  0
  1 41  1  0
  1 42  1  0
  1 43  1  0
  2  3  1  0
  2 33  1  0
  3  4  2  0
  3  5  1  0
  5  6  2  0
  5 10  1  0
  6  7  1  0
  6 44  1  0
  7  8  2  0
  7 45  1  0
  8  9  1  0
  8 46  1  0
  9 10  2  0
  9 47  1  0
 10 11  1  0
 11 12  1  0
 11 48  1  0
 11 49  1  0
 12 13  1  0
 12 31  1  0
 13 14  2  0
 13 15  1  0
 15 16  1  0
 15 50  1  0
 16 17  1  0
 16 31  1  0
 16 51  1  1
 17 18  1  0
 17 52  1  0
 17 53  1  0
 18 19  2  0
 18 30  1  0
 19 20  1  0
 19 54  1  0
 20 21  2  0
 20 55  1  0
 21 22  1  0
 21 29  1  0
 22 23  1  0
 22 24  1  0
 24 25  2  0
 24 56  1  0
 25 26  1  0
 25 29  1  0
 26 27  1  0
 26 57  1  0
 26 58  1  0
 27 28  1  0
 27 59  1  0
 27 60  1  0
 28 61  1  0
 28 62  1  0
 29 30  2  0
 30 63  1  0
 31 32  2  0
 33 34  2  0
 33 38  1  0
 34 35  1  0
 34 64  1  0
 35 36  2  0
 35 37  1  0
 37 65  1  0
 38 39  2  0
 38 40  1  0
 40 66  1  0
M  END

