
     RDKit          3D

 38 39  0  0  0  0  0  0  0  0999 V2000
    2.8687    1.0060    3.4983 C   0  0  0  0  0  0  0  0  0  0  0  0
    3.7282    0.8135    2.3930 O   0  0  0  0  0  0  0  0  0  0  0  0
    3.6187    1.6234    1.2919 C   0  0  0  0  0  0  0  0  0  0  0  0
    2.7111    2.6843    1.2098 C   0  0  0  0  0  0  0  0  0  0  0  0
    2.6325    3.5034    0.0702 C   0  0  0  0  0  0  0  0  0  0  0  0
    1.6477    4.6402   -0.0005 C   0  0  0  0  0  0  0  0  0  0  0  0
    3.5111    3.2172   -0.9833 C   0  0  0  0  0  0  0  0  0  0  0  0
    3.4834    4.1987   -2.4384 Cl  0  0  0  0  0  0  0  0  0  0  0  0
    4.4248    2.1621   -0.9046 C   0  0  0  0  0  0  0  0  0  0  0  0
    4.4962    1.3408    0.2214 C   0  0  0  0  0  0  0  0  0  0  0  0
    5.4876    0.1878    0.2783 C   0  0  1  0  0  0  0  0  0  0  0  0
    6.2567    0.2088    1.4732 O   0  0  0  0  0  0  0  0  0  0  0  0
    4.8426   -1.2089    0.0723 C   0  0  1  0  0  0  0  0  0  0  0  0
    4.1074   -1.3247   -1.2637 C   0  0  0  0  0  0  0  0  0  0  0  0
    5.9235   -2.1863    0.1622 N   0  0  0  0  0  0  0  0  0  0  0  0
    5.5428   -3.5584    0.3255 C   0  0  1  0  0  0  0  0  0  0  0  0
    6.3486   -4.4464    1.2255 C   0  0  0  0  0  0  0  0  0  0  0  0
    4.9304   -4.0891    1.6134 C   0  0  0  0  0  0  0  0  0  0  0  0
    3.1311    0.2354    4.2351 H   0  0  0  0  0  0  0  0  0  0  0  0
    1.8096    0.8837    3.2129 H   0  0  0  0  0  0  0  0  0  0  0  0
    3.0063    2.0019    3.9546 H   0  0  0  0  0  0  0  0  0  0  0  0
    2.0393    2.8988    2.0410 H   0  0  0  0  0  0  0  0  0  0  0  0
    1.0469    4.7049    0.9179 H   0  0  0  0  0  0  0  0  0  0  0  0
    0.9636    4.5201   -0.8563 H   0  0  0  0  0  0  0  0  0  0  0  0
    2.1631    5.6032   -0.1477 H   0  0  0  0  0  0  0  0  0  0  0  0
    5.0957    1.9806   -1.7463 H   0  0  0  0  0  0  0  0  0  0  0  0
    6.2154    0.3202   -0.5388 H   0  0  0  0  0  0  0  0  0  0  0  0
    5.6193    0.2517    2.2032 H   0  0  0  0  0  0  0  0  0  0  0  0
    4.0997   -1.3494    0.8893 H   0  0  0  0  0  0  0  0  0  0  0  0
    4.8016   -1.1543   -2.1031 H   0  0  0  0  0  0  0  0  0  0  0  0
    3.2795   -0.6036   -1.3344 H   0  0  0  0  0  0  0  0  0  0  0  0
    3.6788   -2.3312   -1.3850 H   0  0  0  0  0  0  0  0  0  0  0  0
    6.5593   -1.8907    0.9014 H   0  0  0  0  0  0  0  0  0  0  0  0
    5.1754   -4.0289   -0.5948 H   0  0  0  0  0  0  0  0  0  0  0  0
    7.1629   -3.9829    1.7929 H   0  0  0  0  0  0  0  0  0  0  0  0
    6.5662   -5.4669    0.8976 H   0  0  0  0  0  0  0  0  0  0  0  0
    4.7994   -3.3799    2.4369 H   0  0  0  0  0  0  0  0  0  0  0  0
    4.1598   -4.8646    1.5584 H   0  0  0  0  0  0  0  0  0  0  0  0
  1  2  1  0
  1 19  1  0
  1 20  1  0
  1 21  1  0
  2  3  1  0
  3  4  2  0
  3 10  1  0
  4  5  1  0
  4 22  1  0
  5  6  1  0
  5  7  2  0
  6 23  1  0
  6 24  1  0
  6 25  1  0
  7  8  1  0
  7  9  1  0
  9 10  2  0
  9 26  1  0
 10 11  1  0
 11 12  1  0
 11 13  1  0
 11 27  1  6
 12 28  1  0
 13 14  1  0
 13 15  1  0
 13 29  1  1
 14 30  1  0
 14 31  1  0
 14 32  1  0
 15 16  1  0
 15 33  1  0
 16 17  1  0
 16 18  1  0
 16 34  1  6
 17 18  1  0
 17 35  1  0
 17 36  1  0
 18 37  1  0
 18 38  1  0
M  END

