
     RDKit          3D

 39 40  0  0  0  0  0  0  0  0999 V2000
    3.2753    0.4244    0.8786 C   0  0  0  0  0  0  0  0  0  0  0  0
    3.2000   -1.0406    0.4373 C   0  0  1  0  0  0  0  0  0  0  0  0
    4.0155   -1.9617    1.3505 C   0  0  0  0  0  0  0  0  0  0  0  0
    1.7429   -1.5019    0.3615 C   0  0  0  0  0  0  0  0  0  0  0  0
    3.6622   -1.1742   -0.9527 O   0  0  0  0  0  0  0  0  0  0  0  0
    4.9084   -0.7706   -1.3275 C   0  0  0  0  0  0  0  0  0  0  0  0
    5.7890   -0.4401   -0.5553 O   0  0  0  0  0  0  0  0  0  0  0  0
    5.0520   -0.8076   -2.6858 N   0  0  0  0  0  0  0  0  0  0  0  0
    3.9497   -1.0910   -3.6086 C   0  0  0  0  0  0  0  0  0  0  0  0
    3.7875   -2.5484   -3.9240 C   0  0  0  0  0  0  0  0  0  0  0  0
    4.0489   -3.1274   -5.0790 N   0  0  0  0  0  0  0  0  0  0  0  0
    3.7842   -4.4621   -4.8959 C   0  0  0  0  0  0  0  0  0  0  0  0
    3.3598   -4.6959   -3.6055 C   0  0  0  0  0  0  0  0  0  0  0  0
    3.3636   -3.4613   -2.9978 N   0  0  0  0  0  0  0  0  0  0  0  0
    3.1428   -3.2364   -2.0337 H   0  0  0  0  0  0  0  0  0  0  0  0
    6.3832   -0.5536   -3.2468 C   0  0  0  0  0  0  0  0  0  0  0  0
    6.6195    0.8818   -3.6420 C   0  0  0  0  0  0  0  0  0  0  0  0
    6.9411    1.9394   -2.8221 C   0  0  0  0  0  0  0  0  0  0  0  0
    7.0517    3.1787   -3.5216 C   0  0  0  0  0  0  0  0  0  0  0  0
    6.8120    3.0519   -4.8676 C   0  0  0  0  0  0  0  0  0  0  0  0
    6.4518    1.4157   -5.2934 S   0  0  0  0  0  0  0  0  0  0  0  0
    2.8221    0.5331    1.8761 H   0  0  0  0  0  0  0  0  0  0  0  0
    2.7168    1.0658    0.1789 H   0  0  0  0  0  0  0  0  0  0  0  0
    4.3150    0.7713    0.9253 H   0  0  0  0  0  0  0  0  0  0  0  0
    3.5994   -1.9375    2.3699 H   0  0  0  0  0  0  0  0  0  0  0  0
    5.0659   -1.6483    1.3861 H   0  0  0  0  0  0  0  0  0  0  0  0
    3.9688   -3.0021    0.9909 H   0  0  0  0  0  0  0  0  0  0  0  0
    1.2725   -1.4371    1.3542 H   0  0  0  0  0  0  0  0  0  0  0  0
    1.6744   -2.5482    0.0233 H   0  0  0  0  0  0  0  0  0  0  0  0
    1.1690   -0.8736   -0.3362 H   0  0  0  0  0  0  0  0  0  0  0  0
    4.1454   -0.5689   -4.5548 H   0  0  0  0  0  0  0  0  0  0  0  0
    3.0237   -0.6787   -3.1857 H   0  0  0  0  0  0  0  0  0  0  0  0
    3.9102   -5.1882   -5.6981 H   0  0  0  0  0  0  0  0  0  0  0  0
    3.0627   -5.6030   -3.0852 H   0  0  0  0  0  0  0  0  0  0  0  0
    6.5162   -1.2233   -4.1102 H   0  0  0  0  0  0  0  0  0  0  0  0
    7.1201   -0.8369   -2.4842 H   0  0  0  0  0  0  0  0  0  0  0  0
    7.0845    1.8164   -1.7474 H   0  0  0  0  0  0  0  0  0  0  0  0
    7.3066    4.1274   -3.0461 H   0  0  0  0  0  0  0  0  0  0  0  0
    6.8386    3.8254   -5.6339 H   0  0  0  0  0  0  0  0  0  0  0  0
  1  2  1  0
  1 22  1  0
  1 23  1  0
  1 24  1  0
  2  3  1  0
  2  4  1  0
  2  5  1  6
  3 25  1  0
  3 26  1  0
  3 27  1  0
  4 28  1  0
  4 29  1  0
  4 30  1  0
  5  6  1  0
  6  7  2  0
  6  8  1  0
  8  9  1  0
  8 16  1  0
  9 10  1  0
  9 31  1  0
  9 32  1  0
 10 11  2  0
 10 14  1  0
 11 12  1  0
 12 13  2  0
 12 33  1  0
 13 14  1  0
 13 34  1  0
 14 15  1  0
 16 17  1  0
 16 35  1  0
 16 36  1  0
 17 18  2  0
 17 21  1  0
 18 19  1  0
 18 37  1  0
 19 20  2  0
 19 38  1  0
 20 21  1  0
 20 39  1  0
M  END

