
     RDKit          3D

 37 38  0  0  0  0  0  0  0  0999 V2000
    0.7768    0.3804    0.6802 C   0  0  0  0  0  0  0  0  0  0  0  0
    1.3337    1.0910    1.9212 C   0  0  1  0  0  0  0  0  0  0  0  0
    1.8298    0.1509    2.8533 O   0  0  0  0  0  0  0  0  0  0  0  0
    2.3519    2.1755    1.5618 C   0  0  0  0  0  0  0  0  0  0  0  0
    1.9865    3.2450    0.7283 C   0  0  0  0  0  0  0  0  0  0  0  0
    2.9243    4.2269    0.4064 C   0  0  0  0  0  0  0  0  0  0  0  0
    4.2273    4.1515    0.8976 C   0  0  0  0  0  0  0  0  0  0  0  0
    4.6043    3.0892    1.7380 C   0  0  0  0  0  0  0  0  0  0  0  0
    5.9297    3.0773    2.2111 N   0  0  0  0  0  0  0  0  0  0  0  0
    6.5753    2.0892    2.9394 C   0  0  0  0  0  0  0  0  0  0  0  0
    6.0269    1.0635    3.3234 O   0  0  0  0  0  0  0  0  0  0  0  0
    7.9052    2.3568    3.2155 N   0  0  0  0  0  0  0  0  0  0  0  0
    8.6617    3.4410    2.6114 C   0  0  0  0  0  0  0  0  0  0  0  0
    8.6206    1.3795    4.0356 C   0  0  0  0  0  0  0  0  0  0  0  0
    9.3900    0.3638    3.2271 C   0  0  0  0  0  0  0  0  0  0  0  0
    8.9170   -0.8673    2.8421 C   0  0  0  0  0  0  0  0  0  0  0  0
   10.1007   -1.6856    1.8859 S   0  0  0  0  0  0  0  0  0  0  0  0
   11.1493   -0.3055    2.0673 C   0  0  0  0  0  0  0  0  0  0  0  0
   10.6564    0.6661    2.7759 N   0  0  0  0  0  0  0  0  0  0  0  0
    3.6519    2.1100    2.0745 C   0  0  0  0  0  0  0  0  0  0  0  0
    0.0438   -0.3811    0.9874 H   0  0  0  0  0  0  0  0  0  0  0  0
    1.5906   -0.1199    0.1276 H   0  0  0  0  0  0  0  0  0  0  0  0
    0.2858    1.0791   -0.0137 H   0  0  0  0  0  0  0  0  0  0  0  0
    0.4948    1.5836    2.4444 H   0  0  0  0  0  0  0  0  0  0  0  0
    2.5443   -0.3457    2.4300 H   0  0  0  0  0  0  0  0  0  0  0  0
    0.9686    3.3197    0.3370 H   0  0  0  0  0  0  0  0  0  0  0  0
    2.6412    5.0631   -0.2384 H   0  0  0  0  0  0  0  0  0  0  0  0
    4.9575    4.9219    0.6307 H   0  0  0  0  0  0  0  0  0  0  0  0
    6.4606    3.9069    1.9831 H   0  0  0  0  0  0  0  0  0  0  0  0
    8.4534    4.4219    3.0813 H   0  0  0  0  0  0  0  0  0  0  0  0
    8.4679    3.5212    1.5281 H   0  0  0  0  0  0  0  0  0  0  0  0
    9.7335    3.2295    2.7215 H   0  0  0  0  0  0  0  0  0  0  0  0
    7.8786    0.8716    4.6612 H   0  0  0  0  0  0  0  0  0  0  0  0
    9.3245    1.9183    4.6888 H   0  0  0  0  0  0  0  0  0  0  0  0
    7.9419   -1.2998    3.0579 H   0  0  0  0  0  0  0  0  0  0  0  0
   12.1419   -0.2958    1.6109 H   0  0  0  0  0  0  0  0  0  0  0  0
    3.9375    1.3128    2.7538 H   0  0  0  0  0  0  0  0  0  0  0  0
  1  2  1  0
  1 21  1  0
  1 22  1  0
  1 23  1  0
  2  3  1  0
  2  4  1  0
  2 24  1  1
  3 25  1  0
  4  5  2  0
  4 20  1  0
  5  6  1  0
  5 26  1  0
  6  7  2  0
  6 27  1  0
  7  8  1  0
  7 28  1  0
  8  9  1  0
  8 20  2  0
  9 10  1  0
  9 29  1  0
 10 11  2  0
 10 12  1  0
 12 13  1  0
 12 14  1  0
 13 30  1  0
 13 31  1  0
 13 32  1  0
 14 15  1  0
 14 33  1  0
 14 34  1  0
 15 16  2  0
 15 19  1  0
 16 17  1  0
 16 35  1  0
 17 18  1  0
 18 19  2  0
 18 36  1  0
 20 37  1  0
M  END

