
     RDKit          3D

 40 42  0  0  0  0  0  0  0  0999 V2000
    0.8014   -0.1639    0.3735 C   0  0  0  0  0  0  0  0  0  0  0  0
    2.2869   -0.0416    0.4685 C   0  0  0  0  0  0  0  0  0  0  0  0
    2.9416    0.8994    1.1342 N   0  0  0  0  0  0  0  0  0  0  0  0
    4.2669    0.6436    0.9458 C   0  0  0  0  0  0  0  0  0  0  0  0
    4.4432   -0.4794    0.1426 C   0  0  0  0  0  0  0  0  0  0  0  0
    5.5190   -1.3686   -0.3603 C   0  0  0  0  0  0  0  0  0  0  0  0
    5.1945   -2.4730   -0.7981 O   0  0  0  0  0  0  0  0  0  0  0  0
    6.8343   -0.9702   -0.3211 N   0  0  0  0  0  0  0  0  0  0  0  0
    7.8740   -1.9523   -0.6141 C   0  0  0  0  0  0  0  0  0  0  0  0
    8.8550   -1.3910   -1.6346 C   0  0  0  0  0  0  0  0  0  0  0  0
    9.3739   -0.1426   -1.2106 O   0  0  0  0  0  0  0  0  0  0  0  0
    8.3559    0.8306   -1.0416 C   0  0  2  0  0  0  0  0  0  0  0  0
    9.0097    2.1387   -0.6289 C   0  0  0  0  0  0  0  0  0  0  0  0
   10.1374    2.0835    0.2026 C   0  0  0  0  0  0  0  0  0  0  0  0
   10.7643    3.2459    0.6550 C   0  0  0  0  0  0  0  0  0  0  0  0
   10.2704    4.4959    0.2799 C   0  0  0  0  0  0  0  0  0  0  0  0
    9.1543    4.5722   -0.5538 C   0  0  0  0  0  0  0  0  0  0  0  0
    8.5222    3.4082   -1.0107 C   0  0  0  0  0  0  0  0  0  0  0  0
    7.3377    3.5542   -1.9417 C   0  0  1  0  0  0  0  0  0  0  0  0
    7.5825    3.0181   -3.1555 F   0  0  0  0  0  0  0  0  0  0  0  0
    6.2356    2.9328   -1.4639 F   0  0  0  0  0  0  0  0  0  0  0  0
    7.0018    4.8365   -2.1427 F   0  0  0  0  0  0  0  0  0  0  0  0
    7.3275    0.3555    0.0137 C   0  0  0  0  0  0  0  0  0  0  0  0
    3.1544   -0.8913   -0.1381 N   0  0  0  0  0  0  0  0  0  0  0  0
    2.9683   -1.7384   -0.6667 H   0  0  0  0  0  0  0  0  0  0  0  0
    0.3454    0.5964    1.0201 H   0  0  0  0  0  0  0  0  0  0  0  0
    0.4519   -1.1585    0.6966 H   0  0  0  0  0  0  0  0  0  0  0  0
    0.4447   -0.0032   -0.6579 H   0  0  0  0  0  0  0  0  0  0  0  0
    5.0240    1.2663    1.4172 H   0  0  0  0  0  0  0  0  0  0  0  0
    7.3867   -2.8625   -0.9848 H   0  0  0  0  0  0  0  0  0  0  0  0
    8.4192   -2.1952    0.3182 H   0  0  0  0  0  0  0  0  0  0  0  0
    8.3536   -1.2804   -2.6170 H   0  0  0  0  0  0  0  0  0  0  0  0
    9.7147   -2.0665   -1.7578 H   0  0  0  0  0  0  0  0  0  0  0  0
    7.8189    0.9513   -1.9990 H   0  0  0  0  0  0  0  0  0  0  0  0
   10.5299    1.1036    0.4764 H   0  0  0  0  0  0  0  0  0  0  0  0
   11.6432    3.1721    1.3004 H   0  0  0  0  0  0  0  0  0  0  0  0
   10.7533    5.4119    0.6279 H   0  0  0  0  0  0  0  0  0  0  0  0
    8.7674    5.5442   -0.8607 H   0  0  0  0  0  0  0  0  0  0  0  0
    6.5002    1.0684    0.0328 H   0  0  0  0  0  0  0  0  0  0  0  0
    7.8164    0.3506    1.0064 H   0  0  0  0  0  0  0  0  0  0  0  0
  1  2  1  0
  1 26  1  0
  1 27  1  0
  1 28  1  0
  2  3  2  0
  2 24  1  0
  3  4  1  0
  4  5  2  0
  4 29  1  0
  5  6  1  0
  5 24  1  0
  6  7  2  0
  6  8  1  0
  8  9  1  0
  8 23  1  0
  9 10  1  0
  9 30  1  0
  9 31  1  0
 10 11  1  0
 10 32  1  0
 10 33  1  0
 11 12  1  0
 12 13  1  0
 12 23  1  0
 12 34  1  6
 13 14  2  0
 13 18  1  0
 14 15  1  0
 14 35  1  0
 15 16  2  0
 15 36  1  0
 16 17  1  0
 16 37  1  0
 17 18  2  0
 17 38  1  0
 18 19  1  0
 19 20  1  6
 19 21  1  0
 19 22  1  0
 23 39  1  0
 23 40  1  0
 24 25  1  0
M  END

