
     RDKit          3D

 51 53  0  0  0  0  0  0  0  0999 V2000
    0.7540    0.6526   -0.7511 O   0  0  0  0  0  0  0  0  0  0  0  0
    1.7075    1.2575   -0.2828 C   0  0  0  0  0  0  0  0  0  0  0  0
    1.6049    1.8751    0.9817 N   0  0  0  0  0  0  0  0  0  0  0  0
    2.5769    1.5866    2.0488 C   0  0  0  0  0  0  0  0  0  0  0  0
    2.2057    2.3247    3.3129 C   0  0  0  0  0  0  0  0  0  0  0  0
    1.6898    1.6620    4.4328 C   0  0  0  0  0  0  0  0  0  0  0  0
    1.5494    0.3277    4.3826 F   0  0  0  0  0  0  0  0  0  0  0  0
    1.3126    2.3246    5.5994 C   0  0  0  0  0  0  0  0  0  0  0  0
    1.4487    3.7119    5.6570 C   0  0  0  0  0  0  0  0  0  0  0  0
    1.9612    4.4203    4.5663 C   0  0  0  0  0  0  0  0  0  0  0  0
    2.3270    3.7225    3.4134 C   0  0  0  0  0  0  0  0  0  0  0  0
    2.8851    4.3935    2.3363 O   0  0  0  0  0  0  0  0  0  0  0  0
    2.0579    5.1940    1.5902 C   0  0  1  0  0  0  0  0  0  0  0  0
    1.8506    6.3824    2.2113 F   0  0  0  0  0  0  0  0  0  0  0  0
    2.7015    5.4504    0.4399 F   0  0  0  0  0  0  0  0  0  0  0  0
    2.9154    1.3789   -0.9352 N   0  0  0  0  0  0  0  0  0  0  0  0
    3.0984    0.6372   -2.1840 C   0  0  0  0  0  0  0  0  0  0  0  0
    3.0635    1.5813   -3.3963 C   0  0  0  0  0  0  0  0  0  0  0  0
    4.0038    2.6957   -3.2837 N   0  0  0  0  0  0  0  0  0  0  0  0
    5.3868    2.3941   -3.6396 C   0  0  0  0  0  0  0  0  0  0  0  0
    5.6185    2.3476   -5.1514 C   0  0  1  0  0  0  0  0  0  0  0  0
    5.3465    3.6581   -5.9034 C   0  0  0  0  0  0  0  0  0  0  0  0
    6.1455    3.4488   -7.1899 C   0  0  0  0  0  0  0  0  0  0  0  0
    7.2735    2.6573   -6.8278 O   0  0  0  0  0  0  0  0  0  0  0  0
    7.0788    2.0713   -5.5488 C   0  0  0  0  0  0  0  0  0  0  0  0
    3.8031    3.4032   -2.0261 C   0  0  0  0  0  0  0  0  0  0  0  0
    3.8432    2.5003   -0.7777 C   0  0  0  0  0  0  0  0  0  0  0  0
    0.6536    1.7066    1.3031 H   0  0  0  0  0  0  0  0  0  0  0  0
    3.5760    1.9122    1.7310 H   0  0  0  0  0  0  0  0  0  0  0  0
    2.6360    0.5068    2.2642 H   0  0  0  0  0  0  0  0  0  0  0  0
    0.9205    1.7447    6.4364 H   0  0  0  0  0  0  0  0  0  0  0  0
    1.1601    4.2476    6.5641 H   0  0  0  0  0  0  0  0  0  0  0  0
    2.0900    5.5021    4.5988 H   0  0  0  0  0  0  0  0  0  0  0  0
    1.0818    4.7245    1.3836 H   0  0  0  0  0  0  0  0  0  0  0  0
    2.3012   -0.1126   -2.2560 H   0  0  0  0  0  0  0  0  0  0  0  0
    4.0703    0.1123   -2.1360 H   0  0  0  0  0  0  0  0  0  0  0  0
    2.0420    1.9911   -3.4874 H   0  0  0  0  0  0  0  0  0  0  0  0
    3.2653    1.0148   -4.3188 H   0  0  0  0  0  0  0  0  0  0  0  0
    5.7602    1.4464   -3.1900 H   0  0  0  0  0  0  0  0  0  0  0  0
    6.0217    3.1939   -3.2219 H   0  0  0  0  0  0  0  0  0  0  0  0
    4.9865    1.5562   -5.5927 H   0  0  0  0  0  0  0  0  0  0  0  0
    5.7513    4.5096   -5.3288 H   0  0  0  0  0  0  0  0  0  0  0  0
    4.2776    3.8481   -6.0734 H   0  0  0  0  0  0  0  0  0  0  0  0
    6.4990    4.3899   -7.6435 H   0  0  0  0  0  0  0  0  0  0  0  0
    5.5391    2.9180   -7.9512 H   0  0  0  0  0  0  0  0  0  0  0  0
    7.7767    2.5280   -4.8164 H   0  0  0  0  0  0  0  0  0  0  0  0
    7.3120    0.9930   -5.5975 H   0  0  0  0  0  0  0  0  0  0  0  0
    2.8131    3.8932   -2.0545 H   0  0  0  0  0  0  0  0  0  0  0  0
    4.5536    4.2035   -1.9274 H   0  0  0  0  0  0  0  0  0  0  0  0
    3.5752    3.0977    0.0985 H   0  0  0  0  0  0  0  0  0  0  0  0
    4.8656    2.1073   -0.6214 H   0  0  0  0  0  0  0  0  0  0  0  0
  1  2  2  0
  2  3  1  0
  2 16  1  0
  3  4  1  0
  3 28  1  0
  4  5  1  0
  4 29  1  0
  4 30  1  0
  5  6  2  0
  5 11  1  0
  6  7  1  0
  6  8  1  0
  8  9  2  0
  8 31  1  0
  9 10  1  0
  9 32  1  0
 10 11  2  0
 10 33  1  0
 11 12  1  0
 12 13  1  0
 13 14  1  0
 13 15  1  0
 13 34  1  6
 16 17  1  0
 16 27  1  0
 17 18  1  0
 17 35  1  0
 17 36  1  0
 18 19  1  0
 18 37  1  0
 18 38  1  0
 19 20  1  0
 19 26  1  0
 20 21  1  0
 20 39  1  0
 20 40  1  0
 21 22  1  0
 21 25  1  0
 21 41  1  6
 22 23  1  0
 22 42  1  0
 22 43  1  0
 23 24  1  0
 23 44  1  0
 23 45  1  0
 24 25  1  0
 25 46  1  0
 25 47  1  0
 26 27  1  0
 26 48  1  0
 26 49  1  0
 27 50  1  0
 27 51  1  0
M  END

