
     RDKit          3D

 51 52  0  0  0  0  0  0  0  0999 V2000
    8.4006    0.0817   -1.7377 C   0  0  0  0  0  0  0  0  0  0  0  0
    7.2179    0.5990   -0.9169 C   0  0  0  0  0  0  0  0  0  0  0  0
    7.4665    0.4797    0.5861 C   0  0  0  0  0  0  0  0  0  0  0  0
    6.0647    1.1233    1.5320 S   0  0  1  0  0  0  0  0  0  0  0  0
    6.0469    2.5877    1.4611 O   0  0  0  0  0  0  0  0  0  0  0  0
    4.8818    0.3399    1.1512 O   0  0  0  0  0  0  0  0  0  0  0  0
    6.5162    0.7716    3.1235 N   0  0  0  0  0  0  0  0  0  0  0  0
    6.2179   -0.5495    3.6661 C   0  0  0  0  0  0  0  0  0  0  0  0
    7.4567   -1.1860    4.3234 C   0  0  1  0  0  0  0  0  0  0  0  0
    7.7009   -0.7692    5.7870 C   0  0  0  0  0  0  0  0  0  0  0  0
    8.2909   -2.0215    6.4470 C   0  0  0  0  0  0  0  0  0  0  0  0
    7.5338   -3.1631    5.7581 C   0  0  0  0  0  0  0  0  0  0  0  0
    7.3535   -2.6593    4.3883 N   0  0  0  0  0  0  0  0  0  0  0  0
    7.4208   -3.3774    3.2321 C   0  0  0  0  0  0  0  0  0  0  0  0
    7.5285   -2.8250    2.1364 O   0  0  0  0  0  0  0  0  0  0  0  0
    7.2927   -4.9146    3.2752 C   0  0  1  0  0  0  0  0  0  0  0  0
    6.2250   -5.3658    2.3873 N   0  0  0  0  0  0  0  0  0  0  0  0
    8.6206   -5.5699    2.8296 C   0  0  0  0  0  0  0  0  0  0  0  0
    9.8015   -5.2848    3.7304 C   0  0  0  0  0  0  0  0  0  0  0  0
   10.1020   -6.1306    4.8117 C   0  0  0  0  0  0  0  0  0  0  0  0
   11.1745   -5.8564    5.6656 C   0  0  0  0  0  0  0  0  0  0  0  0
   11.9704   -4.7266    5.4519 C   0  0  0  0  0  0  0  0  0  0  0  0
   11.6865   -3.8778    4.3772 C   0  0  0  0  0  0  0  0  0  0  0  0
   10.6124   -4.1552    3.5257 C   0  0  0  0  0  0  0  0  0  0  0  0
    8.1971    0.1704   -2.8163 H   0  0  0  0  0  0  0  0  0  0  0  0
    8.6058   -0.9795   -1.5211 H   0  0  0  0  0  0  0  0  0  0  0  0
    9.3209    0.6504   -1.5241 H   0  0  0  0  0  0  0  0  0  0  0  0
    6.3038    0.0370   -1.1662 H   0  0  0  0  0  0  0  0  0  0  0  0
    7.0164    1.6550   -1.1624 H   0  0  0  0  0  0  0  0  0  0  0  0
    8.3329    1.0701    0.9203 H   0  0  0  0  0  0  0  0  0  0  0  0
    7.5948   -0.5669    0.9089 H   0  0  0  0  0  0  0  0  0  0  0  0
    6.3170    1.5861    3.7010 H   0  0  0  0  0  0  0  0  0  0  0  0
    5.8924   -1.1830    2.8315 H   0  0  0  0  0  0  0  0  0  0  0  0
    5.3774   -0.5103    4.3817 H   0  0  0  0  0  0  0  0  0  0  0  0
    8.3203   -0.9294    3.6877 H   0  0  0  0  0  0  0  0  0  0  0  0
    6.7401   -0.5117    6.2659 H   0  0  0  0  0  0  0  0  0  0  0  0
    8.3527    0.1133    5.8641 H   0  0  0  0  0  0  0  0  0  0  0  0
    8.1735   -2.0356    7.5409 H   0  0  0  0  0  0  0  0  0  0  0  0
    9.3658   -2.1079    6.2205 H   0  0  0  0  0  0  0  0  0  0  0  0
    6.5572   -3.3429    6.2455 H   0  0  0  0  0  0  0  0  0  0  0  0
    8.1010   -4.1018    5.7689 H   0  0  0  0  0  0  0  0  0  0  0  0
    7.0501   -5.2591    4.2916 H   0  0  0  0  0  0  0  0  0  0  0  0
    6.3539   -4.9131    1.4792 H   0  0  0  0  0  0  0  0  0  0  0  0
    5.3204   -5.0404    2.7307 H   0  0  0  0  0  0  0  0  0  0  0  0
    8.8330   -5.2144    1.8082 H   0  0  0  0  0  0  0  0  0  0  0  0
    8.4311   -6.6519    2.7669 H   0  0  0  0  0  0  0  0  0  0  0  0
    9.4916   -7.0232    4.9794 H   0  0  0  0  0  0  0  0  0  0  0  0
   11.3945   -6.5322    6.4964 H   0  0  0  0  0  0  0  0  0  0  0  0
   12.8134   -4.5137    6.1143 H   0  0  0  0  0  0  0  0  0  0  0  0
   12.3101   -2.9984    4.1950 H   0  0  0  0  0  0  0  0  0  0  0  0
   10.3986   -3.4909    2.6838 H   0  0  0  0  0  0  0  0  0  0  0  0
  1  2  1  0
  1 25  1  0
  1 26  1  0
  1 27  1  0
  2  3  1  0
  2 28  1  0
  2 29  1  0
  3  4  1  0
  3 30  1  0
  3 31  1  0
  4  5  2  0
  4  6  2  0
  4  7  1  1
  7  8  1  0
  7 32  1  0
  8  9  1  0
  8 33  1  0
  8 34  1  0
  9 10  1  0
  9 13  1  0
  9 35  1  6
 10 11  1  0
 10 36  1  0
 10 37  1  0
 11 12  1  0
 11 38  1  0
 11 39  1  0
 12 13  1  0
 12 40  1  0
 12 41  1  0
 13 14  1  0
 14 15  2  0
 14 16  1  0
 16 17  1  0
 16 18  1  0
 16 42  1  1
 17 43  1  0
 17 44  1  0
 18 19  1  0
 18 45  1  0
 18 46  1  0
 19 20  2  0
 19 24  1  0
 20 21  1  0
 20 47  1  0
 21 22  2  0
 21 48  1  0
 22 23  1  0
 22 49  1  0
 23 24  2  0
 23 50  1  0
 24 51  1  0
M  END

