
     RDKit          3D

 24 25  0  0  0  0  0  0  0  0999 V2000
    0.9227    0.2397   -0.0843 C   0  0  0  0  0  0  0  0  0  0  0  0
    2.4174    0.1718   -0.0414 C   0  0  0  0  0  0  0  0  0  0  0  0
    3.3138    1.2023   -0.0369 C   0  0  0  0  0  0  0  0  0  0  0  0
    4.6870    0.7790    0.0119 C   0  0  0  0  0  0  0  0  0  0  0  0
    5.8589    1.5630    0.0281 C   0  0  0  0  0  0  0  0  0  0  0  0
    7.0921    0.9364    0.0755 C   0  0  0  0  0  0  0  0  0  0  0  0
    7.2053   -0.4734    0.1019 C   0  0  0  0  0  0  0  0  0  0  0  0
    8.5794   -1.0477    0.1677 C   0  0  0  0  0  0  0  0  0  0  0  0
    9.5826   -0.3677    0.2279 O   0  0  0  0  0  0  0  0  0  0  0  0
    6.0526   -1.2905    0.0851 C   0  0  0  0  0  0  0  0  0  0  0  0
    6.1252   -2.8089    0.0987 C   0  0  0  0  0  0  0  0  0  0  0  0
    6.8900   -3.3558   -0.9561 O   0  0  0  0  0  0  0  0  0  0  0  0
    4.8103   -0.6366    0.0422 C   0  0  0  0  0  0  0  0  0  0  0  0
    3.2197   -1.3939    0.0172 S   0  0  0  0  0  0  0  0  0  0  0  0
    0.5911    1.2877   -0.1146 H   0  0  0  0  0  0  0  0  0  0  0  0
    0.4698   -0.2367    0.8011 H   0  0  0  0  0  0  0  0  0  0  0  0
    0.5184   -0.2727   -0.9731 H   0  0  0  0  0  0  0  0  0  0  0  0
    3.0110    2.2507   -0.0672 H   0  0  0  0  0  0  0  0  0  0  0  0
    5.7862    2.6532    0.0034 H   0  0  0  0  0  0  0  0  0  0  0  0
    8.0201    1.5113    0.0956 H   0  0  0  0  0  0  0  0  0  0  0  0
    8.6485   -2.1578    0.1455 H   0  0  0  0  0  0  0  0  0  0  0  0
    5.0988   -3.2226    0.1072 H   0  0  0  0  0  0  0  0  0  0  0  0
    6.6048   -3.1552    1.0285 H   0  0  0  0  0  0  0  0  0  0  0  0
    6.5448   -3.0134   -1.7919 H   0  0  0  0  0  0  0  0  0  0  0  0
  1  2  1  0
  1 15  1  0
  1 16  1  0
  1 17  1  0
  2  3  2  0
  2 14  1  0
  3  4  1  0
  3 18  1  0
  4  5  2  0
  4 13  1  0
  5  6  1  0
  5 19  1  0
  6  7  2  0
  6 20  1  0
  7  8  1  0
  7 10  1  0
  8  9  2  0
  8 21  1  0
 10 11  1  0
 10 13  2  0
 11 12  1  0
 11 22  1  0
 11 23  1  0
 12 24  1  0
 13 14  1  0
M  END

