
     RDKit          3D

 24 25  0  0  0  0  0  0  0  0999 V2000
    2.9433    2.3303    0.0257 C   0  0  0  0  0  0  0  0  0  0  0  0
    3.2084    0.9091    0.0201 N   0  0  0  0  0  0  0  0  0  0  0  0
    2.3071   -0.1142   -0.0018 C   0  0  0  0  0  0  0  0  0  0  0  0
    3.0341   -1.2890    0.0011 C   0  0  0  0  0  0  0  0  0  0  0  0
    4.3906   -0.8645    0.0254 C   0  0  0  0  0  0  0  0  0  0  0  0
    5.5903   -1.7000    0.0378 C   0  0  0  0  0  0  0  0  0  0  0  0
    6.9447   -1.2705    0.0698 C   0  0  0  0  0  0  0  0  0  0  0  0
    7.6793   -2.4471    0.0699 C   0  0  0  0  0  0  0  0  0  0  0  0
    9.0541   -2.6981    0.0257 N   0  0  0  0  0  0  0  0  0  0  0  0
    6.7747   -3.4727    0.0268 N   0  0  0  0  0  0  0  0  0  0  0  0
    7.0598   -4.8875    0.0092 C   0  0  0  0  0  0  0  0  0  0  0  0
    5.4998   -3.0301    0.0286 N   0  0  0  0  0  0  0  0  0  0  0  0
    4.4745    0.4699    0.0370 N   0  0  0  0  0  0  0  0  0  0  0  0
    1.8577    2.4958    0.0091 H   0  0  0  0  0  0  0  0  0  0  0  0
    3.3945    2.8091   -0.8573 H   0  0  0  0  0  0  0  0  0  0  0  0
    3.3652    2.7967    0.9297 H   0  0  0  0  0  0  0  0  0  0  0  0
    1.2350    0.0718   -0.0178 H   0  0  0  0  0  0  0  0  0  0  0  0
    2.6666   -2.3109   -0.0125 H   0  0  0  0  0  0  0  0  0  0  0  0
    7.3138   -0.2492    0.0964 H   0  0  0  0  0  0  0  0  0  0  0  0
    9.5920   -1.8404   -0.0548 H   0  0  0  0  0  0  0  0  0  0  0  0
    9.4010   -3.2343    0.8201 H   0  0  0  0  0  0  0  0  0  0  0  0
    8.0335   -5.0525   -0.4742 H   0  0  0  0  0  0  0  0  0  0  0  0
    6.2732   -5.3937   -0.5659 H   0  0  0  0  0  0  0  0  0  0  0  0
    7.0831   -5.3195    1.0257 H   0  0  0  0  0  0  0  0  0  0  0  0
  1  2  1  0
  1 14  1  0
  1 15  1  0
  1 16  1  0
  2  3  1  0
  2 13  1  0
  3  4  2  0
  3 17  1  0
  4  5  1  0
  4 18  1  0
  5  6  1  0
  5 13  2  0
  6  7  1  0
  6 12  2  0
  7  8  2  0
  7 19  1  0
  8  9  1  0
  8 10  1  0
  9 20  1  0
  9 21  1  0
 10 11  1  0
 10 12  1  0
 11 22  1  0
 11 23  1  0
 11 24  1  0
M  END

