
     RDKit          3D

 34 37  0  0  0  0  0  0  0  0999 V2000
    3.4957   -0.8916    0.5678 N   0  0  0  0  0  0  0  0  0  0  0  0
    2.6552    0.0771   -0.1032 C   0  0  1  0  0  0  0  0  0  0  0  0
    2.7795   -0.1564   -1.5844 C   0  0  0  0  0  0  0  0  0  0  0  0
    2.9589    0.7938   -2.4683 N   0  0  0  0  0  0  0  0  0  0  0  0
    2.9634    0.1247   -3.6837 O   0  0  0  0  0  0  0  0  0  0  0  0
    2.7906   -1.1734   -3.4135 C   0  0  0  0  0  0  0  0  0  0  0  0
    2.7584   -2.1560   -4.5104 C   0  0  0  0  0  0  0  0  0  0  0  0
    2.5805   -3.5326   -4.1825 C   0  0  0  0  0  0  0  0  0  0  0  0
    2.5498   -4.4480   -5.2075 C   0  0  0  0  0  0  0  0  0  0  0  0
    2.6934   -4.0065   -6.5507 C   0  0  0  0  0  0  0  0  0  0  0  0
    2.6737   -4.8812   -7.6703 C   0  0  0  0  0  0  0  0  0  0  0  0
    2.8190   -4.3823   -8.9484 C   0  0  0  0  0  0  0  0  0  0  0  0
    2.9902   -2.9892   -9.1624 C   0  0  0  0  0  0  0  0  0  0  0  0
    3.0138   -2.1143   -8.0977 C   0  0  0  0  0  0  0  0  0  0  0  0
    2.8664   -2.5968   -6.7659 C   0  0  0  0  0  0  0  0  0  0  0  0
    2.8947   -1.7070   -5.7421 N   0  0  0  0  0  0  0  0  0  0  0  0
    2.6673   -1.4094   -2.1361 N   0  0  0  0  0  0  0  0  0  0  0  0
    1.1345    0.2459    0.2961 C   0  0  0  0  0  0  0  0  0  0  0  0
    1.3285    1.7807    0.2719 C   0  0  0  0  0  0  0  0  0  0  0  0
    2.8617    1.5634    0.3034 C   0  0  0  0  0  0  0  0  0  0  0  0
    3.3115   -1.8289    0.2077 H   0  0  0  0  0  0  0  0  0  0  0  0
    3.2981   -0.9015    1.5676 H   0  0  0  0  0  0  0  0  0  0  0  0
    2.4746   -3.8230   -3.1370 H   0  0  0  0  0  0  0  0  0  0  0  0
    2.4161   -5.5137   -5.0020 H   0  0  0  0  0  0  0  0  0  0  0  0
    2.5420   -5.9537   -7.5029 H   0  0  0  0  0  0  0  0  0  0  0  0
    2.8030   -5.0608   -9.8050 H   0  0  0  0  0  0  0  0  0  0  0  0
    3.1038   -2.6124  -10.1820 H   0  0  0  0  0  0  0  0  0  0  0  0
    3.1443   -1.0391   -8.2333 H   0  0  0  0  0  0  0  0  0  0  0  0
    0.9779   -0.1414    1.3159 H   0  0  0  0  0  0  0  0  0  0  0  0
    0.3786   -0.2007   -0.3686 H   0  0  0  0  0  0  0  0  0  0  0  0
    0.8864    2.3506    1.1026 H   0  0  0  0  0  0  0  0  0  0  0  0
    0.9964    2.2286   -0.6761 H   0  0  0  0  0  0  0  0  0  0  0  0
    3.2699    1.6115    1.3247 H   0  0  0  0  0  0  0  0  0  0  0  0
    3.4873    2.1751   -0.3610 H   0  0  0  0  0  0  0  0  0  0  0  0
  2  1  1  1
  1 21  1  0
  1 22  1  0
  2  3  1  0
  2 18  1  0
  2 20  1  0
  3  4  2  0
  3 17  1  0
  4  5  1  0
  5  6  1  0
  6  7  1  0
  6 17  2  0
  7  8  2  0
  7 16  1  0
  8  9  1  0
  8 23  1  0
  9 10  2  0
  9 24  1  0
 10 11  1  0
 10 15  1  0
 11 12  2  0
 11 25  1  0
 12 13  1  0
 12 26  1  0
 13 14  2  0
 13 27  1  0
 14 15  1  0
 14 28  1  0
 15 16  2  0
 18 19  1  0
 18 29  1  0
 18 30  1  0
 19 20  1  0
 19 31  1  0
 19 32  1  0
 20 33  1  0
 20 34  1  0
M  END

