
     RDKit          3D

 39 38  0  0  0  0  0  0  0  0999 V2000
    2.5581    0.4815    1.4614 C   0  0  0  0  0  0  0  0  0  0  0  0
    2.3067   -0.2614    0.1449 C   0  0  0  0  0  0  0  0  0  0  0  0
    2.7078    0.4850   -1.1522 C   0  0  1  0  0  0  0  0  0  0  0  0
    1.8006    1.7055   -1.3746 C   0  0  0  0  0  0  0  0  0  0  0  0
    4.2245    0.8430   -1.2240 C   0  0  1  0  0  0  0  0  0  0  0  0
    5.1060   -0.4032   -0.9794 C   0  0  0  0  0  0  0  0  0  0  0  0
    6.5189   -0.0688   -1.0617 N   0  0  0  0  0  0  0  0  0  0  0  0
    4.6676    1.5168   -2.4577 N   0  0  0  0  0  0  0  0  0  0  0  0
    4.2981    0.8808   -3.7063 C   0  0  0  0  0  0  0  0  0  0  0  0
    4.6379    2.9750   -2.5449 C   0  0  0  0  0  0  0  0  0  0  0  0
    5.3389    3.7701   -1.4273 C   0  0  1  0  0  0  0  0  0  0  0  0
    6.8241    3.4197   -1.2847 C   0  0  0  0  0  0  0  0  0  0  0  0
    5.1445    5.2709   -1.6876 C   0  0  0  0  0  0  0  0  0  0  0  0
    2.1891   -0.1079    2.3162 H   0  0  0  0  0  0  0  0  0  0  0  0
    2.0421    1.4545    1.4908 H   0  0  0  0  0  0  0  0  0  0  0  0
    3.6296    0.6701    1.6366 H   0  0  0  0  0  0  0  0  0  0  0  0
    1.2295   -0.4938    0.0697 H   0  0  0  0  0  0  0  0  0  0  0  0
    2.8091   -1.2419    0.1813 H   0  0  0  0  0  0  0  0  0  0  0  0
    2.5039   -0.2229   -1.9764 H   0  0  0  0  0  0  0  0  0  0  0  0
    2.0213    2.5204   -0.6663 H   0  0  0  0  0  0  0  0  0  0  0  0
    0.7417    1.4289   -1.2412 H   0  0  0  0  0  0  0  0  0  0  0  0
    1.9036    2.1160   -2.3886 H   0  0  0  0  0  0  0  0  0  0  0  0
    4.4470    1.5410   -0.4037 H   0  0  0  0  0  0  0  0  0  0  0  0
    4.7884   -1.2096   -1.6794 H   0  0  0  0  0  0  0  0  0  0  0  0
    4.9009   -0.7882    0.0314 H   0  0  0  0  0  0  0  0  0  0  0  0
    6.7008    0.3638   -1.9676 H   0  0  0  0  0  0  0  0  0  0  0  0
    7.0972   -0.9050   -0.9923 H   0  0  0  0  0  0  0  0  0  0  0  0
    4.4228   -0.2109   -3.6419 H   0  0  0  0  0  0  0  0  0  0  0  0
    4.9550    1.2382   -4.5177 H   0  0  0  0  0  0  0  0  0  0  0  0
    3.2512    1.0757   -4.0311 H   0  0  0  0  0  0  0  0  0  0  0  0
    3.6035    3.3698   -2.6491 H   0  0  0  0  0  0  0  0  0  0  0  0
    5.1422    3.2371   -3.4940 H   0  0  0  0  0  0  0  0  0  0  0  0
    4.8403    3.5438   -0.4672 H   0  0  0  0  0  0  0  0  0  0  0  0
    7.3593    3.6017   -2.2337 H   0  0  0  0  0  0  0  0  0  0  0  0
    6.9683    2.3667   -1.0046 H   0  0  0  0  0  0  0  0  0  0  0  0
    7.2998    4.0466   -0.5124 H   0  0  0  0  0  0  0  0  0  0  0  0
    5.6263    5.5749   -2.6332 H   0  0  0  0  0  0  0  0  0  0  0  0
    5.5922    5.8729   -0.8810 H   0  0  0  0  0  0  0  0  0  0  0  0
    4.0778    5.5412   -1.7558 H   0  0  0  0  0  0  0  0  0  0  0  0
  1  2  1  0
  1 14  1  0
  1 15  1  0
  1 16  1  0
  2  3  1  0
  2 17  1  0
  2 18  1  0
  3  4  1  0
  3  5  1  0
  3 19  1  6
  4 20  1  0
  4 21  1  0
  4 22  1  0
  5  6  1  0
  5  8  1  0
  5 23  1  1
  6  7  1  0
  6 24  1  0
  6 25  1  0
  7 26  1  0
  7 27  1  0
  8  9  1  0
  8 10  1  0
  9 28  1  0
  9 29  1  0
  9 30  1  0
 10 11  1  0
 10 31  1  0
 10 32  1  0
 11 12  1  0
 11 13  1  0
 11 33  1  1
 12 34  1  0
 12 35  1  0
 12 36  1  0
 13 37  1  0
 13 38  1  0
 13 39  1  0
M  END

