
     RDKit          3D

 71 76  0  0  0  0  0  0  0  0999 V2000
    5.6994    4.4521    7.7161 C   0  0  0  0  0  0  0  0  0  0  0  0
    6.4795    3.8471    6.7102 O   0  0  0  0  0  0  0  0  0  0  0  0
    6.2612    2.5449    6.3949 C   0  0  0  0  0  0  0  0  0  0  0  0
    7.0746    2.0043    5.3847 C   0  0  0  0  0  0  0  0  0  0  0  0
    6.9306    0.6753    5.0061 C   0  0  0  0  0  0  0  0  0  0  0  0
    5.9643   -0.1512    5.6088 C   0  0  0  0  0  0  0  0  0  0  0  0
    5.8435   -1.4779    5.1229 N   0  0  0  0  0  0  0  0  0  0  0  0
    5.5103   -2.6426    5.7643 C   0  0  0  0  0  0  0  0  0  0  0  0
    5.1878   -2.7846    7.4041 S   0  0  0  0  0  0  0  0  0  0  0  0
    5.4710   -3.7194    4.9164 N   0  0  0  0  0  0  0  0  0  0  0  0
    5.3214   -5.1155    5.3369 C   0  0  2  0  0  0  0  0  0  0  0  0
    5.6555   -5.1434    6.3852 H   0  0  0  0  0  0  0  0  0  0  0  0
    6.2430   -5.9886    4.4782 C   0  0  0  0  0  0  0  0  0  0  0  0
    7.6396   -5.8208    4.6808 C   0  0  0  0  0  0  0  0  0  0  0  0
    8.5040   -6.5544    3.8993 C   0  0  0  0  0  0  0  0  0  0  0  0
    8.0312   -7.4464    2.9297 C   0  0  0  0  0  0  0  0  0  0  0  0
    6.6831   -7.6320    2.7163 C   0  0  0  0  0  0  0  0  0  0  0  0
    5.7653   -6.8877    3.5016 C   0  0  0  0  0  0  0  0  0  0  0  0
    4.2742   -7.1444    3.2638 C   0  0  1  0  0  0  0  0  0  0  0  0
    4.1112   -7.1757    2.1745 H   0  0  0  0  0  0  0  0  0  0  0  0
    3.8030   -8.4974    3.8157 C   0  0  0  0  0  0  0  0  0  0  0  0
    4.4661   -9.1398    4.8712 C   0  0  0  0  0  0  0  0  0  0  0  0
    3.9878  -10.3650    5.3666 C   0  0  0  0  0  0  0  0  0  0  0  0
    4.5600  -11.0504    6.3891 O   0  0  0  0  0  0  0  0  0  0  0  0
    5.7253  -10.5414    6.9927 C   0  0  0  0  0  0  0  0  0  0  0  0
    2.8502  -10.9670    4.7954 C   0  0  0  0  0  0  0  0  0  0  0  0
    2.4311  -12.1876    5.2337 O   0  0  0  0  0  0  0  0  0  0  0  0
    1.3812  -12.1736    6.1867 C   0  0  0  0  0  0  0  0  0  0  0  0
    2.1770  -10.3059    3.7477 C   0  0  0  0  0  0  0  0  0  0  0  0
    1.0671  -10.9278    3.2794 O   0  0  0  0  0  0  0  0  0  0  0  0
    0.3119  -10.3026    2.2622 C   0  0  0  0  0  0  0  0  0  0  0  0
    2.6649   -9.0890    3.2507 C   0  0  0  0  0  0  0  0  0  0  0  0
    3.4979   -5.9382    3.8176 C   0  0  1  0  0  0  0  0  0  0  0  0
    3.7600   -5.0604    3.1925 H   0  0  0  0  0  0  0  0  0  0  0  0
    1.9741   -5.9256    3.8473 C   0  0  0  0  0  0  0  0  0  0  0  0
    1.1964   -6.3588    3.0412 O   0  0  0  0  0  0  0  0  0  0  0  0
    1.5809   -5.2487    4.9525 O   0  0  0  0  0  0  0  0  0  0  0  0
    2.7075   -4.7651    5.7195 C   0  0  0  0  0  0  0  0  0  0  0  0
    3.8800   -5.6345    5.2592 C   0  0  2  0  0  0  0  0  0  0  0  0
    3.8474   -6.5816    5.8238 H   0  0  0  0  0  0  0  0  0  0  0  0
    9.0904   -8.0477    2.3145 O   0  0  0  0  0  0  0  0  0  0  0  0
   10.2677   -7.4536    2.8568 C   0  0  0  0  0  0  0  0  0  0  0  0
    9.8692   -6.5820    3.9128 O   0  0  0  0  0  0  0  0  0  0  0  0
    5.1448    0.3927    6.6046 C   0  0  0  0  0  0  0  0  0  0  0  0
    5.2964    1.7258    6.9996 C   0  0  0  0  0  0  0  0  0  0  0  0
    6.0498    5.4895    7.8031 H   0  0  0  0  0  0  0  0  0  0  0  0
    5.8245    3.9499    8.6925 H   0  0  0  0  0  0  0  0  0  0  0  0
    4.6250    4.4591    7.4568 H   0  0  0  0  0  0  0  0  0  0  0  0
    7.8234    2.6463    4.9170 H   0  0  0  0  0  0  0  0  0  0  0  0
    7.5834    0.2663    4.2289 H   0  0  0  0  0  0  0  0  0  0  0  0
    6.1598   -1.5800    4.1632 H   0  0  0  0  0  0  0  0  0  0  0  0
    5.7311   -3.5777    3.9453 H   0  0  0  0  0  0  0  0  0  0  0  0
    8.0149   -5.1312    5.4393 H   0  0  0  0  0  0  0  0  0  0  0  0
    6.3268   -8.3423    1.9683 H   0  0  0  0  0  0  0  0  0  0  0  0
    5.3613   -8.6918    5.2981 H   0  0  0  0  0  0  0  0  0  0  0  0
    6.0113  -11.2586    7.7741 H   0  0  0  0  0  0  0  0  0  0  0  0
    5.5541   -9.5547    7.4612 H   0  0  0  0  0  0  0  0  0  0  0  0
    6.5578  -10.4489    6.2717 H   0  0  0  0  0  0  0  0  0  0  0  0
    1.1622  -13.2214    6.4379 H   0  0  0  0  0  0  0  0  0  0  0  0
    0.4694  -11.7057    5.7769 H   0  0  0  0  0  0  0  0  0  0  0  0
    1.6807  -11.6415    7.1076 H   0  0  0  0  0  0  0  0  0  0  0  0
   -0.5608  -10.9453    2.0845 H   0  0  0  0  0  0  0  0  0  0  0  0
    0.8867  -10.2146    1.3228 H   0  0  0  0  0  0  0  0  0  0  0  0
   -0.0298   -9.2968    2.5628 H   0  0  0  0  0  0  0  0  0  0  0  0
    2.1414   -8.5714    2.4499 H   0  0  0  0  0  0  0  0  0  0  0  0
    2.4617   -4.8641    6.7840 H   0  0  0  0  0  0  0  0  0  0  0  0
    2.8565   -3.6985    5.4926 H   0  0  0  0  0  0  0  0  0  0  0  0
   10.7886   -6.8739    2.0710 H   0  0  0  0  0  0  0  0  0  0  0  0
   10.9324   -8.2399    3.2536 H   0  0  0  0  0  0  0  0  0  0  0  0
    4.3917   -0.2293    7.0841 H   0  0  0  0  0  0  0  0  0  0  0  0
    4.6439    2.1128    7.7824 H   0  0  0  0  0  0  0  0  0  0  0  0
  1  2  1  0
  1 46  1  0
  1 47  1  0
  1 48  1  0
  2  3  1  0
  3  4  2  0
  3 45  1  0
  4  5  1  0
  4 49  1  0
  5  6  2  0
  5 50  1  0
  6  7  1  0
  6 44  1  0
  7  8  1  0
  7 51  1  0
  8  9  2  0
  8 10  1  0
 10 11  1  0
 10 52  1  0
 11 12  1  1
 11 13  1  0
 11 39  1  0
 13 14  2  0
 13 18  1  0
 14 15  1  0
 14 53  1  0
 15 16  2  0
 15 43  1  0
 16 17  1  0
 16 41  1  0
 17 18  2  0
 17 54  1  0
 18 19  1  0
 19 20  1  6
 19 21  1  0
 19 33  1  0
 21 22  2  0
 21 32  1  0
 22 23  1  0
 22 55  1  0
 23 24  1  0
 23 26  2  0
 24 25  1  0
 25 56  1  0
 25 57  1  0
 25 58  1  0
 26 27  1  0
 26 29  1  0
 27 28  1  0
 28 59  1  0
 28 60  1  0
 28 61  1  0
 29 30  1  0
 29 32  2  0
 30 31  1  0
 31 62  1  0
 31 63  1  0
 31 64  1  0
 32 65  1  0
 33 34  1  6
 33 35  1  0
 33 39  1  0
 35 36  2  0
 35 37  1  0
 37 38  1  0
 38 39  1  0
 38 66  1  0
 38 67  1  0
 39 40  1  1
 41 42  1  0
 42 43  1  0
 42 68  1  0
 42 69  1  0
 44 45  2  0
 44 70  1  0
 45 71  1  0
M  END

