
     RDKit          3D

 41 44  0  0  0  0  0  0  0  0999 V2000
    1.7868    0.5589    1.4152 C   0  0  0  0  0  0  0  0  0  0  0  0
    2.7626    0.1937    0.4073 N   0  0  0  0  0  0  0  0  0  0  0  0
    3.4259   -1.0925    0.4831 C   0  0  0  0  0  0  0  0  0  0  0  0
    3.1040    1.0906   -0.5823 C   0  0  0  0  0  0  0  0  0  0  0  0
    2.4954    2.3715   -0.6650 C   0  0  0  0  0  0  0  0  0  0  0  0
    2.8404    3.2656   -1.6676 C   0  0  0  0  0  0  0  0  0  0  0  0
    3.7945    2.9425   -2.6537 C   0  0  0  0  0  0  0  0  0  0  0  0
    4.1355    3.9649   -3.6483 C   0  0  0  0  0  0  0  0  0  0  0  0
    3.9680    5.2547   -3.4233 N   0  0  0  0  0  0  0  0  0  0  0  0
    4.4290    5.8963   -4.5391 C   0  0  0  0  0  0  0  0  0  0  0  0
    4.4728    7.2038   -4.7886 N   0  0  0  0  0  0  0  0  0  0  0  0
    4.9902    7.5193   -5.9804 C   0  0  0  0  0  0  0  0  0  0  0  0
    5.4509    6.5633   -6.9068 C   0  0  0  0  0  0  0  0  0  0  0  0
    5.4113    5.2434   -6.6689 N   0  0  0  0  0  0  0  0  0  0  0  0
    4.9043    4.9469   -5.4886 C   0  0  0  0  0  0  0  0  0  0  0  0
    4.6970    3.7020   -4.9103 N   0  0  0  0  0  0  0  0  0  0  0  0
    4.8413    2.4648   -5.6088 C   0  0  0  0  0  0  0  0  0  0  0  0
    6.0888    2.1106   -6.1373 C   0  0  0  0  0  0  0  0  0  0  0  0
    6.2248    0.9174   -6.8512 C   0  0  0  0  0  0  0  0  0  0  0  0
    5.1239    0.0756   -7.0349 C   0  0  0  0  0  0  0  0  0  0  0  0
    3.8780    0.4373   -6.5118 C   0  0  0  0  0  0  0  0  0  0  0  0
    3.7305    1.6341   -5.8085 C   0  0  0  0  0  0  0  0  0  0  0  0
    4.4139    1.6816   -2.5648 C   0  0  0  0  0  0  0  0  0  0  0  0
    4.0843    0.7792   -1.5599 C   0  0  0  0  0  0  0  0  0  0  0  0
    1.6398   -0.2842    2.1020 H   0  0  0  0  0  0  0  0  0  0  0  0
    0.8050    0.8040    0.9711 H   0  0  0  0  0  0  0  0  0  0  0  0
    2.1078    1.4311    2.0148 H   0  0  0  0  0  0  0  0  0  0  0  0
    3.0088   -1.6692    1.3184 H   0  0  0  0  0  0  0  0  0  0  0  0
    4.5150   -0.9953    0.6509 H   0  0  0  0  0  0  0  0  0  0  0  0
    3.2835   -1.6863   -0.4380 H   0  0  0  0  0  0  0  0  0  0  0  0
    1.7460    2.6747    0.0649 H   0  0  0  0  0  0  0  0  0  0  0  0
    2.3730    4.2511   -1.7035 H   0  0  0  0  0  0  0  0  0  0  0  0
    5.0494    8.5839   -6.2333 H   0  0  0  0  0  0  0  0  0  0  0  0
    5.8627    6.8856   -7.8687 H   0  0  0  0  0  0  0  0  0  0  0  0
    6.9423    2.7743   -5.9922 H   0  0  0  0  0  0  0  0  0  0  0  0
    7.1989    0.6451   -7.2649 H   0  0  0  0  0  0  0  0  0  0  0  0
    5.2346   -0.8587   -7.5907 H   0  0  0  0  0  0  0  0  0  0  0  0
    3.0109   -0.2109   -6.6606 H   0  0  0  0  0  0  0  0  0  0  0  0
    2.7583    1.9284   -5.4090 H   0  0  0  0  0  0  0  0  0  0  0  0
    5.1894    1.3970   -3.2763 H   0  0  0  0  0  0  0  0  0  0  0  0
    4.6055   -0.1766   -1.5338 H   0  0  0  0  0  0  0  0  0  0  0  0
  1  2  1  0
  1 25  1  0
  1 26  1  0
  1 27  1  0
  2  3  1  0
  2  4  1  0
  3 28  1  0
  3 29  1  0
  3 30  1  0
  4  5  2  0
  4 24  1  0
  5  6  1  0
  5 31  1  0
  6  7  2  0
  6 32  1  0
  7  8  1  0
  7 23  1  0
  8  9  2  0
  8 16  1  0
  9 10  1  0
 10 11  2  0
 10 15  1  0
 11 12  1  0
 12 13  2  0
 12 33  1  0
 13 14  1  0
 13 34  1  0
 14 15  2  0
 15 16  1  0
 16 17  1  0
 17 18  2  0
 17 22  1  0
 18 19  1  0
 18 35  1  0
 19 20  2  0
 19 36  1  0
 20 21  1  0
 20 37  1  0
 21 22  2  0
 21 38  1  0
 22 39  1  0
 23 24  2  0
 23 40  1  0
 24 41  1  0
M  END

