
     RDKit          3D

 35 36  0  0  0  0  0  0  0  0999 V2000
    0.9640    0.1306   -0.3743 C   0  0  0  0  0  0  0  0  0  0  0  0
    2.4378   -0.1076   -0.0017 C   0  0  1  0  0  0  0  0  0  0  0  0
    2.5812   -0.2623    1.5198 C   0  0  0  0  0  0  0  0  0  0  0  0
    2.8998   -1.4048   -0.7048 C   0  0  0  0  0  0  0  0  0  0  0  0
    4.3195   -1.6837   -0.5587 N   0  0  0  0  0  0  0  0  0  0  0  0
    5.1950   -0.8221   -1.3369 C   0  0  0  0  0  0  0  0  0  0  0  0
    5.6710    0.4186   -0.5792 C   0  0  0  0  0  0  0  0  0  0  0  0
    4.6136    1.2589   -0.0275 N   0  0  0  0  0  0  0  0  0  0  0  0
    4.9715    2.2888    0.8349 C   0  0  0  0  0  0  0  0  0  0  0  0
    4.0158    3.0816    1.5230 C   0  0  0  0  0  0  0  0  0  0  0  0
    4.4107    4.1079    2.3765 C   0  0  0  0  0  0  0  0  0  0  0  0
    5.7586    4.4025    2.6048 C   0  0  0  0  0  0  0  0  0  0  0  0
    6.6990    3.6228    1.9342 C   0  0  0  0  0  0  0  0  0  0  0  0
    8.5620    3.9786    2.1982 Br  0  0  0  0  0  0  0  0  0  0  0  0
    6.3387    2.5927    1.0661 C   0  0  0  0  0  0  0  0  0  0  0  0
    3.2539    1.1135   -0.5266 C   0  0  0  0  0  0  0  0  0  0  0  0
    0.3422   -0.7399   -0.1099 H   0  0  0  0  0  0  0  0  0  0  0  0
    0.8423    0.3106   -1.4558 H   0  0  0  0  0  0  0  0  0  0  0  0
    0.5559    1.0044    0.1592 H   0  0  0  0  0  0  0  0  0  0  0  0
    1.9427   -1.0853    1.8811 H   0  0  0  0  0  0  0  0  0  0  0  0
    2.2799    0.6522    2.0538 H   0  0  0  0  0  0  0  0  0  0  0  0
    3.6198   -0.4951    1.7923 H   0  0  0  0  0  0  0  0  0  0  0  0
    2.6027   -1.3367   -1.7782 H   0  0  0  0  0  0  0  0  0  0  0  0
    2.3392   -2.2520   -0.2760 H   0  0  0  0  0  0  0  0  0  0  0  0
    4.5046   -2.6600   -0.7685 H   0  0  0  0  0  0  0  0  0  0  0  0
    4.7331   -0.5276   -2.3042 H   0  0  0  0  0  0  0  0  0  0  0  0
    6.1074   -1.3817   -1.5991 H   0  0  0  0  0  0  0  0  0  0  0  0
    6.3252    1.0008   -1.2620 H   0  0  0  0  0  0  0  0  0  0  0  0
    6.3078    0.0724    0.2523 H   0  0  0  0  0  0  0  0  0  0  0  0
    2.9507    2.8887    1.4108 H   0  0  0  0  0  0  0  0  0  0  0  0
    3.6419    4.6917    2.8902 H   0  0  0  0  0  0  0  0  0  0  0  0
    6.0641    5.2027    3.2788 H   0  0  0  0  0  0  0  0  0  0  0  0
    7.1298    2.0431    0.5643 H   0  0  0  0  0  0  0  0  0  0  0  0
    3.2710    1.0710   -1.6312 H   0  0  0  0  0  0  0  0  0  0  0  0
    2.7024    2.0314   -0.2900 H   0  0  0  0  0  0  0  0  0  0  0  0
  2  1  1  1
  1 17  1  0
  1 18  1  0
  1 19  1  0
  2  3  1  0
  2  4  1  0
  2 16  1  0
  3 20  1  0
  3 21  1  0
  3 22  1  0
  4  5  1  0
  4 23  1  0
  4 24  1  0
  5  6  1  0
  5 25  1  0
  6  7  1  0
  6 26  1  0
  6 27  1  0
  7  8  1  0
  7 28  1  0
  7 29  1  0
  8  9  1  0
  8 16  1  0
  9 10  2  0
  9 15  1  0
 10 11  1  0
 10 30  1  0
 11 12  2  0
 11 31  1  0
 12 13  1  0
 12 32  1  0
 13 14  1  0
 13 15  2  0
 15 33  1  0
 16 34  1  0
 16 35  1  0
M  END

