
     RDKit          3D

 36 38  0  0  0  0  0  0  0  0999 V2000
    1.0355    0.0653   -0.1241 N   0  0  0  0  0  0  0  0  0  0  0  0
    2.1958    0.0340   -0.0508 C   0  0  0  0  0  0  0  0  0  0  0  0
    3.6200    0.0044    0.0528 C   0  0  0  0  0  0  0  0  0  0  0  0
    4.3386   -0.6597   -0.9235 C   0  0  0  0  0  0  0  0  0  0  0  0
    5.6830   -0.7708   -0.9229 N   0  0  0  0  0  0  0  0  0  0  0  0
    6.4909   -1.4160   -1.8578 C   0  0  0  0  0  0  0  0  0  0  0  0
    5.9950   -1.9785   -3.0503 C   0  0  0  0  0  0  0  0  0  0  0  0
    6.8578   -2.6088   -3.9399 C   0  0  0  0  0  0  0  0  0  0  0  0
    8.2372   -2.6935   -3.6701 C   0  0  0  0  0  0  0  0  0  0  0  0
    9.1221   -3.3432   -4.5927 C   0  0  0  0  0  0  0  0  0  0  0  0
    9.8398   -3.8691   -5.3396 N   0  0  0  0  0  0  0  0  0  0  0  0
    8.7328   -2.1275   -2.4790 C   0  0  0  0  0  0  0  0  0  0  0  0
    7.8724   -1.5002   -1.5881 C   0  0  0  0  0  0  0  0  0  0  0  0
    4.2617    0.6606    1.1859 C   0  0  0  0  0  0  0  0  0  0  0  0
    5.5640    0.7248    1.3591 N   0  0  0  0  0  0  0  0  0  0  0  0
    5.9143    1.3756    2.5208 C   0  0  0  0  0  0  0  0  0  0  0  0
    7.3393    1.5558    2.8703 C   0  0  0  0  0  0  0  0  0  0  0  0
    8.3232    1.5487    1.8644 C   0  0  0  0  0  0  0  0  0  0  0  0
    9.6700    1.7338    2.1821 C   0  0  0  0  0  0  0  0  0  0  0  0
   10.0606    1.9284    3.5104 C   0  0  0  0  0  0  0  0  0  0  0  0
    9.0920    1.9354    4.5193 C   0  0  0  0  0  0  0  0  0  0  0  0
    7.7455    1.7490    4.2034 C   0  0  0  0  0  0  0  0  0  0  0  0
    4.8363    1.8250    3.2530 C   0  0  0  0  0  0  0  0  0  0  0  0
    3.3482    1.4225    2.4755 S   0  0  0  0  0  0  0  0  0  0  0  0
    3.7920   -1.1346   -1.7397 H   0  0  0  0  0  0  0  0  0  0  0  0
    6.1296   -0.3145   -0.1108 H   0  0  0  0  0  0  0  0  0  0  0  0
    4.9347   -1.9225   -3.2989 H   0  0  0  0  0  0  0  0  0  0  0  0
    6.4627   -3.0400   -4.8616 H   0  0  0  0  0  0  0  0  0  0  0  0
    9.7996   -2.1863   -2.2558 H   0  0  0  0  0  0  0  0  0  0  0  0
    8.2650   -1.0718   -0.6625 H   0  0  0  0  0  0  0  0  0  0  0  0
    8.0185    1.4168    0.8246 H   0  0  0  0  0  0  0  0  0  0  0  0
   10.4191    1.7331    1.3860 H   0  0  0  0  0  0  0  0  0  0  0  0
   11.1150    2.0720    3.7590 H   0  0  0  0  0  0  0  0  0  0  0  0
    9.3879    2.0779    5.5617 H   0  0  0  0  0  0  0  0  0  0  0  0
    7.0036    1.7307    5.0051 H   0  0  0  0  0  0  0  0  0  0  0  0
    4.8429    2.3944    4.1795 H   0  0  0  0  0  0  0  0  0  0  0  0
  1  2  3  0
  2  3  1  0
  3  4  2  0
  3 14  1  0
  4  5  1  0
  4 25  1  0
  5  6  1  0
  5 26  1  0
  6  7  2  0
  6 13  1  0
  7  8  1  0
  7 27  1  0
  8  9  2  0
  8 28  1  0
  9 10  1  0
  9 12  1  0
 10 11  3  0
 12 13  2  0
 12 29  1  0
 13 30  1  0
 14 15  2  0
 14 24  1  0
 15 16  1  0
 16 17  1  0
 16 23  2  0
 17 18  2  0
 17 22  1  0
 18 19  1  0
 18 31  1  0
 19 20  2  0
 19 32  1  0
 20 21  1  0
 20 33  1  0
 21 22  2  0
 21 34  1  0
 22 35  1  0
 23 24  1  0
 23 36  1  0
M  END

