
     RDKit          3D

 38 39  0  0  0  0  0  0  0  0999 V2000
    9.4878    4.9534    6.1264 N   0  0  0  0  0  0  0  0  0  0  0  0
    9.5705    4.2817    5.1821 C   0  0  0  0  0  0  0  0  0  0  0  0
    9.6716    3.4527    4.0158 C   0  0  0  0  0  0  0  0  0  0  0  0
    8.9121    3.7432    2.8619 C   0  0  0  0  0  0  0  0  0  0  0  0
    9.0110    2.9395    1.7361 C   0  0  0  0  0  0  0  0  0  0  0  0
    9.8702    1.8244    1.7318 C   0  0  0  0  0  0  0  0  0  0  0  0
    9.8966    1.0996    0.5902 O   0  0  0  0  0  0  0  0  0  0  0  0
   10.7342   -0.0377    0.4887 C   0  0  0  0  0  0  0  0  0  0  0  0
   10.5412   -0.5838   -0.9212 C   0  0  0  0  0  0  0  0  0  0  0  0
   11.2196   -1.8324   -1.0806 O   0  0  0  0  0  0  0  0  0  0  0  0
   12.5353   -1.7903   -1.3866 C   0  0  0  0  0  0  0  0  0  0  0  0
   13.1601   -0.7606   -1.4847 O   0  0  0  0  0  0  0  0  0  0  0  0
   13.1175   -3.1524   -1.5861 C   0  0  0  0  0  0  0  0  0  0  0  0
   14.4817   -3.2382   -1.9071 C   0  0  0  0  0  0  0  0  0  0  0  0
   15.0793   -4.4811   -2.1070 C   0  0  0  0  0  0  0  0  0  0  0  0
   14.3003   -5.6342   -1.9742 C   0  0  0  0  0  0  0  0  0  0  0  0
   15.0651   -7.2442   -2.2282 S   0  0  1  0  0  0  0  0  0  0  0  0
   15.6088   -7.6595   -0.6861 N   0  0  0  0  0  0  0  0  0  0  0  0
   13.9989   -8.1841   -2.5783 O   0  0  0  0  0  0  0  0  0  0  0  0
   16.2489   -7.0384   -3.0639 O   0  0  0  0  0  0  0  0  0  0  0  0
   12.9383   -5.5691   -1.6699 C   0  0  0  0  0  0  0  0  0  0  0  0
   12.3474   -4.3210   -1.4727 C   0  0  0  0  0  0  0  0  0  0  0  0
   10.6306    1.5273    2.8748 C   0  0  0  0  0  0  0  0  0  0  0  0
   10.5279    2.3390    4.0046 C   0  0  0  0  0  0  0  0  0  0  0  0
    8.2442    4.6068    2.8597 H   0  0  0  0  0  0  0  0  0  0  0  0
    8.4308    3.1515    0.8363 H   0  0  0  0  0  0  0  0  0  0  0  0
   10.4498   -0.8051    1.2320 H   0  0  0  0  0  0  0  0  0  0  0  0
   11.7912    0.2354    0.6484 H   0  0  0  0  0  0  0  0  0  0  0  0
   10.9048    0.1434   -1.6611 H   0  0  0  0  0  0  0  0  0  0  0  0
    9.4775   -0.7921   -1.0992 H   0  0  0  0  0  0  0  0  0  0  0  0
   15.0571   -2.3156   -2.0029 H   0  0  0  0  0  0  0  0  0  0  0  0
   16.1331   -4.5655   -2.3774 H   0  0  0  0  0  0  0  0  0  0  0  0
   15.1436   -8.5079   -0.3635 H   0  0  0  0  0  0  0  0  0  0  0  0
   16.6247   -7.7489   -0.6808 H   0  0  0  0  0  0  0  0  0  0  0  0
   12.3529   -6.4877   -1.6054 H   0  0  0  0  0  0  0  0  0  0  0  0
   11.2856   -4.2460   -1.2367 H   0  0  0  0  0  0  0  0  0  0  0  0
   11.3044    0.6710    2.8952 H   0  0  0  0  0  0  0  0  0  0  0  0
   11.1203    2.1066    4.8918 H   0  0  0  0  0  0  0  0  0  0  0  0
  1  2  3  0
  2  3  1  0
  3  4  2  0
  3 24  1  0
  4  5  1  0
  4 25  1  0
  5  6  2  0
  5 26  1  0
  6  7  1  0
  6 23  1  0
  7  8  1  0
  8  9  1  0
  8 27  1  0
  8 28  1  0
  9 10  1  0
  9 29  1  0
  9 30  1  0
 10 11  1  0
 11 12  2  0
 11 13  1  0
 13 14  2  0
 13 22  1  0
 14 15  1  0
 14 31  1  0
 15 16  2  0
 15 32  1  0
 16 17  1  0
 16 21  1  0
 17 18  1  1
 17 19  2  0
 17 20  2  0
 18 33  1  0
 18 34  1  0
 21 22  2  0
 21 35  1  0
 22 36  1  0
 23 24  2  0
 23 37  1  0
 24 38  1  0
M  END

