
     RDKit          3D

172183  0  0  0  0  0  0  0  0999 V2000
    1.7784    3.4867    6.5936 C   0  0  0  0  0  0  0  0  0  0  0  0
    3.1188    4.0572    6.1298 C   0  0  0  0  0  0  0  0  0  0  0  0
    2.9955    4.9684    4.9047 C   0  0  0  0  0  0  0  0  0  0  0  0
    4.3187    5.5331    4.4111 C   0  0  0  0  0  0  0  0  0  0  0  0
    5.1359    4.4547    3.9755 O   0  0  0  0  0  0  0  0  0  0  0  0
    6.3787    4.6944    3.4976 C   0  0  0  0  0  0  0  0  0  0  0  0
    6.9589    5.9684    3.3843 C   0  0  0  0  0  0  0  0  0  0  0  0
    8.2506    6.1007    2.8735 C   0  0  0  0  0  0  0  0  0  0  0  0
    8.9985    4.9835    2.4560 C   0  0  0  0  0  0  0  0  0  0  0  0
   10.3564    5.1609    1.9500 C   0  0  0  0  0  0  0  0  0  0  0  0
   10.9612    6.3440    2.3377 O   0  0  0  0  0  0  0  0  0  0  0  0
   12.2177    6.3072    1.8352 C   0  0  0  0  0  0  0  0  0  0  0  0
   13.3779    7.0783    1.8801 C   0  0  0  0  0  0  0  0  0  0  0  0
   13.5956    8.3613    2.5574 C   0  0  0  0  0  0  0  0  0  0  0  0
   14.8203    8.7003    3.1585 C   0  0  0  0  0  0  0  0  0  0  0  0
   15.0082    9.9251    3.8042 C   0  0  0  0  0  0  0  0  0  0  0  0
   13.9535   10.8488    3.8737 C   0  0  0  0  0  0  0  0  0  0  0  0
   14.0285   12.0600    4.4735 O   0  0  0  0  0  0  0  0  0  0  0  0
   15.2430   12.4794    5.0767 C   0  0  0  0  0  0  0  0  0  0  0  0
   15.0343   13.8728    5.6486 C   0  0  0  0  0  0  0  0  0  0  0  0
   16.2850   14.4325    6.3323 C   0  0  0  0  0  0  0  0  0  0  0  0
   16.0795   15.8341    6.9087 C   0  0  0  0  0  0  0  0  0  0  0  0
   12.7140   10.5157    3.2956 C   0  0  0  0  0  0  0  0  0  0  0  0
   12.5414    9.2977    2.6540 C   0  0  0  0  0  0  0  0  0  0  0  0
   14.2972    6.2992    1.0846 C   0  0  0  0  0  0  0  0  0  0  0  0
   13.6944    5.1178    0.6346 N   0  0  0  0  0  0  0  0  0  0  0  0
   12.4253    5.1230    1.1100 C   0  0  0  0  0  0  0  0  0  0  0  0
   11.2056    4.3688    1.1721 C   0  0  0  0  0  0  0  0  0  0  0  0
   10.9047    3.0759    0.5165 C   0  0  0  0  0  0  0  0  0  0  0  0
   11.7361    1.9621    0.7028 C   0  0  0  0  0  0  0  0  0  0  0  0
   11.4664    0.7376    0.0842 C   0  0  0  0  0  0  0  0  0  0  0  0
   10.3468    0.6072   -0.7507 C   0  0  0  0  0  0  0  0  0  0  0  0
    9.9956   -0.5337   -1.3963 O   0  0  0  0  0  0  0  0  0  0  0  0
   10.7948   -1.6986   -1.2600 C   0  0  0  0  0  0  0  0  0  0  0  0
   10.1813   -2.8071   -2.1022 C   0  0  0  0  0  0  0  0  0  0  0  0
   10.1670   -2.5176   -3.6062 C   0  0  0  0  0  0  0  0  0  0  0  0
    9.5250   -3.6345   -4.4295 C   0  0  0  0  0  0  0  0  0  0  0  0
    9.5119    1.7203   -0.9567 C   0  0  0  0  0  0  0  0  0  0  0  0
    9.7916    2.9314   -0.3362 C   0  0  0  0  0  0  0  0  0  0  0  0
   14.5118    4.0161   -0.0612 B   0  0  2  0  0  0  0  0  0  0  0  0
   13.8140    3.4140   -1.0862 F   0  0  0  0  0  0  0  0  0  0  0  0
   14.9829    3.0865    0.8526 F   0  0  0  0  0  0  0  0  0  0  0  0
   15.7719    4.7669   -0.7224 N   0  0  0  0  0  0  0  0  0  0  0  0
   16.3267    4.2567   -1.8161 C   0  0  0  0  0  0  0  0  0  0  0  0
   17.4666    4.7566   -2.4459 C   0  0  0  0  0  0  0  0  0  0  0  0
   18.0596    4.3617   -3.7012 C   0  0  0  0  0  0  0  0  0  0  0  0
   17.6900    3.2594   -4.5963 C   0  0  0  0  0  0  0  0  0  0  0  0
   17.8227    3.4075   -5.9885 C   0  0  0  0  0  0  0  0  0  0  0  0
   17.4902    2.3803   -6.8736 C   0  0  0  0  0  0  0  0  0  0  0  0
   17.0114    1.1570   -6.3768 C   0  0  0  0  0  0  0  0  0  0  0  0
   16.6590    0.0991   -7.1449 O   0  0  0  0  0  0  0  0  0  0  0  0
   16.7630    0.1802   -8.5596 C   0  0  0  0  0  0  0  0  0  0  0  0
   16.2904   -1.1371   -9.1555 C   0  0  0  0  0  0  0  0  0  0  0  0
   14.8144   -1.4514   -8.8929 C   0  0  0  0  0  0  0  0  0  0  0  0
   14.3693   -2.7898   -9.4828 C   0  0  0  0  0  0  0  0  0  0  0  0
   16.8895    0.9858   -4.9858 C   0  0  0  0  0  0  0  0  0  0  0  0
   17.2270    2.0143   -4.1159 C   0  0  0  0  0  0  0  0  0  0  0  0
   19.0734    5.3055   -3.8620 C   0  0  0  0  0  0  0  0  0  0  0  0
   20.0587    5.5882   -4.7465 O   0  0  0  0  0  0  0  0  0  0  0  0
   20.7691    6.6464   -4.2060 C   0  0  0  0  0  0  0  0  0  0  0  0
   21.9272    7.0610   -4.9932 C   0  0  0  0  0  0  0  0  0  0  0  0
   21.9994    6.7429   -6.3625 C   0  0  0  0  0  0  0  0  0  0  0  0
   23.1009    7.1009   -7.1410 C   0  0  0  0  0  0  0  0  0  0  0  0
   24.1760    7.7901   -6.5567 C   0  0  0  0  0  0  0  0  0  0  0  0
   25.2877    8.1854   -7.2189 O   0  0  0  0  0  0  0  0  0  0  0  0
   25.4314    7.9025   -8.6043 C   0  0  0  0  0  0  0  0  0  0  0  0
   26.7732    8.4446   -9.0722 C   0  0  0  0  0  0  0  0  0  0  0  0
   27.9846    7.7777   -8.4134 C   0  0  0  0  0  0  0  0  0  0  0  0
   29.3199    8.3536   -8.8852 C   0  0  0  0  0  0  0  0  0  0  0  0
   24.1236    8.1012   -5.1843 C   0  0  0  0  0  0  0  0  0  0  0  0
   23.0243    7.7435   -4.4186 C   0  0  0  0  0  0  0  0  0  0  0  0
   20.2303    7.0718   -2.9891 C   0  0  0  0  0  0  0  0  0  0  0  0
   20.6601    8.2130   -2.1493 C   0  0  0  0  0  0  0  0  0  0  0  0
   20.7775    9.5039   -2.6849 C   0  0  0  0  0  0  0  0  0  0  0  0
   21.1825   10.5895   -1.9027 C   0  0  0  0  0  0  0  0  0  0  0  0
   21.4743   10.3967   -0.5434 C   0  0  0  0  0  0  0  0  0  0  0  0
   21.8742   11.3788    0.3042 O   0  0  0  0  0  0  0  0  0  0  0  0
   22.0193   12.7078   -0.1698 C   0  0  0  0  0  0  0  0  0  0  0  0
   22.4839   13.5848    0.9833 C   0  0  0  0  0  0  0  0  0  0  0  0
   23.8625   13.2136    1.5382 C   0  0  0  0  0  0  0  0  0  0  0  0
   24.2978   14.0928    2.7108 C   0  0  0  0  0  0  0  0  0  0  0  0
   21.3454    9.1107    0.0094 C   0  0  0  0  0  0  0  0  0  0  0  0
   20.9413    8.0403   -0.7792 C   0  0  0  0  0  0  0  0  0  0  0  0
   19.1266    6.1811   -2.7664 C   0  0  0  0  0  0  0  0  0  0  0  0
   18.1354    5.8591   -1.9004 N   0  0  0  0  0  0  0  0  0  0  0  0
   17.8348    6.3569   -0.4764 B   0  0  2  0  0  0  0  0  0  0  0  0
   17.8731    7.7321   -0.3850 F   0  0  0  0  0  0  0  0  0  0  0  0
   18.6717    5.7587    0.4522 F   0  0  0  0  0  0  0  0  0  0  0  0
   16.3232    5.9016   -0.1722 N   0  0  0  0  0  0  0  0  0  0  0  0
   15.5883    6.6212    0.6694 C   0  0  0  0  0  0  0  0  0  0  0  0
    8.4037    3.7074    2.5897 C   0  0  0  0  0  0  0  0  0  0  0  0
    7.1213    3.5668    3.0980 C   0  0  0  0  0  0  0  0  0  0  0  0
    1.9007    2.8373    7.4749 H   0  0  0  0  0  0  0  0  0  0  0  0
    1.3037    2.8845    5.8009 H   0  0  0  0  0  0  0  0  0  0  0  0
    1.0707    4.2879    6.8665 H   0  0  0  0  0  0  0  0  0  0  0  0
    3.8142    3.2354    5.8918 H   0  0  0  0  0  0  0  0  0  0  0  0
    3.5875    4.6237    6.9554 H   0  0  0  0  0  0  0  0  0  0  0  0
    2.3328    5.8220    5.1344 H   0  0  0  0  0  0  0  0  0  0  0  0
    2.5184    4.4187    4.0741 H   0  0  0  0  0  0  0  0  0  0  0  0
    4.8306    6.0886    5.2203 H   0  0  0  0  0  0  0  0  0  0  0  0
    4.1516    6.2377    3.5752 H   0  0  0  0  0  0  0  0  0  0  0  0
    6.4160    6.8627    3.6896 H   0  0  0  0  0  0  0  0  0  0  0  0
    8.6910    7.0956    2.7954 H   0  0  0  0  0  0  0  0  0  0  0  0
   15.6424    7.9821    3.1589 H   0  0  0  0  0  0  0  0  0  0  0  0
   15.9747   10.1394    4.2598 H   0  0  0  0  0  0  0  0  0  0  0  0
   16.0572   12.4837    4.3269 H   0  0  0  0  0  0  0  0  0  0  0  0
   15.5344   11.7709    5.8758 H   0  0  0  0  0  0  0  0  0  0  0  0
   14.1944   13.8357    6.3640 H   0  0  0  0  0  0  0  0  0  0  0  0
   14.7156   14.5429    4.8313 H   0  0  0  0  0  0  0  0  0  0  0  0
   17.1210   14.4512    5.6095 H   0  0  0  0  0  0  0  0  0  0  0  0
   16.6005   13.7460    7.1391 H   0  0  0  0  0  0  0  0  0  0  0  0
   15.8002   16.5538    6.1212 H   0  0  0  0  0  0  0  0  0  0  0  0
   16.9950   16.2086    7.3932 H   0  0  0  0  0  0  0  0  0  0  0  0
   15.2753   15.8427    7.6630 H   0  0  0  0  0  0  0  0  0  0  0  0
   11.9007   11.2411    3.3620 H   0  0  0  0  0  0  0  0  0  0  0  0
   11.5746    9.0620    2.2042 H   0  0  0  0  0  0  0  0  0  0  0  0
   12.6219    2.0463    1.3356 H   0  0  0  0  0  0  0  0  0  0  0  0
   12.1424   -0.0998    0.2556 H   0  0  0  0  0  0  0  0  0  0  0  0
   10.8412   -2.0019   -0.1971 H   0  0  0  0  0  0  0  0  0  0  0  0
   11.8299   -1.4870   -1.5911 H   0  0  0  0  0  0  0  0  0  0  0  0
    9.1518   -2.9883   -1.7456 H   0  0  0  0  0  0  0  0  0  0  0  0
   10.7482   -3.7340   -1.9017 H   0  0  0  0  0  0  0  0  0  0  0  0
   11.2038   -2.3501   -3.9515 H   0  0  0  0  0  0  0  0  0  0  0  0
    9.6326   -1.5689   -3.7787 H   0  0  0  0  0  0  0  0  0  0  0  0
   10.0580   -4.5915   -4.2980 H   0  0  0  0  0  0  0  0  0  0  0  0
    9.5304   -3.3966   -5.5051 H   0  0  0  0  0  0  0  0  0  0  0  0
    8.4758   -3.7994   -4.1315 H   0  0  0  0  0  0  0  0  0  0  0  0
    8.6515    1.6093   -1.6198 H   0  0  0  0  0  0  0  0  0  0  0  0
    9.1389    3.7886   -0.5168 H   0  0  0  0  0  0  0  0  0  0  0  0
   15.7911    3.4017   -2.2256 H   0  0  0  0  0  0  0  0  0  0  0  0
   18.1847    4.3557   -6.3920 H   0  0  0  0  0  0  0  0  0  0  0  0
   17.6034    2.5460   -7.9449 H   0  0  0  0  0  0  0  0  0  0  0  0
   17.8118    0.3815   -8.8475 H   0  0  0  0  0  0  0  0  0  0  0  0
   16.1460    1.0195   -8.9343 H   0  0  0  0  0  0  0  0  0  0  0  0
   16.9242   -1.9486   -8.7563 H   0  0  0  0  0  0  0  0  0  0  0  0
   16.4807   -1.0997  -10.2431 H   0  0  0  0  0  0  0  0  0  0  0  0
   14.1924   -0.6370   -9.3077 H   0  0  0  0  0  0  0  0  0  0  0  0
   14.6387   -1.4437   -7.8046 H   0  0  0  0  0  0  0  0  0  0  0  0
   14.5073   -2.8153  -10.5771 H   0  0  0  0  0  0  0  0  0  0  0  0
   13.3049   -2.9859   -9.2778 H   0  0  0  0  0  0  0  0  0  0  0  0
   14.9487   -3.6270   -9.0587 H   0  0  0  0  0  0  0  0  0  0  0  0
   16.5388    0.0225   -4.6104 H   0  0  0  0  0  0  0  0  0  0  0  0
   17.1639    1.8353   -3.0410 H   0  0  0  0  0  0  0  0  0  0  0  0
   21.1734    6.2034   -6.8278 H   0  0  0  0  0  0  0  0  0  0  0  0
   23.1098    6.8379   -8.1986 H   0  0  0  0  0  0  0  0  0  0  0  0
   24.6051    8.3719   -9.1700 H   0  0  0  0  0  0  0  0  0  0  0  0
   25.3736    6.8098   -8.7720 H   0  0  0  0  0  0  0  0  0  0  0  0
   26.7953    9.5328   -8.8848 H   0  0  0  0  0  0  0  0  0  0  0  0
   26.8216    8.3166  -10.1685 H   0  0  0  0  0  0  0  0  0  0  0  0
   27.9549    6.6918   -8.6185 H   0  0  0  0  0  0  0  0  0  0  0  0
   27.8960    7.8830   -7.3195 H   0  0  0  0  0  0  0  0  0  0  0  0
   29.4488    8.2359   -9.9745 H   0  0  0  0  0  0  0  0  0  0  0  0
   30.1698    7.8535   -8.3944 H   0  0  0  0  0  0  0  0  0  0  0  0
   29.3935    9.4308   -8.6599 H   0  0  0  0  0  0  0  0  0  0  0  0
   24.9735    8.6217   -4.7385 H   0  0  0  0  0  0  0  0  0  0  0  0
   23.0193    7.9804   -3.3550 H   0  0  0  0  0  0  0  0  0  0  0  0
   20.5442    9.6701   -3.7392 H   0  0  0  0  0  0  0  0  0  0  0  0
   21.2566   11.5756   -2.3610 H   0  0  0  0  0  0  0  0  0  0  0  0
   21.0545   13.0738   -0.5688 H   0  0  0  0  0  0  0  0  0  0  0  0
   22.7539   12.7360   -0.9981 H   0  0  0  0  0  0  0  0  0  0  0  0
   21.7295   13.5319    1.7883 H   0  0  0  0  0  0  0  0  0  0  0  0
   22.4889   14.6313    0.6289 H   0  0  0  0  0  0  0  0  0  0  0  0
   24.6091   13.2818    0.7256 H   0  0  0  0  0  0  0  0  0  0  0  0
   23.8459   12.1557    1.8478 H   0  0  0  0  0  0  0  0  0  0  0  0
   24.3506   15.1562    2.4213 H   0  0  0  0  0  0  0  0  0  0  0  0
   25.2916   13.8013    3.0861 H   0  0  0  0  0  0  0  0  0  0  0  0
   23.5897   14.0163    3.5530 H   0  0  0  0  0  0  0  0  0  0  0  0
   21.5618    8.9771    1.0712 H   0  0  0  0  0  0  0  0  0  0  0  0
   20.8329    7.0543   -0.3229 H   0  0  0  0  0  0  0  0  0  0  0  0
   16.0712    7.5372    1.0058 H   0  0  0  0  0  0  0  0  0  0  0  0
    8.9619    2.8158    2.3058 H   0  0  0  0  0  0  0  0  0  0  0  0
    6.6650    2.5809    3.2065 H   0  0  0  0  0  0  0  0  0  0  0  0
  1  2  1  0
  1 93  1  0
  1 94  1  0
  1 95  1  0
  2  3  1  0
  2 96  1  0
  2 97  1  0
  3  4  1  0
  3 98  1  0
  3 99  1  0
  4  5  1  0
  4100  1  0
  4101  1  0
  5  6  1  0
  6  7  2  0
  6 92  1  0
  7  8  1  0
  7102  1  0
  8  9  2  0
  8103  1  0
  9 10  1  0
  9 91  1  0
 10 11  1  0
 10 28  2  0
 11 12  1  0
 12 13  1  0
 12 27  2  0
 13 14  1  0
 13 25  2  0
 14 15  2  0
 14 24  1  0
 15 16  1  0
 15104  1  0
 16 17  2  0
 16105  1  0
 17 18  1  0
 17 23  1  0
 18 19  1  0
 19 20  1  0
 19106  1  0
 19107  1  0
 20 21  1  0
 20108  1  0
 20109  1  0
 21 22  1  0
 21110  1  0
 21111  1  0
 22112  1  0
 22113  1  0
 22114  1  0
 23 24  2  0
 23115  1  0
 24116  1  0
 25 26  1  0
 25 90  1  0
 26 27  1  0
 26 40  1  0
 27 28  1  0
 28 29  1  0
 29 30  2  0
 29 39  1  0
 30 31  1  0
 30117  1  0
 31 32  2  0
 31118  1  0
 32 33  1  0
 32 38  1  0
 33 34  1  0
 34 35  1  0
 34119  1  0
 34120  1  0
 35 36  1  0
 35121  1  0
 35122  1  0
 36 37  1  0
 36123  1  0
 36124  1  0
 37125  1  0
 37126  1  0
 37127  1  0
 38 39  2  0
 38128  1  0
 39129  1  0
 40 41  1  6
 40 42  1  0
 40 43  1  0
 43 44  1  0
 43 89  1  0
 44 45  2  0
 44130  1  0
 45 46  1  0
 45 85  1  0
 46 47  1  0
 46 58  2  0
 47 48  2  0
 47 57  1  0
 48 49  1  0
 48131  1  0
 49 50  2  0
 49132  1  0
 50 51  1  0
 50 56  1  0
 51 52  1  0
 52 53  1  0
 52133  1  0
 52134  1  0
 53 54  1  0
 53135  1  0
 53136  1  0
 54 55  1  0
 54137  1  0
 54138  1  0
 55139  1  0
 55140  1  0
 55141  1  0
 56 57  2  0
 56142  1  0
 57143  1  0
 58 59  1  0
 58 84  1  0
 59 60  1  0
 60 61  1  0
 60 72  2  0
 61 62  2  0
 61 71  1  0
 62 63  1  0
 62144  1  0
 63 64  2  0
 63145  1  0
 64 65  1  0
 64 70  1  0
 65 66  1  0
 66 67  1  0
 66146  1  0
 66147  1  0
 67 68  1  0
 67148  1  0
 67149  1  0
 68 69  1  0
 68150  1  0
 68151  1  0
 69152  1  0
 69153  1  0
 69154  1  0
 70 71  2  0
 70155  1  0
 71156  1  0
 72 73  1  0
 72 84  1  0
 73 74  2  0
 73 83  1  0
 74 75  1  0
 74157  1  0
 75 76  2  0
 75158  1  0
 76 77  1  0
 76 82  1  0
 77 78  1  0
 78 79  1  0
 78159  1  0
 78160  1  0
 79 80  1  0
 79161  1  0
 79162  1  0
 80 81  1  0
 80163  1  0
 80164  1  0
 81165  1  0
 81166  1  0
 81167  1  0
 82 83  2  0
 82168  1  0
 83169  1  0
 84 85  2  0
 85 86  1  0
 86 87  1  6
 86 88  1  0
 86 89  1  0
 89 90  2  0
 90170  1  0
 91 92  2  0
 91171  1  0
 92172  1  0
M  CHG  4  40  -1  85   1  86  -1  89   1
M  END

