
     RDKit          3D

 26 27  0  0  0  0  0  0  0  0999 V2000
    1.0384    0.0162    0.2410 C   0  0  0  0  0  0  0  0  0  0  0  0
    2.5532   -0.1000    0.0367 C   0  0  2  0  0  0  0  0  0  0  0  0
    2.8770   -0.2270   -1.4669 C   0  0  0  0  0  0  0  0  0  0  0  0
    3.1051   -1.3091    0.8149 C   0  0  0  0  0  0  0  0  0  0  0  0
    4.6269   -1.3563    0.8927 C   0  0  0  0  0  0  0  0  0  0  0  0
    5.2335   -2.4107    0.9281 O   0  0  0  0  0  0  0  0  0  0  0  0
    5.2913   -0.0377    0.9937 C   0  0  0  0  0  0  0  0  0  0  0  0
    6.6731    0.0257    1.2562 C   0  0  0  0  0  0  0  0  0  0  0  0
    7.3072    1.2419    1.3986 C   0  0  0  0  0  0  0  0  0  0  0  0
    8.6181    1.3298    1.6555 F   0  0  0  0  0  0  0  0  0  0  0  0
    6.5558    2.4255    1.2735 C   0  0  0  0  0  0  0  0  0  0  0  0
    7.1773    3.5965    1.4103 F   0  0  0  0  0  0  0  0  0  0  0  0
    5.1980    2.3947    1.0032 C   0  0  0  0  0  0  0  0  0  0  0  0
    4.5338    1.1558    0.8573 C   0  0  0  0  0  0  0  0  0  0  0  0
    3.1811    1.1056    0.6055 N   0  0  0  0  0  0  0  0  0  0  0  0
    0.5252   -0.8763   -0.1476 H   0  0  0  0  0  0  0  0  0  0  0  0
    0.6346    0.8912   -0.2961 H   0  0  0  0  0  0  0  0  0  0  0  0
    0.7948    0.1244    1.3085 H   0  0  0  0  0  0  0  0  0  0  0  0
    2.4104   -1.1290   -1.8931 H   0  0  0  0  0  0  0  0  0  0  0  0
    3.9618   -0.2931   -1.6417 H   0  0  0  0  0  0  0  0  0  0  0  0
    2.4950    0.6462   -2.0203 H   0  0  0  0  0  0  0  0  0  0  0  0
    2.7465   -2.2578    0.3909 H   0  0  0  0  0  0  0  0  0  0  0  0
    2.7429   -1.2565    1.8588 H   0  0  0  0  0  0  0  0  0  0  0  0
    7.2305   -0.9084    1.3520 H   0  0  0  0  0  0  0  0  0  0  0  0
    4.6642    3.3422    0.9043 H   0  0  0  0  0  0  0  0  0  0  0  0
    2.7552    1.9833    0.3264 H   0  0  0  0  0  0  0  0  0  0  0  0
  2  1  1  6
  1 16  1  0
  1 17  1  0
  1 18  1  0
  2  3  1  0
  2  4  1  0
  2 15  1  0
  3 19  1  0
  3 20  1  0
  3 21  1  0
  4  5  1  0
  4 22  1  0
  4 23  1  0
  5  6  2  0
  5  7  1  0
  7  8  1  0
  7 14  2  0
  8  9  2  0
  8 24  1  0
  9 10  1  0
  9 11  1  0
 11 12  1  0
 11 13  2  0
 13 14  1  0
 13 25  1  0
 14 15  1  0
 15 26  1  0
M  END

