
     RDKit          3D

 32 32  0  0  0  0  0  0  0  0999 V2000
    1.2783    2.7272   -5.2035 C   0  0  0  0  0  0  0  0  0  0  0  0
    1.6103    2.5527   -3.7260 C   0  0  1  0  0  0  0  0  0  0  0  0
    0.4300    2.0920   -2.8844 C   0  0  0  0  0  0  0  0  0  0  0  0
    2.6390    1.5455   -3.5716 O   0  0  0  0  0  0  0  0  0  0  0  0
    3.9263    1.9466   -3.7070 C   0  0  0  0  0  0  0  0  0  0  0  0
    4.2804    3.0831   -3.9344 O   0  0  0  0  0  0  0  0  0  0  0  0
    4.7535    0.8679   -3.5434 N   0  0  0  0  0  0  0  0  0  0  0  0
    6.1504    0.8971   -3.6197 C   0  0  0  0  0  0  0  0  0  0  0  0
    7.0200    1.9957   -3.8492 C   0  0  0  0  0  0  0  0  0  0  0  0
    8.2918    1.5979   -3.8433 N   0  0  0  0  0  0  0  0  0  0  0  0
    8.2687    0.2838   -3.6184 N   0  0  0  0  0  0  0  0  0  0  0  0
    9.5209   -0.4799   -3.5572 C   0  0  1  0  0  0  0  0  0  0  0  0
   10.2430   -0.4350   -4.9066 C   0  0  0  0  0  0  0  0  0  0  0  0
   10.3957    0.0166   -2.4031 C   0  0  0  0  0  0  0  0  0  0  0  0
    6.9980   -0.1952   -3.4771 C   0  0  0  0  0  0  0  0  0  0  0  0
    0.4845    3.4803   -5.3303 H   0  0  0  0  0  0  0  0  0  0  0  0
    0.9273    1.7777   -5.6391 H   0  0  0  0  0  0  0  0  0  0  0  0
    2.1637    3.0687   -5.7590 H   0  0  0  0  0  0  0  0  0  0  0  0
    2.0154    3.4983   -3.3340 H   0  0  0  0  0  0  0  0  0  0  0  0
    0.0415    1.1273   -3.2483 H   0  0  0  0  0  0  0  0  0  0  0  0
   -0.3839    2.8317   -2.9327 H   0  0  0  0  0  0  0  0  0  0  0  0
    0.7253    1.9700   -1.8313 H   0  0  0  0  0  0  0  0  0  0  0  0
    4.3006   -0.0179   -3.3552 H   0  0  0  0  0  0  0  0  0  0  0  0
    6.7479    3.0343   -4.0127 H   0  0  0  0  0  0  0  0  0  0  0  0
    9.2113   -1.5175   -3.3511 H   0  0  0  0  0  0  0  0  0  0  0  0
   10.5124    0.6013   -5.1584 H   0  0  0  0  0  0  0  0  0  0  0  0
    9.6015   -0.8282   -5.7102 H   0  0  0  0  0  0  0  0  0  0  0  0
   11.1627   -1.0394   -4.8700 H   0  0  0  0  0  0  0  0  0  0  0  0
   10.6660    1.0713   -2.5591 H   0  0  0  0  0  0  0  0  0  0  0  0
   11.3197   -0.5788   -2.3389 H   0  0  0  0  0  0  0  0  0  0  0  0
    9.8640   -0.0634   -1.4425 H   0  0  0  0  0  0  0  0  0  0  0  0
    6.7936   -1.2472   -3.2899 H   0  0  0  0  0  0  0  0  0  0  0  0
  1  2  1  0
  1 16  1  0
  1 17  1  0
  1 18  1  0
  2  3  1  0
  2  4  1  0
  2 19  1  1
  3 20  1  0
  3 21  1  0
  3 22  1  0
  4  5  1  0
  5  6  2  0
  5  7  1  0
  7  8  1  0
  7 23  1  0
  8  9  1  0
  8 15  2  0
  9 10  2  0
  9 24  1  0
 10 11  1  0
 11 12  1  0
 11 15  1  0
 12 13  1  0
 12 14  1  0
 12 25  1  1
 13 26  1  0
 13 27  1  0
 13 28  1  0
 14 29  1  0
 14 30  1  0
 14 31  1  0
 15 32  1  0
M  END

