
     RDKit          3D

 40 41  0  0  0  0  0  0  0  0999 V2000
    0.9747   -0.2422    0.2846 C   0  0  0  0  0  0  0  0  0  0  0  0
    2.3579    0.0940   -0.0715 N   0  0  0  0  0  0  0  0  0  0  0  0
    2.8921    1.3430    0.1516 C   0  0  0  0  0  0  0  0  0  0  0  0
    4.0406    1.6177   -0.1867 O   0  0  0  0  0  0  0  0  0  0  0  0
    2.0461    2.3958    0.8758 C   0  0  1  0  0  0  0  0  0  0  0  0
    2.4951    2.3941    2.3560 C   0  0  0  0  0  0  0  0  0  0  0  0
    1.8690    3.4556    3.2734 C   0  0  0  0  0  0  0  0  0  0  0  0
    2.3505    4.8892    2.9960 C   0  0  0  0  0  0  0  0  0  0  0  0
    1.6234    5.6488    1.8706 C   0  0  0  0  0  0  0  0  0  0  0  0
    1.1966    4.8233    0.6427 C   0  0  0  0  0  0  0  0  0  0  0  0
    2.1849    3.7525    0.1517 C   0  0  0  0  0  0  0  0  0  0  0  0
    3.1672   -0.9642   -0.6170 C   0  0  0  0  0  0  0  0  0  0  0  0
    3.2499   -2.1632    0.1041 C   0  0  0  0  0  0  0  0  0  0  0  0
    3.9108   -3.2721   -0.4211 C   0  0  0  0  0  0  0  0  0  0  0  0
    3.9876   -4.7594    0.5040 Cl  0  0  0  0  0  0  0  0  0  0  0  0
    4.5142   -3.1939   -1.6781 C   0  0  0  0  0  0  0  0  0  0  0  0
    4.4636   -1.9940   -2.3810 C   0  0  0  0  0  0  0  0  0  0  0  0
    3.8010   -0.8522   -1.8827 C   0  0  0  0  0  0  0  0  0  0  0  0
    3.7250    0.3172   -2.6241 N   0  0  0  0  0  0  0  0  0  0  0  0
    0.8001   -0.2239    1.3730 H   0  0  0  0  0  0  0  0  0  0  0  0
    0.7574   -1.2527   -0.0793 H   0  0  0  0  0  0  0  0  0  0  0  0
    0.2604    0.4426   -0.1966 H   0  0  0  0  0  0  0  0  0  0  0  0
    0.9805    2.1248    0.8483 H   0  0  0  0  0  0  0  0  0  0  0  0
    3.5926    2.5104    2.3769 H   0  0  0  0  0  0  0  0  0  0  0  0
    2.2894    1.3931    2.7753 H   0  0  0  0  0  0  0  0  0  0  0  0
    2.1416    3.1899    4.3089 H   0  0  0  0  0  0  0  0  0  0  0  0
    0.7655    3.4013    3.2342 H   0  0  0  0  0  0  0  0  0  0  0  0
    3.4313    4.8447    2.7743 H   0  0  0  0  0  0  0  0  0  0  0  0
    2.2677    5.4872    3.9192 H   0  0  0  0  0  0  0  0  0  0  0  0
    2.2752    6.4772    1.5426 H   0  0  0  0  0  0  0  0  0  0  0  0
    0.7196    6.1321    2.2816 H   0  0  0  0  0  0  0  0  0  0  0  0
    0.9932    5.5269   -0.1820 H   0  0  0  0  0  0  0  0  0  0  0  0
    0.2272    4.3339    0.8464 H   0  0  0  0  0  0  0  0  0  0  0  0
    3.2277    4.1015    0.2193 H   0  0  0  0  0  0  0  0  0  0  0  0
    2.0020    3.5745   -0.9215 H   0  0  0  0  0  0  0  0  0  0  0  0
    2.7846   -2.2340    1.0882 H   0  0  0  0  0  0  0  0  0  0  0  0
    5.0305   -4.0609   -2.0935 H   0  0  0  0  0  0  0  0  0  0  0  0
    4.9529   -1.9266   -3.3569 H   0  0  0  0  0  0  0  0  0  0  0  0
    4.2969    0.3004   -3.4627 H   0  0  0  0  0  0  0  0  0  0  0  0
    3.9214    1.1423   -2.0525 H   0  0  0  0  0  0  0  0  0  0  0  0
  1  2  1  0
  1 20  1  0
  1 21  1  0
  1 22  1  0
  2  3  1  0
  2 12  1  0
  3  4  2  0
  3  5  1  0
  5  6  1  0
  5 11  1  0
  5 23  1  1
  6  7  1  0
  6 24  1  0
  6 25  1  0
  7  8  1  0
  7 26  1  0
  7 27  1  0
  8  9  1  0
  8 28  1  0
  8 29  1  0
  9 10  1  0
  9 30  1  0
  9 31  1  0
 10 11  1  0
 10 32  1  0
 10 33  1  0
 11 34  1  0
 11 35  1  0
 12 13  2  0
 12 18  1  0
 13 14  1  0
 13 36  1  0
 14 15  1  0
 14 16  2  0
 16 17  1  0
 16 37  1  0
 17 18  2  0
 17 38  1  0
 18 19  1  0
 19 39  1  0
 19 40  1  0
M  END

