
     RDKit          3D

 90 93  0  0  0  0  0  0  0  0999 V2000
    5.9996   -5.2000   -0.9201 C   0  0  0  0  0  0  0  0  0  0  0  0
    6.5430   -4.4280    0.2555 C   0  0  0  0  0  0  0  0  0  0  0  0
    6.6885   -4.8469    1.3711 O   0  0  0  0  0  0  0  0  0  0  0  0
    6.8603   -3.1567   -0.1303 O   0  0  0  0  0  0  0  0  0  0  0  0
    7.3993   -2.2479    0.7781 C   0  0  0  0  0  0  0  0  0  0  0  0
    6.7243   -1.9404    1.9833 C   0  0  0  0  0  0  0  0  0  0  0  0
    7.2315   -0.9834    2.8507 C   0  0  0  0  0  0  0  0  0  0  0  0
    8.4247   -0.3341    2.4940 C   0  0  0  0  0  0  0  0  0  0  0  0
    9.1468    0.6346    3.1402 N   0  0  0  0  0  0  0  0  0  0  0  0
    8.9495    1.0825    4.0280 H   0  0  0  0  0  0  0  0  0  0  0  0
   10.2546    0.9645    2.3910 C   0  0  0  0  0  0  0  0  0  0  0  0
   11.1574    1.9985    2.9466 C   0  0  0  0  0  0  0  0  0  0  0  0
   10.9219    2.5153    4.0381 O   0  0  0  0  0  0  0  0  0  0  0  0
   12.2538    2.3144    2.2055 N   0  0  0  0  0  0  0  0  0  0  0  0
   13.1650    3.3659    2.5879 C   0  0  1  0  0  0  0  0  0  0  0  0
   12.5902    4.2237    2.9767 H   0  0  0  0  0  0  0  0  0  0  0  0
   14.1401    2.9330    3.7244 C   0  0  0  0  0  0  0  0  0  0  0  0
   15.1713    1.9114    3.2649 C   0  0  0  0  0  0  0  0  0  0  0  0
   14.8055    0.6135    3.3377 N   0  0  0  0  0  0  0  0  0  0  0  0
   16.2725    2.2498    2.8279 O   0  0  0  0  0  0  0  0  0  0  0  0
   13.9506    3.7644    1.3220 C   0  0  0  0  0  0  0  0  0  0  0  0
   13.9291    3.0435    0.3340 O   0  0  0  0  0  0  0  0  0  0  0  0
   14.6878    4.8961    1.4254 N   0  0  0  0  0  0  0  0  0  0  0  0
   15.8496    5.1294    0.5708 C   0  0  1  0  0  0  0  0  0  0  0  0
   16.0293    4.1912    0.0306 H   0  0  0  0  0  0  0  0  0  0  0  0
   15.6100    6.2125   -0.5096 C   0  0  0  0  0  0  0  0  0  0  0  0
   15.2727    7.5953    0.0036 C   0  0  0  0  0  0  0  0  0  0  0  0
   16.2476    8.6060    0.0628 C   0  0  0  0  0  0  0  0  0  0  0  0
   15.9426    9.8791    0.5547 C   0  0  0  0  0  0  0  0  0  0  0  0
   14.6491   10.1685    0.9968 C   0  0  0  0  0  0  0  0  0  0  0  0
   13.6640    9.1777    0.9353 C   0  0  0  0  0  0  0  0  0  0  0  0
   13.9731    7.9073    0.4419 C   0  0  0  0  0  0  0  0  0  0  0  0
   17.0853    5.4188    1.4757 C   0  0  1  0  0  0  0  0  0  0  0  0
   16.9534    4.9080    2.7805 O   0  0  0  0  0  0  0  0  0  0  0  0
   18.3729    4.9132    0.7847 C   0  0  0  0  0  0  0  0  0  0  0  0
   18.3383    4.4372   -0.3548 O   0  0  0  0  0  0  0  0  0  0  0  0
   19.5272    5.0030    1.4859 N   0  0  0  0  0  0  0  0  0  0  0  0
   19.7639    5.6901    2.7620 C   0  0  0  0  0  0  0  0  0  0  0  0
   21.1307    6.3415    2.5370 C   0  0  0  0  0  0  0  0  0  0  0  0
   21.8898    5.2989    1.6988 C   0  0  0  0  0  0  0  0  0  0  0  0
   20.8086    4.5489    0.8967 C   0  0  1  0  0  0  0  0  0  0  0  0
   20.7981    4.8122   -0.1725 H   0  0  0  0  0  0  0  0  0  0  0  0
   20.9583    3.0002    1.0198 C   0  0  0  0  0  0  0  0  0  0  0  0
   21.7273    2.4963    1.8285 O   0  0  0  0  0  0  0  0  0  0  0  0
   20.1621    2.3102    0.1702 N   0  0  0  0  0  0  0  0  0  0  0  0
   19.9789    0.8424    0.1636 C   0  0  1  0  0  0  0  0  0  0  0  0
   19.4502    0.3661    1.5312 C   0  0  0  0  0  0  0  0  0  0  0  0
   18.9424    0.5424   -0.9301 C   0  0  0  0  0  0  0  0  0  0  0  0
   21.3117    0.1482   -0.1707 C   0  0  0  0  0  0  0  0  0  0  0  0
   10.2678    0.2043    1.2330 C   0  0  0  0  0  0  0  0  0  0  0  0
    9.1085   -0.6351    1.2757 C   0  0  0  0  0  0  0  0  0  0  0  0
    8.5756   -1.6147    0.4118 C   0  0  0  0  0  0  0  0  0  0  0  0
    5.7109   -6.2069   -0.5965 H   0  0  0  0  0  0  0  0  0  0  0  0
    6.7637   -5.2631   -1.7103 H   0  0  0  0  0  0  0  0  0  0  0  0
    5.1336   -4.6732   -1.3489 H   0  0  0  0  0  0  0  0  0  0  0  0
    5.8029   -2.4679    2.2291 H   0  0  0  0  0  0  0  0  0  0  0  0
    6.7129   -0.7466    3.7823 H   0  0  0  0  0  0  0  0  0  0  0  0
   12.4031    1.9541    1.2639 H   0  0  0  0  0  0  0  0  0  0  0  0
   13.5237    2.5505    4.5513 H   0  0  0  0  0  0  0  0  0  0  0  0
   14.6939    3.8083    4.0911 H   0  0  0  0  0  0  0  0  0  0  0  0
   13.8751    0.3375    3.6229 H   0  0  0  0  0  0  0  0  0  0  0  0
   15.4382   -0.0904    2.9726 H   0  0  0  0  0  0  0  0  0  0  0  0
   14.7040    5.3605    2.3272 H   0  0  0  0  0  0  0  0  0  0  0  0
   14.7962    5.8447   -1.1545 H   0  0  0  0  0  0  0  0  0  0  0  0
   16.5164    6.2467   -1.1326 H   0  0  0  0  0  0  0  0  0  0  0  0
   17.2595    8.3960   -0.2969 H   0  0  0  0  0  0  0  0  0  0  0  0
   16.7179   10.6493    0.5858 H   0  0  0  0  0  0  0  0  0  0  0  0
   14.4067   11.1635    1.3786 H   0  0  0  0  0  0  0  0  0  0  0  0
   12.6454    9.3984    1.2659 H   0  0  0  0  0  0  0  0  0  0  0  0
   13.1926    7.1445    0.3847 H   0  0  0  0  0  0  0  0  0  0  0  0
   17.1820    6.5125    1.5972 H   0  0  0  0  0  0  0  0  0  0  0  0
   16.8212    3.9305    2.7524 H   0  0  0  0  0  0  0  0  0  0  0  0
   19.7958    4.9581    3.5871 H   0  0  0  0  0  0  0  0  0  0  0  0
   18.9615    6.4008    2.9896 H   0  0  0  0  0  0  0  0  0  0  0  0
   21.6398    6.5841    3.4819 H   0  0  0  0  0  0  0  0  0  0  0  0
   21.0020    7.2817    1.9747 H   0  0  0  0  0  0  0  0  0  0  0  0
   22.3992    4.5681    2.3432 H   0  0  0  0  0  0  0  0  0  0  0  0
   22.6447    5.7515    1.0399 H   0  0  0  0  0  0  0  0  0  0  0  0
   19.5009    2.8740   -0.3677 H   0  0  0  0  0  0  0  0  0  0  0  0
   18.4964    0.8602    1.7766 H   0  0  0  0  0  0  0  0  0  0  0  0
   20.1758    0.5966    2.3236 H   0  0  0  0  0  0  0  0  0  0  0  0
   19.2862   -0.7240    1.5160 H   0  0  0  0  0  0  0  0  0  0  0  0
   17.9854    1.0457   -0.7177 H   0  0  0  0  0  0  0  0  0  0  0  0
   18.7538   -0.5403   -0.9901 H   0  0  0  0  0  0  0  0  0  0  0  0
   19.2981    0.8810   -1.9168 H   0  0  0  0  0  0  0  0  0  0  0  0
   22.0707    0.3869    0.5865 H   0  0  0  0  0  0  0  0  0  0  0  0
   21.6832    0.4777   -1.1542 H   0  0  0  0  0  0  0  0  0  0  0  0
   21.1750   -0.9447   -0.2028 H   0  0  0  0  0  0  0  0  0  0  0  0
   11.0140    0.2371    0.4412 H   0  0  0  0  0  0  0  0  0  0  0  0
    9.0600   -1.8766   -0.5306 H   0  0  0  0  0  0  0  0  0  0  0  0
  1  2  1  0
  1 53  1  0
  1 54  1  0
  1 55  1  0
  2  3  2  0
  2  4  1  0
  4  5  1  0
  5  6  2  0
  5 52  1  0
  6  7  1  0
  6 56  1  0
  7  8  2  0
  7 57  1  0
  8  9  1  0
  8 51  1  0
  9 10  1  0
  9 11  1  0
 11 12  1  0
 11 50  2  0
 12 13  2  0
 12 14  1  0
 14 15  1  0
 14 58  1  0
 15 16  1  1
 15 17  1  0
 15 21  1  0
 17 18  1  0
 17 59  1  0
 17 60  1  0
 18 19  1  0
 18 20  2  0
 19 61  1  0
 19 62  1  0
 21 22  2  0
 21 23  1  0
 23 24  1  0
 23 63  1  0
 24 25  1  6
 24 26  1  0
 24 33  1  0
 26 27  1  0
 26 64  1  0
 26 65  1  0
 27 28  2  0
 27 32  1  0
 28 29  1  0
 28 66  1  0
 29 30  2  0
 29 67  1  0
 30 31  1  0
 30 68  1  0
 31 32  2  0
 31 69  1  0
 32 70  1  0
 33 34  1  0
 33 35  1  0
 33 71  1  1
 34 72  1  0
 35 36  2  0
 35 37  1  0
 37 38  1  0
 37 41  1  0
 38 39  1  0
 38 73  1  0
 38 74  1  0
 39 40  1  0
 39 75  1  0
 39 76  1  0
 40 41  1  0
 40 77  1  0
 40 78  1  0
 41 42  1  6
 41 43  1  0
 43 44  2  0
 43 45  1  0
 46 45  1  1
 45 79  1  0
 46 47  1  0
 46 48  1  0
 46 49  1  0
 47 80  1  0
 47 81  1  0
 47 82  1  0
 48 83  1  0
 48 84  1  0
 48 85  1  0
 49 86  1  0
 49 87  1  0
 49 88  1  0
 50 51  1  0
 50 89  1  0
 51 52  2  0
 52 90  1  0
M  END

