
     RDKit          3D

 81 86  0  0  0  0  0  0  0  0999 V2000
   -2.2028   -4.9090   -2.7617 C   0  0  0  0  0  0  0  0  0  0  0  0
   -0.9410   -5.4750   -3.3668 C   0  0  0  0  0  0  0  0  0  0  0  0
   -0.9849   -6.1896   -4.5684 C   0  0  0  0  0  0  0  0  0  0  0  0
    0.1610   -6.7270   -5.1584 C   0  0  0  0  0  0  0  0  0  0  0  0
    1.3833   -6.5386   -4.5157 C   0  0  0  0  0  0  0  0  0  0  0  0
    2.8433   -7.1898   -5.2394 Cl  0  0  0  0  0  0  0  0  0  0  0  0
    1.4820   -5.8370   -3.3146 C   0  0  0  0  0  0  0  0  0  0  0  0
    0.3190   -5.2993   -2.7387 C   0  0  0  0  0  0  0  0  0  0  0  0
    0.3550   -4.5538   -1.5446 N   0  0  0  0  0  0  0  0  0  0  0  0
    1.4099   -4.3213   -0.6873 C   0  0  0  0  0  0  0  0  0  0  0  0
    2.5237   -4.7927   -0.8366 O   0  0  0  0  0  0  0  0  0  0  0  0
    1.0425   -3.4086    0.4860 C   0  0  1  0  0  0  0  0  0  0  0  0
    0.9726   -4.4200    2.0712 S   0  0  0  0  0  0  0  0  0  0  0  0
    2.6821   -4.6634    2.5395 C   0  0  0  0  0  0  0  0  0  0  0  0
    3.3618   -3.6773    3.2713 C   0  0  0  0  0  0  0  0  0  0  0  0
    4.6672   -3.9267    3.6976 C   0  0  0  0  0  0  0  0  0  0  0  0
    5.3013   -5.1421    3.4317 C   0  0  0  0  0  0  0  0  0  0  0  0
    4.6146   -6.1392    2.7138 C   0  0  0  0  0  0  0  0  0  0  0  0
    5.1634   -7.4019    2.4211 N   0  0  0  0  0  0  0  0  0  0  0  0
    6.3969   -7.9139    2.7732 C   0  0  0  0  0  0  0  0  0  0  0  0
    7.2405   -7.2762    3.3821 O   0  0  0  0  0  0  0  0  0  0  0  0
    6.6012   -9.3400    2.3297 C   0  0  0  0  0  0  0  0  0  0  0  0
    7.2542  -10.2942    3.0388 C   0  0  0  0  0  0  0  0  0  0  0  0
    7.8960  -10.2923    4.3638 C   0  0  0  0  0  0  0  0  0  0  0  0
    8.7941   -9.3145    4.7755 C   0  0  0  0  0  0  0  0  0  0  0  0
    9.4693   -9.4120    6.0142 C   0  0  0  0  0  0  0  0  0  0  0  0
    9.2523  -10.4858    6.8486 C   0  0  0  0  0  0  0  0  0  0  0  0
    8.3402  -11.5142    6.4816 C   0  0  0  0  0  0  0  0  0  0  0  0
    8.0966  -12.6262    7.3356 C   0  0  0  0  0  0  0  0  0  0  0  0
    7.2029  -13.6137    6.9794 C   0  0  0  0  0  0  0  0  0  0  0  0
    6.5068  -13.5223    5.7502 C   0  0  0  0  0  0  0  0  0  0  0  0
    6.7180  -12.4559    4.8980 C   0  0  0  0  0  0  0  0  0  0  0  0
    7.6469  -11.4261    5.2267 C   0  0  0  0  0  0  0  0  0  0  0  0
    5.9427   -9.6694    1.1101 N   0  0  0  0  0  0  0  0  0  0  0  0
    5.3273  -10.8656    0.7825 C   0  0  0  0  0  0  0  0  0  0  0  0
    5.2708  -11.8184    1.5423 O   0  0  0  0  0  0  0  0  0  0  0  0
    4.7228  -10.9265   -0.5963 C   0  0  0  0  0  0  0  0  0  0  0  0
    4.4055  -12.2024   -1.0910 C   0  0  0  0  0  0  0  0  0  0  0  0
    3.8408  -12.3505   -2.3575 C   0  0  0  0  0  0  0  0  0  0  0  0
    3.5744  -11.2234   -3.1422 C   0  0  0  0  0  0  0  0  0  0  0  0
    3.8697   -9.9470   -2.6540 C   0  0  0  0  0  0  0  0  0  0  0  0
    4.4399   -9.7996   -1.3873 C   0  0  0  0  0  0  0  0  0  0  0  0
    3.3064   -5.8844    2.2640 C   0  0  0  0  0  0  0  0  0  0  0  0
    1.8535   -2.1355    0.5900 C   0  0  0  0  0  0  0  0  0  0  0  0
    3.2207   -2.0767    0.2727 C   0  0  0  0  0  0  0  0  0  0  0  0
    3.9235   -0.8743    0.4011 C   0  0  0  0  0  0  0  0  0  0  0  0
    3.2807    0.2800    0.8540 C   0  0  0  0  0  0  0  0  0  0  0  0
    1.9209    0.2291    1.1796 C   0  0  0  0  0  0  0  0  0  0  0  0
    1.2163   -0.9679    1.0471 C   0  0  0  0  0  0  0  0  0  0  0  0
   -3.0795   -5.1656   -3.3722 H   0  0  0  0  0  0  0  0  0  0  0  0
   -2.1732   -3.8061   -2.6911 H   0  0  0  0  0  0  0  0  0  0  0  0
   -2.3870   -5.3005   -1.7455 H   0  0  0  0  0  0  0  0  0  0  0  0
   -1.9507   -6.3316   -5.0608 H   0  0  0  0  0  0  0  0  0  0  0  0
    0.1073   -7.2803   -6.0966 H   0  0  0  0  0  0  0  0  0  0  0  0
    2.4397   -5.6989   -2.8210 H   0  0  0  0  0  0  0  0  0  0  0  0
   -0.5232   -4.1268   -1.2819 H   0  0  0  0  0  0  0  0  0  0  0  0
   -0.0182   -3.1251    0.4096 H   0  0  0  0  0  0  0  0  0  0  0  0
    2.8661   -2.7341    3.5040 H   0  0  0  0  0  0  0  0  0  0  0  0
    5.2051   -3.1622    4.2640 H   0  0  0  0  0  0  0  0  0  0  0  0
    6.3121   -5.3386    3.7796 H   0  0  0  0  0  0  0  0  0  0  0  0
    4.5315   -8.0548    1.9706 H   0  0  0  0  0  0  0  0  0  0  0  0
    7.2228  -11.2795    2.5716 H   0  0  0  0  0  0  0  0  0  0  0  0
    8.9816   -8.4640    4.1242 H   0  0  0  0  0  0  0  0  0  0  0  0
   10.1733   -8.6261    6.2994 H   0  0  0  0  0  0  0  0  0  0  0  0
    9.7776  -10.5643    7.8046 H   0  0  0  0  0  0  0  0  0  0  0  0
    8.6328  -12.6809    8.2872 H   0  0  0  0  0  0  0  0  0  0  0  0
    7.0250  -14.4622    7.6451 H   0  0  0  0  0  0  0  0  0  0  0  0
    5.7893  -14.2995    5.4746 H   0  0  0  0  0  0  0  0  0  0  0  0
    6.1501  -12.3958    3.9675 H   0  0  0  0  0  0  0  0  0  0  0  0
    6.0388   -8.9958    0.3585 H   0  0  0  0  0  0  0  0  0  0  0  0
    4.6134  -13.0667   -0.4579 H   0  0  0  0  0  0  0  0  0  0  0  0
    3.6058  -13.3491   -2.7345 H   0  0  0  0  0  0  0  0  0  0  0  0
    3.1304  -11.3355   -4.1346 H   0  0  0  0  0  0  0  0  0  0  0  0
    3.6505   -9.0652   -3.2597 H   0  0  0  0  0  0  0  0  0  0  0  0
    4.6321   -8.7868   -1.0223 H   0  0  0  0  0  0  0  0  0  0  0  0
    2.7650   -6.6419    1.6928 H   0  0  0  0  0  0  0  0  0  0  0  0
    3.7261   -2.9749   -0.0809 H   0  0  0  0  0  0  0  0  0  0  0  0
    4.9858   -0.8445    0.1458 H   0  0  0  0  0  0  0  0  0  0  0  0
    3.8349    1.2169    0.9530 H   0  0  0  0  0  0  0  0  0  0  0  0
    1.4061    1.1259    1.5338 H   0  0  0  0  0  0  0  0  0  0  0  0
    0.1543   -1.0002    1.3082 H   0  0  0  0  0  0  0  0  0  0  0  0
  1  2  1  0
  1 50  1  0
  1 51  1  0
  1 52  1  0
  2  3  2  0
  2  8  1  0
  3  4  1  0
  3 53  1  0
  4  5  2  0
  4 54  1  0
  5  6  1  0
  5  7  1  0
  7  8  2  0
  7 55  1  0
  8  9  1  0
  9 10  1  0
  9 56  1  0
 10 11  2  0
 10 12  1  0
 12 13  1  0
 12 44  1  0
 12 57  1  6
 13 14  1  0
 14 15  2  0
 14 43  1  0
 15 16  1  0
 15 58  1  0
 16 17  2  0
 16 59  1  0
 17 18  1  0
 17 60  1  0
 18 19  1  0
 18 43  2  0
 19 20  1  0
 19 61  1  0
 20 21  2  0
 20 22  1  0
 22 23  2  0
 22 34  1  0
 23 24  1  0
 23 62  1  0
 24 25  2  0
 24 33  1  0
 25 26  1  0
 25 63  1  0
 26 27  2  0
 26 64  1  0
 27 28  1  0
 27 65  1  0
 28 29  1  0
 28 33  2  0
 29 30  2  0
 29 66  1  0
 30 31  1  0
 30 67  1  0
 31 32  2  0
 31 68  1  0
 32 33  1  0
 32 69  1  0
 34 35  1  0
 34 70  1  0
 35 36  2  0
 35 37  1  0
 37 38  2  0
 37 42  1  0
 38 39  1  0
 38 71  1  0
 39 40  2  0
 39 72  1  0
 40 41  1  0
 40 73  1  0
 41 42  2  0
 41 74  1  0
 42 75  1  0
 43 76  1  0
 44 45  2  0
 44 49  1  0
 45 46  1  0
 45 77  1  0
 46 47  2  0
 46 78  1  0
 47 48  1  0
 47 79  1  0
 48 49  2  0
 48 80  1  0
 49 81  1  0
M  END

