
     RDKit          3D

 38 40  0  0  0  0  0  0  0  0999 V2000
    1.0711    2.7768   -1.9483 C   0  0  0  0  0  0  0  0  0  0  0  0
    2.5888    2.7104   -2.0823 C   0  0  0  0  0  0  0  0  0  0  0  0
    3.0782    0.9361   -1.9412 S   0  0  0  0  0  0  0  0  0  0  0  0
    4.8017    0.8673   -2.1551 C   0  0  0  0  0  0  0  0  0  0  0  0
    5.5446   -0.2724   -2.2170 C   0  0  0  0  0  0  0  0  0  0  0  0
    5.1080   -1.6743   -2.0823 C   0  0  0  0  0  0  0  0  0  0  0  0
    4.4684   -2.1088   -0.9072 C   0  0  0  0  0  0  0  0  0  0  0  0
    4.0643   -3.4308   -0.7332 C   0  0  0  0  0  0  0  0  0  0  0  0
    4.2980   -4.3510   -1.7591 C   0  0  0  0  0  0  0  0  0  0  0  0
    3.8052   -6.0123   -1.5624 Cl  0  0  0  0  0  0  0  0  0  0  0  0
    4.9169   -3.9577   -2.9474 C   0  0  0  0  0  0  0  0  0  0  0  0
    5.3116   -2.6270   -3.1015 C   0  0  0  0  0  0  0  0  0  0  0  0
    6.0214   -2.1542   -4.6247 Cl  0  0  0  0  0  0  0  0  0  0  0  0
    6.9776    0.1046   -2.3757 C   0  0  0  0  0  0  0  0  0  0  0  0
    7.9389   -0.6201   -2.4037 O   0  0  0  0  0  0  0  0  0  0  0  0
    7.0226    1.5288   -2.4564 N   0  0  0  0  0  0  0  0  0  0  0  0
    8.2054    2.2940   -2.6338 C   0  0  0  0  0  0  0  0  0  0  0  0
    9.2459    1.7970   -3.4375 C   0  0  0  0  0  0  0  0  0  0  0  0
   10.4102    2.5393   -3.6094 C   0  0  0  0  0  0  0  0  0  0  0  0
   10.5526    3.7961   -2.9935 C   0  0  0  0  0  0  0  0  0  0  0  0
   11.7514    4.5648   -3.1778 C   0  0  0  0  0  0  0  0  0  0  0  0
   12.7203    5.1874   -3.3268 N   0  0  0  0  0  0  0  0  0  0  0  0
    9.5056    4.2915   -2.1955 C   0  0  0  0  0  0  0  0  0  0  0  0
    8.3449    3.5461   -2.0113 C   0  0  0  0  0  0  0  0  0  0  0  0
    5.7324    2.0523   -2.3120 C   0  0  0  0  0  0  0  0  0  0  0  0
    5.4350    3.2232   -2.3166 O   0  0  0  0  0  0  0  0  0  0  0  0
    0.7435    3.8251   -2.0275 H   0  0  0  0  0  0  0  0  0  0  0  0
    0.7303    2.3898   -0.9750 H   0  0  0  0  0  0  0  0  0  0  0  0
    0.5659    2.2037   -2.7414 H   0  0  0  0  0  0  0  0  0  0  0  0
    3.0959    3.2842   -1.2968 H   0  0  0  0  0  0  0  0  0  0  0  0
    2.9313    3.0955   -3.0514 H   0  0  0  0  0  0  0  0  0  0  0  0
    4.2972   -1.3878   -0.1050 H   0  0  0  0  0  0  0  0  0  0  0  0
    3.5776   -3.7512    0.1887 H   0  0  0  0  0  0  0  0  0  0  0  0
    5.0830   -4.6745   -3.7511 H   0  0  0  0  0  0  0  0  0  0  0  0
    9.1480    0.8248   -3.9166 H   0  0  0  0  0  0  0  0  0  0  0  0
   11.2166    2.1475   -4.2319 H   0  0  0  0  0  0  0  0  0  0  0  0
    9.6079    5.2650   -1.7126 H   0  0  0  0  0  0  0  0  0  0  0  0
    7.5405    3.9423   -1.3950 H   0  0  0  0  0  0  0  0  0  0  0  0
  1  2  1  0
  1 27  1  0
  1 28  1  0
  1 29  1  0
  2  3  1  0
  2 30  1  0
  2 31  1  0
  3  4  2  0
  4  5  1  0
  4 25  1  0
  5  6  1  0
  5 14  2  0
  6  7  2  0
  6 12  1  0
  7  8  1  0
  7 32  1  0
  8  9  2  0
  8 33  1  0
  9 10  1  0
  9 11  1  0
 11 12  2  0
 11 34  1  0
 12 13  1  0
 14 15  1  0
 14 16  1  0
 16 17  1  0
 16 25  1  0
 17 18  2  0
 17 24  1  0
 18 19  1  0
 18 35  1  0
 19 20  2  0
 19 36  1  0
 20 21  1  0
 20 23  1  0
 21 22  3  0
 23 24  2  0
 23 37  1  0
 24 38  1  0
 25 26  2  0
M  CHG  2   3   1  15  -1
M  END

