
     RDKit          3D

 34 35  0  0  0  0  0  0  0  0999 V2000
    1.1430    0.2599    0.1716 N   0  0  0  0  0  0  0  0  0  0  0  0
    2.2425    0.5772    0.3685 C   0  0  0  0  0  0  0  0  0  0  0  0
    3.6067    0.9649    0.6065 C   0  0  0  0  0  0  0  0  0  0  0  0
    3.7943    1.9691    1.6142 C   0  0  0  0  0  0  0  0  0  0  0  0
    3.9246    2.7831    2.4325 N   0  0  0  0  0  0  0  0  0  0  0  0
    4.6071    0.3723   -0.1178 C   0  0  0  0  0  0  0  0  0  0  0  0
    6.0510    0.5544   -0.1002 C   0  0  0  0  0  0  0  0  0  0  0  0
    6.7441    1.4551    0.7420 C   0  0  0  0  0  0  0  0  0  0  0  0
    8.1305    1.5458    0.6649 C   0  0  0  0  0  0  0  0  0  0  0  0
    8.8491    0.7535   -0.2388 C   0  0  0  0  0  0  0  0  0  0  0  0
    8.1897   -0.1540   -1.0794 C   0  0  0  0  0  0  0  0  0  0  0  0
    8.9724   -1.0628   -2.0171 C   0  0  0  0  0  0  0  0  0  0  0  0
    8.2719   -1.3517   -3.2577 N   0  0  0  0  0  0  0  0  0  0  0  0
    8.2055   -0.2419   -4.2077 C   0  0  0  0  0  0  0  0  0  0  0  0
    9.5001    0.0134   -4.9917 C   0  0  0  0  0  0  0  0  0  0  0  0
   10.0175   -1.4488   -5.9724 S   0  0  0  0  0  0  0  0  0  0  0  0
    9.9275   -2.6872   -4.6224 C   0  0  0  0  0  0  0  0  0  0  0  0
    8.5825   -2.6322   -3.8846 C   0  0  0  0  0  0  0  0  0  0  0  0
    6.7972   -0.2382   -1.0005 C   0  0  0  0  0  0  0  0  0  0  0  0
    4.2568   -0.3713   -0.8394 H   0  0  0  0  0  0  0  0  0  0  0  0
    6.2070    2.0851    1.4495 H   0  0  0  0  0  0  0  0  0  0  0  0
    8.6609    2.2478    1.3126 H   0  0  0  0  0  0  0  0  0  0  0  0
    9.9382    0.8444   -0.2909 H   0  0  0  0  0  0  0  0  0  0  0  0
    9.1362   -2.0244   -1.4990 H   0  0  0  0  0  0  0  0  0  0  0  0
    9.9856   -0.6287   -2.1574 H   0  0  0  0  0  0  0  0  0  0  0  0
    7.9237    0.6720   -3.6578 H   0  0  0  0  0  0  0  0  0  0  0  0
    7.3945   -0.4500   -4.9268 H   0  0  0  0  0  0  0  0  0  0  0  0
   10.3235    0.3171   -4.3234 H   0  0  0  0  0  0  0  0  0  0  0  0
    9.3539    0.8263   -5.7196 H   0  0  0  0  0  0  0  0  0  0  0  0
   10.7722   -2.5413   -3.9274 H   0  0  0  0  0  0  0  0  0  0  0  0
   10.0632   -3.6674   -5.1053 H   0  0  0  0  0  0  0  0  0  0  0  0
    8.5580   -3.4154   -3.1071 H   0  0  0  0  0  0  0  0  0  0  0  0
    7.7803   -2.8649   -4.6065 H   0  0  0  0  0  0  0  0  0  0  0  0
    6.2852   -0.9340   -1.6699 H   0  0  0  0  0  0  0  0  0  0  0  0
  1  2  3  0
  2  3  1  0
  3  4  1  0
  3  6  2  0
  4  5  3  0
  6  7  1  0
  6 20  1  0
  7  8  2  0
  7 19  1  0
  8  9  1  0
  8 21  1  0
  9 10  2  0
  9 22  1  0
 10 11  1  0
 10 23  1  0
 11 12  1  0
 11 19  2  0
 12 13  1  0
 12 24  1  0
 12 25  1  0
 13 14  1  0
 13 18  1  0
 14 15  1  0
 14 26  1  0
 14 27  1  0
 15 16  1  0
 15 28  1  0
 15 29  1  0
 16 17  1  0
 17 18  1  0
 17 30  1  0
 17 31  1  0
 18 32  1  0
 18 33  1  0
 19 34  1  0
M  END

