
     RDKit          3D

 45 48  0  0  0  0  0  0  0  0999 V2000
    1.9050   -1.0416   -0.3175 C   0  0  0  0  0  0  0  0  0  0  0  0
    3.3301   -1.0409    0.2517 C   0  0  2  0  0  0  0  0  0  0  0  0
    4.3182   -1.8080   -0.6516 C   0  0  2  0  0  0  0  0  0  0  0  0
    3.8350   -3.2547   -0.8184 C   0  0  0  0  0  0  0  0  0  0  0  0
    3.4759   -3.8983    0.5053 C   0  0  0  0  0  0  0  0  0  0  0  0
    3.3289   -5.2914    0.5717 C   0  0  0  0  0  0  0  0  0  0  0  0
    2.9746   -5.9466    1.7496 C   0  0  0  0  0  0  0  0  0  0  0  0
    2.7605   -5.1915    2.9087 C   0  0  0  0  0  0  0  0  0  0  0  0
    2.4145   -5.7518    4.1013 O   0  0  0  0  0  0  0  0  0  0  0  0
    2.9025   -3.8015    2.8595 C   0  0  0  0  0  0  0  0  0  0  0  0
    3.2578   -3.1350    1.6764 C   0  0  0  0  0  0  0  0  0  0  0  0
    3.4568   -1.6048    1.6937 C   0  0  2  0  0  0  0  0  0  0  0  0
    2.4447   -0.9192    2.6323 C   0  0  0  0  0  0  0  0  0  0  0  0
    4.9098   -1.2719    2.1991 C   0  0  0  0  0  0  0  0  0  0  0  0
    5.8873   -0.9377    1.0650 C   0  0  0  0  0  0  0  0  0  0  0  0
    5.6721   -1.8060   -0.0751 N   0  0  0  0  0  0  0  0  0  0  0  0
    6.7712   -1.9048   -1.0170 C   0  0  0  0  0  0  0  0  0  0  0  0
    7.0792   -0.6705   -1.8616 C   0  0  1  0  0  0  0  0  0  0  0  0
    7.9706   -0.8032   -3.0702 C   0  0  0  0  0  0  0  0  0  0  0  0
    6.5062   -0.4927   -3.2479 C   0  0  0  0  0  0  0  0  0  0  0  0
    1.9141   -0.7668   -1.3852 H   0  0  0  0  0  0  0  0  0  0  0  0
    1.2702   -0.3084    0.2012 H   0  0  0  0  0  0  0  0  0  0  0  0
    1.4158   -2.0235   -0.2266 H   0  0  0  0  0  0  0  0  0  0  0  0
    3.6524    0.0134    0.2872 H   0  0  0  0  0  0  0  0  0  0  0  0
    4.3189   -1.3125   -1.6415 H   0  0  0  0  0  0  0  0  0  0  0  0
    4.6171   -3.8487   -1.3192 H   0  0  0  0  0  0  0  0  0  0  0  0
    2.9623   -3.2815   -1.4963 H   0  0  0  0  0  0  0  0  0  0  0  0
    3.5004   -5.8840   -0.3323 H   0  0  0  0  0  0  0  0  0  0  0  0
    2.8686   -7.0361    1.7705 H   0  0  0  0  0  0  0  0  0  0  0  0
    2.3541   -6.7101    3.9971 H   0  0  0  0  0  0  0  0  0  0  0  0
    2.7323   -3.2542    3.7870 H   0  0  0  0  0  0  0  0  0  0  0  0
    1.4104   -1.2384    2.4366 H   0  0  0  0  0  0  0  0  0  0  0  0
    2.4979    0.1751    2.5085 H   0  0  0  0  0  0  0  0  0  0  0  0
    2.6643   -1.1327    3.6894 H   0  0  0  0  0  0  0  0  0  0  0  0
    5.2910   -2.1271    2.7766 H   0  0  0  0  0  0  0  0  0  0  0  0
    4.8703   -0.4131    2.8902 H   0  0  0  0  0  0  0  0  0  0  0  0
    6.9210   -1.0878    1.4189 H   0  0  0  0  0  0  0  0  0  0  0  0
    5.8137    0.1453    0.8130 H   0  0  0  0  0  0  0  0  0  0  0  0
    7.6791   -2.1707   -0.4449 H   0  0  0  0  0  0  0  0  0  0  0  0
    6.5851   -2.7569   -1.6963 H   0  0  0  0  0  0  0  0  0  0  0  0
    7.2116    0.2493   -1.2799 H   0  0  0  0  0  0  0  0  0  0  0  0
    8.3162   -1.8074   -3.3386 H   0  0  0  0  0  0  0  0  0  0  0  0
    8.7014   -0.0147   -3.2713 H   0  0  0  0  0  0  0  0  0  0  0  0
    5.8651   -1.2862   -3.6451 H   0  0  0  0  0  0  0  0  0  0  0  0
    6.2207    0.5124   -3.5724 H   0  0  0  0  0  0  0  0  0  0  0  0
  1  2  1  0
  1 21  1  0
  1 22  1  0
  1 23  1  0
  2  3  1  0
  2 12  1  0
  2 24  1  1
  3  4  1  0
  3 16  1  0
  3 25  1  6
  4  5  1  0
  4 26  1  0
  4 27  1  0
  5  6  1  0
  5 11  2  0
  6  7  2  0
  6 28  1  0
  7  8  1  0
  7 29  1  0
  8  9  1  0
  8 10  2  0
  9 30  1  0
 10 11  1  0
 10 31  1  0
 11 12  1  0
 12 13  1  1
 12 14  1  0
 13 32  1  0
 13 33  1  0
 13 34  1  0
 14 15  1  0
 14 35  1  0
 14 36  1  0
 15 16  1  0
 15 37  1  0
 15 38  1  0
 16 17  1  0
 17 18  1  0
 17 39  1  0
 17 40  1  0
 18 19  1  0
 18 20  1  0
 18 41  1  1
 19 20  1  0
 19 42  1  0
 19 43  1  0
 20 44  1  0
 20 45  1  0
M  END

