
     RDKit          3D

 35 36  0  0  0  0  0  0  0  0999 V2000
    4.1118    5.2165    2.5892 C   0  0  0  0  0  0  0  0  0  0  0  0
    3.9129    4.0149    3.2801 O   0  0  0  0  0  0  0  0  0  0  0  0
    4.6175    2.9220    2.7419 C   0  0  0  0  0  0  0  0  0  0  0  0
    4.3365    1.6713    3.5712 C   0  0  1  0  0  0  0  0  0  0  0  0
    2.8490    1.3093    3.5607 C   0  0  0  0  0  0  0  0  0  0  0  0
    5.1890    0.4797    3.0896 C   0  0  0  0  0  0  0  0  0  0  0  0
    6.6234    0.6544    3.1923 N   0  0  0  0  0  0  0  0  0  0  0  0
    7.3234    0.4734    4.3442 C   0  0  0  0  0  0  0  0  0  0  0  0
    8.6690    0.6495    4.3970 N   0  0  0  0  0  0  0  0  0  0  0  0
    8.9617    0.3641    5.6641 C   0  0  0  0  0  0  0  0  0  0  0  0
   10.1738    0.3454    6.3921 C   0  0  0  0  0  0  0  0  0  0  0  0
   10.1713    0.0007    7.7345 C   0  0  0  0  0  0  0  0  0  0  0  0
   11.4435   -0.0298    8.5426 C   0  0  0  0  0  0  0  0  0  0  0  0
    8.9317   -0.3316    8.3600 C   0  0  0  0  0  0  0  0  0  0  0  0
    7.7541   -0.3133    7.6497 C   0  0  0  0  0  0  0  0  0  0  0  0
    7.7867    0.0270    6.3361 N   0  0  0  0  0  0  0  0  0  0  0  0
    6.7313    0.0993    5.4900 N   0  0  0  0  0  0  0  0  0  0  0  0
    3.5266    5.9991    3.0947 H   0  0  0  0  0  0  0  0  0  0  0  0
    3.7748    5.1524    1.5336 H   0  0  0  0  0  0  0  0  0  0  0  0
    5.1783    5.5230    2.5840 H   0  0  0  0  0  0  0  0  0  0  0  0
    5.7069    3.1335    2.7348 H   0  0  0  0  0  0  0  0  0  0  0  0
    4.3144    2.7500    1.6834 H   0  0  0  0  0  0  0  0  0  0  0  0
    4.6375    1.8923    4.6096 H   0  0  0  0  0  0  0  0  0  0  0  0
    2.5137    1.0306    2.5457 H   0  0  0  0  0  0  0  0  0  0  0  0
    2.2432    2.1650    3.8905 H   0  0  0  0  0  0  0  0  0  0  0  0
    2.6404    0.4582    4.2288 H   0  0  0  0  0  0  0  0  0  0  0  0
    4.9496    0.2554    2.0354 H   0  0  0  0  0  0  0  0  0  0  0  0
    4.9049   -0.4082    3.6774 H   0  0  0  0  0  0  0  0  0  0  0  0
    7.1685    0.9494    2.3942 H   0  0  0  0  0  0  0  0  0  0  0  0
   11.0932    0.6076    5.8668 H   0  0  0  0  0  0  0  0  0  0  0  0
   12.3167    0.2459    7.9342 H   0  0  0  0  0  0  0  0  0  0  0  0
   11.6236   -1.0341    8.9618 H   0  0  0  0  0  0  0  0  0  0  0  0
   11.3886    0.6676    9.3955 H   0  0  0  0  0  0  0  0  0  0  0  0
    8.9045   -0.6055    9.4162 H   0  0  0  0  0  0  0  0  0  0  0  0
    6.7719   -0.5538    8.0574 H   0  0  0  0  0  0  0  0  0  0  0  0
  1  2  1  0
  1 18  1  0
  1 19  1  0
  1 20  1  0
  2  3  1  0
  3  4  1  0
  3 21  1  0
  3 22  1  0
  4  5  1  0
  4  6  1  0
  4 23  1  1
  5 24  1  0
  5 25  1  0
  5 26  1  0
  6  7  1  0
  6 27  1  0
  6 28  1  0
  7  8  1  0
  7 29  1  0
  8  9  1  0
  8 17  2  0
  9 10  2  0
 10 11  1  0
 10 16  1  0
 11 12  2  0
 11 30  1  0
 12 13  1  0
 12 14  1  0
 13 31  1  0
 13 32  1  0
 13 33  1  0
 14 15  2  0
 14 34  1  0
 15 16  1  0
 15 35  1  0
 16 17  1  0
M  END

