
     RDKit          3D

 54 57  0  0  0  0  0  0  0  0999 V2000
    4.4502   -4.6320   -0.1180 C   0  0  0  0  0  0  0  0  0  0  0  0
    3.7753   -3.2578   -0.2530 C   0  0  0  0  0  0  0  0  0  0  0  0
    3.5275   -2.6089    1.0726 C   0  0  0  0  0  0  0  0  0  0  0  0
    4.4433   -2.1303    1.8975 N   0  0  0  0  0  0  0  0  0  0  0  0
    3.7268   -1.7197    2.9855 C   0  0  0  0  0  0  0  0  0  0  0  0
    4.3291   -1.1463    4.2425 C   0  0  1  0  0  0  0  0  0  0  0  0
    5.2010   -2.1646    5.0002 C   0  0  0  0  0  0  0  0  0  0  0  0
    6.4642   -2.3760    4.3033 N   0  0  0  0  0  0  0  0  0  0  0  0
    6.7408   -3.6212    3.7853 C   0  0  0  0  0  0  0  0  0  0  0  0
    5.9950   -4.5694    3.9820 O   0  0  0  0  0  0  0  0  0  0  0  0
    8.0631   -3.7917    3.0037 C   0  0  1  0  0  0  0  0  0  0  0  0
    9.2463   -3.9175    3.9911 C   0  0  0  0  0  0  0  0  0  0  0  0
    7.9513   -4.8766    2.0320 N   0  0  0  0  0  0  0  0  0  0  0  0
    7.9994   -6.2433    2.5442 C   0  0  0  0  0  0  0  0  0  0  0  0
    7.3558   -7.1836    1.5279 C   0  0  0  0  0  0  0  0  0  0  0  0
    7.9017   -6.9718    0.1327 C   0  0  0  0  0  0  0  0  0  0  0  0
    7.7371   -7.9447   -0.8670 C   0  0  0  0  0  0  0  0  0  0  0  0
    8.2302   -7.7491   -2.1570 C   0  0  0  0  0  0  0  0  0  0  0  0
    8.9047   -6.5629   -2.4674 C   0  0  0  0  0  0  0  0  0  0  0  0
    9.0746   -5.5901   -1.4825 C   0  0  0  0  0  0  0  0  0  0  0  0
    8.5776   -5.7791   -0.1835 C   0  0  0  0  0  0  0  0  0  0  0  0
    8.8033   -4.7088    0.8681 C   0  0  0  0  0  0  0  0  0  0  0  0
    7.1925   -1.1295    4.0963 C   0  0  0  0  0  0  0  0  0  0  0  0
    6.3086   -0.1120    3.3695 C   0  0  0  0  0  0  0  0  0  0  0  0
    5.0593    0.0586    4.0194 O   0  0  0  0  0  0  0  0  0  0  0  0
    2.4197   -1.9108    2.8765 N   0  0  0  0  0  0  0  0  0  0  0  0
    2.3119   -2.4803    1.6592 N   0  0  0  0  0  0  0  0  0  0  0  0
    1.4027   -2.7470    1.2987 H   0  0  0  0  0  0  0  0  0  0  0  0
    4.6815   -5.0506   -1.1095 H   0  0  0  0  0  0  0  0  0  0  0  0
    3.7956   -5.3433    0.4103 H   0  0  0  0  0  0  0  0  0  0  0  0
    5.3862   -4.5536    0.4554 H   0  0  0  0  0  0  0  0  0  0  0  0
    2.8221   -3.3453   -0.8012 H   0  0  0  0  0  0  0  0  0  0  0  0
    4.4187   -2.5853   -0.8432 H   0  0  0  0  0  0  0  0  0  0  0  0
    3.4850   -0.8624    4.8874 H   0  0  0  0  0  0  0  0  0  0  0  0
    4.6934   -3.1313    5.0971 H   0  0  0  0  0  0  0  0  0  0  0  0
    5.4056   -1.7598    6.0081 H   0  0  0  0  0  0  0  0  0  0  0  0
    8.2168   -2.8851    2.4003 H   0  0  0  0  0  0  0  0  0  0  0  0
    9.0997   -4.7662    4.6756 H   0  0  0  0  0  0  0  0  0  0  0  0
    9.3557   -3.0121    4.6075 H   0  0  0  0  0  0  0  0  0  0  0  0
   10.1935   -4.0720    3.4507 H   0  0  0  0  0  0  0  0  0  0  0  0
    7.4439   -6.2845    3.4870 H   0  0  0  0  0  0  0  0  0  0  0  0
    9.0464   -6.5714    2.7399 H   0  0  0  0  0  0  0  0  0  0  0  0
    6.2668   -7.0012    1.5287 H   0  0  0  0  0  0  0  0  0  0  0  0
    7.5021   -8.2330    1.8351 H   0  0  0  0  0  0  0  0  0  0  0  0
    7.2134   -8.8737   -0.6211 H   0  0  0  0  0  0  0  0  0  0  0  0
    8.0926   -8.5205   -2.9193 H   0  0  0  0  0  0  0  0  0  0  0  0
    9.2959   -6.3973   -3.4746 H   0  0  0  0  0  0  0  0  0  0  0  0
    9.6020   -4.6614   -1.7233 H   0  0  0  0  0  0  0  0  0  0  0  0
    8.6052   -3.7198    0.4200 H   0  0  0  0  0  0  0  0  0  0  0  0
    9.8900   -4.7135    1.1326 H   0  0  0  0  0  0  0  0  0  0  0  0
    8.1134   -1.2919    3.5247 H   0  0  0  0  0  0  0  0  0  0  0  0
    7.4849   -0.7239    5.0838 H   0  0  0  0  0  0  0  0  0  0  0  0
    6.1633   -0.4350    2.3249 H   0  0  0  0  0  0  0  0  0  0  0  0
    6.7936    0.8770    3.3740 H   0  0  0  0  0  0  0  0  0  0  0  0
  1  2  1  0
  1 29  1  0
  1 30  1  0
  1 31  1  0
  2  3  1  0
  2 32  1  0
  2 33  1  0
  3  4  2  0
  3 27  1  0
  4  5  1  0
  5  6  1  0
  5 26  2  0
  6  7  1  0
  6 25  1  0
  6 34  1  1
  7  8  1  0
  7 35  1  0
  7 36  1  0
  8  9  1  0
  8 23  1  0
  9 10  2  0
  9 11  1  0
 11 12  1  0
 11 13  1  0
 11 37  1  6
 12 38  1  0
 12 39  1  0
 12 40  1  0
 13 14  1  0
 13 22  1  0
 14 15  1  0
 14 41  1  0
 14 42  1  0
 15 16  1  0
 15 43  1  0
 15 44  1  0
 16 17  2  0
 16 21  1  0
 17 18  1  0
 17 45  1  0
 18 19  2  0
 18 46  1  0
 19 20  1  0
 19 47  1  0
 20 21  2  0
 20 48  1  0
 21 22  1  0
 22 49  1  0
 22 50  1  0
 23 24  1  0
 23 51  1  0
 23 52  1  0
 24 25  1  0
 24 53  1  0
 24 54  1  0
 26 27  1  0
 27 28  1  0
M  END

