
     RDKit          3D

 41 43  0  0  0  0  0  0  0  0999 V2000
    1.6679   -0.9015    0.5392 C   0  0  0  0  0  0  0  0  0  0  0  0
    3.0180   -0.5652   -0.1036 C   0  0  1  0  0  0  0  0  0  0  0  0
    3.5643   -1.6645   -1.0444 C   0  0  0  0  0  0  0  0  0  0  0  0
    2.8514   -1.7411   -2.4008 C   0  0  0  0  0  0  0  0  0  0  0  0
    2.8151   -0.3643   -3.0910 C   0  0  2  0  0  0  0  0  0  0  0  0
    4.1868   -0.0302   -3.7240 C   0  0  0  0  0  0  0  0  0  0  0  0
    4.7827   -0.8756   -4.3451 O   0  0  0  0  0  0  0  0  0  0  0  0
    4.6624    1.2129   -3.6342 O   0  0  0  0  0  0  0  0  0  0  0  0
    2.2336    0.6679   -2.1214 C   0  0  0  0  0  0  0  0  0  0  0  0
    2.9703    0.7116   -0.8521 N   0  0  0  0  0  0  0  0  0  0  0  0
    3.7340    1.8115   -0.6072 C   0  0  0  0  0  0  0  0  0  0  0  0
    3.9412    2.6667   -1.4808 O   0  0  0  0  0  0  0  0  0  0  0  0
    4.3358    2.0560    0.7308 C   0  0  0  0  0  0  0  0  0  0  0  0
    5.3396    3.0192    0.9943 C   0  0  0  0  0  0  0  0  0  0  0  0
    5.5851    3.0228    2.2959 N   0  0  0  0  0  0  0  0  0  0  0  0
    4.7536    2.1035    2.7900 N   0  0  0  0  0  0  0  0  0  0  0  0
    4.6962    1.8040    4.1823 C   0  0  0  0  0  0  0  0  0  0  0  0
    5.5769    2.4488    5.0602 C   0  0  0  0  0  0  0  0  0  0  0  0
    5.5240    2.1588    6.4229 C   0  0  0  0  0  0  0  0  0  0  0  0
    4.5939    1.2301    6.8874 C   0  0  0  0  0  0  0  0  0  0  0  0
    4.5442    0.9521    8.1953 F   0  0  0  0  0  0  0  0  0  0  0  0
    3.7135    0.5846    6.0205 C   0  0  0  0  0  0  0  0  0  0  0  0
    3.7636    0.8734    4.6572 C   0  0  0  0  0  0  0  0  0  0  0  0
    3.9871    1.4999    1.8957 N   0  0  0  0  0  0  0  0  0  0  0  0
    1.7638   -1.8134    1.1488 H   0  0  0  0  0  0  0  0  0  0  0  0
    0.8722   -1.0831   -0.1994 H   0  0  0  0  0  0  0  0  0  0  0  0
    1.3462   -0.0811    1.1979 H   0  0  0  0  0  0  0  0  0  0  0  0
    3.7374   -0.4310    0.7101 H   0  0  0  0  0  0  0  0  0  0  0  0
    3.5067   -2.6358   -0.5263 H   0  0  0  0  0  0  0  0  0  0  0  0
    4.6363   -1.4675   -1.2172 H   0  0  0  0  0  0  0  0  0  0  0  0
    1.8167   -2.1009   -2.2705 H   0  0  0  0  0  0  0  0  0  0  0  0
    3.3642   -2.4569   -3.0584 H   0  0  0  0  0  0  0  0  0  0  0  0
    2.1358   -0.4274   -3.9599 H   0  0  0  0  0  0  0  0  0  0  0  0
    4.2370    1.7990   -2.9607 H   0  0  0  0  0  0  0  0  0  0  0  0
    1.1897    0.3915   -1.9010 H   0  0  0  0  0  0  0  0  0  0  0  0
    2.2155    1.6786   -2.5440 H   0  0  0  0  0  0  0  0  0  0  0  0
    5.8585    3.6750    0.3001 H   0  0  0  0  0  0  0  0  0  0  0  0
    6.2923    3.1698    4.6663 H   0  0  0  0  0  0  0  0  0  0  0  0
    6.1973    2.6447    7.1312 H   0  0  0  0  0  0  0  0  0  0  0  0
    2.9975   -0.1353    6.4209 H   0  0  0  0  0  0  0  0  0  0  0  0
    3.0848    0.3854    3.9589 H   0  0  0  0  0  0  0  0  0  0  0  0
  1  2  1  0
  1 25  1  0
  1 26  1  0
  1 27  1  0
  2  3  1  0
  2 10  1  0
  2 28  1  1
  3  4  1  0
  3 29  1  0
  3 30  1  0
  4  5  1  0
  4 31  1  0
  4 32  1  0
  5  6  1  0
  5  9  1  0
  5 33  1  6
  6  7  2  0
  6  8  1  0
  8 34  1  0
  9 10  1  0
  9 35  1  0
  9 36  1  0
 10 11  1  0
 11 12  2  0
 11 13  1  0
 13 14  1  0
 13 24  2  0
 14 15  2  0
 14 37  1  0
 15 16  1  0
 16 17  1  0
 16 24  1  0
 17 18  2  0
 17 23  1  0
 18 19  1  0
 18 38  1  0
 19 20  2  0
 19 39  1  0
 20 21  1  0
 20 22  1  0
 22 23  2  0
 22 40  1  0
 23 41  1  0
M  END

