
     RDKit          3D

 35 36  0  0  0  0  0  0  0  0999 V2000
    0.9384   -0.3075    0.4025 C   0  0  0  0  0  0  0  0  0  0  0  0
    2.2720   -0.2020    0.3076 C   0  0  0  0  0  0  0  0  0  0  0  0
    3.1553   -1.3903    0.6256 C   0  0  0  0  0  0  0  0  0  0  0  0
    4.1973   -1.2040    1.7476 C   0  0  0  0  0  0  0  0  0  0  0  0
    5.3316   -0.2256    1.4093 C   0  0  0  0  0  0  0  0  0  0  0  0
    5.0153    1.2721    1.5811 C   0  0  0  0  0  0  0  0  0  0  0  0
    3.5984    1.7374    1.2005 C   0  0  0  0  0  0  0  0  0  0  0  0
    2.9803    1.0965   -0.0776 C   0  0  2  0  0  0  0  0  0  0  0  0
    2.0980    2.1277   -0.8004 C   0  0  0  0  0  0  0  0  0  0  0  0
    1.5447    1.7711   -2.1670 C   0  0  0  0  0  0  0  0  0  0  0  0
    1.9800    0.6467   -2.8901 C   0  0  0  0  0  0  0  0  0  0  0  0
    1.4950    0.3492   -4.1652 C   0  0  0  0  0  0  0  0  0  0  0  0
    0.5429    1.1772   -4.7620 C   0  0  0  0  0  0  0  0  0  0  0  0
    0.0859    2.3036   -4.0756 C   0  0  0  0  0  0  0  0  0  0  0  0
    0.5871    2.5864   -2.8023 C   0  0  0  0  0  0  0  0  0  0  0  0
   -0.0783    4.1625   -1.9319 Br  0  0  0  0  0  0  0  0  0  0  0  0
    0.4721   -1.2426    0.7260 H   0  0  0  0  0  0  0  0  0  0  0  0
    0.2587    0.5114    0.1579 H   0  0  0  0  0  0  0  0  0  0  0  0
    3.7041   -1.6778   -0.2930 H   0  0  0  0  0  0  0  0  0  0  0  0
    2.5109   -2.2478    0.8761 H   0  0  0  0  0  0  0  0  0  0  0  0
    4.6389   -2.1950    1.9474 H   0  0  0  0  0  0  0  0  0  0  0  0
    3.6929   -0.9036    2.6832 H   0  0  0  0  0  0  0  0  0  0  0  0
    5.6521   -0.4213    0.3703 H   0  0  0  0  0  0  0  0  0  0  0  0
    6.2125   -0.4583    2.0310 H   0  0  0  0  0  0  0  0  0  0  0  0
    5.7558    1.8449    0.9957 H   0  0  0  0  0  0  0  0  0  0  0  0
    5.1871    1.5603    2.6327 H   0  0  0  0  0  0  0  0  0  0  0  0
    3.6280    2.8324    1.0755 H   0  0  0  0  0  0  0  0  0  0  0  0
    2.9046    1.5561    2.0377 H   0  0  0  0  0  0  0  0  0  0  0  0
    3.8161    0.8396   -0.7540 H   0  0  0  0  0  0  0  0  0  0  0  0
    2.6897    3.0529   -0.9198 H   0  0  0  0  0  0  0  0  0  0  0  0
    1.2652    2.4249   -0.1420 H   0  0  0  0  0  0  0  0  0  0  0  0
    2.7160   -0.0205   -2.4400 H   0  0  0  0  0  0  0  0  0  0  0  0
    1.8610   -0.5368   -4.6897 H   0  0  0  0  0  0  0  0  0  0  0  0
    0.1528    0.9528   -5.7577 H   0  0  0  0  0  0  0  0  0  0  0  0
   -0.6567    2.9657   -4.5236 H   0  0  0  0  0  0  0  0  0  0  0  0
  1  2  2  0
  1 17  1  0
  1 18  1  0
  2  3  1  0
  2  8  1  0
  3  4  1  0
  3 19  1  0
  3 20  1  0
  4  5  1  0
  4 21  1  0
  4 22  1  0
  5  6  1  0
  5 23  1  0
  5 24  1  0
  6  7  1  0
  6 25  1  0
  6 26  1  0
  7  8  1  0
  7 27  1  0
  7 28  1  0
  8  9  1  0
  8 29  1  6
  9 10  1  0
  9 30  1  0
  9 31  1  0
 10 11  2  0
 10 15  1  0
 11 12  1  0
 11 32  1  0
 12 13  2  0
 12 33  1  0
 13 14  1  0
 13 34  1  0
 14 15  2  0
 14 35  1  0
 15 16  1  0
M  END

