
     RDKit          3D

 37 39  0  0  0  0  0  0  0  0999 V2000
    1.1424    0.4721    0.2157 C   0  0  0  0  0  0  0  0  0  0  0  0
    2.5978    0.1521   -0.0880 C   0  0  0  0  0  0  0  0  0  0  0  0
    3.1590   -0.8057    0.4159 O   0  0  0  0  0  0  0  0  0  0  0  0
    3.2599    0.9927   -0.9635 N   0  0  0  0  0  0  0  0  0  0  0  0
    4.6565    0.7317   -1.2806 C   0  0  0  0  0  0  0  0  0  0  0  0
    5.4567    2.0000   -1.2004 C   0  0  0  0  0  0  0  0  0  0  0  0
    6.8186    2.2405   -1.0865 C   0  0  0  0  0  0  0  0  0  0  0  0
    6.9299    3.6475   -1.0405 C   0  0  0  0  0  0  0  0  0  0  0  0
    5.7380    4.2321   -1.1125 N   0  0  0  0  0  0  0  0  0  0  0  0
    4.8499    3.2240   -1.2339 N   0  0  0  0  0  0  0  0  0  0  0  0
    3.4021    3.4465   -1.1974 C   0  0  1  0  0  0  0  0  0  0  0  0
    3.1217    3.6670   -0.1503 H   0  0  0  0  0  0  0  0  0  0  0  0
    2.8433    4.6244   -2.0355 C   0  0  0  0  0  0  0  0  0  0  0  0
    1.6681    4.5769   -2.3727 O   0  0  0  0  0  0  0  0  0  0  0  0
    3.6825    5.6488   -2.2947 N   0  0  0  0  0  0  0  0  0  0  0  0
    3.2383    6.8595   -2.9686 C   0  0  0  0  0  0  0  0  0  0  0  0
    3.3872    8.0871   -2.1304 C   0  0  0  0  0  0  0  0  0  0  0  0
    4.1379    9.2241   -2.2651 C   0  0  0  0  0  0  0  0  0  0  0  0
    3.8384   10.0456   -1.1268 C   0  0  0  0  0  0  0  0  0  0  0  0
    2.9336    9.3408   -0.3868 C   0  0  0  0  0  0  0  0  0  0  0  0
    2.6532    8.1561   -0.9857 O   0  0  0  0  0  0  0  0  0  0  0  0
    2.7005    2.1483   -1.6350 C   0  0  0  0  0  0  0  0  0  0  0  0
    0.7861   -0.2770    0.9326 H   0  0  0  0  0  0  0  0  0  0  0  0
    0.5176    0.4258   -0.6902 H   0  0  0  0  0  0  0  0  0  0  0  0
    1.0224    1.4749    0.6548 H   0  0  0  0  0  0  0  0  0  0  0  0
    4.7426    0.2939   -2.2955 H   0  0  0  0  0  0  0  0  0  0  0  0
    5.0303   -0.0189   -0.5720 H   0  0  0  0  0  0  0  0  0  0  0  0
    7.6134    1.5002   -1.0354 H   0  0  0  0  0  0  0  0  0  0  0  0
    7.8291    4.2570   -0.9542 H   0  0  0  0  0  0  0  0  0  0  0  0
    4.6331    5.5792   -1.9163 H   0  0  0  0  0  0  0  0  0  0  0  0
    2.1837    6.6963   -3.2383 H   0  0  0  0  0  0  0  0  0  0  0  0
    3.8065    7.0123   -3.9009 H   0  0  0  0  0  0  0  0  0  0  0  0
    4.8224    9.4489   -3.0807 H   0  0  0  0  0  0  0  0  0  0  0  0
    4.2456   11.0269   -0.8923 H   0  0  0  0  0  0  0  0  0  0  0  0
    2.4178    9.5386    0.5493 H   0  0  0  0  0  0  0  0  0  0  0  0
    2.8115    2.0337   -2.7289 H   0  0  0  0  0  0  0  0  0  0  0  0
    1.6321    2.2588   -1.4390 H   0  0  0  0  0  0  0  0  0  0  0  0
  1  2  1  0
  1 23  1  0
  1 24  1  0
  1 25  1  0
  2  3  2  0
  2  4  1  0
  4  5  1  0
  4 22  1  0
  5  6  1  0
  5 26  1  0
  5 27  1  0
  6  7  2  0
  6 10  1  0
  7  8  1  0
  7 28  1  0
  8  9  2  0
  8 29  1  0
  9 10  1  0
 10 11  1  0
 11 12  1  1
 11 13  1  0
 11 22  1  0
 13 14  2  0
 13 15  1  0
 15 16  1  0
 15 30  1  0
 16 17  1  0
 16 31  1  0
 16 32  1  0
 17 18  2  0
 17 21  1  0
 18 19  1  0
 18 33  1  0
 19 20  2  0
 19 34  1  0
 20 21  1  0
 20 35  1  0
 22 36  1  0
 22 37  1  0
M  END

