
     RDKit          3D

 24 25  0  0  0  0  0  0  0  0999 V2000
    1.0561   -0.0838    0.0848 C   0  0  0  0  0  0  0  0  0  0  0  0
    2.5682   -0.0445    0.0773 C   0  0  1  0  0  0  0  0  0  0  0  0
    3.3694   -0.9965   -0.7772 C   0  0  0  0  0  0  0  0  0  0  0  0
    3.3324    0.4740   -1.1185 C   0  0  2  0  0  0  0  0  0  0  0  0
    4.5948    1.3178   -0.9599 C   0  0  1  0  0  0  0  0  0  0  0  0
    5.5763    1.1358   -2.0305 N   0  0  0  0  0  0  0  0  0  0  0  0
    4.2972    2.7971   -0.8216 C   0  0  0  0  0  0  0  0  0  0  0  0
    5.0710    3.8528   -1.2428 C   0  0  0  0  0  0  0  0  0  0  0  0
    4.5157    5.1280   -0.9142 C   0  0  0  0  0  0  0  0  0  0  0  0
    3.3248    5.0290   -0.2424 C   0  0  0  0  0  0  0  0  0  0  0  0
    2.8647    3.3760   -0.0095 S   0  0  0  0  0  0  0  0  0  0  0  0
    0.6791   -0.8426    0.7907 H   0  0  0  0  0  0  0  0  0  0  0  0
    0.6594   -0.3320   -0.9132 H   0  0  0  0  0  0  0  0  0  0  0  0
    0.6330    0.8906    0.3790 H   0  0  0  0  0  0  0  0  0  0  0  0
    3.0167    0.1918    1.0502 H   0  0  0  0  0  0  0  0  0  0  0  0
    2.8244   -1.6915   -1.4233 H   0  0  0  0  0  0  0  0  0  0  0  0
    4.2970   -1.4066   -0.3636 H   0  0  0  0  0  0  0  0  0  0  0  0
    2.7257    0.7540   -1.9892 H   0  0  0  0  0  0  0  0  0  0  0  0
    5.0886    0.9856   -0.0251 H   0  0  0  0  0  0  0  0  0  0  0  0
    5.1546    1.3878   -2.9266 H   0  0  0  0  0  0  0  0  0  0  0  0
    5.8265    0.1489   -2.0973 H   0  0  0  0  0  0  0  0  0  0  0  0
    6.0146    3.6992   -1.7660 H   0  0  0  0  0  0  0  0  0  0  0  0
    4.9840    6.0806   -1.1687 H   0  0  0  0  0  0  0  0  0  0  0  0
    2.6856    5.8311    0.1242 H   0  0  0  0  0  0  0  0  0  0  0  0
  1  2  1  0
  1 12  1  0
  1 13  1  0
  1 14  1  0
  2  3  1  0
  2  4  1  0
  2 15  1  1
  3  4  1  0
  3 16  1  0
  3 17  1  0
  4  5  1  0
  4 18  1  6
  5  6  1  0
  5  7  1  0
  5 19  1  1
  6 20  1  0
  6 21  1  0
  7  8  2  0
  7 11  1  0
  8  9  1  0
  8 22  1  0
  9 10  2  0
  9 23  1  0
 10 11  1  0
 10 24  1  0
M  END

