
     RDKit          3D

 55 59  0  0  0  0  0  0  0  0999 V2000
    2.1923    1.5651    1.0632 C   0  0  0  0  0  0  0  0  0  0  0  0
    2.0433    2.3869   -0.2175 C   0  0  0  0  0  0  0  0  0  0  0  0
    2.9009    1.8807   -1.3951 C   0  0  1  0  0  0  0  0  0  0  0  0
    2.7218    2.6723   -2.6967 C   0  0  0  0  0  0  0  0  0  0  0  0
    4.3310    1.6356   -1.0510 N   0  0  0  0  0  0  0  0  0  0  0  0
    4.7262    0.2776   -1.1099 C   0  0  0  0  0  0  0  0  0  0  0  0
    3.9520   -0.6088   -1.4232 O   0  0  0  0  0  0  0  0  0  0  0  0
    6.1256    0.0117   -0.7911 C   0  0  0  0  0  0  0  0  0  0  0  0
    6.8849   -1.1560   -0.7487 C   0  0  0  0  0  0  0  0  0  0  0  0
    6.4328   -2.5453   -0.9014 C   0  0  0  0  0  0  0  0  0  0  0  0
    7.0683   -3.4035   -1.6644 N   0  0  0  0  0  0  0  0  0  0  0  0
    6.3391   -4.5727   -1.5082 O   0  0  0  0  0  0  0  0  0  0  0  0
    5.3370   -4.3043   -0.6567 C   0  0  0  0  0  0  0  0  0  0  0  0
    4.3199   -5.3815   -0.3633 C   0  0  1  0  0  0  0  0  0  0  0  0
    4.8880   -6.6754   -0.4871 O   0  0  0  0  0  0  0  0  0  0  0  0
    5.9029   -7.0385    0.4217 C   0  0  0  0  0  0  0  0  0  0  0  0
    3.5841   -5.1659    0.9747 C   0  0  0  0  0  0  0  0  0  0  0  0
    2.3264   -6.0456    0.8482 C   0  0  0  0  0  0  0  0  0  0  0  0
    2.0059   -6.1037   -0.6734 C   0  0  0  0  0  0  0  0  0  0  0  0
    3.1522   -5.3420   -1.3752 C   0  0  0  0  0  0  0  0  0  0  0  0
    5.3453   -3.0734   -0.2447 N   0  0  0  0  0  0  0  0  0  0  0  0
    8.1926   -0.8454   -0.5058 N   0  0  0  0  0  0  0  0  0  0  0  0
    8.2491    0.4627   -0.3918 C   0  0  0  0  0  0  0  0  0  0  0  0
    7.0184    1.0419   -0.5533 N   0  0  0  0  0  0  0  0  0  0  0  0
    6.6070    2.3828   -0.4937 C   0  0  0  0  0  0  0  0  0  0  0  0
    7.5121    3.4069   -0.1948 C   0  0  0  0  0  0  0  0  0  0  0  0
    7.1004    4.7331   -0.1233 C   0  0  0  0  0  0  0  0  0  0  0  0
    5.7525    5.0177   -0.3530 C   0  0  0  0  0  0  0  0  0  0  0  0
    5.1919    6.6698   -0.2647 Cl  0  0  0  0  0  0  0  0  0  0  0  0
    4.8364    4.0119   -0.6512 C   0  0  0  0  0  0  0  0  0  0  0  0
    5.2350    2.6625   -0.7373 C   0  0  0  0  0  0  0  0  0  0  0  0
    1.4852    1.9093    1.8338 H   0  0  0  0  0  0  0  0  0  0  0  0
    3.2063    1.6501    1.4853 H   0  0  0  0  0  0  0  0  0  0  0  0
    1.9998    0.4962    0.8783 H   0  0  0  0  0  0  0  0  0  0  0  0
    2.2246    3.4520   -0.0002 H   0  0  0  0  0  0  0  0  0  0  0  0
    0.9972    2.3365   -0.5659 H   0  0  0  0  0  0  0  0  0  0  0  0
    2.5476    0.8643   -1.6053 H   0  0  0  0  0  0  0  0  0  0  0  0
    2.9987    3.7337   -2.6230 H   0  0  0  0  0  0  0  0  0  0  0  0
    1.6632    2.6297   -2.9971 H   0  0  0  0  0  0  0  0  0  0  0  0
    3.3153    2.2219   -3.5068 H   0  0  0  0  0  0  0  0  0  0  0  0
    6.2698   -8.0257    0.1057 H   0  0  0  0  0  0  0  0  0  0  0  0
    5.5348   -7.1230    1.4609 H   0  0  0  0  0  0  0  0  0  0  0  0
    6.7550   -6.3345    0.4066 H   0  0  0  0  0  0  0  0  0  0  0  0
    3.3269   -4.0990    1.0490 H   0  0  0  0  0  0  0  0  0  0  0  0
    4.2074   -5.4037    1.8494 H   0  0  0  0  0  0  0  0  0  0  0  0
    1.4918   -5.6432    1.4422 H   0  0  0  0  0  0  0  0  0  0  0  0
    2.5311   -7.0570    1.2308 H   0  0  0  0  0  0  0  0  0  0  0  0
    1.0303   -5.6524   -0.9097 H   0  0  0  0  0  0  0  0  0  0  0  0
    1.9689   -7.1468   -1.0194 H   0  0  0  0  0  0  0  0  0  0  0  0
    2.8814   -4.2906   -1.5568 H   0  0  0  0  0  0  0  0  0  0  0  0
    3.4645   -5.7879   -2.3304 H   0  0  0  0  0  0  0  0  0  0  0  0
    9.1503    1.0377   -0.1887 H   0  0  0  0  0  0  0  0  0  0  0  0
    8.5588    3.1634   -0.0105 H   0  0  0  0  0  0  0  0  0  0  0  0
    7.8061    5.5304    0.1095 H   0  0  0  0  0  0  0  0  0  0  0  0
    3.8044    4.2966   -0.8148 H   0  0  0  0  0  0  0  0  0  0  0  0
  1  2  1  0
  1 32  1  0
  1 33  1  0
  1 34  1  0
  2  3  1  0
  2 35  1  0
  2 36  1  0
  3  4  1  0
  3  5  1  0
  3 37  1  6
  4 38  1  0
  4 39  1  0
  4 40  1  0
  5  6  1  0
  5 31  1  0
  6  7  2  0
  6  8  1  0
  8  9  2  0
  8 24  1  0
  9 10  1  0
  9 22  1  0
 10 11  2  0
 10 21  1  0
 11 12  1  0
 12 13  1  0
 13 14  1  0
 13 21  2  0
 14 15  1  1
 14 17  1  0
 14 20  1  0
 15 16  1  0
 16 41  1  0
 16 42  1  0
 16 43  1  0
 17 18  1  0
 17 44  1  0
 17 45  1  0
 18 19  1  0
 18 46  1  0
 18 47  1  0
 19 20  1  0
 19 48  1  0
 19 49  1  0
 20 50  1  0
 20 51  1  0
 22 23  2  0
 23 24  1  0
 23 52  1  0
 24 25  1  0
 25 26  1  0
 25 31  2  0
 26 27  2  0
 26 53  1  0
 27 28  1  0
 27 54  1  0
 28 29  1  0
 28 30  2  0
 30 31  1  0
 30 55  1  0
M  END

