
     RDKit          3D

 69 74  0  0  0  0  0  0  0  0999 V2000
    6.8817   -1.9696    3.2376 C   0  0  0  0  0  0  0  0  0  0  0  0
    6.6767   -0.8758    2.3467 O   0  0  0  0  0  0  0  0  0  0  0  0
    5.8916    0.1226    2.8015 C   0  0  0  0  0  0  0  0  0  0  0  0
    5.3805    0.1057    3.8980 O   0  0  0  0  0  0  0  0  0  0  0  0
    5.7330    1.2272    1.8089 C   0  0  0  0  0  0  0  0  0  0  0  0
    4.9387    2.3241    2.1697 C   0  0  0  0  0  0  0  0  0  0  0  0
    4.7666    3.3754    1.2685 C   0  0  0  0  0  0  0  0  0  0  0  0
    5.3816    3.3326    0.0152 C   0  0  0  0  0  0  0  0  0  0  0  0
    6.1848    2.2420   -0.3650 C   0  0  0  0  0  0  0  0  0  0  0  0
    6.8203    2.2172   -1.7343 C   0  0  1  0  0  0  0  0  0  0  0  0
    7.7418    3.3852   -2.1724 C   0  0  0  0  0  0  0  0  0  0  0  0
    8.6714    2.3493   -2.8982 C   0  0  2  0  0  0  0  0  0  0  0  0
   10.0456    2.4001   -2.5700 O   0  0  0  0  0  0  0  0  0  0  0  0
    8.4946    2.2434   -4.4254 C   0  0  0  0  0  0  0  0  0  0  0  0
    8.2977    0.9738   -4.9997 C   0  0  0  0  0  0  0  0  0  0  0  0
    8.1782    0.7686   -6.3678 C   0  0  0  0  0  0  0  0  0  0  0  0
    8.2597    1.8542   -7.2488 C   0  0  0  0  0  0  0  0  0  0  0  0
    8.1200    1.5654   -8.5687 O   0  0  0  0  0  0  0  0  0  0  0  0
    7.9436    2.5907   -9.5349 C   0  0  0  0  0  0  0  0  0  0  0  0
    9.2049    3.2831  -10.0006 C   0  0  0  0  0  0  0  0  0  0  0  0
    9.1702    4.5839  -10.6206 C   0  0  0  0  0  0  0  0  0  0  0  0
    7.9282    5.3848  -10.8470 C   0  0  0  0  0  0  0  0  0  0  0  0
    7.5874    6.4758  -10.0240 C   0  0  0  0  0  0  0  0  0  0  0  0
    8.5955    6.8766   -8.6551 Cl  0  0  0  0  0  0  0  0  0  0  0  0
    6.4464    7.2492  -10.2540 C   0  0  0  0  0  0  0  0  0  0  0  0
    5.6113    6.9357  -11.3264 C   0  0  0  0  0  0  0  0  0  0  0  0
    5.9066    5.8564  -12.1598 C   0  0  0  0  0  0  0  0  0  0  0  0
    7.0525    5.0973  -11.9116 C   0  0  0  0  0  0  0  0  0  0  0  0
    7.3973    3.7485  -12.9744 Cl  0  0  0  0  0  0  0  0  0  0  0  0
   10.3176    5.0825  -11.0264 N   0  0  0  0  0  0  0  0  0  0  0  0
   11.5367    3.9961  -10.6998 S   0  0  0  0  0  0  0  0  0  0  0  0
   10.4996    2.7943   -9.9814 C   0  0  0  0  0  0  0  0  0  0  0  0
   11.0124    1.5039   -9.4668 C   0  0  1  0  0  0  0  0  0  0  0  0
   12.3849    0.9860   -9.8455 C   0  0  0  0  0  0  0  0  0  0  0  0
   12.1430    1.4619   -8.4458 C   0  0  0  0  0  0  0  0  0  0  0  0
    8.4937    3.1286   -6.7244 C   0  0  0  0  0  0  0  0  0  0  0  0
    8.6202    3.3214   -5.3365 C   0  0  0  0  0  0  0  0  0  0  0  0
    8.8736    4.7594   -4.9221 C   0  0  1  0  0  0  0  0  0  0  0  0
    9.6641    4.8644   -3.8246 F   0  0  0  0  0  0  0  0  0  0  0  0
    9.4897    5.4586   -5.8867 F   0  0  0  0  0  0  0  0  0  0  0  0
    7.7334    5.4213   -4.6390 F   0  0  0  0  0  0  0  0  0  0  0  0
    7.9775    1.2471   -2.0497 C   0  0  0  0  0  0  0  0  0  0  0  0
    6.3512    1.1935    0.5478 C   0  0  0  0  0  0  0  0  0  0  0  0
    7.5374   -2.6749    2.7119 H   0  0  0  0  0  0  0  0  0  0  0  0
    5.9262   -2.4534    3.4918 H   0  0  0  0  0  0  0  0  0  0  0  0
    7.3560   -1.6315    4.1717 H   0  0  0  0  0  0  0  0  0  0  0  0
    4.4698    2.3323    3.1553 H   0  0  0  0  0  0  0  0  0  0  0  0
    4.1495    4.2347    1.5429 H   0  0  0  0  0  0  0  0  0  0  0  0
    5.2380    4.1619   -0.6838 H   0  0  0  0  0  0  0  0  0  0  0  0
    6.0213    2.0929   -2.4872 H   0  0  0  0  0  0  0  0  0  0  0  0
    8.2883    3.8088   -1.3174 H   0  0  0  0  0  0  0  0  0  0  0  0
    7.2853    4.1945   -2.7529 H   0  0  0  0  0  0  0  0  0  0  0  0
   10.4210    3.1913   -2.9788 H   0  0  0  0  0  0  0  0  0  0  0  0
    8.2363    0.1030   -4.3479 H   0  0  0  0  0  0  0  0  0  0  0  0
    8.0134   -0.2303   -6.7768 H   0  0  0  0  0  0  0  0  0  0  0  0
    7.2239    3.3413   -9.1637 H   0  0  0  0  0  0  0  0  0  0  0  0
    7.4642    2.0862  -10.3894 H   0  0  0  0  0  0  0  0  0  0  0  0
    6.2239    8.0855   -9.5902 H   0  0  0  0  0  0  0  0  0  0  0  0
    4.7187    7.5373  -11.5133 H   0  0  0  0  0  0  0  0  0  0  0  0
    5.2626    5.5979  -13.0011 H   0  0  0  0  0  0  0  0  0  0  0  0
   10.2295    0.7561   -9.3323 H   0  0  0  0  0  0  0  0  0  0  0  0
   13.0022    1.6029  -10.5059 H   0  0  0  0  0  0  0  0  0  0  0  0
   12.4798   -0.0879  -10.0281 H   0  0  0  0  0  0  0  0  0  0  0  0
   12.5757    2.4197   -8.1435 H   0  0  0  0  0  0  0  0  0  0  0  0
   12.0645    0.7259   -7.6410 H   0  0  0  0  0  0  0  0  0  0  0  0
    8.6125    3.9841   -7.3869 H   0  0  0  0  0  0  0  0  0  0  0  0
    8.6151    1.0778   -1.1707 H   0  0  0  0  0  0  0  0  0  0  0  0
    7.7319    0.2751   -2.4967 H   0  0  0  0  0  0  0  0  0  0  0  0
    6.9659    0.3311    0.2896 H   0  0  0  0  0  0  0  0  0  0  0  0
  1  2  1  0
  1 44  1  0
  1 45  1  0
  1 46  1  0
  2  3  1  0
  3  4  2  0
  3  5  1  0
  5  6  2  0
  5 43  1  0
  6  7  1  0
  6 47  1  0
  7  8  2  0
  7 48  1  0
  8  9  1  0
  8 49  1  0
  9 10  1  0
  9 43  2  0
 10 11  1  0
 10 42  1  0
 10 50  1  6
 11 12  1  0
 11 51  1  0
 11 52  1  0
 12 13  1  6
 12 14  1  0
 12 42  1  0
 13 53  1  0
 14 15  2  0
 14 37  1  0
 15 16  1  0
 15 54  1  0
 16 17  2  0
 16 55  1  0
 17 18  1  0
 17 36  1  0
 18 19  1  0
 19 20  1  0
 19 56  1  0
 19 57  1  0
 20 21  1  0
 20 32  2  0
 21 22  1  0
 21 30  2  0
 22 23  2  0
 22 28  1  0
 23 24  1  0
 23 25  1  0
 25 26  2  0
 25 58  1  0
 26 27  1  0
 26 59  1  0
 27 28  2  0
 27 60  1  0
 28 29  1  0
 30 31  1  0
 31 32  1  0
 32 33  1  0
 33 34  1  0
 33 35  1  0
 33 61  1  1
 34 35  1  0
 34 62  1  0
 34 63  1  0
 35 64  1  0
 35 65  1  0
 36 37  2  0
 36 66  1  0
 37 38  1  0
 38 39  1  1
 38 40  1  0
 38 41  1  0
 42 67  1  0
 42 68  1  0
 43 69  1  0
M  END

