
     RDKit          3D

 21 22  0  0  0  0  0  0  0  0999 V2000
    0.9070    0.2707   -0.5123 C   0  0  0  0  0  0  0  0  0  0  0  0
    2.3827    0.6197   -0.5948 C   0  0  0  0  0  0  0  0  0  0  0  0
    2.8146    1.7324   -0.3919 O   0  0  0  0  0  0  0  0  0  0  0  0
    3.1916   -0.4523   -0.9682 N   0  0  0  0  0  0  0  0  0  0  0  0
    4.5784   -0.4669   -1.1046 C   0  0  0  0  0  0  0  0  0  0  0  0
    5.4651   -1.8911   -0.6695 S   0  0  0  0  0  0  0  0  0  0  0  0
    6.9532   -1.3340   -1.1166 N   0  0  0  0  0  0  0  0  0  0  0  0
    6.8253   -0.0852   -1.5552 C   0  0  0  0  0  0  0  0  0  0  0  0
    7.9227    0.7143   -2.0335 C   0  0  0  0  0  0  0  0  0  0  0  0
    9.5251    0.0489   -1.9945 Cl  0  0  0  0  0  0  0  0  0  0  0  0
    7.6932    1.9765   -2.5137 C   0  0  0  0  0  0  0  0  0  0  0  0
    6.3651    2.5108   -2.5357 C   0  0  0  0  0  0  0  0  0  0  0  0
    6.1650    4.1327   -3.1587 Cl  0  0  0  0  0  0  0  0  0  0  0  0
    5.2769    1.8101   -2.0843 C   0  0  0  0  0  0  0  0  0  0  0  0
    5.4878    0.4881   -1.5820 C   0  0  0  0  0  0  0  0  0  0  0  0
    0.4090    1.0198    0.1156 H   0  0  0  0  0  0  0  0  0  0  0  0
    0.7278   -0.7349   -0.1012 H   0  0  0  0  0  0  0  0  0  0  0  0
    0.4609    0.3138   -1.5199 H   0  0  0  0  0  0  0  0  0  0  0  0
    2.7337   -1.3557   -1.0285 H   0  0  0  0  0  0  0  0  0  0  0  0
    8.5216    2.5836   -2.8785 H   0  0  0  0  0  0  0  0  0  0  0  0
    4.2861    2.2559   -2.0735 H   0  0  0  0  0  0  0  0  0  0  0  0
  1  2  1  0
  1 16  1  0
  1 17  1  0
  1 18  1  0
  2  3  2  0
  2  4  1  0
  4  5  1  0
  4 19  1  0
  5  6  1  0
  5 15  2  0
  6  7  1  0
  7  8  2  0
  8  9  1  0
  8 15  1  0
  9 10  1  0
  9 11  2  0
 11 12  1  0
 11 20  1  0
 12 13  1  0
 12 14  2  0
 14 15  1  0
 14 21  1  0
M  END

