
     RDKit          3D

 34 35  0  0  0  0  0  0  0  0999 V2000
    1.6119    0.8626   -0.6904 C   0  0  0  0  0  0  0  0  0  0  0  0
    2.2904   -0.0671    0.1226 O   0  0  0  0  0  0  0  0  0  0  0  0
    2.9130    0.3641    1.2510 C   0  0  0  0  0  0  0  0  0  0  0  0
    2.9306    1.6935    1.6818 C   0  0  0  0  0  0  0  0  0  0  0  0
    3.6075    2.0448    2.8734 C   0  0  0  0  0  0  0  0  0  0  0  0
    3.5945    3.4565    3.2817 C   0  0  0  0  0  0  0  0  0  0  0  0
    4.1702    3.9911    4.3802 C   0  0  0  0  0  0  0  0  0  0  0  0
    4.1598    5.3999    4.7918 C   0  0  0  0  0  0  0  0  0  0  0  0
    3.5232    6.4230    4.0563 C   0  0  0  0  0  0  0  0  0  0  0  0
    3.5459    7.7446    4.4970 C   0  0  0  0  0  0  0  0  0  0  0  0
    4.2045    8.0866    5.6850 C   0  0  0  0  0  0  0  0  0  0  0  0
    4.8411    7.0882    6.4270 C   0  0  0  0  0  0  0  0  0  0  0  0
    4.8178    5.7645    5.9846 C   0  0  0  0  0  0  0  0  0  0  0  0
    4.2562    1.0458    3.6099 C   0  0  0  0  0  0  0  0  0  0  0  0
    4.2346   -0.2877    3.1720 C   0  0  0  0  0  0  0  0  0  0  0  0
    4.8935   -1.1780    3.9580 O   0  0  0  0  0  0  0  0  0  0  0  0
    4.9197   -2.5379    3.5892 C   0  0  0  0  0  0  0  0  0  0  0  0
    3.5653   -0.6362    1.9941 C   0  0  0  0  0  0  0  0  0  0  0  0
    1.1957    0.2954   -1.5341 H   0  0  0  0  0  0  0  0  0  0  0  0
    2.2919    1.6399   -1.0838 H   0  0  0  0  0  0  0  0  0  0  0  0
    0.7848    1.3571   -0.1494 H   0  0  0  0  0  0  0  0  0  0  0  0
    2.4271    2.4749    1.1133 H   0  0  0  0  0  0  0  0  0  0  0  0
    3.0503    4.1180    2.5998 H   0  0  0  0  0  0  0  0  0  0  0  0
    4.7124    3.3271    5.0612 H   0  0  0  0  0  0  0  0  0  0  0  0
    3.0035    6.1828    3.1263 H   0  0  0  0  0  0  0  0  0  0  0  0
    3.0450    8.5183    3.9088 H   0  0  0  0  0  0  0  0  0  0  0  0
    4.2199    9.1244    6.0274 H   0  0  0  0  0  0  0  0  0  0  0  0
    5.3593    7.3408    7.3558 H   0  0  0  0  0  0  0  0  0  0  0  0
    5.3186    4.9892    6.5715 H   0  0  0  0  0  0  0  0  0  0  0  0
    4.7919    1.2650    4.5336 H   0  0  0  0  0  0  0  0  0  0  0  0
    5.5006   -3.0605    4.3612 H   0  0  0  0  0  0  0  0  0  0  0  0
    5.4086   -2.6900    2.6098 H   0  0  0  0  0  0  0  0  0  0  0  0
    3.9050   -2.9737    3.5489 H   0  0  0  0  0  0  0  0  0  0  0  0
    3.5237   -1.6569    1.6180 H   0  0  0  0  0  0  0  0  0  0  0  0
  1  2  1  0
  1 19  1  0
  1 20  1  0
  1 21  1  0
  2  3  1  0
  3  4  2  0
  3 18  1  0
  4  5  1  0
  4 22  1  0
  5  6  1  0
  5 14  2  0
  6  7  2  0
  6 23  1  0
  7  8  1  0
  7 24  1  0
  8  9  2  0
  8 13  1  0
  9 10  1  0
  9 25  1  0
 10 11  2  0
 10 26  1  0
 11 12  1  0
 11 27  1  0
 12 13  2  0
 12 28  1  0
 13 29  1  0
 14 15  1  0
 14 30  1  0
 15 16  1  0
 15 18  2  0
 16 17  1  0
 17 31  1  0
 17 32  1  0
 17 33  1  0
 18 34  1  0
M  END

