
     RDKit          3D

 79 84  0  0  0  0  0  0  0  0999 V2000
   -0.9121   -5.4416   -7.9539 C   0  0  0  0  0  0  0  0  0  0  0  0
   -0.5905   -6.6179   -7.0513 C   0  0  0  0  0  0  0  0  0  0  0  0
    0.7948   -6.6263   -6.7804 O   0  0  0  0  0  0  0  0  0  0  0  0
    1.2246   -7.6760   -5.9456 C   0  0  0  0  0  0  0  0  0  0  0  0
    2.7145   -7.5046   -5.6970 C   0  0  0  0  0  0  0  0  0  0  0  0
    2.9859   -6.2211   -5.0944 N   0  0  0  0  0  0  0  0  0  0  0  0
    3.9191   -5.9620   -4.1443 C   0  0  0  0  0  0  0  0  0  0  0  0
    4.0456   -4.6671   -3.7907 N   0  0  0  0  0  0  0  0  0  0  0  0
    4.9604   -4.3696   -2.8711 C   0  0  0  0  0  0  0  0  0  0  0  0
    5.0784   -2.9107   -2.5130 C   0  0  0  0  0  0  0  0  0  0  0  0
    5.7837   -5.3608   -2.2799 C   0  0  0  0  0  0  0  0  0  0  0  0
    6.7889   -5.0163   -1.2722 C   0  0  0  0  0  0  0  0  0  0  0  0
    6.6098   -4.2440   -0.2468 N   0  0  0  0  0  0  0  0  0  0  0  0
    7.7547   -4.0692    0.4998 C   0  0  0  0  0  0  0  0  0  0  0  0
    7.8681   -3.2943    1.6816 C   0  0  0  0  0  0  0  0  0  0  0  0
    6.6975   -2.5549    2.2199 C   0  0  1  0  0  0  0  0  0  0  0  0
    6.5523   -2.3856    3.7218 C   0  0  0  0  0  0  0  0  0  0  0  0
    6.9128   -1.2044    2.8807 C   0  0  0  0  0  0  0  0  0  0  0  0
    9.0318   -3.2175    2.3306 N   0  0  0  0  0  0  0  0  0  0  0  0
   10.1051   -3.8747    1.8708 C   0  0  0  0  0  0  0  0  0  0  0  0
   10.1109   -4.6689    0.7240 C   0  0  0  0  0  0  0  0  0  0  0  0
    8.9000   -4.7573    0.0304 C   0  0  0  0  0  0  0  0  0  0  0  0
    8.4953   -5.6152   -1.4310 S   0  0  0  0  0  0  0  0  0  0  0  0
    5.5368   -6.7079   -2.7089 C   0  0  0  0  0  0  0  0  0  0  0  0
    6.1992   -7.7695   -2.1713 N   0  0  0  0  0  0  0  0  0  0  0  0
    6.0436   -9.1431   -2.6327 C   0  0  2  0  0  0  0  0  0  0  0  0
    6.0813   -9.1466   -3.7314 H   0  0  0  0  0  0  0  0  0  0  0  0
    4.7389   -9.8353   -2.1477 C   0  0  0  0  0  0  0  0  0  0  0  0
    5.1687  -10.8262   -1.0404 C   0  0  2  0  0  0  0  0  0  0  0  0
    4.4878  -11.6882   -0.9703 H   0  0  0  0  0  0  0  0  0  0  0  0
    5.1838  -10.1432    0.3348 C   0  0  0  0  0  0  0  0  0  0  0  0
    5.8036  -11.2550    1.6444 S   0  0  1  0  0  0  0  0  0  0  0  0
    5.0826  -12.5322    1.5004 O   0  0  0  0  0  0  0  0  0  0  0  0
    7.2779  -11.2170    1.6101 O   0  0  0  0  0  0  0  0  0  0  0  0
    5.2737  -10.4827    3.1827 C   0  0  0  0  0  0  0  0  0  0  0  0
    4.0390  -10.8409    3.7320 C   0  0  0  0  0  0  0  0  0  0  0  0
    3.6348  -10.2397    4.9265 C   0  0  0  0  0  0  0  0  0  0  0  0
    4.4619   -9.3019    5.5550 C   0  0  0  0  0  0  0  0  0  0  0  0
    5.7011   -8.9650    4.9995 C   0  0  0  0  0  0  0  0  0  0  0  0
    6.1185   -9.5599    3.8060 C   0  0  0  0  0  0  0  0  0  0  0  0
    6.5479  -11.2983   -1.5447 C   0  0  1  0  0  0  0  0  0  0  0  0
    7.1648  -11.7745   -0.7681 H   0  0  0  0  0  0  0  0  0  0  0  0
    6.3949  -12.1642   -2.6674 O   0  0  0  0  0  0  0  0  0  0  0  0
    7.2183  -10.0220   -2.0945 C   0  0  1  0  0  0  0  0  0  0  0  0
    7.7004   -9.5008   -1.2477 H   0  0  0  0  0  0  0  0  0  0  0  0
    8.2210  -10.3027   -3.0274 O   0  0  0  0  0  0  0  0  0  0  0  0
    4.6167   -6.9861   -3.6378 N   0  0  0  0  0  0  0  0  0  0  0  0
   -1.9882   -5.4159   -8.1860 H   0  0  0  0  0  0  0  0  0  0  0  0
   -0.3529   -5.5153   -8.8994 H   0  0  0  0  0  0  0  0  0  0  0  0
   -0.6386   -4.4924   -7.4674 H   0  0  0  0  0  0  0  0  0  0  0  0
   -0.8888   -7.5716   -7.5357 H   0  0  0  0  0  0  0  0  0  0  0  0
   -1.1649   -6.5507   -6.1033 H   0  0  0  0  0  0  0  0  0  0  0  0
    1.0361   -8.6622   -6.4190 H   0  0  0  0  0  0  0  0  0  0  0  0
    0.6741   -7.6571   -4.9820 H   0  0  0  0  0  0  0  0  0  0  0  0
    3.2508   -7.6148   -6.6596 H   0  0  0  0  0  0  0  0  0  0  0  0
    3.0822   -8.2914   -5.0248 H   0  0  0  0  0  0  0  0  0  0  0  0
    2.5206   -5.4105   -5.4877 H   0  0  0  0  0  0  0  0  0  0  0  0
    4.4953   -2.3229   -3.2330 H   0  0  0  0  0  0  0  0  0  0  0  0
    6.1255   -2.5723   -2.5160 H   0  0  0  0  0  0  0  0  0  0  0  0
    4.6947   -2.7290   -1.4979 H   0  0  0  0  0  0  0  0  0  0  0  0
    5.7840   -2.6897    1.6385 H   0  0  0  0  0  0  0  0  0  0  0  0
    7.3459   -2.8257    4.3315 H   0  0  0  0  0  0  0  0  0  0  0  0
    5.5436   -2.4522    4.1394 H   0  0  0  0  0  0  0  0  0  0  0  0
    7.9473   -0.8540    2.9273 H   0  0  0  0  0  0  0  0  0  0  0  0
    6.1611   -0.4309    2.6997 H   0  0  0  0  0  0  0  0  0  0  0  0
   11.0264   -3.7636    2.4545 H   0  0  0  0  0  0  0  0  0  0  0  0
   11.0156   -5.1834    0.3961 H   0  0  0  0  0  0  0  0  0  0  0  0
    6.9583   -7.5754   -1.5301 H   0  0  0  0  0  0  0  0  0  0  0  0
    4.3092  -10.4088   -2.9808 H   0  0  0  0  0  0  0  0  0  0  0  0
    3.9824   -9.1092   -1.8204 H   0  0  0  0  0  0  0  0  0  0  0  0
    4.1610   -9.8654    0.6295 H   0  0  0  0  0  0  0  0  0  0  0  0
    5.8118   -9.2417    0.3762 H   0  0  0  0  0  0  0  0  0  0  0  0
    3.4224  -11.5916    3.2338 H   0  0  0  0  0  0  0  0  0  0  0  0
    2.6745  -10.5100    5.3724 H   0  0  0  0  0  0  0  0  0  0  0  0
    4.1412   -8.8353    6.4898 H   0  0  0  0  0  0  0  0  0  0  0  0
    6.3488   -8.2418    5.5005 H   0  0  0  0  0  0  0  0  0  0  0  0
    7.0911   -9.3314    3.3661 H   0  0  0  0  0  0  0  0  0  0  0  0
    6.2737  -13.0672   -2.3498 H   0  0  0  0  0  0  0  0  0  0  0  0
    7.9258  -11.1085   -3.4836 H   0  0  0  0  0  0  0  0  0  0  0  0
  1  2  1  0
  1 48  1  0
  1 49  1  0
  1 50  1  0
  2  3  1  0
  2 51  1  0
  2 52  1  0
  3  4  1  0
  4  5  1  0
  4 53  1  0
  4 54  1  0
  5  6  1  0
  5 55  1  0
  5 56  1  0
  6  7  1  0
  6 57  1  0
  7  8  2  0
  7 47  1  0
  8  9  1  0
  9 10  1  0
  9 11  2  0
 10 58  1  0
 10 59  1  0
 10 60  1  0
 11 12  1  0
 11 24  1  0
 12 13  2  0
 12 23  1  0
 13 14  1  0
 14 15  2  0
 14 22  1  0
 15 16  1  0
 15 19  1  0
 16 17  1  0
 16 18  1  0
 16 61  1  6
 17 18  1  0
 17 62  1  0
 17 63  1  0
 18 64  1  0
 18 65  1  0
 19 20  2  0
 20 21  1  0
 20 66  1  0
 21 22  2  0
 21 67  1  0
 22 23  1  0
 24 25  1  0
 24 47  2  0
 25 26  1  0
 25 68  1  0
 26 27  1  6
 26 28  1  0
 26 44  1  0
 28 29  1  0
 28 69  1  0
 28 70  1  0
 29 30  1  1
 29 31  1  0
 29 41  1  0
 32 31  1  6
 31 71  1  0
 31 72  1  0
 32 33  2  0
 32 34  2  0
 32 35  1  0
 35 36  2  0
 35 40  1  0
 36 37  1  0
 36 73  1  0
 37 38  2  0
 37 74  1  0
 38 39  1  0
 38 75  1  0
 39 40  2  0
 39 76  1  0
 40 77  1  0
 41 42  1  1
 41 43  1  0
 41 44  1  0
 43 78  1  0
 44 45  1  1
 44 46  1  0
 46 79  1  0
M  END

