
     RDKit          3D

 26 28  0  0  0  0  0  0  0  0999 V2000
    2.4049    1.2125   -0.9992 O   0  0  0  0  0  0  0  0  0  0  0  0
    1.9233    0.1668   -1.3487 C   0  0  0  0  0  0  0  0  0  0  0  0
    0.6843    0.1268   -1.8896 O   0  0  0  0  0  0  0  0  0  0  0  0
    2.6271   -1.1364   -1.2227 C   0  0  0  0  0  0  0  0  0  0  0  0
    3.9050   -1.2530   -0.7344 C   0  0  0  0  0  0  0  0  0  0  0  0
    4.2923   -2.5425   -0.7300 O   0  0  0  0  0  0  0  0  0  0  0  0
    3.2601   -3.2920   -1.2190 C   0  0  0  0  0  0  0  0  0  0  0  0
    3.4450   -4.7301   -1.3083 C   0  0  0  0  0  0  0  0  0  0  0  0
    4.5812   -5.4264   -0.9413 C   0  0  0  0  0  0  0  0  0  0  0  0
    4.3670   -7.1125   -1.2148 S   0  0  0  0  0  0  0  0  0  0  0  0
    2.7509   -6.7687   -1.8101 C   0  0  0  0  0  0  0  0  0  0  0  0
    1.8884   -7.8621   -2.2715 C   0  0  0  0  0  0  0  0  0  0  0  0
    0.5869   -7.6168   -2.7540 C   0  0  0  0  0  0  0  0  0  0  0  0
   -0.1977   -8.6061   -3.1732 N   0  0  0  0  0  0  0  0  0  0  0  0
    0.3022   -9.8432   -3.1168 C   0  0  0  0  0  0  0  0  0  0  0  0
    1.5954  -10.0913   -2.6379 C   0  0  0  0  0  0  0  0  0  0  0  0
    2.3838   -9.1055   -2.2176 N   0  0  0  0  0  0  0  0  0  0  0  0
    2.4247   -5.5063   -1.7956 N   0  0  0  0  0  0  0  0  0  0  0  0
    2.2070   -2.4753   -1.5388 C   0  0  0  0  0  0  0  0  0  0  0  0
    0.4427   -0.7762   -2.1366 H   0  0  0  0  0  0  0  0  0  0  0  0
    4.6141   -0.5139   -0.3722 H   0  0  0  0  0  0  0  0  0  0  0  0
    5.5044   -5.0202   -0.5336 H   0  0  0  0  0  0  0  0  0  0  0  0
    0.2006   -6.5942   -2.7901 H   0  0  0  0  0  0  0  0  0  0  0  0
   -0.3362  -10.6648   -3.4596 H   0  0  0  0  0  0  0  0  0  0  0  0
    1.9944  -11.1109   -2.5965 H   0  0  0  0  0  0  0  0  0  0  0  0
    1.2607   -2.8276   -1.9444 H   0  0  0  0  0  0  0  0  0  0  0  0
  1  2  2  0
  2  3  1  0
  2  4  1  0
  3 20  1  0
  4  5  2  0
  4 19  1  0
  5  6  1  0
  5 21  1  0
  6  7  1  0
  7  8  1  0
  7 19  2  0
  8  9  2  0
  8 18  1  0
  9 10  1  0
  9 22  1  0
 10 11  1  0
 11 12  1  0
 11 18  2  0
 12 13  2  0
 12 17  1  0
 13 14  1  0
 13 23  1  0
 14 15  2  0
 15 16  1  0
 15 24  1  0
 16 17  2  0
 16 25  1  0
 19 26  1  0
M  END

