
     RDKit          3D

 36 37  0  0  0  0  0  0  0  0999 V2000
    0.4342   -0.0506    0.4406 C   0  0  0  0  0  0  0  0  0  0  0  0
    1.9050    0.1870    0.0518 C   0  0  1  0  0  0  0  0  0  0  0  0
    2.0226    0.8952   -1.2380 N   0  0  0  0  0  0  0  0  0  0  0  0
    2.3276    0.0681   -2.4129 C   0  0  1  0  0  0  0  0  0  0  0  0
    1.2072   -0.9315   -2.7416 C   0  0  0  0  0  0  0  0  0  0  0  0
    2.5909    0.9692   -3.6148 C   0  0  0  0  0  0  0  0  0  0  0  0
    1.9224    2.1983   -3.7475 C   0  0  0  0  0  0  0  0  0  0  0  0
    2.1207    3.0288   -4.8520 C   0  0  0  0  0  0  0  0  0  0  0  0
    3.0019    2.6424   -5.8649 C   0  0  0  0  0  0  0  0  0  0  0  0
    3.6751    1.4238   -5.7672 C   0  0  0  0  0  0  0  0  0  0  0  0
    3.4631    0.6023   -4.6559 C   0  0  0  0  0  0  0  0  0  0  0  0
    4.3266   -0.9308   -4.6048 Cl  0  0  0  0  0  0  0  0  0  0  0  0
    2.6115    0.9738    1.1459 C   0  0  0  0  0  0  0  0  0  0  0  0
    2.3946    2.3502    1.3283 C   0  0  0  0  0  0  0  0  0  0  0  0
    3.0283    3.0734    2.3407 C   0  0  0  0  0  0  0  0  0  0  0  0
    3.8952    2.4001    3.1991 C   0  0  0  0  0  0  0  0  0  0  0  0
    4.5106    3.0764    4.1773 F   0  0  0  0  0  0  0  0  0  0  0  0
    4.1400    1.0364    3.0676 C   0  0  0  0  0  0  0  0  0  0  0  0
    3.4894    0.3521    2.0427 C   0  0  0  0  0  0  0  0  0  0  0  0
    3.7256   -0.9656    1.9244 F   0  0  0  0  0  0  0  0  0  0  0  0
   -0.0933   -0.6301   -0.3296 H   0  0  0  0  0  0  0  0  0  0  0  0
   -0.0902    0.9103    0.5577 H   0  0  0  0  0  0  0  0  0  0  0  0
    0.3680   -0.6018    1.3921 H   0  0  0  0  0  0  0  0  0  0  0  0
    2.4056   -0.7970   -0.0096 H   0  0  0  0  0  0  0  0  0  0  0  0
    2.7605    1.5924   -1.1603 H   0  0  0  0  0  0  0  0  0  0  0  0
    3.2467   -0.5290   -2.2435 H   0  0  0  0  0  0  0  0  0  0  0  0
    0.2536   -0.4067   -2.9083 H   0  0  0  0  0  0  0  0  0  0  0  0
    1.0706   -1.6634   -1.9312 H   0  0  0  0  0  0  0  0  0  0  0  0
    1.4645   -1.4931   -3.6514 H   0  0  0  0  0  0  0  0  0  0  0  0
    1.2389    2.4915   -2.9486 H   0  0  0  0  0  0  0  0  0  0  0  0
    1.5848    3.9786   -4.9212 H   0  0  0  0  0  0  0  0  0  0  0  0
    3.1681    3.2845   -6.7334 H   0  0  0  0  0  0  0  0  0  0  0  0
    4.3666    1.0985   -6.5462 H   0  0  0  0  0  0  0  0  0  0  0  0
    1.7095    2.8683    0.6531 H   0  0  0  0  0  0  0  0  0  0  0  0
    2.8586    4.1427    2.4761 H   0  0  0  0  0  0  0  0  0  0  0  0
    4.8195    0.5152    3.7426 H   0  0  0  0  0  0  0  0  0  0  0  0
  1  2  1  0
  1 21  1  0
  1 22  1  0
  1 23  1  0
  2  3  1  0
  2 13  1  0
  2 24  1  6
  3  4  1  0
  3 25  1  0
  4  5  1  0
  4  6  1  0
  4 26  1  1
  5 27  1  0
  5 28  1  0
  5 29  1  0
  6  7  2  0
  6 11  1  0
  7  8  1  0
  7 30  1  0
  8  9  2  0
  8 31  1  0
  9 10  1  0
  9 32  1  0
 10 11  2  0
 10 33  1  0
 11 12  1  0
 13 14  2  0
 13 19  1  0
 14 15  1  0
 14 34  1  0
 15 16  2  0
 15 35  1  0
 16 17  1  0
 16 18  1  0
 18 19  2  0
 18 36  1  0
 19 20  1  0
M  END

