
     RDKit          3D

 27 27  0  0  0  0  0  0  0  0999 V2000
    2.2355   -0.6872    1.1269 C   0  0  0  0  0  0  0  0  0  0  0  0
    2.7277   -0.0053    0.0769 C   0  0  0  0  0  0  0  0  0  0  0  0
    3.2854   -0.5568   -1.1541 C   0  0  0  0  0  0  0  0  0  0  0  0
    3.6978    0.2565   -2.1760 C   0  0  0  0  0  0  0  0  0  0  0  0
    4.3133   -0.3322   -3.3428 C   0  0  0  0  0  0  0  0  0  0  0  0
    4.2997   -1.6727   -3.5301 C   0  0  0  0  0  0  0  0  0  0  0  0
    4.8106   -2.2103   -4.6768 O   0  0  0  0  0  0  0  0  0  0  0  0
    5.6101   -3.3857   -4.5971 C   0  0  0  0  0  0  0  0  0  0  0  0
    6.2671   -3.5977   -5.9479 C   0  0  0  0  0  0  0  0  0  0  0  0
    3.5359   -2.5826   -2.5809 C   0  0  2  0  0  0  0  0  0  0  0  0
    2.1578   -2.9682   -3.1614 C   0  0  0  0  0  0  0  0  0  0  0  0
    3.4639   -1.9257   -1.2775 N   0  0  0  0  0  0  0  0  0  0  0  0
    1.8496   -0.1657    2.0056 H   0  0  0  0  0  0  0  0  0  0  0  0
    2.1888   -1.7802    1.1599 H   0  0  0  0  0  0  0  0  0  0  0  0
    2.7294    1.0886    0.1150 H   0  0  0  0  0  0  0  0  0  0  0  0
    3.6030    1.3383   -2.0828 H   0  0  0  0  0  0  0  0  0  0  0  0
    4.7945    0.2957   -4.0963 H   0  0  0  0  0  0  0  0  0  0  0  0
    4.9915   -4.2651   -4.3343 H   0  0  0  0  0  0  0  0  0  0  0  0
    6.3728   -3.2673   -3.8041 H   0  0  0  0  0  0  0  0  0  0  0  0
    5.5045   -3.7028   -6.7351 H   0  0  0  0  0  0  0  0  0  0  0  0
    6.8838   -4.5100   -5.9362 H   0  0  0  0  0  0  0  0  0  0  0  0
    6.9097   -2.7423   -6.2062 H   0  0  0  0  0  0  0  0  0  0  0  0
    4.1081   -3.5160   -2.4340 H   0  0  0  0  0  0  0  0  0  0  0  0
    1.5372   -2.0704   -3.3067 H   0  0  0  0  0  0  0  0  0  0  0  0
    1.6267   -3.6549   -2.4806 H   0  0  0  0  0  0  0  0  0  0  0  0
    2.2713   -3.4690   -4.1359 H   0  0  0  0  0  0  0  0  0  0  0  0
    3.1027   -2.4985   -0.5259 H   0  0  0  0  0  0  0  0  0  0  0  0
  1  2  2  0
  1 13  1  0
  1 14  1  0
  2  3  1  0
  2 15  1  0
  3  4  2  0
  3 12  1  0
  4  5  1  0
  4 16  1  0
  5  6  2  0
  5 17  1  0
  6  7  1  0
  6 10  1  0
  7  8  1  0
  8  9  1  0
  8 18  1  0
  8 19  1  0
  9 20  1  0
  9 21  1  0
  9 22  1  0
 10 11  1  0
 10 12  1  0
 10 23  1  1
 11 24  1  0
 11 25  1  0
 11 26  1  0
 12 27  1  0
M  END

