
     RDKit          3D

 54 57  0  0  0  0  0  0  0  0999 V2000
    2.5418   -0.7260   -6.8815 C   0  0  0  0  0  0  0  0  0  0  0  0
    1.6903   -0.5011   -5.6321 C   0  0  0  0  0  0  0  0  0  0  0  0
    2.4366    0.1172   -4.5382 N   0  0  0  0  0  0  0  0  0  0  0  0
    2.7415    1.5312   -4.6928 C   0  0  0  0  0  0  0  0  0  0  0  0
    1.5737    2.4723   -4.3265 C   0  0  0  0  0  0  0  0  0  0  0  0
    1.0934    2.1621   -2.9802 N   0  0  0  0  0  0  0  0  0  0  0  0
    0.9498    3.1129   -2.0204 C   0  0  0  0  0  0  0  0  0  0  0  0
    0.8067    4.4821   -2.1164 C   0  0  0  0  0  0  0  0  0  0  0  0
    0.4686    5.3423   -3.2638 C   0  0  0  0  0  0  0  0  0  0  0  0
   -0.4800    4.9343   -4.2248 C   0  0  0  0  0  0  0  0  0  0  0  0
   -0.8318    5.7561   -5.2956 C   0  0  0  0  0  0  0  0  0  0  0  0
   -0.2365    7.0109   -5.4052 C   0  0  0  0  0  0  0  0  0  0  0  0
   -0.5696    7.8067   -6.4321 F   0  0  0  0  0  0  0  0  0  0  0  0
    0.6911    7.4583   -4.4671 C   0  0  0  0  0  0  0  0  0  0  0  0
    1.0362    6.6263   -3.4020 C   0  0  0  0  0  0  0  0  0  0  0  0
    0.8899    5.0448   -0.7510 C   0  0  0  0  0  0  0  0  0  0  0  0
    0.8248    6.2025   -0.4055 O   0  0  0  0  0  0  0  0  0  0  0  0
    1.0538    3.9542    0.1581 N   0  0  0  0  0  0  0  0  0  0  0  0
    1.1571    4.0791    1.5717 C   0  0  0  0  0  0  0  0  0  0  0  0
    1.8861    5.1264    2.1442 C   0  0  0  0  0  0  0  0  0  0  0  0
    1.9710    5.2497    3.5330 C   0  0  0  0  0  0  0  0  0  0  0  0
    1.3480    4.3251    4.3836 C   0  0  0  0  0  0  0  0  0  0  0  0
    1.3893    4.3687    5.7324 O   0  0  0  0  0  0  0  0  0  0  0  0
    2.1015    5.4061    6.3695 C   0  0  0  0  0  0  0  0  0  0  0  0
    0.6229    3.2675    3.7910 C   0  0  0  0  0  0  0  0  0  0  0  0
   -0.1655    2.0961    4.8158 Cl  0  0  0  0  0  0  0  0  0  0  0  0
    0.5200    3.1495    2.4093 C   0  0  0  0  0  0  0  0  0  0  0  0
    1.1041    2.7581   -0.5436 C   0  0  0  0  0  0  0  0  0  0  0  0
    1.2707    1.6580   -0.0623 O   0  0  0  0  0  0  0  0  0  0  0  0
    0.7543    0.7442   -2.7925 C   0  0  0  0  0  0  0  0  0  0  0  0
    1.9398   -0.1461   -3.1937 C   0  0  0  0  0  0  0  0  0  0  0  0
    1.9592   -1.2541   -7.6532 H   0  0  0  0  0  0  0  0  0  0  0  0
    3.4310   -1.3274   -6.6374 H   0  0  0  0  0  0  0  0  0  0  0  0
    2.8868    0.2211   -7.3265 H   0  0  0  0  0  0  0  0  0  0  0  0
    1.3354   -1.4793   -5.2687 H   0  0  0  0  0  0  0  0  0  0  0  0
    0.7732    0.0643   -5.9135 H   0  0  0  0  0  0  0  0  0  0  0  0
    3.0568    1.7393   -5.7266 H   0  0  0  0  0  0  0  0  0  0  0  0
    3.5977    1.7797   -4.0399 H   0  0  0  0  0  0  0  0  0  0  0  0
    0.7506    2.3705   -5.0586 H   0  0  0  0  0  0  0  0  0  0  0  0
    1.9138    3.5133   -4.3636 H   0  0  0  0  0  0  0  0  0  0  0  0
   -0.9689    3.9638   -4.1181 H   0  0  0  0  0  0  0  0  0  0  0  0
   -1.5702    5.4455   -6.0374 H   0  0  0  0  0  0  0  0  0  0  0  0
    1.1306    8.4513   -4.5797 H   0  0  0  0  0  0  0  0  0  0  0  0
    1.7512    6.9783   -2.6583 H   0  0  0  0  0  0  0  0  0  0  0  0
    2.3747    5.8628    1.5085 H   0  0  0  0  0  0  0  0  0  0  0  0
    2.5386    6.0811    3.9507 H   0  0  0  0  0  0  0  0  0  0  0  0
    1.9949    5.2374    7.4492 H   0  0  0  0  0  0  0  0  0  0  0  0
    1.6900    6.4005    6.1196 H   0  0  0  0  0  0  0  0  0  0  0  0
    3.1749    5.3881    6.1081 H   0  0  0  0  0  0  0  0  0  0  0  0
   -0.0462    2.3191    1.9924 H   0  0  0  0  0  0  0  0  0  0  0  0
   -0.1213    0.5159   -3.4314 H   0  0  0  0  0  0  0  0  0  0  0  0
    0.4798    0.5663   -1.7493 H   0  0  0  0  0  0  0  0  0  0  0  0
    1.6524   -1.2058   -3.1079 H   0  0  0  0  0  0  0  0  0  0  0  0
    2.7562    0.0316   -2.4713 H   0  0  0  0  0  0  0  0  0  0  0  0
  1  2  1  0
  1 32  1  0
  1 33  1  0
  1 34  1  0
  2  3  1  0
  2 35  1  0
  2 36  1  0
  3  4  1  0
  3 31  1  0
  4  5  1  0
  4 37  1  0
  4 38  1  0
  5  6  1  0
  5 39  1  0
  5 40  1  0
  6  7  1  0
  6 30  1  0
  7  8  2  0
  7 28  1  0
  8  9  1  0
  8 16  1  0
  9 10  2  0
  9 15  1  0
 10 11  1  0
 10 41  1  0
 11 12  2  0
 11 42  1  0
 12 13  1  0
 12 14  1  0
 14 15  2  0
 14 43  1  0
 15 44  1  0
 16 17  2  0
 16 18  1  0
 18 19  1  0
 18 28  1  0
 19 20  2  0
 19 27  1  0
 20 21  1  0
 20 45  1  0
 21 22  2  0
 21 46  1  0
 22 23  1  0
 22 25  1  0
 23 24  1  0
 24 47  1  0
 24 48  1  0
 24 49  1  0
 25 26  1  0
 25 27  2  0
 27 50  1  0
 28 29  2  0
 30 31  1  0
 30 51  1  0
 30 52  1  0
 31 53  1  0
 31 54  1  0
M  END

