
     RDKit          3D

 62 66  0  0  0  0  0  0  0  0999 V2000
    8.2419   -9.1178    1.9369 C   0  0  0  0  0  0  0  0  0  0  0  0
    8.8794   -7.7523    1.8316 C   0  0  0  0  0  0  0  0  0  0  0  0
    8.2190   -6.8670    1.0872 N   0  0  0  0  0  0  0  0  0  0  0  0
    8.7275   -5.6468    0.9732 C   0  0  0  0  0  0  0  0  0  0  0  0
    7.9401   -4.4137    0.0242 S   0  0  0  0  0  0  0  0  0  0  0  0
    9.2317   -3.2686    0.4115 C   0  0  0  0  0  0  0  0  0  0  0  0
    9.0123   -1.9090   -0.0988 C   0  0  0  0  0  0  0  0  0  0  0  0
    7.9053   -1.5684   -0.4989 O   0  0  0  0  0  0  0  0  0  0  0  0
   10.1427   -0.9129   -0.1731 C   0  0  0  0  0  0  0  0  0  0  0  0
    9.8670    0.4353    0.1196 C   0  0  0  0  0  0  0  0  0  0  0  0
   10.8585    1.4019   -0.0073 C   0  0  0  0  0  0  0  0  0  0  0  0
   12.1359    1.0619   -0.4913 C   0  0  0  0  0  0  0  0  0  0  0  0
   13.1649    2.1592   -0.5666 C   0  0  0  0  0  0  0  0  0  0  0  0
   13.1263    3.0421    0.3069 O   0  0  0  0  0  0  0  0  0  0  0  0
   14.1460    2.2097   -1.6351 C   0  0  0  0  0  0  0  0  0  0  0  0
   14.1750    1.1267   -3.0441 S   0  0  0  0  0  0  0  0  0  0  0  0
   15.5017    2.0279   -3.7378 C   0  0  0  0  0  0  0  0  0  0  0  0
   16.0361    1.6855   -4.9014 N   0  0  0  0  0  0  0  0  0  0  0  0
   17.0483    2.4183   -5.3644 C   0  0  0  0  0  0  0  0  0  0  0  0
   17.6055    1.9821   -6.6989 C   0  0  0  0  0  0  0  0  0  0  0  0
   17.5821    3.5332   -4.6502 C   0  0  0  0  0  0  0  0  0  0  0  0
   18.7375    4.3249   -5.2247 C   0  0  0  0  0  0  0  0  0  0  0  0
   17.0263    3.8754   -3.4046 C   0  0  0  0  0  0  0  0  0  0  0  0
   17.5930    5.0130   -2.5869 C   0  0  0  0  0  0  0  0  0  0  0  0
   15.9271    3.1120   -2.9317 C   0  0  0  0  0  0  0  0  0  0  0  0
   15.1181    3.2255   -1.7282 C   0  0  0  0  0  0  0  0  0  0  0  0
   15.2512    4.1837   -0.7788 N   0  0  0  0  0  0  0  0  0  0  0  0
   12.4047   -0.2796   -0.8045 C   0  0  0  0  0  0  0  0  0  0  0  0
   11.4213   -1.2587   -0.6366 C   0  0  0  0  0  0  0  0  0  0  0  0
   10.1940   -3.8041    1.2689 C   0  0  0  0  0  0  0  0  0  0  0  0
   11.2706   -3.1177    1.8011 N   0  0  0  0  0  0  0  0  0  0  0  0
    9.9359   -5.2050    1.5722 C   0  0  0  0  0  0  0  0  0  0  0  0
   10.6725   -6.1640    2.3183 C   0  0  0  0  0  0  0  0  0  0  0  0
   12.0298   -5.8527    2.9086 C   0  0  0  0  0  0  0  0  0  0  0  0
   10.1158   -7.4463    2.4737 C   0  0  0  0  0  0  0  0  0  0  0  0
   10.8311   -8.4981    3.2934 C   0  0  0  0  0  0  0  0  0  0  0  0
    7.3311   -9.1272    1.3253 H   0  0  0  0  0  0  0  0  0  0  0  0
    7.9670   -9.3629    2.9767 H   0  0  0  0  0  0  0  0  0  0  0  0
    8.9146   -9.9160    1.5822 H   0  0  0  0  0  0  0  0  0  0  0  0
    8.8611    0.7062    0.4469 H   0  0  0  0  0  0  0  0  0  0  0  0
   10.6623    2.4420    0.2595 H   0  0  0  0  0  0  0  0  0  0  0  0
   17.0581    1.0919   -7.0329 H   0  0  0  0  0  0  0  0  0  0  0  0
   18.6780    1.7346   -6.6368 H   0  0  0  0  0  0  0  0  0  0  0  0
   17.4964    2.7675   -7.4654 H   0  0  0  0  0  0  0  0  0  0  0  0
   18.9608    4.0334   -6.2573 H   0  0  0  0  0  0  0  0  0  0  0  0
   19.6642    4.1807   -4.6422 H   0  0  0  0  0  0  0  0  0  0  0  0
   18.5281    5.4064   -5.2336 H   0  0  0  0  0  0  0  0  0  0  0  0
   18.5739    5.3386   -2.9510 H   0  0  0  0  0  0  0  0  0  0  0  0
   17.7170    4.7191   -1.5339 H   0  0  0  0  0  0  0  0  0  0  0  0
   16.9317    5.8979   -2.6163 H   0  0  0  0  0  0  0  0  0  0  0  0
   15.7822    5.0190   -0.9659 H   0  0  0  0  0  0  0  0  0  0  0  0
   14.5166    4.1764   -0.0653 H   0  0  0  0  0  0  0  0  0  0  0  0
   13.3928   -0.5764   -1.1603 H   0  0  0  0  0  0  0  0  0  0  0  0
   11.6505   -2.2990   -0.8776 H   0  0  0  0  0  0  0  0  0  0  0  0
   11.2680   -2.1119    1.6744 H   0  0  0  0  0  0  0  0  0  0  0  0
   11.5543   -3.3956    2.7319 H   0  0  0  0  0  0  0  0  0  0  0  0
   12.5760   -5.1215    2.2996 H   0  0  0  0  0  0  0  0  0  0  0  0
   12.6532   -6.7533    2.9793 H   0  0  0  0  0  0  0  0  0  0  0  0
   11.9457   -5.4485    3.9347 H   0  0  0  0  0  0  0  0  0  0  0  0
   11.1905   -8.0946    4.2528 H   0  0  0  0  0  0  0  0  0  0  0  0
   11.7131   -8.9024    2.7649 H   0  0  0  0  0  0  0  0  0  0  0  0
   10.1799   -9.3492    3.5255 H   0  0  0  0  0  0  0  0  0  0  0  0
  1  2  1  0
  1 37  1  0
  1 38  1  0
  1 39  1  0
  2  3  2  0
  2 35  1  0
  3  4  1  0
  4  5  2  0
  4 32  1  0
  5  6  1  0
  6  7  2  0
  6 30  1  0
  7  8  1  0
  7  9  1  0
  9 10  2  0
  9 29  1  0
 10 11  1  0
 10 40  1  0
 11 12  2  0
 11 41  1  0
 12 13  1  0
 12 28  1  0
 13 14  2  0
 13 15  1  0
 15 16  1  0
 15 26  2  0
 16 17  1  0
 17 18  2  0
 17 25  1  0
 18 19  1  0
 19 20  1  0
 19 21  2  0
 20 42  1  0
 20 43  1  0
 20 44  1  0
 21 22  1  0
 21 23  1  0
 22 45  1  0
 22 46  1  0
 22 47  1  0
 23 24  1  0
 23 25  2  0
 24 48  1  0
 24 49  1  0
 24 50  1  0
 25 26  1  0
 26 27  1  0
 27 51  1  0
 27 52  1  0
 28 29  2  0
 28 53  1  0
 29 54  1  0
 30 31  1  0
 30 32  2  0
 31 55  1  0
 31 56  1  0
 32 33  1  0
 33 34  1  0
 33 35  2  0
 34 57  1  0
 34 58  1  0
 34 59  1  0
 35 36  1  0
 36 60  1  0
 36 61  1  0
 36 62  1  0
M  CHG  2   5   1   8  -1
M  END

