
     RDKit          3D

 45 46  0  0  0  0  0  0  0  0999 V2000
    9.9892    2.6380   -6.0426 C   0  0  0  0  0  0  0  0  0  0  0  0
    9.1178    3.5408   -5.2420 C   0  0  0  0  0  0  0  0  0  0  0  0
    8.4246    3.3879   -4.0754 C   0  0  0  0  0  0  0  0  0  0  0  0
    7.7990    4.6645   -3.8903 C   0  0  0  0  0  0  0  0  0  0  0  0
    6.9726    4.9747   -2.8157 N   0  0  0  0  0  0  0  0  0  0  0  0
    6.3402    6.1724   -2.5380 C   0  0  0  0  0  0  0  0  0  0  0  0
    6.4450    7.1723   -3.2152 O   0  0  0  0  0  0  0  0  0  0  0  0
    5.4433    6.1352   -1.2909 C   0  0  1  0  0  0  0  0  0  0  0  0
    4.1258    5.3974   -1.5554 C   0  0  0  0  0  0  0  0  0  0  0  0
    6.2650    5.3710    0.1730 S   0  0  0  0  0  0  0  0  0  0  0  0
    7.7763    6.3871    0.2763 C   0  0  0  0  0  0  0  0  0  0  0  0
    7.5158    7.8993    0.4107 C   0  0  0  0  0  0  0  0  0  0  0  0
    6.4030    8.3373    0.6511 O   0  0  0  0  0  0  0  0  0  0  0  0
    8.6063    8.7099    0.2128 N   0  0  0  0  0  0  0  0  0  0  0  0
    9.9513    8.2170   -0.0489 C   0  0  0  0  0  0  0  0  0  0  0  0
    8.3983   10.1557    0.1392 C   0  0  0  0  0  0  0  0  0  0  0  0
    8.6850   10.7399   -1.2346 C   0  0  0  0  0  0  0  0  0  0  0  0
    8.1453   10.1601   -2.3947 C   0  0  0  0  0  0  0  0  0  0  0  0
    8.4047   10.7216   -3.6467 C   0  0  0  0  0  0  0  0  0  0  0  0
    9.1951   11.8688   -3.7685 C   0  0  0  0  0  0  0  0  0  0  0  0
    9.7261   12.4425   -2.6120 C   0  0  0  0  0  0  0  0  0  0  0  0
   10.7258   13.8768   -2.7351 Cl  0  0  0  0  0  0  0  0  0  0  0  0
    9.4824   11.8860   -1.3527 C   0  0  0  0  0  0  0  0  0  0  0  0
    8.0942    5.5049   -4.8591 N   0  0  0  0  0  0  0  0  0  0  0  0
    8.9278    4.7850   -5.7092 O   0  0  0  0  0  0  0  0  0  0  0  0
   10.0672    1.6534   -5.5629 H   0  0  0  0  0  0  0  0  0  0  0  0
   11.0010    3.0621   -6.1457 H   0  0  0  0  0  0  0  0  0  0  0  0
    9.5836    2.5047   -7.0585 H   0  0  0  0  0  0  0  0  0  0  0  0
    8.3582    2.5067   -3.4424 H   0  0  0  0  0  0  0  0  0  0  0  0
    6.8897    4.2645   -2.0924 H   0  0  0  0  0  0  0  0  0  0  0  0
    5.2386    7.1820   -1.0357 H   0  0  0  0  0  0  0  0  0  0  0  0
    4.2846    4.3330   -1.7909 H   0  0  0  0  0  0  0  0  0  0  0  0
    3.6072    5.8630   -2.4076 H   0  0  0  0  0  0  0  0  0  0  0  0
    3.4672    5.4626   -0.6763 H   0  0  0  0  0  0  0  0  0  0  0  0
    8.4250    6.1781   -0.5876 H   0  0  0  0  0  0  0  0  0  0  0  0
    8.3076    6.0183    1.1693 H   0  0  0  0  0  0  0  0  0  0  0  0
   10.1813    7.3314    0.5595 H   0  0  0  0  0  0  0  0  0  0  0  0
   10.6744    8.9983    0.2268 H   0  0  0  0  0  0  0  0  0  0  0  0
   10.1177    7.9719   -1.1127 H   0  0  0  0  0  0  0  0  0  0  0  0
    9.0304   10.6556    0.8934 H   0  0  0  0  0  0  0  0  0  0  0  0
    7.3491   10.3279    0.4174 H   0  0  0  0  0  0  0  0  0  0  0  0
    7.5205    9.2655   -2.3375 H   0  0  0  0  0  0  0  0  0  0  0  0
    7.9836   10.2548   -4.5404 H   0  0  0  0  0  0  0  0  0  0  0  0
    9.4021   12.3136   -4.7432 H   0  0  0  0  0  0  0  0  0  0  0  0
    9.9186   12.3539   -0.4673 H   0  0  0  0  0  0  0  0  0  0  0  0
  1  2  1  0
  1 26  1  0
  1 27  1  0
  1 28  1  0
  2  3  2  0
  2 25  1  0
  3  4  1  0
  3 29  1  0
  4  5  1  0
  4 24  2  0
  5  6  1  0
  5 30  1  0
  6  7  2  0
  6  8  1  0
  8  9  1  0
  8 10  1  0
  8 31  1  1
  9 32  1  0
  9 33  1  0
  9 34  1  0
 10 11  1  0
 11 12  1  0
 11 35  1  0
 11 36  1  0
 12 13  2  0
 12 14  1  0
 14 15  1  0
 14 16  1  0
 15 37  1  0
 15 38  1  0
 15 39  1  0
 16 17  1  0
 16 40  1  0
 16 41  1  0
 17 18  2  0
 17 23  1  0
 18 19  1  0
 18 42  1  0
 19 20  2  0
 19 43  1  0
 20 21  1  0
 20 44  1  0
 21 22  1  0
 21 23  2  0
 23 45  1  0
 24 25  1  0
M  END

