
     RDKit          3D

 33 34  0  0  0  0  0  0  0  0999 V2000
    3.1886   -1.8047   -1.4077 C   0  0  0  0  0  0  0  0  0  0  0  0
    2.9165   -0.6489   -0.4445 C   0  0  0  0  0  0  0  0  0  0  0  0
    3.2036   -0.9495    0.9682 N   0  0  0  0  0  0  0  0  0  0  0  0
    2.0741   -1.2289    1.8368 C   0  0  0  0  0  0  0  0  0  0  0  0
    1.6619   -2.6963    2.0639 C   0  0  0  0  0  0  0  0  0  0  0  0
    0.6279   -2.9386    2.6618 O   0  0  0  0  0  0  0  0  0  0  0  0
    2.5081   -3.6403    1.5737 N   0  0  0  0  0  0  0  0  0  0  0  0
    2.3028   -5.0580    1.7813 C   0  0  0  0  0  0  0  0  0  0  0  0
    4.4961   -0.7915    1.4306 C   0  0  0  0  0  0  0  0  0  0  0  0
    5.3981   -0.3950    0.5303 N   0  0  0  0  0  0  0  0  0  0  0  0
    6.6840   -0.2184    0.8956 C   0  0  0  0  0  0  0  0  0  0  0  0
    7.5420    0.1682   -0.0952 N   0  0  0  0  0  0  0  0  0  0  0  0
    7.1959   -0.4071    2.1100 N   0  0  0  0  0  0  0  0  0  0  0  0
    6.3140   -0.8230    3.0341 C   0  0  0  0  0  0  0  0  0  0  0  0
    6.6542   -1.1166    4.4037 C   0  0  0  0  0  0  0  0  0  0  0  0
    5.5834   -1.5414    5.1294 C   0  0  0  0  0  0  0  0  0  0  0  0
    4.1078   -1.6048    4.2165 S   0  0  0  0  0  0  0  0  0  0  0  0
    4.9357   -1.0351    2.7682 C   0  0  0  0  0  0  0  0  0  0  0  0
    2.9432   -1.5024   -2.4388 H   0  0  0  0  0  0  0  0  0  0  0  0
    2.5815   -2.6898   -1.1618 H   0  0  0  0  0  0  0  0  0  0  0  0
    4.2528   -2.0832   -1.3820 H   0  0  0  0  0  0  0  0  0  0  0  0
    1.8567   -0.3568   -0.4992 H   0  0  0  0  0  0  0  0  0  0  0  0
    3.5204    0.2199   -0.7390 H   0  0  0  0  0  0  0  0  0  0  0  0
    1.1782   -0.7333    1.4344 H   0  0  0  0  0  0  0  0  0  0  0  0
    2.2192   -0.7859    2.8334 H   0  0  0  0  0  0  0  0  0  0  0  0
    3.3605   -3.3235    1.1276 H   0  0  0  0  0  0  0  0  0  0  0  0
    1.3184   -5.1879    2.2500 H   0  0  0  0  0  0  0  0  0  0  0  0
    3.0705   -5.4856    2.4490 H   0  0  0  0  0  0  0  0  0  0  0  0
    2.3219   -5.6097    0.8271 H   0  0  0  0  0  0  0  0  0  0  0  0
    7.1496    0.5060   -0.9627 H   0  0  0  0  0  0  0  0  0  0  0  0
    8.4647    0.4749    0.1813 H   0  0  0  0  0  0  0  0  0  0  0  0
    7.6674   -1.0081    4.7900 H   0  0  0  0  0  0  0  0  0  0  0  0
    5.5628   -1.8289    6.1806 H   0  0  0  0  0  0  0  0  0  0  0  0
  1  2  1  0
  1 19  1  0
  1 20  1  0
  1 21  1  0
  2  3  1  0
  2 22  1  0
  2 23  1  0
  3  4  1  0
  3  9  1  0
  4  5  1  0
  4 24  1  0
  4 25  1  0
  5  6  2  0
  5  7  1  0
  7  8  1  0
  7 26  1  0
  8 27  1  0
  8 28  1  0
  8 29  1  0
  9 10  2  0
  9 18  1  0
 10 11  1  0
 11 12  1  0
 11 13  2  0
 12 30  1  0
 12 31  1  0
 13 14  1  0
 14 15  1  0
 14 18  2  0
 15 16  2  0
 15 32  1  0
 16 17  1  0
 16 33  1  0
 17 18  1  0
M  END

