
     RDKit          3D

 45 48  0  0  0  0  0  0  0  0999 V2000
    1.2414   -0.1957   -0.1571 C   0  0  0  0  0  0  0  0  0  0  0  0
    2.7336   -0.0280   -0.0527 C   0  0  0  0  0  0  0  0  0  0  0  0
    3.3619    1.2340   -0.1336 C   0  0  0  0  0  0  0  0  0  0  0  0
    4.7325    1.3096   -0.0230 C   0  0  0  0  0  0  0  0  0  0  0  0
    5.4394    0.0916    0.1802 C   0  0  0  0  0  0  0  0  0  0  0  0
    6.8097    0.0314    0.3330 N   0  0  0  0  0  0  0  0  0  0  0  0
    7.5227   -1.2420    0.3619 C   0  0  0  0  0  0  0  0  0  0  0  0
    8.4808   -1.3467   -0.8320 C   0  0  0  0  0  0  0  0  0  0  0  0
    9.4159   -0.1329   -0.9187 C   0  0  0  0  0  0  0  0  0  0  0  0
    8.6286    1.1823   -0.8754 C   0  0  2  0  0  0  0  0  0  0  0  0
    9.5315    2.3185   -0.8686 N   0  0  0  0  0  0  0  0  0  0  0  0
    9.1696    3.5863   -1.2376 C   0  0  0  0  0  0  0  0  0  0  0  0
   10.1610    4.6301   -1.2101 C   0  0  0  0  0  0  0  0  0  0  0  0
    9.7982    5.8912   -1.5964 C   0  0  0  0  0  0  0  0  0  0  0  0
    8.4628    6.1545   -2.0211 C   0  0  0  0  0  0  0  0  0  0  0  0
    8.0127    7.4316   -2.4391 C   0  0  0  0  0  0  0  0  0  0  0  0
    6.7059    7.6292   -2.8412 C   0  0  0  0  0  0  0  0  0  0  0  0
    5.8235    6.5287   -2.8284 C   0  0  0  0  0  0  0  0  0  0  0  0
    4.5581    6.7340   -3.2233 F   0  0  0  0  0  0  0  0  0  0  0  0
    6.2106    5.2680   -2.4310 C   0  0  0  0  0  0  0  0  0  0  0  0
    7.5501    5.0471   -2.0125 C   0  0  0  0  0  0  0  0  0  0  0  0
    7.9197    3.8000   -1.6154 N   0  0  0  0  0  0  0  0  0  0  0  0
    7.6803    1.1892    0.3453 C   0  0  0  0  0  0  0  0  0  0  0  0
    4.7759   -1.0771    0.2266 N   0  0  0  0  0  0  0  0  0  0  0  0
    3.4615   -1.1316    0.1122 N   0  0  0  0  0  0  0  0  0  0  0  0
    0.8542    0.2002   -1.1111 H   0  0  0  0  0  0  0  0  0  0  0  0
    0.7163    0.3368    0.6541 H   0  0  0  0  0  0  0  0  0  0  0  0
    0.9936   -1.2637   -0.0925 H   0  0  0  0  0  0  0  0  0  0  0  0
    2.7689    2.1388   -0.2937 H   0  0  0  0  0  0  0  0  0  0  0  0
    5.2426    2.2682   -0.1137 H   0  0  0  0  0  0  0  0  0  0  0  0
    6.7813   -2.0482    0.3571 H   0  0  0  0  0  0  0  0  0  0  0  0
    8.0959   -1.3095    1.3078 H   0  0  0  0  0  0  0  0  0  0  0  0
    7.8859   -1.4220   -1.7584 H   0  0  0  0  0  0  0  0  0  0  0  0
    9.0708   -2.2751   -0.7541 H   0  0  0  0  0  0  0  0  0  0  0  0
   10.0302   -0.1733   -1.8335 H   0  0  0  0  0  0  0  0  0  0  0  0
   10.1168   -0.1527   -0.0607 H   0  0  0  0  0  0  0  0  0  0  0  0
    7.9960    1.2659   -1.7744 H   0  0  0  0  0  0  0  0  0  0  0  0
   10.4744    2.1782   -0.5299 H   0  0  0  0  0  0  0  0  0  0  0  0
   11.1812    4.4069   -0.8880 H   0  0  0  0  0  0  0  0  0  0  0  0
   10.5283    6.7056   -1.5864 H   0  0  0  0  0  0  0  0  0  0  0  0
    8.7174    8.2678   -2.4410 H   0  0  0  0  0  0  0  0  0  0  0  0
    6.3378    8.6033   -3.1675 H   0  0  0  0  0  0  0  0  0  0  0  0
    5.5034    4.4382   -2.4398 H   0  0  0  0  0  0  0  0  0  0  0  0
    7.1086    2.1217    0.3497 H   0  0  0  0  0  0  0  0  0  0  0  0
    8.2959    1.1777    1.2674 H   0  0  0  0  0  0  0  0  0  0  0  0
  1  2  1  0
  1 26  1  0
  1 27  1  0
  1 28  1  0
  2  3  2  0
  2 25  1  0
  3  4  1  0
  3 29  1  0
  4  5  2  0
  4 30  1  0
  5  6  1  0
  5 24  1  0
  6  7  1  0
  6 23  1  0
  7  8  1  0
  7 31  1  0
  7 32  1  0
  8  9  1  0
  8 33  1  0
  8 34  1  0
  9 10  1  0
  9 35  1  0
  9 36  1  0
 10 11  1  0
 10 23  1  0
 10 37  1  6
 11 12  1  0
 11 38  1  0
 12 13  2  0
 12 22  1  0
 13 14  1  0
 13 39  1  0
 14 15  2  0
 14 40  1  0
 15 16  1  0
 15 21  1  0
 16 17  2  0
 16 41  1  0
 17 18  1  0
 17 42  1  0
 18 19  1  0
 18 20  2  0
 20 21  1  0
 20 43  1  0
 21 22  2  0
 23 44  1  0
 23 45  1  0
 24 25  2  0
M  END

