
     RDKit          3D

 45 47  0  0  0  0  0  0  0  0999 V2000
    0.7888   -0.1893    0.0009 C   0  0  0  0  0  0  0  0  0  0  0  0
    2.2656   -0.4776   -0.3209 C   0  0  1  0  0  0  0  0  0  0  0  0
    2.4511   -1.9202   -0.8410 C   0  0  0  0  0  0  0  0  0  0  0  0
    1.9795   -2.1033   -2.2891 C   0  0  0  0  0  0  0  0  0  0  0  0
    2.6369   -1.0908   -3.2338 C   0  0  0  0  0  0  0  0  0  0  0  0
    2.4396    0.3615   -2.7582 C   0  0  2  0  0  0  0  0  0  0  0  0
    3.0508    1.3678   -3.7371 C   0  0  0  0  0  0  0  0  0  0  0  0
    2.8625    0.6139   -1.2715 C   0  0  2  0  0  0  0  0  0  0  0  0
    4.2746    0.9165   -0.9949 N   0  0  0  0  0  0  0  0  0  0  0  0
    5.3492   -0.0282   -1.3921 C   0  0  0  0  0  0  0  0  0  0  0  0
    6.5093   -0.4240   -0.3687 C   0  0  0  0  0  0  0  0  0  0  0  0
    7.1376    0.6591    0.5901 C   0  0  1  0  0  0  0  0  0  0  0  0
    8.2011    1.7204    0.0796 C   0  0  0  0  0  0  0  0  0  0  0  0
    7.3667    3.0313   -0.2360 C   0  0  0  0  0  0  0  0  0  0  0  0
    6.0363    2.2865   -0.3572 C   0  0  2  0  0  0  0  0  0  0  0  0
    4.6215    2.3683   -0.8907 C   0  0  0  0  0  0  0  0  0  0  0  0
    6.0459    1.5627    0.9195 N   0  0  0  0  0  0  0  0  0  0  0  0
    0.3932   -0.9284    0.7165 H   0  0  0  0  0  0  0  0  0  0  0  0
    0.1451   -0.2244   -0.8926 H   0  0  0  0  0  0  0  0  0  0  0  0
    0.6680    0.8083    0.4534 H   0  0  0  0  0  0  0  0  0  0  0  0
    2.8234   -0.3854    0.6259 H   0  0  0  0  0  0  0  0  0  0  0  0
    1.9113   -2.6170   -0.1767 H   0  0  0  0  0  0  0  0  0  0  0  0
    3.5132   -2.2094   -0.7679 H   0  0  0  0  0  0  0  0  0  0  0  0
    0.8825   -1.9853   -2.3411 H   0  0  0  0  0  0  0  0  0  0  0  0
    2.1884   -3.1328   -2.6261 H   0  0  0  0  0  0  0  0  0  0  0  0
    2.2108   -1.1938   -4.2471 H   0  0  0  0  0  0  0  0  0  0  0  0
    3.7120   -1.3166   -3.3411 H   0  0  0  0  0  0  0  0  0  0  0  0
    1.3461    0.5308   -2.7688 H   0  0  0  0  0  0  0  0  0  0  0  0
    4.1458    1.2640   -3.7970 H   0  0  0  0  0  0  0  0  0  0  0  0
    2.8282    2.4071   -3.4471 H   0  0  0  0  0  0  0  0  0  0  0  0
    2.6498    1.2147   -4.7525 H   0  0  0  0  0  0  0  0  0  0  0  0
    2.3510    1.5486   -0.9908 H   0  0  0  0  0  0  0  0  0  0  0  0
    5.8217    0.2790   -2.3490 H   0  0  0  0  0  0  0  0  0  0  0  0
    4.8524   -0.9773   -1.6190 H   0  0  0  0  0  0  0  0  0  0  0  0
    7.2757   -0.9506   -0.9660 H   0  0  0  0  0  0  0  0  0  0  0  0
    6.0871   -1.1876    0.3088 H   0  0  0  0  0  0  0  0  0  0  0  0
    7.5417    0.1311    1.4708 H   0  0  0  0  0  0  0  0  0  0  0  0
    8.7298    1.3680   -0.8212 H   0  0  0  0  0  0  0  0  0  0  0  0
    8.9574    1.8923    0.8599 H   0  0  0  0  0  0  0  0  0  0  0  0
    7.6991    3.5181   -1.1659 H   0  0  0  0  0  0  0  0  0  0  0  0
    7.4007    3.7516    0.5944 H   0  0  0  0  0  0  0  0  0  0  0  0
    6.3915    1.6283   -1.1653 H   0  0  0  0  0  0  0  0  0  0  0  0
    4.5994    2.8999   -1.8629 H   0  0  0  0  0  0  0  0  0  0  0  0
    3.8947    2.8563   -0.2184 H   0  0  0  0  0  0  0  0  0  0  0  0
    5.1753    1.0440    1.0263 H   0  0  0  0  0  0  0  0  0  0  0  0
  1  2  1  0
  1 18  1  0
  1 19  1  0
  1 20  1  0
  2  3  1  0
  2  8  1  0
  2 21  1  1
  3  4  1  0
  3 22  1  0
  3 23  1  0
  4  5  1  0
  4 24  1  0
  4 25  1  0
  5  6  1  0
  5 26  1  0
  5 27  1  0
  6  7  1  0
  6  8  1  0
  6 28  1  1
  7 29  1  0
  7 30  1  0
  7 31  1  0
  8  9  1  0
  8 32  1  1
  9 10  1  0
  9 16  1  0
 10 11  1  0
 10 33  1  0
 10 34  1  0
 11 12  1  0
 11 35  1  0
 11 36  1  0
 12 13  1  0
 12 17  1  0
 12 37  1  1
 13 14  1  0
 13 38  1  0
 13 39  1  0
 14 15  1  0
 14 40  1  0
 14 41  1  0
 15 16  1  0
 15 17  1  0
 15 42  1  6
 16 43  1  0
 16 44  1  0
 17 45  1  0
M  END

