
     RDKit          3D

115121  0  0  0  0  0  0  0  0999 V2000
    2.1240   -4.1516   -0.1260 C   0  0  0  0  0  0  0  0  0  0  0  0
    2.5515   -3.3994   -1.3870 C   0  0  0  0  0  0  0  0  0  0  0  0
    3.9040   -2.6921   -1.2519 C   0  0  0  0  0  0  0  0  0  0  0  0
    4.3282   -1.9369   -2.5161 C   0  0  0  0  0  0  0  0  0  0  0  0
    5.6422   -1.1538   -2.3976 C   0  0  0  0  0  0  0  0  0  0  0  0
    6.9193   -1.9945   -2.1681 C   0  0  0  0  0  0  0  0  0  0  0  0
    7.2665   -2.9364   -3.2896 C   0  0  0  0  0  0  0  0  0  0  0  0
    7.8845   -2.6436   -4.4840 C   0  0  0  0  0  0  0  0  0  0  0  0
    8.0504   -3.7346   -5.3985 C   0  0  0  0  0  0  0  0  0  0  0  0
    7.5112   -4.9003   -4.8458 C   0  0  0  0  0  0  0  0  0  0  0  0
    6.8304   -4.6136   -3.2432 S   0  0  0  0  0  0  0  0  0  0  0  0
    7.5335   -6.2701   -5.3216 C   0  0  0  0  0  0  0  0  0  0  0  0
    7.4737   -7.5804   -4.1514 S   0  0  0  0  0  0  0  0  0  0  0  0
    7.5118   -8.8234   -5.3774 C   0  0  0  0  0  0  0  0  0  0  0  0
    7.4828  -10.2879   -5.0311 C   0  0  0  0  0  0  0  0  0  0  0  0
    8.8640  -10.9496   -4.8221 C   0  0  0  0  0  0  0  0  0  0  0  0
    9.6900  -10.4414   -3.6309 C   0  0  0  0  0  0  0  0  0  0  0  0
    9.0626  -10.6223   -2.2400 C   0  0  0  0  0  0  0  0  0  0  0  0
    8.7984  -12.0745   -1.8252 C   0  0  0  0  0  0  0  0  0  0  0  0
    8.2657  -12.2070   -0.3973 C   0  0  0  0  0  0  0  0  0  0  0  0
    7.5920   -8.2501   -6.6181 C   0  0  0  0  0  0  0  0  0  0  0  0
    7.6207   -6.8124   -6.6045 C   0  0  0  0  0  0  0  0  0  0  0  0
    7.4390   -5.8406   -8.0972 P   0  0  1  0  0  0  0  0  0  0  0  0
    8.4884   -6.5532   -9.4062 C   0  0  0  0  0  0  0  0  0  0  0  0
    9.6031   -7.3501   -9.1007 C   0  0  0  0  0  0  0  0  0  0  0  0
   10.4008   -7.8606  -10.1272 C   0  0  0  0  0  0  0  0  0  0  0  0
   10.1055   -7.5649  -11.4605 C   0  0  0  0  0  0  0  0  0  0  0  0
    9.0127   -6.7483  -11.7706 C   0  0  0  0  0  0  0  0  0  0  0  0
    8.2064   -6.2436  -10.7494 C   0  0  0  0  0  0  0  0  0  0  0  0
    5.7102   -6.0716   -8.6430 C   0  0  0  0  0  0  0  0  0  0  0  0
    4.7209   -5.2038   -8.1521 C   0  0  0  0  0  0  0  0  0  0  0  0
    3.3778   -5.4213   -8.4677 C   0  0  0  0  0  0  0  0  0  0  0  0
    3.0087   -6.5071   -9.2671 C   0  0  0  0  0  0  0  0  0  0  0  0
    3.9877   -7.3807   -9.7493 C   0  0  0  0  0  0  0  0  0  0  0  0
    5.3330   -7.1678   -9.4381 C   0  0  0  0  0  0  0  0  0  0  0  0
    7.6494   -4.3234   -7.8506 O   0  0  0  0  0  0  0  0  0  0  0  0
    8.7218   -3.5246   -6.8838 B   0  0  2  0  0  0  0  0  0  0  0  0
   10.1832   -4.2199   -7.2508 C   0  0  0  0  0  0  0  0  0  0  0  0
   10.6642   -4.0922   -8.5902 C   0  0  0  0  0  0  0  0  0  0  0  0
    9.9483   -3.2991   -9.6689 C   0  0  0  0  0  0  0  0  0  0  0  0
   11.8895   -4.6589   -8.9786 C   0  0  0  0  0  0  0  0  0  0  0  0
   12.7036   -5.3618   -8.0910 C   0  0  0  0  0  0  0  0  0  0  0  0
   14.0245   -5.9567   -8.5169 C   0  0  0  0  0  0  0  0  0  0  0  0
   12.2535   -5.4664   -6.7725 C   0  0  0  0  0  0  0  0  0  0  0  0
   11.0387   -4.9096   -6.3384 C   0  0  0  0  0  0  0  0  0  0  0  0
   10.7642   -5.0567   -4.8533 C   0  0  0  0  0  0  0  0  0  0  0  0
    8.6660   -1.9087   -7.2645 C   0  0  0  0  0  0  0  0  0  0  0  0
    7.5205   -1.2572   -7.8083 C   0  0  0  0  0  0  0  0  0  0  0  0
    6.1862   -1.9460   -8.0058 C   0  0  0  0  0  0  0  0  0  0  0  0
    7.5531    0.1035   -8.1545 C   0  0  0  0  0  0  0  0  0  0  0  0
    8.6796    0.9027   -7.9543 C   0  0  0  0  0  0  0  0  0  0  0  0
    8.7095    2.3518   -8.3755 C   0  0  0  0  0  0  0  0  0  0  0  0
    9.7718    0.2952   -7.3341 C   0  0  0  0  0  0  0  0  0  0  0  0
    9.7832   -1.0655   -6.9823 C   0  0  0  0  0  0  0  0  0  0  0  0
   11.0351   -1.5347   -6.2628 C   0  0  0  0  0  0  0  0  0  0  0  0
    1.1491   -4.6475   -0.2599 H   0  0  0  0  0  0  0  0  0  0  0  0
    2.0343   -3.4702    0.7369 H   0  0  0  0  0  0  0  0  0  0  0  0
    2.8579   -4.9293    0.1451 H   0  0  0  0  0  0  0  0  0  0  0  0
    1.7781   -2.6558   -1.6535 H   0  0  0  0  0  0  0  0  0  0  0  0
    2.5971   -4.1025   -2.2386 H   0  0  0  0  0  0  0  0  0  0  0  0
    4.6693   -3.4433   -0.9851 H   0  0  0  0  0  0  0  0  0  0  0  0
    3.8638   -1.9870   -0.3998 H   0  0  0  0  0  0  0  0  0  0  0  0
    3.5282   -1.2253   -2.7889 H   0  0  0  0  0  0  0  0  0  0  0  0
    4.3969   -2.6475   -3.3589 H   0  0  0  0  0  0  0  0  0  0  0  0
    5.5601   -0.4305   -1.5658 H   0  0  0  0  0  0  0  0  0  0  0  0
    5.7848   -0.5548   -3.3129 H   0  0  0  0  0  0  0  0  0  0  0  0
    6.8382   -2.5522   -1.2209 H   0  0  0  0  0  0  0  0  0  0  0  0
    7.7663   -1.3002   -2.0387 H   0  0  0  0  0  0  0  0  0  0  0  0
    8.2248   -1.6340   -4.7185 H   0  0  0  0  0  0  0  0  0  0  0  0
    6.9724  -10.8122   -5.8561 H   0  0  0  0  0  0  0  0  0  0  0  0
    6.8523  -10.4455   -4.1404 H   0  0  0  0  0  0  0  0  0  0  0  0
    9.4554  -10.8133   -5.7438 H   0  0  0  0  0  0  0  0  0  0  0  0
    8.7015  -12.0373   -4.7269 H   0  0  0  0  0  0  0  0  0  0  0  0
    9.9198   -9.3724   -3.7789 H   0  0  0  0  0  0  0  0  0  0  0  0
   10.6653  -10.9603   -3.6493 H   0  0  0  0  0  0  0  0  0  0  0  0
    8.1209  -10.0472   -2.1690 H   0  0  0  0  0  0  0  0  0  0  0  0
    9.7368  -10.1593   -1.4974 H   0  0  0  0  0  0  0  0  0  0  0  0
    9.7343  -12.6546   -1.9257 H   0  0  0  0  0  0  0  0  0  0  0  0
    8.0809  -12.5422   -2.5226 H   0  0  0  0  0  0  0  0  0  0  0  0
    8.9776  -11.7925    0.3361 H   0  0  0  0  0  0  0  0  0  0  0  0
    8.0851  -13.2598   -0.1274 H   0  0  0  0  0  0  0  0  0  0  0  0
    7.3138  -11.6638   -0.2726 H   0  0  0  0  0  0  0  0  0  0  0  0
    7.6143   -8.8453   -7.5326 H   0  0  0  0  0  0  0  0  0  0  0  0
    9.8631   -7.5557   -8.0614 H   0  0  0  0  0  0  0  0  0  0  0  0
   11.2667   -8.4789   -9.8802 H   0  0  0  0  0  0  0  0  0  0  0  0
   10.7339   -7.9631  -12.2613 H   0  0  0  0  0  0  0  0  0  0  0  0
    8.7871   -6.5030  -12.8112 H   0  0  0  0  0  0  0  0  0  0  0  0
    7.3543   -5.6081  -11.0012 H   0  0  0  0  0  0  0  0  0  0  0  0
    5.0051   -4.3592   -7.5260 H   0  0  0  0  0  0  0  0  0  0  0  0
    2.6167   -4.7365   -8.0857 H   0  0  0  0  0  0  0  0  0  0  0  0
    1.9571   -6.6738   -9.5136 H   0  0  0  0  0  0  0  0  0  0  0  0
    3.7053   -8.2324  -10.3730 H   0  0  0  0  0  0  0  0  0  0  0  0
    6.0866   -7.8575   -9.8232 H   0  0  0  0  0  0  0  0  0  0  0  0
    8.8583   -3.3877   -9.6204 H   0  0  0  0  0  0  0  0  0  0  0  0
   10.2792   -3.6243  -10.6672 H   0  0  0  0  0  0  0  0  0  0  0  0
   10.1765   -2.2248   -9.5779 H   0  0  0  0  0  0  0  0  0  0  0  0
   12.2175   -4.5375  -10.0161 H   0  0  0  0  0  0  0  0  0  0  0  0
   14.1921   -5.8379   -9.5982 H   0  0  0  0  0  0  0  0  0  0  0  0
   14.0801   -7.0335   -8.2824 H   0  0  0  0  0  0  0  0  0  0  0  0
   14.8696   -5.4758   -7.9945 H   0  0  0  0  0  0  0  0  0  0  0  0
   12.8813   -5.9846   -6.0397 H   0  0  0  0  0  0  0  0  0  0  0  0
   11.6893   -5.3350   -4.3258 H   0  0  0  0  0  0  0  0  0  0  0  0
   10.0218   -5.8391   -4.6381 H   0  0  0  0  0  0  0  0  0  0  0  0
   10.3856   -4.1328   -4.3967 H   0  0  0  0  0  0  0  0  0  0  0  0
    5.9020   -2.5202   -7.1115 H   0  0  0  0  0  0  0  0  0  0  0  0
    6.1951   -2.6500   -8.8502 H   0  0  0  0  0  0  0  0  0  0  0  0
    5.3968   -1.2022   -8.1937 H   0  0  0  0  0  0  0  0  0  0  0  0
    6.6514    0.5561   -8.5810 H   0  0  0  0  0  0  0  0  0  0  0  0
    7.7096    2.8112   -8.3224 H   0  0  0  0  0  0  0  0  0  0  0  0
    9.0591    2.4597   -9.4182 H   0  0  0  0  0  0  0  0  0  0  0  0
    9.3907    2.9440   -7.7442 H   0  0  0  0  0  0  0  0  0  0  0  0
   10.6539    0.9014   -7.1020 H   0  0  0  0  0  0  0  0  0  0  0  0
   11.5810   -0.6695   -5.8557 H   0  0  0  0  0  0  0  0  0  0  0  0
   11.7242   -2.0773   -6.9275 H   0  0  0  0  0  0  0  0  0  0  0  0
   10.8124   -2.2067   -5.4236 H   0  0  0  0  0  0  0  0  0  0  0  0
  1  2  1  0
  1 56  1  0
  1 57  1  0
  1 58  1  0
  2  3  1  0
  2 59  1  0
  2 60  1  0
  3  4  1  0
  3 61  1  0
  3 62  1  0
  4  5  1  0
  4 63  1  0
  4 64  1  0
  5  6  1  0
  5 65  1  0
  5 66  1  0
  6  7  1  0
  6 67  1  0
  6 68  1  0
  7  8  1  0
  7 11  2  0
  8  9  2  0
  8 69  1  0
  9 10  1  0
  9 37  1  0
 10 11  1  0
 10 12  2  0
 12 13  1  0
 12 22  1  0
 13 14  1  0
 14 15  1  0
 14 21  2  0
 15 16  1  0
 15 70  1  0
 15 71  1  0
 16 17  1  0
 16 72  1  0
 16 73  1  0
 17 18  1  0
 17 74  1  0
 17 75  1  0
 18 19  1  0
 18 76  1  0
 18 77  1  0
 19 20  1  0
 19 78  1  0
 19 79  1  0
 20 80  1  0
 20 81  1  0
 20 82  1  0
 21 22  1  0
 21 83  1  0
 22 23  2  0
 23 24  1  6
 23 30  1  0
 23 36  1  0
 24 25  2  0
 24 29  1  0
 25 26  1  0
 25 84  1  0
 26 27  2  0
 26 85  1  0
 27 28  1  0
 27 86  1  0
 28 29  2  0
 28 87  1  0
 29 88  1  0
 30 31  2  0
 30 35  1  0
 31 32  1  0
 31 89  1  0
 32 33  2  0
 32 90  1  0
 33 34  1  0
 33 91  1  0
 34 35  2  0
 34 92  1  0
 35 93  1  0
 36 37  1  0
 37 38  1  1
 37 47  1  0
 38 39  2  0
 38 45  1  0
 39 40  1  0
 39 41  1  0
 40 94  1  0
 40 95  1  0
 40 96  1  0
 41 42  2  0
 41 97  1  0
 42 43  1  0
 42 44  1  0
 43 98  1  0
 43 99  1  0
 43100  1  0
 44 45  2  0
 44101  1  0
 45 46  1  0
 46102  1  0
 46103  1  0
 46104  1  0
 47 48  2  0
 47 54  1  0
 48 49  1  0
 48 50  1  0
 49105  1  0
 49106  1  0
 49107  1  0
 50 51  2  0
 50108  1  0
 51 52  1  0
 51 53  1  0
 52109  1  0
 52110  1  0
 52111  1  0
 53 54  2  0
 53112  1  0
 54 55  1  0
 55113  1  0
 55114  1  0
 55115  1  0
M  CHG  2  11   1  37  -1
M  END

