
     RDKit          3D

 59 61  0  0  0  0  0  0  0  0999 V2000
    0.4228   -4.2486   -1.8444 C   0  0  0  0  0  0  0  0  0  0  0  0
    1.2427   -3.3515   -0.8908 C   0  0  1  0  0  0  0  0  0  0  0  0
    0.8404   -1.8738   -1.0954 C   0  0  0  0  0  0  0  0  0  0  0  0
    0.9742   -3.7650    0.5659 C   0  0  0  0  0  0  0  0  0  0  0  0
    2.7162   -3.4961   -1.2492 C   0  0  0  0  0  0  0  0  0  0  0  0
    3.2064   -3.2179   -2.4238 N   0  0  0  0  0  0  0  0  0  0  0  0
    4.5637   -3.4262   -2.4963 C   0  0  0  0  0  0  0  0  0  0  0  0
    5.2740   -3.1177   -3.7877 C   0  0  0  0  0  0  0  0  0  0  0  0
    4.5624   -3.6830   -4.9152 N   0  0  0  0  0  0  0  0  0  0  0  0
    5.2234   -4.1081   -6.0438 C   0  0  0  0  0  0  0  0  0  0  0  0
    6.4444   -4.1060   -6.1395 O   0  0  0  0  0  0  0  0  0  0  0  0
    4.3989   -4.5333   -7.0687 N   0  0  0  0  0  0  0  0  0  0  0  0
    4.9687   -5.1298   -8.2612 C   0  0  0  0  0  0  0  0  0  0  0  0
    5.3149   -6.6219   -8.1107 C   0  0  0  0  0  0  0  0  0  0  0  0
    6.0294   -7.1127   -9.2829 N   0  0  0  0  0  0  0  0  0  0  0  0
    7.4724   -6.8943   -9.2626 C   0  0  0  0  0  0  0  0  0  0  0  0
    8.2334   -7.9653   -8.4709 C   0  0  0  0  0  0  0  0  0  0  0  0
    7.8984   -9.3117   -8.9459 N   0  0  0  0  0  0  0  0  0  0  0  0
    8.7689  -10.3687   -8.6219 C   0  0  0  0  0  0  0  0  0  0  0  0
    8.3022  -11.6107   -8.1403 C   0  0  0  0  0  0  0  0  0  0  0  0
    9.1816  -12.6639   -7.8694 C   0  0  0  0  0  0  0  0  0  0  0  0
   10.5458  -12.4849   -8.0579 C   0  0  0  0  0  0  0  0  0  0  0  0
   11.3959  -13.4937   -7.7921 F   0  0  0  0  0  0  0  0  0  0  0  0
   11.0453  -11.2695   -8.5227 C   0  0  0  0  0  0  0  0  0  0  0  0
   10.1644  -10.2284   -8.8054 C   0  0  0  0  0  0  0  0  0  0  0  0
    6.4643   -9.5637   -8.9495 C   0  0  0  0  0  0  0  0  0  0  0  0
    5.7322   -8.4625   -9.7327 C   0  0  0  0  0  0  0  0  0  0  0  0
    5.1369   -3.8845   -1.3385 C   0  0  0  0  0  0  0  0  0  0  0  0
    3.9333   -4.0507   -0.1075 S   0  0  0  0  0  0  0  0  0  0  0  0
   -0.6547   -4.1345   -1.6432 H   0  0  0  0  0  0  0  0  0  0  0  0
    0.6854   -5.3105   -1.7140 H   0  0  0  0  0  0  0  0  0  0  0  0
    0.6134   -3.9763   -2.8925 H   0  0  0  0  0  0  0  0  0  0  0  0
   -0.2346   -1.7392   -0.8938 H   0  0  0  0  0  0  0  0  0  0  0  0
    1.0473   -1.5555   -2.1274 H   0  0  0  0  0  0  0  0  0  0  0  0
    1.4020   -1.2129   -0.4163 H   0  0  0  0  0  0  0  0  0  0  0  0
   -0.0957   -3.6493    0.7987 H   0  0  0  0  0  0  0  0  0  0  0  0
    1.5385   -3.1403    1.2768 H   0  0  0  0  0  0  0  0  0  0  0  0
    1.2423   -4.8185    0.7462 H   0  0  0  0  0  0  0  0  0  0  0  0
    6.2930   -3.5263   -3.7900 H   0  0  0  0  0  0  0  0  0  0  0  0
    5.3735   -2.0174   -3.8877 H   0  0  0  0  0  0  0  0  0  0  0  0
    3.5581   -3.5452   -4.9209 H   0  0  0  0  0  0  0  0  0  0  0  0
    3.4278   -4.7302   -6.8569 H   0  0  0  0  0  0  0  0  0  0  0  0
    5.8836   -4.5700   -8.4992 H   0  0  0  0  0  0  0  0  0  0  0  0
    4.2738   -4.9961   -9.1054 H   0  0  0  0  0  0  0  0  0  0  0  0
    4.3810   -7.1985   -7.9974 H   0  0  0  0  0  0  0  0  0  0  0  0
    5.8796   -6.7503   -7.1656 H   0  0  0  0  0  0  0  0  0  0  0  0
    7.6913   -5.9047   -8.8332 H   0  0  0  0  0  0  0  0  0  0  0  0
    7.8436   -6.8952  -10.3035 H   0  0  0  0  0  0  0  0  0  0  0  0
    8.0005   -7.8704   -7.3878 H   0  0  0  0  0  0  0  0  0  0  0  0
    9.3113   -7.7875   -8.5763 H   0  0  0  0  0  0  0  0  0  0  0  0
    7.2395  -11.7687   -7.9594 H   0  0  0  0  0  0  0  0  0  0  0  0
    8.8125  -13.6223   -7.4978 H   0  0  0  0  0  0  0  0  0  0  0  0
   12.1207  -11.1542   -8.6739 H   0  0  0  0  0  0  0  0  0  0  0  0
   10.5683   -9.2955   -9.2013 H   0  0  0  0  0  0  0  0  0  0  0  0
    6.0545   -9.6305   -7.9157 H   0  0  0  0  0  0  0  0  0  0  0  0
    6.2694  -10.5305   -9.4380 H   0  0  0  0  0  0  0  0  0  0  0  0
    4.6454   -8.6366   -9.6848 H   0  0  0  0  0  0  0  0  0  0  0  0
    6.0308   -8.5474  -10.7937 H   0  0  0  0  0  0  0  0  0  0  0  0
    6.1810   -4.1294   -1.1528 H   0  0  0  0  0  0  0  0  0  0  0  0
  2  1  1  6
  1 30  1  0
  1 31  1  0
  1 32  1  0
  2  3  1  0
  2  4  1  0
  2  5  1  0
  3 33  1  0
  3 34  1  0
  3 35  1  0
  4 36  1  0
  4 37  1  0
  4 38  1  0
  5  6  2  0
  5 29  1  0
  6  7  1  0
  7  8  1  0
  7 28  2  0
  8  9  1  0
  8 39  1  0
  8 40  1  0
  9 10  1  0
  9 41  1  0
 10 11  2  0
 10 12  1  0
 12 13  1  0
 12 42  1  0
 13 14  1  0
 13 43  1  0
 13 44  1  0
 14 15  1  0
 14 45  1  0
 14 46  1  0
 15 16  1  0
 15 27  1  0
 16 17  1  0
 16 47  1  0
 16 48  1  0
 17 18  1  0
 17 49  1  0
 17 50  1  0
 18 19  1  0
 18 26  1  0
 19 20  2  0
 19 25  1  0
 20 21  1  0
 20 51  1  0
 21 22  2  0
 21 52  1  0
 22 23  1  0
 22 24  1  0
 24 25  2  0
 24 53  1  0
 25 54  1  0
 26 27  1  0
 26 55  1  0
 26 56  1  0
 27 57  1  0
 27 58  1  0
 28 29  1  0
 28 59  1  0
M  END

