
     RDKit          3D

 61 63  0  0  0  0  0  0  0  0999 V2000
    3.5859   -1.4589   -0.4224 C   0  0  0  0  0  0  0  0  0  0  0  0
    4.3499   -0.5174    0.5090 C   0  0  0  0  0  0  0  0  0  0  0  0
    3.4602    0.5044    1.2439 C   0  0  1  0  0  0  0  0  0  0  0  0
    2.4877   -0.2016    2.0723 N   0  0  0  0  0  0  0  0  0  0  0  0
    1.1293   -0.0097    1.9598 C   0  0  0  0  0  0  0  0  0  0  0  0
    0.6330    0.7810    1.1731 O   0  0  0  0  0  0  0  0  0  0  0  0
    0.3889   -0.8041    2.8304 N   0  0  0  0  0  0  0  0  0  0  0  0
   -1.0032   -0.8569    2.9985 C   0  0  0  0  0  0  0  0  0  0  0  0
   -1.5093   -1.7827    3.9317 C   0  0  0  0  0  0  0  0  0  0  0  0
   -2.8795   -1.9015    4.1492 C   0  0  0  0  0  0  0  0  0  0  0  0
   -3.7904   -1.0937    3.4506 C   0  0  0  0  0  0  0  0  0  0  0  0
   -5.2693   -1.0788    3.7371 C   0  0  0  0  0  0  0  0  0  0  0  0
   -5.8425   -0.0067    3.8883 O   0  0  0  0  0  0  0  0  0  0  0  0
   -5.9410   -2.2786    3.8706 N   0  0  0  0  0  0  0  0  0  0  0  0
   -5.5019   -3.5429    3.2908 C   0  0  0  0  0  0  0  0  0  0  0  0
   -6.3044   -4.0090    2.0642 C   0  0  0  0  0  0  0  0  0  0  0  0
   -7.7691   -4.3783    2.3426 C   0  0  0  0  0  0  0  0  0  0  0  0
   -8.7705   -3.2116    2.4045 C   0  0  0  0  0  0  0  0  0  0  0  0
   -8.3650   -1.9761    3.2439 C   0  0  0  0  0  0  0  0  0  0  0  0
   -7.3237   -2.2013    4.3513 C   0  0  0  0  0  0  0  0  0  0  0  0
   -3.2756   -0.1495    2.5493 C   0  0  0  0  0  0  0  0  0  0  0  0
   -1.9093   -0.0336    2.3024 C   0  0  0  0  0  0  0  0  0  0  0  0
    4.2901    1.5297    2.0738 C   0  0  1  0  0  0  0  0  0  0  0  0
    5.1466    2.4718    1.1955 C   0  0  0  0  0  0  0  0  0  0  0  0
    4.3053    3.5680    0.5338 C   0  0  0  0  0  0  0  0  0  0  0  0
    3.5763    4.3157    1.4825 O   0  0  0  0  0  0  0  0  0  0  0  0
    2.6858    3.5108    2.2372 C   0  0  0  0  0  0  0  0  0  0  0  0
    3.4339    2.4173    3.0040 C   0  0  0  0  0  0  0  0  0  0  0  0
    4.2700   -2.1635   -0.9211 H   0  0  0  0  0  0  0  0  0  0  0  0
    3.0512   -0.8981   -1.2062 H   0  0  0  0  0  0  0  0  0  0  0  0
    2.8365   -2.0508    0.1259 H   0  0  0  0  0  0  0  0  0  0  0  0
    5.1133    0.0234   -0.0711 H   0  0  0  0  0  0  0  0  0  0  0  0
    4.9108   -1.1040    1.2621 H   0  0  0  0  0  0  0  0  0  0  0  0
    2.8520    1.0408    0.5010 H   0  0  0  0  0  0  0  0  0  0  0  0
    2.8501   -0.8398    2.7716 H   0  0  0  0  0  0  0  0  0  0  0  0
    0.9057   -1.4526    3.4120 H   0  0  0  0  0  0  0  0  0  0  0  0
   -0.8172   -2.4132    4.4990 H   0  0  0  0  0  0  0  0  0  0  0  0
   -3.2393   -2.6175    4.8921 H   0  0  0  0  0  0  0  0  0  0  0  0
   -5.5514   -4.3309    4.0672 H   0  0  0  0  0  0  0  0  0  0  0  0
   -4.4495   -3.4465    3.0019 H   0  0  0  0  0  0  0  0  0  0  0  0
   -5.7828   -4.8993    1.6712 H   0  0  0  0  0  0  0  0  0  0  0  0
   -6.2414   -3.2419    1.2716 H   0  0  0  0  0  0  0  0  0  0  0  0
   -7.8076   -4.9555    3.2844 H   0  0  0  0  0  0  0  0  0  0  0  0
   -8.1172   -5.0766    1.5626 H   0  0  0  0  0  0  0  0  0  0  0  0
   -9.7234   -3.6174    2.7860 H   0  0  0  0  0  0  0  0  0  0  0  0
   -8.9891   -2.8762    1.3760 H   0  0  0  0  0  0  0  0  0  0  0  0
   -9.2704   -1.5513    3.7093 H   0  0  0  0  0  0  0  0  0  0  0  0
   -7.9700   -1.1766    2.5985 H   0  0  0  0  0  0  0  0  0  0  0  0
   -7.5370   -3.1224    4.9207 H   0  0  0  0  0  0  0  0  0  0  0  0
   -7.3689   -1.3559    5.0496 H   0  0  0  0  0  0  0  0  0  0  0  0
   -3.9721    0.5154    2.0340 H   0  0  0  0  0  0  0  0  0  0  0  0
   -1.5279    0.6895    1.5858 H   0  0  0  0  0  0  0  0  0  0  0  0
    4.9763    0.9360    2.7075 H   0  0  0  0  0  0  0  0  0  0  0  0
    5.7097    1.9209    0.4255 H   0  0  0  0  0  0  0  0  0  0  0  0
    5.8963    2.9607    1.8404 H   0  0  0  0  0  0  0  0  0  0  0  0
    3.6172    3.1291   -0.2200 H   0  0  0  0  0  0  0  0  0  0  0  0
    4.9552    4.2805    0.0018 H   0  0  0  0  0  0  0  0  0  0  0  0
    1.9138    3.0632    1.5804 H   0  0  0  0  0  0  0  0  0  0  0  0
    2.1720    4.1884    2.9364 H   0  0  0  0  0  0  0  0  0  0  0  0
    2.7202    1.8118    3.5839 H   0  0  0  0  0  0  0  0  0  0  0  0
    4.1058    2.9041    3.7315 H   0  0  0  0  0  0  0  0  0  0  0  0
  1  2  1  0
  1 29  1  0
  1 30  1  0
  1 31  1  0
  2  3  1  0
  2 32  1  0
  2 33  1  0
  3  4  1  0
  3 23  1  0
  3 34  1  6
  4  5  1  0
  4 35  1  0
  5  6  2  0
  5  7  1  0
  7  8  1  0
  7 36  1  0
  8  9  2  0
  8 22  1  0
  9 10  1  0
  9 37  1  0
 10 11  2  0
 10 38  1  0
 11 12  1  0
 11 21  1  0
 12 13  2  0
 12 14  1  0
 14 15  1  0
 14 20  1  0
 15 16  1  0
 15 39  1  0
 15 40  1  0
 16 17  1  0
 16 41  1  0
 16 42  1  0
 17 18  1  0
 17 43  1  0
 17 44  1  0
 18 19  1  0
 18 45  1  0
 18 46  1  0
 19 20  1  0
 19 47  1  0
 19 48  1  0
 20 49  1  0
 20 50  1  0
 21 22  2  0
 21 51  1  0
 22 52  1  0
 23 24  1  0
 23 28  1  0
 23 53  1  1
 24 25  1  0
 24 54  1  0
 24 55  1  0
 25 26  1  0
 25 56  1  0
 25 57  1  0
 26 27  1  0
 27 28  1  0
 27 58  1  0
 27 59  1  0
 28 60  1  0
 28 61  1  0
M  END

