
     RDKit          3D

 33 35  0  0  0  0  0  0  0  0999 V2000
    3.0267    1.4426   -0.4558 C   0  0  0  0  0  0  0  0  0  0  0  0
    2.4824    0.0358   -0.6578 C   0  0  0  0  0  0  0  0  0  0  0  0
    1.3949   -0.2893   -0.2017 O   0  0  0  0  0  0  0  0  0  0  0  0
    3.3036   -0.9138   -1.4145 C   0  0  0  0  0  0  0  0  0  0  0  0
    4.8882   -0.5086   -2.0869 S   0  0  0  0  0  0  0  0  0  0  0  0
    4.9859   -2.1466   -2.7302 C   0  0  0  0  0  0  0  0  0  0  0  0
    6.0483   -2.5680   -3.4669 N   0  0  0  0  0  0  0  0  0  0  0  0
    6.1805   -3.9943   -3.7833 C   0  0  0  0  0  0  0  0  0  0  0  0
    6.9954   -4.1597   -5.0676 C   0  0  1  0  0  0  0  0  0  0  0  0
    6.3762   -3.4164   -6.2738 C   0  0  0  0  0  0  0  0  0  0  0  0
    7.0348   -2.0153   -6.1907 C   0  0  0  0  0  0  0  0  0  0  0  0
    7.9481   -2.1380   -4.9485 C   0  0  1  0  0  0  0  0  0  0  0  0
    7.2351   -1.7393   -3.6495 C   0  0  0  0  0  0  0  0  0  0  0  0
    8.2646   -3.5262   -4.8852 O   0  0  0  0  0  0  0  0  0  0  0  0
    3.9508   -2.9051   -2.4434 N   0  0  0  0  0  0  0  0  0  0  0  0
    3.0071   -2.2380   -1.7214 C   0  0  0  0  0  0  0  0  0  0  0  0
    1.7543   -2.9563   -1.3195 C   0  0  0  0  0  0  0  0  0  0  0  0
    2.2968    2.0270    0.1192 H   0  0  0  0  0  0  0  0  0  0  0  0
    3.2119    1.9368   -1.4240 H   0  0  0  0  0  0  0  0  0  0  0  0
    3.9861    1.4185    0.0877 H   0  0  0  0  0  0  0  0  0  0  0  0
    5.1730   -4.4190   -3.8778 H   0  0  0  0  0  0  0  0  0  0  0  0
    6.6951   -4.5223   -2.9579 H   0  0  0  0  0  0  0  0  0  0  0  0
    7.1757   -5.2285   -5.2540 H   0  0  0  0  0  0  0  0  0  0  0  0
    5.2788   -3.3767   -6.2150 H   0  0  0  0  0  0  0  0  0  0  0  0
    6.6443   -3.9269   -7.2098 H   0  0  0  0  0  0  0  0  0  0  0  0
    6.3003   -1.2030   -6.0885 H   0  0  0  0  0  0  0  0  0  0  0  0
    7.6422   -1.8067   -7.0831 H   0  0  0  0  0  0  0  0  0  0  0  0
    8.8904   -1.5774   -5.0361 H   0  0  0  0  0  0  0  0  0  0  0  0
    6.9349   -0.6807   -3.6971 H   0  0  0  0  0  0  0  0  0  0  0  0
    7.9356   -1.8571   -2.7998 H   0  0  0  0  0  0  0  0  0  0  0  0
    1.7812   -3.9818   -1.7113 H   0  0  0  0  0  0  0  0  0  0  0  0
    0.8616   -2.4331   -1.6937 H   0  0  0  0  0  0  0  0  0  0  0  0
    1.6463   -2.9773   -0.2243 H   0  0  0  0  0  0  0  0  0  0  0  0
  1  2  1  0
  1 18  1  0
  1 19  1  0
  1 20  1  0
  2  3  2  0
  2  4  1  0
  4  5  1  0
  4 16  2  0
  5  6  1  0
  6  7  1  0
  6 15  2  0
  7  8  1  0
  7 13  1  0
  8  9  1  0
  8 21  1  0
  8 22  1  0
  9 10  1  0
  9 14  1  0
  9 23  1  6
 10 11  1  0
 10 24  1  0
 10 25  1  0
 11 12  1  0
 11 26  1  0
 11 27  1  0
 12 13  1  0
 12 14  1  0
 12 28  1  6
 13 29  1  0
 13 30  1  0
 15 16  1  0
 16 17  1  0
 17 31  1  0
 17 32  1  0
 17 33  1  0
M  END

