
     RDKit          3D

 22 22  0  0  0  0  0  0  0  0999 V2000
    4.9625   -0.2364   -0.0948 N   0  0  0  0  0  0  0  0  0  0  0  0
    4.5776    0.6650    0.7139 C   0  0  0  0  0  0  0  0  0  0  0  0
    3.1052    0.8100    1.0588 C   0  0  2  0  0  0  0  0  0  0  0  0
    2.5264    0.2066    0.3463 H   0  0  0  0  0  0  0  0  0  0  0  0
    2.6253    2.2737    1.0983 C   0  0  0  0  0  0  0  0  0  0  0  0
    2.9232    2.7244    2.5256 C   0  0  2  0  0  0  0  0  0  0  0  0
    2.3333    3.5951    2.8503 H   0  0  0  0  0  0  0  0  0  0  0  0
    4.2702    3.0869    2.6187 F   0  0  0  0  0  0  0  0  0  0  0  0
    2.6721    1.4835    3.3755 C   0  0  0  0  0  0  0  0  0  0  0  0
    2.8533    0.3674    2.4435 N   0  0  0  0  0  0  0  0  0  0  0  0
    2.6622   -0.9148    2.8831 C   0  0  0  0  0  0  0  0  0  0  0  0
    2.4450   -1.1592    4.0580 O   0  0  0  0  0  0  0  0  0  0  0  0
    2.7031   -2.0273    1.8380 C   0  0  0  0  0  0  0  0  0  0  0  0
    1.1472   -2.0603    0.9011 Cl  0  0  0  0  0  0  0  0  0  0  0  0
    5.9840   -0.2221   -0.1976 H   0  0  0  0  0  0  0  0  0  0  0  0
    5.2579    1.3622    1.2361 H   0  0  0  0  0  0  0  0  0  0  0  0
    1.5385    2.3076    0.9234 H   0  0  0  0  0  0  0  0  0  0  0  0
    3.1133    2.9200    0.3545 H   0  0  0  0  0  0  0  0  0  0  0  0
    1.6519    1.4706    3.7964 H   0  0  0  0  0  0  0  0  0  0  0  0
    3.3753    1.4351    4.2208 H   0  0  0  0  0  0  0  0  0  0  0  0
    2.7801   -2.9811    2.3700 H   0  0  0  0  0  0  0  0  0  0  0  0
    3.5123   -1.9135    1.1051 H   0  0  0  0  0  0  0  0  0  0  0  0
  1  2  2  0
  1 15  1  0
  2  3  1  0
  2 16  1  0
  3  4  1  6
  3  5  1  0
  3 10  1  0
  5  6  1  0
  5 17  1  0
  5 18  1  0
  6  7  1  1
  6  8  1  0
  6  9  1  0
  9 10  1  0
  9 19  1  0
  9 20  1  0
 10 11  1  0
 11 12  2  0
 11 13  1  0
 13 14  1  0
 13 21  1  0
 13 22  1  0
M  END

