
     RDKit          3D

 37 38  0  0  0  0  0  0  0  0999 V2000
    5.4971   -1.7105   -1.6992 C   0  0  0  0  0  0  0  0  0  0  0  0
    4.5820   -0.7952   -0.9478 C   0  0  0  0  0  0  0  0  0  0  0  0
    4.9759    0.4200   -0.5935 N   0  0  0  0  0  0  0  0  0  0  0  0
    3.9341    0.9798    0.0616 N   0  0  0  0  0  0  0  0  0  0  0  0
    4.0368    2.3264    0.5895 C   0  0  0  0  0  0  0  0  0  0  0  0
    2.8818    0.1325    0.1297 C   0  0  0  0  0  0  0  0  0  0  0  0
    1.4195    0.6024    0.9070 Cl  0  0  0  0  0  0  0  0  0  0  0  0
    3.2380   -1.0587   -0.5160 C   0  0  0  0  0  0  0  0  0  0  0  0
    2.5080   -2.2837   -0.7396 C   0  0  0  0  0  0  0  0  0  0  0  0
    1.2583   -2.6120   -0.3342 C   0  0  0  0  0  0  0  0  0  0  0  0
    0.7160   -3.9420   -0.6822 C   0  0  0  0  0  0  0  0  0  0  0  0
    1.3994   -4.7655   -1.3196 O   0  0  0  0  0  0  0  0  0  0  0  0
   -0.5477   -4.2711   -0.2754 N   0  0  0  0  0  0  0  0  0  0  0  0
   -1.4604   -3.3575    0.4431 C   0  0  1  0  0  0  0  0  0  0  0  0
   -2.0410   -2.2548   -0.4468 C   0  0  0  0  0  0  0  0  0  0  0  0
   -2.7695   -4.4537    1.1235 S   0  0  0  0  0  0  0  0  0  0  0  0
   -2.6250   -5.5051   -0.3671 C   0  0  0  0  0  0  0  0  0  0  0  0
   -1.1281   -5.5850   -0.6512 C   0  0  2  0  0  0  0  0  0  0  0  0
   -0.4914   -6.8043    0.0936 C   0  0  0  0  0  0  0  0  0  0  0  0
   -1.1659   -7.6072    0.6861 O   0  0  0  0  0  0  0  0  0  0  0  0
    0.8212   -6.9249   -0.0313 O   0  0  0  0  0  0  0  0  0  0  0  0
    6.4473   -1.1955   -1.8954 H   0  0  0  0  0  0  0  0  0  0  0  0
    5.0615   -2.0181   -2.6635 H   0  0  0  0  0  0  0  0  0  0  0  0
    5.7106   -2.6284   -1.1278 H   0  0  0  0  0  0  0  0  0  0  0  0
    5.0321    2.6973    0.3199 H   0  0  0  0  0  0  0  0  0  0  0  0
    3.9250    2.3291    1.6846 H   0  0  0  0  0  0  0  0  0  0  0  0
    3.2666    2.9792    0.1515 H   0  0  0  0  0  0  0  0  0  0  0  0
    3.0372   -3.0511   -1.3137 H   0  0  0  0  0  0  0  0  0  0  0  0
    0.6613   -1.9167    0.2506 H   0  0  0  0  0  0  0  0  0  0  0  0
   -0.9394   -2.9227    1.3086 H   0  0  0  0  0  0  0  0  0  0  0  0
   -2.6240   -2.6827   -1.2760 H   0  0  0  0  0  0  0  0  0  0  0  0
   -1.2484   -1.6237   -0.8784 H   0  0  0  0  0  0  0  0  0  0  0  0
   -2.7105   -1.6133    0.1451 H   0  0  0  0  0  0  0  0  0  0  0  0
   -3.1809   -5.0673   -1.2092 H   0  0  0  0  0  0  0  0  0  0  0  0
   -3.0197   -6.5003   -0.1315 H   0  0  0  0  0  0  0  0  0  0  0  0
   -0.9360   -5.7461   -1.7270 H   0  0  0  0  0  0  0  0  0  0  0  0
    1.1790   -6.1946   -0.6113 H   0  0  0  0  0  0  0  0  0  0  0  0
  1  2  1  0
  1 22  1  0
  1 23  1  0
  1 24  1  0
  2  3  2  0
  2  8  1  0
  3  4  1  0
  4  5  1  0
  4  6  1  0
  5 25  1  0
  5 26  1  0
  5 27  1  0
  6  7  1  0
  6  8  2  0
  8  9  1  0
  9 10  2  0
  9 28  1  0
 10 11  1  0
 10 29  1  0
 11 12  2  0
 11 13  1  0
 13 14  1  0
 13 18  1  0
 14 15  1  0
 14 16  1  0
 14 30  1  1
 15 31  1  0
 15 32  1  0
 15 33  1  0
 16 17  1  0
 17 18  1  0
 17 34  1  0
 17 35  1  0
 18 19  1  0
 18 36  1  6
 19 20  2  0
 19 21  1  0
 21 37  1  0
M  END

