
     RDKit          3D

 49 51  0  0  0  0  0  0  0  0999 V2000
    5.1150   -2.6849    6.3255 C   0  0  0  0  0  0  0  0  0  0  0  0
    4.3923   -1.7148    5.3775 C   0  0  1  0  0  0  0  0  0  0  0  0
    2.8762   -1.7253    5.6330 C   0  0  0  0  0  0  0  0  0  0  0  0
    4.9437   -0.2963    5.5503 C   0  0  0  0  0  0  0  0  0  0  0  0
    4.6742   -2.0269    4.0019 O   0  0  0  0  0  0  0  0  0  0  0  0
    4.3674   -3.3101    3.5033 C   0  0  0  0  0  0  0  0  0  0  0  0
    4.6449   -3.3558    2.0021 C   0  0  0  0  0  0  0  0  0  0  0  0
    6.0623   -3.3314    1.6615 N   0  0  0  0  0  0  0  0  0  0  0  0
    6.4732   -4.1646    0.5377 C   0  0  0  0  0  0  0  0  0  0  0  0
    6.2148   -3.5278   -0.8383 C   0  0  0  0  0  0  0  0  0  0  0  0
    6.8636   -2.1395   -0.9175 C   0  0  0  0  0  0  0  0  0  0  0  0
    6.4114   -1.2677    0.2732 C   0  0  2  0  0  0  0  0  0  0  0  0
    6.9028    0.1504    0.2386 C   0  0  0  0  0  0  0  0  0  0  0  0
    6.0817    1.1788    0.1993 N   0  0  0  0  0  0  0  0  0  0  0  0
    6.8223    2.3285    0.1493 N   0  0  0  0  0  0  0  0  0  0  0  0
    8.0787    1.9780    0.1539 C   0  0  0  0  0  0  0  0  0  0  0  0
    8.2104    0.6100    0.2220 N   0  0  0  0  0  0  0  0  0  0  0  0
    9.4488   -0.1229    0.1795 C   0  0  1  0  0  0  0  0  0  0  0  0
   10.6840    0.4705    0.8053 C   0  0  0  0  0  0  0  0  0  0  0  0
   10.0318   -0.7336    1.4296 C   0  0  0  0  0  0  0  0  0  0  0  0
    6.6807   -2.0098    1.6123 C   0  0  0  0  0  0  0  0  0  0  0  0
    5.0077   -2.3509    7.3692 H   0  0  0  0  0  0  0  0  0  0  0  0
    6.1889   -2.7264    6.0851 H   0  0  0  0  0  0  0  0  0  0  0  0
    4.7077   -3.7058    6.2632 H   0  0  0  0  0  0  0  0  0  0  0  0
    2.6546   -1.3689    6.6511 H   0  0  0  0  0  0  0  0  0  0  0  0
    2.4472   -2.7350    5.5397 H   0  0  0  0  0  0  0  0  0  0  0  0
    2.3651   -1.0644    4.9160 H   0  0  0  0  0  0  0  0  0  0  0  0
    4.7546    0.0799    6.5674 H   0  0  0  0  0  0  0  0  0  0  0  0
    4.4693    0.3850    4.8280 H   0  0  0  0  0  0  0  0  0  0  0  0
    6.0293   -0.2832    5.3685 H   0  0  0  0  0  0  0  0  0  0  0  0
    3.2985   -3.5558    3.6641 H   0  0  0  0  0  0  0  0  0  0  0  0
    4.9743   -4.0931    3.9961 H   0  0  0  0  0  0  0  0  0  0  0  0
    4.0615   -2.5421    1.5216 H   0  0  0  0  0  0  0  0  0  0  0  0
    4.2205   -4.3029    1.6305 H   0  0  0  0  0  0  0  0  0  0  0  0
    5.9752   -5.1446    0.6144 H   0  0  0  0  0  0  0  0  0  0  0  0
    7.5592   -4.3590    0.6362 H   0  0  0  0  0  0  0  0  0  0  0  0
    5.1268   -3.4370   -1.0063 H   0  0  0  0  0  0  0  0  0  0  0  0
    6.6043   -4.1823   -1.6371 H   0  0  0  0  0  0  0  0  0  0  0  0
    6.6149   -1.6425   -1.8697 H   0  0  0  0  0  0  0  0  0  0  0  0
    7.9620   -2.2613   -0.8985 H   0  0  0  0  0  0  0  0  0  0  0  0
    5.3198   -1.1376    0.1935 H   0  0  0  0  0  0  0  0  0  0  0  0
    8.9310    2.6531    0.1046 H   0  0  0  0  0  0  0  0  0  0  0  0
    9.5959   -0.6736   -0.7551 H   0  0  0  0  0  0  0  0  0  0  0  0
   10.5893    1.4210    1.3357 H   0  0  0  0  0  0  0  0  0  0  0  0
   11.6268    0.3480    0.2661 H   0  0  0  0  0  0  0  0  0  0  0  0
    9.4841   -0.5755    2.3615 H   0  0  0  0  0  0  0  0  0  0  0  0
   10.5133   -1.7112    1.3423 H   0  0  0  0  0  0  0  0  0  0  0  0
    6.3090   -1.4149    2.4556 H   0  0  0  0  0  0  0  0  0  0  0  0
    7.7688   -2.1382    1.7459 H   0  0  0  0  0  0  0  0  0  0  0  0
  1  2  1  0
  1 22  1  0
  1 23  1  0
  1 24  1  0
  2  3  1  0
  2  4  1  0
  2  5  1  6
  3 25  1  0
  3 26  1  0
  3 27  1  0
  4 28  1  0
  4 29  1  0
  4 30  1  0
  5  6  1  0
  6  7  1  0
  6 31  1  0
  6 32  1  0
  7  8  1  0
  7 33  1  0
  7 34  1  0
  8  9  1  0
  8 21  1  0
  9 10  1  0
  9 35  1  0
  9 36  1  0
 10 11  1  0
 10 37  1  0
 10 38  1  0
 11 12  1  0
 11 39  1  0
 11 40  1  0
 12 13  1  0
 12 21  1  0
 12 41  1  6
 13 14  2  0
 13 17  1  0
 14 15  1  0
 15 16  2  0
 16 17  1  0
 16 42  1  0
 17 18  1  0
 18 19  1  0
 18 20  1  0
 18 43  1  6
 19 20  1  0
 19 44  1  0
 19 45  1  0
 20 46  1  0
 20 47  1  0
 21 48  1  0
 21 49  1  0
M  END

