
     RDKit          3D

 59 64  0  0  0  0  0  0  0  0999 V2000
    1.9622   -1.6194    2.3014 C   0  0  0  0  0  0  0  0  0  0  0  0
    2.7422   -0.7317    1.3675 C   0  0  0  0  0  0  0  0  0  0  0  0
    3.2654    0.4919    1.8051 C   0  0  0  0  0  0  0  0  0  0  0  0
    3.9941    1.3296    0.9426 C   0  0  0  0  0  0  0  0  0  0  0  0
    4.5164    2.5783    1.4261 C   0  0  0  0  0  0  0  0  0  0  0  0
    4.9386    3.5872    1.8160 N   0  0  0  0  0  0  0  0  0  0  0  0
    4.2092    0.9419   -0.3918 C   0  0  0  0  0  0  0  0  0  0  0  0
    3.6937   -0.2721   -0.8372 C   0  0  0  0  0  0  0  0  0  0  0  0
    2.9678   -1.1053    0.0255 C   0  0  0  0  0  0  0  0  0  0  0  0
    2.4456   -2.3514   -0.4546 N   0  0  0  0  0  0  0  0  0  0  0  0
    3.2866   -3.4821   -0.5052 C   0  0  0  0  0  0  0  0  0  0  0  0
    4.6693   -3.3724   -0.2569 C   0  0  0  0  0  0  0  0  0  0  0  0
    5.5011   -4.4861   -0.3612 C   0  0  0  0  0  0  0  0  0  0  0  0
    4.9734   -5.7256   -0.7261 C   0  0  0  0  0  0  0  0  0  0  0  0
    3.5996   -5.8399   -0.9496 C   0  0  0  0  0  0  0  0  0  0  0  0
    2.7344   -4.7448   -0.8235 C   0  0  0  0  0  0  0  0  0  0  0  0
    1.2043   -4.8951   -0.8800 C   0  0  1  0  0  0  0  0  0  0  0  0
    0.8149   -6.1161   -1.7468 C   0  0  0  0  0  0  0  0  0  0  0  0
    0.0742   -7.1992   -1.2562 C   0  0  0  0  0  0  0  0  0  0  0  0
   -0.2541   -8.2826   -2.0831 C   0  0  0  0  0  0  0  0  0  0  0  0
    0.1529   -8.3022   -3.4165 C   0  0  0  0  0  0  0  0  0  0  0  0
    0.8940   -7.2263   -3.9206 C   0  0  0  0  0  0  0  0  0  0  0  0
    1.2187   -6.1504   -3.0955 C   0  0  0  0  0  0  0  0  0  0  0  0
    0.6644   -5.0512    0.5796 C   0  0  0  0  0  0  0  0  0  0  0  0
   -0.6135   -4.5880    0.9363 C   0  0  0  0  0  0  0  0  0  0  0  0
   -1.1156   -4.7675    2.2292 C   0  0  0  0  0  0  0  0  0  0  0  0
   -0.3491   -5.4135    3.2021 C   0  0  0  0  0  0  0  0  0  0  0  0
    0.9237   -5.8793    2.8637 C   0  0  0  0  0  0  0  0  0  0  0  0
    1.4229   -5.6982    1.5701 C   0  0  0  0  0  0  0  0  0  0  0  0
    0.6233   -3.6045   -1.4830 C   0  0  0  0  0  0  0  0  0  0  0  0
   -0.5520   -3.5973   -2.2462 C   0  0  0  0  0  0  0  0  0  0  0  0
   -1.1664   -2.4082   -2.6451 C   0  0  0  0  0  0  0  0  0  0  0  0
   -0.5973   -1.1905   -2.2695 C   0  0  0  0  0  0  0  0  0  0  0  0
    0.5874   -1.1664   -1.5354 C   0  0  0  0  0  0  0  0  0  0  0  0
    1.2200   -2.3656   -1.1518 C   0  0  0  0  0  0  0  0  0  0  0  0
    1.8922   -1.1737    3.3035 H   0  0  0  0  0  0  0  0  0  0  0  0
    2.4304   -2.6118    2.3953 H   0  0  0  0  0  0  0  0  0  0  0  0
    0.9409   -1.7936    1.9279 H   0  0  0  0  0  0  0  0  0  0  0  0
    3.1054    0.8048    2.8391 H   0  0  0  0  0  0  0  0  0  0  0  0
    4.7740    1.5888   -1.0653 H   0  0  0  0  0  0  0  0  0  0  0  0
    3.8503   -0.5901   -1.8701 H   0  0  0  0  0  0  0  0  0  0  0  0
    5.0994   -2.4075    0.0084 H   0  0  0  0  0  0  0  0  0  0  0  0
    6.5708   -4.3745   -0.1666 H   0  0  0  0  0  0  0  0  0  0  0  0
    5.6194   -6.6010   -0.8222 H   0  0  0  0  0  0  0  0  0  0  0  0
    3.1805   -6.8142   -1.2051 H   0  0  0  0  0  0  0  0  0  0  0  0
   -0.2559   -7.2078   -0.2172 H   0  0  0  0  0  0  0  0  0  0  0  0
   -0.8333   -9.1143   -1.6733 H   0  0  0  0  0  0  0  0  0  0  0  0
   -0.1030   -9.1468   -4.0613 H   0  0  0  0  0  0  0  0  0  0  0  0
    1.2208   -7.2260   -4.9638 H   0  0  0  0  0  0  0  0  0  0  0  0
    1.7973   -5.3179   -3.5025 H   0  0  0  0  0  0  0  0  0  0  0  0
   -1.2320   -4.0774    0.1976 H   0  0  0  0  0  0  0  0  0  0  0  0
   -2.1139   -4.3953    2.4744 H   0  0  0  0  0  0  0  0  0  0  0  0
   -0.7389   -5.5509    4.2140 H   0  0  0  0  0  0  0  0  0  0  0  0
    1.5393   -6.3869    3.6112 H   0  0  0  0  0  0  0  0  0  0  0  0
    2.4209   -6.0688    1.3343 H   0  0  0  0  0  0  0  0  0  0  0  0
   -1.0114   -4.5501   -2.5129 H   0  0  0  0  0  0  0  0  0  0  0  0
   -2.0881   -2.4368   -3.2306 H   0  0  0  0  0  0  0  0  0  0  0  0
   -1.0672   -0.2466   -2.5576 H   0  0  0  0  0  0  0  0  0  0  0  0
    1.0306   -0.2079   -1.2680 H   0  0  0  0  0  0  0  0  0  0  0  0
  1  2  1  0
  1 36  1  0
  1 37  1  0
  1 38  1  0
  2  3  2  0
  2  9  1  0
  3  4  1  0
  3 39  1  0
  4  5  1  0
  4  7  2  0
  5  6  3  0
  7  8  1  0
  7 40  1  0
  8  9  2  0
  8 41  1  0
  9 10  1  0
 10 11  1  0
 10 35  1  0
 11 12  2  0
 11 16  1  0
 12 13  1  0
 12 42  1  0
 13 14  2  0
 13 43  1  0
 14 15  1  0
 14 44  1  0
 15 16  2  0
 15 45  1  0
 16 17  1  0
 17 18  1  6
 17 24  1  0
 17 30  1  0
 18 19  2  0
 18 23  1  0
 19 20  1  0
 19 46  1  0
 20 21  2  0
 20 47  1  0
 21 22  1  0
 21 48  1  0
 22 23  2  0
 22 49  1  0
 23 50  1  0
 24 25  2  0
 24 29  1  0
 25 26  1  0
 25 51  1  0
 26 27  2  0
 26 52  1  0
 27 28  1  0
 27 53  1  0
 28 29  2  0
 28 54  1  0
 29 55  1  0
 30 31  1  0
 30 35  2  0
 31 32  2  0
 31 56  1  0
 32 33  1  0
 32 57  1  0
 33 34  2  0
 33 58  1  0
 34 35  1  0
 34 59  1  0
M  END

