
     RDKit          3D

 48 49  0  0  0  0  0  0  0  0999 V2000
    2.4141   -0.2736    1.6825 C   0  0  0  0  0  0  0  0  0  0  0  0
    1.9882   -0.3919    0.2122 C   0  0  1  0  0  0  0  0  0  0  0  0
    0.4647   -0.2558    0.0799 C   0  0  0  0  0  0  0  0  0  0  0  0
    2.6883    0.6407   -0.6966 C   0  0  0  0  0  0  0  0  0  0  0  0
    4.2382    0.6176   -0.7632 C   0  0  1  0  0  0  0  0  0  0  0  0
    4.7099   -0.7800   -1.2297 C   0  0  0  0  0  0  0  0  0  0  0  0
    6.0994   -0.8828   -1.6431 N   0  0  0  0  0  0  0  0  0  0  0  0
    7.0470   -0.5365   -0.6039 C   0  0  0  0  0  0  0  0  0  0  0  0
    6.3863   -2.1700   -2.2423 C   0  0  0  0  0  0  0  0  0  0  0  0
    4.8415    1.6256   -1.6235 N   0  0  0  0  0  0  0  0  0  0  0  0
    4.7396    3.0693   -1.4326 C   0  0  2  0  0  0  0  0  0  0  0  0
    5.3367    3.5526   -0.0950 C   0  0  0  0  0  0  0  0  0  0  0  0
    4.2858    3.7015    0.9962 C   0  0  0  0  0  0  0  0  0  0  0  0
    3.2633    4.6162    0.6200 O   0  0  0  0  0  0  0  0  0  0  0  0
    2.7346    4.4689   -0.6272 C   0  0  0  0  0  0  0  0  0  0  0  0
    1.5124    5.1192   -0.8689 C   0  0  0  0  0  0  0  0  0  0  0  0
    0.9057    5.0276   -2.1182 C   0  0  0  0  0  0  0  0  0  0  0  0
    1.5127    4.2862   -3.1412 C   0  0  0  0  0  0  0  0  0  0  0  0
    2.7297    3.6534   -2.8935 C   0  0  0  0  0  0  0  0  0  0  0  0
    3.3665    3.7278   -1.6448 C   0  0  0  0  0  0  0  0  0  0  0  0
    1.8764   -1.0036    2.3095 H   0  0  0  0  0  0  0  0  0  0  0  0
    2.1864    0.7315    2.0791 H   0  0  0  0  0  0  0  0  0  0  0  0
    3.4916   -0.4534    1.8240 H   0  0  0  0  0  0  0  0  0  0  0  0
    2.2544   -1.4072   -0.1334 H   0  0  0  0  0  0  0  0  0  0  0  0
    0.1264    0.7396    0.4158 H   0  0  0  0  0  0  0  0  0  0  0  0
   -0.0604   -1.0102    0.6887 H   0  0  0  0  0  0  0  0  0  0  0  0
    0.1383   -0.3799   -0.9654 H   0  0  0  0  0  0  0  0  0  0  0  0
    2.3620    1.6438   -0.3791 H   0  0  0  0  0  0  0  0  0  0  0  0
    2.3095    0.5250   -1.7282 H   0  0  0  0  0  0  0  0  0  0  0  0
    4.6273    0.7847    0.2576 H   0  0  0  0  0  0  0  0  0  0  0  0
    4.0898   -1.0753   -2.0961 H   0  0  0  0  0  0  0  0  0  0  0  0
    4.4729   -1.5120   -0.4225 H   0  0  0  0  0  0  0  0  0  0  0  0
    6.8987    0.5066   -0.2915 H   0  0  0  0  0  0  0  0  0  0  0  0
    8.0741   -0.6228   -0.9933 H   0  0  0  0  0  0  0  0  0  0  0  0
    6.9736   -1.1923    0.2967 H   0  0  0  0  0  0  0  0  0  0  0  0
    5.7051   -2.3580   -3.0883 H   0  0  0  0  0  0  0  0  0  0  0  0
    6.2814   -3.0259   -1.5329 H   0  0  0  0  0  0  0  0  0  0  0  0
    7.4178   -2.1857   -2.6302 H   0  0  0  0  0  0  0  0  0  0  0  0
    4.8104    1.3601   -2.6026 H   0  0  0  0  0  0  0  0  0  0  0  0
    5.3869    3.4794   -2.2266 H   0  0  0  0  0  0  0  0  0  0  0  0
    5.8041    4.5396   -0.2488 H   0  0  0  0  0  0  0  0  0  0  0  0
    6.1331    2.8656    0.2301 H   0  0  0  0  0  0  0  0  0  0  0  0
    4.7234    4.1074    1.9201 H   0  0  0  0  0  0  0  0  0  0  0  0
    3.8261    2.7273    1.2434 H   0  0  0  0  0  0  0  0  0  0  0  0
    1.0607    5.6867   -0.0524 H   0  0  0  0  0  0  0  0  0  0  0  0
   -0.0461    5.5351   -2.2960 H   0  0  0  0  0  0  0  0  0  0  0  0
    1.0420    4.2109   -4.1244 H   0  0  0  0  0  0  0  0  0  0  0  0
    3.2143    3.0841   -3.6936 H   0  0  0  0  0  0  0  0  0  0  0  0
  1  2  1  0
  1 21  1  0
  1 22  1  0
  1 23  1  0
  2  3  1  0
  2  4  1  0
  2 24  1  6
  3 25  1  0
  3 26  1  0
  3 27  1  0
  4  5  1  0
  4 28  1  0
  4 29  1  0
  5  6  1  0
  5 10  1  0
  5 30  1  1
  6  7  1  0
  6 31  1  0
  6 32  1  0
  7  8  1  0
  7  9  1  0
  8 33  1  0
  8 34  1  0
  8 35  1  0
  9 36  1  0
  9 37  1  0
  9 38  1  0
 10 11  1  0
 10 39  1  0
 11 12  1  0
 11 20  1  0
 11 40  1  6
 12 13  1  0
 12 41  1  0
 12 42  1  0
 13 14  1  0
 13 43  1  0
 13 44  1  0
 14 15  1  0
 15 16  1  0
 15 20  2  0
 16 17  2  0
 16 45  1  0
 17 18  1  0
 17 46  1  0
 18 19  2  0
 18 47  1  0
 19 20  1  0
 19 48  1  0
M  END

