
     RDKit          3D

 69 74  0  0  0  0  0  0  0  0999 V2000
   11.3585    2.4922   -3.4175 C   0  0  0  0  0  0  0  0  0  0  0  0
   10.2041    1.7108   -2.8203 C   0  0  0  0  0  0  0  0  0  0  0  0
   10.5251    0.3295   -2.8878 O   0  0  0  0  0  0  0  0  0  0  0  0
    9.6485   -0.5918   -2.4202 C   0  0  0  0  0  0  0  0  0  0  0  0
    8.4033   -0.2897   -1.8463 C   0  0  0  0  0  0  0  0  0  0  0  0
    7.5794   -1.3226   -1.3879 C   0  0  0  0  0  0  0  0  0  0  0  0
    7.9671   -2.6610   -1.5092 C   0  0  0  0  0  0  0  0  0  0  0  0
    7.0831   -3.6935   -1.0748 N   0  0  0  0  0  0  0  0  0  0  0  0
    5.7847   -3.8198   -1.5267 C   0  0  0  0  0  0  0  0  0  0  0  0
    5.1988   -4.8982   -0.8964 C   0  0  0  0  0  0  0  0  0  0  0  0
    6.1738   -5.4523   -0.0234 C   0  0  0  0  0  0  0  0  0  0  0  0
    7.3304   -4.6977   -0.1437 C   0  0  0  0  0  0  0  0  0  0  0  0
    8.6357   -4.8472    0.5870 C   0  0  2  0  0  0  0  0  0  0  0  0
    9.2975   -4.0130    0.3226 H   0  0  0  0  0  0  0  0  0  0  0  0
    9.3713   -6.2054    0.3132 C   0  0  1  0  0  0  0  0  0  0  0  0
    8.9922   -6.6428   -0.6211 H   0  0  0  0  0  0  0  0  0  0  0  0
   10.8800   -6.0449    0.1646 C   0  0  0  0  0  0  0  0  0  0  0  0
   11.7699   -6.2550    1.2284 C   0  0  0  0  0  0  0  0  0  0  0  0
   13.1359   -6.0701    1.0029 C   0  0  0  0  0  0  0  0  0  0  0  0
   13.5664   -5.6861   -0.2680 C   0  0  0  0  0  0  0  0  0  0  0  0
   12.6003   -5.4962   -1.2611 C   0  0  0  0  0  0  0  0  0  0  0  0
   11.2939   -5.6705   -1.0541 N   0  0  0  0  0  0  0  0  0  0  0  0
    8.9643   -6.9683    1.4746 N   0  0  0  0  0  0  0  0  0  0  0  0
    8.6242   -6.1752    2.5423 C   0  0  0  0  0  0  0  0  0  0  0  0
    8.4888   -6.7280    4.1077 S   0  0  0  0  0  0  0  0  0  0  0  0
    8.4636   -4.9020    2.0592 N   0  0  0  0  0  0  0  0  0  0  0  0
    8.0236   -3.7671    2.7937 C   0  0  0  0  0  0  0  0  0  0  0  0
    8.7046   -2.5515    2.6759 C   0  0  0  0  0  0  0  0  0  0  0  0
    8.2715   -1.4111    3.3555 C   0  0  0  0  0  0  0  0  0  0  0  0
    7.1491   -1.4529    4.2088 C   0  0  0  0  0  0  0  0  0  0  0  0
    6.7270   -0.3333    4.9453 N   0  0  0  0  0  0  0  0  0  0  0  0
    5.2956   -0.0521    5.0478 C   0  0  0  0  0  0  0  0  0  0  0  0
    5.0163    0.8989    6.2070 C   0  0  0  0  0  0  0  0  0  0  0  0
    5.7742    2.0849    6.0964 O   0  0  0  0  0  0  0  0  0  0  0  0
    7.1552    1.7988    6.0732 C   0  0  0  0  0  0  0  0  0  0  0  0
    7.5296    0.8799    4.9108 C   0  0  0  0  0  0  0  0  0  0  0  0
    6.4728   -2.6899    4.3197 C   0  0  0  0  0  0  0  0  0  0  0  0
    6.8922   -3.8168    3.6230 C   0  0  0  0  0  0  0  0  0  0  0  0
    9.2108   -2.9617   -2.0915 C   0  0  0  0  0  0  0  0  0  0  0  0
   10.0431   -1.9375   -2.5302 C   0  0  0  0  0  0  0  0  0  0  0  0
   11.1456    3.5718   -3.3831 H   0  0  0  0  0  0  0  0  0  0  0  0
   11.5225    2.2022   -4.4666 H   0  0  0  0  0  0  0  0  0  0  0  0
   12.2874    2.3017   -2.8587 H   0  0  0  0  0  0  0  0  0  0  0  0
    9.2677    1.9083   -3.3759 H   0  0  0  0  0  0  0  0  0  0  0  0
   10.0323    2.0078   -1.7682 H   0  0  0  0  0  0  0  0  0  0  0  0
    8.0678    0.7415   -1.7379 H   0  0  0  0  0  0  0  0  0  0  0  0
    6.6220   -1.0844   -0.9200 H   0  0  0  0  0  0  0  0  0  0  0  0
    5.4021   -3.1416   -2.2856 H   0  0  0  0  0  0  0  0  0  0  0  0
    4.1824   -5.2541   -1.0537 H   0  0  0  0  0  0  0  0  0  0  0  0
    6.0496   -6.3072    0.6388 H   0  0  0  0  0  0  0  0  0  0  0  0
   11.4004   -6.5529    2.2117 H   0  0  0  0  0  0  0  0  0  0  0  0
   13.8538   -6.2255    1.8125 H   0  0  0  0  0  0  0  0  0  0  0  0
   14.6251   -5.5355   -0.4901 H   0  0  0  0  0  0  0  0  0  0  0  0
   12.8987   -5.1924   -2.2715 H   0  0  0  0  0  0  0  0  0  0  0  0
    9.2886   -7.9083    1.6630 H   0  0  0  0  0  0  0  0  0  0  0  0
    9.5892   -2.4819    2.0387 H   0  0  0  0  0  0  0  0  0  0  0  0
    8.8233   -0.4836    3.2076 H   0  0  0  0  0  0  0  0  0  0  0  0
    4.7339   -0.9812    5.2078 H   0  0  0  0  0  0  0  0  0  0  0  0
    4.9193    0.4043    4.1063 H   0  0  0  0  0  0  0  0  0  0  0  0
    5.2424    0.3867    7.1653 H   0  0  0  0  0  0  0  0  0  0  0  0
    3.9550    1.1908    6.2109 H   0  0  0  0  0  0  0  0  0  0  0  0
    7.4640    1.3214    7.0262 H   0  0  0  0  0  0  0  0  0  0  0  0
    7.6847    2.7593    5.9798 H   0  0  0  0  0  0  0  0  0  0  0  0
    8.5940    0.6183    5.0054 H   0  0  0  0  0  0  0  0  0  0  0  0
    7.4026    1.4309    3.9526 H   0  0  0  0  0  0  0  0  0  0  0  0
    5.6096   -2.7829    4.9800 H   0  0  0  0  0  0  0  0  0  0  0  0
    6.3540   -4.7568    3.7389 H   0  0  0  0  0  0  0  0  0  0  0  0
    9.5364   -3.9991   -2.1942 H   0  0  0  0  0  0  0  0  0  0  0  0
   11.0130   -2.1579   -2.9801 H   0  0  0  0  0  0  0  0  0  0  0  0
  1  2  1  0
  1 41  1  0
  1 42  1  0
  1 43  1  0
  2  3  1  0
  2 44  1  0
  2 45  1  0
  3  4  1  0
  4  5  2  0
  4 40  1  0
  5  6  1  0
  5 46  1  0
  6  7  2  0
  6 47  1  0
  7  8  1  0
  7 39  1  0
  8  9  1  0
  8 12  1  0
  9 10  2  0
  9 48  1  0
 10 11  1  0
 10 49  1  0
 11 12  2  0
 11 50  1  0
 12 13  1  0
 13 14  1  1
 13 15  1  0
 13 26  1  0
 15 16  1  6
 15 17  1  0
 15 23  1  0
 17 18  2  0
 17 22  1  0
 18 19  1  0
 18 51  1  0
 19 20  2  0
 19 52  1  0
 20 21  1  0
 20 53  1  0
 21 22  2  0
 21 54  1  0
 23 24  1  0
 23 55  1  0
 24 25  2  0
 24 26  1  0
 26 27  1  0
 27 28  2  0
 27 38  1  0
 28 29  1  0
 28 56  1  0
 29 30  2  0
 29 57  1  0
 30 31  1  0
 30 37  1  0
 31 32  1  0
 31 36  1  0
 32 33  1  0
 32 58  1  0
 32 59  1  0
 33 34  1  0
 33 60  1  0
 33 61  1  0
 34 35  1  0
 35 36  1  0
 35 62  1  0
 35 63  1  0
 36 64  1  0
 36 65  1  0
 37 38  2  0
 37 66  1  0
 38 67  1  0
 39 40  2  0
 39 68  1  0
 40 69  1  0
M  END

