
     RDKit          3D

 34 35  0  0  0  0  0  0  0  0999 V2000
    1.1367   -0.1913    1.0178 C   0  0  0  0  0  0  0  0  0  0  0  0
    2.5827   -0.1284    0.6009 C   0  0  0  0  0  0  0  0  0  0  0  0
    3.1903    1.0320    0.0920 C   0  0  0  0  0  0  0  0  0  0  0  0
    4.5300    1.0647   -0.2864 C   0  0  0  0  0  0  0  0  0  0  0  0
    5.3241   -0.0883   -0.1652 C   0  0  0  0  0  0  0  0  0  0  0  0
    6.6196    0.0236   -0.5526 O   0  0  0  0  0  0  0  0  0  0  0  0
    7.4714   -1.1048   -0.4780 C   0  0  0  0  0  0  0  0  0  0  0  0
    8.8444   -0.7524   -1.0019 C   0  0  0  0  0  0  0  0  0  0  0  0
    9.9663   -1.4493   -0.5319 C   0  0  0  0  0  0  0  0  0  0  0  0
   11.2339   -1.1651   -1.0453 C   0  0  0  0  0  0  0  0  0  0  0  0
   11.3957   -0.1831   -2.0255 C   0  0  0  0  0  0  0  0  0  0  0  0
   10.2847    0.5274   -2.5028 C   0  0  0  0  0  0  0  0  0  0  0  0
   10.4360    1.5744   -3.5927 C   0  0  0  0  0  0  0  0  0  0  0  0
   11.7461    2.2127   -3.5752 N   0  0  0  0  0  0  0  0  0  0  0  0
    9.0170    0.2340   -1.9807 C   0  0  0  0  0  0  0  0  0  0  0  0
    4.7520   -1.2653    0.3404 C   0  0  0  0  0  0  0  0  0  0  0  0
    3.4067   -1.2507    0.7057 C   0  0  0  0  0  0  0  0  0  0  0  0
    2.8764   -2.3909    1.1888 F   0  0  0  0  0  0  0  0  0  0  0  0
    0.6410    0.7777    0.8620 H   0  0  0  0  0  0  0  0  0  0  0  0
    1.0337   -0.4598    2.0824 H   0  0  0  0  0  0  0  0  0  0  0  0
    0.5832   -0.9539    0.4454 H   0  0  0  0  0  0  0  0  0  0  0  0
    2.5870    1.9386   -0.0090 H   0  0  0  0  0  0  0  0  0  0  0  0
    4.9871    1.9748   -0.6783 H   0  0  0  0  0  0  0  0  0  0  0  0
    7.0412   -1.9341   -1.0750 H   0  0  0  0  0  0  0  0  0  0  0  0
    7.5455   -1.4632    0.5657 H   0  0  0  0  0  0  0  0  0  0  0  0
    9.8503   -2.2109    0.2452 H   0  0  0  0  0  0  0  0  0  0  0  0
   12.1052   -1.7090   -0.6705 H   0  0  0  0  0  0  0  0  0  0  0  0
   12.3824    0.0578   -2.4256 H   0  0  0  0  0  0  0  0  0  0  0  0
    9.5786    2.2772   -3.5200 H   0  0  0  0  0  0  0  0  0  0  0  0
   10.3253    1.0738   -4.5729 H   0  0  0  0  0  0  0  0  0  0  0  0
   11.8476    2.7973   -2.7446 H   0  0  0  0  0  0  0  0  0  0  0  0
   11.8583    2.8242   -4.3826 H   0  0  0  0  0  0  0  0  0  0  0  0
    8.1437    0.7912   -2.3276 H   0  0  0  0  0  0  0  0  0  0  0  0
    5.3093   -2.1925    0.4637 H   0  0  0  0  0  0  0  0  0  0  0  0
  1  2  1  0
  1 19  1  0
  1 20  1  0
  1 21  1  0
  2  3  2  0
  2 17  1  0
  3  4  1  0
  3 22  1  0
  4  5  2  0
  4 23  1  0
  5  6  1  0
  5 16  1  0
  6  7  1  0
  7  8  1  0
  7 24  1  0
  7 25  1  0
  8  9  2  0
  8 15  1  0
  9 10  1  0
  9 26  1  0
 10 11  2  0
 10 27  1  0
 11 12  1  0
 11 28  1  0
 12 13  1  0
 12 15  2  0
 13 14  1  0
 13 29  1  0
 13 30  1  0
 14 31  1  0
 14 32  1  0
 15 33  1  0
 16 17  2  0
 16 34  1  0
 17 18  1  0
M  END

