
     RDKit          3D

 54 57  0  0  0  0  0  0  0  0999 V2000
    7.6322    0.7125   -5.0808 C   0  0  0  0  0  0  0  0  0  0  0  0
    8.1802   -0.2314   -4.0540 C   0  0  0  0  0  0  0  0  0  0  0  0
    9.4953   -0.5578   -3.8041 C   0  0  0  0  0  0  0  0  0  0  0  0
    9.6596   -1.4926   -2.7451 C   0  0  0  0  0  0  0  0  0  0  0  0
    8.4675   -1.8891   -2.1824 C   0  0  0  0  0  0  0  0  0  0  0  0
    8.3480   -2.8583   -1.0636 C   0  0  0  0  0  0  0  0  0  0  0  0
    9.3451   -3.2720   -0.4803 O   0  0  0  0  0  0  0  0  0  0  0  0
    7.0810   -3.2421   -0.7155 N   0  0  0  0  0  0  0  0  0  0  0  0
    6.8465   -4.2398    0.3108 C   0  0  0  0  0  0  0  0  0  0  0  0
    6.5294   -5.6100   -0.3147 C   0  0  0  0  0  0  0  0  0  0  0  0
    5.4571   -5.7277   -0.8947 O   0  0  0  0  0  0  0  0  0  0  0  0
    7.4409   -6.6281   -0.2120 N   0  0  0  0  0  0  0  0  0  0  0  0
    7.0663   -7.9455   -0.7208 C   0  0  0  0  0  0  0  0  0  0  0  0
    7.0936   -9.0433    0.3484 C   0  0  0  0  0  0  0  0  0  0  0  0
    8.4900   -9.3306    0.9351 C   0  0  0  0  0  0  0  0  0  0  0  0
    8.9892   -8.4458    1.9860 N   0  0  0  0  0  0  0  0  0  0  0  0
    8.6923   -8.8808    3.3416 C   0  0  0  0  0  0  0  0  0  0  0  0
    9.4921  -10.0776    3.7812 C   0  0  0  0  0  0  0  0  0  0  0  0
   10.7493  -10.4575    3.3264 C   0  0  0  0  0  0  0  0  0  0  0  0
   11.0855  -11.5727    4.0600 N   0  0  0  0  0  0  0  0  0  0  0  0
   12.2033  -12.3686    4.0358 C   0  0  0  0  0  0  0  0  0  0  0  0
   12.2714  -13.4368    4.8937 C   0  0  0  0  0  0  0  0  0  0  0  0
   13.6880  -14.4555    4.8755 Cl  0  0  0  0  0  0  0  0  0  0  0  0
   11.2073  -13.7264    5.7972 C   0  0  0  0  0  0  0  0  0  0  0  0
   10.0910  -12.9218    5.8106 C   0  0  0  0  0  0  0  0  0  0  0  0
   10.0031  -11.8143    4.9328 C   0  0  0  0  0  0  0  0  0  0  0  0
    9.0449  -10.9122    4.7578 N   0  0  0  0  0  0  0  0  0  0  0  0
    8.8753   -6.9978    1.8168 C   0  0  0  0  0  0  0  0  0  0  0  0
    8.7771   -6.5013    0.3713 C   0  0  0  0  0  0  0  0  0  0  0  0
    7.1250   -1.0845   -2.9623 S   0  0  0  0  0  0  0  0  0  0  0  0
    8.4568    1.1551   -5.6585 H   0  0  0  0  0  0  0  0  0  0  0  0
    7.0620    1.5357   -4.6193 H   0  0  0  0  0  0  0  0  0  0  0  0
    6.9578    0.2029   -5.7890 H   0  0  0  0  0  0  0  0  0  0  0  0
   10.3230   -0.1299   -4.3730 H   0  0  0  0  0  0  0  0  0  0  0  0
   10.6137   -1.8805   -2.3877 H   0  0  0  0  0  0  0  0  0  0  0  0
    6.3078   -3.0543   -1.3451 H   0  0  0  0  0  0  0  0  0  0  0  0
    5.9432   -3.9663    0.8776 H   0  0  0  0  0  0  0  0  0  0  0  0
    7.7021   -4.2254    0.9922 H   0  0  0  0  0  0  0  0  0  0  0  0
    7.7569   -8.2222   -1.5408 H   0  0  0  0  0  0  0  0  0  0  0  0
    6.0630   -7.8441   -1.1520 H   0  0  0  0  0  0  0  0  0  0  0  0
    6.7263   -9.9686   -0.1291 H   0  0  0  0  0  0  0  0  0  0  0  0
    6.3776   -8.8048    1.1539 H   0  0  0  0  0  0  0  0  0  0  0  0
    9.2126   -9.3619    0.0973 H   0  0  0  0  0  0  0  0  0  0  0  0
    8.4985  -10.3468    1.3564 H   0  0  0  0  0  0  0  0  0  0  0  0
    7.6174   -9.1057    3.5156 H   0  0  0  0  0  0  0  0  0  0  0  0
    8.9298   -8.0480    4.0263 H   0  0  0  0  0  0  0  0  0  0  0  0
   11.3975  -10.0367    2.5639 H   0  0  0  0  0  0  0  0  0  0  0  0
   12.9934  -12.1114    3.3308 H   0  0  0  0  0  0  0  0  0  0  0  0
   11.2961  -14.5837    6.4655 H   0  0  0  0  0  0  0  0  0  0  0  0
    9.2544  -13.1073    6.4851 H   0  0  0  0  0  0  0  0  0  0  0  0
    9.7591   -6.5203    2.2805 H   0  0  0  0  0  0  0  0  0  0  0  0
    7.9912   -6.5906    2.3553 H   0  0  0  0  0  0  0  0  0  0  0  0
    9.4855   -7.0520   -0.2697 H   0  0  0  0  0  0  0  0  0  0  0  0
    9.1003   -5.4538    0.3227 H   0  0  0  0  0  0  0  0  0  0  0  0
  1  2  1  0
  1 31  1  0
  1 32  1  0
  1 33  1  0
  2  3  2  0
  2 30  1  0
  3  4  1  0
  3 34  1  0
  4  5  2  0
  4 35  1  0
  5  6  1  0
  5 30  1  0
  6  7  2  0
  6  8  1  0
  8  9  1  0
  8 36  1  0
  9 10  1  0
  9 37  1  0
  9 38  1  0
 10 11  2  0
 10 12  1  0
 12 13  1  0
 12 29  1  0
 13 14  1  0
 13 39  1  0
 13 40  1  0
 14 15  1  0
 14 41  1  0
 14 42  1  0
 15 16  1  0
 15 43  1  0
 15 44  1  0
 16 17  1  0
 16 28  1  0
 17 18  1  0
 17 45  1  0
 17 46  1  0
 18 19  2  0
 18 27  1  0
 19 20  1  0
 19 47  1  0
 20 21  1  0
 20 26  1  0
 21 22  2  0
 21 48  1  0
 22 23  1  0
 22 24  1  0
 24 25  2  0
 24 49  1  0
 25 26  1  0
 25 50  1  0
 26 27  2  0
 28 29  1  0
 28 51  1  0
 28 52  1  0
 29 53  1  0
 29 54  1  0
M  END

