
     RDKit          3D

 32 33  0  0  0  0  0  0  0  0999 V2000
    0.9364    0.0940    0.1216 C   0  0  0  0  0  0  0  0  0  0  0  0
    2.4652   -0.0069    0.1547 C   0  0  1  0  0  0  0  0  0  0  0  0
    3.0198    0.1176   -1.2124 N   0  0  0  0  0  0  0  0  0  0  0  0
    2.7795   -0.7512   -2.2327 C   0  0  0  0  0  0  0  0  0  0  0  0
    2.1651   -1.7980   -2.1175 O   0  0  0  0  0  0  0  0  0  0  0  0
    3.3606   -0.3455   -3.5761 C   0  0  0  0  0  0  0  0  0  0  0  0
    3.9927   -1.2985   -4.3927 C   0  0  0  0  0  0  0  0  0  0  0  0
    4.1877   -2.5289   -3.9271 F   0  0  0  0  0  0  0  0  0  0  0  0
    4.4584   -1.0105   -5.6742 C   0  0  0  0  0  0  0  0  0  0  0  0
    4.2816    0.2814   -6.1731 C   0  0  0  0  0  0  0  0  0  0  0  0
    4.8992    0.7008   -7.9203 Br  0  0  0  0  0  0  0  0  0  0  0  0
    3.6640    1.2728   -5.4088 C   0  0  0  0  0  0  0  0  0  0  0  0
    3.2250    0.9332   -4.1321 C   0  0  0  0  0  0  0  0  0  0  0  0
    2.6425    1.8997   -3.3994 F   0  0  0  0  0  0  0  0  0  0  0  0
    3.1401    1.0830    1.0145 C   0  0  0  0  0  0  0  0  0  0  0  0
    4.5627    0.5586    1.3108 C   0  0  0  0  0  0  0  0  0  0  0  0
    4.4714   -0.9893    1.1697 C   0  0  0  0  0  0  0  0  0  0  0  0
    2.9978   -1.2922    0.8311 C   0  0  0  0  0  0  0  0  0  0  0  0
    0.6194    1.0551   -0.3147 H   0  0  0  0  0  0  0  0  0  0  0  0
    0.5226    0.0247    1.1398 H   0  0  0  0  0  0  0  0  0  0  0  0
    0.5113   -0.7195   -0.4831 H   0  0  0  0  0  0  0  0  0  0  0  0
    3.4351    1.0096   -1.4539 H   0  0  0  0  0  0  0  0  0  0  0  0
    4.9482   -1.7933   -6.2527 H   0  0  0  0  0  0  0  0  0  0  0  0
    3.5164    2.2869   -5.7793 H   0  0  0  0  0  0  0  0  0  0  0  0
    2.5616    1.1797    1.9469 H   0  0  0  0  0  0  0  0  0  0  0  0
    3.1230    2.0744    0.5300 H   0  0  0  0  0  0  0  0  0  0  0  0
    4.9035    0.8716    2.3097 H   0  0  0  0  0  0  0  0  0  0  0  0
    5.2903    0.9712    0.5940 H   0  0  0  0  0  0  0  0  0  0  0  0
    4.7930   -1.5119    2.0835 H   0  0  0  0  0  0  0  0  0  0  0  0
    5.1311   -1.3395    0.3612 H   0  0  0  0  0  0  0  0  0  0  0  0
    2.4142   -1.4490    1.7536 H   0  0  0  0  0  0  0  0  0  0  0  0
    2.8571   -2.1769    0.1969 H   0  0  0  0  0  0  0  0  0  0  0  0
  1  2  1  0
  1 19  1  0
  1 20  1  0
  1 21  1  0
  2  3  1  6
  2 15  1  0
  2 18  1  0
  3  4  1  0
  3 22  1  0
  4  5  2  0
  4  6  1  0
  6  7  2  0
  6 13  1  0
  7  8  1  0
  7  9  1  0
  9 10  2  0
  9 23  1  0
 10 11  1  0
 10 12  1  0
 12 13  2  0
 12 24  1  0
 13 14  1  0
 15 16  1  0
 15 25  1  0
 15 26  1  0
 16 17  1  0
 16 27  1  0
 16 28  1  0
 17 18  1  0
 17 29  1  0
 17 30  1  0
 18 31  1  0
 18 32  1  0
M  END

