
     RDKit          3D

 53 55  0  0  0  0  0  0  0  0999 V2000
    2.8435   -1.9920    3.7330 C   0  0  0  0  0  0  0  0  0  0  0  0
    2.9149   -1.2967    2.3762 C   0  0  0  0  0  0  0  0  0  0  0  0
    2.9250    0.1793    2.4726 N   0  0  0  0  0  0  0  0  0  0  0  0
    1.8415    1.0086    2.4203 C   0  0  0  0  0  0  0  0  0  0  0  0
    1.9414    2.2314    2.4445 O   0  0  0  0  0  0  0  0  0  0  0  0
    0.4113    0.3961    2.3331 C   0  0  0  0  0  0  0  0  0  0  0  0
    0.1473   -0.7914    2.4670 O   0  0  0  0  0  0  0  0  0  0  0  0
   -0.4794    1.3940    2.1130 N   0  0  0  0  0  0  0  0  0  0  0  0
   -1.8781    1.3319    1.9874 C   0  0  0  0  0  0  0  0  0  0  0  0
   -2.6161    0.1419    2.0687 C   0  0  0  0  0  0  0  0  0  0  0  0
   -4.0049    0.1620    1.9241 C   0  0  0  0  0  0  0  0  0  0  0  0
   -4.7196    1.3595    1.7104 C   0  0  0  0  0  0  0  0  0  0  0  0
   -6.1208    1.3949    1.6096 N   0  0  0  0  0  0  0  0  0  0  0  0
   -6.8746    0.1769    1.8797 C   0  0  0  0  0  0  0  0  0  0  0  0
   -8.3496    0.5081    2.1633 C   0  0  0  0  0  0  0  0  0  0  0  0
   -8.9885    1.3137    1.1339 N   0  0  0  0  0  0  0  0  0  0  0  0
   -9.4136    0.5910   -0.0506 C   0  0  0  0  0  0  0  0  0  0  0  0
   -8.2015    2.5129    0.8865 C   0  0  0  0  0  0  0  0  0  0  0  0
   -6.7275    2.2273    0.5678 C   0  0  0  0  0  0  0  0  0  0  0  0
   -3.9584    2.5492    1.6351 C   0  0  0  0  0  0  0  0  0  0  0  0
   -2.5759    2.5333    1.7661 C   0  0  0  0  0  0  0  0  0  0  0  0
    4.2115    0.7996    2.6620 C   0  0  0  0  0  0  0  0  0  0  0  0
    4.5418    1.3875    3.8892 C   0  0  0  0  0  0  0  0  0  0  0  0
    5.8008    1.9636    4.0716 C   0  0  0  0  0  0  0  0  0  0  0  0
    6.7382    1.9524    3.0341 C   0  0  0  0  0  0  0  0  0  0  0  0
    6.4083    1.3674    1.8083 C   0  0  0  0  0  0  0  0  0  0  0  0
    5.1469    0.7964    1.6200 C   0  0  0  0  0  0  0  0  0  0  0  0
    2.9060   -3.0838    3.5978 H   0  0  0  0  0  0  0  0  0  0  0  0
    1.8877   -1.7659    4.2268 H   0  0  0  0  0  0  0  0  0  0  0  0
    3.6724   -1.6836    4.3900 H   0  0  0  0  0  0  0  0  0  0  0  0
    2.0711   -1.6051    1.7520 H   0  0  0  0  0  0  0  0  0  0  0  0
    3.8436   -1.5773    1.8564 H   0  0  0  0  0  0  0  0  0  0  0  0
   -0.0330    2.3114    2.0849 H   0  0  0  0  0  0  0  0  0  0  0  0
   -2.0950   -0.7988    2.2339 H   0  0  0  0  0  0  0  0  0  0  0  0
   -4.5311   -0.7910    1.9716 H   0  0  0  0  0  0  0  0  0  0  0  0
   -6.4529   -0.3169    2.7676 H   0  0  0  0  0  0  0  0  0  0  0  0
   -6.7966   -0.5481    1.0389 H   0  0  0  0  0  0  0  0  0  0  0  0
   -8.3954    1.0662    3.1160 H   0  0  0  0  0  0  0  0  0  0  0  0
   -8.9159   -0.4271    2.3024 H   0  0  0  0  0  0  0  0  0  0  0  0
  -10.0899   -0.2288    0.2418 H   0  0  0  0  0  0  0  0  0  0  0  0
   -8.5981    0.1434   -0.6603 H   0  0  0  0  0  0  0  0  0  0  0  0
   -9.9811    1.2673   -0.7106 H   0  0  0  0  0  0  0  0  0  0  0  0
   -8.2421    3.1466    1.7913 H   0  0  0  0  0  0  0  0  0  0  0  0
   -8.6544    3.0860    0.0611 H   0  0  0  0  0  0  0  0  0  0  0  0
   -6.1897    3.1807    0.4886 H   0  0  0  0  0  0  0  0  0  0  0  0
   -6.6395    1.7304   -0.4236 H   0  0  0  0  0  0  0  0  0  0  0  0
   -4.4566    3.5098    1.4978 H   0  0  0  0  0  0  0  0  0  0  0  0
   -2.0228    3.4755    1.7088 H   0  0  0  0  0  0  0  0  0  0  0  0
    3.8053    1.3967    4.6949 H   0  0  0  0  0  0  0  0  0  0  0  0
    6.0511    2.4220    5.0317 H   0  0  0  0  0  0  0  0  0  0  0  0
    7.7236    2.4018    3.1800 H   0  0  0  0  0  0  0  0  0  0  0  0
    7.1323    1.3619    0.9896 H   0  0  0  0  0  0  0  0  0  0  0  0
    4.8794    0.3528    0.6580 H   0  0  0  0  0  0  0  0  0  0  0  0
  1  2  1  0
  1 28  1  0
  1 29  1  0
  1 30  1  0
  2  3  1  0
  2 31  1  0
  2 32  1  0
  3  4  1  0
  3 22  1  0
  4  5  2  0
  4  6  1  0
  6  7  2  0
  6  8  1  0
  8  9  1  0
  8 33  1  0
  9 10  2  0
  9 21  1  0
 10 11  1  0
 10 34  1  0
 11 12  2  0
 11 35  1  0
 12 13  1  0
 12 20  1  0
 13 14  1  0
 13 19  1  0
 14 15  1  0
 14 36  1  0
 14 37  1  0
 15 16  1  0
 15 38  1  0
 15 39  1  0
 16 17  1  0
 16 18  1  0
 17 40  1  0
 17 41  1  0
 17 42  1  0
 18 19  1  0
 18 43  1  0
 18 44  1  0
 19 45  1  0
 19 46  1  0
 20 21  2  0
 20 47  1  0
 21 48  1  0
 22 23  2  0
 22 27  1  0
 23 24  1  0
 23 49  1  0
 24 25  2  0
 24 50  1  0
 25 26  1  0
 25 51  1  0
 26 27  2  0
 26 52  1  0
 27 53  1  0
M  END

