
     RDKit          3D

 30 31  0  0  0  0  0  0  0  0999 V2000
    1.1143    0.0596    0.4913 C   0  0  0  0  0  0  0  0  0  0  0  0
    2.3828   -0.1086   -0.1118 O   0  0  0  0  0  0  0  0  0  0  0  0
    2.8782    0.8577   -0.9365 C   0  0  0  0  0  0  0  0  0  0  0  0
    2.2426    2.0849   -1.1639 C   0  0  0  0  0  0  0  0  0  0  0  0
    2.8342    3.0187   -2.0231 C   0  0  0  0  0  0  0  0  0  0  0  0
    4.0458    2.7456   -2.6520 C   0  0  0  0  0  0  0  0  0  0  0  0
    4.6539    1.5142   -2.4031 C   0  0  0  0  0  0  0  0  0  0  0  0
    5.8192    1.2471   -3.0180 F   0  0  0  0  0  0  0  0  0  0  0  0
    4.1095    0.5475   -1.5588 C   0  0  0  0  0  0  0  0  0  0  0  0
    4.8104   -0.7834   -1.3162 C   0  0  1  0  0  0  0  0  0  0  0  0
    4.9529   -1.0895    0.0563 O   0  0  0  0  0  0  0  0  0  0  0  0
    4.1391   -1.9179   -2.0697 C   0  0  0  0  0  0  0  0  0  0  0  0
    3.4376   -1.9113   -3.2465 C   0  0  0  0  0  0  0  0  0  0  0  0
    3.0189   -3.2103   -3.6980 C   0  0  0  0  0  0  0  0  0  0  0  0
    2.2331   -3.4518   -4.9546 C   0  0  0  0  0  0  0  0  0  0  0  0
    3.4358   -4.1781   -2.8140 C   0  0  0  0  0  0  0  0  0  0  0  0
    3.1463   -5.8843   -2.9222 Cl  0  0  0  0  0  0  0  0  0  0  0  0
    4.3205   -3.5404   -1.4537 S   0  0  0  0  0  0  0  0  0  0  0  0
    0.9169   -0.8589    1.0592 H   0  0  0  0  0  0  0  0  0  0  0  0
    0.3236    0.1915   -0.2666 H   0  0  0  0  0  0  0  0  0  0  0  0
    1.1023    0.9208    1.1818 H   0  0  0  0  0  0  0  0  0  0  0  0
    1.2967    2.3230   -0.6791 H   0  0  0  0  0  0  0  0  0  0  0  0
    2.3363    3.9752   -2.1986 H   0  0  0  0  0  0  0  0  0  0  0  0
    4.5288    3.4555   -3.3248 H   0  0  0  0  0  0  0  0  0  0  0  0
    5.8394   -0.6862   -1.6954 H   0  0  0  0  0  0  0  0  0  0  0  0
    4.0590   -1.0699    0.4329 H   0  0  0  0  0  0  0  0  0  0  0  0
    3.2156   -0.9950   -3.7972 H   0  0  0  0  0  0  0  0  0  0  0  0
    2.7883   -3.1064   -5.8429 H   0  0  0  0  0  0  0  0  0  0  0  0
    1.2762   -2.9035   -4.9372 H   0  0  0  0  0  0  0  0  0  0  0  0
    2.0120   -4.5198   -5.0857 H   0  0  0  0  0  0  0  0  0  0  0  0
  1  2  1  0
  1 19  1  0
  1 20  1  0
  1 21  1  0
  2  3  1  0
  3  4  2  0
  3  9  1  0
  4  5  1  0
  4 22  1  0
  5  6  2  0
  5 23  1  0
  6  7  1  0
  6 24  1  0
  7  8  1  0
  7  9  2  0
  9 10  1  0
 10 11  1  0
 10 12  1  0
 10 25  1  6
 11 26  1  0
 12 13  2  0
 12 18  1  0
 13 14  1  0
 13 27  1  0
 14 15  1  0
 14 16  2  0
 15 28  1  0
 15 29  1  0
 15 30  1  0
 16 17  1  0
 16 18  1  0
M  END

