
     RDKit          3D

 59 64  0  0  0  0  0  0  0  0999 V2000
    3.9472   -1.7205    0.9334 O   0  0  0  0  0  0  0  0  0  0  0  0
    2.8529   -1.2111    0.7493 C   0  0  0  0  0  0  0  0  0  0  0  0
    1.5832   -1.8904    1.2847 C   0  0  0  0  0  0  0  0  0  0  0  0
    0.6078   -2.8120    0.0256 S   0  0  0  0  0  0  0  0  0  0  0  0
   -0.4188   -1.5218   -0.5822 C   0  0  0  0  0  0  0  0  0  0  0  0
   -0.2929   -0.2335   -0.3403 N   0  0  0  0  0  0  0  0  0  0  0  0
   -1.2756    0.4183   -1.0220 N   0  0  0  0  0  0  0  0  0  0  0  0
   -1.9807   -0.4719   -1.6834 C   0  0  0  0  0  0  0  0  0  0  0  0
   -3.0999   -0.1104   -2.5663 C   0  0  0  0  0  0  0  0  0  0  0  0
   -3.8135    1.0714   -2.2986 C   0  0  0  0  0  0  0  0  0  0  0  0
   -4.8487    1.4445   -3.1558 C   0  0  0  0  0  0  0  0  0  0  0  0
   -5.2117    0.7401   -4.2328 N   0  0  0  0  0  0  0  0  0  0  0  0
   -4.5260   -0.3734   -4.4948 C   0  0  0  0  0  0  0  0  0  0  0  0
   -3.4699   -0.8413   -3.7069 C   0  0  0  0  0  0  0  0  0  0  0  0
   -1.4848   -1.7463   -1.4224 N   0  0  0  0  0  0  0  0  0  0  0  0
   -1.9649   -3.0327   -1.8627 C   0  0  1  0  0  0  0  0  0  0  0  0
   -2.3386   -4.0732   -0.8331 C   0  0  0  0  0  0  0  0  0  0  0  0
   -3.4089   -3.4069   -1.6466 C   0  0  0  0  0  0  0  0  0  0  0  0
    2.6404   -0.0321    0.1113 N   0  0  0  0  0  0  0  0  0  0  0  0
    3.7254    0.7504   -0.4532 C   0  0  0  0  0  0  0  0  0  0  0  0
    3.8366    0.7205   -1.9926 C   0  0  2  0  0  0  0  0  0  0  0  0
    2.5972    1.3626   -2.6624 C   0  0  0  0  0  0  0  0  0  0  0  0
    2.7473    1.3633   -4.1963 C   0  0  1  0  0  0  0  0  0  0  0  0
    3.9983    2.1739   -4.5874 C   0  0  0  0  0  0  0  0  0  0  0  0
    5.2455    1.5363   -3.9447 C   0  0  2  0  0  0  0  0  0  0  0  0
    5.3968    0.0872   -4.4472 C   0  0  0  0  0  0  0  0  0  0  0  0
    4.1471   -0.7252   -4.0555 C   0  0  2  0  0  0  0  0  0  0  0  0
    2.8993   -0.0867   -4.6966 C   0  0  0  0  0  0  0  0  0  0  0  0
    3.9928   -0.7250   -2.5220 C   0  0  0  0  0  0  0  0  0  0  0  0
    5.0870    1.5312   -2.4119 C   0  0  0  0  0  0  0  0  0  0  0  0
    0.9055   -1.1819    1.7815 H   0  0  0  0  0  0  0  0  0  0  0  0
    1.9054   -2.6642    1.9926 H   0  0  0  0  0  0  0  0  0  0  0  0
   -3.5491    1.6807   -1.4334 H   0  0  0  0  0  0  0  0  0  0  0  0
   -5.4158    2.3616   -2.9573 H   0  0  0  0  0  0  0  0  0  0  0  0
   -4.8243   -0.9339   -5.3890 H   0  0  0  0  0  0  0  0  0  0  0  0
   -2.9406   -1.7471   -4.0019 H   0  0  0  0  0  0  0  0  0  0  0  0
   -1.4796   -3.3896   -2.7781 H   0  0  0  0  0  0  0  0  0  0  0  0
   -2.2481   -3.7958    0.2194 H   0  0  0  0  0  0  0  0  0  0  0  0
   -2.0640   -5.1081   -1.0520 H   0  0  0  0  0  0  0  0  0  0  0  0
   -4.0474   -2.6756   -1.1451 H   0  0  0  0  0  0  0  0  0  0  0  0
   -3.9049   -3.9666   -2.4437 H   0  0  0  0  0  0  0  0  0  0  0  0
    1.6694    0.2668   -0.0113 H   0  0  0  0  0  0  0  0  0  0  0  0
    4.6553    0.3614   -0.0132 H   0  0  0  0  0  0  0  0  0  0  0  0
    3.6133    1.8003   -0.1275 H   0  0  0  0  0  0  0  0  0  0  0  0
    2.4731    2.3977   -2.2961 H   0  0  0  0  0  0  0  0  0  0  0  0
    1.6832    0.8163   -2.3744 H   0  0  0  0  0  0  0  0  0  0  0  0
    1.8516    1.8210   -4.6504 H   0  0  0  0  0  0  0  0  0  0  0  0
    3.8913    3.2208   -4.2536 H   0  0  0  0  0  0  0  0  0  0  0  0
    4.1080    2.1996   -5.6857 H   0  0  0  0  0  0  0  0  0  0  0  0
    6.1423    2.1191   -4.2168 H   0  0  0  0  0  0  0  0  0  0  0  0
    6.3001   -0.3738   -4.0112 H   0  0  0  0  0  0  0  0  0  0  0  0
    5.5308    0.0774   -5.5432 H   0  0  0  0  0  0  0  0  0  0  0  0
    4.2556   -1.7646   -4.4104 H   0  0  0  0  0  0  0  0  0  0  0  0
    1.9992   -0.6723   -4.4392 H   0  0  0  0  0  0  0  0  0  0  0  0
    2.9856   -0.1019   -5.7974 H   0  0  0  0  0  0  0  0  0  0  0  0
    4.8656   -1.2029   -2.0456 H   0  0  0  0  0  0  0  0  0  0  0  0
    3.1128   -1.3237   -2.2330 H   0  0  0  0  0  0  0  0  0  0  0  0
    5.0030    2.5673   -2.0371 H   0  0  0  0  0  0  0  0  0  0  0  0
    5.9855    1.0954   -1.9403 H   0  0  0  0  0  0  0  0  0  0  0  0
  1  2  2  0
  2  3  1  0
  2 19  1  0
  3  4  1  0
  3 31  1  0
  3 32  1  0
  4  5  1  0
  5  6  2  0
  5 15  1  0
  6  7  1  0
  7  8  2  0
  8  9  1  0
  8 15  1  0
  9 10  2  0
  9 14  1  0
 10 11  1  0
 10 33  1  0
 11 12  2  0
 11 34  1  0
 12 13  1  0
 13 14  2  0
 13 35  1  0
 14 36  1  0
 15 16  1  0
 16 17  1  0
 16 18  1  0
 16 37  1  6
 17 18  1  0
 17 38  1  0
 17 39  1  0
 18 40  1  0
 18 41  1  0
 19 20  1  0
 19 42  1  0
 21 20  1  1
 20 43  1  0
 20 44  1  0
 21 22  1  0
 21 29  1  0
 21 30  1  0
 22 23  1  0
 22 45  1  0
 22 46  1  0
 23 24  1  0
 23 28  1  0
 23 47  1  6
 24 25  1  0
 24 48  1  0
 24 49  1  0
 25 26  1  0
 25 30  1  0
 25 50  1  1
 26 27  1  0
 26 51  1  0
 26 52  1  0
 27 28  1  0
 27 29  1  0
 27 53  1  6
 28 54  1  0
 28 55  1  0
 29 56  1  0
 29 57  1  0
 30 58  1  0
 30 59  1  0
M  END

