
     RDKit          3D

 38 40  0  0  0  0  0  0  0  0999 V2000
    0.9154   -0.0786    0.1552 N   0  0  0  0  0  0  0  0  0  0  0  0
    2.3211    0.0099    0.2030 C   0  0  0  0  0  0  0  0  0  0  0  0
    3.0016    1.2091    0.0656 C   0  0  0  0  0  0  0  0  0  0  0  0
    4.4140    1.2909    0.0582 C   0  0  0  0  0  0  0  0  0  0  0  0
    5.2046    0.1556    0.2158 C   0  0  0  0  0  0  0  0  0  0  0  0
    6.5785    0.1408    0.2013 N   0  0  0  0  0  0  0  0  0  0  0  0
    7.4045    1.3155    0.2953 C   0  0  0  0  0  0  0  0  0  0  0  0
    7.4623    1.9520    1.6997 C   0  0  0  0  0  0  0  0  0  0  0  0
    8.0908    3.3411    1.6623 C   0  0  0  0  0  0  0  0  0  0  0  0
    7.8255    4.1439    0.7835 O   0  0  0  0  0  0  0  0  0  0  0  0
    8.9489    3.6310    2.6917 N   0  0  0  0  0  0  0  0  0  0  0  0
    9.6492    4.8779    2.7822 C   0  0  1  0  0  0  0  0  0  0  0  0
    8.9077    6.1116    3.2217 C   0  0  0  0  0  0  0  0  0  0  0  0
    9.8949    5.4549    4.1521 C   0  0  0  0  0  0  0  0  0  0  0  0
    4.5312   -1.1121    0.3819 C   0  0  0  0  0  0  0  0  0  0  0  0
    5.3082   -2.2098    0.5599 N   0  0  0  0  0  0  0  0  0  0  0  0
    4.7389   -3.3922    0.6739 C   0  0  0  0  0  0  0  0  0  0  0  0
    3.3389   -3.5856    0.6010 C   0  0  0  0  0  0  0  0  0  0  0  0
    2.5277   -2.4815    0.4335 C   0  0  0  0  0  0  0  0  0  0  0  0
    3.0996   -1.1860    0.3422 C   0  0  0  0  0  0  0  0  0  0  0  0
    0.4660    0.8310    0.1031 H   0  0  0  0  0  0  0  0  0  0  0  0
    0.5108   -0.6061    0.9263 H   0  0  0  0  0  0  0  0  0  0  0  0
    2.4290    2.1361   -0.0375 H   0  0  0  0  0  0  0  0  0  0  0  0
    4.8773    2.2715   -0.0617 H   0  0  0  0  0  0  0  0  0  0  0  0
    6.9691   -0.7685    0.4296 H   0  0  0  0  0  0  0  0  0  0  0  0
    7.0558    2.0865   -0.4095 H   0  0  0  0  0  0  0  0  0  0  0  0
    8.4231    1.0468   -0.0293 H   0  0  0  0  0  0  0  0  0  0  0  0
    7.9769    1.2830    2.4095 H   0  0  0  0  0  0  0  0  0  0  0  0
    6.4302    2.0775    2.0704 H   0  0  0  0  0  0  0  0  0  0  0  0
    9.2175    2.8842    3.3219 H   0  0  0  0  0  0  0  0  0  0  0  0
   10.4318    5.0242    2.0268 H   0  0  0  0  0  0  0  0  0  0  0  0
    7.8436    5.9974    3.4414 H   0  0  0  0  0  0  0  0  0  0  0  0
    9.1762    7.0593    2.7480 H   0  0  0  0  0  0  0  0  0  0  0  0
    9.4954    4.9054    5.0100 H   0  0  0  0  0  0  0  0  0  0  0  0
   10.8561    5.9419    4.3376 H   0  0  0  0  0  0  0  0  0  0  0  0
    5.4039   -4.2522    0.8224 H   0  0  0  0  0  0  0  0  0  0  0  0
    2.9201   -4.5923    0.6684 H   0  0  0  0  0  0  0  0  0  0  0  0
    1.4450   -2.5970    0.3469 H   0  0  0  0  0  0  0  0  0  0  0  0
  1  2  1  0
  1 21  1  0
  1 22  1  0
  2  3  2  0
  2 20  1  0
  3  4  1  0
  3 23  1  0
  4  5  2  0
  4 24  1  0
  5  6  1  0
  5 15  1  0
  6  7  1  0
  6 25  1  0
  7  8  1  0
  7 26  1  0
  7 27  1  0
  8  9  1  0
  8 28  1  0
  8 29  1  0
  9 10  2  0
  9 11  1  0
 11 12  1  0
 11 30  1  0
 12 13  1  0
 12 14  1  0
 12 31  1  6
 13 14  1  0
 13 32  1  0
 13 33  1  0
 14 34  1  0
 14 35  1  0
 15 16  1  0
 15 20  2  0
 16 17  2  0
 17 18  1  0
 17 36  1  0
 18 19  2  0
 18 37  1  0
 19 20  1  0
 19 38  1  0
M  END

