
     RDKit          3D

 31 31  0  0  0  0  0  0  0  0999 V2000
    1.2658    0.1333   -0.6042 C   0  0  0  0  0  0  0  0  0  0  0  0
    2.4206   -0.0845    0.1717 O   0  0  0  0  0  0  0  0  0  0  0  0
    3.0865    0.9830    0.6942 C   0  0  0  0  0  0  0  0  0  0  0  0
    2.7030    2.3170    0.5127 C   0  0  0  0  0  0  0  0  0  0  0  0
    3.4532    3.3458    1.0952 C   0  0  0  0  0  0  0  0  0  0  0  0
    4.5893    3.0712    1.8623 C   0  0  0  0  0  0  0  0  0  0  0  0
    5.4205    4.1841    2.4604 C   0  0  0  0  0  0  0  0  0  0  0  0
    6.5804    4.6329    1.5543 C   0  0  0  0  0  0  0  0  0  0  0  0
    7.2993    5.8569    2.1082 C   0  0  0  0  0  0  0  0  0  0  0  0
    6.7167    6.7927    2.6321 O   0  0  0  0  0  0  0  0  0  0  0  0
    8.6590    5.8481    1.9633 N   0  0  0  0  0  0  0  0  0  0  0  0
    9.4618    6.9186    2.3610 N   0  0  0  0  0  0  0  0  0  0  0  0
    4.9512    1.7223    2.0313 C   0  0  0  0  0  0  0  0  0  0  0  0
    4.2287    0.6690    1.4675 C   0  0  0  0  0  0  0  0  0  0  0  0
    4.6220   -0.7714    1.6627 C   0  0  0  0  0  0  0  0  0  0  0  0
    0.9029   -0.8567   -0.9128 H   0  0  0  0  0  0  0  0  0  0  0  0
    1.4825    0.7316   -1.5080 H   0  0  0  0  0  0  0  0  0  0  0  0
    0.4711    0.6410   -0.0277 H   0  0  0  0  0  0  0  0  0  0  0  0
    1.8196    2.5689   -0.0745 H   0  0  0  0  0  0  0  0  0  0  0  0
    3.1354    4.3824    0.9494 H   0  0  0  0  0  0  0  0  0  0  0  0
    5.8307    3.8647    3.4334 H   0  0  0  0  0  0  0  0  0  0  0  0
    4.7962    5.0674    2.6620 H   0  0  0  0  0  0  0  0  0  0  0  0
    6.1773    4.9138    0.5651 H   0  0  0  0  0  0  0  0  0  0  0  0
    7.2855    3.8031    1.3787 H   0  0  0  0  0  0  0  0  0  0  0  0
    9.1370    5.0766    1.5132 H   0  0  0  0  0  0  0  0  0  0  0  0
    9.3111    7.0746    3.3611 H   0  0  0  0  0  0  0  0  0  0  0  0
    9.1114    7.7671    1.9084 H   0  0  0  0  0  0  0  0  0  0  0  0
    5.8315    1.4801    2.6362 H   0  0  0  0  0  0  0  0  0  0  0  0
    5.5259   -0.8560    2.2833 H   0  0  0  0  0  0  0  0  0  0  0  0
    4.8138   -1.2675    0.6968 H   0  0  0  0  0  0  0  0  0  0  0  0
    3.8129   -1.3442    2.1454 H   0  0  0  0  0  0  0  0  0  0  0  0
  1  2  1  0
  1 16  1  0
  1 17  1  0
  1 18  1  0
  2  3  1  0
  3  4  2  0
  3 14  1  0
  4  5  1  0
  4 19  1  0
  5  6  2  0
  5 20  1  0
  6  7  1  0
  6 13  1  0
  7  8  1  0
  7 21  1  0
  7 22  1  0
  8  9  1  0
  8 23  1  0
  8 24  1  0
  9 10  2  0
  9 11  1  0
 11 12  1  0
 11 25  1  0
 12 26  1  0
 12 27  1  0
 13 14  2  0
 13 28  1  0
 14 15  1  0
 15 29  1  0
 15 30  1  0
 15 31  1  0
M  END

