
     RDKit          3D

 26 26  0  0  0  0  0  0  0  0999 V2000
    5.7091   -1.2381    0.7789 C   0  0  0  0  0  0  0  0  0  0  0  0
    4.5842   -0.6223    0.0904 N   0  0  0  0  0  0  0  0  0  0  0  0
    4.6544    0.6650   -0.2277 N   0  0  0  0  0  0  0  0  0  0  0  0
    3.5042    0.9613   -0.8412 C   0  0  0  0  0  0  0  0  0  0  0  0
    2.6618   -0.1583   -0.9179 C   0  0  0  0  0  0  0  0  0  0  0  0
    3.3859   -1.1877   -0.3012 C   0  0  0  0  0  0  0  0  0  0  0  0
    3.0826   -2.6046   -0.0531 C   0  0  0  0  0  0  0  0  0  0  0  0
    3.9010   -3.3638    0.4440 O   0  0  0  0  0  0  0  0  0  0  0  0
    1.6769   -3.1763   -0.3146 C   0  0  0  0  0  0  0  0  0  0  0  0
    0.8316   -2.5370   -1.2267 O   0  0  0  0  0  0  0  0  0  0  0  0
    1.1122   -2.7657   -2.5971 C   0  0  0  0  0  0  0  0  0  0  0  0
   -0.0298   -2.1762   -3.4101 C   0  0  0  0  0  0  0  0  0  0  0  0
   -0.2058   -0.7634   -3.0940 N   0  0  0  0  0  0  0  0  0  0  0  0
    6.4466   -0.4423    0.9368 H   0  0  0  0  0  0  0  0  0  0  0  0
    6.1398   -2.0490    0.1766 H   0  0  0  0  0  0  0  0  0  0  0  0
    5.3928   -1.6654    1.7398 H   0  0  0  0  0  0  0  0  0  0  0  0
    3.3283    1.9725   -1.2064 H   0  0  0  0  0  0  0  0  0  0  0  0
    1.6857   -0.2274   -1.3877 H   0  0  0  0  0  0  0  0  0  0  0  0
    1.1662   -3.1499    0.6647 H   0  0  0  0  0  0  0  0  0  0  0  0
    1.8311   -4.2432   -0.5663 H   0  0  0  0  0  0  0  0  0  0  0  0
    1.2002   -3.8527   -2.7954 H   0  0  0  0  0  0  0  0  0  0  0  0
    2.0670   -2.2851   -2.8837 H   0  0  0  0  0  0  0  0  0  0  0  0
   -0.9367   -2.7951   -3.2390 H   0  0  0  0  0  0  0  0  0  0  0  0
    0.2286   -2.2786   -4.4776 H   0  0  0  0  0  0  0  0  0  0  0  0
   -0.5836   -0.6771   -2.1501 H   0  0  0  0  0  0  0  0  0  0  0  0
   -0.8852   -0.3342   -3.7209 H   0  0  0  0  0  0  0  0  0  0  0  0
  1  2  1  0
  1 14  1  0
  1 15  1  0
  1 16  1  0
  2  3  1  0
  2  6  1  0
  3  4  2  0
  4  5  1  0
  4 17  1  0
  5  6  2  0
  5 18  1  0
  6  7  1  0
  7  8  2  0
  7  9  1  0
  9 10  1  0
  9 19  1  0
  9 20  1  0
 10 11  1  0
 11 12  1  0
 11 21  1  0
 11 22  1  0
 12 13  1  0
 12 23  1  0
 12 24  1  0
 13 25  1  0
 13 26  1  0
M  END

