
     RDKit          3D

 51 50  0  0  0  0  0  0  0  0999 V2000
   13.2362   -9.7789   -6.3212 C   0  0  0  0  0  0  0  0  0  0  0  0
   11.8224   -9.5551   -6.8686 C   0  0  1  0  0  0  0  0  0  0  0  0
   11.3024  -10.5326   -6.8857 H   0  0  0  0  0  0  0  0  0  0  0  0
   11.1069   -8.5353   -6.1068 N   0  0  0  0  0  0  0  0  0  0  0  0
   11.9121   -9.1536   -8.3484 C   0  0  0  0  0  0  0  0  0  0  0  0
   12.2361   -9.9808   -9.2110 O   0  0  0  0  0  0  0  0  0  0  0  0
   11.6449   -7.8594   -8.5968 N   0  0  0  0  0  0  0  0  0  0  0  0
   11.3842   -7.2555   -9.9026 C   0  0  2  0  0  0  0  0  0  0  0  0
   11.2224   -6.1844   -9.7189 H   0  0  0  0  0  0  0  0  0  0  0  0
   10.1046   -7.8523  -10.5306 C   0  0  0  0  0  0  0  0  0  0  0  0
    9.6079   -7.1064  -11.7824 C   0  0  0  0  0  0  0  0  0  0  0  0
    8.2666   -7.6572  -12.2263 C   0  0  0  0  0  0  0  0  0  0  0  0
    8.1614   -8.4812  -13.1386 O   0  0  0  0  0  0  0  0  0  0  0  0
    7.1847   -7.2243  -11.5241 N   0  0  0  0  0  0  0  0  0  0  0  0
    5.8680   -7.8644  -11.5187 C   0  0  2  0  0  0  0  0  0  0  0  0
    5.2565   -7.3026  -10.8015 H   0  0  0  0  0  0  0  0  0  0  0  0
    5.9114   -9.3494  -11.0910 C   0  0  0  0  0  0  0  0  0  0  0  0
    6.7143   -9.6842   -9.4838 S   0  0  0  0  0  0  0  0  0  0  0  0
    5.4340   -9.0277   -8.3472 C   0  0  0  0  0  0  0  0  0  0  0  0
    5.7124   -9.3996   -6.8801 C   0  0  2  0  0  0  0  0  0  0  0  0
    5.8574  -10.4922   -6.8222 H   0  0  0  0  0  0  0  0  0  0  0  0
    4.6174   -8.9071   -6.0339 N   0  0  0  0  0  0  0  0  0  0  0  0
    7.0247   -8.7476   -6.3857 C   0  0  0  0  0  0  0  0  0  0  0  0
    8.1184   -9.1786   -6.6646 O   0  0  0  0  0  0  0  0  0  0  0  0
    6.8257   -7.6588   -5.6544 O   0  0  0  0  0  0  0  0  0  0  0  0
    5.0735   -7.7426  -12.8476 C   0  0  0  0  0  0  0  0  0  0  0  0
    3.9236   -7.3815  -12.8311 O   0  0  0  0  0  0  0  0  0  0  0  0
    5.7003   -8.1208  -13.9513 O   0  0  0  0  0  0  0  0  0  0  0  0
   12.5587   -7.2902  -10.9112 C   0  0  0  0  0  0  0  0  0  0  0  0
   12.8118   -6.3086  -11.5676 O   0  0  0  0  0  0  0  0  0  0  0  0
   13.1875   -8.4439  -11.0684 O   0  0  0  0  0  0  0  0  0  0  0  0
   13.1935  -10.1908   -5.3001 H   0  0  0  0  0  0  0  0  0  0  0  0
   13.7936   -8.8287   -6.2909 H   0  0  0  0  0  0  0  0  0  0  0  0
   13.7842  -10.4876   -6.9576 H   0  0  0  0  0  0  0  0  0  0  0  0
   11.3632   -8.5661   -5.1218 H   0  0  0  0  0  0  0  0  0  0  0  0
   10.0943   -8.6764   -6.1689 H   0  0  0  0  0  0  0  0  0  0  0  0
   11.3748   -7.3559   -7.7463 H   0  0  0  0  0  0  0  0  0  0  0  0
    9.3239   -7.8446   -9.7529 H   0  0  0  0  0  0  0  0  0  0  0  0
   10.2789   -8.9115  -10.7763 H   0  0  0  0  0  0  0  0  0  0  0  0
   10.3087   -7.2203  -12.6199 H   0  0  0  0  0  0  0  0  0  0  0  0
    9.5182   -6.0271  -11.5705 H   0  0  0  0  0  0  0  0  0  0  0  0
    7.3555   -6.5544  -10.7843 H   0  0  0  0  0  0  0  0  0  0  0  0
    6.4995   -9.9321  -11.8144 H   0  0  0  0  0  0  0  0  0  0  0  0
    4.8864   -9.7528  -11.0938 H   0  0  0  0  0  0  0  0  0  0  0  0
    4.4632   -9.4653   -8.6348 H   0  0  0  0  0  0  0  0  0  0  0  0
    5.3499   -7.9310   -8.4334 H   0  0  0  0  0  0  0  0  0  0  0  0
    4.4718   -9.5099   -5.2238 H   0  0  0  0  0  0  0  0  0  0  0  0
    3.7313   -8.8578   -6.5351 H   0  0  0  0  0  0  0  0  0  0  0  0
    5.8397   -7.6129   -5.5438 H   0  0  0  0  0  0  0  0  0  0  0  0
    6.6485   -8.3719  -13.7617 H   0  0  0  0  0  0  0  0  0  0  0  0
   12.8374   -9.1478  -10.4431 H   0  0  0  0  0  0  0  0  0  0  0  0
  1  2  1  0
  1 32  1  0
  1 33  1  0
  1 34  1  0
  2  3  1  6
  2  4  1  0
  2  5  1  0
  4 35  1  0
  4 36  1  0
  5  6  2  0
  5  7  1  0
  7  8  1  0
  7 37  1  0
  8  9  1  1
  8 10  1  0
  8 29  1  0
 10 11  1  0
 10 38  1  0
 10 39  1  0
 11 12  1  0
 11 40  1  0
 11 41  1  0
 12 13  2  0
 12 14  1  0
 14 15  1  0
 14 42  1  0
 15 16  1  1
 15 17  1  0
 15 26  1  0
 17 18  1  0
 17 43  1  0
 17 44  1  0
 18 19  1  0
 19 20  1  0
 19 45  1  0
 19 46  1  0
 20 21  1  6
 20 22  1  0
 20 23  1  0
 22 47  1  0
 22 48  1  0
 23 24  2  0
 23 25  1  0
 25 49  1  0
 26 27  2  0
 26 28  1  0
 28 50  1  0
 29 30  2  0
 29 31  1  0
 31 51  1  0
M  END

