
     RDKit          3D

 46 48  0  0  0  0  0  0  0  0999 V2000
    0.7540    0.3848    0.3637 C   0  0  0  0  0  0  0  0  0  0  0  0
    2.2167    0.3234    0.0029 C   0  0  0  0  0  0  0  0  0  0  0  0
    2.9114    1.5037   -0.1198 C   0  0  0  0  0  0  0  0  0  0  0  0
    4.2871    1.5306   -0.4608 C   0  0  0  0  0  0  0  0  0  0  0  0
    4.9399    0.3533   -0.6767 C   0  0  0  0  0  0  0  0  0  0  0  0
    4.2593   -0.8999   -0.5618 C   0  0  0  0  0  0  0  0  0  0  0  0
    4.9481   -2.0020   -0.7886 N   0  0  0  0  0  0  0  0  0  0  0  0
    4.3340   -3.1999   -0.6827 C   0  0  0  0  0  0  0  0  0  0  0  0
    5.2329   -4.3952   -0.9500 C   0  0  0  0  0  0  0  0  0  0  0  0
    4.5602   -5.6789   -1.0251 N   0  0  0  0  0  0  0  0  0  0  0  0
    4.1452   -6.0310   -2.3731 C   0  0  0  0  0  0  0  0  0  0  0  0
    5.2813   -6.4705   -3.3418 C   0  0  0  0  0  0  0  0  0  0  0  0
    4.7370   -6.9550   -4.6502 C   0  0  0  0  0  0  0  0  0  0  0  0
    4.1248   -8.0949   -4.8089 N   0  0  0  0  0  0  0  0  0  0  0  0
    3.6788   -8.2572   -6.0941 C   0  0  0  0  0  0  0  0  0  0  0  0
    3.9421   -7.2230   -6.9535 C   0  0  0  0  0  0  0  0  0  0  0  0
    4.7970   -5.9768   -6.1108 S   0  0  0  0  0  0  0  0  0  0  0  0
    5.0952   -6.7455   -0.1578 C   0  0  1  0  0  0  0  0  0  0  0  0
    4.9819   -6.3510    1.3221 C   0  0  0  0  0  0  0  0  0  0  0  0
    4.3715   -8.0804   -0.3703 C   0  0  0  0  0  0  0  0  0  0  0  0
    3.0088   -3.3221   -0.3462 C   0  0  0  0  0  0  0  0  0  0  0  0
    2.1847   -2.1817   -0.0813 C   0  0  0  0  0  0  0  0  0  0  0  0
    1.0090   -2.2148    0.2300 O   0  0  0  0  0  0  0  0  0  0  0  0
    2.8896   -0.8896   -0.2141 N   0  0  0  0  0  0  0  0  0  0  0  0
    0.4755    1.4434    0.4648 H   0  0  0  0  0  0  0  0  0  0  0  0
    0.5352   -0.1391    1.3027 H   0  0  0  0  0  0  0  0  0  0  0  0
    0.1186   -0.0855   -0.3975 H   0  0  0  0  0  0  0  0  0  0  0  0
    2.3728    2.4359    0.0523 H   0  0  0  0  0  0  0  0  0  0  0  0
    4.8098    2.4859   -0.5492 H   0  0  0  0  0  0  0  0  0  0  0  0
    5.9943    0.2911   -0.9446 H   0  0  0  0  0  0  0  0  0  0  0  0
    5.9976   -4.3981   -0.1570 H   0  0  0  0  0  0  0  0  0  0  0  0
    5.8031   -4.1547   -1.8691 H   0  0  0  0  0  0  0  0  0  0  0  0
    3.6298   -5.1595   -2.8098 H   0  0  0  0  0  0  0  0  0  0  0  0
    3.3975   -6.8349   -2.3411 H   0  0  0  0  0  0  0  0  0  0  0  0
    5.8476   -7.2998   -2.8892 H   0  0  0  0  0  0  0  0  0  0  0  0
    5.9887   -5.6436   -3.5071 H   0  0  0  0  0  0  0  0  0  0  0  0
    3.1527   -9.1730   -6.3716 H   0  0  0  0  0  0  0  0  0  0  0  0
    3.6910   -7.1347   -8.0089 H   0  0  0  0  0  0  0  0  0  0  0  0
    6.1756   -6.9155   -0.3769 H   0  0  0  0  0  0  0  0  0  0  0  0
    3.9238   -6.2349    1.6065 H   0  0  0  0  0  0  0  0  0  0  0  0
    5.4973   -5.4078    1.5545 H   0  0  0  0  0  0  0  0  0  0  0  0
    5.4299   -7.1315    1.9572 H   0  0  0  0  0  0  0  0  0  0  0  0
    3.2907   -7.9703   -0.1836 H   0  0  0  0  0  0  0  0  0  0  0  0
    4.7625   -8.8232    0.3414 H   0  0  0  0  0  0  0  0  0  0  0  0
    4.5038   -8.4937   -1.3803 H   0  0  0  0  0  0  0  0  0  0  0  0
    2.5365   -4.2995   -0.2627 H   0  0  0  0  0  0  0  0  0  0  0  0
  1  2  1  0
  1 25  1  0
  1 26  1  0
  1 27  1  0
  2  3  2  0
  2 24  1  0
  3  4  1  0
  3 28  1  0
  4  5  2  0
  4 29  1  0
  5  6  1  0
  5 30  1  0
  6  7  2  0
  6 24  1  0
  7  8  1  0
  8  9  1  0
  8 21  2  0
  9 10  1  0
  9 31  1  0
  9 32  1  0
 10 11  1  0
 10 18  1  0
 11 12  1  0
 11 33  1  0
 11 34  1  0
 12 13  1  0
 12 35  1  0
 12 36  1  0
 13 14  2  0
 13 17  1  0
 14 15  1  0
 15 16  2  0
 15 37  1  0
 16 17  1  0
 16 38  1  0
 18 19  1  0
 18 20  1  0
 18 39  1  6
 19 40  1  0
 19 41  1  0
 19 42  1  0
 20 43  1  0
 20 44  1  0
 20 45  1  0
 21 22  1  0
 21 46  1  0
 22 23  2  0
 22 24  1  0
M  END

