
     RDKit          3D

 50 55  0  0  0  0  0  0  0  0999 V2000
    2.0111    1.4467    1.4877 C   0  0  0  0  0  0  0  0  0  0  0  0
    3.4119    0.9937    1.1816 C   0  0  0  0  0  0  0  0  0  0  0  0
    4.0082    0.0958    1.6989 O   0  0  0  0  0  0  0  0  0  0  0  0
    3.9462    1.7746    0.1699 O   0  0  0  0  0  0  0  0  0  0  0  0
    5.2718    1.6392   -0.1499 C   0  0  0  0  0  0  0  0  0  0  0  0
    6.1990    1.8270    0.8114 N   0  0  0  0  0  0  0  0  0  0  0  0
    7.4185    1.7050    0.3515 C   0  0  0  0  0  0  0  0  0  0  0  0
    8.6615    1.8442    1.1211 C   0  0  0  0  0  0  0  0  0  0  0  0
    9.8039    2.3361    0.4580 C   0  0  0  0  0  0  0  0  0  0  0  0
   11.0151    2.5064    1.1111 C   0  0  0  0  0  0  0  0  0  0  0  0
   11.1456    2.1874    2.4747 C   0  0  0  0  0  0  0  0  0  0  0  0
   12.3858    2.3667    3.1776 C   0  0  0  0  0  0  0  0  0  0  0  0
   12.5030    2.0492    4.4991 C   0  0  0  0  0  0  0  0  0  0  0  0
   11.3894    1.5183    5.2367 C   0  0  0  0  0  0  0  0  0  0  0  0
   11.4915    1.1780    6.5982 C   0  0  0  0  0  0  0  0  0  0  0  0
   10.3961    0.6582    7.2897 C   0  0  0  0  0  0  0  0  0  0  0  0
    9.1774    0.4662    6.6385 C   0  0  0  0  0  0  0  0  0  0  0  0
    9.0281    0.7941    5.2778 C   0  0  0  0  0  0  0  0  0  0  0  0
    7.7947    0.6010    4.5708 C   0  0  0  0  0  0  0  0  0  0  0  0
    7.6586    0.9315    3.2532 C   0  0  0  0  0  0  0  0  0  0  0  0
    8.7536    1.4910    2.5026 C   0  0  0  0  0  0  0  0  0  0  0  0
   10.0094    1.6713    3.1759 C   0  0  0  0  0  0  0  0  0  0  0  0
   10.1415    1.3298    4.5604 C   0  0  0  0  0  0  0  0  0  0  0  0
    7.4673    1.3433   -1.3744 S   0  0  0  0  0  0  0  0  0  0  0  0
    5.7188    1.3682   -1.4350 C   0  0  0  0  0  0  0  0  0  0  0  0
    4.9763    1.1251   -2.6727 C   0  0  0  0  0  0  0  0  0  0  0  0
    5.5909    0.4687   -3.7638 C   0  0  0  0  0  0  0  0  0  0  0  0
    4.9019    0.2348   -4.9486 C   0  0  0  0  0  0  0  0  0  0  0  0
    3.5758    0.6577   -5.0536 C   0  0  0  0  0  0  0  0  0  0  0  0
    2.8377    0.4114   -6.3049 N   0  0  0  0  0  0  0  0  0  0  0  0
    3.4324   -0.1535   -7.2099 O   0  0  0  0  0  0  0  0  0  0  0  0
    1.6769    0.7874   -6.3597 O   0  0  0  0  0  0  0  0  0  0  0  0
    2.9353    1.3116   -3.9996 C   0  0  0  0  0  0  0  0  0  0  0  0
    3.6338    1.5448   -2.8194 C   0  0  0  0  0  0  0  0  0  0  0  0
    1.5795    0.8014    2.2615 H   0  0  0  0  0  0  0  0  0  0  0  0
    1.3934    1.4112    0.5773 H   0  0  0  0  0  0  0  0  0  0  0  0
    2.0276    2.4923    1.8320 H   0  0  0  0  0  0  0  0  0  0  0  0
    9.7256    2.6212   -0.5939 H   0  0  0  0  0  0  0  0  0  0  0  0
   11.8759    2.9053    0.5688 H   0  0  0  0  0  0  0  0  0  0  0  0
   13.2407    2.7660    2.6256 H   0  0  0  0  0  0  0  0  0  0  0  0
   13.4535    2.1915    5.0204 H   0  0  0  0  0  0  0  0  0  0  0  0
   12.4454    1.3250    7.1117 H   0  0  0  0  0  0  0  0  0  0  0  0
   10.4946    0.3987    8.3468 H   0  0  0  0  0  0  0  0  0  0  0  0
    8.3222    0.0557    7.1820 H   0  0  0  0  0  0  0  0  0  0  0  0
    6.9457    0.1740    5.1115 H   0  0  0  0  0  0  0  0  0  0  0  0
    6.7038    0.7775    2.7548 H   0  0  0  0  0  0  0  0  0  0  0  0
    6.6234    0.1235   -3.6772 H   0  0  0  0  0  0  0  0  0  0  0  0
    5.3687   -0.2743   -5.7913 H   0  0  0  0  0  0  0  0  0  0  0  0
    1.9024    1.6356   -4.1241 H   0  0  0  0  0  0  0  0  0  0  0  0
    3.1436    2.0693   -2.0009 H   0  0  0  0  0  0  0  0  0  0  0  0
  1  2  1  0
  1 35  1  0
  1 36  1  0
  1 37  1  0
  2  3  2  0
  2  4  1  0
  4  5  1  0
  5  6  2  0
  5 25  1  0
  6  7  1  0
  7  8  1  0
  7 24  2  0
  8  9  2  0
  8 21  1  0
  9 10  1  0
  9 38  1  0
 10 11  2  0
 10 39  1  0
 11 12  1  0
 11 22  1  0
 12 13  2  0
 12 40  1  0
 13 14  1  0
 13 41  1  0
 14 15  2  0
 14 23  1  0
 15 16  1  0
 15 42  1  0
 16 17  2  0
 16 43  1  0
 17 18  1  0
 17 44  1  0
 18 19  2  0
 18 23  1  0
 19 20  1  0
 19 45  1  0
 20 21  2  0
 20 46  1  0
 21 22  1  0
 22 23  2  0
 24 25  1  0
 25 26  2  0
 26 27  1  0
 26 34  1  0
 27 28  2  0
 27 47  1  0
 28 29  1  0
 28 48  1  0
 29 30  2  0
 29 33  1  0
 30 31  1  0
 30 32  1  0
 33 34  2  0
 33 49  1  0
 34 50  1  0
M  CHG  4  24   1  30   1  31  -1  32  -1
M  END

