
     RDKit          3D

 51 53  0  0  0  0  0  0  0  0999 V2000
    4.7764   -0.2555   -5.7763 C   0  0  0  0  0  0  0  0  0  0  0  0
    4.2010    0.5462   -4.8709 C   0  0  0  0  0  0  0  0  0  0  0  0
    4.1523    0.2656   -3.3928 C   0  0  0  0  0  0  0  0  0  0  0  0
    4.6033    1.4048   -2.5725 N   0  0  0  0  0  0  0  0  0  0  0  0
    5.9488    1.7613   -2.5876 C   0  0  0  0  0  0  0  0  0  0  0  0
    6.7283    1.0960   -3.4487 O   0  0  0  0  0  0  0  0  0  0  0  0
    6.4989    2.7097   -1.7517 C   0  0  0  0  0  0  0  0  0  0  0  0
    7.9281    3.0298   -1.8650 C   0  0  0  0  0  0  0  0  0  0  0  0
    8.5382    3.8405   -1.0991 N   0  0  0  0  0  0  0  0  0  0  0  0
    9.9481    4.0893   -1.3199 C   0  0  1  0  0  0  0  0  0  0  0  0
   10.1567    5.5881   -1.6342 C   0  0  0  0  0  0  0  0  0  0  0  0
    9.8453    6.4712   -0.4121 C   0  0  0  0  0  0  0  0  0  0  0  0
   10.6035    6.0938    0.7827 N   0  0  0  0  0  0  0  0  0  0  0  0
   11.9830    6.5519    0.8091 C   0  0  0  0  0  0  0  0  0  0  0  0
   12.1196    8.0523    1.0208 C   0  0  0  0  0  0  0  0  0  0  0  0
   11.2558    8.7343    1.8920 C   0  0  0  0  0  0  0  0  0  0  0  0
   11.4157   10.1015    2.1286 C   0  0  0  0  0  0  0  0  0  0  0  0
   12.4433   10.8118    1.4979 C   0  0  0  0  0  0  0  0  0  0  0  0
   13.3060   10.1437    0.6249 C   0  0  0  0  0  0  0  0  0  0  0  0
   13.1405    8.7752    0.3874 C   0  0  0  0  0  0  0  0  0  0  0  0
   10.3965    4.6859    1.1131 C   0  0  0  0  0  0  0  0  0  0  0  0
   10.7344    3.7243   -0.0411 C   0  0  0  0  0  0  0  0  0  0  0  0
    5.6133    3.3882   -0.8012 C   0  0  0  0  0  0  0  0  0  0  0  0
    5.8932    4.2290    0.0218 O   0  0  0  0  0  0  0  0  0  0  0  0
    4.2535    2.9927   -0.9290 N   0  0  0  0  0  0  0  0  0  0  0  0
    3.6132    3.4764   -0.3037 H   0  0  0  0  0  0  0  0  0  0  0  0
    3.6908    2.0572   -1.7379 C   0  0  0  0  0  0  0  0  0  0  0  0
    2.0536    1.7414   -1.7052 S   0  0  0  0  0  0  0  0  0  0  0  0
    4.7464   -0.0231   -6.8440 H   0  0  0  0  0  0  0  0  0  0  0  0
    5.2759   -1.1871   -5.4862 H   0  0  0  0  0  0  0  0  0  0  0  0
    3.6940    1.4639   -5.1923 H   0  0  0  0  0  0  0  0  0  0  0  0
    4.7478   -0.6240   -3.1323 H   0  0  0  0  0  0  0  0  0  0  0  0
    3.1096    0.0912   -3.0836 H   0  0  0  0  0  0  0  0  0  0  0  0
    6.2329    0.8165   -4.2415 H   0  0  0  0  0  0  0  0  0  0  0  0
    8.4558    2.5048   -2.6857 H   0  0  0  0  0  0  0  0  0  0  0  0
   10.3321    3.4830   -2.1705 H   0  0  0  0  0  0  0  0  0  0  0  0
    9.5187    5.8816   -2.4845 H   0  0  0  0  0  0  0  0  0  0  0  0
   11.2025    5.7318   -1.9575 H   0  0  0  0  0  0  0  0  0  0  0  0
    8.7718    6.3821   -0.1791 H   0  0  0  0  0  0  0  0  0  0  0  0
   10.0440    7.5295   -0.6424 H   0  0  0  0  0  0  0  0  0  0  0  0
   12.5740    6.2732   -0.0922 H   0  0  0  0  0  0  0  0  0  0  0  0
   12.4792    6.0400    1.6535 H   0  0  0  0  0  0  0  0  0  0  0  0
   10.4491    8.1736    2.3698 H   0  0  0  0  0  0  0  0  0  0  0  0
   10.7332   10.6178    2.8095 H   0  0  0  0  0  0  0  0  0  0  0  0
   12.5670   11.8823    1.6822 H   0  0  0  0  0  0  0  0  0  0  0  0
   14.1076   10.6903    0.1206 H   0  0  0  0  0  0  0  0  0  0  0  0
   13.8152    8.2596   -0.3033 H   0  0  0  0  0  0  0  0  0  0  0  0
    9.3350    4.5505    1.3777 H   0  0  0  0  0  0  0  0  0  0  0  0
   10.9926    4.4367    2.0063 H   0  0  0  0  0  0  0  0  0  0  0  0
   10.5074    2.6852    0.2509 H   0  0  0  0  0  0  0  0  0  0  0  0
   11.8138    3.7646   -0.2709 H   0  0  0  0  0  0  0  0  0  0  0  0
  1  2  2  0
  1 29  1  0
  1 30  1  0
  2  3  1  0
  2 31  1  0
  3  4  1  0
  3 32  1  0
  3 33  1  0
  4  5  1  0
  4 27  1  0
  5  6  1  0
  5  7  2  0
  6 34  1  0
  7  8  1  0
  7 23  1  0
  8  9  2  0
  8 35  1  0
  9 10  1  0
 10 11  1  0
 10 22  1  0
 10 36  1  6
 11 12  1  0
 11 37  1  0
 11 38  1  0
 12 13  1  0
 12 39  1  0
 12 40  1  0
 13 14  1  0
 13 21  1  0
 14 15  1  0
 14 41  1  0
 14 42  1  0
 15 16  2  0
 15 20  1  0
 16 17  1  0
 16 43  1  0
 17 18  2  0
 17 44  1  0
 18 19  1  0
 18 45  1  0
 19 20  2  0
 19 46  1  0
 20 47  1  0
 21 22  1  0
 21 48  1  0
 21 49  1  0
 22 50  1  0
 22 51  1  0
 23 24  2  0
 23 25  1  0
 25 26  1  0
 25 27  1  0
 27 28  2  0
M  END

