
     RDKit          3D

 42 43  0  0  0  0  0  0  0  0999 V2000
    0.6428   -2.4076   -3.5164 N   0  0  0  0  0  0  0  0  0  0  0  0
    1.7586   -2.7215   -3.5407 C   0  0  0  0  0  0  0  0  0  0  0  0
    3.1790   -3.1089   -3.5667 C   0  0  1  0  0  0  0  0  0  0  0  0
    3.9598   -2.3068   -4.6368 C   0  0  0  0  0  0  0  0  0  0  0  0
    4.1141   -0.8295   -4.2546 C   0  0  0  0  0  0  0  0  0  0  0  0
    4.7454   -0.6236   -2.8636 C   0  0  2  0  0  0  0  0  0  0  0  0
    6.2634   -0.8916   -2.8520 C   0  0  0  0  0  0  0  0  0  0  0  0
    6.9559   -0.0079   -3.7577 N   0  0  0  0  0  0  0  0  0  0  0  0
    8.1990   -0.1999   -4.0123 C   0  0  0  0  0  0  0  0  0  0  0  0
    9.0244   -1.1402   -3.3977 N   0  0  0  0  0  0  0  0  0  0  0  0
    8.8684    0.5634   -4.9573 N   0  0  0  0  0  0  0  0  0  0  0  0
    8.2263    1.6912   -5.6046 C   0  0  1  0  0  0  0  0  0  0  0  0
    8.1323    2.9973   -4.7934 C   0  0  0  0  0  0  0  0  0  0  0  0
    7.7506    4.0361   -5.8569 C   0  0  0  0  0  0  0  0  0  0  0  0
    8.4848    3.5826   -7.1528 C   0  0  0  0  0  0  0  0  0  0  0  0
    8.9529    2.1281   -6.8911 C   0  0  0  0  0  0  0  0  0  0  0  0
    3.9921   -1.4481   -1.8007 C   0  0  0  0  0  0  0  0  0  0  0  0
    3.8320   -2.9287   -2.1745 C   0  0  0  0  0  0  0  0  0  0  0  0
    3.1963   -4.1796   -3.8345 H   0  0  0  0  0  0  0  0  0  0  0  0
    3.4615   -2.4017   -5.6148 H   0  0  0  0  0  0  0  0  0  0  0  0
    4.9499   -2.7816   -4.7443 H   0  0  0  0  0  0  0  0  0  0  0  0
    3.1190   -0.3518   -4.2710 H   0  0  0  0  0  0  0  0  0  0  0  0
    4.7295   -0.3098   -5.0046 H   0  0  0  0  0  0  0  0  0  0  0  0
    4.6372    0.4442   -2.6084 H   0  0  0  0  0  0  0  0  0  0  0  0
    6.4577   -1.9634   -3.0873 H   0  0  0  0  0  0  0  0  0  0  0  0
    6.6174   -0.7508   -1.8079 H   0  0  0  0  0  0  0  0  0  0  0  0
    8.5526   -1.8376   -2.8351 H   0  0  0  0  0  0  0  0  0  0  0  0
    9.7585   -1.5321   -3.9793 H   0  0  0  0  0  0  0  0  0  0  0  0
    9.8578    0.6916   -4.7644 H   0  0  0  0  0  0  0  0  0  0  0  0
    7.2014    1.3686   -5.8440 H   0  0  0  0  0  0  0  0  0  0  0  0
    9.1251    3.2264   -4.3625 H   0  0  0  0  0  0  0  0  0  0  0  0
    7.4149    2.9195   -3.9640 H   0  0  0  0  0  0  0  0  0  0  0  0
    8.0049    5.0659   -5.5625 H   0  0  0  0  0  0  0  0  0  0  0  0
    6.6598    4.0136   -6.0157 H   0  0  0  0  0  0  0  0  0  0  0  0
    9.3430    4.2353   -7.3768 H   0  0  0  0  0  0  0  0  0  0  0  0
    7.8167    3.6413   -8.0259 H   0  0  0  0  0  0  0  0  0  0  0  0
   10.0427    2.1030   -6.7106 H   0  0  0  0  0  0  0  0  0  0  0  0
    8.7569    1.4461   -7.7325 H   0  0  0  0  0  0  0  0  0  0  0  0
    2.9884   -1.0117   -1.6584 H   0  0  0  0  0  0  0  0  0  0  0  0
    4.5014   -1.3686   -0.8248 H   0  0  0  0  0  0  0  0  0  0  0  0
    3.2399   -3.4566   -1.4098 H   0  0  0  0  0  0  0  0  0  0  0  0
    4.8153   -3.4274   -2.2080 H   0  0  0  0  0  0  0  0  0  0  0  0
  1  2  3  0
  2  3  1  0
  3  4  1  0
  3 18  1  0
  3 19  1  6
  4  5  1  0
  4 20  1  0
  4 21  1  0
  5  6  1  0
  5 22  1  0
  5 23  1  0
  6  7  1  0
  6 17  1  0
  6 24  1  1
  7  8  1  0
  7 25  1  0
  7 26  1  0
  8  9  2  0
  9 10  1  0
  9 11  1  0
 10 27  1  0
 10 28  1  0
 11 12  1  0
 11 29  1  0
 12 13  1  0
 12 16  1  0
 12 30  1  6
 13 14  1  0
 13 31  1  0
 13 32  1  0
 14 15  1  0
 14 33  1  0
 14 34  1  0
 15 16  1  0
 15 35  1  0
 15 36  1  0
 16 37  1  0
 16 38  1  0
 17 18  1  0
 17 39  1  0
 17 40  1  0
 18 41  1  0
 18 42  1  0
M  END

