
     RDKit          3D

 49 49  0  0  0  0  0  0  0  0999 V2000
    2.3893    1.1129    2.0787 C   0  0  0  0  0  0  0  0  0  0  0  0
    2.9313    0.3350    0.8798 C   0  0  0  0  0  0  0  0  0  0  0  0
    3.1561    1.1879   -0.2946 N   0  0  0  0  0  0  0  0  0  0  0  0
    2.2003    1.0757   -1.3971 C   0  0  0  0  0  0  0  0  0  0  0  0
    2.4073   -0.1666   -2.2682 C   0  0  0  0  0  0  0  0  0  0  0  0
    4.3685    1.8341   -0.3639 C   0  0  0  0  0  0  0  0  0  0  0  0
    5.2453    1.6535    0.4708 O   0  0  0  0  0  0  0  0  0  0  0  0
    4.6167    2.8175   -1.4854 C   0  0  0  0  0  0  0  0  0  0  0  0
    3.7715    3.9103   -1.7361 C   0  0  0  0  0  0  0  0  0  0  0  0
    4.0987    4.8579   -2.7065 C   0  0  0  0  0  0  0  0  0  0  0  0
    5.2831    4.7256   -3.4369 C   0  0  0  0  0  0  0  0  0  0  0  0
    5.6250    5.6847   -4.4598 N   0  0  0  0  0  0  0  0  0  0  0  0
    5.5479    5.2257   -5.8499 C   0  0  0  0  0  0  0  0  0  0  0  0
    4.2138    4.5324   -6.1791 C   0  0  1  0  0  0  0  0  0  0  0  0
    3.0658    5.2649   -5.8465 O   0  0  0  0  0  0  0  0  0  0  0  0
    2.8711    6.5041   -6.5098 C   0  0  0  0  0  0  0  0  0  0  0  0
    4.2983    4.2254   -7.5416 O   0  0  0  0  0  0  0  0  0  0  0  0
    3.3428    3.2894   -7.9983 C   0  0  0  0  0  0  0  0  0  0  0  0
    6.1160    6.8890   -4.0143 C   0  0  0  0  0  0  0  0  0  0  0  0
    6.1479    7.2129   -2.8497 O   0  0  0  0  0  0  0  0  0  0  0  0
    6.6968    7.8568   -5.1042 C   0  0  1  0  0  0  0  0  0  0  0  0
    7.6354    7.2217   -5.8369 F   0  0  0  0  0  0  0  0  0  0  0  0
    5.7265    8.2517   -5.9644 F   0  0  0  0  0  0  0  0  0  0  0  0
    7.4176    9.2948   -4.3705 Cl  0  0  0  0  0  0  0  0  0  0  0  0
    6.1453    3.6536   -3.1784 C   0  0  0  0  0  0  0  0  0  0  0  0
    5.8173    2.7125   -2.2022 C   0  0  0  0  0  0  0  0  0  0  0  0
    2.2134    0.4352    2.9298 H   0  0  0  0  0  0  0  0  0  0  0  0
    1.4366    1.6128    1.8389 H   0  0  0  0  0  0  0  0  0  0  0  0
    3.1139    1.8771    2.3972 H   0  0  0  0  0  0  0  0  0  0  0  0
    2.2290   -0.4620    0.5909 H   0  0  0  0  0  0  0  0  0  0  0  0
    3.8850   -0.1415    1.1491 H   0  0  0  0  0  0  0  0  0  0  0  0
    2.2626    1.9717   -2.0252 H   0  0  0  0  0  0  0  0  0  0  0  0
    1.1846    1.0718   -0.9662 H   0  0  0  0  0  0  0  0  0  0  0  0
    3.3944   -0.1411   -2.7564 H   0  0  0  0  0  0  0  0  0  0  0  0
    1.6372   -0.2153   -3.0551 H   0  0  0  0  0  0  0  0  0  0  0  0
    2.3445   -1.0958   -1.6799 H   0  0  0  0  0  0  0  0  0  0  0  0
    2.8539    4.0340   -1.1558 H   0  0  0  0  0  0  0  0  0  0  0  0
    3.4387    5.7025   -2.9046 H   0  0  0  0  0  0  0  0  0  0  0  0
    6.3520    4.5039   -6.0706 H   0  0  0  0  0  0  0  0  0  0  0  0
    5.6779    6.0639   -6.5392 H   0  0  0  0  0  0  0  0  0  0  0  0
    4.1106    3.6072   -5.5832 H   0  0  0  0  0  0  0  0  0  0  0  0
    1.8399    6.8176   -6.2942 H   0  0  0  0  0  0  0  0  0  0  0  0
    2.9931    6.4046   -7.6014 H   0  0  0  0  0  0  0  0  0  0  0  0
    3.5584    7.2854   -6.1468 H   0  0  0  0  0  0  0  0  0  0  0  0
    3.5034    3.1569   -9.0773 H   0  0  0  0  0  0  0  0  0  0  0  0
    2.3106    3.6402   -7.8261 H   0  0  0  0  0  0  0  0  0  0  0  0
    3.4663    2.3105   -7.4960 H   0  0  0  0  0  0  0  0  0  0  0  0
    7.0841    3.5677   -3.7307 H   0  0  0  0  0  0  0  0  0  0  0  0
    6.5042    1.8953   -1.9729 H   0  0  0  0  0  0  0  0  0  0  0  0
  1  2  1  0
  1 27  1  0
  1 28  1  0
  1 29  1  0
  2  3  1  0
  2 30  1  0
  2 31  1  0
  3  4  1  0
  3  6  1  0
  4  5  1  0
  4 32  1  0
  4 33  1  0
  5 34  1  0
  5 35  1  0
  5 36  1  0
  6  7  2  0
  6  8  1  0
  8  9  2  0
  8 26  1  0
  9 10  1  0
  9 37  1  0
 10 11  2  0
 10 38  1  0
 11 12  1  0
 11 25  1  0
 12 13  1  0
 12 19  1  0
 13 14  1  0
 13 39  1  0
 13 40  1  0
 14 15  1  0
 14 17  1  0
 14 41  1  1
 15 16  1  0
 16 42  1  0
 16 43  1  0
 16 44  1  0
 17 18  1  0
 18 45  1  0
 18 46  1  0
 18 47  1  0
 19 20  2  0
 19 21  1  0
 21 22  1  6
 21 23  1  0
 21 24  1  0
 25 26  2  0
 25 48  1  0
 26 49  1  0
M  END

