
     RDKit          3D

 34 35  0  0  0  0  0  0  0  0999 V2000
    1.4250   -0.1044    0.7344 C   0  0  0  0  0  0  0  0  0  0  0  0
    2.6357    0.0370   -0.0504 N   0  0  0  0  0  0  0  0  0  0  0  0
    3.3382   -1.1454   -0.5067 C   0  0  0  0  0  0  0  0  0  0  0  0
    3.1382    1.2906   -0.3272 C   0  0  0  0  0  0  0  0  0  0  0  0
    2.4813    2.4684    0.1188 C   0  0  0  0  0  0  0  0  0  0  0  0
    2.9932    3.7260   -0.1681 C   0  0  0  0  0  0  0  0  0  0  0  0
    4.1686    3.8935   -0.9201 C   0  0  0  0  0  0  0  0  0  0  0  0
    4.6397    5.2944   -1.1666 C   0  0  0  0  0  0  0  0  0  0  0  0
    4.2166    6.2366   -0.5130 O   0  0  0  0  0  0  0  0  0  0  0  0
    5.5626    5.4343   -2.1862 N   0  0  0  0  0  0  0  0  0  0  0  0
    6.2237    6.5904   -2.6352 C   0  0  0  0  0  0  0  0  0  0  0  0
    6.0589    7.8588   -2.0471 C   0  0  0  0  0  0  0  0  0  0  0  0
    6.7659    8.9509   -2.5566 C   0  0  0  0  0  0  0  0  0  0  0  0
    7.6350    8.8137   -3.6424 C   0  0  0  0  0  0  0  0  0  0  0  0
    7.7966    7.5536   -4.2269 C   0  0  0  0  0  0  0  0  0  0  0  0
    7.1003    6.4533   -3.7295 C   0  0  0  0  0  0  0  0  0  0  0  0
    4.8319    2.7309   -1.3470 C   0  0  0  0  0  0  0  0  0  0  0  0
    4.3393    1.4610   -1.0638 C   0  0  0  0  0  0  0  0  0  0  0  0
    1.1845   -1.1695    0.8437 H   0  0  0  0  0  0  0  0  0  0  0  0
    0.5592    0.3875    0.2547 H   0  0  0  0  0  0  0  0  0  0  0  0
    1.5307    0.3231    1.7487 H   0  0  0  0  0  0  0  0  0  0  0  0
    2.7757   -2.0403   -0.2118 H   0  0  0  0  0  0  0  0  0  0  0  0
    4.3521   -1.2265   -0.0719 H   0  0  0  0  0  0  0  0  0  0  0  0
    3.4456   -1.1649   -1.6067 H   0  0  0  0  0  0  0  0  0  0  0  0
    1.5617    2.4001    0.6986 H   0  0  0  0  0  0  0  0  0  0  0  0
    2.4842    4.6227    0.1909 H   0  0  0  0  0  0  0  0  0  0  0  0
    5.7503    4.6028   -2.7315 H   0  0  0  0  0  0  0  0  0  0  0  0
    5.3774    7.9679   -1.2072 H   0  0  0  0  0  0  0  0  0  0  0  0
    6.6282    9.9302   -2.0902 H   0  0  0  0  0  0  0  0  0  0  0  0
    8.1798    9.6776   -4.0302 H   0  0  0  0  0  0  0  0  0  0  0  0
    8.4708    7.4225   -5.0774 H   0  0  0  0  0  0  0  0  0  0  0  0
    7.2354    5.4704   -4.1921 H   0  0  0  0  0  0  0  0  0  0  0  0
    5.7802    2.7938   -1.8887 H   0  0  0  0  0  0  0  0  0  0  0  0
    4.9033    0.5957   -1.4090 H   0  0  0  0  0  0  0  0  0  0  0  0
  1  2  1  0
  1 19  1  0
  1 20  1  0
  1 21  1  0
  2  3  1  0
  2  4  1  0
  3 22  1  0
  3 23  1  0
  3 24  1  0
  4  5  2  0
  4 18  1  0
  5  6  1  0
  5 25  1  0
  6  7  2  0
  6 26  1  0
  7  8  1  0
  7 17  1  0
  8  9  2  0
  8 10  1  0
 10 11  1  0
 10 27  1  0
 11 12  2  0
 11 16  1  0
 12 13  1  0
 12 28  1  0
 13 14  2  0
 13 29  1  0
 14 15  1  0
 14 30  1  0
 15 16  2  0
 15 31  1  0
 16 32  1  0
 17 18  2  0
 17 33  1  0
 18 34  1  0
M  END

