
     RDKit          3D

 30 30  0  0  0  0  0  0  0  0999 V2000
    0.9159    0.0004    0.0999 N   0  0  0  0  0  0  0  0  0  0  0  0
    2.2919    0.2346    0.0746 N   0  0  0  0  0  0  0  0  0  0  0  0
    2.9909    0.3775   -1.0915 C   0  0  0  0  0  0  0  0  0  0  0  0
    2.4382    0.3413   -2.1787 O   0  0  0  0  0  0  0  0  0  0  0  0
    4.4954    0.5610   -0.9277 C   0  0  0  0  0  0  0  0  0  0  0  0
    5.0680    1.5738   -1.9225 C   0  0  0  0  0  0  0  0  0  0  0  0
    6.5960    1.6474   -1.9037 C   0  0  0  0  0  0  0  0  0  0  0  0
    7.1638    2.6651   -2.9099 C   0  0  0  0  0  0  0  0  0  0  0  0
    8.6745    2.7359   -2.9071 C   0  0  0  0  0  0  0  0  0  0  0  0
    9.4403    1.8978   -3.7330 C   0  0  0  0  0  0  0  0  0  0  0  0
   10.8370    1.9274   -3.7101 C   0  0  0  0  0  0  0  0  0  0  0  0
   11.4866    2.8111   -2.8450 C   0  0  0  0  0  0  0  0  0  0  0  0
   13.3948    2.8653   -2.8059 Br  0  0  0  0  0  0  0  0  0  0  0  0
   10.7533    3.6595   -2.0121 C   0  0  0  0  0  0  0  0  0  0  0  0
    9.3573    3.6139   -2.0505 C   0  0  0  0  0  0  0  0  0  0  0  0
    0.7210   -0.8276   -0.4693 H   0  0  0  0  0  0  0  0  0  0  0  0
    0.4526    0.7700   -0.3902 H   0  0  0  0  0  0  0  0  0  0  0  0
    2.7555    0.2558    0.9751 H   0  0  0  0  0  0  0  0  0  0  0  0
    4.9573   -0.4278   -1.1044 H   0  0  0  0  0  0  0  0  0  0  0  0
    4.7461    0.8397    0.1104 H   0  0  0  0  0  0  0  0  0  0  0  0
    4.6451    2.5724   -1.7106 H   0  0  0  0  0  0  0  0  0  0  0  0
    4.7097    1.3021   -2.9289 H   0  0  0  0  0  0  0  0  0  0  0  0
    7.0183    0.6500   -2.1221 H   0  0  0  0  0  0  0  0  0  0  0  0
    6.9505    1.9070   -0.8897 H   0  0  0  0  0  0  0  0  0  0  0  0
    6.7484    3.6624   -2.6850 H   0  0  0  0  0  0  0  0  0  0  0  0
    6.8084    2.4031   -3.9210 H   0  0  0  0  0  0  0  0  0  0  0  0
    8.9366    1.2077   -4.4163 H   0  0  0  0  0  0  0  0  0  0  0  0
   11.4162    1.2717   -4.3626 H   0  0  0  0  0  0  0  0  0  0  0  0
   11.2674    4.3518   -1.3431 H   0  0  0  0  0  0  0  0  0  0  0  0
    8.7880    4.2847   -1.4001 H   0  0  0  0  0  0  0  0  0  0  0  0
  1  2  1  0
  1 16  1  0
  1 17  1  0
  2  3  1  0
  2 18  1  0
  3  4  2  0
  3  5  1  0
  5  6  1  0
  5 19  1  0
  5 20  1  0
  6  7  1  0
  6 21  1  0
  6 22  1  0
  7  8  1  0
  7 23  1  0
  7 24  1  0
  8  9  1  0
  8 25  1  0
  8 26  1  0
  9 10  2  0
  9 15  1  0
 10 11  1  0
 10 27  1  0
 11 12  2  0
 11 28  1  0
 12 13  1  0
 12 14  1  0
 14 15  2  0
 14 29  1  0
 15 30  1  0
M  END

