
     RDKit          3D

 46 48  0  0  0  0  0  0  0  0999 V2000
    5.6509    0.5580   -2.8140 C   0  0  0  0  0  0  0  0  0  0  0  0
    5.6026    0.2489   -1.3224 C   0  0  0  0  0  0  0  0  0  0  0  0
    6.3320    0.8296   -0.5315 O   0  0  0  0  0  0  0  0  0  0  0  0
    4.6697   -0.6823   -0.9662 N   0  0  0  0  0  0  0  0  0  0  0  0
    4.3558   -1.1786    0.3736 C   0  0  2  0  0  0  0  0  0  0  0  0
    3.3143   -1.5257    0.3041 H   0  0  0  0  0  0  0  0  0  0  0  0
    4.4998   -0.1505    1.5223 C   0  0  0  0  0  0  0  0  0  0  0  0
    5.8577   -0.4323    2.2208 C   0  0  0  0  0  0  0  0  0  0  0  0
    6.4687   -1.6478    1.4903 C   0  0  0  0  0  0  0  0  0  0  0  0
    5.2670   -2.3534    0.8373 C   0  0  2  0  0  0  0  0  0  0  0  0
    4.7076   -2.8976    1.6210 H   0  0  0  0  0  0  0  0  0  0  0  0
    5.6631   -3.3569   -0.2463 C   0  0  0  0  0  0  0  0  0  0  0  0
    4.5288   -4.0635   -0.8435 N   0  0  0  0  0  0  0  0  0  0  0  0
    4.0605   -5.3056   -0.5719 C   0  0  0  0  0  0  0  0  0  0  0  0
    2.9532   -5.4428   -1.3929 C   0  0  0  0  0  0  0  0  0  0  0  0
    2.0403   -6.6159   -1.5955 C   0  0  0  0  0  0  0  0  0  0  0  0
    2.6548   -7.6945   -2.3545 N   0  0  0  0  0  0  0  0  0  0  0  0
    3.4273   -8.6127   -1.7264 N   0  0  0  0  0  0  0  0  0  0  0  0
    3.8871   -9.3509   -2.7268 C   0  0  0  0  0  0  0  0  0  0  0  0
    4.7860  -10.5259   -2.5194 C   0  0  0  0  0  0  0  0  0  0  0  0
    3.4589   -8.9443   -3.9580 N   0  0  0  0  0  0  0  0  0  0  0  0
    2.6940   -7.8969   -3.6997 C   0  0  0  0  0  0  0  0  0  0  0  0
    1.9735   -7.0522   -4.6988 C   0  0  0  0  0  0  0  0  0  0  0  0
    2.8169   -4.2929   -2.1070 N   0  0  0  0  0  0  0  0  0  0  0  0
    3.7614   -3.4665   -1.7722 N   0  0  0  0  0  0  0  0  0  0  0  0
    6.7033    0.6453   -3.1188 H   0  0  0  0  0  0  0  0  0  0  0  0
    5.1795    1.5390   -2.9862 H   0  0  0  0  0  0  0  0  0  0  0  0
    5.1439   -0.1901   -3.4411 H   0  0  0  0  0  0  0  0  0  0  0  0
    4.2043   -1.1983   -1.7081 H   0  0  0  0  0  0  0  0  0  0  0  0
    3.6664   -0.3063    2.2256 H   0  0  0  0  0  0  0  0  0  0  0  0
    4.4239    0.8784    1.1506 H   0  0  0  0  0  0  0  0  0  0  0  0
    5.7016   -0.6602    3.2877 H   0  0  0  0  0  0  0  0  0  0  0  0
    6.5266    0.4357    2.1588 H   0  0  0  0  0  0  0  0  0  0  0  0
    7.0343   -2.3155    2.1604 H   0  0  0  0  0  0  0  0  0  0  0  0
    7.1577   -1.2973    0.7061 H   0  0  0  0  0  0  0  0  0  0  0  0
    6.3369   -4.1215    0.1663 H   0  0  0  0  0  0  0  0  0  0  0  0
    6.1945   -2.8483   -1.0631 H   0  0  0  0  0  0  0  0  0  0  0  0
    4.5353   -5.9809    0.1346 H   0  0  0  0  0  0  0  0  0  0  0  0
    1.1457   -6.2702   -2.1307 H   0  0  0  0  0  0  0  0  0  0  0  0
    1.7251   -7.0456   -0.6345 H   0  0  0  0  0  0  0  0  0  0  0  0
    5.0253  -10.6397   -1.4536 H   0  0  0  0  0  0  0  0  0  0  0  0
    5.7212  -10.4047   -3.0888 H   0  0  0  0  0  0  0  0  0  0  0  0
    4.3071  -11.4513   -2.8780 H   0  0  0  0  0  0  0  0  0  0  0  0
    2.2733   -7.3698   -5.7053 H   0  0  0  0  0  0  0  0  0  0  0  0
    2.2081   -5.9836   -4.5716 H   0  0  0  0  0  0  0  0  0  0  0  0
    0.8796   -7.1664   -4.6130 H   0  0  0  0  0  0  0  0  0  0  0  0
  1  2  1  0
  1 26  1  0
  1 27  1  0
  1 28  1  0
  2  3  2  0
  2  4  1  0
  4  5  1  0
  4 29  1  0
  5  6  1  6
  5  7  1  0
  5 10  1  0
  7  8  1  0
  7 30  1  0
  7 31  1  0
  8  9  1  0
  8 32  1  0
  8 33  1  0
  9 10  1  0
  9 34  1  0
  9 35  1  0
 10 11  1  1
 10 12  1  0
 12 13  1  0
 12 36  1  0
 12 37  1  0
 13 14  1  0
 13 25  1  0
 14 15  2  0
 14 38  1  0
 15 16  1  0
 15 24  1  0
 16 17  1  0
 16 39  1  0
 16 40  1  0
 17 18  1  0
 17 22  1  0
 18 19  2  0
 19 20  1  0
 19 21  1  0
 20 41  1  0
 20 42  1  0
 20 43  1  0
 21 22  2  0
 22 23  1  0
 23 44  1  0
 23 45  1  0
 23 46  1  0
 24 25  2  0
M  END

