
     RDKit          3D

 90 93  0  0  0  0  0  0  0  0999 V2000
    3.5317    4.8128   -4.1157 C   0  0  0  0  0  0  0  0  0  0  0  0
    4.6894    4.0236   -3.5025 C   0  0  0  0  0  0  0  0  0  0  0  0
    5.0622    2.7658   -4.2935 C   0  0  0  0  0  0  0  0  0  0  0  0
    6.2206    1.9695   -3.6858 C   0  0  0  0  0  0  0  0  0  0  0  0
    6.5931    0.7119   -4.4767 C   0  0  0  0  0  0  0  0  0  0  0  0
    7.7509   -0.0844   -3.8675 C   0  0  0  0  0  0  0  0  0  0  0  0
    8.1231   -1.3422   -4.6582 C   0  0  0  0  0  0  0  0  0  0  0  0
    9.2797   -2.1389   -4.0470 C   0  0  0  0  0  0  0  0  0  0  0  0
    9.6491   -3.3962   -4.8390 C   0  0  0  0  0  0  0  0  0  0  0  0
   10.8083   -4.1910   -4.2096 C   0  0  0  0  0  0  0  0  0  0  0  0
   11.1910   -5.4201   -4.9987 C   0  0  0  0  0  0  0  0  0  0  0  0
   11.8502   -5.3301   -6.2607 C   0  0  0  0  0  0  0  0  0  0  0  0
   12.0623   -6.5399   -6.8940 C   0  0  0  0  0  0  0  0  0  0  0  0
   12.6938   -6.8008   -8.1723 C   0  0  0  0  0  0  0  0  0  0  0  0
   12.9778   -8.0140   -8.7694 C   0  0  0  0  0  0  0  0  0  0  0  0
   13.6192   -7.9208  -10.0408 C   0  0  0  0  0  0  0  0  0  0  0  0
   14.0708   -9.1356  -10.8149 C   0  0  0  0  0  0  0  0  0  0  0  0
   15.0781  -10.0193  -10.0580 C   0  0  0  0  0  0  0  0  0  0  0  0
   15.5237  -11.2449  -10.8607 C   0  0  0  0  0  0  0  0  0  0  0  0
   16.5324  -12.1324  -10.1254 C   0  0  0  0  0  0  0  0  0  0  0  0
   16.9777  -13.3591  -10.9270 C   0  0  0  0  0  0  0  0  0  0  0  0
   17.9886  -14.2466  -10.1947 C   0  0  0  0  0  0  0  0  0  0  0  0
   18.4325  -15.4735  -10.9969 C   0  0  0  0  0  0  0  0  0  0  0  0
   19.4445  -16.3612  -10.2667 C   0  0  0  0  0  0  0  0  0  0  0  0
   19.8880  -17.5886  -11.0691 C   0  0  0  0  0  0  0  0  0  0  0  0
   20.8986  -18.4696  -10.3332 C   0  0  0  0  0  0  0  0  0  0  0  0
   13.8172   -6.5996  -10.4231 C   0  0  0  0  0  0  0  0  0  0  0  0
   14.4177   -6.0565  -11.6366 C   0  0  0  0  0  0  0  0  0  0  0  0
   14.2212   -6.4279  -12.9541 C   0  0  0  0  0  0  0  0  0  0  0  0
   14.9818   -5.6566  -13.8804 C   0  0  0  0  0  0  0  0  0  0  0  0
   15.7467   -4.6948  -13.2692 C   0  0  0  0  0  0  0  0  0  0  0  0
   15.5626   -4.7301  -11.5512 S   0  0  0  0  0  0  0  0  0  0  0  0
   13.2080   -5.4913   -9.2076 S   0  0  0  0  0  0  0  0  0  0  0  0
   11.4472   -7.8421   -5.9068 S   0  0  0  0  0  0  0  0  0  0  0  0
   10.8954   -6.7355   -4.6621 C   0  0  0  0  0  0  0  0  0  0  0  0
   10.2252   -7.3103   -3.4995 C   0  0  0  0  0  0  0  0  0  0  0  0
    9.3056   -8.3436   -3.4791 C   0  0  0  0  0  0  0  0  0  0  0  0
    8.8893   -8.7111   -2.1672 C   0  0  0  0  0  0  0  0  0  0  0  0
    9.4947   -7.9621   -1.1896 C   0  0  0  0  0  0  0  0  0  0  0  0
   10.5947   -6.8094   -1.8595 S   0  0  0  0  0  0  0  0  0  0  0  0
    3.2913    5.7089   -3.5215 H   0  0  0  0  0  0  0  0  0  0  0  0
    2.6167    4.1996   -4.1775 H   0  0  0  0  0  0  0  0  0  0  0  0
    3.7718    5.1471   -5.1391 H   0  0  0  0  0  0  0  0  0  0  0  0
    4.4326    3.7371   -2.4662 H   0  0  0  0  0  0  0  0  0  0  0  0
    5.5778    4.6763   -3.4198 H   0  0  0  0  0  0  0  0  0  0  0  0
    5.3199    3.0514   -5.3307 H   0  0  0  0  0  0  0  0  0  0  0  0
    4.1738    2.1118   -4.3769 H   0  0  0  0  0  0  0  0  0  0  0  0
    5.9624    1.6845   -2.6487 H   0  0  0  0  0  0  0  0  0  0  0  0
    7.1085    2.6238   -3.6024 H   0  0  0  0  0  0  0  0  0  0  0  0
    6.8522    0.9966   -5.5136 H   0  0  0  0  0  0  0  0  0  0  0  0
    5.7053    0.0576   -4.5607 H   0  0  0  0  0  0  0  0  0  0  0  0
    7.4917   -0.3692   -2.8306 H   0  0  0  0  0  0  0  0  0  0  0  0
    8.6389    0.5697   -3.7834 H   0  0  0  0  0  0  0  0  0  0  0  0
    8.3837   -1.0579   -5.6947 H   0  0  0  0  0  0  0  0  0  0  0  0
    7.2354   -1.9961   -4.7428 H   0  0  0  0  0  0  0  0  0  0  0  0
    9.0192   -2.4243   -3.0108 H   0  0  0  0  0  0  0  0  0  0  0  0
   10.1686   -1.4861   -3.9620 H   0  0  0  0  0  0  0  0  0  0  0  0
    9.9137   -3.1154   -5.8741 H   0  0  0  0  0  0  0  0  0  0  0  0
    8.7673   -4.0558   -4.9225 H   0  0  0  0  0  0  0  0  0  0  0  0
   10.5333   -4.4668   -3.1813 H   0  0  0  0  0  0  0  0  0  0  0  0
   11.6910   -3.5323   -4.1238 H   0  0  0  0  0  0  0  0  0  0  0  0
   12.1631   -4.3783   -6.6955 H   0  0  0  0  0  0  0  0  0  0  0  0
   12.7404   -8.9677   -8.2937 H   0  0  0  0  0  0  0  0  0  0  0  0
   14.5199   -8.8205  -11.7680 H   0  0  0  0  0  0  0  0  0  0  0  0
   13.1874   -9.7461  -11.0793 H   0  0  0  0  0  0  0  0  0  0  0  0
   14.6396  -10.3510   -9.1000 H   0  0  0  0  0  0  0  0  0  0  0  0
   15.9593   -9.4098   -9.7903 H   0  0  0  0  0  0  0  0  0  0  0  0
   15.9617  -10.9128  -11.8204 H   0  0  0  0  0  0  0  0  0  0  0  0
   14.6360  -11.8471  -11.1307 H   0  0  0  0  0  0  0  0  0  0  0  0
   16.0953  -12.4632   -9.1648 H   0  0  0  0  0  0  0  0  0  0  0  0
   17.4199  -11.5298   -9.8569 H   0  0  0  0  0  0  0  0  0  0  0  0
   17.4129  -13.0277  -11.8884 H   0  0  0  0  0  0  0  0  0  0  0  0
   16.0897  -13.9620  -11.1943 H   0  0  0  0  0  0  0  0  0  0  0  0
   17.5540  -14.5773   -9.2329 H   0  0  0  0  0  0  0  0  0  0  0  0
   18.8769  -13.6439   -9.9284 H   0  0  0  0  0  0  0  0  0  0  0  0
   18.8660  -15.1423  -11.9591 H   0  0  0  0  0  0  0  0  0  0  0  0
   17.5439  -16.0762  -11.2625 H   0  0  0  0  0  0  0  0  0  0  0  0
   19.0117  -16.6927   -9.3041 H   0  0  0  0  0  0  0  0  0  0  0  0
   20.3338  -15.7591  -10.0015 H   0  0  0  0  0  0  0  0  0  0  0  0
   20.3197  -17.2561  -12.0308 H   0  0  0  0  0  0  0  0  0  0  0  0
   18.9985  -18.1894  -11.3335 H   0  0  0  0  0  0  0  0  0  0  0  0
   21.8162  -17.9084  -10.0881 H   0  0  0  0  0  0  0  0  0  0  0  0
   21.1944  -19.3412  -10.9390 H   0  0  0  0  0  0  0  0  0  0  0  0
   20.4836  -18.8496   -9.3845 H   0  0  0  0  0  0  0  0  0  0  0  0
   13.5207   -7.2107  -13.2466 H   0  0  0  0  0  0  0  0  0  0  0  0
   14.9498   -5.8010  -14.9616 H   0  0  0  0  0  0  0  0  0  0  0  0
   16.4081   -3.9644  -13.7335 H   0  0  0  0  0  0  0  0  0  0  0  0
    8.9305   -8.8094   -4.3916 H   0  0  0  0  0  0  0  0  0  0  0  0
    8.1593   -9.4947   -1.9581 H   0  0  0  0  0  0  0  0  0  0  0  0
    9.3518   -8.0174   -0.1112 H   0  0  0  0  0  0  0  0  0  0  0  0
  1  2  1  0
  1 41  1  0
  1 42  1  0
  1 43  1  0
  2  3  1  0
  2 44  1  0
  2 45  1  0
  3  4  1  0
  3 46  1  0
  3 47  1  0
  4  5  1  0
  4 48  1  0
  4 49  1  0
  5  6  1  0
  5 50  1  0
  5 51  1  0
  6  7  1  0
  6 52  1  0
  6 53  1  0
  7  8  1  0
  7 54  1  0
  7 55  1  0
  8  9  1  0
  8 56  1  0
  8 57  1  0
  9 10  1  0
  9 58  1  0
  9 59  1  0
 10 11  1  0
 10 60  1  0
 10 61  1  0
 11 12  1  0
 11 35  2  0
 12 13  2  0
 12 62  1  0
 13 14  1  0
 13 34  1  0
 14 15  2  0
 14 33  1  0
 15 16  1  0
 15 63  1  0
 16 17  1  0
 16 27  2  0
 17 18  1  0
 17 64  1  0
 17 65  1  0
 18 19  1  0
 18 66  1  0
 18 67  1  0
 19 20  1  0
 19 68  1  0
 19 69  1  0
 20 21  1  0
 20 70  1  0
 20 71  1  0
 21 22  1  0
 21 72  1  0
 21 73  1  0
 22 23  1  0
 22 74  1  0
 22 75  1  0
 23 24  1  0
 23 76  1  0
 23 77  1  0
 24 25  1  0
 24 78  1  0
 24 79  1  0
 25 26  1  0
 25 80  1  0
 25 81  1  0
 26 82  1  0
 26 83  1  0
 26 84  1  0
 27 28  1  0
 27 33  1  0
 28 29  2  0
 28 32  1  0
 29 30  1  0
 29 85  1  0
 30 31  2  0
 30 86  1  0
 31 32  1  0
 31 87  1  0
 34 35  1  0
 35 36  1  0
 36 37  2  0
 36 40  1  0
 37 38  1  0
 37 88  1  0
 38 39  2  0
 38 89  1  0
 39 40  1  0
 39 90  1  0
M  END

