
     RDKit          3D

 21 21  0  0  0  0  0  0  0  0999 V2000
    1.1971    0.3660    0.6536 C   0  0  0  0  0  0  0  0  0  0  0  0
    2.6686    0.3135    0.3216 C   0  0  0  0  0  0  0  0  0  0  0  0
    3.3158    1.4157   -0.2599 C   0  0  0  0  0  0  0  0  0  0  0  0
    4.6805    1.3546   -0.5585 C   0  0  0  0  0  0  0  0  0  0  0  0
    5.5371    2.8621   -1.3474 Br  0  0  0  0  0  0  0  0  0  0  0  0
    5.4203    0.2089   -0.2878 C   0  0  0  0  0  0  0  0  0  0  0  0
    4.7889   -0.9137    0.2969 C   0  0  0  0  0  0  0  0  0  0  0  0
    5.6364   -2.0720    0.5470 C   0  0  0  0  0  0  0  0  0  0  0  0
    5.3601   -3.2984    1.0891 C   0  0  0  0  0  0  0  0  0  0  0  0
    4.0742   -3.7279    1.5600 C   0  0  0  0  0  0  0  0  0  0  0  0
    3.0422   -4.0958    1.9457 N   0  0  0  0  0  0  0  0  0  0  0  0
    6.4174   -4.2652    1.2153 C   0  0  0  0  0  0  0  0  0  0  0  0
    7.2736   -5.0430    1.3150 N   0  0  0  0  0  0  0  0  0  0  0  0
    3.4121   -0.8415    0.5941 C   0  0  0  0  0  0  0  0  0  0  0  0
    0.7454    1.3203    0.3479 H   0  0  0  0  0  0  0  0  0  0  0  0
    1.0326    0.2435    1.7366 H   0  0  0  0  0  0  0  0  0  0  0  0
    0.6492   -0.4475    0.1513 H   0  0  0  0  0  0  0  0  0  0  0  0
    2.7542    2.3255   -0.4808 H   0  0  0  0  0  0  0  0  0  0  0  0
    6.4847    0.1758   -0.5265 H   0  0  0  0  0  0  0  0  0  0  0  0
    6.6805   -1.9402    0.2491 H   0  0  0  0  0  0  0  0  0  0  0  0
    2.9029   -1.6926    1.0450 H   0  0  0  0  0  0  0  0  0  0  0  0
  1  2  1  0
  1 15  1  0
  1 16  1  0
  1 17  1  0
  2  3  2  0
  2 14  1  0
  3  4  1  0
  3 18  1  0
  4  5  1  0
  4  6  2  0
  6  7  1  0
  6 19  1  0
  7  8  1  0
  7 14  2  0
  8  9  2  0
  8 20  1  0
  9 10  1  0
  9 12  1  0
 10 11  3  0
 12 13  3  0
 14 21  1  0
M  END

