
     RDKit          3D

 47 48  0  0  0  0  0  0  0  0999 V2000
    1.0175   -1.1732   -0.0486 C   0  0  0  0  0  0  0  0  0  0  0  0
    2.5214   -0.9199   -0.0194 C   0  0  0  0  0  0  0  0  0  0  0  0
    3.3813   -2.4723   -0.3949 S   0  0  1  0  0  0  0  0  0  0  0  0
    3.1578   -3.4139    0.7136 O   0  0  0  0  0  0  0  0  0  0  0  0
    3.0680   -2.8714   -1.7729 O   0  0  0  0  0  0  0  0  0  0  0  0
    5.1611   -2.0266   -0.3659 C   0  0  0  0  0  0  0  0  0  0  0  0
    5.4941   -0.7446   -0.2946 N   0  0  0  0  0  0  0  0  0  0  0  0
    6.7987   -0.4827   -0.3102 C   0  0  0  0  0  0  0  0  0  0  0  0
    7.7707   -1.4943   -0.4051 C   0  0  0  0  0  0  0  0  0  0  0  0
    9.4277   -1.0211   -0.4151 Cl  0  0  0  0  0  0  0  0  0  0  0  0
    7.2997   -2.8232   -0.4808 C   0  0  0  0  0  0  0  0  0  0  0  0
    8.1966   -4.0389   -0.5992 C   0  0  0  0  0  0  0  0  0  0  0  0
    9.4098   -3.9700   -0.6844 O   0  0  0  0  0  0  0  0  0  0  0  0
    7.4981   -5.2140   -0.6046 N   0  0  0  0  0  0  0  0  0  0  0  0
    8.0578   -6.4686   -0.7193 C   0  0  0  0  0  0  0  0  0  0  0  0
    9.7709   -6.6884   -0.8500 S   0  0  0  0  0  0  0  0  0  0  0  0
    9.5826   -8.4385   -0.9211 C   0  0  0  0  0  0  0  0  0  0  0  0
   10.8035   -9.2444   -1.0264 C   0  0  0  0  0  0  0  0  0  0  0  0
   11.9510   -8.6698   -1.8197 C   0  0  0  0  0  0  0  0  0  0  0  0
   10.9005  -10.4537   -0.4059 C   0  0  0  0  0  0  0  0  0  0  0  0
   12.0419  -11.3032   -0.4978 C   0  0  0  0  0  0  0  0  0  0  0  0
   12.9614  -12.0140   -0.5532 N   0  0  0  0  0  0  0  0  0  0  0  0
    8.2485   -8.8193   -0.8790 C   0  0  0  0  0  0  0  0  0  0  0  0
    7.7609  -10.2341   -1.0348 C   0  0  0  0  0  0  0  0  0  0  0  0
    7.3648   -7.6850   -0.7432 C   0  0  0  0  0  0  0  0  0  0  0  0
    5.8936   -7.8276   -0.6209 C   0  0  0  0  0  0  0  0  0  0  0  0
    5.2914   -8.8761   -0.5988 O   0  0  0  0  0  0  0  0  0  0  0  0
    5.2565   -6.6338   -0.5187 O   0  0  0  0  0  0  0  0  0  0  0  0
    3.8273   -6.6671   -0.3742 C   0  0  0  0  0  0  0  0  0  0  0  0
    5.9810   -3.0541   -0.4539 N   0  0  0  0  0  0  0  0  0  0  0  0
    0.4830   -0.2389    0.1790 H   0  0  0  0  0  0  0  0  0  0  0  0
    0.7325   -1.9289    0.6979 H   0  0  0  0  0  0  0  0  0  0  0  0
    0.7000   -1.5240   -1.0413 H   0  0  0  0  0  0  0  0  0  0  0  0
    2.8835   -0.5984    0.9675 H   0  0  0  0  0  0  0  0  0  0  0  0
    2.8517   -0.1940   -0.7746 H   0  0  0  0  0  0  0  0  0  0  0  0
    7.1139    0.5638   -0.2482 H   0  0  0  0  0  0  0  0  0  0  0  0
    6.4759   -5.1889   -0.5376 H   0  0  0  0  0  0  0  0  0  0  0  0
   11.6362   -8.4450   -2.8517 H   0  0  0  0  0  0  0  0  0  0  0  0
   12.8090   -9.3538   -1.8491 H   0  0  0  0  0  0  0  0  0  0  0  0
   12.2921   -7.7178   -1.3773 H   0  0  0  0  0  0  0  0  0  0  0  0
   10.0908  -10.8211    0.2273 H   0  0  0  0  0  0  0  0  0  0  0  0
    8.5468  -10.8796   -1.4469 H   0  0  0  0  0  0  0  0  0  0  0  0
    6.8807  -10.2706   -1.6884 H   0  0  0  0  0  0  0  0  0  0  0  0
    7.4343  -10.6577   -0.0705 H   0  0  0  0  0  0  0  0  0  0  0  0
    3.5176   -5.6305   -0.2043 H   0  0  0  0  0  0  0  0  0  0  0  0
    3.5469   -7.3019    0.4781 H   0  0  0  0  0  0  0  0  0  0  0  0
    3.3644   -7.0736   -1.2854 H   0  0  0  0  0  0  0  0  0  0  0  0
  1  2  1  0
  1 31  1  0
  1 32  1  0
  1 33  1  0
  3  2  1  1
  2 34  1  0
  2 35  1  0
  3  4  2  0
  3  5  2  0
  3  6  1  0
  6  7  2  0
  6 30  1  0
  7  8  1  0
  8  9  2  0
  8 36  1  0
  9 10  1  0
  9 11  1  0
 11 12  1  0
 11 30  2  0
 12 13  2  0
 12 14  1  0
 14 15  1  0
 14 37  1  0
 15 16  2  0
 15 25  1  0
 16 17  1  0
 17 18  1  0
 17 23  2  0
 18 19  1  0
 18 20  2  0
 19 38  1  0
 19 39  1  0
 19 40  1  0
 20 21  1  0
 20 41  1  0
 21 22  3  0
 23 24  1  0
 23 25  1  0
 24 42  1  0
 24 43  1  0
 24 44  1  0
 25 26  2  0
 26 27  1  0
 26 28  1  0
 28 29  1  0
 29 45  1  0
 29 46  1  0
 29 47  1  0
M  CHG  2  16   1  27  -1
M  END

