
     RDKit          3D

 29 30  0  0  0  0  0  0  0  0999 V2000
    4.7029   -1.9636   -0.8809 C   0  0  0  0  0  0  0  0  0  0  0  0
    4.0873   -0.7514   -0.2308 C   0  0  0  0  0  0  0  0  0  0  0  0
    4.6858    0.5107   -0.3563 C   0  0  0  0  0  0  0  0  0  0  0  0
    4.1198    1.6378    0.2445 C   0  0  0  0  0  0  0  0  0  0  0  0
    4.9670    3.3325    0.0374 Br  0  0  0  0  0  0  0  0  0  0  0  0
    2.9460    1.5419    0.9939 C   0  0  0  0  0  0  0  0  0  0  0  0
    2.3453    0.2906    1.1339 C   0  0  0  0  0  0  0  0  0  0  0  0
    2.9002   -0.8397    0.5255 C   0  0  0  0  0  0  0  0  0  0  0  0
    2.2558   -2.1037    0.6917 N   0  0  0  0  0  0  0  0  0  0  0  0
    2.8655   -3.0965    1.3931 N   0  0  0  0  0  0  0  0  0  0  0  0
    2.0766   -4.1179    1.3926 N   0  0  0  0  0  0  0  0  0  0  0  0
    0.9453   -3.8159    0.6977 C   0  0  0  0  0  0  0  0  0  0  0  0
    1.0330   -2.5158    0.2306 C   0  0  0  0  0  0  0  0  0  0  0  0
    0.1190   -1.6747   -0.6050 C   0  0  0  0  0  0  0  0  0  0  0  0
   -1.0715   -2.4470   -1.1799 C   0  0  0  0  0  0  0  0  0  0  0  0
   -1.8690   -1.5731   -2.0310 N   0  0  0  0  0  0  0  0  0  0  0  0
    5.5453   -1.6786   -1.5264 H   0  0  0  0  0  0  0  0  0  0  0  0
    3.9653   -2.5066   -1.4934 H   0  0  0  0  0  0  0  0  0  0  0  0
    5.0624   -2.6737   -0.1206 H   0  0  0  0  0  0  0  0  0  0  0  0
    5.6046    0.6122   -0.9365 H   0  0  0  0  0  0  0  0  0  0  0  0
    2.5140    2.4238    1.4685 H   0  0  0  0  0  0  0  0  0  0  0  0
    1.4403    0.1843    1.7355 H   0  0  0  0  0  0  0  0  0  0  0  0
    0.1441   -4.5399    0.5690 H   0  0  0  0  0  0  0  0  0  0  0  0
    0.6767   -1.2194   -1.4407 H   0  0  0  0  0  0  0  0  0  0  0  0
   -0.2596   -0.8247   -0.0075 H   0  0  0  0  0  0  0  0  0  0  0  0
   -1.6362   -2.9150   -0.3446 H   0  0  0  0  0  0  0  0  0  0  0  0
   -0.6917   -3.2785   -1.7973 H   0  0  0  0  0  0  0  0  0  0  0  0
   -2.3611   -0.8778   -1.4679 H   0  0  0  0  0  0  0  0  0  0  0  0
   -2.5901   -2.1063   -2.5157 H   0  0  0  0  0  0  0  0  0  0  0  0
  1  2  1  0
  1 17  1  0
  1 18  1  0
  1 19  1  0
  2  3  2  0
  2  8  1  0
  3  4  1  0
  3 20  1  0
  4  5  1  0
  4  6  2  0
  6  7  1  0
  6 21  1  0
  7  8  2  0
  7 22  1  0
  8  9  1  0
  9 10  1  0
  9 13  1  0
 10 11  2  0
 11 12  1  0
 12 13  2  0
 12 23  1  0
 13 14  1  0
 14 15  1  0
 14 24  1  0
 14 25  1  0
 15 16  1  0
 15 26  1  0
 15 27  1  0
 16 28  1  0
 16 29  1  0
M  END

