
     RDKit          3D

 41 41  0  0  0  0  0  0  0  0999 V2000
    3.6099    1.3574    0.2035 C   0  0  0  0  0  0  0  0  0  0  0  0
    3.0254    0.1025    0.4727 O   0  0  0  0  0  0  0  0  0  0  0  0
    3.5034   -1.0140   -0.1485 C   0  0  0  0  0  0  0  0  0  0  0  0
    4.5758   -0.9646   -1.0473 C   0  0  0  0  0  0  0  0  0  0  0  0
    4.9943   -2.1273   -1.6947 C   0  0  0  0  0  0  0  0  0  0  0  0
    6.3205   -2.0399   -2.8374 Cl  0  0  0  0  0  0  0  0  0  0  0  0
    4.3599   -3.3394   -1.4543 C   0  0  0  0  0  0  0  0  0  0  0  0
    3.3059   -3.4200   -0.5295 C   0  0  0  0  0  0  0  0  0  0  0  0
    2.6022   -4.7449   -0.3165 C   0  0  0  0  0  0  0  0  0  0  0  0
    3.2463   -5.7299    0.7041 C   0  0  1  0  0  0  0  0  0  0  0  0
    4.6583   -6.1748    0.2579 C   0  0  0  0  0  0  0  0  0  0  0  0
    3.3254   -5.1065    2.1113 C   0  0  0  0  0  0  0  0  0  0  0  0
    2.3582   -6.9969    0.7224 C   0  0  0  0  0  0  0  0  0  0  0  0
    1.5282   -7.2575   -0.1051 O   0  0  0  0  0  0  0  0  0  0  0  0
    2.5900   -7.8665    1.7352 O   0  0  0  0  0  0  0  0  0  0  0  0
    2.8676   -2.2534    0.1408 C   0  0  0  0  0  0  0  0  0  0  0  0
    1.7972   -2.4216    0.9638 O   0  0  0  0  0  0  0  0  0  0  0  0
    1.3562   -1.5288    2.0091 C   0  0  1  0  0  0  0  0  0  0  0  0
    0.0147   -2.0869    2.4650 C   0  0  0  0  0  0  0  0  0  0  0  0
    2.3748   -1.4443    3.1418 C   0  0  0  0  0  0  0  0  0  0  0  0
    3.0556    2.0926    0.8023 H   0  0  0  0  0  0  0  0  0  0  0  0
    3.5259    1.6282   -0.8639 H   0  0  0  0  0  0  0  0  0  0  0  0
    4.6747    1.3875    0.4963 H   0  0  0  0  0  0  0  0  0  0  0  0
    5.0776   -0.0249   -1.2679 H   0  0  0  0  0  0  0  0  0  0  0  0
    4.6738   -4.2297   -1.9996 H   0  0  0  0  0  0  0  0  0  0  0  0
    2.5399   -5.2725   -1.2788 H   0  0  0  0  0  0  0  0  0  0  0  0
    1.5675   -4.5600   -0.0018 H   0  0  0  0  0  0  0  0  0  0  0  0
    5.3475   -5.3175    0.2414 H   0  0  0  0  0  0  0  0  0  0  0  0
    4.6363   -6.6204   -0.7487 H   0  0  0  0  0  0  0  0  0  0  0  0
    5.0776   -6.9267    0.9459 H   0  0  0  0  0  0  0  0  0  0  0  0
    3.8975   -4.1680    2.0747 H   0  0  0  0  0  0  0  0  0  0  0  0
    3.8509   -5.7591    2.8314 H   0  0  0  0  0  0  0  0  0  0  0  0
    2.3277   -4.8799    2.5139 H   0  0  0  0  0  0  0  0  0  0  0  0
    3.2573   -7.5119    2.3391 H   0  0  0  0  0  0  0  0  0  0  0  0
    1.2061   -0.5291    1.5813 H   0  0  0  0  0  0  0  0  0  0  0  0
    0.1314   -3.0957    2.8924 H   0  0  0  0  0  0  0  0  0  0  0  0
   -0.6848   -2.1518    1.6183 H   0  0  0  0  0  0  0  0  0  0  0  0
   -0.4275   -1.4342    3.2336 H   0  0  0  0  0  0  0  0  0  0  0  0
    2.5204   -2.4271    3.6170 H   0  0  0  0  0  0  0  0  0  0  0  0
    2.0197   -0.7411    3.9122 H   0  0  0  0  0  0  0  0  0  0  0  0
    3.3458   -1.0787    2.7789 H   0  0  0  0  0  0  0  0  0  0  0  0
  1  2  1  0
  1 21  1  0
  1 22  1  0
  1 23  1  0
  2  3  1  0
  3  4  2  0
  3 16  1  0
  4  5  1  0
  4 24  1  0
  5  6  1  0
  5  7  2  0
  7  8  1  0
  7 25  1  0
  8  9  1  0
  8 16  2  0
  9 10  1  0
  9 26  1  0
  9 27  1  0
 10 11  1  0
 10 12  1  0
 10 13  1  1
 11 28  1  0
 11 29  1  0
 11 30  1  0
 12 31  1  0
 12 32  1  0
 12 33  1  0
 13 14  2  0
 13 15  1  0
 15 34  1  0
 16 17  1  0
 17 18  1  0
 18 19  1  0
 18 20  1  0
 18 35  1  6
 19 36  1  0
 19 37  1  0
 19 38  1  0
 20 39  1  0
 20 40  1  0
 20 41  1  0
M  END

