
     RDKit          3D

 42 44  0  0  0  0  0  0  0  0999 V2000
    0.7718   -1.4494   -1.1934 C   0  0  0  0  0  0  0  0  0  0  0  0
    2.2025   -1.8770   -1.4718 C   0  0  0  0  0  0  0  0  0  0  0  0
    3.0658   -0.9577   -0.8373 O   0  0  0  0  0  0  0  0  0  0  0  0
    4.4602   -1.1645   -0.9857 C   0  0  1  0  0  0  0  0  0  0  0  0
    4.8755   -1.0701   -2.4654 C   0  0  0  0  0  0  0  0  0  0  0  0
    4.3253   -0.0750   -3.1668 N   0  0  0  0  0  0  0  0  0  0  0  0
    4.6933    0.0606   -4.4439 C   0  0  0  0  0  0  0  0  0  0  0  0
    4.1244    1.0885   -5.1396 N   0  0  0  0  0  0  0  0  0  0  0  0
    5.6538   -0.8012   -5.0444 C   0  0  0  0  0  0  0  0  0  0  0  0
    6.1429   -1.8145   -4.2210 C   0  0  0  0  0  0  0  0  0  0  0  0
    5.7545   -1.9495   -2.9368 N   0  0  0  0  0  0  0  0  0  0  0  0
    7.1556   -2.8175   -4.7282 C   0  0  0  0  0  0  0  0  0  0  0  0
    7.2572   -2.8562   -6.2554 C   0  0  0  0  0  0  0  0  0  0  0  0
    7.3481   -1.4379   -6.8249 C   0  0  0  0  0  0  0  0  0  0  0  0
    6.0920   -0.6263   -6.4817 C   0  0  0  0  0  0  0  0  0  0  0  0
    5.1760   -0.0567   -0.1818 C   0  0  0  0  0  0  0  0  0  0  0  0
    6.5857   -0.6066    0.0720 C   0  0  0  0  0  0  0  0  0  0  0  0
    6.4103   -2.1473    0.1870 C   0  0  0  0  0  0  0  0  0  0  0  0
    4.9724   -2.4533   -0.2977 C   0  0  0  0  0  0  0  0  0  0  0  0
    0.0584   -2.1393   -1.6717 H   0  0  0  0  0  0  0  0  0  0  0  0
    0.5944   -0.4345   -1.5817 H   0  0  0  0  0  0  0  0  0  0  0  0
    0.5742   -1.4379   -0.1100 H   0  0  0  0  0  0  0  0  0  0  0  0
    2.3837   -1.8981   -2.5642 H   0  0  0  0  0  0  0  0  0  0  0  0
    2.3741   -2.9050   -1.0945 H   0  0  0  0  0  0  0  0  0  0  0  0
    3.3744    1.5880   -4.6775 H   0  0  0  0  0  0  0  0  0  0  0  0
    4.1721    1.1242   -6.1470 H   0  0  0  0  0  0  0  0  0  0  0  0
    6.8989   -3.8024   -4.3074 H   0  0  0  0  0  0  0  0  0  0  0  0
    8.1363   -2.5559   -4.2888 H   0  0  0  0  0  0  0  0  0  0  0  0
    6.3685   -3.3620   -6.6751 H   0  0  0  0  0  0  0  0  0  0  0  0
    8.1299   -3.4554   -6.5616 H   0  0  0  0  0  0  0  0  0  0  0  0
    7.4926   -1.4594   -7.9172 H   0  0  0  0  0  0  0  0  0  0  0  0
    8.2357   -0.9349   -6.4010 H   0  0  0  0  0  0  0  0  0  0  0  0
    5.2656   -0.9259   -7.1573 H   0  0  0  0  0  0  0  0  0  0  0  0
    6.2721    0.4447   -6.6863 H   0  0  0  0  0  0  0  0  0  0  0  0
    4.6122    0.0561    0.7591 H   0  0  0  0  0  0  0  0  0  0  0  0
    5.1505    0.9107   -0.7044 H   0  0  0  0  0  0  0  0  0  0  0  0
    7.0494   -0.1613    0.9660 H   0  0  0  0  0  0  0  0  0  0  0  0
    7.2437   -0.3650   -0.7781 H   0  0  0  0  0  0  0  0  0  0  0  0
    6.5550   -2.4934    1.2228 H   0  0  0  0  0  0  0  0  0  0  0  0
    7.1522   -2.6687   -0.4342 H   0  0  0  0  0  0  0  0  0  0  0  0
    4.3036   -2.6321    0.5595 H   0  0  0  0  0  0  0  0  0  0  0  0
    4.9328   -3.3300   -0.9569 H   0  0  0  0  0  0  0  0  0  0  0  0
  1  2  1  0
  1 20  1  0
  1 21  1  0
  1 22  1  0
  2  3  1  0
  2 23  1  0
  2 24  1  0
  4  3  1  6
  4  5  1  0
  4 16  1  0
  4 19  1  0
  5  6  2  0
  5 11  1  0
  6  7  1  0
  7  8  1  0
  7  9  2  0
  8 25  1  0
  8 26  1  0
  9 10  1  0
  9 15  1  0
 10 11  2  0
 10 12  1  0
 12 13  1  0
 12 27  1  0
 12 28  1  0
 13 14  1  0
 13 29  1  0
 13 30  1  0
 14 15  1  0
 14 31  1  0
 14 32  1  0
 15 33  1  0
 15 34  1  0
 16 17  1  0
 16 35  1  0
 16 36  1  0
 17 18  1  0
 17 37  1  0
 17 38  1  0
 18 19  1  0
 18 39  1  0
 18 40  1  0
 19 41  1  0
 19 42  1  0
M  END

