
     RDKit          3D

124134  0  0  0  0  0  0  0  0999 V2000
    1.3781  -10.5333   -3.7247 C   0  0  0  0  0  0  0  0  0  0  0  0
    2.5826  -11.0687   -2.9160 C   0  0  1  0  0  0  0  0  0  0  0  0
    2.1325  -11.2688   -1.4576 C   0  0  0  0  0  0  0  0  0  0  0  0
    3.0122  -12.4422   -3.4818 C   0  0  0  0  0  0  0  0  0  0  0  0
    3.7550  -10.0746   -3.0294 C   0  0  0  0  0  0  0  0  0  0  0  0
    4.3354   -9.4438   -1.9180 C   0  0  0  0  0  0  0  0  0  0  0  0
    5.4009   -8.5491   -2.0563 C   0  0  0  0  0  0  0  0  0  0  0  0
    5.9000   -8.2244   -3.3202 C   0  0  0  0  0  0  0  0  0  0  0  0
    5.3469   -8.8666   -4.4427 C   0  0  0  0  0  0  0  0  0  0  0  0
    4.3001   -9.7790   -4.2917 C   0  0  0  0  0  0  0  0  0  0  0  0
    5.9684   -8.4828   -6.0703 S   0  0  0  0  0  0  0  0  0  0  0  0
    7.6797   -8.2360   -5.6409 C   0  0  0  0  0  0  0  0  0  0  0  0
    8.6922   -8.6087   -6.5291 C   0  0  0  0  0  0  0  0  0  0  0  0
   10.0510   -8.4213   -6.2221 C   0  0  0  0  0  0  0  0  0  0  0  0
   11.1301   -8.8280   -7.2448 C   0  0  1  0  0  0  0  0  0  0  0  0
   10.9248   -8.0262   -8.5511 C   0  0  0  0  0  0  0  0  0  0  0  0
   12.5529   -8.5495   -6.7273 C   0  0  0  0  0  0  0  0  0  0  0  0
   11.0122  -10.3403   -7.5453 C   0  0  0  0  0  0  0  0  0  0  0  0
   10.3545   -7.8798   -4.9617 C   0  0  0  0  0  0  0  0  0  0  0  0
    9.3497   -7.5221   -4.0592 C   0  0  0  0  0  0  0  0  0  0  0  0
    8.0007   -7.6617   -4.3981 C   0  0  0  0  0  0  0  0  0  0  0  0
    6.9529   -7.2768   -3.5073 N   0  0  0  0  0  0  0  0  0  0  0  0
    6.8284   -5.9783   -3.0330 C   0  0  0  0  0  0  0  0  0  0  0  0
    5.8725   -5.5368   -1.9721 C   0  0  0  0  0  0  0  0  0  0  0  0
    5.3234   -4.3533   -2.3566 C   0  0  0  0  0  0  0  0  0  0  0  0
    6.2388   -3.2209   -2.0598 C   0  0  0  0  0  0  0  0  0  0  0  0
    7.4663   -3.5631   -2.6922 C   0  0  0  0  0  0  0  0  0  0  0  0
    8.4803   -2.5566   -2.7886 C   0  0  0  0  0  0  0  0  0  0  0  0
    8.2991   -1.3043   -2.2496 C   0  0  0  0  0  0  0  0  0  0  0  0
    7.0771   -0.9516   -1.6032 C   0  0  0  0  0  0  0  0  0  0  0  0
    6.9214    0.2803   -1.0877 N   0  0  0  0  0  0  0  0  0  0  0  0
    5.7522    0.5759   -0.5239 C   0  0  0  0  0  0  0  0  0  0  0  0
    5.5482    1.8876    0.0408 C   0  0  0  0  0  0  0  0  0  0  0  0
    4.3602    2.2291    0.6098 C   0  0  0  0  0  0  0  0  0  0  0  0
    3.2518    1.2999    0.6742 C   0  0  0  0  0  0  0  0  0  0  0  0
    2.0276    1.6753    1.2610 C   0  0  0  0  0  0  0  0  0  0  0  0
    0.9414    0.7906    1.3308 C   0  0  0  0  0  0  0  0  0  0  0  0
   -0.2850    1.1713    1.9151 N   0  0  0  0  0  0  0  0  0  0  0  0
   -0.4301    2.4073    2.6150 C   0  0  0  0  0  0  0  0  0  0  0  0
   -0.3598    3.6472    1.9730 C   0  0  0  0  0  0  0  0  0  0  0  0
   -0.4752    4.8363    2.6986 C   0  0  0  0  0  0  0  0  0  0  0  0
   -0.7050    4.8318    4.0847 C   0  0  0  0  0  0  0  0  0  0  0  0
   -0.8402    6.1213    4.9187 C   0  0  1  0  0  0  0  0  0  0  0  0
   -2.2386    6.1662    5.5774 C   0  0  0  0  0  0  0  0  0  0  0  0
    0.2470    6.1357    6.0181 C   0  0  0  0  0  0  0  0  0  0  0  0
   -0.6726    7.3875    4.0592 C   0  0  0  0  0  0  0  0  0  0  0  0
   -0.8372    3.5795    4.7102 C   0  0  0  0  0  0  0  0  0  0  0  0
   -0.7015    2.3867    3.9953 C   0  0  0  0  0  0  0  0  0  0  0  0
   -0.8935    0.8105    4.8103 S   0  0  0  0  0  0  0  0  0  0  0  0
   -1.7109   -0.0509    3.4778 C   0  0  0  0  0  0  0  0  0  0  0  0
   -2.7278   -0.9764    3.7502 C   0  0  0  0  0  0  0  0  0  0  0  0
   -3.3928   -1.6534    2.7186 C   0  0  0  0  0  0  0  0  0  0  0  0
   -4.4990   -2.6933    2.9836 C   0  0  1  0  0  0  0  0  0  0  0  0
   -4.7551   -2.9002    4.4872 C   0  0  0  0  0  0  0  0  0  0  0  0
   -5.8177   -2.2209    2.3285 C   0  0  0  0  0  0  0  0  0  0  0  0
   -4.0781   -4.0505    2.3732 C   0  0  0  0  0  0  0  0  0  0  0  0
   -3.0277   -1.3310    1.3962 C   0  0  0  0  0  0  0  0  0  0  0  0
   -2.0327   -0.3965    1.1173 C   0  0  0  0  0  0  0  0  0  0  0  0
   -1.3297    0.2285    2.1567 C   0  0  0  0  0  0  0  0  0  0  0  0
    1.1258   -0.5213    0.8132 C   0  0  0  0  0  0  0  0  0  0  0  0
    2.3244   -0.8991    0.2346 C   0  0  0  0  0  0  0  0  0  0  0  0
    3.4102   -0.0072    0.1387 C   0  0  0  0  0  0  0  0  0  0  0  0
    4.6736   -0.3921   -0.4727 C   0  0  0  0  0  0  0  0  0  0  0  0
    4.8260   -1.6137   -0.9700 N   0  0  0  0  0  0  0  0  0  0  0  0
    6.0117   -1.9270   -1.5315 C   0  0  0  0  0  0  0  0  0  0  0  0
    7.6758   -4.9074   -3.2851 C   0  0  0  0  0  0  0  0  0  0  0  0
    0.5280  -11.2320   -3.6566 H   0  0  0  0  0  0  0  0  0  0  0  0
    1.6214  -10.4086   -4.7909 H   0  0  0  0  0  0  0  0  0  0  0  0
    1.0474   -9.5555   -3.3402 H   0  0  0  0  0  0  0  0  0  0  0  0
    1.2929  -11.9807   -1.4219 H   0  0  0  0  0  0  0  0  0  0  0  0
    1.7876  -10.3279   -1.0010 H   0  0  0  0  0  0  0  0  0  0  0  0
    2.9394  -11.6790   -0.8303 H   0  0  0  0  0  0  0  0  0  0  0  0
    2.1831  -13.1649   -3.4071 H   0  0  0  0  0  0  0  0  0  0  0  0
    3.8700  -12.8491   -2.9231 H   0  0  0  0  0  0  0  0  0  0  0  0
    3.3028  -12.3789   -4.5415 H   0  0  0  0  0  0  0  0  0  0  0  0
    3.9705   -9.6501   -0.9123 H   0  0  0  0  0  0  0  0  0  0  0  0
    5.8457   -8.0957   -1.1704 H   0  0  0  0  0  0  0  0  0  0  0  0
    3.9092  -10.2639   -5.1887 H   0  0  0  0  0  0  0  0  0  0  0  0
    8.3992   -9.0631   -7.4780 H   0  0  0  0  0  0  0  0  0  0  0  0
   11.0079   -6.9432   -8.3677 H   0  0  0  0  0  0  0  0  0  0  0  0
    9.9372   -8.2149   -8.9989 H   0  0  0  0  0  0  0  0  0  0  0  0
   11.6873   -8.3051   -9.2968 H   0  0  0  0  0  0  0  0  0  0  0  0
   12.7119   -7.4805   -6.5157 H   0  0  0  0  0  0  0  0  0  0  0  0
   13.2904   -8.8485   -7.4884 H   0  0  0  0  0  0  0  0  0  0  0  0
   12.7766   -9.1180   -5.8110 H   0  0  0  0  0  0  0  0  0  0  0  0
   10.0293  -10.6018   -7.9659 H   0  0  0  0  0  0  0  0  0  0  0  0
   11.1547  -10.9375   -6.6307 H   0  0  0  0  0  0  0  0  0  0  0  0
   11.7787  -10.6473   -8.2757 H   0  0  0  0  0  0  0  0  0  0  0  0
   11.3909   -7.7375   -4.6568 H   0  0  0  0  0  0  0  0  0  0  0  0
    9.6148   -7.1169   -3.0809 H   0  0  0  0  0  0  0  0  0  0  0  0
    6.3485   -5.5441   -0.9772 H   0  0  0  0  0  0  0  0  0  0  0  0
    4.9244   -4.3128   -3.3842 H   0  0  0  0  0  0  0  0  0  0  0  0
    9.4187   -2.7976   -3.2954 H   0  0  0  0  0  0  0  0  0  0  0  0
    9.0762   -0.5389   -2.3036 H   0  0  0  0  0  0  0  0  0  0  0  0
    6.3864    2.5853   -0.0137 H   0  0  0  0  0  0  0  0  0  0  0  0
    4.2206    3.2278    1.0330 H   0  0  0  0  0  0  0  0  0  0  0  0
    1.9477    2.6788    1.6759 H   0  0  0  0  0  0  0  0  0  0  0  0
   -0.1962    3.6785    0.8939 H   0  0  0  0  0  0  0  0  0  0  0  0
   -0.3939    5.7777    2.1559 H   0  0  0  0  0  0  0  0  0  0  0  0
   -2.4061    5.3097    6.2479 H   0  0  0  0  0  0  0  0  0  0  0  0
   -3.0347    6.1564    4.8160 H   0  0  0  0  0  0  0  0  0  0  0  0
   -2.3513    7.0847    6.1766 H   0  0  0  0  0  0  0  0  0  0  0  0
    0.1570    5.2738    6.6968 H   0  0  0  0  0  0  0  0  0  0  0  0
    0.1645    7.0502    6.6282 H   0  0  0  0  0  0  0  0  0  0  0  0
    1.2561    6.1105    5.5770 H   0  0  0  0  0  0  0  0  0  0  0  0
   -1.4405    7.4563    3.2728 H   0  0  0  0  0  0  0  0  0  0  0  0
    0.3168    7.4298    3.5775 H   0  0  0  0  0  0  0  0  0  0  0  0
   -0.7696    8.2827    4.6933 H   0  0  0  0  0  0  0  0  0  0  0  0
   -1.0614    3.5166    5.7771 H   0  0  0  0  0  0  0  0  0  0  0  0
   -2.9950   -1.1475    4.7928 H   0  0  0  0  0  0  0  0  0  0  0  0
   -5.0909   -1.9740    4.9793 H   0  0  0  0  0  0  0  0  0  0  0  0
   -3.8567   -3.2614    5.0117 H   0  0  0  0  0  0  0  0  0  0  0  0
   -5.5455   -3.6538    4.6297 H   0  0  0  0  0  0  0  0  0  0  0  0
   -6.1431   -1.2553    2.7471 H   0  0  0  0  0  0  0  0  0  0  0  0
   -6.6194   -2.9567    2.5057 H   0  0  0  0  0  0  0  0  0  0  0  0
   -5.7158   -2.0967    1.2397 H   0  0  0  0  0  0  0  0  0  0  0  0
   -3.1420   -4.4141    2.8258 H   0  0  0  0  0  0  0  0  0  0  0  0
   -3.9194   -3.9811    1.2863 H   0  0  0  0  0  0  0  0  0  0  0  0
   -4.8585   -4.8091    2.5484 H   0  0  0  0  0  0  0  0  0  0  0  0
   -3.5375   -1.8095    0.5574 H   0  0  0  0  0  0  0  0  0  0  0  0
   -1.7796   -0.1540    0.0833 H   0  0  0  0  0  0  0  0  0  0  0  0
    0.3225   -1.2525    0.8817 H   0  0  0  0  0  0  0  0  0  0  0  0
    2.4535   -1.9095   -0.1573 H   0  0  0  0  0  0  0  0  0  0  0  0
    8.5810   -5.0378   -3.8815 H   0  0  0  0  0  0  0  0  0  0  0  0
  2  1  1  6
  1 67  1  0
  1 68  1  0
  1 69  1  0
  2  3  1  0
  2  4  1  0
  2  5  1  0
  3 70  1  0
  3 71  1  0
  3 72  1  0
  4 73  1  0
  4 74  1  0
  4 75  1  0
  5  6  2  0
  5 10  1  0
  6  7  1  0
  6 76  1  0
  7  8  2  0
  7 77  1  0
  8  9  1  0
  8 22  1  0
  9 10  2  0
  9 11  1  0
 10 78  1  0
 11 12  1  0
 12 13  2  0
 12 21  1  0
 13 14  1  0
 13 79  1  0
 14 15  1  0
 14 19  2  0
 15 16  1  6
 15 17  1  0
 15 18  1  0
 16 80  1  0
 16 81  1  0
 16 82  1  0
 17 83  1  0
 17 84  1  0
 17 85  1  0
 18 86  1  0
 18 87  1  0
 18 88  1  0
 19 20  1  0
 19 89  1  0
 20 21  2  0
 20 90  1  0
 21 22  1  0
 22 23  1  0
 23 24  2  0
 23 66  1  0
 24 25  1  0
 24 91  1  0
 25 26  2  0
 25 92  1  0
 26 27  1  0
 26 65  1  0
 27 28  1  0
 27 66  2  0
 28 29  2  0
 28 93  1  0
 29 30  1  0
 29 94  1  0
 30 31  1  0
 30 65  2  0
 31 32  2  0
 32 33  1  0
 32 63  1  0
 33 34  2  0
 33 95  1  0
 34 35  1  0
 34 96  1  0
 35 36  1  0
 35 62  2  0
 36 37  2  0
 36 97  1  0
 37 38  1  0
 37 60  1  0
 38 39  1  0
 38 59  1  0
 39 40  2  0
 39 48  1  0
 40 41  1  0
 40 98  1  0
 41 42  2  0
 41 99  1  0
 42 43  1  0
 42 47  1  0
 43 44  1  1
 43 45  1  0
 43 46  1  0
 44100  1  0
 44101  1  0
 44102  1  0
 45103  1  0
 45104  1  0
 45105  1  0
 46106  1  0
 46107  1  0
 46108  1  0
 47 48  2  0
 47109  1  0
 48 49  1  0
 49 50  1  0
 50 51  2  0
 50 59  1  0
 51 52  1  0
 51110  1  0
 52 53  1  0
 52 57  2  0
 53 54  1  1
 53 55  1  0
 53 56  1  0
 54111  1  0
 54112  1  0
 54113  1  0
 55114  1  0
 55115  1  0
 55116  1  0
 56117  1  0
 56118  1  0
 56119  1  0
 57 58  1  0
 57120  1  0
 58 59  2  0
 58121  1  0
 60 61  2  0
 60122  1  0
 61 62  1  0
 61123  1  0
 62 63  1  0
 63 64  2  0
 64 65  1  0
 66124  1  0
M  END

