
     RDKit          3D

 58 61  0  0  0  0  0  0  0  0999 V2000
    4.5237    2.1322    3.4359 C   0  0  0  0  0  0  0  0  0  0  0  0
    5.2639    1.0749    2.6404 C   0  0  0  0  0  0  0  0  0  0  0  0
    5.8776    1.7114    1.5264 O   0  0  0  0  0  0  0  0  0  0  0  0
    6.6034    0.9888    0.6470 C   0  0  0  0  0  0  0  0  0  0  0  0
    6.8208   -0.3971    0.7385 C   0  0  0  0  0  0  0  0  0  0  0  0
    7.5850   -1.0450   -0.2308 C   0  0  0  0  0  0  0  0  0  0  0  0
    8.1624   -0.3489   -1.3112 C   0  0  0  0  0  0  0  0  0  0  0  0
    8.9492   -1.0502   -2.3254 C   0  0  0  0  0  0  0  0  0  0  0  0
    8.9327   -2.3549   -2.7200 C   0  0  0  0  0  0  0  0  0  0  0  0
    8.1167   -3.4204   -2.2768 N   0  0  0  0  0  0  0  0  0  0  0  0
    7.3172   -4.0541   -3.3467 C   0  0  0  0  0  0  0  0  0  0  0  0
    6.2913   -3.1042   -3.9541 C   0  0  0  0  0  0  0  0  0  0  0  0
    8.8346   -4.3807   -1.4269 C   0  0  0  0  0  0  0  0  0  0  0  0
    7.9428   -5.2480   -0.5529 C   0  0  0  0  0  0  0  0  0  0  0  0
    8.4072   -6.5064   -0.1390 C   0  0  0  0  0  0  0  0  0  0  0  0
    7.6483   -7.3065    0.7190 C   0  0  0  0  0  0  0  0  0  0  0  0
    6.4005   -6.8650    1.1695 C   0  0  0  0  0  0  0  0  0  0  0  0
    5.9215   -5.6198    0.7530 C   0  0  0  0  0  0  0  0  0  0  0  0
    6.6867   -4.8174   -0.0992 C   0  0  0  0  0  0  0  0  0  0  0  0
    9.9880   -2.5618   -3.7705 C   0  0  0  0  0  0  0  0  0  0  0  0
   10.2908   -3.6031   -4.3081 O   0  0  0  0  0  0  0  0  0  0  0  0
   10.5880   -1.3072   -4.0075 N   0  0  0  0  0  0  0  0  0  0  0  0
   11.6292   -1.0522   -4.9439 C   0  0  0  0  0  0  0  0  0  0  0  0
   12.6359   -2.0080   -5.1580 C   0  0  0  0  0  0  0  0  0  0  0  0
   13.6451   -1.7505   -6.0879 C   0  0  0  0  0  0  0  0  0  0  0  0
   13.6804   -0.5506   -6.8019 C   0  0  0  0  0  0  0  0  0  0  0  0
   12.6741    0.3824   -6.5658 C   0  0  0  0  0  0  0  0  0  0  0  0
   12.6873    1.5416   -7.2408 F   0  0  0  0  0  0  0  0  0  0  0  0
   11.6445    0.1555   -5.6582 C   0  0  0  0  0  0  0  0  0  0  0  0
   10.0041   -0.3463   -3.1597 C   0  0  0  0  0  0  0  0  0  0  0  0
   10.3124    0.8211   -3.1274 O   0  0  0  0  0  0  0  0  0  0  0  0
    7.9443    1.0497   -1.3769 C   0  0  0  0  0  0  0  0  0  0  0  0
    7.1762    1.7008   -0.4237 C   0  0  0  0  0  0  0  0  0  0  0  0
    4.0341    1.6760    4.3101 H   0  0  0  0  0  0  0  0  0  0  0  0
    3.7527    2.6161    2.8172 H   0  0  0  0  0  0  0  0  0  0  0  0
    5.2180    2.9090    3.7909 H   0  0  0  0  0  0  0  0  0  0  0  0
    4.5697    0.2894    2.2878 H   0  0  0  0  0  0  0  0  0  0  0  0
    6.0345    0.5822    3.2622 H   0  0  0  0  0  0  0  0  0  0  0  0
    6.4070   -0.9798    1.5613 H   0  0  0  0  0  0  0  0  0  0  0  0
    7.7464   -2.1166   -0.1387 H   0  0  0  0  0  0  0  0  0  0  0  0
    6.7943   -4.9044   -2.8839 H   0  0  0  0  0  0  0  0  0  0  0  0
    7.9701   -4.4729   -4.1351 H   0  0  0  0  0  0  0  0  0  0  0  0
    5.6064   -2.7138   -3.1850 H   0  0  0  0  0  0  0  0  0  0  0  0
    5.6951   -3.6300   -4.7165 H   0  0  0  0  0  0  0  0  0  0  0  0
    6.7690   -2.2423   -4.4467 H   0  0  0  0  0  0  0  0  0  0  0  0
    9.5022   -3.7969   -0.7686 H   0  0  0  0  0  0  0  0  0  0  0  0
    9.4977   -5.0358   -2.0267 H   0  0  0  0  0  0  0  0  0  0  0  0
    9.3776   -6.8647   -0.4955 H   0  0  0  0  0  0  0  0  0  0  0  0
    8.0299   -8.2825    1.0300 H   0  0  0  0  0  0  0  0  0  0  0  0
    5.8017   -7.4920    1.8351 H   0  0  0  0  0  0  0  0  0  0  0  0
    4.9423   -5.2698    1.0909 H   0  0  0  0  0  0  0  0  0  0  0  0
    6.3028   -3.8513   -0.4323 H   0  0  0  0  0  0  0  0  0  0  0  0
   12.6174   -2.9496   -4.6134 H   0  0  0  0  0  0  0  0  0  0  0  0
   14.4227   -2.4997   -6.2546 H   0  0  0  0  0  0  0  0  0  0  0  0
   14.4647   -0.3279   -7.5273 H   0  0  0  0  0  0  0  0  0  0  0  0
   10.8870    0.9215   -5.5071 H   0  0  0  0  0  0  0  0  0  0  0  0
    8.3879    1.6256   -2.1871 H   0  0  0  0  0  0  0  0  0  0  0  0
    7.0022    2.7771   -0.4806 H   0  0  0  0  0  0  0  0  0  0  0  0
  1  2  1  0
  1 34  1  0
  1 35  1  0
  1 36  1  0
  2  3  1  0
  2 37  1  0
  2 38  1  0
  3  4  1  0
  4  5  2  0
  4 33  1  0
  5  6  1  0
  5 39  1  0
  6  7  2  0
  6 40  1  0
  7  8  1  0
  7 32  1  0
  8  9  2  0
  8 30  1  0
  9 10  1  0
  9 20  1  0
 10 11  1  0
 10 13  1  0
 11 12  1  0
 11 41  1  0
 11 42  1  0
 12 43  1  0
 12 44  1  0
 12 45  1  0
 13 14  1  0
 13 46  1  0
 13 47  1  0
 14 15  2  0
 14 19  1  0
 15 16  1  0
 15 48  1  0
 16 17  2  0
 16 49  1  0
 17 18  1  0
 17 50  1  0
 18 19  2  0
 18 51  1  0
 19 52  1  0
 20 21  2  0
 20 22  1  0
 22 23  1  0
 22 30  1  0
 23 24  2  0
 23 29  1  0
 24 25  1  0
 24 53  1  0
 25 26  2  0
 25 54  1  0
 26 27  1  0
 26 55  1  0
 27 28  1  0
 27 29  2  0
 29 56  1  0
 30 31  2  0
 32 33  2  0
 32 57  1  0
 33 58  1  0
M  END

