
     RDKit          3D

103105  0  0  0  0  0  0  0  0999 V2000
   49.8178  -15.4186   -5.7343 C   0  0  0  0  0  0  0  0  0  0  0  0
   48.3559  -15.6856   -6.1161 C   0  0  1  0  0  0  0  0  0  0  0  0
   47.4934  -14.4427   -5.8574 C   0  0  0  0  0  0  0  0  0  0  0  0
   48.2575  -16.1865   -7.5698 C   0  0  0  0  0  0  0  0  0  0  0  0
   46.8727  -16.6678   -8.0153 C   0  0  0  0  0  0  0  0  0  0  0  0
   46.8534  -17.2378   -9.4374 C   0  0  0  0  0  0  0  0  0  0  0  0
   45.4724  -17.7186   -9.8927 C   0  0  0  0  0  0  0  0  0  0  0  0
   45.4552  -18.2919  -11.3122 C   0  0  0  0  0  0  0  0  0  0  0  0
   44.0658  -18.7728  -11.7471 C   0  0  0  0  0  0  0  0  0  0  0  0
   44.0305  -19.3096  -13.0955 N   0  0  0  0  0  0  0  0  0  0  0  0
   43.9373  -20.6479  -13.3635 C   0  0  0  0  0  0  0  0  0  0  0  0
   43.8201  -21.4914  -12.4884 O   0  0  0  0  0  0  0  0  0  0  0  0
   44.0075  -21.0218  -14.8429 C   0  0  0  0  0  0  0  0  0  0  0  0
   43.0388  -22.1497  -15.2043 C   0  0  0  0  0  0  0  0  0  0  0  0
   43.2236  -22.6710  -16.6313 C   0  0  0  0  0  0  0  0  0  0  0  0
   42.2325  -23.7734  -17.0111 C   0  0  0  0  0  0  0  0  0  0  0  0
   40.8060  -23.2483  -17.1882 C   0  0  0  0  0  0  0  0  0  0  0  0
   40.5770  -22.1259  -17.6111 O   0  0  0  0  0  0  0  0  0  0  0  0
   39.8173  -24.1420  -16.8826 N   0  0  0  0  0  0  0  0  0  0  0  0
   38.4035  -23.8336  -17.0032 C   0  0  0  0  0  0  0  0  0  0  0  0
   37.7031  -23.6305  -15.6547 C   0  0  0  0  0  0  0  0  0  0  0  0
   36.2092  -23.3279  -15.7975 C   0  0  0  0  0  0  0  0  0  0  0  0
   35.4935  -23.1133  -14.4605 C   0  0  0  0  0  0  0  0  0  0  0  0
   33.9984  -22.8181  -14.6036 C   0  0  0  0  0  0  0  0  0  0  0  0
   33.2987  -22.5964  -13.2568 C   0  0  0  0  0  0  0  0  0  0  0  0
   31.8766  -22.3416  -13.3669 N   0  0  0  0  0  0  0  0  0  0  0  0
   31.3520  -21.0844  -13.3395 C   0  0  0  0  0  0  0  0  0  0  0  0
   31.9798  -20.0648  -13.1420 O   0  0  0  0  0  0  0  0  0  0  0  0
   30.0155  -21.1407  -13.5696 O   0  0  0  0  0  0  0  0  0  0  0  0
   29.2707  -19.9223  -13.4763 C   0  0  0  0  0  0  0  0  0  0  0  0
   28.0623  -20.1435  -12.5616 C   0  0  1  0  0  0  0  0  0  0  0  0
   28.3798  -20.0759  -11.1421 N   0  0  0  0  0  0  0  0  0  0  0  0
   27.9295  -19.1368  -10.3910 C   0  0  0  0  0  0  0  0  0  0  0  0
   28.3317  -19.1046   -9.0574 N   0  0  0  0  0  0  0  0  0  0  0  0
   27.0629  -18.0629  -10.7273 N   0  0  0  0  0  0  0  0  0  0  0  0
   27.2791  -16.7425  -10.0948 C   0  0  0  0  0  0  0  0  0  0  0  0
   27.4838  -15.7628  -11.2683 C   0  0  0  0  0  0  0  0  0  0  0  0
   27.7425  -16.6648  -12.4915 C   0  0  1  0  0  0  0  0  0  0  0  0
   27.3696  -16.0813  -13.7150 O   0  0  0  0  0  0  0  0  0  0  0  0
   29.1101  -16.9500  -12.4753 O   0  0  0  0  0  0  0  0  0  0  0  0
   26.8085  -17.8939  -12.1453 C   0  0  2  0  0  0  0  0  0  0  0  0
   25.4434  -17.5555  -12.6045 N   0  0  0  0  0  0  0  0  0  0  0  0
   25.3899  -18.1329  -13.8919 C   0  0  0  0  0  0  0  0  0  0  0  0
   24.4411  -17.6909  -14.7821 N   0  0  0  0  0  0  0  0  0  0  0  0
   26.2042  -19.1098  -14.1027 N   0  0  0  0  0  0  0  0  0  0  0  0
   26.8241  -19.2943  -12.8018 C   0  0  1  0  0  0  0  0  0  0  0  0
   49.9082  -15.1014   -4.6826 H   0  0  0  0  0  0  0  0  0  0  0  0
   50.2494  -14.6182   -6.3604 H   0  0  0  0  0  0  0  0  0  0  0  0
   50.4416  -16.3174   -5.8689 H   0  0  0  0  0  0  0  0  0  0  0  0
   47.9818  -16.4966   -5.4617 H   0  0  0  0  0  0  0  0  0  0  0  0
   47.8065  -13.6050   -6.5052 H   0  0  0  0  0  0  0  0  0  0  0  0
   47.5879  -14.1057   -4.8123 H   0  0  0  0  0  0  0  0  0  0  0  0
   46.4250  -14.6295   -6.0464 H   0  0  0  0  0  0  0  0  0  0  0  0
   48.9762  -17.0160   -7.7019 H   0  0  0  0  0  0  0  0  0  0  0  0
   48.6024  -15.3829   -8.2488 H   0  0  0  0  0  0  0  0  0  0  0  0
   46.1454  -15.8391   -7.9535 H   0  0  0  0  0  0  0  0  0  0  0  0
   46.5107  -17.4391   -7.3099 H   0  0  0  0  0  0  0  0  0  0  0  0
   47.5712  -18.0762   -9.5054 H   0  0  0  0  0  0  0  0  0  0  0  0
   47.2235  -16.4704  -10.1428 H   0  0  0  0  0  0  0  0  0  0  0  0
   44.7545  -16.8795   -9.8269 H   0  0  0  0  0  0  0  0  0  0  0  0
   45.1015  -18.4850   -9.1874 H   0  0  0  0  0  0  0  0  0  0  0  0
   46.1598  -19.1389  -11.3839 H   0  0  0  0  0  0  0  0  0  0  0  0
   45.8187  -17.5268  -12.0238 H   0  0  0  0  0  0  0  0  0  0  0  0
   43.3388  -17.9447  -11.6651 H   0  0  0  0  0  0  0  0  0  0  0  0
   43.7210  -19.5806  -11.0852 H   0  0  0  0  0  0  0  0  0  0  0  0
   44.1462  -18.6710  -13.8729 H   0  0  0  0  0  0  0  0  0  0  0  0
   45.0454  -21.3516  -15.0360 H   0  0  0  0  0  0  0  0  0  0  0  0
   43.8360  -20.1398  -15.4835 H   0  0  0  0  0  0  0  0  0  0  0  0
   42.0042  -21.7875  -15.0766 H   0  0  0  0  0  0  0  0  0  0  0  0
   43.1777  -22.9640  -14.4742 H   0  0  0  0  0  0  0  0  0  0  0  0
   44.2521  -23.0533  -16.7542 H   0  0  0  0  0  0  0  0  0  0  0  0
   43.0989  -21.8445  -17.3501 H   0  0  0  0  0  0  0  0  0  0  0  0
   42.2561  -24.5942  -16.2731 H   0  0  0  0  0  0  0  0  0  0  0  0
   42.5243  -24.2166  -17.9801 H   0  0  0  0  0  0  0  0  0  0  0  0
   40.0835  -25.0340  -16.4832 H   0  0  0  0  0  0  0  0  0  0  0  0
   37.9005  -24.6380  -17.5703 H   0  0  0  0  0  0  0  0  0  0  0  0
   38.3385  -22.9158  -17.6054 H   0  0  0  0  0  0  0  0  0  0  0  0
   38.2044  -22.8071  -15.1169 H   0  0  0  0  0  0  0  0  0  0  0  0
   37.8386  -24.5339  -15.0307 H   0  0  0  0  0  0  0  0  0  0  0  0
   35.7178  -24.1538  -16.3453 H   0  0  0  0  0  0  0  0  0  0  0  0
   36.0782  -22.4301  -16.4290 H   0  0  0  0  0  0  0  0  0  0  0  0
   35.9792  -22.2824  -13.9168 H   0  0  0  0  0  0  0  0  0  0  0  0
   35.6323  -24.0085  -13.8253 H   0  0  0  0  0  0  0  0  0  0  0  0
   33.5046  -23.6510  -15.1380 H   0  0  0  0  0  0  0  0  0  0  0  0
   33.8505  -21.9193  -15.2274 H   0  0  0  0  0  0  0  0  0  0  0  0
   33.7395  -21.7282  -12.7448 H   0  0  0  0  0  0  0  0  0  0  0  0
   33.4547  -23.4733  -12.6034 H   0  0  0  0  0  0  0  0  0  0  0  0
   31.2405  -23.0994  -13.5841 H   0  0  0  0  0  0  0  0  0  0  0  0
   28.9146  -19.6631  -14.4877 H   0  0  0  0  0  0  0  0  0  0  0  0
   29.9565  -19.1555  -13.0940 H   0  0  0  0  0  0  0  0  0  0  0  0
   27.7627  -21.1845  -12.7814 H   0  0  0  0  0  0  0  0  0  0  0  0
   28.8463  -19.9455   -8.8146 H   0  0  0  0  0  0  0  0  0  0  0  0
   27.6008  -18.8801   -8.3880 H   0  0  0  0  0  0  0  0  0  0  0  0
   28.1617  -16.7887   -9.4452 H   0  0  0  0  0  0  0  0  0  0  0  0
   26.4129  -16.4551   -9.4748 H   0  0  0  0  0  0  0  0  0  0  0  0
   28.3375  -15.0881  -11.1119 H   0  0  0  0  0  0  0  0  0  0  0  0
   26.5904  -15.1480  -11.4531 H   0  0  0  0  0  0  0  0  0  0  0  0
   27.9849  -15.3508  -13.8735 H   0  0  0  0  0  0  0  0  0  0  0  0
   29.3116  -17.5479  -13.2088 H   0  0  0  0  0  0  0  0  0  0  0  0
   25.1624  -16.5808  -12.5480 H   0  0  0  0  0  0  0  0  0  0  0  0
   24.2921  -16.6867  -14.8129 H   0  0  0  0  0  0  0  0  0  0  0  0
   24.5526  -18.1029  -15.7034 H   0  0  0  0  0  0  0  0  0  0  0  0
   26.0792  -19.8124  -12.1615 H   0  0  0  0  0  0  0  0  0  0  0  0
  1  2  1  0
  1 47  1  0
  1 48  1  0
  1 49  1  0
  2  3  1  0
  2  4  1  0
  2 50  1  1
  3 51  1  0
  3 52  1  0
  3 53  1  0
  4  5  1  0
  4 54  1  0
  4 55  1  0
  5  6  1  0
  5 56  1  0
  5 57  1  0
  6  7  1  0
  6 58  1  0
  6 59  1  0
  7  8  1  0
  7 60  1  0
  7 61  1  0
  8  9  1  0
  8 62  1  0
  8 63  1  0
  9 10  1  0
  9 64  1  0
  9 65  1  0
 10 11  1  0
 10 66  1  0
 11 12  2  0
 11 13  1  0
 13 14  1  0
 13 67  1  0
 13 68  1  0
 14 15  1  0
 14 69  1  0
 14 70  1  0
 15 16  1  0
 15 71  1  0
 15 72  1  0
 16 17  1  0
 16 73  1  0
 16 74  1  0
 17 18  2  0
 17 19  1  0
 19 20  1  0
 19 75  1  0
 20 21  1  0
 20 76  1  0
 20 77  1  0
 21 22  1  0
 21 78  1  0
 21 79  1  0
 22 23  1  0
 22 80  1  0
 22 81  1  0
 23 24  1  0
 23 82  1  0
 23 83  1  0
 24 25  1  0
 24 84  1  0
 24 85  1  0
 25 26  1  0
 25 86  1  0
 25 87  1  0
 26 27  1  0
 26 88  1  0
 27 28  2  0
 27 29  1  0
 29 30  1  0
 30 31  1  0
 30 89  1  0
 30 90  1  0
 31 32  1  0
 31 46  1  0
 31 91  1  1
 32 33  2  0
 33 34  1  0
 33 35  1  0
 34 92  1  0
 34 93  1  0
 35 36  1  0
 35 41  1  0
 36 37  1  0
 36 94  1  0
 36 95  1  0
 37 38  1  0
 37 96  1  0
 37 97  1  0
 38 39  1  6
 38 40  1  0
 38 41  1  0
 39 98  1  0
 40 99  1  0
 41 42  1  1
 41 46  1  0
 42 43  1  0
 42100  1  0
 43 44  1  0
 43 45  2  0
 44101  1  0
 44102  1  0
 45 46  1  0
 46103  1  1
M  END

