
     RDKit          3D

 36 37  0  0  0  0  0  0  0  0999 V2000
    0.6735    0.2049    0.4151 C   0  0  0  0  0  0  0  0  0  0  0  0
    2.1269    0.2433    0.4544 N   0  0  0  0  0  0  0  0  0  0  0  0
    2.6424    1.6029    0.3560 C   0  0  0  0  0  0  0  0  0  0  0  0
    2.3715    2.2359   -0.9998 C   0  0  0  0  0  0  0  0  0  0  0  0
    1.6293    3.4168   -1.1280 C   0  0  0  0  0  0  0  0  0  0  0  0
    1.4076    4.0035   -2.3790 C   0  0  0  0  0  0  0  0  0  0  0  0
    1.9386    3.3905   -3.5093 C   0  0  0  0  0  0  0  0  0  0  0  0
    1.7315    3.9427   -4.7152 F   0  0  0  0  0  0  0  0  0  0  0  0
    2.6828    2.2140   -3.4194 C   0  0  0  0  0  0  0  0  0  0  0  0
    2.8933    1.6450   -2.1633 C   0  0  0  0  0  0  0  0  0  0  0  0
    2.7416   -0.7306    1.3805 C   0  0  1  0  0  0  0  0  0  0  0  0
    2.6938   -2.1236    0.6978 C   0  0  0  0  0  0  0  0  0  0  0  0
    3.4248   -2.1071   -0.5594 N   0  0  0  0  0  0  0  0  0  0  0  0
    4.1955   -0.4308    1.8098 C   0  0  0  0  0  0  0  0  0  0  0  0
    4.3519   -1.2603    3.0915 C   0  0  0  0  0  0  0  0  0  0  0  0
    3.0391   -1.4426    3.6218 O   0  0  0  0  0  0  0  0  0  0  0  0
    2.0896   -0.8132    2.7835 C   0  0  0  0  0  0  0  0  0  0  0  0
    0.3073    0.7078   -0.4931 H   0  0  0  0  0  0  0  0  0  0  0  0
    0.1928    0.7067    1.2838 H   0  0  0  0  0  0  0  0  0  0  0  0
    0.3087   -0.8317    0.3847 H   0  0  0  0  0  0  0  0  0  0  0  0
    3.7308    1.5783    0.4915 H   0  0  0  0  0  0  0  0  0  0  0  0
    2.2402    2.2739    1.1488 H   0  0  0  0  0  0  0  0  0  0  0  0
    1.2134    3.8909   -0.2344 H   0  0  0  0  0  0  0  0  0  0  0  0
    0.8284    4.9224   -2.4885 H   0  0  0  0  0  0  0  0  0  0  0  0
    3.0889    1.7671   -4.3292 H   0  0  0  0  0  0  0  0  0  0  0  0
    3.4780    0.7256   -2.0749 H   0  0  0  0  0  0  0  0  0  0  0  0
    1.6294   -2.4254    0.5983 H   0  0  0  0  0  0  0  0  0  0  0  0
    3.1480   -2.8671    1.3712 H   0  0  0  0  0  0  0  0  0  0  0  0
    2.9338   -1.5030   -1.2180 H   0  0  0  0  0  0  0  0  0  0  0  0
    3.4621   -3.0386   -0.9704 H   0  0  0  0  0  0  0  0  0  0  0  0
    4.3194    0.6324    2.0550 H   0  0  0  0  0  0  0  0  0  0  0  0
    4.9138   -0.6994    1.0227 H   0  0  0  0  0  0  0  0  0  0  0  0
    4.9899   -0.7522    3.8361 H   0  0  0  0  0  0  0  0  0  0  0  0
    4.8014   -2.2508    2.8957 H   0  0  0  0  0  0  0  0  0  0  0  0
    1.8439    0.2071    3.1450 H   0  0  0  0  0  0  0  0  0  0  0  0
    1.1623   -1.4087    2.8012 H   0  0  0  0  0  0  0  0  0  0  0  0
  1  2  1  0
  1 18  1  0
  1 19  1  0
  1 20  1  0
  2  3  1  0
 11  2  1  6
  3  4  1  0
  3 21  1  0
  3 22  1  0
  4  5  2  0
  4 10  1  0
  5  6  1  0
  5 23  1  0
  6  7  2  0
  6 24  1  0
  7  8  1  0
  7  9  1  0
  9 10  2  0
  9 25  1  0
 10 26  1  0
 11 12  1  0
 11 14  1  0
 11 17  1  0
 12 13  1  0
 12 27  1  0
 12 28  1  0
 13 29  1  0
 13 30  1  0
 14 15  1  0
 14 31  1  0
 14 32  1  0
 15 16  1  0
 15 33  1  0
 15 34  1  0
 16 17  1  0
 17 35  1  0
 17 36  1  0
M  END

