
     RDKit          3D

 48 48  0  0  0  0  0  0  0  0999 V2000
    1.1520   -0.3738   -2.4762 C   0  0  0  0  0  0  0  0  0  0  0  0
    2.6692   -0.1984   -2.5547 C   0  0  0  0  0  0  0  0  0  0  0  0
    3.1612    1.1374   -1.9884 C   0  0  0  0  0  0  0  0  0  0  0  0
    4.6788    1.3200   -2.0689 C   0  0  0  0  0  0  0  0  0  0  0  0
    5.1503    2.6647   -1.5016 C   0  0  0  0  0  0  0  0  0  0  0  0
    6.5893    2.8569   -1.5573 N   0  0  0  0  0  0  0  0  0  0  0  0
    7.1996    3.4576   -2.6235 C   0  0  0  0  0  0  0  0  0  0  0  0
    6.5704    3.8962   -3.5774 O   0  0  0  0  0  0  0  0  0  0  0  0
    8.7025    3.5549   -2.5665 C   0  0  0  0  0  0  0  0  0  0  0  0
    9.4506    3.4104   -1.3950 C   0  0  0  0  0  0  0  0  0  0  0  0
   10.8429    3.5170   -1.4458 C   0  0  0  0  0  0  0  0  0  0  0  0
   11.7544    3.3395    0.0345 Cl  0  0  0  0  0  0  0  0  0  0  0  0
   11.5289    3.7857   -2.6441 C   0  0  0  0  0  0  0  0  0  0  0  0
   12.8698    3.9161   -2.6047 O   0  0  0  0  0  0  0  0  0  0  0  0
   13.7141    3.3356   -3.6087 C   0  0  0  0  0  0  0  0  0  0  0  0
   15.0909    3.0757   -2.9990 C   0  0  1  0  0  0  0  0  0  0  0  0
   15.0413    2.0258   -1.8842 C   0  0  0  0  0  0  0  0  0  0  0  0
   16.0814    2.6881   -4.1039 C   0  0  0  0  0  0  0  0  0  0  0  0
   10.7491    3.9778   -3.8192 C   0  0  0  0  0  0  0  0  0  0  0  0
   11.4380    4.3032   -4.9432 O   0  0  0  0  0  0  0  0  0  0  0  0
   10.7295    4.5254   -6.1450 C   0  0  0  0  0  0  0  0  0  0  0  0
    9.3604    3.8523   -3.7693 C   0  0  0  0  0  0  0  0  0  0  0  0
    0.8345   -1.3435   -2.8916 H   0  0  0  0  0  0  0  0  0  0  0  0
    0.6275    0.4167   -3.0389 H   0  0  0  0  0  0  0  0  0  0  0  0
    0.7957   -0.3261   -1.4333 H   0  0  0  0  0  0  0  0  0  0  0  0
    2.9978   -0.2878   -3.6060 H   0  0  0  0  0  0  0  0  0  0  0  0
    3.1651   -1.0258   -2.0149 H   0  0  0  0  0  0  0  0  0  0  0  0
    2.8340    1.2280   -0.9352 H   0  0  0  0  0  0  0  0  0  0  0  0
    2.6659    1.9660   -2.5279 H   0  0  0  0  0  0  0  0  0  0  0  0
    5.0098    1.2502   -3.1192 H   0  0  0  0  0  0  0  0  0  0  0  0
    5.1811    0.4974   -1.5265 H   0  0  0  0  0  0  0  0  0  0  0  0
    4.8237    2.7697   -0.4523 H   0  0  0  0  0  0  0  0  0  0  0  0
    4.6963    3.4865   -2.0742 H   0  0  0  0  0  0  0  0  0  0  0  0
    7.1634    2.3549   -0.8920 H   0  0  0  0  0  0  0  0  0  0  0  0
    8.9841    3.2364   -0.4249 H   0  0  0  0  0  0  0  0  0  0  0  0
   13.7922    4.0227   -4.4641 H   0  0  0  0  0  0  0  0  0  0  0  0
   13.2658    2.3930   -3.9726 H   0  0  0  0  0  0  0  0  0  0  0  0
   15.4202    4.0345   -2.5583 H   0  0  0  0  0  0  0  0  0  0  0  0
   14.7496    1.0398   -2.2870 H   0  0  0  0  0  0  0  0  0  0  0  0
   14.3127    2.3049   -1.1100 H   0  0  0  0  0  0  0  0  0  0  0  0
   16.0270    1.9105   -1.4054 H   0  0  0  0  0  0  0  0  0  0  0  0
   15.7800    1.7486   -4.5991 H   0  0  0  0  0  0  0  0  0  0  0  0
   17.0896    2.5315   -3.6894 H   0  0  0  0  0  0  0  0  0  0  0  0
   16.1554    3.4674   -4.8800 H   0  0  0  0  0  0  0  0  0  0  0  0
   11.4811    4.7740   -6.9060 H   0  0  0  0  0  0  0  0  0  0  0  0
   10.0198    5.3657   -6.0503 H   0  0  0  0  0  0  0  0  0  0  0  0
   10.1747    3.6261   -6.4657 H   0  0  0  0  0  0  0  0  0  0  0  0
    8.7390    4.0044   -4.6504 H   0  0  0  0  0  0  0  0  0  0  0  0
  1  2  1  0
  1 23  1  0
  1 24  1  0
  1 25  1  0
  2  3  1  0
  2 26  1  0
  2 27  1  0
  3  4  1  0
  3 28  1  0
  3 29  1  0
  4  5  1  0
  4 30  1  0
  4 31  1  0
  5  6  1  0
  5 32  1  0
  5 33  1  0
  6  7  1  0
  6 34  1  0
  7  8  2  0
  7  9  1  0
  9 10  2  0
  9 22  1  0
 10 11  1  0
 10 35  1  0
 11 12  1  0
 11 13  2  0
 13 14  1  0
 13 19  1  0
 14 15  1  0
 15 16  1  0
 15 36  1  0
 15 37  1  0
 16 17  1  0
 16 18  1  0
 16 38  1  1
 17 39  1  0
 17 40  1  0
 17 41  1  0
 18 42  1  0
 18 43  1  0
 18 44  1  0
 19 20  1  0
 19 22  2  0
 20 21  1  0
 21 45  1  0
 21 46  1  0
 21 47  1  0
 22 48  1  0
M  END

