
     RDKit          3D

 44 44  0  0  0  0  0  0  0  0999 V2000
    3.2926    1.5319   -3.1295 C   0  0  0  0  0  0  0  0  0  0  0  0
    3.5116    1.3558   -1.6263 C   0  0  0  0  0  0  0  0  0  0  0  0
    3.4873   -0.0419   -1.1925 N   0  0  0  0  0  0  0  0  0  0  0  0
    2.2250   -0.6279   -0.7593 C   0  0  0  0  0  0  0  0  0  0  0  0
    1.9526   -0.4835    0.7404 C   0  0  0  0  0  0  0  0  0  0  0  0
    4.6370   -0.7667   -1.2292 C   0  0  0  0  0  0  0  0  0  0  0  0
    5.7792   -0.2792   -1.6583 N   0  0  0  0  0  0  0  0  0  0  0  0
    6.7863   -1.2026   -1.5696 C   0  0  0  0  0  0  0  0  0  0  0  0
    8.0172   -0.8491   -2.0432 N   0  0  0  0  0  0  0  0  0  0  0  0
    6.4367   -2.4360   -1.0084 C   0  0  0  0  0  0  0  0  0  0  0  0
    7.1800   -3.6917   -0.9963 C   0  0  0  0  0  0  0  0  0  0  0  0
    6.6673   -4.7796   -1.2455 O   0  0  0  0  0  0  0  0  0  0  0  0
    8.5524   -3.5868   -0.7325 N   0  0  0  0  0  0  0  0  0  0  0  0
    9.1547   -2.6001    0.1444 C   0  0  0  0  0  0  0  0  0  0  0  0
    9.4089   -4.6193   -1.2460 C   0  0  0  0  0  0  0  0  0  0  0  0
   10.2127   -4.1134   -2.4632 C   0  0  0  0  0  0  0  0  0  0  0  0
   10.0439   -2.9754   -2.8921 O   0  0  0  0  0  0  0  0  0  0  0  0
   11.1097   -4.9737   -3.0334 N   0  0  0  0  0  0  0  0  0  0  0  0
   11.3395   -6.3397   -2.6010 C   0  0  0  0  0  0  0  0  0  0  0  0
   11.9202   -4.5233   -4.1530 C   0  0  0  0  0  0  0  0  0  0  0  0
    4.6966   -2.4433   -0.6877 S   0  0  0  0  0  0  0  0  0  0  0  0
    3.2961    2.6018   -3.3946 H   0  0  0  0  0  0  0  0  0  0  0  0
    2.3282    1.1071   -3.4527 H   0  0  0  0  0  0  0  0  0  0  0  0
    4.0973    1.0355   -3.6916 H   0  0  0  0  0  0  0  0  0  0  0  0
    2.7359    1.8939   -1.0568 H   0  0  0  0  0  0  0  0  0  0  0  0
    4.4844    1.7806   -1.3412 H   0  0  0  0  0  0  0  0  0  0  0  0
    2.2141   -1.6928   -1.0471 H   0  0  0  0  0  0  0  0  0  0  0  0
    1.4169   -0.1519   -1.3392 H   0  0  0  0  0  0  0  0  0  0  0  0
    2.7337   -0.9872    1.3297 H   0  0  0  0  0  0  0  0  0  0  0  0
    0.9819   -0.9359    0.9997 H   0  0  0  0  0  0  0  0  0  0  0  0
    1.9241    0.5761    1.0411 H   0  0  0  0  0  0  0  0  0  0  0  0
    8.0202   -0.0144   -2.6170 H   0  0  0  0  0  0  0  0  0  0  0  0
    8.6724   -1.5860   -2.3159 H   0  0  0  0  0  0  0  0  0  0  0  0
    8.3753   -1.9536    0.5650 H   0  0  0  0  0  0  0  0  0  0  0  0
    9.8860   -1.9628   -0.3784 H   0  0  0  0  0  0  0  0  0  0  0  0
    9.6706   -3.1083    0.9813 H   0  0  0  0  0  0  0  0  0  0  0  0
    8.7687   -5.4673   -1.5361 H   0  0  0  0  0  0  0  0  0  0  0  0
   10.1021   -4.9803   -0.4644 H   0  0  0  0  0  0  0  0  0  0  0  0
   10.5936   -6.6643   -1.8684 H   0  0  0  0  0  0  0  0  0  0  0  0
   12.3432   -6.4572   -2.1518 H   0  0  0  0  0  0  0  0  0  0  0  0
   11.2787   -7.0248   -3.4644 H   0  0  0  0  0  0  0  0  0  0  0  0
   11.6694   -3.4795   -4.3717 H   0  0  0  0  0  0  0  0  0  0  0  0
   11.7260   -5.1396   -5.0485 H   0  0  0  0  0  0  0  0  0  0  0  0
   12.9952   -4.5998   -3.9111 H   0  0  0  0  0  0  0  0  0  0  0  0
  1  2  1  0
  1 22  1  0
  1 23  1  0
  1 24  1  0
  2  3  1  0
  2 25  1  0
  2 26  1  0
  3  4  1  0
  3  6  1  0
  4  5  1  0
  4 27  1  0
  4 28  1  0
  5 29  1  0
  5 30  1  0
  5 31  1  0
  6  7  2  0
  6 21  1  0
  7  8  1  0
  8  9  1  0
  8 10  2  0
  9 32  1  0
  9 33  1  0
 10 11  1  0
 10 21  1  0
 11 12  2  0
 11 13  1  0
 13 14  1  0
 13 15  1  0
 14 34  1  0
 14 35  1  0
 14 36  1  0
 15 16  1  0
 15 37  1  0
 15 38  1  0
 16 17  2  0
 16 18  1  0
 18 19  1  0
 18 20  1  0
 19 39  1  0
 19 40  1  0
 19 41  1  0
 20 42  1  0
 20 43  1  0
 20 44  1  0
M  END

