
     RDKit          3D

 45 45  0  0  0  0  0  0  0  0999 V2000
    1.8485    1.7524    0.5831 C   0  0  0  0  0  0  0  0  0  0  0  0
    3.1770    2.3409    1.0746 C   0  0  1  0  0  0  0  0  0  0  0  0
    3.1567    2.5496    2.5953 C   0  0  0  0  0  0  0  0  0  0  0  0
    4.3893    1.4756    0.6795 C   0  0  0  0  0  0  0  0  0  0  0  0
    4.7077    1.3374   -0.8181 C   0  0  0  0  0  0  0  0  0  0  0  0
    5.1570    2.5704   -1.4862 N   0  0  0  0  0  0  0  0  0  0  0  0
    4.2305    3.2705   -2.2237 C   0  0  0  0  0  0  0  0  0  0  0  0
    3.0438    2.9661   -2.2406 O   0  0  0  0  0  0  0  0  0  0  0  0
    4.7395    4.4316   -3.1038 C   0  0  1  0  0  0  0  0  0  0  0  0
    5.5819    4.9232   -2.5970 H   0  0  0  0  0  0  0  0  0  0  0  0
    5.2797    3.8125   -4.3231 N   0  0  0  0  0  0  0  0  0  0  0  0
    3.6270    5.4583   -3.3667 C   0  0  0  0  0  0  0  0  0  0  0  0
    3.1087    6.2493   -2.1509 C   0  0  1  0  0  0  0  0  0  0  0  0
    4.1883    7.1350   -1.5131 C   0  0  0  0  0  0  0  0  0  0  0  0
    1.8859    7.0876   -2.5463 C   0  0  0  0  0  0  0  0  0  0  0  0
    6.5738    2.8087   -1.6716 C   0  0  1  0  0  0  0  0  0  0  0  0
    7.3024    3.8654   -0.8702 C   0  0  0  0  0  0  0  0  0  0  0  0
    7.5730    2.4048   -0.6232 C   0  0  0  0  0  0  0  0  0  0  0  0
    1.0007    2.3739    0.9152 H   0  0  0  0  0  0  0  0  0  0  0  0
    1.6923    0.7369    0.9886 H   0  0  0  0  0  0  0  0  0  0  0  0
    1.8135    1.7097   -0.5143 H   0  0  0  0  0  0  0  0  0  0  0  0
    3.3018    3.3322    0.6021 H   0  0  0  0  0  0  0  0  0  0  0  0
    3.0451    1.5878    3.1261 H   0  0  0  0  0  0  0  0  0  0  0  0
    2.3152    3.1932    2.8990 H   0  0  0  0  0  0  0  0  0  0  0  0
    4.0863    3.0208    2.9558 H   0  0  0  0  0  0  0  0  0  0  0  0
    4.2348    0.4536    1.0750 H   0  0  0  0  0  0  0  0  0  0  0  0
    5.2816    1.8641    1.2004 H   0  0  0  0  0  0  0  0  0  0  0  0
    3.8225    0.9753   -1.3587 H   0  0  0  0  0  0  0  0  0  0  0  0
    5.5027    0.5872   -0.9455 H   0  0  0  0  0  0  0  0  0  0  0  0
    5.6800    4.5280   -4.9307 H   0  0  0  0  0  0  0  0  0  0  0  0
    4.5171    3.3818   -4.8496 H   0  0  0  0  0  0  0  0  0  0  0  0
    2.7814    4.9187   -3.8234 H   0  0  0  0  0  0  0  0  0  0  0  0
    4.0054    6.1708   -4.1242 H   0  0  0  0  0  0  0  0  0  0  0  0
    2.7741    5.5133   -1.3989 H   0  0  0  0  0  0  0  0  0  0  0  0
    4.5701    7.8773   -2.2363 H   0  0  0  0  0  0  0  0  0  0  0  0
    5.0494    6.5533   -1.1475 H   0  0  0  0  0  0  0  0  0  0  0  0
    3.7841    7.6920   -0.6522 H   0  0  0  0  0  0  0  0  0  0  0  0
    2.1491    7.8364   -3.3140 H   0  0  0  0  0  0  0  0  0  0  0  0
    1.4751    7.6316   -1.6800 H   0  0  0  0  0  0  0  0  0  0  0  0
    1.0828    6.4555   -2.9577 H   0  0  0  0  0  0  0  0  0  0  0  0
    6.8882    2.7025   -2.7155 H   0  0  0  0  0  0  0  0  0  0  0  0
    6.7213    4.3975   -0.1118 H   0  0  0  0  0  0  0  0  0  0  0  0
    8.0579    4.4713   -1.3786 H   0  0  0  0  0  0  0  0  0  0  0  0
    7.2144    1.9768    0.3148 H   0  0  0  0  0  0  0  0  0  0  0  0
    8.5151    1.9752   -0.9744 H   0  0  0  0  0  0  0  0  0  0  0  0
  1  2  1  0
  1 19  1  0
  1 20  1  0
  1 21  1  0
  2  3  1  0
  2  4  1  0
  2 22  1  6
  3 23  1  0
  3 24  1  0
  3 25  1  0
  4  5  1  0
  4 26  1  0
  4 27  1  0
  5  6  1  0
  5 28  1  0
  5 29  1  0
  6  7  1  0
  6 16  1  0
  7  8  2  0
  7  9  1  0
  9 10  1  1
  9 11  1  0
  9 12  1  0
 11 30  1  0
 11 31  1  0
 12 13  1  0
 12 32  1  0
 12 33  1  0
 13 14  1  0
 13 15  1  0
 13 34  1  1
 14 35  1  0
 14 36  1  0
 14 37  1  0
 15 38  1  0
 15 39  1  0
 15 40  1  0
 16 17  1  0
 16 18  1  0
 16 41  1  6
 17 18  1  0
 17 42  1  0
 17 43  1  0
 18 44  1  0
 18 45  1  0
M  END

