
     RDKit          3D

 60 62  0  0  0  0  0  0  0  0999 V2000
    1.8297    1.6674    1.5793 C   0  0  0  0  0  0  0  0  0  0  0  0
    3.1954    1.3147    1.0404 C   0  0  0  0  0  0  0  0  0  0  0  0
    3.4594    1.3060   -0.3323 C   0  0  0  0  0  0  0  0  0  0  0  0
    4.7236    0.9775   -0.8438 C   0  0  0  0  0  0  0  0  0  0  0  0
    4.9455    0.9842   -2.3383 C   0  0  0  0  0  0  0  0  0  0  0  0
    5.7645    0.6445    0.0489 C   0  0  0  0  0  0  0  0  0  0  0  0
    7.1183    0.2805   -0.4739 C   0  0  0  0  0  0  0  0  0  0  0  0
    7.9732    1.2077   -0.9874 C   0  0  0  0  0  0  0  0  0  0  0  0
    7.5854    2.4995   -1.0674 O   0  0  0  0  0  0  0  0  0  0  0  0
    9.3449    0.9035   -1.5279 C   0  0  0  0  0  0  0  0  0  0  0  0
    9.9297   -0.3994   -0.9633 C   0  0  2  0  0  0  0  0  0  0  0  0
   11.3416   -0.7679   -1.5268 C   0  0  1  0  0  0  0  0  0  0  0  0
   11.8651   -2.0434   -0.8338 C   0  0  0  0  0  0  0  0  0  0  0  0
   11.3189   -1.0108   -3.0509 C   0  0  0  0  0  0  0  0  0  0  0  0
   12.3567    0.3821   -1.2875 C   0  0  0  0  0  0  0  0  0  0  0  0
   12.6596    0.8107    0.4757 S   0  0  0  0  0  0  0  0  0  0  0  0
   12.3667    2.5595    0.5425 C   0  0  0  0  0  0  0  0  0  0  0  0
   12.6639    3.2040    1.7658 C   0  0  0  0  0  0  0  0  0  0  0  0
   12.4632    4.5708    1.8605 C   0  0  0  0  0  0  0  0  0  0  0  0
   11.9801    5.2712    0.7414 C   0  0  0  0  0  0  0  0  0  0  0  0
   11.7956    6.7635    0.7956 C   0  0  1  0  0  0  0  0  0  0  0  0
   11.1975    7.1420    1.9393 F   0  0  0  0  0  0  0  0  0  0  0  0
   12.9749    7.4111    0.7418 F   0  0  0  0  0  0  0  0  0  0  0  0
   11.0475    7.2132   -0.2257 F   0  0  0  0  0  0  0  0  0  0  0  0
   11.7109    4.5440   -0.4171 C   0  0  0  0  0  0  0  0  0  0  0  0
   11.8931    3.2229   -0.5111 N   0  0  0  0  0  0  0  0  0  0  0  0
    8.8695   -1.4984   -1.1103 C   0  0  0  0  0  0  0  0  0  0  0  0
    7.5344   -1.1386   -0.4561 C   0  0  0  0  0  0  0  0  0  0  0  0
    6.8390   -2.0160    0.0287 O   0  0  0  0  0  0  0  0  0  0  0  0
    5.5166    0.6409    1.4416 C   0  0  0  0  0  0  0  0  0  0  0  0
    6.6009    0.2715    2.4250 C   0  0  0  0  0  0  0  0  0  0  0  0
    4.2418    0.9786    1.9095 C   0  0  0  0  0  0  0  0  0  0  0  0
    1.1292    1.9256    0.7711 H   0  0  0  0  0  0  0  0  0  0  0  0
    1.8791    2.5269    2.2691 H   0  0  0  0  0  0  0  0  0  0  0  0
    1.3930    0.8278    2.1464 H   0  0  0  0  0  0  0  0  0  0  0  0
    2.6572    1.5592   -1.0324 H   0  0  0  0  0  0  0  0  0  0  0  0
    3.9973    1.1232   -2.8785 H   0  0  0  0  0  0  0  0  0  0  0  0
    5.3975    0.0414   -2.6860 H   0  0  0  0  0  0  0  0  0  0  0  0
    5.6246    1.8002   -2.6358 H   0  0  0  0  0  0  0  0  0  0  0  0
    8.3206    3.0413   -1.3847 H   0  0  0  0  0  0  0  0  0  0  0  0
   10.0014    1.7601   -1.2980 H   0  0  0  0  0  0  0  0  0  0  0  0
    9.2738    0.8540   -2.6314 H   0  0  0  0  0  0  0  0  0  0  0  0
   10.0731   -0.2330    0.1187 H   0  0  0  0  0  0  0  0  0  0  0  0
   11.2642   -2.9261   -1.0960 H   0  0  0  0  0  0  0  0  0  0  0  0
   11.8507   -1.9432    0.2636 H   0  0  0  0  0  0  0  0  0  0  0  0
   12.9028   -2.2515   -1.1409 H   0  0  0  0  0  0  0  0  0  0  0  0
   10.6314   -1.8285   -3.3157 H   0  0  0  0  0  0  0  0  0  0  0  0
   12.3201   -1.2978   -3.4105 H   0  0  0  0  0  0  0  0  0  0  0  0
   11.0143   -0.1149   -3.6142 H   0  0  0  0  0  0  0  0  0  0  0  0
   12.0582    1.3193   -1.7759 H   0  0  0  0  0  0  0  0  0  0  0  0
   13.3336    0.0874   -1.6996 H   0  0  0  0  0  0  0  0  0  0  0  0
   13.0461    2.6301    2.6124 H   0  0  0  0  0  0  0  0  0  0  0  0
   12.6775    5.0984    2.7928 H   0  0  0  0  0  0  0  0  0  0  0  0
   11.3265    5.0510   -1.3076 H   0  0  0  0  0  0  0  0  0  0  0  0
    9.1789   -2.4537   -0.6665 H   0  0  0  0  0  0  0  0  0  0  0  0
    8.6606   -1.6939   -2.1787 H   0  0  0  0  0  0  0  0  0  0  0  0
    6.8618   -0.7948    2.3314 H   0  0  0  0  0  0  0  0  0  0  0  0
    6.2774    0.4543    3.4605 H   0  0  0  0  0  0  0  0  0  0  0  0
    7.5235    0.8485    2.2500 H   0  0  0  0  0  0  0  0  0  0  0  0
    4.0602    0.9772    2.9892 H   0  0  0  0  0  0  0  0  0  0  0  0
  1  2  1  0
  1 33  1  0
  1 34  1  0
  1 35  1  0
  2  3  2  0
  2 32  1  0
  3  4  1  0
  3 36  1  0
  4  5  1  0
  4  6  2  0
  5 37  1  0
  5 38  1  0
  5 39  1  0
  6  7  1  0
  6 30  1  0
  7  8  2  0
  7 28  1  0
  8  9  1  0
  8 10  1  0
  9 40  1  0
 10 11  1  0
 10 41  1  0
 10 42  1  0
 11 12  1  0
 11 27  1  0
 11 43  1  1
 12 13  1  1
 12 14  1  0
 12 15  1  0
 13 44  1  0
 13 45  1  0
 13 46  1  0
 14 47  1  0
 14 48  1  0
 14 49  1  0
 15 16  1  0
 15 50  1  0
 15 51  1  0
 16 17  1  0
 17 18  2  0
 17 26  1  0
 18 19  1  0
 18 52  1  0
 19 20  2  0
 19 53  1  0
 20 21  1  0
 20 25  1  0
 21 22  1  1
 21 23  1  0
 21 24  1  0
 25 26  2  0
 25 54  1  0
 27 28  1  0
 27 55  1  0
 27 56  1  0
 28 29  2  0
 30 31  1  0
 30 32  2  0
 31 57  1  0
 31 58  1  0
 31 59  1  0
 32 60  1  0
M  END

