
     RDKit          3D

 81 86  0  0  0  0  0  0  0  0999 V2000
    0.9599   -0.5962    0.0223 C   0  0  0  0  0  0  0  0  0  0  0  0
    2.4279   -0.5696    0.3916 C   0  0  0  0  0  0  0  0  0  0  0  0
    2.8242    0.0091    1.3812 O   0  0  0  0  0  0  0  0  0  0  0  0
    3.3965   -1.4606   -0.4096 C   0  0  1  0  0  0  0  0  0  0  0  0
    3.3417   -2.3507    0.2427 H   0  0  0  0  0  0  0  0  0  0  0  0
    2.8757   -2.0004   -1.6208 O   0  0  0  0  0  0  0  0  0  0  0  0
    2.9790   -1.5268   -2.9877 C   0  0  1  0  0  0  0  0  0  0  0  0
    4.4122   -1.1905   -3.4224 C   0  0  0  0  0  0  0  0  0  0  0  0
    2.4864   -2.7487   -3.7780 C   0  0  0  0  0  0  0  0  0  0  0  0
    2.0343   -0.3448   -3.2535 C   0  0  0  0  0  0  0  0  0  0  0  0
    4.8733   -1.0527   -0.3548 C   0  0  0  0  0  0  0  0  0  0  0  0
    5.3238    0.2983   -0.5395 C   0  0  0  0  0  0  0  0  0  0  0  0
    4.3860    1.4712   -0.7101 C   0  0  0  0  0  0  0  0  0  0  0  0
    6.6803    0.5662   -0.5319 C   0  0  0  0  0  0  0  0  0  0  0  0
    7.6712   -0.4298   -0.3325 C   0  0  0  0  0  0  0  0  0  0  0  0
    9.0761   -0.1137   -0.3318 C   0  0  0  0  0  0  0  0  0  0  0  0
    9.4981    1.3293   -0.4885 C   0  0  0  0  0  0  0  0  0  0  0  0
   10.0061   -1.1401   -0.1467 C   0  0  0  0  0  0  0  0  0  0  0  0
   11.4774   -0.9304   -0.1807 C   0  0  0  0  0  0  0  0  0  0  0  0
   12.3263   -1.3736    0.8493 C   0  0  0  0  0  0  0  0  0  0  0  0
   13.6450   -1.2395    0.8292 N   0  0  0  0  0  0  0  0  0  0  0  0
   14.1890   -0.6455   -0.2535 C   0  0  0  0  0  0  0  0  0  0  0  0
   15.5499   -0.4904   -0.2850 N   0  0  0  0  0  0  0  0  0  0  0  0
   16.3959   -0.9363    0.8028 C   0  0  0  0  0  0  0  0  0  0  0  0
   16.2231    0.1348   -1.4047 C   0  0  0  0  0  0  0  0  0  0  0  0
   13.4774   -0.1993   -1.3101 N   0  0  0  0  0  0  0  0  0  0  0  0
   12.1610   -0.3463   -1.2623 C   0  0  0  0  0  0  0  0  0  0  0  0
    9.5401   -2.4684    0.0891 C   0  0  0  0  0  0  0  0  0  0  0  0
    8.2023   -2.7765    0.1119 C   0  0  0  0  0  0  0  0  0  0  0  0
    7.2224   -1.7704   -0.1150 C   0  0  0  0  0  0  0  0  0  0  0  0
    5.8168   -2.0595   -0.1262 C   0  0  0  0  0  0  0  0  0  0  0  0
    5.3935   -3.4664    0.1818 C   0  0  0  0  0  0  0  0  0  0  0  0
    5.0239   -3.8142    1.4758 C   0  0  0  0  0  0  0  0  0  0  0  0
    4.6159   -5.1187    1.8312 C   0  0  0  0  0  0  0  0  0  0  0  0
    4.5970   -6.1167    0.8748 C   0  0  0  0  0  0  0  0  0  0  0  0
    5.0132   -5.8262   -0.4586 C   0  0  0  0  0  0  0  0  0  0  0  0
    5.0981   -6.8589   -1.4347 C   0  0  0  0  0  0  0  0  0  0  0  0
    5.5247   -6.5203   -2.7024 C   0  0  0  0  0  0  0  0  0  0  0  0
    5.8635   -5.1692   -2.9698 C   0  0  0  0  0  0  0  0  0  0  0  0
    5.8112   -4.2011   -2.0815 N   0  0  0  0  0  0  0  0  0  0  0  0
    5.4017   -4.4928   -0.8158 C   0  0  0  0  0  0  0  0  0  0  0  0
    4.7548   -8.2575   -0.9873 C   0  0  0  0  0  0  0  0  0  0  0  0
    3.7517   -8.2062    0.1610 C   0  0  0  0  0  0  0  0  0  0  0  0
    4.2055   -7.3708    1.2238 O   0  0  0  0  0  0  0  0  0  0  0  0
    0.3693   -0.3097    0.9028 H   0  0  0  0  0  0  0  0  0  0  0  0
    0.6559   -1.5794   -0.3625 H   0  0  0  0  0  0  0  0  0  0  0  0
    0.7672    0.1349   -0.7786 H   0  0  0  0  0  0  0  0  0  0  0  0
    5.1041   -1.9891   -3.1200 H   0  0  0  0  0  0  0  0  0  0  0  0
    4.7702   -0.2421   -3.0024 H   0  0  0  0  0  0  0  0  0  0  0  0
    4.4394   -1.0945   -4.5200 H   0  0  0  0  0  0  0  0  0  0  0  0
    3.1670   -3.5979   -3.6218 H   0  0  0  0  0  0  0  0  0  0  0  0
    2.4389   -2.5256   -4.8553 H   0  0  0  0  0  0  0  0  0  0  0  0
    1.4831   -3.0435   -3.4349 H   0  0  0  0  0  0  0  0  0  0  0  0
    2.3045    0.5431   -2.6643 H   0  0  0  0  0  0  0  0  0  0  0  0
    0.9920   -0.6130   -3.0250 H   0  0  0  0  0  0  0  0  0  0  0  0
    2.0851   -0.0555   -4.3151 H   0  0  0  0  0  0  0  0  0  0  0  0
    3.4894    1.2247   -1.2933 H   0  0  0  0  0  0  0  0  0  0  0  0
    4.8952    2.3022   -1.2203 H   0  0  0  0  0  0  0  0  0  0  0  0
    4.0341    1.8301    0.2690 H   0  0  0  0  0  0  0  0  0  0  0  0
    6.9927    1.5992   -0.6879 H   0  0  0  0  0  0  0  0  0  0  0  0
    8.9510    1.9783    0.2140 H   0  0  0  0  0  0  0  0  0  0  0  0
    9.2916    1.7144   -1.5019 H   0  0  0  0  0  0  0  0  0  0  0  0
   10.5681    1.4666   -0.2926 H   0  0  0  0  0  0  0  0  0  0  0  0
   11.8994   -1.8532    1.7397 H   0  0  0  0  0  0  0  0  0  0  0  0
   15.7771   -1.3857    1.5861 H   0  0  0  0  0  0  0  0  0  0  0  0
   16.9627   -0.0881    1.2297 H   0  0  0  0  0  0  0  0  0  0  0  0
   17.1292   -1.6831    0.4462 H   0  0  0  0  0  0  0  0  0  0  0  0
   15.4861    0.4134   -2.1647 H   0  0  0  0  0  0  0  0  0  0  0  0
   16.9614   -0.5570   -1.8506 H   0  0  0  0  0  0  0  0  0  0  0  0
   16.7676    1.0404   -1.0784 H   0  0  0  0  0  0  0  0  0  0  0  0
   11.6014    0.0029   -2.1391 H   0  0  0  0  0  0  0  0  0  0  0  0
   10.2777   -3.2617    0.2328 H   0  0  0  0  0  0  0  0  0  0  0  0
    7.8884   -3.8050    0.2896 H   0  0  0  0  0  0  0  0  0  0  0  0
    5.0318   -3.0401    2.2477 H   0  0  0  0  0  0  0  0  0  0  0  0
    4.3090   -5.3536    2.8519 H   0  0  0  0  0  0  0  0  0  0  0  0
    5.6092   -7.2713   -3.4919 H   0  0  0  0  0  0  0  0  0  0  0  0
    6.1963   -4.8914   -3.9783 H   0  0  0  0  0  0  0  0  0  0  0  0
    5.6745   -8.7663   -0.6452 H   0  0  0  0  0  0  0  0  0  0  0  0
    4.3499   -8.8553   -1.8195 H   0  0  0  0  0  0  0  0  0  0  0  0
    3.5940   -9.1981    0.6060 H   0  0  0  0  0  0  0  0  0  0  0  0
    2.7766   -7.8303   -0.2030 H   0  0  0  0  0  0  0  0  0  0  0  0
  1  2  1  0
  1 45  1  0
  1 46  1  0
  1 47  1  0
  2  3  2  0
  2  4  1  0
  4  5  1  1
  4  6  1  0
  4 11  1  0
  7  6  1  1
  7  8  1  0
  7  9  1  0
  7 10  1  0
  8 48  1  0
  8 49  1  0
  8 50  1  0
  9 51  1  0
  9 52  1  0
  9 53  1  0
 10 54  1  0
 10 55  1  0
 10 56  1  0
 11 12  2  0
 11 31  1  0
 12 13  1  0
 12 14  1  0
 13 57  1  0
 13 58  1  0
 13 59  1  0
 14 15  2  0
 14 60  1  0
 15 16  1  0
 15 30  1  0
 16 17  1  0
 16 18  2  0
 17 61  1  0
 17 62  1  0
 17 63  1  0
 18 19  1  0
 18 28  1  0
 19 20  2  0
 19 27  1  0
 20 21  1  0
 20 64  1  0
 21 22  2  0
 22 23  1  0
 22 26  1  0
 23 24  1  0
 23 25  1  0
 24 65  1  0
 24 66  1  0
 24 67  1  0
 25 68  1  0
 25 69  1  0
 25 70  1  0
 26 27  2  0
 27 71  1  0
 28 29  2  0
 28 72  1  0
 29 30  1  0
 29 73  1  0
 30 31  2  0
 31 32  1  0
 32 33  2  0
 32 41  1  0
 33 34  1  0
 33 74  1  0
 34 35  2  0
 34 75  1  0
 35 36  1  0
 35 44  1  0
 36 37  1  0
 36 41  2  0
 37 38  2  0
 37 42  1  0
 38 39  1  0
 38 76  1  0
 39 40  2  0
 39 77  1  0
 40 41  1  0
 42 43  1  0
 42 78  1  0
 42 79  1  0
 43 44  1  0
 43 80  1  0
 43 81  1  0
M  END

