
     RDKit          3D

 74 79  0  0  0  0  0  0  0  0999 V2000
    3.0882   -2.8572   -0.5655 C   0  0  0  0  0  0  0  0  0  0  0  0
    3.0770   -3.6347    0.7394 C   0  0  0  0  0  0  0  0  0  0  0  0
    3.6795   -2.8790    1.8115 O   0  0  0  0  0  0  0  0  0  0  0  0
    2.8945   -2.0408    2.4867 C   0  0  0  0  0  0  0  0  0  0  0  0
    1.7206   -1.8575    2.2749 O   0  0  0  0  0  0  0  0  0  0  0  0
    3.6193   -1.2803    3.5880 C   0  0  0  0  0  0  0  0  0  0  0  0
    4.9363   -1.7306    3.7668 O   0  0  0  0  0  0  0  0  0  0  0  0
    5.7221   -1.1389    4.7007 C   0  0  0  0  0  0  0  0  0  0  0  0
    5.3176   -0.0901    5.5388 C   0  0  0  0  0  0  0  0  0  0  0  0
    6.2213    0.4387    6.4646 C   0  0  0  0  0  0  0  0  0  0  0  0
    7.5344   -0.0473    6.5899 C   0  0  0  0  0  0  0  0  0  0  0  0
    8.4265    0.5543    7.5851 C   0  0  0  0  0  0  0  0  0  0  0  0
    9.6876    0.1826    7.8893 C   0  0  0  0  0  0  0  0  0  0  0  0
   10.5083    0.8183    8.9370 C   0  0  0  0  0  0  0  0  0  0  0  0
   10.7612    2.1991    8.9279 C   0  0  0  0  0  0  0  0  0  0  0  0
   10.5174    3.2196    7.9260 C   0  0  0  0  0  0  0  0  0  0  0  0
    9.9302    3.2307    6.6416 C   0  0  0  0  0  0  0  0  0  0  0  0
    9.8234    4.4341    5.9562 C   0  0  0  0  0  0  0  0  0  0  0  0
   10.2647    5.6498    6.5245 C   0  0  0  0  0  0  0  0  0  0  0  0
   10.8724    5.6585    7.7705 C   0  0  0  0  0  0  0  0  0  0  0  0
   11.0402    4.4371    8.4528 C   0  0  0  0  0  0  0  0  0  0  0  0
   11.6308    4.1371    9.7328 C   0  0  0  0  0  0  0  0  0  0  0  0
   12.2717    5.0747   10.6280 C   0  0  0  0  0  0  0  0  0  0  0  0
   12.1178    4.9977   12.0021 N   0  0  0  0  0  0  0  0  0  0  0  0
   11.6166    4.2376   12.4601 H   0  0  0  0  0  0  0  0  0  0  0  0
   12.8267    5.9771   12.6210 C   0  0  0  0  0  0  0  0  0  0  0  0
   12.8357    6.1347   14.1068 C   0  0  0  0  0  0  0  0  0  0  0  0
   13.4673    6.7153   11.6291 C   0  0  0  0  0  0  0  0  0  0  0  0
   13.1327    6.1614   10.3678 C   0  0  0  0  0  0  0  0  0  0  0  0
   13.7286    6.6040    9.0618 C   0  0  0  0  0  0  0  0  0  0  0  0
   11.4506    2.8173    9.9827 N   0  0  0  0  0  0  0  0  0  0  0  0
   11.9953    2.0446   11.2365 B   0  0  1  0  0  0  0  0  0  0  0  0
   13.3295    2.3507   11.4431 F   0  0  0  0  0  0  0  0  0  0  0  0
   11.2377    2.4332   12.3751 F   0  0  0  0  0  0  0  0  0  0  0  0
   11.8019    0.5422   10.9885 N   0  0  0  0  0  0  0  0  0  0  0  0
   12.1973   -0.4465   11.8306 C   0  0  0  0  0  0  0  0  0  0  0  0
   13.0076   -0.1960   13.0600 C   0  0  0  0  0  0  0  0  0  0  0  0
   11.7004   -1.6675   11.3499 C   0  0  0  0  0  0  0  0  0  0  0  0
   10.9647   -1.4191   10.1823 C   0  0  0  0  0  0  0  0  0  0  0  0
   10.2592   -2.4742    9.3825 C   0  0  0  0  0  0  0  0  0  0  0  0
   11.0459   -0.0118    9.9607 C   0  0  0  0  0  0  0  0  0  0  0  0
    7.9180   -1.1037    5.7305 C   0  0  0  0  0  0  0  0  0  0  0  0
    7.0345   -1.6398    4.8071 C   0  0  0  0  0  0  0  0  0  0  0  0
    2.6992   -3.4898   -1.3793 H   0  0  0  0  0  0  0  0  0  0  0  0
    4.1107   -2.5463   -0.8302 H   0  0  0  0  0  0  0  0  0  0  0  0
    2.4509   -1.9634   -0.4946 H   0  0  0  0  0  0  0  0  0  0  0  0
    3.6875   -4.5461    0.6689 H   0  0  0  0  0  0  0  0  0  0  0  0
    2.0515   -3.9070    1.0293 H   0  0  0  0  0  0  0  0  0  0  0  0
    3.0140   -1.3934    4.5061 H   0  0  0  0  0  0  0  0  0  0  0  0
    3.5872   -0.2091    3.3108 H   0  0  0  0  0  0  0  0  0  0  0  0
    4.3100    0.3222    5.4842 H   0  0  0  0  0  0  0  0  0  0  0  0
    5.8931    1.2558    7.1129 H   0  0  0  0  0  0  0  0  0  0  0  0
    7.9965    1.3940    8.1419 H   0  0  0  0  0  0  0  0  0  0  0  0
   10.1285   -0.6869    7.3948 H   0  0  0  0  0  0  0  0  0  0  0  0
    9.5586    2.3166    6.1841 H   0  0  0  0  0  0  0  0  0  0  0  0
    9.3701    4.4412    4.9615 H   0  0  0  0  0  0  0  0  0  0  0  0
   10.1256    6.5855    5.9776 H   0  0  0  0  0  0  0  0  0  0  0  0
   11.2028    6.5933    8.2215 H   0  0  0  0  0  0  0  0  0  0  0  0
   13.1548    5.2061   14.6099 H   0  0  0  0  0  0  0  0  0  0  0  0
   11.8363    6.3925   14.4986 H   0  0  0  0  0  0  0  0  0  0  0  0
   13.5282    6.9353   14.4016 H   0  0  0  0  0  0  0  0  0  0  0  0
   14.1344    7.5587   11.8023 H   0  0  0  0  0  0  0  0  0  0  0  0
   14.8025    6.8145    9.1900 H   0  0  0  0  0  0  0  0  0  0  0  0
   13.2682    7.5327    8.6820 H   0  0  0  0  0  0  0  0  0  0  0  0
   13.6304    5.8412    8.2775 H   0  0  0  0  0  0  0  0  0  0  0  0
   13.9585    0.3015   12.8155 H   0  0  0  0  0  0  0  0  0  0  0  0
   13.2186   -1.1423   13.5768 H   0  0  0  0  0  0  0  0  0  0  0  0
   12.4706    0.4722   13.7531 H   0  0  0  0  0  0  0  0  0  0  0  0
   11.8598   -2.6390   11.8159 H   0  0  0  0  0  0  0  0  0  0  0  0
   10.2898   -3.4345    9.9187 H   0  0  0  0  0  0  0  0  0  0  0  0
   10.7286   -2.6397    8.3971 H   0  0  0  0  0  0  0  0  0  0  0  0
    9.2030   -2.2237    9.1983 H   0  0  0  0  0  0  0  0  0  0  0  0
    8.9301   -1.5105    5.7836 H   0  0  0  0  0  0  0  0  0  0  0  0
    7.3312   -2.4541    4.1431 H   0  0  0  0  0  0  0  0  0  0  0  0
  1  2  1  0
  1 44  1  0
  1 45  1  0
  1 46  1  0
  2  3  1  0
  2 47  1  0
  2 48  1  0
  3  4  1  0
  4  5  2  0
  4  6  1  0
  6  7  1  0
  6 49  1  0
  6 50  1  0
  7  8  1  0
  8  9  2  0
  8 43  1  0
  9 10  1  0
  9 51  1  0
 10 11  2  0
 10 52  1  0
 11 12  1  0
 11 42  1  0
 12 13  2  0
 12 53  1  0
 13 14  1  0
 13 54  1  0
 14 15  1  0
 14 41  2  0
 15 16  2  0
 15 31  1  0
 16 17  1  0
 16 21  1  0
 17 18  2  0
 17 55  1  0
 18 19  1  0
 18 56  1  0
 19 20  2  0
 19 57  1  0
 20 21  1  0
 20 58  1  0
 21 22  2  0
 22 23  1  0
 22 31  1  0
 23 24  1  0
 23 29  2  0
 24 25  1  0
 24 26  1  0
 26 27  1  0
 26 28  2  0
 27 59  1  0
 27 60  1  0
 27 61  1  0
 28 29  1  0
 28 62  1  0
 29 30  1  0
 30 63  1  0
 30 64  1  0
 30 65  1  0
 31 32  1  0
 32 33  1  1
 32 34  1  0
 32 35  1  0
 35 36  2  0
 35 41  1  0
 36 37  1  0
 36 38  1  0
 37 66  1  0
 37 67  1  0
 37 68  1  0
 38 39  2  0
 38 69  1  0
 39 40  1  0
 39 41  1  0
 40 70  1  0
 40 71  1  0
 40 72  1  0
 42 43  2  0
 42 73  1  0
 43 74  1  0
M  CHG  2  32  -1  35   1
M  END

