
     RDKit          3D

112113  0  0  0  0  0  0  0  0999 V2000
   -2.6032   12.1384   29.9588 C   0  0  0  0  0  0  0  0  0  0  0  0
   -2.2847   11.3170   28.9467 C   0  0  0  0  0  0  0  0  0  0  0  0
   -1.1771   11.6698   27.9743 C   0  0  0  0  0  0  0  0  0  0  0  0
   -1.6346   11.8385   26.5143 C   0  0  0  0  0  0  0  0  0  0  0  0
   -0.4960   12.2695   25.5833 C   0  0  0  0  0  0  0  0  0  0  0  0
   -0.8513   12.3615   24.0859 C   0  0  1  0  0  0  0  0  0  0  0  0
   -1.9207   13.4289   23.8134 C   0  0  0  0  0  0  0  0  0  0  0  0
    0.4263   12.5898   23.2521 C   0  0  0  0  0  0  0  0  0  0  0  0
    0.2534   12.4817   21.7319 C   0  0  0  0  0  0  0  0  0  0  0  0
    1.5470   12.6630   20.9202 C   0  0  0  0  0  0  0  0  0  0  0  0
    2.5638   11.5239   21.0659 C   0  0  0  0  0  0  0  0  0  0  0  0
    3.8892   11.7115   20.2990 C   0  0  2  0  0  0  0  0  0  0  0  0
    4.3159   12.6846   20.6134 H   0  0  0  0  0  0  0  0  0  0  0  0
    3.6774   11.7611   18.7791 C   0  0  0  0  0  0  0  0  0  0  0  0
    4.8940   10.6159   20.7081 C   0  0  0  0  0  0  0  0  0  0  0  0
    6.3348   10.8107   20.2002 C   0  0  0  0  0  0  0  0  0  0  0  0
    7.2599    9.7099   20.6434 C   0  0  0  0  0  0  0  0  0  0  0  0
    8.3596    9.7847   21.4171 C   0  0  0  0  0  0  0  0  0  0  0  0
    8.9126   11.0677   21.9894 C   0  0  0  0  0  0  0  0  0  0  0  0
    9.1387    8.5255   21.7577 C   0  0  0  0  0  0  0  0  0  0  0  0
    8.9380    8.0624   23.2180 C   0  0  0  0  0  0  0  0  0  0  0  0
    9.7548    6.8486   23.7389 C   0  0  2  0  0  0  0  0  0  0  0  0
    9.6260    6.8835   24.8389 H   0  0  0  0  0  0  0  0  0  0  0  0
   11.2858    6.9967   23.5050 C   0  0  1  0  0  0  0  0  0  0  0  0
   11.4805    6.9321   22.4182 H   0  0  0  0  0  0  0  0  0  0  0  0
   11.8339    8.3443   23.9975 C   0  0  0  0  0  0  0  0  0  0  0  0
   12.0683    5.8553   24.1800 C   0  0  0  0  0  0  0  0  0  0  0  0
   11.5567    4.4683   23.7959 C   0  0  0  0  0  0  0  0  0  0  0  0
   10.0574    4.3568   24.0697 C   0  0  0  0  0  0  0  0  0  0  0  0
    9.2022    5.4278   23.3420 C   0  0  1  0  0  0  0  0  0  0  0  0
    7.7514    5.2603   23.8353 C   0  0  0  0  0  0  0  0  0  0  0  0
    9.2251    5.1513   21.8228 C   0  0  0  0  0  0  0  0  0  0  0  0
   -3.0236   10.0081   28.7407 C   0  0  0  0  0  0  0  0  0  0  0  0
   -2.1060    8.7695   28.8168 C   0  0  0  0  0  0  0  0  0  0  0  0
   -2.7412    7.3578   28.9096 C   0  0  2  0  0  0  0  0  0  0  0  0
   -1.8647    6.6839   28.9291 H   0  0  0  0  0  0  0  0  0  0  0  0
   -3.5651    6.9197   27.6643 C   0  0  2  0  0  0  0  0  0  0  0  0
   -3.7347    5.8369   27.7941 H   0  0  0  0  0  0  0  0  0  0  0  0
   -2.8120    7.0816   26.3397 C   0  0  0  0  0  0  0  0  0  0  0  0
   -4.9655    7.5579   27.5996 C   0  0  0  0  0  0  0  0  0  0  0  0
   -5.6341    7.6468   28.9421 C   0  0  0  0  0  0  0  0  0  0  0  0
   -4.9978    7.4280   30.0989 C   0  0  0  0  0  0  0  0  0  0  0  0
   -3.5330    7.0447   30.2322 C   0  0  1  0  0  0  0  0  0  0  0  0
   -3.4612    5.5240   30.5303 C   0  0  0  0  0  0  0  0  0  0  0  0
   -2.9333    7.7666   31.4582 C   0  0  0  0  0  0  0  0  0  0  0  0
   -2.0756   13.0842   30.1172 H   0  0  0  0  0  0  0  0  0  0  0  0
   -3.4044   11.8954   30.6636 H   0  0  0  0  0  0  0  0  0  0  0  0
   -0.3916   10.8920   28.0090 H   0  0  0  0  0  0  0  0  0  0  0  0
   -0.6934   12.6031   28.3077 H   0  0  0  0  0  0  0  0  0  0  0  0
   -2.4554   12.5749   26.4866 H   0  0  0  0  0  0  0  0  0  0  0  0
   -2.0616   10.8900   26.1417 H   0  0  0  0  0  0  0  0  0  0  0  0
    0.3391   11.5549   25.7002 H   0  0  0  0  0  0  0  0  0  0  0  0
   -0.0997   13.2471   25.9186 H   0  0  0  0  0  0  0  0  0  0  0  0
   -1.2686   11.3799   23.7856 H   0  0  0  0  0  0  0  0  0  0  0  0
   -1.5546   14.4310   24.0986 H   0  0  0  0  0  0  0  0  0  0  0  0
   -2.8438   13.2382   24.3816 H   0  0  0  0  0  0  0  0  0  0  0  0
   -2.2007   13.4672   22.7497 H   0  0  0  0  0  0  0  0  0  0  0  0
    1.1838   11.8588   23.5837 H   0  0  0  0  0  0  0  0  0  0  0  0
    0.8426   13.5853   23.4998 H   0  0  0  0  0  0  0  0  0  0  0  0
   -0.4741   13.2373   21.3914 H   0  0  0  0  0  0  0  0  0  0  0  0
   -0.1946   11.5006   21.4851 H   0  0  0  0  0  0  0  0  0  0  0  0
    2.0256   13.6177   21.2096 H   0  0  0  0  0  0  0  0  0  0  0  0
    1.2724   12.7755   19.8581 H   0  0  0  0  0  0  0  0  0  0  0  0
    2.0941   10.5750   20.7424 H   0  0  0  0  0  0  0  0  0  0  0  0
    2.8061   11.3879   22.1339 H   0  0  0  0  0  0  0  0  0  0  0  0
    4.6213   11.9289   18.2384 H   0  0  0  0  0  0  0  0  0  0  0  0
    2.9928   12.5716   18.4863 H   0  0  0  0  0  0  0  0  0  0  0  0
    3.2473   10.8122   18.4130 H   0  0  0  0  0  0  0  0  0  0  0  0
    4.5149    9.6342   20.3654 H   0  0  0  0  0  0  0  0  0  0  0  0
    4.9240   10.5555   21.8101 H   0  0  0  0  0  0  0  0  0  0  0  0
    6.7026   11.7969   20.5262 H   0  0  0  0  0  0  0  0  0  0  0  0
    6.3304   10.8374   19.0953 H   0  0  0  0  0  0  0  0  0  0  0  0
    6.9761    8.7114   20.2826 H   0  0  0  0  0  0  0  0  0  0  0  0
    8.3012   11.9481   21.7511 H   0  0  0  0  0  0  0  0  0  0  0  0
    9.9322   11.2530   21.6060 H   0  0  0  0  0  0  0  0  0  0  0  0
    9.0007   11.0127   23.0878 H   0  0  0  0  0  0  0  0  0  0  0  0
   10.2114    8.7120   21.5715 H   0  0  0  0  0  0  0  0  0  0  0  0
    8.8423    7.7287   21.0627 H   0  0  0  0  0  0  0  0  0  0  0  0
    7.8647    7.8688   23.3686 H   0  0  0  0  0  0  0  0  0  0  0  0
    9.1631    8.9135   23.8807 H   0  0  0  0  0  0  0  0  0  0  0  0
   11.4248    9.2034   23.4467 H   0  0  0  0  0  0  0  0  0  0  0  0
   12.9301    8.3781   23.8876 H   0  0  0  0  0  0  0  0  0  0  0  0
   11.6062    8.4940   25.0672 H   0  0  0  0  0  0  0  0  0  0  0  0
   11.9890    5.9773   25.2772 H   0  0  0  0  0  0  0  0  0  0  0  0
   13.1408    5.9530   23.9381 H   0  0  0  0  0  0  0  0  0  0  0  0
   12.1018    3.6915   24.3588 H   0  0  0  0  0  0  0  0  0  0  0  0
   11.7650    4.2738   22.7292 H   0  0  0  0  0  0  0  0  0  0  0  0
    9.8891    4.4555   25.1580 H   0  0  0  0  0  0  0  0  0  0  0  0
    9.6877    3.3543   23.7921 H   0  0  0  0  0  0  0  0  0  0  0  0
    7.6669    5.4739   24.9139 H   0  0  0  0  0  0  0  0  0  0  0  0
    7.4102    4.2242   23.6746 H   0  0  0  0  0  0  0  0  0  0  0  0
    7.0477    5.9190   23.3041 H   0  0  0  0  0  0  0  0  0  0  0  0
   10.1974    5.3717   21.3580 H   0  0  0  0  0  0  0  0  0  0  0  0
    8.4632    5.7399   21.2919 H   0  0  0  0  0  0  0  0  0  0  0  0
    9.0014    4.0888   21.6294 H   0  0  0  0  0  0  0  0  0  0  0  0
   -3.5244   10.0326   27.7581 H   0  0  0  0  0  0  0  0  0  0  0  0
   -3.8270    9.9338   29.4870 H   0  0  0  0  0  0  0  0  0  0  0  0
   -1.4337    8.8958   29.6801 H   0  0  0  0  0  0  0  0  0  0  0  0
   -1.4378    8.7687   27.9401 H   0  0  0  0  0  0  0  0  0  0  0  0
   -2.6592    8.1403   26.0743 H   0  0  0  0  0  0  0  0  0  0  0  0
   -3.3762    6.6191   25.5131 H   0  0  0  0  0  0  0  0  0  0  0  0
   -1.8212    6.5994   26.3762 H   0  0  0  0  0  0  0  0  0  0  0  0
   -5.5994    6.9688   26.9112 H   0  0  0  0  0  0  0  0  0  0  0  0
   -4.9215    8.5646   27.1434 H   0  0  0  0  0  0  0  0  0  0  0  0
   -6.6975    7.9123   28.9565 H   0  0  0  0  0  0  0  0  0  0  0  0
   -5.5613    7.4963   31.0378 H   0  0  0  0  0  0  0  0  0  0  0  0
   -3.8354    4.9204   29.6905 H   0  0  0  0  0  0  0  0  0  0  0  0
   -4.0719    5.2710   31.4120 H   0  0  0  0  0  0  0  0  0  0  0  0
   -2.4232    5.2163   30.7414 H   0  0  0  0  0  0  0  0  0  0  0  0
   -3.0226    8.8603   31.3947 H   0  0  0  0  0  0  0  0  0  0  0  0
   -1.8665    7.5187   31.5823 H   0  0  0  0  0  0  0  0  0  0  0  0
   -3.4546    7.4462   32.3751 H   0  0  0  0  0  0  0  0  0  0  0  0
  1  2  2  0
  1 46  1  0
  1 47  1  0
  2  3  1  0
  2 33  1  0
  3  4  1  0
  3 48  1  0
  3 49  1  0
  4  5  1  0
  4 50  1  0
  4 51  1  0
  5  6  1  0
  5 52  1  0
  5 53  1  0
  6  7  1  0
  6  8  1  0
  6 54  1  6
  7 55  1  0
  7 56  1  0
  7 57  1  0
  8  9  1  0
  8 58  1  0
  8 59  1  0
  9 10  1  0
  9 60  1  0
  9 61  1  0
 10 11  1  0
 10 62  1  0
 10 63  1  0
 11 12  1  0
 11 64  1  0
 11 65  1  0
 12 13  1  1
 12 14  1  0
 12 15  1  0
 14 66  1  0
 14 67  1  0
 14 68  1  0
 15 16  1  0
 15 69  1  0
 15 70  1  0
 16 17  1  0
 16 71  1  0
 16 72  1  0
 17 18  2  0
 17 73  1  0
 18 19  1  0
 18 20  1  0
 19 74  1  0
 19 75  1  0
 19 76  1  0
 20 21  1  0
 20 77  1  0
 20 78  1  0
 21 22  1  0
 21 79  1  0
 21 80  1  0
 22 23  1  1
 22 24  1  0
 22 30  1  0
 24 25  1  6
 24 26  1  0
 24 27  1  0
 26 81  1  0
 26 82  1  0
 26 83  1  0
 27 28  1  0
 27 84  1  0
 27 85  1  0
 28 29  1  0
 28 86  1  0
 28 87  1  0
 29 30  1  0
 29 88  1  0
 29 89  1  0
 30 31  1  1
 30 32  1  0
 31 90  1  0
 31 91  1  0
 31 92  1  0
 32 93  1  0
 32 94  1  0
 32 95  1  0
 33 34  1  0
 33 96  1  0
 33 97  1  0
 34 35  1  0
 34 98  1  0
 34 99  1  0
 35 36  1  1
 35 37  1  0
 35 43  1  0
 37 38  1  1
 37 39  1  0
 37 40  1  0
 39100  1  0
 39101  1  0
 39102  1  0
 40 41  1  0
 40103  1  0
 40104  1  0
 41 42  2  0
 41105  1  0
 42 43  1  0
 42106  1  0
 43 44  1  1
 43 45  1  0
 44107  1  0
 44108  1  0
 44109  1  0
 45110  1  0
 45111  1  0
 45112  1  0
M  END

