
     RDKit          3D

 46 47  0  0  0  0  0  0  0  0999 V2000
    5.2418   -0.0031    1.2829 C   0  0  0  0  0  0  0  0  0  0  0  0
    4.3463   -0.7206    0.2881 C   0  0  0  0  0  0  0  0  0  0  0  0
    4.7849   -0.3914   -1.0180 O   0  0  0  0  0  0  0  0  0  0  0  0
    4.2067   -1.0945   -2.1207 C   0  0  1  0  0  0  0  0  0  0  0  0
    2.6767   -1.0481   -2.1056 C   0  0  0  0  0  0  0  0  0  0  0  0
    4.7816   -0.3636   -3.3589 C   0  0  0  0  0  0  0  0  0  0  0  0
    4.4652   -0.9788   -4.7220 C   0  0  0  0  0  0  0  0  0  0  0  0
    4.6988   -2.5726   -2.1172 C   0  0  0  0  0  0  0  0  0  0  0  0
    3.9297   -3.4812   -2.3478 O   0  0  0  0  0  0  0  0  0  0  0  0
    6.1841   -2.8128   -1.8794 C   0  0  0  0  0  0  0  0  0  0  0  0
    6.5542   -4.2887   -1.6229 C   0  0  2  0  0  0  0  0  0  0  0  0
    6.1185   -4.7592   -0.2223 C   0  0  0  0  0  0  0  0  0  0  0  0
    7.0773   -4.2670    0.8643 C   0  0  0  0  0  0  0  0  0  0  0  0
    8.4783   -4.8384    0.6373 C   0  0  0  0  0  0  0  0  0  0  0  0
    8.9480   -4.7412   -0.8031 C   0  0  0  0  0  0  0  0  0  0  0  0
   10.3118   -4.9198   -1.0964 C   0  0  0  0  0  0  0  0  0  0  0  0
   10.7863   -4.8968   -2.4062 C   0  0  0  0  0  0  0  0  0  0  0  0
    9.8875   -4.6974   -3.4601 C   0  0  0  0  0  0  0  0  0  0  0  0
    8.5345   -4.5152   -3.1812 C   0  0  0  0  0  0  0  0  0  0  0  0
    8.0429   -4.5266   -1.8631 C   0  0  0  0  0  0  0  0  0  0  0  0
    4.9073   -0.1977    2.3140 H   0  0  0  0  0  0  0  0  0  0  0  0
    5.2147    1.0833    1.1065 H   0  0  0  0  0  0  0  0  0  0  0  0
    6.2867   -0.3369    1.1867 H   0  0  0  0  0  0  0  0  0  0  0  0
    3.2946   -0.4132    0.4393 H   0  0  0  0  0  0  0  0  0  0  0  0
    4.3848   -1.8164    0.4568 H   0  0  0  0  0  0  0  0  0  0  0  0
    2.3391   -0.0018   -2.0486 H   0  0  0  0  0  0  0  0  0  0  0  0
    2.2571   -1.6073   -1.2580 H   0  0  0  0  0  0  0  0  0  0  0  0
    2.2675   -1.5075   -3.0144 H   0  0  0  0  0  0  0  0  0  0  0  0
    5.8717   -0.2890   -3.2171 H   0  0  0  0  0  0  0  0  0  0  0  0
    4.4040    0.6713   -3.3090 H   0  0  0  0  0  0  0  0  0  0  0  0
    4.8371   -2.0123   -4.8121 H   0  0  0  0  0  0  0  0  0  0  0  0
    4.9374   -0.3887   -5.5229 H   0  0  0  0  0  0  0  0  0  0  0  0
    3.3837   -1.0014   -4.9268 H   0  0  0  0  0  0  0  0  0  0  0  0
    6.5421   -2.1443   -1.0820 H   0  0  0  0  0  0  0  0  0  0  0  0
    6.6978   -2.4503   -2.7880 H   0  0  0  0  0  0  0  0  0  0  0  0
    5.9911   -4.8760   -2.3657 H   0  0  0  0  0  0  0  0  0  0  0  0
    6.0952   -5.8632   -0.2062 H   0  0  0  0  0  0  0  0  0  0  0  0
    5.0860   -4.4313   -0.0249 H   0  0  0  0  0  0  0  0  0  0  0  0
    6.7113   -4.5538    1.8637 H   0  0  0  0  0  0  0  0  0  0  0  0
    7.1192   -3.1633    0.8577 H   0  0  0  0  0  0  0  0  0  0  0  0
    8.4799   -5.9062    0.9285 H   0  0  0  0  0  0  0  0  0  0  0  0
    9.2124   -4.3505    1.3004 H   0  0  0  0  0  0  0  0  0  0  0  0
   11.0117   -5.0831   -0.2709 H   0  0  0  0  0  0  0  0  0  0  0  0
   11.8516   -5.0376   -2.6069 H   0  0  0  0  0  0  0  0  0  0  0  0
   10.2410   -4.6874   -4.4944 H   0  0  0  0  0  0  0  0  0  0  0  0
    7.8315   -4.3661   -4.0072 H   0  0  0  0  0  0  0  0  0  0  0  0
  1  2  1  0
  1 21  1  0
  1 22  1  0
  1 23  1  0
  2  3  1  0
  2 24  1  0
  2 25  1  0
  4  3  1  1
  4  5  1  0
  4  6  1  0
  4  8  1  0
  5 26  1  0
  5 27  1  0
  5 28  1  0
  6  7  1  0
  6 29  1  0
  6 30  1  0
  7 31  1  0
  7 32  1  0
  7 33  1  0
  8  9  2  0
  8 10  1  0
 10 11  1  0
 10 34  1  0
 10 35  1  0
 11 12  1  0
 11 20  1  0
 11 36  1  6
 12 13  1  0
 12 37  1  0
 12 38  1  0
 13 14  1  0
 13 39  1  0
 13 40  1  0
 14 15  1  0
 14 41  1  0
 14 42  1  0
 15 16  1  0
 15 20  2  0
 16 17  2  0
 16 43  1  0
 17 18  1  0
 17 44  1  0
 18 19  2  0
 18 45  1  0
 19 20  1  0
 19 46  1  0
M  END

