
     RDKit          3D

 48 48  0  0  0  0  0  0  0  0999 V2000
    1.2257    1.2182    1.3320 C   0  0  0  0  0  0  0  0  0  0  0  0
    2.7373    0.9895    1.2024 C   0  0  1  0  0  0  0  0  0  0  0  0
    3.5152    2.1270    1.8782 C   0  0  0  0  0  0  0  0  0  0  0  0
    3.1210   -0.4020    1.7442 C   0  0  0  0  0  0  0  0  0  0  0  0
    4.5677   -0.8285    1.4765 C   0  0  0  0  0  0  0  0  0  0  0  0
    4.9546   -2.2011    2.0523 C   0  0  1  0  0  0  0  0  0  0  0  0
    4.1761   -3.3760    1.4459 C   0  0  0  0  0  0  0  0  0  0  0  0
    6.3982   -2.3850    1.9066 N   0  0  0  0  0  0  0  0  0  0  0  0
    7.1143   -3.1552    2.8004 C   0  0  0  0  0  0  0  0  0  0  0  0
    6.6299   -3.6197    3.8220 O   0  0  0  0  0  0  0  0  0  0  0  0
    8.4411   -3.3539    2.4433 N   0  0  0  0  0  0  0  0  0  0  0  0
    9.3662   -3.9790    3.3954 C   0  0  1  0  0  0  0  0  0  0  0  0
    9.1419   -5.5001    3.4907 C   0  0  0  0  0  0  0  0  0  0  0  0
    9.5495   -6.2300    2.2077 C   0  0  0  0  0  0  0  0  0  0  0  0
   11.0002   -5.9242    1.8155 C   0  0  0  0  0  0  0  0  0  0  0  0
   11.2302   -4.4083    1.6926 C   0  0  2  0  0  0  0  0  0  0  0  0
   12.6658   -4.0821    1.3168 C   0  0  1  0  0  0  0  0  0  0  0  0
   13.0271   -4.6819    0.1672 F   0  0  0  0  0  0  0  0  0  0  0  0
   12.8424   -2.7565    1.1413 F   0  0  0  0  0  0  0  0  0  0  0  0
   13.5415   -4.4747    2.2625 F   0  0  0  0  0  0  0  0  0  0  0  0
   10.8131   -3.6734    2.9807 C   0  0  0  0  0  0  0  0  0  0  0  0
    0.9288    2.1929    0.9120 H   0  0  0  0  0  0  0  0  0  0  0  0
    0.9141    1.2045    2.3908 H   0  0  0  0  0  0  0  0  0  0  0  0
    0.6515    0.4373    0.8071 H   0  0  0  0  0  0  0  0  0  0  0  0
    2.9869    1.0044    0.1236 H   0  0  0  0  0  0  0  0  0  0  0  0
    3.3169    2.1474    2.9640 H   0  0  0  0  0  0  0  0  0  0  0  0
    3.2180    3.1061    1.4690 H   0  0  0  0  0  0  0  0  0  0  0  0
    4.6032    2.0310    1.7399 H   0  0  0  0  0  0  0  0  0  0  0  0
    2.4334   -1.1427    1.3016 H   0  0  0  0  0  0  0  0  0  0  0  0
    2.9301   -0.4265    2.8341 H   0  0  0  0  0  0  0  0  0  0  0  0
    5.2643   -0.0892    1.9035 H   0  0  0  0  0  0  0  0  0  0  0  0
    4.7500   -0.8294    0.3834 H   0  0  0  0  0  0  0  0  0  0  0  0
    4.7720   -2.1957    3.1381 H   0  0  0  0  0  0  0  0  0  0  0  0
    4.3402   -3.4405    0.3560 H   0  0  0  0  0  0  0  0  0  0  0  0
    3.0932   -3.2793    1.6193 H   0  0  0  0  0  0  0  0  0  0  0  0
    4.5048   -4.3198    1.9057 H   0  0  0  0  0  0  0  0  0  0  0  0
    6.7733   -2.2830    0.9691 H   0  0  0  0  0  0  0  0  0  0  0  0
    8.8422   -2.6516    1.8306 H   0  0  0  0  0  0  0  0  0  0  0  0
    9.1869   -3.5461    4.3950 H   0  0  0  0  0  0  0  0  0  0  0  0
    8.0880   -5.6854    3.7413 H   0  0  0  0  0  0  0  0  0  0  0  0
    9.7422   -5.8760    4.3386 H   0  0  0  0  0  0  0  0  0  0  0  0
    8.8771   -5.9268    1.3865 H   0  0  0  0  0  0  0  0  0  0  0  0
    9.4189   -7.3173    2.3319 H   0  0  0  0  0  0  0  0  0  0  0  0
   11.2626   -6.4186    0.8673 H   0  0  0  0  0  0  0  0  0  0  0  0
   11.6861   -6.3239    2.5831 H   0  0  0  0  0  0  0  0  0  0  0  0
   10.6279   -4.0311    0.8475 H   0  0  0  0  0  0  0  0  0  0  0  0
   10.9555   -2.5862    2.8639 H   0  0  0  0  0  0  0  0  0  0  0  0
   11.4801   -3.9894    3.7988 H   0  0  0  0  0  0  0  0  0  0  0  0
  1  2  1  0
  1 22  1  0
  1 23  1  0
  1 24  1  0
  2  3  1  0
  2  4  1  0
  2 25  1  6
  3 26  1  0
  3 27  1  0
  3 28  1  0
  4  5  1  0
  4 29  1  0
  4 30  1  0
  5  6  1  0
  5 31  1  0
  5 32  1  0
  6  7  1  0
  6  8  1  0
  6 33  1  1
  7 34  1  0
  7 35  1  0
  7 36  1  0
  8  9  1  0
  8 37  1  0
  9 10  2  0
  9 11  1  0
 11 12  1  0
 11 38  1  0
 12 13  1  0
 12 21  1  0
 12 39  1  1
 13 14  1  0
 13 40  1  0
 13 41  1  0
 14 15  1  0
 14 42  1  0
 14 43  1  0
 15 16  1  0
 15 44  1  0
 15 45  1  0
 16 17  1  0
 16 21  1  0
 16 46  1  6
 17 18  1  6
 17 19  1  0
 17 20  1  0
 21 47  1  0
 21 48  1  0
M  END

