
     RDKit          3D

 37 37  0  0  0  0  0  0  0  0999 V2000
    1.1939   -0.0303    0.9613 C   0  0  0  0  0  0  0  0  0  0  0  0
    2.5674   -0.1604    0.3287 C   0  0  0  0  0  0  0  0  0  0  0  0
    3.4287   -0.8027    1.2454 O   0  0  0  0  0  0  0  0  0  0  0  0
    4.7818   -0.9416    0.8199 C   0  0  1  0  0  0  0  0  0  0  0  0
    5.6291    0.2461    1.2798 C   0  0  0  0  0  0  0  0  0  0  0  0
    7.0466    0.2595    0.7067 C   0  0  0  0  0  0  0  0  0  0  0  0
    5.2345   -2.2951    1.3569 C   0  0  0  0  0  0  0  0  0  0  0  0
    5.9750   -2.3341    2.4667 N   0  0  0  0  0  0  0  0  0  0  0  0
    6.2765   -3.5448    2.9437 C   0  0  0  0  0  0  0  0  0  0  0  0
    5.8405   -4.7163    2.3314 C   0  0  0  0  0  0  0  0  0  0  0  0
    5.0775   -4.5790    1.1594 C   0  0  0  0  0  0  0  0  0  0  0  0
    4.5286   -5.7738    0.4243 C   0  0  0  0  0  0  0  0  0  0  0  0
    3.0853   -6.1587    0.8324 C   0  0  1  0  0  0  0  0  0  0  0  0
    2.0532   -5.0913    0.4437 C   0  0  0  0  0  0  0  0  0  0  0  0
    2.8054   -7.4888    0.2849 N   0  0  0  0  0  0  0  0  0  0  0  0
    4.7942   -3.3622    0.6801 N   0  0  0  0  0  0  0  0  0  0  0  0
    0.4937    0.4620    0.2680 H   0  0  0  0  0  0  0  0  0  0  0  0
    1.2484    0.5660    1.8854 H   0  0  0  0  0  0  0  0  0  0  0  0
    0.7906   -1.0220    1.2189 H   0  0  0  0  0  0  0  0  0  0  0  0
    2.9563    0.8429    0.0584 H   0  0  0  0  0  0  0  0  0  0  0  0
    2.5076   -0.7457   -0.6119 H   0  0  0  0  0  0  0  0  0  0  0  0
    4.8096   -1.0222   -0.2837 H   0  0  0  0  0  0  0  0  0  0  0  0
    5.6607    0.2355    2.3798 H   0  0  0  0  0  0  0  0  0  0  0  0
    5.0988    1.1660    0.9804 H   0  0  0  0  0  0  0  0  0  0  0  0
    7.6223   -0.6167    1.0426 H   0  0  0  0  0  0  0  0  0  0  0  0
    7.5943    1.1582    1.0317 H   0  0  0  0  0  0  0  0  0  0  0  0
    7.0394    0.2584   -0.3968 H   0  0  0  0  0  0  0  0  0  0  0  0
    6.8915   -3.5796    3.8512 H   0  0  0  0  0  0  0  0  0  0  0  0
    6.0911   -5.6987    2.7369 H   0  0  0  0  0  0  0  0  0  0  0  0
    5.1609   -6.6551    0.6075 H   0  0  0  0  0  0  0  0  0  0  0  0
    4.5490   -5.5553   -0.6567 H   0  0  0  0  0  0  0  0  0  0  0  0
    3.0760   -6.2655    1.9331 H   0  0  0  0  0  0  0  0  0  0  0  0
    2.0099   -4.9824   -0.6539 H   0  0  0  0  0  0  0  0  0  0  0  0
    2.2938   -4.1017    0.8606 H   0  0  0  0  0  0  0  0  0  0  0  0
    1.0497   -5.3834    0.7955 H   0  0  0  0  0  0  0  0  0  0  0  0
    2.7523   -7.4339   -0.7352 H   0  0  0  0  0  0  0  0  0  0  0  0
    1.8829   -7.8020    0.5905 H   0  0  0  0  0  0  0  0  0  0  0  0
  1  2  1  0
  1 17  1  0
  1 18  1  0
  1 19  1  0
  2  3  1  0
  2 20  1  0
  2 21  1  0
  3  4  1  0
  4  5  1  0
  4  7  1  0
  4 22  1  6
  5  6  1  0
  5 23  1  0
  5 24  1  0
  6 25  1  0
  6 26  1  0
  6 27  1  0
  7  8  2  0
  7 16  1  0
  8  9  1  0
  9 10  2  0
  9 28  1  0
 10 11  1  0
 10 29  1  0
 11 12  1  0
 11 16  2  0
 12 13  1  0
 12 30  1  0
 12 31  1  0
 13 14  1  0
 13 15  1  0
 13 32  1  1
 14 33  1  0
 14 34  1  0
 14 35  1  0
 15 36  1  0
 15 37  1  0
M  END

