
     RDKit          3D

 42 45  0  0  0  0  0  0  0  0999 V2000
    1.0409    0.0754    0.4393 O   0  0  0  0  0  0  0  0  0  0  0  0
    2.2346    0.0829    0.1752 C   0  0  0  0  0  0  0  0  0  0  0  0
    2.8638    1.2943   -0.4607 C   0  0  0  0  0  0  0  0  0  0  0  0
    3.7508    1.1943   -1.5645 C   0  0  0  0  0  0  0  0  0  0  0  0
    4.2462    2.3241   -2.2055 C   0  0  0  0  0  0  0  0  0  0  0  0
    3.8501    3.5776   -1.7179 C   0  0  0  0  0  0  0  0  0  0  0  0
    4.1760    4.8481   -2.1334 N   0  0  0  0  0  0  0  0  0  0  0  0
    4.7965    5.0721   -2.8994 H   0  0  0  0  0  0  0  0  0  0  0  0
    3.5185    5.7724   -1.3431 C   0  0  0  0  0  0  0  0  0  0  0  0
    2.7587    5.1197   -0.4041 C   0  0  0  0  0  0  0  0  0  0  0  0
    2.9497    3.7091   -0.6182 C   0  0  0  0  0  0  0  0  0  0  0  0
    2.4482    2.5479   -0.0073 C   0  0  0  0  0  0  0  0  0  0  0  0
    3.0333   -1.0251    0.4159 N   0  0  0  0  0  0  0  0  0  0  0  0
    2.3956   -2.2516    0.8927 C   0  0  0  0  0  0  0  0  0  0  0  0
    3.0209   -3.4715    0.2112 C   0  0  0  0  0  0  0  0  0  0  0  0
    4.5454   -3.4948    0.3840 C   0  0  0  0  0  0  0  0  0  0  0  0
    5.1540   -2.1640   -0.0594 C   0  0  2  0  0  0  0  0  0  0  0  0
    6.5443   -2.0797    0.2972 O   0  0  0  0  0  0  0  0  0  0  0  0
    7.4747   -2.6086   -0.5112 C   0  0  0  0  0  0  0  0  0  0  0  0
    8.8307   -2.4785   -0.1170 C   0  0  0  0  0  0  0  0  0  0  0  0
    9.8077   -2.9654   -0.8621 N   0  0  0  0  0  0  0  0  0  0  0  0
    9.4673   -3.5854   -2.0038 C   0  0  0  0  0  0  0  0  0  0  0  0
    8.1341   -3.7091   -2.3846 C   0  0  0  0  0  0  0  0  0  0  0  0
    7.1358   -3.2215   -1.6350 N   0  0  0  0  0  0  0  0  0  0  0  0
    4.4721   -0.9847    0.6397 C   0  0  0  0  0  0  0  0  0  0  0  0
    4.0253    0.2070   -1.9420 H   0  0  0  0  0  0  0  0  0  0  0  0
    4.9139    2.2319   -3.0658 H   0  0  0  0  0  0  0  0  0  0  0  0
    3.6477    6.8393   -1.5169 H   0  0  0  0  0  0  0  0  0  0  0  0
    2.1331    5.5886    0.3522 H   0  0  0  0  0  0  0  0  0  0  0  0
    1.7307    2.6069    0.8136 H   0  0  0  0  0  0  0  0  0  0  0  0
    1.3212   -2.1699    0.6901 H   0  0  0  0  0  0  0  0  0  0  0  0
    2.5145   -2.3312    1.9924 H   0  0  0  0  0  0  0  0  0  0  0  0
    2.7672   -3.4494   -0.8628 H   0  0  0  0  0  0  0  0  0  0  0  0
    2.5789   -4.3926    0.6248 H   0  0  0  0  0  0  0  0  0  0  0  0
    4.9960   -4.3206   -0.1870 H   0  0  0  0  0  0  0  0  0  0  0  0
    4.8021   -3.6481    1.4475 H   0  0  0  0  0  0  0  0  0  0  0  0
    5.0595   -2.0592   -1.1517 H   0  0  0  0  0  0  0  0  0  0  0  0
    9.0777   -1.9657    0.8188 H   0  0  0  0  0  0  0  0  0  0  0  0
   10.2738   -3.9909   -2.6230 H   0  0  0  0  0  0  0  0  0  0  0  0
    7.8572   -4.2164   -3.3156 H   0  0  0  0  0  0  0  0  0  0  0  0
    4.8941   -0.0382    0.2860 H   0  0  0  0  0  0  0  0  0  0  0  0
    4.6875   -1.0553    1.7250 H   0  0  0  0  0  0  0  0  0  0  0  0
  1  2  2  0
  2  3  1  0
  2 13  1  0
  3  4  2  0
  3 12  1  0
  4  5  1  0
  4 26  1  0
  5  6  2  0
  5 27  1  0
  6  7  1  0
  6 11  1  0
  7  8  1  0
  7  9  1  0
  9 10  2  0
  9 28  1  0
 10 11  1  0
 10 29  1  0
 11 12  2  0
 12 30  1  0
 13 14  1  0
 13 25  1  0
 14 15  1  0
 14 31  1  0
 14 32  1  0
 15 16  1  0
 15 33  1  0
 15 34  1  0
 16 17  1  0
 16 35  1  0
 16 36  1  0
 17 18  1  0
 17 25  1  0
 17 37  1  6
 18 19  1  0
 19 20  2  0
 19 24  1  0
 20 21  1  0
 20 38  1  0
 21 22  2  0
 22 23  1  0
 22 39  1  0
 23 24  2  0
 23 40  1  0
 25 41  1  0
 25 42  1  0
M  END

