
     RDKit          3D

 36 36  0  0  0  0  0  0  0  0999 V2000
    0.9420    0.0177   -0.1627 C   0  0  0  0  0  0  0  0  0  0  0  0
    2.4601    0.0507    0.0081 C   0  0  1  0  0  0  0  0  0  0  0  0
    3.0614   -1.2079   -0.2680 O   0  0  0  0  0  0  0  0  0  0  0  0
    3.1229   -2.1939    0.6780 C   0  0  0  0  0  0  0  0  0  0  0  0
    3.7627   -3.3802    0.2811 C   0  0  0  0  0  0  0  0  0  0  0  0
    3.8903   -4.4460    1.1679 C   0  0  0  0  0  0  0  0  0  0  0  0
    3.3748   -4.3249    2.4587 C   0  0  0  0  0  0  0  0  0  0  0  0
    3.4954   -5.3522    3.3154 F   0  0  0  0  0  0  0  0  0  0  0  0
    2.7378   -3.1606    2.8701 C   0  0  0  0  0  0  0  0  0  0  0  0
    2.6080   -2.0889    1.9779 C   0  0  0  0  0  0  0  0  0  0  0  0
    3.0782    1.1156   -0.9122 C   0  0  0  0  0  0  0  0  0  0  0  0
    2.7272    2.2819   -0.8163 O   0  0  0  0  0  0  0  0  0  0  0  0
    3.9938    0.6657   -1.8099 N   0  0  0  0  0  0  0  0  0  0  0  0
    4.8174    1.5762   -2.5661 C   0  0  1  0  0  0  0  0  0  0  0  0
    6.2426    0.9840   -2.6464 C   0  0  0  0  0  0  0  0  0  0  0  0
    6.5525   -0.0196   -2.0561 O   0  0  0  0  0  0  0  0  0  0  0  0
    7.0965    1.6562   -3.4144 O   0  0  0  0  0  0  0  0  0  0  0  0
    4.2778    1.9275   -3.9841 C   0  0  1  0  0  0  0  0  0  0  0  0
    2.8080    2.3113   -4.0241 C   0  0  0  0  0  0  0  0  0  0  0  0
    5.1004    2.9787   -4.5211 O   0  0  0  0  0  0  0  0  0  0  0  0
    0.4744   -0.6689    0.5575 H   0  0  0  0  0  0  0  0  0  0  0  0
    0.6856   -0.3197   -1.1789 H   0  0  0  0  0  0  0  0  0  0  0  0
    0.5376    1.0281   -0.0109 H   0  0  0  0  0  0  0  0  0  0  0  0
    2.7188    0.3782    1.0309 H   0  0  0  0  0  0  0  0  0  0  0  0
    4.1618   -3.4461   -0.7328 H   0  0  0  0  0  0  0  0  0  0  0  0
    4.3882   -5.3718    0.8729 H   0  0  0  0  0  0  0  0  0  0  0  0
    2.3425   -3.0956    3.8856 H   0  0  0  0  0  0  0  0  0  0  0  0
    2.1008   -1.1852    2.3154 H   0  0  0  0  0  0  0  0  0  0  0  0
    4.3662   -0.2716   -1.6670 H   0  0  0  0  0  0  0  0  0  0  0  0
    4.8687    2.5331   -2.0120 H   0  0  0  0  0  0  0  0  0  0  0  0
    6.6086    2.3603   -3.9037 H   0  0  0  0  0  0  0  0  0  0  0  0
    4.4485    1.0685   -4.6542 H   0  0  0  0  0  0  0  0  0  0  0  0
    2.5914    3.1329   -3.3237 H   0  0  0  0  0  0  0  0  0  0  0  0
    2.1761    1.4600   -3.7347 H   0  0  0  0  0  0  0  0  0  0  0  0
    2.5359    2.6122   -5.0474 H   0  0  0  0  0  0  0  0  0  0  0  0
    4.7976    3.8210   -4.1488 H   0  0  0  0  0  0  0  0  0  0  0  0
  1  2  1  0
  1 21  1  0
  1 22  1  0
  1 23  1  0
  2  3  1  0
  2 11  1  0
  2 24  1  1
  3  4  1  0
  4  5  2  0
  4 10  1  0
  5  6  1  0
  5 25  1  0
  6  7  2  0
  6 26  1  0
  7  8  1  0
  7  9  1  0
  9 10  2  0
  9 27  1  0
 10 28  1  0
 11 12  2  0
 11 13  1  0
 13 14  1  0
 13 29  1  0
 14 15  1  0
 14 18  1  0
 14 30  1  1
 15 16  2  0
 15 17  1  0
 17 31  1  0
 18 19  1  0
 18 20  1  0
 18 32  1  6
 19 33  1  0
 19 34  1  0
 19 35  1  0
 20 36  1  0
M  END

