
     RDKit          3D

 35 36  0  0  0  0  0  0  0  0999 V2000
    2.9429    2.6126    1.0195 C   0  0  0  0  0  0  0  0  0  0  0  0
    3.4561    1.2749    0.4868 C   0  0  0  0  0  0  0  0  0  0  0  0
    3.9605    1.3579   -0.9535 C   0  0  0  0  0  0  0  0  0  0  0  0
    4.4836    0.0665   -1.3955 N   0  0  0  0  0  0  0  0  0  0  0  0
    4.9900   -0.0215   -2.7545 C   0  0  1  0  0  0  0  0  0  0  0  0
    3.9472    0.3373   -3.7629 C   0  0  0  0  0  0  0  0  0  0  0  0
    3.1133    0.5994   -4.5259 N   0  0  0  0  0  0  0  0  0  0  0  0
    6.2528    0.8450   -3.0031 C   0  0  0  0  0  0  0  0  0  0  0  0
    6.8914    0.2215   -4.2469 C   0  0  0  0  0  0  0  0  0  0  0  0
    6.6906   -1.3047   -4.0634 C   0  0  2  0  0  0  0  0  0  0  0  0
    6.5033   -2.0261   -5.3222 N   0  0  0  0  0  0  0  0  0  0  0  0
    5.4818   -1.8827   -6.2273 C   0  0  0  0  0  0  0  0  0  0  0  0
    5.7479   -2.7766   -7.2501 C   0  0  0  0  0  0  0  0  0  0  0  0
    6.8979   -3.4600   -7.0032 N   0  0  0  0  0  0  0  0  0  0  0  0
    7.3355   -2.9982   -5.8445 C   0  0  0  0  0  0  0  0  0  0  0  0
    8.5215   -3.4215   -5.1735 C   0  0  0  0  0  0  0  0  0  0  0  0
    9.4808   -3.7469   -4.6043 N   0  0  0  0  0  0  0  0  0  0  0  0
    5.5113   -1.4555   -3.0585 C   0  0  0  0  0  0  0  0  0  0  0  0
    2.5800    2.5163    2.0544 H   0  0  0  0  0  0  0  0  0  0  0  0
    2.1093    2.9979    0.4092 H   0  0  0  0  0  0  0  0  0  0  0  0
    3.7371    3.3776    1.0164 H   0  0  0  0  0  0  0  0  0  0  0  0
    2.6476    0.5222    0.5410 H   0  0  0  0  0  0  0  0  0  0  0  0
    4.2729    0.8944    1.1233 H   0  0  0  0  0  0  0  0  0  0  0  0
    4.7747    2.1005   -1.0088 H   0  0  0  0  0  0  0  0  0  0  0  0
    3.1466    1.7358   -1.6093 H   0  0  0  0  0  0  0  0  0  0  0  0
    3.7837   -0.6601   -1.2426 H   0  0  0  0  0  0  0  0  0  0  0  0
    6.8963    0.7252   -2.1163 H   0  0  0  0  0  0  0  0  0  0  0  0
    6.0323    1.9149   -3.1242 H   0  0  0  0  0  0  0  0  0  0  0  0
    7.9505    0.4898   -4.3704 H   0  0  0  0  0  0  0  0  0  0  0  0
    6.3637    0.5577   -5.1529 H   0  0  0  0  0  0  0  0  0  0  0  0
    7.5936   -1.7396   -3.6150 H   0  0  0  0  0  0  0  0  0  0  0  0
    4.6649   -1.1801   -6.0767 H   0  0  0  0  0  0  0  0  0  0  0  0
    5.1576   -2.9514   -8.1485 H   0  0  0  0  0  0  0  0  0  0  0  0
    5.8771   -1.8621   -2.1046 H   0  0  0  0  0  0  0  0  0  0  0  0
    4.7261   -2.1269   -3.4324 H   0  0  0  0  0  0  0  0  0  0  0  0
  1  2  1  0
  1 19  1  0
  1 20  1  0
  1 21  1  0
  2  3  1  0
  2 22  1  0
  2 23  1  0
  3  4  1  0
  3 24  1  0
  3 25  1  0
  4  5  1  0
  4 26  1  0
  5  6  1  6
  5  8  1  0
  5 18  1  0
  6  7  3  0
  8  9  1  0
  8 27  1  0
  8 28  1  0
  9 10  1  0
  9 29  1  0
  9 30  1  0
 10 11  1  0
 10 18  1  0
 10 31  1  1
 11 12  1  0
 11 15  1  0
 12 13  2  0
 12 32  1  0
 13 14  1  0
 13 33  1  0
 14 15  2  0
 15 16  1  0
 16 17  3  0
 18 34  1  0
 18 35  1  0
M  END

