
     RDKit          3D

 51 53  0  0  0  0  0  0  0  0999 V2000
    0.2318    0.1173   -0.3189 C   0  0  0  0  0  0  0  0  0  0  0  0
    1.7549   -0.0646   -0.2845 C   0  0  1  0  0  0  0  0  0  0  0  0
    2.2031   -0.7191   -1.5126 N   0  0  0  0  0  0  0  0  0  0  0  0
    2.6485   -2.0111   -1.5489 C   0  0  0  0  0  0  0  0  0  0  0  0
    2.7457   -2.7126   -0.5521 O   0  0  0  0  0  0  0  0  0  0  0  0
    3.0283   -2.5415   -2.9078 C   0  0  0  0  0  0  0  0  0  0  0  0
    3.4203   -1.7490   -3.9953 C   0  0  0  0  0  0  0  0  0  0  0  0
    3.7708   -2.3591   -5.1989 C   0  0  0  0  0  0  0  0  0  0  0  0
    3.7149   -3.7564   -5.2777 C   0  0  0  0  0  0  0  0  0  0  0  0
    4.0575   -4.5090   -6.5424 C   0  0  0  0  0  0  0  0  0  0  0  0
    4.5979   -3.6190   -7.4982 O   0  0  0  0  0  0  0  0  0  0  0  0
    5.0264   -4.0944   -8.6913 C   0  0  0  0  0  0  0  0  0  0  0  0
    5.6086   -3.1501   -9.5557 C   0  0  0  0  0  0  0  0  0  0  0  0
    6.0629   -3.5736  -10.7967 C   0  0  0  0  0  0  0  0  0  0  0  0
    6.6184   -2.6758  -11.6190 F   0  0  0  0  0  0  0  0  0  0  0  0
    5.9673   -4.8993  -11.2266 C   0  0  0  0  0  0  0  0  0  0  0  0
    5.3855   -5.8010  -10.3436 C   0  0  0  0  0  0  0  0  0  0  0  0
    5.2720   -7.0823  -10.7139 F   0  0  0  0  0  0  0  0  0  0  0  0
    4.9089   -5.4368   -9.0828 C   0  0  0  0  0  0  0  0  0  0  0  0
    3.3606   -4.5239   -4.2406 N   0  0  0  0  0  0  0  0  0  0  0  0
    3.0387   -3.9341   -3.0914 C   0  0  0  0  0  0  0  0  0  0  0  0
    2.5380    1.2590   -0.0588 C   0  0  1  0  0  0  0  0  0  0  0  0
    2.1207    2.0077    1.2261 C   0  0  0  0  0  0  0  0  0  0  0  0
    2.5806    1.2950    2.5068 C   0  0  0  0  0  0  0  0  0  0  0  0
    4.0976    1.0609    2.5030 C   0  0  0  0  0  0  0  0  0  0  0  0
    4.5580    0.3341    1.2322 C   0  0  0  0  0  0  0  0  0  0  0  0
    4.0679    1.0467   -0.0375 C   0  0  0  0  0  0  0  0  0  0  0  0
   -0.2581   -0.8404   -0.5510 H   0  0  0  0  0  0  0  0  0  0  0  0
   -0.0691    0.8525   -1.0861 H   0  0  0  0  0  0  0  0  0  0  0  0
   -0.1588    0.4648    0.6482 H   0  0  0  0  0  0  0  0  0  0  0  0
    1.9975   -0.7821    0.5117 H   0  0  0  0  0  0  0  0  0  0  0  0
    2.0272   -0.2414   -2.3889 H   0  0  0  0  0  0  0  0  0  0  0  0
    3.4793   -0.6609   -3.9049 H   0  0  0  0  0  0  0  0  0  0  0  0
    4.0997   -1.7772   -6.0603 H   0  0  0  0  0  0  0  0  0  0  0  0
    3.1396   -4.9925   -6.9306 H   0  0  0  0  0  0  0  0  0  0  0  0
    4.7706   -5.3156   -6.2952 H   0  0  0  0  0  0  0  0  0  0  0  0
    5.7026   -2.1078   -9.2524 H   0  0  0  0  0  0  0  0  0  0  0  0
    6.3311   -5.2105  -12.2052 H   0  0  0  0  0  0  0  0  0  0  0  0
    4.4646   -6.2041   -8.4520 H   0  0  0  0  0  0  0  0  0  0  0  0
    2.7657   -4.5780   -2.2493 H   0  0  0  0  0  0  0  0  0  0  0  0
    2.2962    1.9128   -0.9199 H   0  0  0  0  0  0  0  0  0  0  0  0
    1.0338    2.1828    1.2490 H   0  0  0  0  0  0  0  0  0  0  0  0
    2.5842    3.0102    1.1958 H   0  0  0  0  0  0  0  0  0  0  0  0
    2.0591    0.3260    2.6087 H   0  0  0  0  0  0  0  0  0  0  0  0
    2.2891    1.8898    3.3889 H   0  0  0  0  0  0  0  0  0  0  0  0
    4.4002    0.4947    3.4000 H   0  0  0  0  0  0  0  0  0  0  0  0
    4.6103    2.0392    2.5666 H   0  0  0  0  0  0  0  0  0  0  0  0
    4.1904   -0.7070    1.2415 H   0  0  0  0  0  0  0  0  0  0  0  0
    5.6588    0.2647    1.2142 H   0  0  0  0  0  0  0  0  0  0  0  0
    4.3877    0.4900   -0.9323 H   0  0  0  0  0  0  0  0  0  0  0  0
    4.5504    2.0389   -0.1011 H   0  0  0  0  0  0  0  0  0  0  0  0
  1  2  1  0
  1 28  1  0
  1 29  1  0
  1 30  1  0
  2  3  1  0
  2 22  1  0
  2 31  1  1
  3  4  1  0
  3 32  1  0
  4  5  2  0
  4  6  1  0
  6  7  2  0
  6 21  1  0
  7  8  1  0
  7 33  1  0
  8  9  2  0
  8 34  1  0
  9 10  1  0
  9 20  1  0
 10 11  1  0
 10 35  1  0
 10 36  1  0
 11 12  1  0
 12 13  2  0
 12 19  1  0
 13 14  1  0
 13 37  1  0
 14 15  1  0
 14 16  2  0
 16 17  1  0
 16 38  1  0
 17 18  1  0
 17 19  2  0
 19 39  1  0
 20 21  2  0
 21 40  1  0
 22 23  1  0
 22 27  1  0
 22 41  1  6
 23 24  1  0
 23 42  1  0
 23 43  1  0
 24 25  1  0
 24 44  1  0
 24 45  1  0
 25 26  1  0
 25 46  1  0
 25 47  1  0
 26 27  1  0
 26 48  1  0
 26 49  1  0
 27 50  1  0
 27 51  1  0
M  END

