
     RDKit          3D

 43 44  0  0  0  0  0  0  0  0999 V2000
    1.4782    0.1198   -1.3928 C   0  0  0  0  0  0  0  0  0  0  0  0
    2.7196    0.1216   -0.5455 C   0  0  0  0  0  0  0  0  0  0  0  0
    3.2102   -0.8651   -0.0436 O   0  0  0  0  0  0  0  0  0  0  0  0
    3.3734    1.5093   -0.3279 C   0  0  0  0  0  0  0  0  0  0  0  0
    2.8993    2.5221   -0.8162 O   0  0  0  0  0  0  0  0  0  0  0  0
    4.4882    1.4477    0.4400 N   0  0  0  0  0  0  0  0  0  0  0  0
    5.2545    2.6295    0.7773 C   0  0  1  0  0  0  0  0  0  0  0  0
    4.9679    3.3949    0.0404 H   0  0  0  0  0  0  0  0  0  0  0  0
    4.9680    3.1864    2.1698 C   0  0  0  0  0  0  0  0  0  0  0  0
    4.7514    2.3441    3.2718 C   0  0  0  0  0  0  0  0  0  0  0  0
    4.5169    2.8821    4.5404 C   0  0  0  0  0  0  0  0  0  0  0  0
    4.4941    4.2674    4.7262 C   0  0  0  0  0  0  0  0  0  0  0  0
    4.7026    5.1142    3.6338 C   0  0  0  0  0  0  0  0  0  0  0  0
    4.9358    4.5753    2.3656 C   0  0  0  0  0  0  0  0  0  0  0  0
    6.7614    2.3378    0.5390 C   0  0  1  0  0  0  0  0  0  0  0  0
    6.8775    1.9693   -0.4917 H   0  0  0  0  0  0  0  0  0  0  0  0
    7.5351    3.5337    0.6957 O   0  0  0  0  0  0  0  0  0  0  0  0
    7.8875    4.2264   -0.4365 C   0  0  0  0  0  0  0  0  0  0  0  0
    7.6040    3.8409   -1.5413 O   0  0  0  0  0  0  0  0  0  0  0  0
    8.6463    5.4673   -0.1246 C   0  0  0  0  0  0  0  0  0  0  0  0
    8.8213    5.9386    1.1879 C   0  0  0  0  0  0  0  0  0  0  0  0
    9.5415    7.1126    1.4145 C   0  0  0  0  0  0  0  0  0  0  0  0
   10.0889    7.8189    0.3381 C   0  0  0  0  0  0  0  0  0  0  0  0
    9.9122    7.3548   -0.9706 C   0  0  0  0  0  0  0  0  0  0  0  0
    9.1909    6.1848   -1.2033 C   0  0  0  0  0  0  0  0  0  0  0  0
    7.3154    1.2713    1.4934 C   0  0  0  0  0  0  0  0  0  0  0  0
    6.7762    0.2010    1.6221 O   0  0  0  0  0  0  0  0  0  0  0  0
    8.4246    1.5989    2.1539 O   0  0  0  0  0  0  0  0  0  0  0  0
    1.1046   -0.9055   -1.5067 H   0  0  0  0  0  0  0  0  0  0  0  0
    1.6930    0.5703   -2.3746 H   0  0  0  0  0  0  0  0  0  0  0  0
    0.7119    0.7618   -0.9292 H   0  0  0  0  0  0  0  0  0  0  0  0
    4.7996    0.5334    0.7686 H   0  0  0  0  0  0  0  0  0  0  0  0
    4.7603    1.2604    3.1409 H   0  0  0  0  0  0  0  0  0  0  0  0
    4.3478    2.2125    5.3875 H   0  0  0  0  0  0  0  0  0  0  0  0
    4.3059    4.6859    5.7182 H   0  0  0  0  0  0  0  0  0  0  0  0
    4.6722    6.1988    3.7658 H   0  0  0  0  0  0  0  0  0  0  0  0
    5.0812    5.2438    1.5126 H   0  0  0  0  0  0  0  0  0  0  0  0
    8.3809    5.3937    2.0239 H   0  0  0  0  0  0  0  0  0  0  0  0
    9.6738    7.4800    2.4349 H   0  0  0  0  0  0  0  0  0  0  0  0
   10.6533    8.7372    0.5196 H   0  0  0  0  0  0  0  0  0  0  0  0
   10.3377    7.9088   -1.8107 H   0  0  0  0  0  0  0  0  0  0  0  0
    9.0372    5.8065   -2.2156 H   0  0  0  0  0  0  0  0  0  0  0  0
    8.6528    2.5178    1.9240 H   0  0  0  0  0  0  0  0  0  0  0  0
  1  2  1  0
  1 29  1  0
  1 30  1  0
  1 31  1  0
  2  3  2  0
  2  4  1  0
  4  5  2  0
  4  6  1  0
  6  7  1  0
  6 32  1  0
  7  8  1  6
  7  9  1  0
  7 15  1  0
  9 10  2  0
  9 14  1  0
 10 11  1  0
 10 33  1  0
 11 12  2  0
 11 34  1  0
 12 13  1  0
 12 35  1  0
 13 14  2  0
 13 36  1  0
 14 37  1  0
 15 16  1  6
 15 17  1  0
 15 26  1  0
 17 18  1  0
 18 19  2  0
 18 20  1  0
 20 21  2  0
 20 25  1  0
 21 22  1  0
 21 38  1  0
 22 23  2  0
 22 39  1  0
 23 24  1  0
 23 40  1  0
 24 25  2  0
 24 41  1  0
 25 42  1  0
 26 27  2  0
 26 28  1  0
 28 43  1  0
M  END

