
     RDKit          3D

 31 32  0  0  0  0  0  0  0  0999 V2000
    1.8422   -0.1367    1.2698 C   0  0  0  0  0  0  0  0  0  0  0  0
    2.8890    0.0855    0.1928 C   0  0  0  0  0  0  0  0  0  0  0  0
    3.3144    1.2018   -0.0363 O   0  0  0  0  0  0  0  0  0  0  0  0
    3.3894   -1.1027   -0.5855 C   0  0  0  0  0  0  0  0  0  0  0  0
    4.3398   -0.8636   -1.5853 C   0  0  0  0  0  0  0  0  0  0  0  0
    4.8591   -1.9210   -2.3505 C   0  0  0  0  0  0  0  0  0  0  0  0
    5.7504   -1.6816   -3.3826 N   0  0  0  0  0  0  0  0  0  0  0  0
    4.4079   -3.2298   -2.0796 C   0  0  0  0  0  0  0  0  0  0  0  0
    3.4554   -3.4892   -1.0811 C   0  0  0  0  0  0  0  0  0  0  0  0
    2.9593   -4.8750   -0.8315 C   0  0  0  0  0  0  0  0  0  0  0  0
    1.5760   -5.1182   -0.7964 C   0  0  0  0  0  0  0  0  0  0  0  0
    1.0498   -6.3899   -0.5647 C   0  0  0  0  0  0  0  0  0  0  0  0
    1.9286   -7.4562   -0.3543 C   0  0  0  0  0  0  0  0  0  0  0  0
    3.3052   -7.2438   -0.3731 C   0  0  0  0  0  0  0  0  0  0  0  0
    3.8467   -5.9638   -0.6071 C   0  0  0  0  0  0  0  0  0  0  0  0
    5.2275   -5.7981   -0.6411 N   0  0  0  0  0  0  0  0  0  0  0  0
    2.9468   -2.4108   -0.3341 C   0  0  0  0  0  0  0  0  0  0  0  0
    1.5863    0.8318    1.7177 H   0  0  0  0  0  0  0  0  0  0  0  0
    2.2205   -0.8135    2.0528 H   0  0  0  0  0  0  0  0  0  0  0  0
    0.9348   -0.5995    0.8503 H   0  0  0  0  0  0  0  0  0  0  0  0
    4.6609    0.1666   -1.7544 H   0  0  0  0  0  0  0  0  0  0  0  0
    6.2448   -0.7979   -3.3690 H   0  0  0  0  0  0  0  0  0  0  0  0
    6.3093   -2.4618   -3.7056 H   0  0  0  0  0  0  0  0  0  0  0  0
    4.7948   -4.0599   -2.6763 H   0  0  0  0  0  0  0  0  0  0  0  0
    0.8993   -4.2791   -0.9775 H   0  0  0  0  0  0  0  0  0  0  0  0
   -0.0311   -6.5463   -0.5544 H   0  0  0  0  0  0  0  0  0  0  0  0
    1.5424   -8.4625   -0.1709 H   0  0  0  0  0  0  0  0  0  0  0  0
    3.9880   -8.0809   -0.1992 H   0  0  0  0  0  0  0  0  0  0  0  0
    5.7621   -6.5170   -0.1666 H   0  0  0  0  0  0  0  0  0  0  0  0
    5.5686   -4.8616   -0.4516 H   0  0  0  0  0  0  0  0  0  0  0  0
    2.2186   -2.6138    0.4514 H   0  0  0  0  0  0  0  0  0  0  0  0
  1  2  1  0
  1 18  1  0
  1 19  1  0
  1 20  1  0
  2  3  2  0
  2  4  1  0
  4  5  2  0
  4 17  1  0
  5  6  1  0
  5 21  1  0
  6  7  1  0
  6  8  2  0
  7 22  1  0
  7 23  1  0
  8  9  1  0
  8 24  1  0
  9 10  1  0
  9 17  2  0
 10 11  2  0
 10 15  1  0
 11 12  1  0
 11 25  1  0
 12 13  2  0
 12 26  1  0
 13 14  1  0
 13 27  1  0
 14 15  2  0
 14 28  1  0
 15 16  1  0
 16 29  1  0
 16 30  1  0
 17 31  1  0
M  END

