
     RDKit          3D

 50 53  0  0  0  0  0  0  0  0999 V2000
    1.6165    0.5800    0.0909 C   0  0  0  0  0  0  0  0  0  0  0  0
    3.0202    0.0765    0.0021 C   0  0  0  0  0  0  0  0  0  0  0  0
    4.0614    0.8918   -0.0668 N   0  0  0  0  0  0  0  0  0  0  0  0
    5.1644    0.1066   -0.1501 N   0  0  0  0  0  0  0  0  0  0  0  0
    6.4363    0.7327   -0.1959 C   0  0  0  0  0  0  0  0  0  0  0  0
    6.6230    1.9441    0.4908 C   0  0  0  0  0  0  0  0  0  0  0  0
    7.8579    2.5825    0.4496 C   0  0  0  0  0  0  0  0  0  0  0  0
    8.9432    2.0170   -0.2401 C   0  0  0  0  0  0  0  0  0  0  0  0
   10.2218    2.8184   -0.3226 C   0  0  0  0  0  0  0  0  0  0  0  0
   10.1472    4.0241   -0.4995 O   0  0  0  0  0  0  0  0  0  0  0  0
   11.4214    2.1351   -0.2220 N   0  0  0  0  0  0  0  0  0  0  0  0
   11.5601    0.8452    0.4434 C   0  0  0  0  0  0  0  0  0  0  0  0
   12.3720   -0.1754   -0.3528 C   0  0  0  0  0  0  0  0  0  0  0  0
   12.3002   -1.3671   -0.1123 O   0  0  0  0  0  0  0  0  0  0  0  0
   13.2024    0.3476   -1.3003 N   0  0  0  0  0  0  0  0  0  0  0  0
   13.3219    1.7484   -1.6928 C   0  0  2  0  0  0  0  0  0  0  0  0
   14.7815    2.1025   -2.0042 C   0  0  0  0  0  0  0  0  0  0  0  0
   14.9206    3.5739   -2.4065 C   0  0  0  0  0  0  0  0  0  0  0  0
   14.3115    4.4936   -1.3424 C   0  0  0  0  0  0  0  0  0  0  0  0
   12.8497    4.1366   -1.0333 C   0  0  0  0  0  0  0  0  0  0  0  0
   12.7452    2.6688   -0.5950 C   0  0  1  0  0  0  0  0  0  0  0  0
    8.7388    0.8208   -0.9431 C   0  0  0  0  0  0  0  0  0  0  0  0
    7.4947    0.1878   -0.9361 C   0  0  0  0  0  0  0  0  0  0  0  0
    4.8523   -1.2363   -0.1185 C   0  0  0  0  0  0  0  0  0  0  0  0
    5.8171   -2.3756   -0.1105 C   0  0  0  0  0  0  0  0  0  0  0  0
    3.4701   -1.2715   -0.0275 C   0  0  0  0  0  0  0  0  0  0  0  0
    2.4819   -2.6905    0.0619 Cl  0  0  0  0  0  0  0  0  0  0  0  0
    1.6149    1.6782    0.1076 H   0  0  0  0  0  0  0  0  0  0  0  0
    1.1180    0.2096    1.0015 H   0  0  0  0  0  0  0  0  0  0  0  0
    1.0155    0.2383   -0.7676 H   0  0  0  0  0  0  0  0  0  0  0  0
    5.7823    2.3740    1.0347 H   0  0  0  0  0  0  0  0  0  0  0  0
    7.9977    3.5390    0.9571 H   0  0  0  0  0  0  0  0  0  0  0  0
   10.5892    0.3945    0.6654 H   0  0  0  0  0  0  0  0  0  0  0  0
   12.0784    0.9766    1.4147 H   0  0  0  0  0  0  0  0  0  0  0  0
   13.7185   -0.3454   -1.8365 H   0  0  0  0  0  0  0  0  0  0  0  0
   12.7187    1.9282   -2.6057 H   0  0  0  0  0  0  0  0  0  0  0  0
   15.1568    1.4419   -2.8053 H   0  0  0  0  0  0  0  0  0  0  0  0
   15.3923    1.8911   -1.1084 H   0  0  0  0  0  0  0  0  0  0  0  0
   14.4070    3.7397   -3.3707 H   0  0  0  0  0  0  0  0  0  0  0  0
   15.9818    3.8203   -2.5733 H   0  0  0  0  0  0  0  0  0  0  0  0
   14.3672    5.5449   -1.6683 H   0  0  0  0  0  0  0  0  0  0  0  0
   14.9111    4.4255   -0.4159 H   0  0  0  0  0  0  0  0  0  0  0  0
   12.2230    4.3103   -1.9212 H   0  0  0  0  0  0  0  0  0  0  0  0
   12.4456    4.7896   -0.2509 H   0  0  0  0  0  0  0  0  0  0  0  0
   13.3912    2.5490    0.2986 H   0  0  0  0  0  0  0  0  0  0  0  0
    9.5466    0.3861   -1.5360 H   0  0  0  0  0  0  0  0  0  0  0  0
    7.3483   -0.7118   -1.5322 H   0  0  0  0  0  0  0  0  0  0  0  0
    6.6965   -2.1659    0.5165 H   0  0  0  0  0  0  0  0  0  0  0  0
    6.1786   -2.6311   -1.1207 H   0  0  0  0  0  0  0  0  0  0  0  0
    5.3075   -3.2647    0.2865 H   0  0  0  0  0  0  0  0  0  0  0  0
  1  2  1  0
  1 28  1  0
  1 29  1  0
  1 30  1  0
  2  3  2  0
  2 26  1  0
  3  4  1  0
  4  5  1  0
  4 24  1  0
  5  6  2  0
  5 23  1  0
  6  7  1  0
  6 31  1  0
  7  8  2  0
  7 32  1  0
  8  9  1  0
  8 22  1  0
  9 10  2  0
  9 11  1  0
 11 12  1  0
 11 21  1  0
 12 13  1  0
 12 33  1  0
 12 34  1  0
 13 14  2  0
 13 15  1  0
 15 16  1  0
 15 35  1  0
 16 17  1  0
 16 21  1  0
 16 36  1  6
 17 18  1  0
 17 37  1  0
 17 38  1  0
 18 19  1  0
 18 39  1  0
 18 40  1  0
 19 20  1  0
 19 41  1  0
 19 42  1  0
 20 21  1  0
 20 43  1  0
 20 44  1  0
 21 45  1  1
 22 23  2  0
 22 46  1  0
 23 47  1  0
 24 25  1  0
 24 26  2  0
 25 48  1  0
 25 49  1  0
 25 50  1  0
 26 27  1  0
M  END

