
     RDKit          3D

 48 51  0  0  0  0  0  0  0  0999 V2000
    2.4391    1.0734    0.4077 O   0  0  0  0  0  0  0  0  0  0  0  0
    3.3696    0.2808    0.3058 C   0  0  0  0  0  0  0  0  0  0  0  0
    3.7192   -0.5076    1.3529 N   0  0  0  0  0  0  0  0  0  0  0  0
    3.0366   -0.3537    2.5353 N   0  0  0  0  0  0  0  0  0  0  0  0
    3.4146   -1.0719    3.6153 C   0  0  0  0  0  0  0  0  0  0  0  0
    4.3424   -1.8692    3.5967 O   0  0  0  0  0  0  0  0  0  0  0  0
    2.5880   -0.8263    4.8708 C   0  0  2  0  0  0  0  0  0  0  0  0
    1.9927   -2.1293    5.4024 C   0  0  0  0  0  0  0  0  0  0  0  0
    1.2699   -1.8812    6.5930 O   0  0  0  0  0  0  0  0  0  0  0  0
    0.4292   -0.8046    6.5386 C   0  0  0  0  0  0  0  0  0  0  0  0
   -0.5757   -0.6794    7.5035 C   0  0  0  0  0  0  0  0  0  0  0  0
   -1.4495    0.4082    7.4711 C   0  0  0  0  0  0  0  0  0  0  0  0
   -1.3276    1.3775    6.4681 C   0  0  0  0  0  0  0  0  0  0  0  0
   -0.3198    1.2658    5.5087 C   0  0  0  0  0  0  0  0  0  0  0  0
    0.5618    0.1826    5.5436 C   0  0  0  0  0  0  0  0  0  0  0  0
    1.5547    0.1074    4.5947 O   0  0  0  0  0  0  0  0  0  0  0  0
    4.0945    0.1004   -1.0088 C   0  0  0  0  0  0  0  0  0  0  0  0
    3.3272    0.4845   -2.1249 C   0  0  0  0  0  0  0  0  0  0  0  0
    3.8414    0.4082   -3.4150 C   0  0  0  0  0  0  0  0  0  0  0  0
    2.8305    0.9315   -4.8161 S   0  0  1  0  0  0  0  0  0  0  0  0
    3.4590    0.3933   -6.0222 O   0  0  0  0  0  0  0  0  0  0  0  0
    1.4403    0.6648   -4.4581 O   0  0  0  0  0  0  0  0  0  0  0  0
    3.0139    2.5949   -4.9416 N   0  0  0  0  0  0  0  0  0  0  0  0
    2.6050    3.4909   -3.8954 C   0  0  1  0  0  0  0  0  0  0  0  0
    1.9583    4.7907   -4.3181 C   0  0  0  0  0  0  0  0  0  0  0  0
    1.1292    3.7126   -3.6828 C   0  0  0  0  0  0  0  0  0  0  0  0
    5.1365   -0.0645   -3.6433 C   0  0  0  0  0  0  0  0  0  0  0  0
    5.9160   -0.4429   -2.5533 C   0  0  0  0  0  0  0  0  0  0  0  0
    5.4057   -0.3592   -1.2505 C   0  0  0  0  0  0  0  0  0  0  0  0
    6.6207   -0.8686    0.1384 Br  0  0  0  0  0  0  0  0  0  0  0  0
    4.4984   -1.1620    1.3968 H   0  0  0  0  0  0  0  0  0  0  0  0
    2.2691    0.3146    2.5186 H   0  0  0  0  0  0  0  0  0  0  0  0
    3.2702   -0.4143    5.6391 H   0  0  0  0  0  0  0  0  0  0  0  0
    2.7930   -2.8425    5.6356 H   0  0  0  0  0  0  0  0  0  0  0  0
    1.3301   -2.5693    4.6332 H   0  0  0  0  0  0  0  0  0  0  0  0
   -0.6531   -1.4563    8.2670 H   0  0  0  0  0  0  0  0  0  0  0  0
   -2.2322    0.4950    8.2280 H   0  0  0  0  0  0  0  0  0  0  0  0
   -2.0138    2.2266    6.4350 H   0  0  0  0  0  0  0  0  0  0  0  0
   -0.1923    2.0133    4.7226 H   0  0  0  0  0  0  0  0  0  0  0  0
    2.3109    0.8383   -1.9477 H   0  0  0  0  0  0  0  0  0  0  0  0
    3.8753    2.8239   -5.4355 H   0  0  0  0  0  0  0  0  0  0  0  0
    3.2477    3.5247   -3.0044 H   0  0  0  0  0  0  0  0  0  0  0  0
    1.8430    4.9531   -5.3930 H   0  0  0  0  0  0  0  0  0  0  0  0
    2.2033    5.6857   -3.7399 H   0  0  0  0  0  0  0  0  0  0  0  0
    0.4565    3.1342   -4.3181 H   0  0  0  0  0  0  0  0  0  0  0  0
    0.7896    3.8438   -2.6522 H   0  0  0  0  0  0  0  0  0  0  0  0
    5.5178   -0.1433   -4.6631 H   0  0  0  0  0  0  0  0  0  0  0  0
    6.9322   -0.8085   -2.7075 H   0  0  0  0  0  0  0  0  0  0  0  0
  1  2  2  0
  2  3  1  0
  2 17  1  0
  3  4  1  0
  3 31  1  0
  4  5  1  0
  4 32  1  0
  5  6  2  0
  5  7  1  0
  7  8  1  0
  7 16  1  0
  7 33  1  1
  8  9  1  0
  8 34  1  0
  8 35  1  0
  9 10  1  0
 10 11  2  0
 10 15  1  0
 11 12  1  0
 11 36  1  0
 12 13  2  0
 12 37  1  0
 13 14  1  0
 13 38  1  0
 14 15  2  0
 14 39  1  0
 15 16  1  0
 17 18  2  0
 17 29  1  0
 18 19  1  0
 18 40  1  0
 19 20  1  0
 19 27  2  0
 20 21  2  0
 20 22  2  0
 20 23  1  6
 23 24  1  0
 23 41  1  0
 24 25  1  0
 24 26  1  0
 24 42  1  1
 25 26  1  0
 25 43  1  0
 25 44  1  0
 26 45  1  0
 26 46  1  0
 27 28  1  0
 27 47  1  0
 28 29  2  0
 28 48  1  0
 29 30  1  0
M  END

