
     RDKit          3D

 40 42  0  0  0  0  0  0  0  0999 V2000
    2.0298    0.5912   -2.3950 C   0  0  0  0  0  0  0  0  0  0  0  0
    2.9662    0.3525   -1.2342 C   0  0  0  0  0  0  0  0  0  0  0  0
    3.2084    1.3752   -0.2980 C   0  0  0  0  0  0  0  0  0  0  0  0
    4.0762    1.1904    0.7812 C   0  0  0  0  0  0  0  0  0  0  0  0
    4.3347    2.2928    1.7804 C   0  0  0  0  0  0  0  0  0  0  0  0
    4.7165   -0.0552    0.9226 C   0  0  0  0  0  0  0  0  0  0  0  0
    4.4865   -1.0923    0.0183 C   0  0  0  0  0  0  0  0  0  0  0  0
    5.2185   -2.4285    0.1586 C   0  0  1  0  0  0  0  0  0  0  0  0
    6.0257   -2.4915    1.3283 O   0  0  0  0  0  0  0  0  0  0  0  0
    4.3065   -3.6468    0.0751 C   0  0  0  0  0  0  0  0  0  0  0  0
    4.7378   -4.8121   -0.5736 C   0  0  0  0  0  0  0  0  0  0  0  0
    3.9482   -5.9617   -0.5881 C   0  0  0  0  0  0  0  0  0  0  0  0
    2.7102   -5.9720    0.0693 C   0  0  0  0  0  0  0  0  0  0  0  0
    2.2625   -4.8185    0.7467 C   0  0  0  0  0  0  0  0  0  0  0  0
    3.0630   -3.6746    0.7275 C   0  0  0  0  0  0  0  0  0  0  0  0
    0.9500   -4.9050    1.4909 C   0  0  0  0  0  0  0  0  0  0  0  0
   -0.0420   -5.8153    0.7588 C   0  0  0  0  0  0  0  0  0  0  0  0
    0.5586   -7.1631    0.3867 C   0  0  0  0  0  0  0  0  0  0  0  0
   -0.0739   -8.1979    0.3275 O   0  0  0  0  0  0  0  0  0  0  0  0
    1.9043   -7.1192    0.0706 N   0  0  0  0  0  0  0  0  0  0  0  0
    3.6110   -0.8749   -1.0605 C   0  0  0  0  0  0  0  0  0  0  0  0
    2.3898    1.4130   -3.0368 H   0  0  0  0  0  0  0  0  0  0  0  0
    1.0230    0.8768   -2.0464 H   0  0  0  0  0  0  0  0  0  0  0  0
    1.9263   -0.3050   -3.0242 H   0  0  0  0  0  0  0  0  0  0  0  0
    2.7067    2.3405   -0.4219 H   0  0  0  0  0  0  0  0  0  0  0  0
    3.8257    3.2261    1.4976 H   0  0  0  0  0  0  0  0  0  0  0  0
    5.4126    2.5078    1.8686 H   0  0  0  0  0  0  0  0  0  0  0  0
    3.9828    2.0109    2.7875 H   0  0  0  0  0  0  0  0  0  0  0  0
    5.4204   -0.2181    1.7414 H   0  0  0  0  0  0  0  0  0  0  0  0
    5.9400   -2.4943   -0.6741 H   0  0  0  0  0  0  0  0  0  0  0  0
    5.4425   -2.6781    2.0773 H   0  0  0  0  0  0  0  0  0  0  0  0
    5.7057   -4.8198   -1.0822 H   0  0  0  0  0  0  0  0  0  0  0  0
    4.2890   -6.8572   -1.1149 H   0  0  0  0  0  0  0  0  0  0  0  0
    2.7019   -2.7745    1.2341 H   0  0  0  0  0  0  0  0  0  0  0  0
    0.5208   -3.9022    1.6370 H   0  0  0  0  0  0  0  0  0  0  0  0
    1.1355   -5.3141    2.5026 H   0  0  0  0  0  0  0  0  0  0  0  0
   -0.3653   -5.3403   -0.1858 H   0  0  0  0  0  0  0  0  0  0  0  0
   -0.9482   -6.0114    1.3477 H   0  0  0  0  0  0  0  0  0  0  0  0
    2.2918   -7.9933   -0.2727 H   0  0  0  0  0  0  0  0  0  0  0  0
    3.4287   -1.6811   -1.7772 H   0  0  0  0  0  0  0  0  0  0  0  0
  1  2  1  0
  1 22  1  0
  1 23  1  0
  1 24  1  0
  2  3  2  0
  2 21  1  0
  3  4  1  0
  3 25  1  0
  4  5  1  0
  4  6  2  0
  5 26  1  0
  5 27  1  0
  5 28  1  0
  6  7  1  0
  6 29  1  0
  7  8  1  0
  7 21  2  0
  8  9  1  0
  8 10  1  0
  8 30  1  6
  9 31  1  0
 10 11  2  0
 10 15  1  0
 11 12  1  0
 11 32  1  0
 12 13  2  0
 12 33  1  0
 13 14  1  0
 13 20  1  0
 14 15  2  0
 14 16  1  0
 15 34  1  0
 16 17  1  0
 16 35  1  0
 16 36  1  0
 17 18  1  0
 17 37  1  0
 17 38  1  0
 18 19  2  0
 18 20  1  0
 20 39  1  0
 21 40  1  0
M  END

