
     RDKit          3D

 69 71  0  0  0  0  0  0  0  0999 V2000
    2.6726    8.6164   -4.6977 C   0  0  0  0  0  0  0  0  0  0  0  0
    2.6731    7.1511   -5.0998 C   0  0  0  0  0  0  0  0  0  0  0  0
    3.2954    6.3249   -4.0976 O   0  0  0  0  0  0  0  0  0  0  0  0
    4.6293    6.1678   -4.1555 C   0  0  0  0  0  0  0  0  0  0  0  0
    5.3324    6.6934   -4.9882 O   0  0  0  0  0  0  0  0  0  0  0  0
    5.1166    5.2269   -3.0743 C   0  0  0  0  0  0  0  0  0  0  0  0
    6.6198    5.3387   -2.8465 C   0  0  0  0  0  0  0  0  0  0  0  0
    7.1534    4.1983   -1.9770 C   0  0  0  0  0  0  0  0  0  0  0  0
    6.3801    3.4073   -1.4566 O   0  0  0  0  0  0  0  0  0  0  0  0
    8.5215    4.0792   -1.8256 N   0  0  0  0  0  0  0  0  0  0  0  0
    9.0303    3.0846   -0.8606 C   0  0  0  0  0  0  0  0  0  0  0  0
    8.6147    1.6244   -1.0849 C   0  0  0  0  0  0  0  0  0  0  0  0
    8.7406    1.1030   -2.5055 C   0  0  0  0  0  0  0  0  0  0  0  0
   10.0610    1.2593   -2.9732 O   0  0  0  0  0  0  0  0  0  0  0  0
   10.3013    0.6049   -4.1905 C   0  0  0  0  0  0  0  0  0  0  0  0
    9.4078    5.2187   -2.0680 C   0  0  0  0  0  0  0  0  0  0  0  0
   10.8485    4.9029   -2.5241 C   0  0  0  0  0  0  0  0  0  0  0  0
   11.7588    4.9976   -1.7089 O   0  0  0  0  0  0  0  0  0  0  0  0
   11.0738    4.6371   -3.8444 N   0  0  0  0  0  0  0  0  0  0  0  0
   10.0429    4.3760   -4.8391 C   0  0  0  0  0  0  0  0  0  0  0  0
    9.9552    5.5170   -5.8631 C   0  0  0  0  0  0  0  0  0  0  0  0
   11.3485    5.8800   -6.2898 C   0  0  0  0  0  0  0  0  0  0  0  0
   11.7188    6.8572   -7.6818 S   0  0  0  0  0  0  0  0  0  0  0  0
   13.4204    6.7584   -7.3613 C   0  0  0  0  0  0  0  0  0  0  0  0
   13.6823    6.0157   -6.2417 C   0  0  0  0  0  0  0  0  0  0  0  0
   12.4926    5.5099   -5.6198 C   0  0  0  0  0  0  0  0  0  0  0  0
   12.4642    4.6837   -4.3488 C   0  0  2  0  0  0  0  0  0  0  0  0
   13.1060    3.3005   -4.4784 C   0  0  0  0  0  0  0  0  0  0  0  0
   13.2923    2.6574   -5.7136 C   0  0  0  0  0  0  0  0  0  0  0  0
   13.8863    1.3991   -5.7895 C   0  0  0  0  0  0  0  0  0  0  0  0
   14.3143    0.7455   -4.6221 C   0  0  0  0  0  0  0  0  0  0  0  0
   14.8891   -0.4727   -4.7915 O   0  0  0  0  0  0  0  0  0  0  0  0
   15.3474   -1.1827   -3.6634 C   0  0  0  0  0  0  0  0  0  0  0  0
   14.1312    1.3742   -3.3794 C   0  0  0  0  0  0  0  0  0  0  0  0
   13.5344    2.6363   -3.3198 C   0  0  0  0  0  0  0  0  0  0  0  0
    2.1187    9.2098   -5.4428 H   0  0  0  0  0  0  0  0  0  0  0  0
    3.6996    9.0074   -4.6454 H   0  0  0  0  0  0  0  0  0  0  0  0
    2.1887    8.7559   -3.7184 H   0  0  0  0  0  0  0  0  0  0  0  0
    3.1951    7.0063   -6.0573 H   0  0  0  0  0  0  0  0  0  0  0  0
    1.6485    6.7608   -5.1858 H   0  0  0  0  0  0  0  0  0  0  0  0
    4.8507    4.2007   -3.3794 H   0  0  0  0  0  0  0  0  0  0  0  0
    4.5447    5.4003   -2.1515 H   0  0  0  0  0  0  0  0  0  0  0  0
    6.8527    6.3060   -2.3694 H   0  0  0  0  0  0  0  0  0  0  0  0
    7.1305    5.3640   -3.8220 H   0  0  0  0  0  0  0  0  0  0  0  0
    8.7210    3.3813    0.1591 H   0  0  0  0  0  0  0  0  0  0  0  0
   10.1245    3.1552   -0.8965 H   0  0  0  0  0  0  0  0  0  0  0  0
    7.5741    1.4807   -0.7676 H   0  0  0  0  0  0  0  0  0  0  0  0
    9.2552    1.0119   -0.4268 H   0  0  0  0  0  0  0  0  0  0  0  0
    8.0289    1.6273   -3.1772 H   0  0  0  0  0  0  0  0  0  0  0  0
    8.4526    0.0307   -2.5196 H   0  0  0  0  0  0  0  0  0  0  0  0
   11.3418    0.7979   -4.4822 H   0  0  0  0  0  0  0  0  0  0  0  0
    9.6326    0.9690   -4.9982 H   0  0  0  0  0  0  0  0  0  0  0  0
   10.1506   -0.4909   -4.1037 H   0  0  0  0  0  0  0  0  0  0  0  0
    9.5574    5.7886   -1.1340 H   0  0  0  0  0  0  0  0  0  0  0  0
    8.9465    5.8930   -2.7969 H   0  0  0  0  0  0  0  0  0  0  0  0
    9.0842    4.1988   -4.3410 H   0  0  0  0  0  0  0  0  0  0  0  0
   10.3018    3.4369   -5.3566 H   0  0  0  0  0  0  0  0  0  0  0  0
    9.4446    6.3914   -5.4190 H   0  0  0  0  0  0  0  0  0  0  0  0
    9.3378    5.2009   -6.7205 H   0  0  0  0  0  0  0  0  0  0  0  0
   14.1302    7.2567   -8.0200 H   0  0  0  0  0  0  0  0  0  0  0  0
   14.6894    5.8276   -5.8656 H   0  0  0  0  0  0  0  0  0  0  0  0
   13.0222    5.2211   -3.5689 H   0  0  0  0  0  0  0  0  0  0  0  0
   12.9812    3.1528   -6.6360 H   0  0  0  0  0  0  0  0  0  0  0  0
   14.0384    0.9004   -6.7491 H   0  0  0  0  0  0  0  0  0  0  0  0
   15.7682   -2.1262   -4.0368 H   0  0  0  0  0  0  0  0  0  0  0  0
   14.5278   -1.4117   -2.9584 H   0  0  0  0  0  0  0  0  0  0  0  0
   16.1360   -0.6304   -3.1208 H   0  0  0  0  0  0  0  0  0  0  0  0
   14.4503    0.8943   -2.4541 H   0  0  0  0  0  0  0  0  0  0  0  0
   13.3905    3.1193   -2.3504 H   0  0  0  0  0  0  0  0  0  0  0  0
  1  2  1  0
  1 36  1  0
  1 37  1  0
  1 38  1  0
  2  3  1  0
  2 39  1  0
  2 40  1  0
  3  4  1  0
  4  5  2  0
  4  6  1  0
  6  7  1  0
  6 41  1  0
  6 42  1  0
  7  8  1  0
  7 43  1  0
  7 44  1  0
  8  9  2  0
  8 10  1  0
 10 11  1  0
 10 16  1  0
 11 12  1  0
 11 45  1  0
 11 46  1  0
 12 13  1  0
 12 47  1  0
 12 48  1  0
 13 14  1  0
 13 49  1  0
 13 50  1  0
 14 15  1  0
 15 51  1  0
 15 52  1  0
 15 53  1  0
 16 17  1  0
 16 54  1  0
 16 55  1  0
 17 18  2  0
 17 19  1  0
 19 20  1  0
 19 27  1  0
 20 21  1  0
 20 56  1  0
 20 57  1  0
 21 22  1  0
 21 58  1  0
 21 59  1  0
 22 23  1  0
 22 26  2  0
 23 24  1  0
 24 25  2  0
 24 60  1  0
 25 26  1  0
 25 61  1  0
 26 27  1  0
 27 28  1  0
 27 62  1  1
 28 29  2  0
 28 35  1  0
 29 30  1  0
 29 63  1  0
 30 31  2  0
 30 64  1  0
 31 32  1  0
 31 34  1  0
 32 33  1  0
 33 65  1  0
 33 66  1  0
 33 67  1  0
 34 35  2  0
 34 68  1  0
 35 69  1  0
M  END

