
     RDKit          3D

160168  0  0  0  0  0  0  0  0999 V2000
    7.2168    9.6491   -2.3376 C   0  0  0  0  0  0  0  0  0  0  0  0
    8.1377    8.9477   -1.3446 C   0  0  0  0  0  0  0  0  0  0  0  0
    8.1171    7.4804   -1.3776 N   0  0  0  0  0  0  0  0  0  0  0  0
    6.9503    6.7842   -1.9141 C   0  0  0  0  0  0  0  0  0  0  0  0
    5.8388    6.5253   -0.8913 C   0  0  0  0  0  0  0  0  0  0  0  0
    9.0615    6.7917   -0.6417 C   0  0  0  0  0  0  0  0  0  0  0  0
   10.0883    7.4650    0.0775 C   0  0  0  0  0  0  0  0  0  0  0  0
   11.0507    6.7626    0.7840 C   0  0  0  0  0  0  0  0  0  0  0  0
   11.0666    5.3482    0.8637 C   0  0  0  0  0  0  0  0  0  0  0  0
   12.1266    4.7347    1.6376 C   0  0  0  0  0  0  0  0  0  0  0  0
   12.3136    3.4387    2.0414 C   0  0  0  0  0  0  0  0  0  0  0  0
   11.3402    2.2969    1.8147 C   0  0  0  0  0  0  0  0  0  0  0  0
   11.7714    1.2027    2.8024 C   0  0  0  0  0  0  0  0  0  0  0  0
   13.2316    1.4972    3.0690 C   0  0  0  0  0  0  0  0  0  0  0  0
   14.1970    0.5876    3.3789 C   0  0  0  0  0  0  0  0  0  0  0  0
   14.0791   -0.8387    3.6644 C   0  0  0  0  0  0  0  0  0  0  0  0
   12.8965   -1.4922    4.0833 C   0  0  0  0  0  0  0  0  0  0  0  0
   12.8774   -2.8559    4.3547 C   0  0  0  0  0  0  0  0  0  0  0  0
   14.0397   -3.6375    4.2109 C   0  0  0  0  0  0  0  0  0  0  0  0
   14.0158   -5.0282    4.4795 N   0  0  0  0  0  0  0  0  0  0  0  0
   12.9119   -5.8119    4.0625 C   0  0  0  0  0  0  0  0  0  0  0  0
   12.3091   -5.6011    2.8073 C   0  0  0  0  0  0  0  0  0  0  0  0
   11.2206   -6.3682    2.4128 C   0  0  0  0  0  0  0  0  0  0  0  0
   10.6960   -7.4003    3.2260 C   0  0  0  0  0  0  0  0  0  0  0  0
    9.5519   -8.1536    2.7225 C   0  0  0  0  0  0  0  0  0  0  0  0
    9.0806   -9.3752    3.0980 C   0  0  0  0  0  0  0  0  0  0  0  0
    9.7387  -10.3349    4.0654 C   0  0  0  0  0  0  0  0  0  0  0  0
    9.3100  -11.7234    3.5683 C   0  0  0  0  0  0  0  0  0  0  0  0
    8.0256  -11.4874    2.7954 C   0  0  0  0  0  0  0  0  0  0  0  0
    7.1185  -12.4537    2.4470 C   0  0  0  0  0  0  0  0  0  0  0  0
    7.1407  -13.8911    2.6259 C   0  0  0  0  0  0  0  0  0  0  0  0
    5.9516  -14.6042    2.3290 C   0  0  0  0  0  0  0  0  0  0  0  0
    5.8471  -15.9778    2.4624 C   0  0  0  0  0  0  0  0  0  0  0  0
    6.9536  -16.7644    2.8886 C   0  0  0  0  0  0  0  0  0  0  0  0
    6.8750  -18.1369    2.9929 N   0  0  0  0  0  0  0  0  0  0  0  0
    5.6307  -18.8459    2.7019 C   0  0  0  0  0  0  0  0  0  0  0  0
    4.6084  -18.8689    3.8438 C   0  0  0  0  0  0  0  0  0  0  0  0
    8.0144  -18.9270    3.4540 C   0  0  0  0  0  0  0  0  0  0  0  0
    8.2019  -18.9795    4.9745 C   0  0  0  0  0  0  0  0  0  0  0  0
    8.1538  -16.0564    3.1776 C   0  0  0  0  0  0  0  0  0  0  0  0
    8.2404  -14.6787    3.0476 C   0  0  0  0  0  0  0  0  0  0  0  0
    7.9050  -10.0534    2.5127 C   0  0  0  0  0  0  0  0  0  0  0  0
    6.8663   -9.3972    1.8426 C   0  0  0  0  0  0  0  0  0  0  0  0
    5.7707  -10.0590    1.2060 C   0  0  0  0  0  0  0  0  0  0  0  0
    4.8596  -10.5498    0.6723 N   0  0  0  0  0  0  0  0  0  0  0  0
    6.7548   -7.9735    1.7481 C   0  0  0  0  0  0  0  0  0  0  0  0
    6.6024   -6.8242    1.6415 N   0  0  0  0  0  0  0  0  0  0  0  0
   11.3035   -7.5884    4.4895 C   0  0  0  0  0  0  0  0  0  0  0  0
   12.3808   -6.8111    4.9004 C   0  0  0  0  0  0  0  0  0  0  0  0
   15.0908   -5.6328    5.1767 C   0  0  0  0  0  0  0  0  0  0  0  0
   15.6867   -4.9895    6.2784 C   0  0  0  0  0  0  0  0  0  0  0  0
   16.7477   -5.5766    6.9591 C   0  0  0  0  0  0  0  0  0  0  0  0
   17.2604   -6.8393    6.5803 C   0  0  0  0  0  0  0  0  0  0  0  0
   18.3537   -7.5383    7.2480 C   0  0  0  0  0  0  0  0  0  0  0  0
   19.3380   -7.0492    8.0526 C   0  0  0  0  0  0  0  0  0  0  0  0
   19.6210   -5.5912    8.3429 C   0  0  0  0  0  0  0  0  0  0  0  0
   21.1356   -5.5436    8.5929 C   0  0  0  0  0  0  0  0  0  0  0  0
   21.5108   -6.9506    9.0201 C   0  0  0  0  0  0  0  0  0  0  0  0
   22.6768   -7.3069    9.6456 C   0  0  0  0  0  0  0  0  0  0  0  0
   23.8474   -6.5288    9.9959 C   0  0  0  0  0  0  0  0  0  0  0  0
   24.8206   -7.1491   10.8198 C   0  0  0  0  0  0  0  0  0  0  0  0
   25.9787   -6.5091   11.2255 C   0  0  0  0  0  0  0  0  0  0  0  0
   26.2715   -5.1798   10.8108 C   0  0  0  0  0  0  0  0  0  0  0  0
   27.4367   -4.5414   11.1791 N   0  0  0  0  0  0  0  0  0  0  0  0
   28.4148   -5.1963   12.0452 C   0  0  0  0  0  0  0  0  0  0  0  0
   28.1068   -5.1326   13.5455 C   0  0  0  0  0  0  0  0  0  0  0  0
   27.7083   -3.1659   10.7675 C   0  0  0  0  0  0  0  0  0  0  0  0
   27.0278   -2.0837   11.6134 C   0  0  0  0  0  0  0  0  0  0  0  0
   25.3046   -4.5551    9.9741 C   0  0  0  0  0  0  0  0  0  0  0  0
   24.1448   -5.2063    9.5831 C   0  0  0  0  0  0  0  0  0  0  0  0
   20.4073   -7.8545    8.6792 C   0  0  0  0  0  0  0  0  0  0  0  0
   20.3243   -9.2313    8.9162 C   0  0  0  0  0  0  0  0  0  0  0  0
   21.3878  -10.0250    9.4477 C   0  0  0  0  0  0  0  0  0  0  0  0
   22.2221  -10.7149    9.8763 N   0  0  0  0  0  0  0  0  0  0  0  0
   19.1433  -10.0078    8.6909 C   0  0  0  0  0  0  0  0  0  0  0  0
   18.2150  -10.6932    8.5365 N   0  0  0  0  0  0  0  0  0  0  0  0
   16.6263   -7.4856    5.4930 C   0  0  0  0  0  0  0  0  0  0  0  0
   15.5793   -6.8973    4.7956 C   0  0  0  0  0  0  0  0  0  0  0  0
   15.2294   -2.9999    3.8093 C   0  0  0  0  0  0  0  0  0  0  0  0
   15.2447   -1.6339    3.5592 C   0  0  0  0  0  0  0  0  0  0  0  0
   13.4652    2.9306    2.7945 C   0  0  0  0  0  0  0  0  0  0  0  0
   14.5887    3.6462    3.2236 C   0  0  0  0  0  0  0  0  0  0  0  0
   15.5922    3.1081    4.0906 C   0  0  0  0  0  0  0  0  0  0  0  0
   16.4370    2.7333    4.7987 N   0  0  0  0  0  0  0  0  0  0  0  0
   14.8569    5.0087    2.8839 C   0  0  0  0  0  0  0  0  0  0  0  0
   15.1228    6.1148    2.6355 N   0  0  0  0  0  0  0  0  0  0  0  0
   10.0407    4.6814    0.1482 C   0  0  0  0  0  0  0  0  0  0  0  0
    9.0761    5.3698   -0.5702 C   0  0  0  0  0  0  0  0  0  0  0  0
    7.3843   10.7342   -2.2587 H   0  0  0  0  0  0  0  0  0  0  0  0
    6.1496    9.4701   -2.1378 H   0  0  0  0  0  0  0  0  0  0  0  0
    7.4319    9.3562   -3.3772 H   0  0  0  0  0  0  0  0  0  0  0  0
    7.9091    9.3095   -0.3218 H   0  0  0  0  0  0  0  0  0  0  0  0
    9.1679    9.2753   -1.5578 H   0  0  0  0  0  0  0  0  0  0  0  0
    7.2787    5.8370   -2.3666 H   0  0  0  0  0  0  0  0  0  0  0  0
    6.5525    7.3718   -2.7508 H   0  0  0  0  0  0  0  0  0  0  0  0
    6.1998    5.9127   -0.0508 H   0  0  0  0  0  0  0  0  0  0  0  0
    4.9972    5.9934   -1.3640 H   0  0  0  0  0  0  0  0  0  0  0  0
    5.4507    7.4693   -0.4762 H   0  0  0  0  0  0  0  0  0  0  0  0
   10.1403    8.5515    0.0872 H   0  0  0  0  0  0  0  0  0  0  0  0
   11.8259    7.3253    1.3116 H   0  0  0  0  0  0  0  0  0  0  0  0
   12.8828    5.4561    1.9442 H   0  0  0  0  0  0  0  0  0  0  0  0
   11.4142    1.9229    0.7774 H   0  0  0  0  0  0  0  0  0  0  0  0
   10.2972    2.6102    1.9679 H   0  0  0  0  0  0  0  0  0  0  0  0
   11.6126    0.1892    2.4086 H   0  0  0  0  0  0  0  0  0  0  0  0
   11.1862    1.2834    3.7367 H   0  0  0  0  0  0  0  0  0  0  0  0
   15.2286    0.9409    3.3903 H   0  0  0  0  0  0  0  0  0  0  0  0
   11.9845   -0.9213    4.2512 H   0  0  0  0  0  0  0  0  0  0  0  0
   11.9540   -3.3254    4.6984 H   0  0  0  0  0  0  0  0  0  0  0  0
   12.7011   -4.8295    2.1426 H   0  0  0  0  0  0  0  0  0  0  0  0
   10.7664   -6.1825    1.4361 H   0  0  0  0  0  0  0  0  0  0  0  0
    9.0391   -7.6533    1.9003 H   0  0  0  0  0  0  0  0  0  0  0  0
    9.3614  -10.1660    5.0905 H   0  0  0  0  0  0  0  0  0  0  0  0
   10.8304  -10.2146    4.0993 H   0  0  0  0  0  0  0  0  0  0  0  0
    9.1672  -12.4365    4.3933 H   0  0  0  0  0  0  0  0  0  0  0  0
   10.0884  -12.1476    2.9083 H   0  0  0  0  0  0  0  0  0  0  0  0
    6.2076  -12.1143    1.9560 H   0  0  0  0  0  0  0  0  0  0  0  0
    5.0772  -14.0440    1.9865 H   0  0  0  0  0  0  0  0  0  0  0  0
    4.8923  -16.4454    2.2286 H   0  0  0  0  0  0  0  0  0  0  0  0
    5.9003  -19.8787    2.4321 H   0  0  0  0  0  0  0  0  0  0  0  0
    5.1728  -18.4139    1.7974 H   0  0  0  0  0  0  0  0  0  0  0  0
    5.0083  -19.3832    4.7311 H   0  0  0  0  0  0  0  0  0  0  0  0
    3.6972  -19.4015    3.5265 H   0  0  0  0  0  0  0  0  0  0  0  0
    4.3180  -17.8516    4.1474 H   0  0  0  0  0  0  0  0  0  0  0  0
    8.9330  -18.5498    2.9758 H   0  0  0  0  0  0  0  0  0  0  0  0
    7.8790  -19.9489    3.0674 H   0  0  0  0  0  0  0  0  0  0  0  0
    8.3348  -17.9734    5.4006 H   0  0  0  0  0  0  0  0  0  0  0  0
    9.0940  -19.5755    5.2266 H   0  0  0  0  0  0  0  0  0  0  0  0
    7.3352  -19.4424    5.4705 H   0  0  0  0  0  0  0  0  0  0  0  0
    9.0424  -16.5926    3.5063 H   0  0  0  0  0  0  0  0  0  0  0  0
    9.2007  -14.2143    3.2619 H   0  0  0  0  0  0  0  0  0  0  0  0
   10.8993   -8.3188    5.1888 H   0  0  0  0  0  0  0  0  0  0  0  0
   12.8119   -6.9660    5.8910 H   0  0  0  0  0  0  0  0  0  0  0  0
   15.2995   -4.0246    6.6104 H   0  0  0  0  0  0  0  0  0  0  0  0
   17.1471   -5.0620    7.8318 H   0  0  0  0  0  0  0  0  0  0  0  0
   18.3797   -8.6049    7.0220 H   0  0  0  0  0  0  0  0  0  0  0  0
   19.0766   -5.2671    9.2486 H   0  0  0  0  0  0  0  0  0  0  0  0
   19.3054   -4.9310    7.5232 H   0  0  0  0  0  0  0  0  0  0  0  0
   21.4099   -4.7974    9.3528 H   0  0  0  0  0  0  0  0  0  0  0  0
   21.6656   -5.2653    7.6638 H   0  0  0  0  0  0  0  0  0  0  0  0
   22.7675   -8.3474    9.9538 H   0  0  0  0  0  0  0  0  0  0  0  0
   24.6451   -8.1750   11.1551 H   0  0  0  0  0  0  0  0  0  0  0  0
   26.6662   -7.0519   11.8717 H   0  0  0  0  0  0  0  0  0  0  0  0
   29.3895   -4.7220   11.8519 H   0  0  0  0  0  0  0  0  0  0  0  0
   28.5290   -6.2460   11.7302 H   0  0  0  0  0  0  0  0  0  0  0  0
   28.0827   -4.0932   13.9072 H   0  0  0  0  0  0  0  0  0  0  0  0
   28.8818   -5.6707   14.1150 H   0  0  0  0  0  0  0  0  0  0  0  0
   27.1342   -5.5922   13.7786 H   0  0  0  0  0  0  0  0  0  0  0  0
   27.4299   -3.0438    9.7080 H   0  0  0  0  0  0  0  0  0  0  0  0
   28.7995   -3.0253   10.8037 H   0  0  0  0  0  0  0  0  0  0  0  0
   25.9328   -2.1948   11.6076 H   0  0  0  0  0  0  0  0  0  0  0  0
   27.2698   -1.0841   11.2173 H   0  0  0  0  0  0  0  0  0  0  0  0
   27.3636   -2.1223   12.6609 H   0  0  0  0  0  0  0  0  0  0  0  0
   25.4628   -3.5395    9.6152 H   0  0  0  0  0  0  0  0  0  0  0  0
   23.4679   -4.6706    8.9209 H   0  0  0  0  0  0  0  0  0  0  0  0
   16.9848   -8.4702    5.1817 H   0  0  0  0  0  0  0  0  0  0  0  0
   15.1303   -7.4166    3.9472 H   0  0  0  0  0  0  0  0  0  0  0  0
   16.1436   -3.5848    3.6952 H   0  0  0  0  0  0  0  0  0  0  0  0
   16.1814   -1.1605    3.2537 H   0  0  0  0  0  0  0  0  0  0  0  0
    9.9997    3.5943    0.1287 H   0  0  0  0  0  0  0  0  0  0  0  0
    8.3226    4.7846   -1.0943 H   0  0  0  0  0  0  0  0  0  0  0  0
  1  2  1  0
  1 89  1  0
  1 90  1  0
  1 91  1  0
  2  3  1  0
  2 92  1  0
  2 93  1  0
  3  4  1  0
  3  6  1  0
  4  5  1  0
  4 94  1  0
  4 95  1  0
  5 96  1  0
  5 97  1  0
  5 98  1  0
  6  7  2  0
  6 88  1  0
  7  8  1  0
  7 99  1  0
  8  9  2  0
  8100  1  0
  9 10  1  0
  9 87  1  0
 10 11  2  0
 10101  1  0
 11 12  1  0
 11 81  1  0
 12 13  1  0
 12102  1  0
 12103  1  0
 13 14  1  0
 13104  1  0
 13105  1  0
 14 15  2  0
 14 81  1  0
 15 16  1  0
 15106  1  0
 16 17  2  0
 16 80  1  0
 17 18  1  0
 17107  1  0
 18 19  2  0
 18108  1  0
 19 20  1  0
 19 79  1  0
 20 21  1  0
 20 50  1  0
 21 22  2  0
 21 49  1  0
 22 23  1  0
 22109  1  0
 23 24  2  0
 23110  1  0
 24 25  1  0
 24 48  1  0
 25 26  2  0
 25111  1  0
 26 27  1  0
 26 42  1  0
 27 28  1  0
 27112  1  0
 27113  1  0
 28 29  1  0
 28114  1  0
 28115  1  0
 29 30  2  0
 29 42  1  0
 30 31  1  0
 30116  1  0
 31 32  2  0
 31 41  1  0
 32 33  1  0
 32117  1  0
 33 34  2  0
 33118  1  0
 34 35  1  0
 34 40  1  0
 35 36  1  0
 35 38  1  0
 36 37  1  0
 36119  1  0
 36120  1  0
 37121  1  0
 37122  1  0
 37123  1  0
 38 39  1  0
 38124  1  0
 38125  1  0
 39126  1  0
 39127  1  0
 39128  1  0
 40 41  2  0
 40129  1  0
 41130  1  0
 42 43  2  0
 43 44  1  0
 43 46  1  0
 44 45  3  0
 46 47  3  0
 48 49  2  0
 48131  1  0
 49132  1  0
 50 51  2  0
 50 78  1  0
 51 52  1  0
 51133  1  0
 52 53  2  0
 52134  1  0
 53 54  1  0
 53 77  1  0
 54 55  2  0
 54135  1  0
 55 56  1  0
 55 71  1  0
 56 57  1  0
 56136  1  0
 56137  1  0
 57 58  1  0
 57138  1  0
 57139  1  0
 58 59  2  0
 58 71  1  0
 59 60  1  0
 59140  1  0
 60 61  2  0
 60 70  1  0
 61 62  1  0
 61141  1  0
 62 63  2  0
 62142  1  0
 63 64  1  0
 63 69  1  0
 64 65  1  0
 64 67  1  0
 65 66  1  0
 65143  1  0
 65144  1  0
 66145  1  0
 66146  1  0
 66147  1  0
 67 68  1  0
 67148  1  0
 67149  1  0
 68150  1  0
 68151  1  0
 68152  1  0
 69 70  2  0
 69153  1  0
 70154  1  0
 71 72  2  0
 72 73  1  0
 72 75  1  0
 73 74  3  0
 75 76  3  0
 77 78  2  0
 77155  1  0
 78156  1  0
 79 80  2  0
 79157  1  0
 80158  1  0
 81 82  2  0
 82 83  1  0
 82 85  1  0
 83 84  3  0
 85 86  3  0
 87 88  2  0
 87159  1  0
 88160  1  0
M  END

