
     RDKit          3D

 44 45  0  0  0  0  0  0  0  0999 V2000
    0.8214    1.0555   -0.4316 C   0  0  0  0  0  0  0  0  0  0  0  0
    2.3021    1.4102   -0.4379 C   0  0  1  0  0  0  0  0  0  0  0  0
    2.8356    1.7533    0.9511 C   0  0  0  0  0  0  0  0  0  0  0  0
    2.9805    0.2595   -0.9719 O   0  0  0  0  0  0  0  0  0  0  0  0
    4.2050    0.3549   -1.5359 C   0  0  0  0  0  0  0  0  0  0  0  0
    4.9469    1.5384   -1.7085 C   0  0  0  0  0  0  0  0  0  0  0  0
    6.1481    1.5634   -2.2944 N   0  0  0  0  0  0  0  0  0  0  0  0
    6.6783    0.4268   -2.7316 C   0  0  0  0  0  0  0  0  0  0  0  0
    6.0303   -0.8194   -2.6088 C   0  0  0  0  0  0  0  0  0  0  0  0
    6.7281   -2.0477   -3.1336 C   0  0  0  0  0  0  0  0  0  0  0  0
    7.8391   -1.9411   -3.6228 O   0  0  0  0  0  0  0  0  0  0  0  0
    6.0109   -3.3855   -3.0083 C   0  0  0  0  0  0  0  0  0  0  0  0
    6.6984   -4.6267   -3.6469 C   0  0  1  0  0  0  0  0  0  0  0  0
    8.0538   -4.8430   -3.1324 N   0  0  0  0  0  0  0  0  0  0  0  0
    5.8715   -5.8910   -3.3076 C   0  0  0  0  0  0  0  0  0  0  0  0
    4.5114   -5.9729   -4.0122 C   0  0  0  0  0  0  0  0  0  0  0  0
    4.6582   -5.8324   -5.5326 C   0  0  0  0  0  0  0  0  0  0  0  0
    5.4359   -4.5638   -5.9043 C   0  0  0  0  0  0  0  0  0  0  0  0
    6.7913   -4.5009   -5.1885 C   0  0  0  0  0  0  0  0  0  0  0  0
    4.7735   -0.8420   -1.9990 C   0  0  0  0  0  0  0  0  0  0  0  0
    0.2258    1.8985   -0.0493 H   0  0  0  0  0  0  0  0  0  0  0  0
    0.6397    0.1800    0.2113 H   0  0  0  0  0  0  0  0  0  0  0  0
    0.4757    0.8150   -1.4479 H   0  0  0  0  0  0  0  0  0  0  0  0
    2.4597    2.2633   -1.1220 H   0  0  0  0  0  0  0  0  0  0  0  0
    2.6725    0.9090    1.6394 H   0  0  0  0  0  0  0  0  0  0  0  0
    2.3137    2.6353    1.3542 H   0  0  0  0  0  0  0  0  0  0  0  0
    3.9126    1.9769    0.9329 H   0  0  0  0  0  0  0  0  0  0  0  0
    4.5616    2.5015   -1.3610 H   0  0  0  0  0  0  0  0  0  0  0  0
    7.6624    0.4703   -3.2067 H   0  0  0  0  0  0  0  0  0  0  0  0
    4.9869   -3.2530   -3.3945 H   0  0  0  0  0  0  0  0  0  0  0  0
    5.8784   -3.5728   -1.9253 H   0  0  0  0  0  0  0  0  0  0  0  0
    8.0298   -4.9730   -2.1192 H   0  0  0  0  0  0  0  0  0  0  0  0
    8.6142   -4.0085   -3.3073 H   0  0  0  0  0  0  0  0  0  0  0  0
    5.7412   -5.9619   -2.2121 H   0  0  0  0  0  0  0  0  0  0  0  0
    6.4914   -6.7547   -3.6014 H   0  0  0  0  0  0  0  0  0  0  0  0
    3.8338   -5.1856   -3.6341 H   0  0  0  0  0  0  0  0  0  0  0  0
    4.0247   -6.9305   -3.7616 H   0  0  0  0  0  0  0  0  0  0  0  0
    3.6672   -5.8365   -6.0172 H   0  0  0  0  0  0  0  0  0  0  0  0
    5.2005   -6.7128   -5.9237 H   0  0  0  0  0  0  0  0  0  0  0  0
    4.8279   -3.6736   -5.6581 H   0  0  0  0  0  0  0  0  0  0  0  0
    5.5960   -4.5211   -6.9947 H   0  0  0  0  0  0  0  0  0  0  0  0
    7.3301   -3.5779   -5.4518 H   0  0  0  0  0  0  0  0  0  0  0  0
    7.4242   -5.3380   -5.5279 H   0  0  0  0  0  0  0  0  0  0  0  0
    4.2010   -1.7609   -1.8645 H   0  0  0  0  0  0  0  0  0  0  0  0
  1  2  1  0
  1 21  1  0
  1 22  1  0
  1 23  1  0
  2  3  1  0
  2  4  1  0
  2 24  1  6
  3 25  1  0
  3 26  1  0
  3 27  1  0
  4  5  1  0
  5  6  2  0
  5 20  1  0
  6  7  1  0
  6 28  1  0
  7  8  2  0
  8  9  1  0
  8 29  1  0
  9 10  1  0
  9 20  2  0
 10 11  2  0
 10 12  1  0
 12 13  1  0
 12 30  1  0
 12 31  1  0
 13 14  1  1
 13 15  1  0
 13 19  1  0
 14 32  1  0
 14 33  1  0
 15 16  1  0
 15 34  1  0
 15 35  1  0
 16 17  1  0
 16 36  1  0
 16 37  1  0
 17 18  1  0
 17 38  1  0
 17 39  1  0
 18 19  1  0
 18 40  1  0
 18 41  1  0
 19 42  1  0
 19 43  1  0
 20 44  1  0
M  END

