
     RDKit          3D

 34 34  0  0  0  0  0  0  0  0999 V2000
    3.6697   -5.6815    0.6949 C   0  0  0  0  0  0  0  0  0  0  0  0
    4.5036   -4.5534    0.6170 O   0  0  0  0  0  0  0  0  0  0  0  0
    3.8100   -3.3427    0.5462 C   0  0  0  0  0  0  0  0  0  0  0  0
    4.8039   -2.2288    0.4878 C   0  0  0  0  0  0  0  0  0  0  0  0
    6.1661   -2.1879    0.5297 C   0  0  0  0  0  0  0  0  0  0  0  0
    6.4481   -0.7943    0.4323 C   0  0  0  0  0  0  0  0  0  0  0  0
    7.8095   -0.1588    0.4285 C   0  0  0  0  0  0  0  0  0  0  0  0
    8.8186   -0.8405    0.4997 O   0  0  0  0  0  0  0  0  0  0  0  0
    7.7883    1.2000    0.3427 N   0  0  0  0  0  0  0  0  0  0  0  0
    8.9875    2.0153    0.3276 C   0  0  0  0  0  0  0  0  0  0  0  0
    9.0316    3.0558    1.4536 C   0  0  0  0  0  0  0  0  0  0  0  0
    9.0396    2.4556    2.8611 C   0  0  0  0  0  0  0  0  0  0  0  0
    9.0945    3.5153    3.9588 C   0  0  0  0  0  0  0  0  0  0  0  0
    9.0511    2.9358    5.3680 C   0  0  0  0  0  0  0  0  0  0  0  0
    8.9269    1.7714    5.6247 O   0  0  0  0  0  0  0  0  0  0  0  0
    9.1570    3.8484    6.3663 O   0  0  0  0  0  0  0  0  0  0  0  0
    5.3496   -0.0778    0.3402 N   0  0  0  0  0  0  0  0  0  0  0  0
    4.3099   -0.9788    0.3745 O   0  0  0  0  0  0  0  0  0  0  0  0
    4.3162   -6.5686    0.7475 H   0  0  0  0  0  0  0  0  0  0  0  0
    3.0134   -5.7724   -0.1938 H   0  0  0  0  0  0  0  0  0  0  0  0
    3.0254   -5.6576    1.5967 H   0  0  0  0  0  0  0  0  0  0  0  0
    3.1464   -3.1957    1.4264 H   0  0  0  0  0  0  0  0  0  0  0  0
    3.1519   -3.2941   -0.3489 H   0  0  0  0  0  0  0  0  0  0  0  0
    6.8689   -3.0092    0.6173 H   0  0  0  0  0  0  0  0  0  0  0  0
    6.8768    1.6419    0.2653 H   0  0  0  0  0  0  0  0  0  0  0  0
    9.0790    2.5291   -0.6467 H   0  0  0  0  0  0  0  0  0  0  0  0
    9.8346    1.3188    0.4091 H   0  0  0  0  0  0  0  0  0  0  0  0
    8.1726    3.7456    1.3463 H   0  0  0  0  0  0  0  0  0  0  0  0
    9.9331    3.6763    1.3013 H   0  0  0  0  0  0  0  0  0  0  0  0
    9.8962    1.7709    2.9750 H   0  0  0  0  0  0  0  0  0  0  0  0
    8.1437    1.8332    3.0124 H   0  0  0  0  0  0  0  0  0  0  0  0
    8.2490    4.2228    3.8609 H   0  0  0  0  0  0  0  0  0  0  0  0
   10.0091    4.1311    3.8664 H   0  0  0  0  0  0  0  0  0  0  0  0
    9.2539    4.7397    6.0023 H   0  0  0  0  0  0  0  0  0  0  0  0
  1  2  1  0
  1 19  1  0
  1 20  1  0
  1 21  1  0
  2  3  1  0
  3  4  1  0
  3 22  1  0
  3 23  1  0
  4  5  2  0
  4 18  1  0
  5  6  1  0
  5 24  1  0
  6  7  1  0
  6 17  2  0
  7  8  2  0
  7  9  1  0
  9 10  1  0
  9 25  1  0
 10 11  1  0
 10 26  1  0
 10 27  1  0
 11 12  1  0
 11 28  1  0
 11 29  1  0
 12 13  1  0
 12 30  1  0
 12 31  1  0
 13 14  1  0
 13 32  1  0
 13 33  1  0
 14 15  2  0
 14 16  1  0
 16 34  1  0
 17 18  1  0
M  END

