
     RDKit          3D

 83 86  0  0  0  0  0  0  0  0999 V2000
    2.5883    4.5411    1.7330 C   0  0  0  0  0  0  0  0  0  0  0  0
    2.5846    3.3743    0.7459 C   0  0  0  0  0  0  0  0  0  0  0  0
    3.6423    2.2965    1.0221 C   0  0  1  0  0  0  0  0  0  0  0  0
    3.5946    2.0066    2.0837 H   0  0  0  0  0  0  0  0  0  0  0  0
    3.4207    1.0340    0.1785 C   0  0  0  0  0  0  0  0  0  0  0  0
    4.9940    2.8309    0.8198 N   0  0  0  0  0  0  0  0  0  0  0  0
    6.0687    2.3670    1.5098 C   0  0  0  0  0  0  0  0  0  0  0  0
    5.9651    1.5461    2.4141 O   0  0  0  0  0  0  0  0  0  0  0  0
    7.4624    2.8915    1.1024 C   0  0  1  0  0  0  0  0  0  0  0  0
    8.1411    2.1780    1.5924 H   0  0  0  0  0  0  0  0  0  0  0  0
    7.7641    2.7082   -0.4241 C   0  0  0  0  0  0  0  0  0  0  0  0
    7.3159    3.7421   -1.4356 C   0  0  0  0  0  0  0  0  0  0  0  0
    8.1098    4.8774   -1.6844 C   0  0  0  0  0  0  0  0  0  0  0  0
    7.7291    5.8273   -2.6355 C   0  0  0  0  0  0  0  0  0  0  0  0
    6.5478    5.6621   -3.3670 C   0  0  0  0  0  0  0  0  0  0  0  0
    5.7614    4.5278   -3.1516 C   0  0  0  0  0  0  0  0  0  0  0  0
    6.1472    3.5763   -2.2004 C   0  0  0  0  0  0  0  0  0  0  0  0
    7.7588    4.2204    1.7033 N   0  0  0  0  0  0  0  0  0  0  0  0
    6.8285    4.8456    2.6572 C   0  0  0  0  0  0  0  0  0  0  0  0
    6.1436    6.1250    2.2004 C   0  0  0  0  0  0  0  0  0  0  0  0
    6.0295    6.4941    0.8539 C   0  0  0  0  0  0  0  0  0  0  0  0
    5.3393    7.6515    0.4767 C   0  0  0  0  0  0  0  0  0  0  0  0
    4.7592    8.4418    1.4632 C   0  0  0  0  0  0  0  0  0  0  0  0
    4.0936    9.5540    1.1106 F   0  0  0  0  0  0  0  0  0  0  0  0
    4.8638    8.1099    2.8132 C   0  0  0  0  0  0  0  0  0  0  0  0
    5.5601    6.9558    3.1735 C   0  0  0  0  0  0  0  0  0  0  0  0
    9.0857    4.5808    1.6993 C   0  0  0  0  0  0  0  0  0  0  0  0
    9.9252    3.9779    1.0444 O   0  0  0  0  0  0  0  0  0  0  0  0
    9.5545    5.7640    2.5702 C   0  0  0  0  0  0  0  0  0  0  0  0
    9.9475    5.2921    3.9037 N   0  0  0  0  0  0  0  0  0  0  0  0
   10.9419    4.2740    4.0579 C   0  0  0  0  0  0  0  0  0  0  0  0
   12.3034    4.5754    3.9781 C   0  0  0  0  0  0  0  0  0  0  0  0
   13.2714    3.5843    4.1626 C   0  0  0  0  0  0  0  0  0  0  0  0
   12.8603    2.2789    4.4348 C   0  0  0  0  0  0  0  0  0  0  0  0
   11.5025    1.9520    4.5024 C   0  0  0  0  0  0  0  0  0  0  0  0
   10.5273    2.9403    4.2979 C   0  0  0  0  0  0  0  0  0  0  0  0
    9.1992    2.7101    4.2848 O   0  0  0  0  0  0  0  0  0  0  0  0
    8.7045    1.4060    4.5411 C   0  0  0  0  0  0  0  0  0  0  0  0
    9.4809    6.1434    5.2898 S   0  0  1  0  0  0  0  0  0  0  0  0
    8.2067    6.7991    4.9652 O   0  0  0  0  0  0  0  0  0  0  0  0
    9.6098    5.2226    6.4155 O   0  0  0  0  0  0  0  0  0  0  0  0
   10.6902    7.4537    5.5289 C   0  0  0  0  0  0  0  0  0  0  0  0
   10.5006    8.6897    4.9009 C   0  0  0  0  0  0  0  0  0  0  0  0
   11.4562    9.6932    5.0799 C   0  0  0  0  0  0  0  0  0  0  0  0
   12.5779    9.4610    5.8833 C   0  0  0  0  0  0  0  0  0  0  0  0
   12.7455    8.2261    6.5189 C   0  0  0  0  0  0  0  0  0  0  0  0
   11.7987    7.2128    6.3478 C   0  0  0  0  0  0  0  0  0  0  0  0
    1.8041    5.2730    1.4840 H   0  0  0  0  0  0  0  0  0  0  0  0
    3.5503    5.0742    1.7328 H   0  0  0  0  0  0  0  0  0  0  0  0
    2.4017    4.1890    2.7610 H   0  0  0  0  0  0  0  0  0  0  0  0
    2.7141    3.7482   -0.2877 H   0  0  0  0  0  0  0  0  0  0  0  0
    1.5978    2.8815    0.7595 H   0  0  0  0  0  0  0  0  0  0  0  0
    2.4371    0.5882    0.3965 H   0  0  0  0  0  0  0  0  0  0  0  0
    4.1912    0.2812    0.4020 H   0  0  0  0  0  0  0  0  0  0  0  0
    3.4557    1.2631   -0.9001 H   0  0  0  0  0  0  0  0  0  0  0  0
    5.1457    3.4712    0.0466 H   0  0  0  0  0  0  0  0  0  0  0  0
    7.3411    1.7267   -0.6943 H   0  0  0  0  0  0  0  0  0  0  0  0
    8.8541    2.6184   -0.4961 H   0  0  0  0  0  0  0  0  0  0  0  0
    9.0448    4.9983   -1.1329 H   0  0  0  0  0  0  0  0  0  0  0  0
    8.3641    6.6993   -2.8132 H   0  0  0  0  0  0  0  0  0  0  0  0
    6.2523    6.4041   -4.1131 H   0  0  0  0  0  0  0  0  0  0  0  0
    4.8505    4.3725   -3.7358 H   0  0  0  0  0  0  0  0  0  0  0  0
    5.5427    2.6740   -2.0714 H   0  0  0  0  0  0  0  0  0  0  0  0
    7.3486    5.0396    3.6025 H   0  0  0  0  0  0  0  0  0  0  0  0
    6.0599    4.1068    2.9192 H   0  0  0  0  0  0  0  0  0  0  0  0
    6.4966    5.8825    0.0825 H   0  0  0  0  0  0  0  0  0  0  0  0
    5.2507    7.9434   -0.5715 H   0  0  0  0  0  0  0  0  0  0  0  0
    4.4110    8.7616    3.5631 H   0  0  0  0  0  0  0  0  0  0  0  0
    5.6718    6.7066    4.2308 H   0  0  0  0  0  0  0  0  0  0  0  0
    8.7868    6.5372    2.6883 H   0  0  0  0  0  0  0  0  0  0  0  0
   10.4189    6.1931    2.0368 H   0  0  0  0  0  0  0  0  0  0  0  0
   12.6001    5.6062    3.7722 H   0  0  0  0  0  0  0  0  0  0  0  0
   14.3330    3.8319    4.0980 H   0  0  0  0  0  0  0  0  0  0  0  0
   13.6035    1.4929    4.5926 H   0  0  0  0  0  0  0  0  0  0  0  0
   11.2085    0.9231    4.7083 H   0  0  0  0  0  0  0  0  0  0  0  0
    7.6261    1.4393    4.3437 H   0  0  0  0  0  0  0  0  0  0  0  0
    8.8979    1.1065    5.5858 H   0  0  0  0  0  0  0  0  0  0  0  0
    9.1549    0.6625    3.8610 H   0  0  0  0  0  0  0  0  0  0  0  0
    9.6054    8.8649    4.3019 H   0  0  0  0  0  0  0  0  0  0  0  0
   11.3177   10.6642    4.5982 H   0  0  0  0  0  0  0  0  0  0  0  0
   13.3203   10.2507    6.0229 H   0  0  0  0  0  0  0  0  0  0  0  0
   13.6142    8.0517    7.1585 H   0  0  0  0  0  0  0  0  0  0  0  0
   11.9003    6.2491    6.8489 H   0  0  0  0  0  0  0  0  0  0  0  0
  1  2  1  0
  1 48  1  0
  1 49  1  0
  1 50  1  0
  2  3  1  0
  2 51  1  0
  2 52  1  0
  3  4  1  1
  3  5  1  0
  3  6  1  0
  5 53  1  0
  5 54  1  0
  5 55  1  0
  6  7  1  0
  6 56  1  0
  7  8  2  0
  7  9  1  0
  9 10  1  1
  9 11  1  0
  9 18  1  0
 11 12  1  0
 11 57  1  0
 11 58  1  0
 12 13  2  0
 12 17  1  0
 13 14  1  0
 13 59  1  0
 14 15  2  0
 14 60  1  0
 15 16  1  0
 15 61  1  0
 16 17  2  0
 16 62  1  0
 17 63  1  0
 18 19  1  0
 18 27  1  0
 19 20  1  0
 19 64  1  0
 19 65  1  0
 20 21  2  0
 20 26  1  0
 21 22  1  0
 21 66  1  0
 22 23  2  0
 22 67  1  0
 23 24  1  0
 23 25  1  0
 25 26  2  0
 25 68  1  0
 26 69  1  0
 27 28  2  0
 27 29  1  0
 29 30  1  0
 29 70  1  0
 29 71  1  0
 30 31  1  0
 39 30  1  6
 31 32  2  0
 31 36  1  0
 32 33  1  0
 32 72  1  0
 33 34  2  0
 33 73  1  0
 34 35  1  0
 34 74  1  0
 35 36  2  0
 35 75  1  0
 36 37  1  0
 37 38  1  0
 38 76  1  0
 38 77  1  0
 38 78  1  0
 39 40  2  0
 39 41  2  0
 39 42  1  0
 42 43  2  0
 42 47  1  0
 43 44  1  0
 43 79  1  0
 44 45  2  0
 44 80  1  0
 45 46  1  0
 45 81  1  0
 46 47  2  0
 46 82  1  0
 47 83  1  0
M  END

