
     RDKit          3D

 51 53  0  0  0  0  0  0  0  0999 V2000
    0.7654    0.1499   -0.1322 C   0  0  0  0  0  0  0  0  0  0  0  0
    2.2955   -0.0070   -0.0630 C   0  0  1  0  0  0  0  0  0  0  0  0
    2.6591   -0.1217    1.4281 C   0  0  0  0  0  0  0  0  0  0  0  0
    2.8468   -1.1701   -0.9460 C   0  0  1  0  0  0  0  0  0  0  0  0
    2.4545   -0.7348   -2.3759 C   0  0  0  0  0  0  0  0  0  0  0  0
    2.6307    0.8117   -2.3207 C   0  0  0  0  0  0  0  0  0  0  0  0
    3.0998    1.0909   -0.8636 C   0  0  1  0  0  0  0  0  0  0  0  0
    2.9587    2.5421   -0.4309 C   0  0  0  0  0  0  0  0  0  0  0  0
    4.5623    0.5537   -0.8215 C   0  0  1  0  0  0  0  0  0  0  0  0
    5.2619    1.0436    0.3092 O   0  0  0  0  0  0  0  0  0  0  0  0
    6.6593    0.8451    0.2659 C   0  0  0  0  0  0  0  0  0  0  0  0
    7.2613    1.4226    1.5399 C   0  0  0  0  0  0  0  0  0  0  0  0
    8.7898    1.4558    1.5794 C   0  0  1  0  0  0  0  0  0  0  0  0
    9.3842    2.1190    2.8320 C   0  0  0  0  0  0  0  0  0  0  0  0
   10.8808    1.8039    2.7337 C   0  0  0  0  0  0  0  0  0  0  0  0
   10.9461    0.3690    2.1665 C   0  0  0  0  0  0  0  0  0  0  0  0
    9.5303    0.0651    1.5288 C   0  0  1  0  0  0  0  0  0  0  0  0
    8.7470   -0.9535    2.2332 N   0  0  0  0  0  0  0  0  0  0  0  0
    9.6966   -0.3918    0.1344 C   0  0  0  0  0  0  0  0  0  0  0  0
    9.8591   -0.7435   -0.9580 N   0  0  0  0  0  0  0  0  0  0  0  0
    4.3759   -0.9965   -0.8272 C   0  0  0  0  0  0  0  0  0  0  0  0
    0.2764   -0.7200    0.3373 H   0  0  0  0  0  0  0  0  0  0  0  0
    0.3652    0.2393   -1.1508 H   0  0  0  0  0  0  0  0  0  0  0  0
    0.4414    1.0421    0.4279 H   0  0  0  0  0  0  0  0  0  0  0  0
    2.2073   -1.0317    1.8585 H   0  0  0  0  0  0  0  0  0  0  0  0
    2.2531    0.7370    1.9876 H   0  0  0  0  0  0  0  0  0  0  0  0
    3.7381   -0.1425    1.6148 H   0  0  0  0  0  0  0  0  0  0  0  0
    2.4929   -2.1763   -0.6708 H   0  0  0  0  0  0  0  0  0  0  0  0
    1.4197   -1.0186   -2.6192 H   0  0  0  0  0  0  0  0  0  0  0  0
    3.0986   -1.2092   -3.1325 H   0  0  0  0  0  0  0  0  0  0  0  0
    1.6862    1.3374   -2.5271 H   0  0  0  0  0  0  0  0  0  0  0  0
    3.3630    1.1854   -3.0537 H   0  0  0  0  0  0  0  0  0  0  0  0
    1.9075    2.8703   -0.4778 H   0  0  0  0  0  0  0  0  0  0  0  0
    3.5414    3.2062   -1.0916 H   0  0  0  0  0  0  0  0  0  0  0  0
    3.3283    2.6937    0.5932 H   0  0  0  0  0  0  0  0  0  0  0  0
    5.1035    0.8957   -1.7256 H   0  0  0  0  0  0  0  0  0  0  0  0
    7.0865    1.3460   -0.6287 H   0  0  0  0  0  0  0  0  0  0  0  0
    6.9047   -0.2297    0.1837 H   0  0  0  0  0  0  0  0  0  0  0  0
    6.8699    0.8567    2.3999 H   0  0  0  0  0  0  0  0  0  0  0  0
    6.8913    2.4563    1.6501 H   0  0  0  0  0  0  0  0  0  0  0  0
    9.1520    2.0296    0.7078 H   0  0  0  0  0  0  0  0  0  0  0  0
    8.9454    1.6707    3.7423 H   0  0  0  0  0  0  0  0  0  0  0  0
    9.1673    3.1976    2.8738 H   0  0  0  0  0  0  0  0  0  0  0  0
   11.4100    1.9016    3.6939 H   0  0  0  0  0  0  0  0  0  0  0  0
   11.3569    2.5089    2.0329 H   0  0  0  0  0  0  0  0  0  0  0  0
   11.1190   -0.3748    2.9596 H   0  0  0  0  0  0  0  0  0  0  0  0
   11.7592    0.2489    1.4361 H   0  0  0  0  0  0  0  0  0  0  0  0
    8.6258   -0.6845    3.2097 H   0  0  0  0  0  0  0  0  0  0  0  0
    9.2412   -1.8462    2.2328 H   0  0  0  0  0  0  0  0  0  0  0  0
    4.7629   -1.4179    0.1119 H   0  0  0  0  0  0  0  0  0  0  0  0
    4.9124   -1.4904   -1.6519 H   0  0  0  0  0  0  0  0  0  0  0  0
  2  1  1  1
  1 22  1  0
  1 23  1  0
  1 24  1  0
  2  3  1  0
  2  4  1  0
  2  7  1  0
  3 25  1  0
  3 26  1  0
  3 27  1  0
  4  5  1  0
  4 21  1  0
  4 28  1  1
  5  6  1  0
  5 29  1  0
  5 30  1  0
  6  7  1  0
  6 31  1  0
  6 32  1  0
  7  8  1  1
  7  9  1  0
  8 33  1  0
  8 34  1  0
  8 35  1  0
  9 10  1  0
  9 21  1  0
  9 36  1  6
 10 11  1  0
 11 12  1  0
 11 37  1  0
 11 38  1  0
 12 13  1  0
 12 39  1  0
 12 40  1  0
 13 14  1  0
 13 17  1  0
 13 41  1  6
 14 15  1  0
 14 42  1  0
 14 43  1  0
 15 16  1  0
 15 44  1  0
 15 45  1  0
 16 17  1  0
 16 46  1  0
 16 47  1  0
 17 18  1  0
 17 19  1  6
 18 48  1  0
 18 49  1  0
 19 20  3  0
 21 50  1  0
 21 51  1  0
M  END

