
     RDKit          3D

 42 42  0  0  0  0  0  0  0  0999 V2000
    1.3765    0.6861    4.2199 C   0  0  0  0  0  0  0  0  0  0  0  0
    2.7037    1.0446    3.5618 C   0  0  0  0  0  0  0  0  0  0  0  0
    3.2396   -0.0926    2.8310 N   0  0  0  0  0  0  0  0  0  0  0  0
    4.4617   -0.0389    2.1617 C   0  0  0  0  0  0  0  0  0  0  0  0
    5.1611    1.1808    2.0340 C   0  0  0  0  0  0  0  0  0  0  0  0
    6.3854    1.2569    1.3733 C   0  0  0  0  0  0  0  0  0  0  0  0
    6.9579    0.1016    0.8385 C   0  0  0  0  0  0  0  0  0  0  0  0
    8.5090    0.1853    0.0291 Cl  0  0  0  0  0  0  0  0  0  0  0  0
    6.2917   -1.1150    0.9502 C   0  0  0  0  0  0  0  0  0  0  0  0
    5.0399   -1.2031    1.5751 C   0  0  0  0  0  0  0  0  0  0  0  0
    4.4229   -2.5814    1.5525 C   0  0  0  0  0  0  0  0  0  0  0  0
    5.1086   -3.5879    1.4301 O   0  0  0  0  0  0  0  0  0  0  0  0
    3.0557   -2.6571    1.6304 N   0  0  0  0  0  0  0  0  0  0  0  0
    2.3677   -3.9276    1.4641 C   0  0  0  0  0  0  0  0  0  0  0  0
    2.3917   -4.7819    2.7440 C   0  0  0  0  0  0  0  0  0  0  0  0
    1.7169   -6.0567    2.5929 N   0  0  0  0  0  0  0  0  0  0  0  0
    0.3355   -6.1060    2.5734 C   0  0  0  0  0  0  0  0  0  0  0  0
   -0.3404   -5.0940    2.7266 O   0  0  0  0  0  0  0  0  0  0  0  0
   -0.2229   -7.3610    2.4013 N   0  0  0  0  0  0  0  0  0  0  0  0
    0.5581   -8.5756    2.2996 C   0  0  0  0  0  0  0  0  0  0  0  0
   -1.6550   -7.4619    2.1938 C   0  0  0  0  0  0  0  0  0  0  0  0
    0.9668    1.5534    4.7591 H   0  0  0  0  0  0  0  0  0  0  0  0
    1.4990   -0.1304    4.9514 H   0  0  0  0  0  0  0  0  0  0  0  0
    0.6352    0.3648    3.4714 H   0  0  0  0  0  0  0  0  0  0  0  0
    3.4174    1.4102    4.3290 H   0  0  0  0  0  0  0  0  0  0  0  0
    2.5515    1.8802    2.8577 H   0  0  0  0  0  0  0  0  0  0  0  0
    3.0575   -0.9844    3.2821 H   0  0  0  0  0  0  0  0  0  0  0  0
    4.7497    2.0914    2.4683 H   0  0  0  0  0  0  0  0  0  0  0  0
    6.9040    2.2134    1.2868 H   0  0  0  0  0  0  0  0  0  0  0  0
    6.7232   -2.0304    0.5443 H   0  0  0  0  0  0  0  0  0  0  0  0
    2.5224   -1.7975    1.5523 H   0  0  0  0  0  0  0  0  0  0  0  0
    2.8413   -4.4943    0.6449 H   0  0  0  0  0  0  0  0  0  0  0  0
    1.3215   -3.7239    1.1978 H   0  0  0  0  0  0  0  0  0  0  0  0
    1.9022   -4.2241    3.5559 H   0  0  0  0  0  0  0  0  0  0  0  0
    3.4363   -4.9712    3.0306 H   0  0  0  0  0  0  0  0  0  0  0  0
    2.2523   -6.8191    2.2000 H   0  0  0  0  0  0  0  0  0  0  0  0
    1.4195   -8.5494    2.9844 H   0  0  0  0  0  0  0  0  0  0  0  0
    0.9278   -8.7785    1.2737 H   0  0  0  0  0  0  0  0  0  0  0  0
   -0.0636   -9.4335    2.5987 H   0  0  0  0  0  0  0  0  0  0  0  0
   -2.0928   -6.4649    2.3188 H   0  0  0  0  0  0  0  0  0  0  0  0
   -2.1130   -8.1486    2.9278 H   0  0  0  0  0  0  0  0  0  0  0  0
   -1.8937   -7.8357    1.1803 H   0  0  0  0  0  0  0  0  0  0  0  0
  1  2  1  0
  1 22  1  0
  1 23  1  0
  1 24  1  0
  2  3  1  0
  2 25  1  0
  2 26  1  0
  3  4  1  0
  3 27  1  0
  4  5  2  0
  4 10  1  0
  5  6  1  0
  5 28  1  0
  6  7  2  0
  6 29  1  0
  7  8  1  0
  7  9  1  0
  9 10  2  0
  9 30  1  0
 10 11  1  0
 11 12  2  0
 11 13  1  0
 13 14  1  0
 13 31  1  0
 14 15  1  0
 14 32  1  0
 14 33  1  0
 15 16  1  0
 15 34  1  0
 15 35  1  0
 16 17  1  0
 16 36  1  0
 17 18  2  0
 17 19  1  0
 19 20  1  0
 19 21  1  0
 20 37  1  0
 20 38  1  0
 20 39  1  0
 21 40  1  0
 21 41  1  0
 21 42  1  0
M  END

