
     RDKit          3D

 90 93  0  0  0  0  0  0  0  0999 V2000
    5.3834   -2.1727    1.1497 C   0  0  0  0  0  0  0  0  0  0  0  0
    4.4087   -1.7610    1.9620 C   0  0  0  0  0  0  0  0  0  0  0  0
    3.7883   -0.3842    2.0060 C   0  0  0  0  0  0  0  0  0  0  0  0
    4.3190    0.6222    1.0957 N   0  0  0  0  0  0  0  0  0  0  0  0
    3.5332    0.9273   -0.0891 C   0  0  0  0  0  0  0  0  0  0  0  0
    4.2169    0.8264   -1.4323 C   0  0  0  0  0  0  0  0  0  0  0  0
    5.4989    0.5481   -1.6761 C   0  0  0  0  0  0  0  0  0  0  0  0
    5.2719    1.5336    1.5649 C   0  0  0  0  0  0  0  0  0  0  0  0
    5.4909    2.7804    0.9360 C   0  0  0  0  0  0  0  0  0  0  0  0
    6.4257    3.6851    1.4351 C   0  0  0  0  0  0  0  0  0  0  0  0
    7.2023    3.4086    2.5741 C   0  0  0  0  0  0  0  0  0  0  0  0
    8.1979    4.3810    3.0975 C   0  0  0  0  0  0  0  0  0  0  0  0
    7.9481    5.7631    3.0489 C   0  0  0  0  0  0  0  0  0  0  0  0
    8.8759    6.6988    3.5379 C   0  0  0  0  0  0  0  0  0  0  0  0
    8.5927    8.1570    3.4773 C   0  0  0  0  0  0  0  0  0  0  0  0
    7.2950    8.6680    3.6604 C   0  0  0  0  0  0  0  0  0  0  0  0
    7.0197   10.0320    3.6011 C   0  0  0  0  0  0  0  0  0  0  0  0
    8.0451   10.9760    3.3601 C   0  0  0  0  0  0  0  0  0  0  0  0
    7.7796   12.3434    3.3034 N   0  0  0  0  0  0  0  0  0  0  0  0
    6.5277   12.8984    3.7807 C   0  0  0  0  0  0  0  0  0  0  0  0
    5.4201   13.0367    2.7599 C   0  0  0  0  0  0  0  0  0  0  0  0
    5.4687   12.6339    1.4883 C   0  0  0  0  0  0  0  0  0  0  0  0
    8.7405   13.2858    2.7630 C   0  0  0  0  0  0  0  0  0  0  0  0
    9.7000   13.9101    3.7516 C   0  0  0  0  0  0  0  0  0  0  0  0
    9.7861   13.6214    5.0520 C   0  0  0  0  0  0  0  0  0  0  0  0
    9.3526   10.4676    3.1796 C   0  0  0  0  0  0  0  0  0  0  0  0
    9.6080    9.0996    3.2338 C   0  0  0  0  0  0  0  0  0  0  0  0
   10.0788    6.2203    4.0852 C   0  0  0  0  0  0  0  0  0  0  0  0
   10.3655    4.8459    4.1516 C   0  0  0  0  0  0  0  0  0  0  0  0
   11.6444    4.3610    4.7345 C   0  0  0  0  0  0  0  0  0  0  0  0
   12.2525    5.0055    5.8269 C   0  0  0  0  0  0  0  0  0  0  0  0
   13.4528    4.5611    6.3761 C   0  0  0  0  0  0  0  0  0  0  0  0
   14.1172    3.4239    5.8605 C   0  0  0  0  0  0  0  0  0  0  0  0
   15.3168    2.9695    6.4062 N   0  0  0  0  0  0  0  0  0  0  0  0
   15.7929    3.4328    7.6953 C   0  0  0  0  0  0  0  0  0  0  0  0
   16.7064    4.6383    7.6818 C   0  0  0  0  0  0  0  0  0  0  0  0
   17.0537    5.3486    6.6063 C   0  0  0  0  0  0  0  0  0  0  0  0
   16.1549    2.0092    5.7143 C   0  0  0  0  0  0  0  0  0  0  0  0
   15.9093    0.5506    6.0305 C   0  0  0  0  0  0  0  0  0  0  0  0
   14.9542    0.0702    6.8298 C   0  0  0  0  0  0  0  0  0  0  0  0
   13.5073    2.7692    4.7649 C   0  0  0  0  0  0  0  0  0  0  0  0
   12.3112    3.2330    4.2229 C   0  0  0  0  0  0  0  0  0  0  0  0
    9.4120    3.9419    3.6527 C   0  0  0  0  0  0  0  0  0  0  0  0
    6.9955    2.1584    3.1848 C   0  0  0  0  0  0  0  0  0  0  0  0
    6.0652    1.2429    2.6996 C   0  0  0  0  0  0  0  0  0  0  0  0
    5.7633   -3.1967    1.1957 H   0  0  0  0  0  0  0  0  0  0  0  0
    5.8274   -1.5008    0.4118 H   0  0  0  0  0  0  0  0  0  0  0  0
    3.9786   -2.4638    2.6883 H   0  0  0  0  0  0  0  0  0  0  0  0
    3.8456   -0.0067    3.0437 H   0  0  0  0  0  0  0  0  0  0  0  0
    2.7050   -0.4932    1.8126 H   0  0  0  0  0  0  0  0  0  0  0  0
    3.0786    1.9388   -0.0115 H   0  0  0  0  0  0  0  0  0  0  0  0
    2.6753    0.2355   -0.1046 H   0  0  0  0  0  0  0  0  0  0  0  0
    3.5432    1.0233   -2.2771 H   0  0  0  0  0  0  0  0  0  0  0  0
    6.2142    0.3704   -0.8695 H   0  0  0  0  0  0  0  0  0  0  0  0
    5.8797    0.5029   -2.6999 H   0  0  0  0  0  0  0  0  0  0  0  0
    4.9445    3.0477    0.0327 H   0  0  0  0  0  0  0  0  0  0  0  0
    6.5709    4.6277    0.9017 H   0  0  0  0  0  0  0  0  0  0  0  0
    7.0095    6.1188    2.6200 H   0  0  0  0  0  0  0  0  0  0  0  0
    6.4708    7.9811    3.8675 H   0  0  0  0  0  0  0  0  0  0  0  0
    5.9876   10.3614    3.7213 H   0  0  0  0  0  0  0  0  0  0  0  0
    6.7332   13.8958    4.2116 H   0  0  0  0  0  0  0  0  0  0  0  0
    6.1604   12.3007    4.6340 H   0  0  0  0  0  0  0  0  0  0  0  0
    4.5111   13.5225    3.1391 H   0  0  0  0  0  0  0  0  0  0  0  0
    6.3563   12.1402    1.0818 H   0  0  0  0  0  0  0  0  0  0  0  0
    4.6200   12.7760    0.8141 H   0  0  0  0  0  0  0  0  0  0  0  0
    8.1836   14.0957    2.2563 H   0  0  0  0  0  0  0  0  0  0  0  0
    9.3178   12.8020    1.9549 H   0  0  0  0  0  0  0  0  0  0  0  0
   10.3667   14.6686    3.3205 H   0  0  0  0  0  0  0  0  0  0  0  0
    9.1416   12.8655    5.5104 H   0  0  0  0  0  0  0  0  0  0  0  0
   10.5095   14.1242    5.6992 H   0  0  0  0  0  0  0  0  0  0  0  0
   10.1886   11.1481    3.0175 H   0  0  0  0  0  0  0  0  0  0  0  0
   10.6323    8.7562    3.0696 H   0  0  0  0  0  0  0  0  0  0  0  0
   10.8095    6.9347    4.4686 H   0  0  0  0  0  0  0  0  0  0  0  0
   11.7696    5.8782    6.2733 H   0  0  0  0  0  0  0  0  0  0  0  0
   13.8877    5.1230    7.2027 H   0  0  0  0  0  0  0  0  0  0  0  0
   16.3230    2.5974    8.1891 H   0  0  0  0  0  0  0  0  0  0  0  0
   14.9312    3.6395    8.3549 H   0  0  0  0  0  0  0  0  0  0  0  0
   17.1022    4.9194    8.6668 H   0  0  0  0  0  0  0  0  0  0  0  0
   16.6708    5.0992    5.6123 H   0  0  0  0  0  0  0  0  0  0  0  0
   17.7246    6.2081    6.6851 H   0  0  0  0  0  0  0  0  0  0  0  0
   17.2110    2.2440    5.9425 H   0  0  0  0  0  0  0  0  0  0  0  0
   16.0689    2.1622    4.6236 H   0  0  0  0  0  0  0  0  0  0  0  0
   16.6052   -0.1437    5.5411 H   0  0  0  0  0  0  0  0  0  0  0  0
   14.2407    0.7347    7.3260 H   0  0  0  0  0  0  0  0  0  0  0  0
   14.8480   -1.0032    7.0071 H   0  0  0  0  0  0  0  0  0  0  0  0
   13.9581    1.8715    4.3418 H   0  0  0  0  0  0  0  0  0  0  0  0
   11.8906    2.7027    3.3650 H   0  0  0  0  0  0  0  0  0  0  0  0
    9.6198    2.8713    3.6972 H   0  0  0  0  0  0  0  0  0  0  0  0
    7.5676    1.8940    4.0774 H   0  0  0  0  0  0  0  0  0  0  0  0
    5.9721    0.2790    3.2001 H   0  0  0  0  0  0  0  0  0  0  0  0
  1  2  2  0
  1 46  1  0
  1 47  1  0
  2  3  1  0
  2 48  1  0
  3  4  1  0
  3 49  1  0
  3 50  1  0
  4  5  1  0
  4  8  1  0
  5  6  1  0
  5 51  1  0
  5 52  1  0
  6  7  2  0
  6 53  1  0
  7 54  1  0
  7 55  1  0
  8  9  2  0
  8 45  1  0
  9 10  1  0
  9 56  1  0
 10 11  2  0
 10 57  1  0
 11 12  1  0
 11 44  1  0
 12 13  2  0
 12 43  1  0
 13 14  1  0
 13 58  1  0
 14 15  1  0
 14 28  2  0
 15 16  2  0
 15 27  1  0
 16 17  1  0
 16 59  1  0
 17 18  2  0
 17 60  1  0
 18 19  1  0
 18 26  1  0
 19 20  1  0
 19 23  1  0
 20 21  1  0
 20 61  1  0
 20 62  1  0
 21 22  2  0
 21 63  1  0
 22 64  1  0
 22 65  1  0
 23 24  1  0
 23 66  1  0
 23 67  1  0
 24 25  2  0
 24 68  1  0
 25 69  1  0
 25 70  1  0
 26 27  2  0
 26 71  1  0
 27 72  1  0
 28 29  1  0
 28 73  1  0
 29 30  1  0
 29 43  2  0
 30 31  2  0
 30 42  1  0
 31 32  1  0
 31 74  1  0
 32 33  2  0
 32 75  1  0
 33 34  1  0
 33 41  1  0
 34 35  1  0
 34 38  1  0
 35 36  1  0
 35 76  1  0
 35 77  1  0
 36 37  2  0
 36 78  1  0
 37 79  1  0
 37 80  1  0
 38 39  1  0
 38 81  1  0
 38 82  1  0
 39 40  2  0
 39 83  1  0
 40 84  1  0
 40 85  1  0
 41 42  2  0
 41 86  1  0
 42 87  1  0
 43 88  1  0
 44 45  2  0
 44 89  1  0
 45 90  1  0
M  END

