
     RDKit          3D

 29 30  0  0  0  0  0  0  0  0999 V2000
    1.0401   -0.3064   -1.3297 N   0  0  0  0  0  0  0  0  0  0  0  0
    2.2691   -0.0273   -0.7404 C   0  0  0  0  0  0  0  0  0  0  0  0
    3.3764    0.6528   -1.3270 C   0  0  0  0  0  0  0  0  0  0  0  0
    4.3225    0.7380   -0.3129 C   0  0  0  0  0  0  0  0  0  0  0  0
    5.6952    1.3451   -0.2732 C   0  0  0  0  0  0  0  0  0  0  0  0
    5.7840    2.8320    0.1501 C   0  0  2  0  0  0  0  0  0  0  0  0
    5.2613    3.0969    1.5730 C   0  0  0  0  0  0  0  0  0  0  0  0
    5.3636    4.5831    1.9432 C   0  0  0  0  0  0  0  0  0  0  0  0
    4.6952    5.4577    0.8704 C   0  0  0  0  0  0  0  0  0  0  0  0
    5.1756    5.1962   -0.4826 N   0  0  0  0  0  0  0  0  0  0  0  0
    5.0910    3.7858   -0.8463 C   0  0  0  0  0  0  0  0  0  0  0  0
    3.7520    0.1378    0.7657 N   0  0  0  0  0  0  0  0  0  0  0  0
    4.1669    0.0038    1.6787 H   0  0  0  0  0  0  0  0  0  0  0  0
    2.5107   -0.3456    0.5278 N   0  0  0  0  0  0  0  0  0  0  0  0
    1.0972   -0.5647   -2.3096 H   0  0  0  0  0  0  0  0  0  0  0  0
    0.5000   -0.9840   -0.7988 H   0  0  0  0  0  0  0  0  0  0  0  0
    3.4675    1.0325   -2.3420 H   0  0  0  0  0  0  0  0  0  0  0  0
    6.1464    1.2383   -1.2732 H   0  0  0  0  0  0  0  0  0  0  0  0
    6.3265    0.7505    0.4108 H   0  0  0  0  0  0  0  0  0  0  0  0
    6.8623    3.0859    0.1400 H   0  0  0  0  0  0  0  0  0  0  0  0
    5.8144    2.4793    2.3037 H   0  0  0  0  0  0  0  0  0  0  0  0
    4.2037    2.7821    1.6328 H   0  0  0  0  0  0  0  0  0  0  0  0
    6.4284    4.8703    2.0311 H   0  0  0  0  0  0  0  0  0  0  0  0
    4.9056    4.7685    2.9304 H   0  0  0  0  0  0  0  0  0  0  0  0
    4.8342    6.5278    1.0970 H   0  0  0  0  0  0  0  0  0  0  0  0
    3.6042    5.2750    0.8841 H   0  0  0  0  0  0  0  0  0  0  0  0
    6.1402    5.5179   -0.5712 H   0  0  0  0  0  0  0  0  0  0  0  0
    5.5159    3.6540   -1.8564 H   0  0  0  0  0  0  0  0  0  0  0  0
    4.0227    3.5137   -0.9194 H   0  0  0  0  0  0  0  0  0  0  0  0
  1  2  1  0
  1 15  1  0
  1 16  1  0
  2  3  1  0
  2 14  2  0
  3  4  2  0
  3 17  1  0
  4  5  1  0
  4 12  1  0
  5  6  1  0
  5 18  1  0
  5 19  1  0
  6  7  1  0
  6 11  1  0
  6 20  1  1
  7  8  1  0
  7 21  1  0
  7 22  1  0
  8  9  1  0
  8 23  1  0
  8 24  1  0
  9 10  1  0
  9 25  1  0
  9 26  1  0
 10 11  1  0
 10 27  1  0
 11 28  1  0
 11 29  1  0
 12 13  1  0
 12 14  1  0
M  END

