
     RDKit          3D

 46 50  0  0  0  0  0  0  0  0999 V2000
    1.2800    0.1641   -0.4981 N   0  0  0  0  0  0  0  0  0  0  0  0
    2.4405    0.0906   -0.4558 C   0  0  0  0  0  0  0  0  0  0  0  0
    3.8622    0.0571   -0.3542 C   0  0  0  0  0  0  0  0  0  0  0  0
    4.5002   -1.1340   -0.5793 C   0  0  0  0  0  0  0  0  0  0  0  0
    3.8072   -2.2353   -0.9924 N   0  0  0  0  0  0  0  0  0  0  0  0
    4.3657   -3.4054   -1.0408 C   0  0  0  0  0  0  0  0  0  0  0  0
    3.6540   -4.4493   -1.5438 N   0  0  0  0  0  0  0  0  0  0  0  0
    5.7044   -3.6390   -0.4804 C   0  0  0  0  0  0  0  0  0  0  0  0
    6.2000   -4.9149   -0.1730 C   0  0  0  0  0  0  0  0  0  0  0  0
    7.4340   -5.0750    0.4525 C   0  0  0  0  0  0  0  0  0  0  0  0
    8.1586   -3.9359    0.8164 C   0  0  0  0  0  0  0  0  0  0  0  0
    7.6750   -2.6583    0.5375 C   0  0  0  0  0  0  0  0  0  0  0  0
    6.4598   -2.4849   -0.1509 C   0  0  0  0  0  0  0  0  0  0  0  0
    5.9187   -1.2225   -0.4602 N   0  0  0  0  0  0  0  0  0  0  0  0
    6.6710   -0.0317   -0.5351 C   0  0  0  0  0  0  0  0  0  0  0  0
    6.0802    1.1770   -0.3068 C   0  0  0  0  0  0  0  0  0  0  0  0
    6.9248    2.3984   -0.2173 C   0  0  0  0  0  0  0  0  0  0  0  0
    6.5274    3.3886    0.3690 O   0  0  0  0  0  0  0  0  0  0  0  0
    8.3191    2.3607   -0.8318 C   0  0  0  0  0  0  0  0  0  0  0  0
    8.5215    1.1582   -1.7462 C   0  0  0  0  0  0  0  0  0  0  0  0
    8.1136   -0.1162   -1.0042 C   0  0  0  0  0  0  0  0  0  0  0  0
    4.5949    1.3516   -0.0250 C   0  0  1  0  0  0  0  0  0  0  0  0
    4.4558    1.6172    1.0393 H   0  0  0  0  0  0  0  0  0  0  0  0
    4.0112    2.5093   -0.8459 C   0  0  0  0  0  0  0  0  0  0  0  0
    4.0373    2.4708   -2.2469 C   0  0  0  0  0  0  0  0  0  0  0  0
    3.5018    3.5100   -3.0103 C   0  0  0  0  0  0  0  0  0  0  0  0
    2.9242    4.6039   -2.3613 C   0  0  0  0  0  0  0  0  0  0  0  0
    2.2477    5.9138   -3.3068 Cl  0  0  0  0  0  0  0  0  0  0  0  0
    2.8795    4.6618   -0.9661 C   0  0  0  0  0  0  0  0  0  0  0  0
    3.4248    3.6152   -0.2208 C   0  0  0  0  0  0  0  0  0  0  0  0
    2.7517   -4.2276   -1.9500 H   0  0  0  0  0  0  0  0  0  0  0  0
    4.1172   -5.2923   -1.8509 H   0  0  0  0  0  0  0  0  0  0  0  0
    5.5928   -5.7951   -0.3947 H   0  0  0  0  0  0  0  0  0  0  0  0
    7.8102   -6.0727    0.6869 H   0  0  0  0  0  0  0  0  0  0  0  0
    9.1052   -4.0378    1.3528 H   0  0  0  0  0  0  0  0  0  0  0  0
    8.2304   -1.7962    0.8959 H   0  0  0  0  0  0  0  0  0  0  0  0
    9.0440    2.3411    0.0031 H   0  0  0  0  0  0  0  0  0  0  0  0
    8.4734    3.3220   -1.3461 H   0  0  0  0  0  0  0  0  0  0  0  0
    9.5721    1.0821   -2.0688 H   0  0  0  0  0  0  0  0  0  0  0  0
    7.9104    1.2679   -2.6578 H   0  0  0  0  0  0  0  0  0  0  0  0
    8.8065   -0.2505   -0.1570 H   0  0  0  0  0  0  0  0  0  0  0  0
    8.2335   -1.0052   -1.6422 H   0  0  0  0  0  0  0  0  0  0  0  0
    4.4758    1.6088   -2.7571 H   0  0  0  0  0  0  0  0  0  0  0  0
    3.5225    3.4735   -4.1007 H   0  0  0  0  0  0  0  0  0  0  0  0
    2.4246    5.5219   -0.4722 H   0  0  0  0  0  0  0  0  0  0  0  0
    3.4022    3.6681    0.8701 H   0  0  0  0  0  0  0  0  0  0  0  0
  1  2  3  0
  2  3  1  0
  3  4  2  0
  3 22  1  0
  4  5  1  0
  4 14  1  0
  5  6  2  0
  6  7  1  0
  6  8  1  0
  7 31  1  0
  7 32  1  0
  8  9  2  0
  8 13  1  0
  9 10  1  0
  9 33  1  0
 10 11  2  0
 10 34  1  0
 11 12  1  0
 11 35  1  0
 12 13  2  0
 12 36  1  0
 13 14  1  0
 14 15  1  0
 15 16  2  0
 15 21  1  0
 16 17  1  0
 16 22  1  0
 17 18  2  0
 17 19  1  0
 19 20  1  0
 19 37  1  0
 19 38  1  0
 20 21  1  0
 20 39  1  0
 20 40  1  0
 21 41  1  0
 21 42  1  0
 22 23  1  1
 22 24  1  0
 24 25  2  0
 24 30  1  0
 25 26  1  0
 25 43  1  0
 26 27  2  0
 26 44  1  0
 27 28  1  0
 27 29  1  0
 29 30  2  0
 29 45  1  0
 30 46  1  0
M  END

