
     RDKit          3D

 34 37  0  0  0  0  0  0  0  0999 V2000
    1.2195    2.2681   -0.2964 N   0  0  0  0  0  0  0  0  0  0  0  0
    2.3215    1.9962   -0.0654 C   0  0  0  0  0  0  0  0  0  0  0  0
    3.7224    1.6530    0.2091 C   0  0  1  0  0  0  0  0  0  0  0  0
    3.7953    0.6894    1.4095 C   0  0  0  0  0  0  0  0  0  0  0  0
    3.8789    1.0610    2.5535 O   0  0  0  0  0  0  0  0  0  0  0  0
    3.7229   -0.6472    1.0578 N   0  0  0  0  0  0  0  0  0  0  0  0
    3.6748   -1.1931   -0.2210 C   0  0  0  0  0  0  0  0  0  0  0  0
    3.4034   -2.8118   -0.4564 S   0  0  0  0  0  0  0  0  0  0  0  0
    3.8722   -0.3033   -1.2283 N   0  0  0  0  0  0  0  0  0  0  0  0
    4.4095    1.0340   -1.0396 C   0  0  2  0  0  0  0  0  0  0  0  0
    5.9320    1.0788   -0.9401 C   0  0  0  0  0  0  0  0  0  0  0  0
    6.7499   -0.0574   -0.8757 C   0  0  0  0  0  0  0  0  0  0  0  0
    8.1516    0.0452   -0.8095 C   0  0  0  0  0  0  0  0  0  0  0  0
    8.7904    1.2851   -0.8116 C   0  0  0  0  0  0  0  0  0  0  0  0
    8.0001    2.4410   -0.8822 C   0  0  0  0  0  0  0  0  0  0  0  0
    6.5996    2.3069   -0.9445 C   0  0  0  0  0  0  0  0  0  0  0  0
    5.9771    3.5264   -1.0098 O   0  0  0  0  0  0  0  0  0  0  0  0
    6.9744    4.4742   -0.9941 C   0  0  0  0  0  0  0  0  0  0  0  0
    6.7783    5.8494   -1.0464 C   0  0  0  0  0  0  0  0  0  0  0  0
    7.9264    6.6468   -1.0184 C   0  0  0  0  0  0  0  0  0  0  0  0
    9.2114    6.0780   -0.9412 C   0  0  0  0  0  0  0  0  0  0  0  0
    9.3854    4.6941   -0.8896 C   0  0  0  0  0  0  0  0  0  0  0  0
    8.2481    3.8741   -0.9162 C   0  0  0  0  0  0  0  0  0  0  0  0
    4.2435    2.5727    0.5094 H   0  0  0  0  0  0  0  0  0  0  0  0
    3.6641   -1.3172    1.8213 H   0  0  0  0  0  0  0  0  0  0  0  0
    3.8660   -0.7083   -2.1580 H   0  0  0  0  0  0  0  0  0  0  0  0
    4.1078    1.6382   -1.9091 H   0  0  0  0  0  0  0  0  0  0  0  0
    6.2936   -1.0491   -0.8864 H   0  0  0  0  0  0  0  0  0  0  0  0
    8.7458   -0.8698   -0.7588 H   0  0  0  0  0  0  0  0  0  0  0  0
    9.8795    1.3515   -0.7619 H   0  0  0  0  0  0  0  0  0  0  0  0
    5.7759    6.2764   -1.1057 H   0  0  0  0  0  0  0  0  0  0  0  0
    7.8218    7.7337   -1.0569 H   0  0  0  0  0  0  0  0  0  0  0  0
   10.0855    6.7328   -0.9210 H   0  0  0  0  0  0  0  0  0  0  0  0
   10.3863    4.2607   -0.8293 H   0  0  0  0  0  0  0  0  0  0  0  0
  1  2  3  0
  2  3  1  0
  3  4  1  0
  3 10  1  0
  3 24  1  1
  4  5  2  0
  4  6  1  0
  6  7  1  0
  6 25  1  0
  7  8  2  0
  7  9  1  0
  9 10  1  0
  9 26  1  0
 10 11  1  0
 10 27  1  6
 11 12  2  0
 11 16  1  0
 12 13  1  0
 12 28  1  0
 13 14  2  0
 13 29  1  0
 14 15  1  0
 14 30  1  0
 15 16  2  0
 15 23  1  0
 16 17  1  0
 17 18  1  0
 18 19  1  0
 18 23  2  0
 19 20  2  0
 19 31  1  0
 20 21  1  0
 20 32  1  0
 21 22  2  0
 21 33  1  0
 22 23  1  0
 22 34  1  0
M  END

