
     RDKit          3D

 38 40  0  0  0  0  0  0  0  0999 V2000
    0.8905   -0.4004   -0.6408 C   0  0  0  0  0  0  0  0  0  0  0  0
    2.1011    0.1568    0.1249 C   0  0  0  0  0  0  0  0  0  0  0  0
    2.7369    1.3214   -0.5738 C   0  0  0  0  0  0  0  0  0  0  0  0
    2.3340    2.5880   -0.3256 N   0  0  0  0  0  0  0  0  0  0  0  0
    3.0591    3.3776   -1.1143 C   0  0  0  0  0  0  0  0  0  0  0  0
    3.0178    4.7837   -1.2641 C   0  0  0  0  0  0  0  0  0  0  0  0
    3.8348    5.4228   -2.1752 C   0  0  0  0  0  0  0  0  0  0  0  0
    3.8169    6.9171   -2.3607 C   0  0  0  0  0  0  0  0  0  0  0  0
    4.7106    4.6168   -2.9678 C   0  0  0  0  0  0  0  0  0  0  0  0
    4.7592    3.2558   -2.8233 C   0  0  0  0  0  0  0  0  0  0  0  0
    3.9658    2.6344   -1.8885 N   0  0  0  0  0  0  0  0  0  0  0  0
    3.7615    1.2948   -1.5372 C   0  0  0  0  0  0  0  0  0  0  0  0
    4.4779    0.1065   -2.0263 C   0  0  0  0  0  0  0  0  0  0  0  0
    3.9684   -1.0052   -2.0004 O   0  0  0  0  0  0  0  0  0  0  0  0
    5.7726    0.3216   -2.4827 N   0  0  0  0  0  0  0  0  0  0  0  0
    6.6489   -0.6024   -3.0618 C   0  0  0  0  0  0  0  0  0  0  0  0
    6.3840   -1.9690   -3.2431 C   0  0  0  0  0  0  0  0  0  0  0  0
    7.3540   -2.7663   -3.8483 C   0  0  0  0  0  0  0  0  0  0  0  0
    7.0879   -4.0694   -4.0160 F   0  0  0  0  0  0  0  0  0  0  0  0
    8.5823   -2.2714   -4.2790 C   0  0  0  0  0  0  0  0  0  0  0  0
    8.8484   -0.9098   -4.0978 C   0  0  0  0  0  0  0  0  0  0  0  0
    7.8900   -0.1052   -3.5052 C   0  0  0  0  0  0  0  0  0  0  0  0
    8.1259    1.2184   -3.3320 F   0  0  0  0  0  0  0  0  0  0  0  0
    0.4158   -1.2164   -0.0731 H   0  0  0  0  0  0  0  0  0  0  0  0
    1.2066   -0.8008   -1.6156 H   0  0  0  0  0  0  0  0  0  0  0  0
    0.1352    0.3835   -0.8089 H   0  0  0  0  0  0  0  0  0  0  0  0
    2.8406   -0.6461    0.2586 H   0  0  0  0  0  0  0  0  0  0  0  0
    1.7846    0.5081    1.1196 H   0  0  0  0  0  0  0  0  0  0  0  0
    2.3101    5.3286   -0.6373 H   0  0  0  0  0  0  0  0  0  0  0  0
    3.0914    7.3987   -1.6899 H   0  0  0  0  0  0  0  0  0  0  0  0
    3.5534    7.1855   -3.3978 H   0  0  0  0  0  0  0  0  0  0  0  0
    4.8098    7.3539   -2.1595 H   0  0  0  0  0  0  0  0  0  0  0  0
    5.3549    5.0804   -3.7176 H   0  0  0  0  0  0  0  0  0  0  0  0
    5.3977    2.6260   -3.4406 H   0  0  0  0  0  0  0  0  0  0  0  0
    6.1942    1.2230   -2.2933 H   0  0  0  0  0  0  0  0  0  0  0  0
    5.4398   -2.3934   -2.9120 H   0  0  0  0  0  0  0  0  0  0  0  0
    9.3075   -2.9413   -4.7427 H   0  0  0  0  0  0  0  0  0  0  0  0
    9.7920   -0.4638   -4.4173 H   0  0  0  0  0  0  0  0  0  0  0  0
  1  2  1  0
  1 24  1  0
  1 25  1  0
  1 26  1  0
  2  3  1  0
  2 27  1  0
  2 28  1  0
  3  4  1  0
  3 12  2  0
  4  5  2  0
  5  6  1  0
  5 11  1  0
  6  7  2  0
  6 29  1  0
  7  8  1  0
  7  9  1  0
  8 30  1  0
  8 31  1  0
  8 32  1  0
  9 10  2  0
  9 33  1  0
 10 11  1  0
 10 34  1  0
 11 12  1  0
 12 13  1  0
 13 14  2  0
 13 15  1  0
 15 16  1  0
 15 35  1  0
 16 17  2  0
 16 22  1  0
 17 18  1  0
 17 36  1  0
 18 19  1  0
 18 20  2  0
 20 21  1  0
 20 37  1  0
 21 22  2  0
 21 38  1  0
 22 23  1  0
M  END

