
     RDKit          3D

 33 33  0  0  0  0  0  0  0  0999 V2000
    1.2429    0.7358    0.5500 C   0  0  0  0  0  0  0  0  0  0  0  0
    2.2584    0.0218    0.0571 C   0  0  0  0  0  0  0  0  0  0  0  0
    2.9350   -1.1224    0.7619 C   0  0  0  0  0  0  0  0  0  0  0  0
    4.3960   -1.0275    0.7491 N   0  0  0  0  0  0  0  0  0  0  0  0
    4.9169    0.0904    1.5412 C   0  0  0  0  0  0  0  0  0  0  0  0
    6.2272    0.6069    0.9401 C   0  0  0  0  0  0  0  0  0  0  0  0
    6.0687    0.8703   -0.4309 O   0  0  0  0  0  0  0  0  0  0  0  0
    5.0508   -2.3052    1.0383 C   0  0  0  0  0  0  0  0  0  0  0  0
    5.1074   -3.2579   -0.1605 C   0  0  0  0  0  0  0  0  0  0  0  0
    5.8029   -4.5733    0.1582 C   0  0  1  0  0  0  0  0  0  0  0  0
    6.0802   -5.5781   -0.9893 C   0  0  0  0  0  0  0  0  0  0  0  0
    7.4020   -5.8462   -0.3959 N   0  0  0  0  0  0  0  0  0  0  0  0
    7.3396   -4.5980    0.3838 C   0  0  0  0  0  0  0  0  0  0  0  0
    0.7692    1.5325   -0.0300 H   0  0  0  0  0  0  0  0  0  0  0  0
    0.8422    0.5472    1.5520 H   0  0  0  0  0  0  0  0  0  0  0  0
    2.6443    0.2452   -0.9454 H   0  0  0  0  0  0  0  0  0  0  0  0
    2.6601   -2.0533    0.2364 H   0  0  0  0  0  0  0  0  0  0  0  0
    2.5346   -1.2216    1.7957 H   0  0  0  0  0  0  0  0  0  0  0  0
    5.0505   -0.1747    2.6128 H   0  0  0  0  0  0  0  0  0  0  0  0
    4.1776    0.9042    1.4970 H   0  0  0  0  0  0  0  0  0  0  0  0
    7.0476   -0.1207    1.1241 H   0  0  0  0  0  0  0  0  0  0  0  0
    6.5214    1.5419    1.4467 H   0  0  0  0  0  0  0  0  0  0  0  0
    5.4846    0.1578   -0.7440 H   0  0  0  0  0  0  0  0  0  0  0  0
    4.5645   -2.8142    1.9008 H   0  0  0  0  0  0  0  0  0  0  0  0
    6.0831   -2.0949    1.3588 H   0  0  0  0  0  0  0  0  0  0  0  0
    5.6275   -2.7472   -0.9900 H   0  0  0  0  0  0  0  0  0  0  0  0
    4.0866   -3.4740   -0.5230 H   0  0  0  0  0  0  0  0  0  0  0  0
    5.2909   -5.0825    0.9915 H   0  0  0  0  0  0  0  0  0  0  0  0
    6.1074   -5.0692   -1.9750 H   0  0  0  0  0  0  0  0  0  0  0  0
    5.4163   -6.4567   -1.0735 H   0  0  0  0  0  0  0  0  0  0  0  0
    8.1816   -5.9374   -1.0453 H   0  0  0  0  0  0  0  0  0  0  0  0
    7.8325   -3.7259   -0.0948 H   0  0  0  0  0  0  0  0  0  0  0  0
    7.7092   -4.6755    1.4216 H   0  0  0  0  0  0  0  0  0  0  0  0
  1  2  2  0
  1 14  1  0
  1 15  1  0
  2  3  1  0
  2 16  1  0
  3  4  1  0
  3 17  1  0
  3 18  1  0
  4  5  1  0
  4  8  1  0
  5  6  1  0
  5 19  1  0
  5 20  1  0
  6  7  1  0
  6 21  1  0
  6 22  1  0
  7 23  1  0
  8  9  1  0
  8 24  1  0
  8 25  1  0
  9 10  1  0
  9 26  1  0
  9 27  1  0
 10 11  1  0
 10 13  1  0
 10 28  1  1
 11 12  1  0
 11 29  1  0
 11 30  1  0
 12 13  1  0
 12 31  1  0
 13 32  1  0
 13 33  1  0
M  END

