
     RDKit          3D

 27 28  0  0  0  0  0  0  0  0999 V2000
    1.0665   -1.6325   -1.6562 C   0  0  0  0  0  0  0  0  0  0  0  0
    2.5072   -1.5376   -1.7790 N   0  0  0  0  0  0  0  0  0  0  0  0
    3.0899   -0.4182   -1.0554 C   0  0  0  0  0  0  0  0  0  0  0  0
    4.5746   -0.3600   -1.1950 C   0  0  0  0  0  0  0  0  0  0  0  0
    5.4162    0.5288   -1.8134 C   0  0  0  0  0  0  0  0  0  0  0  0
    6.7441    0.0411   -1.6090 C   0  0  0  0  0  0  0  0  0  0  0  0
    6.6208   -1.1192   -0.8862 C   0  0  0  0  0  0  0  0  0  0  0  0
    7.5962   -2.0959   -0.3791 C   0  0  0  0  0  0  0  0  0  0  0  0
    8.7159   -1.7125    0.3957 C   0  0  0  0  0  0  0  0  0  0  0  0
    8.9871   -0.0350    0.8065 Cl  0  0  0  0  0  0  0  0  0  0  0  0
    9.6423   -2.6342    0.8876 C   0  0  0  0  0  0  0  0  0  0  0  0
    9.4602   -3.9886    0.6111 C   0  0  0  0  0  0  0  0  0  0  0  0
   10.6040   -5.1531    1.2253 Cl  0  0  0  0  0  0  0  0  0  0  0  0
    8.3790   -4.4235   -0.1549 C   0  0  0  0  0  0  0  0  0  0  0  0
    7.4722   -3.4816   -0.6439 C   0  0  0  0  0  0  0  0  0  0  0  0
    6.1819   -4.0782   -1.6548 Cl  0  0  0  0  0  0  0  0  0  0  0  0
    5.3027   -1.3584   -0.6332 O   0  0  0  0  0  0  0  0  0  0  0  0
    0.6942   -2.4765   -2.2574 H   0  0  0  0  0  0  0  0  0  0  0  0
    0.5111   -0.7186   -1.9694 H   0  0  0  0  0  0  0  0  0  0  0  0
    0.7917   -1.8320   -0.6061 H   0  0  0  0  0  0  0  0  0  0  0  0
    2.7834   -1.4940   -2.7588 H   0  0  0  0  0  0  0  0  0  0  0  0
    2.8307   -0.5334    0.0133 H   0  0  0  0  0  0  0  0  0  0  0  0
    2.6892    0.5742   -1.3642 H   0  0  0  0  0  0  0  0  0  0  0  0
    5.1192    1.4283   -2.3488 H   0  0  0  0  0  0  0  0  0  0  0  0
    7.6741    0.4873   -1.9513 H   0  0  0  0  0  0  0  0  0  0  0  0
   10.4865   -2.2954    1.4865 H   0  0  0  0  0  0  0  0  0  0  0  0
    8.2464   -5.4799   -0.3846 H   0  0  0  0  0  0  0  0  0  0  0  0
  1  2  1  0
  1 18  1  0
  1 19  1  0
  1 20  1  0
  2  3  1  0
  2 21  1  0
  3  4  1  0
  3 22  1  0
  3 23  1  0
  4  5  2  0
  4 17  1  0
  5  6  1  0
  5 24  1  0
  6  7  2  0
  6 25  1  0
  7  8  1  0
  7 17  1  0
  8  9  2  0
  8 15  1  0
  9 10  1  0
  9 11  1  0
 11 12  2  0
 11 26  1  0
 12 13  1  0
 12 14  1  0
 14 15  2  0
 14 27  1  0
 15 16  1  0
M  END

