
     RDKit          3D

 45 47  0  0  0  0  0  0  0  0999 V2000
    8.1603   -2.1644    0.4753 C   0  0  0  0  0  0  0  0  0  0  0  0
    7.8644   -2.9510    1.7371 C   0  0  0  0  0  0  0  0  0  0  0  0
    6.4594   -3.1584    1.8136 O   0  0  0  0  0  0  0  0  0  0  0  0
    5.9218   -3.8471    2.8614 C   0  0  0  0  0  0  0  0  0  0  0  0
    6.6582   -4.4088    3.9051 C   0  0  0  0  0  0  0  0  0  0  0  0
    5.9994   -5.0797    4.9439 C   0  0  0  0  0  0  0  0  0  0  0  0
    4.6097   -5.1771    4.9366 C   0  0  0  0  0  0  0  0  0  0  0  0
    3.8621   -4.6149    3.8965 C   0  0  0  0  0  0  0  0  0  0  0  0
    4.5013   -3.9548    2.8409 C   0  0  0  0  0  0  0  0  0  0  0  0
    3.8783   -3.3129    1.7586 N   0  0  0  0  0  0  0  0  0  0  0  0
    2.6134   -3.2625    1.2578 C   0  0  0  0  0  0  0  0  0  0  0  0
    2.1504   -2.3500    0.3330 C   0  0  0  0  0  0  0  0  0  0  0  0
    2.8132   -1.1592   -0.2168 C   0  0  0  0  0  0  0  0  0  0  0  0
    2.5353   -0.7210   -1.5311 C   0  0  0  0  0  0  0  0  0  0  0  0
    3.1520    0.4107   -2.0620 C   0  0  0  0  0  0  0  0  0  0  0  0
    4.0569    1.1243   -1.2792 C   0  0  0  0  0  0  0  0  0  0  0  0
    4.6555    2.2107   -1.7888 F   0  0  0  0  0  0  0  0  0  0  0  0
    4.3474    0.7356    0.0263 C   0  0  0  0  0  0  0  0  0  0  0  0
    3.7243   -0.3981    0.5492 C   0  0  0  0  0  0  0  0  0  0  0  0
    0.7816   -2.7685   -0.0620 C   0  0  0  0  0  0  0  0  0  0  0  0
    0.0185   -2.2589   -0.8552 O   0  0  0  0  0  0  0  0  0  0  0  0
    0.4736   -3.9333    0.6694 N   0  0  0  0  0  0  0  0  0  0  0  0
   -0.7921   -4.6461    0.5837 C   0  0  0  0  0  0  0  0  0  0  0  0
   -1.8189   -4.1875    1.6189 C   0  0  0  0  0  0  0  0  0  0  0  0
    1.5276   -4.3071    1.4782 C   0  0  0  0  0  0  0  0  0  0  0  0
    1.5478   -5.2917    2.1849 O   0  0  0  0  0  0  0  0  0  0  0  0
    9.2425   -1.9817    0.3894 H   0  0  0  0  0  0  0  0  0  0  0  0
    7.6440   -1.1924    0.4883 H   0  0  0  0  0  0  0  0  0  0  0  0
    7.8300   -2.7181   -0.4168 H   0  0  0  0  0  0  0  0  0  0  0  0
    8.2087   -2.4050    2.6351 H   0  0  0  0  0  0  0  0  0  0  0  0
    8.3823   -3.9276    1.7225 H   0  0  0  0  0  0  0  0  0  0  0  0
    7.7450   -4.3282    3.9165 H   0  0  0  0  0  0  0  0  0  0  0  0
    6.5831   -5.5201    5.7555 H   0  0  0  0  0  0  0  0  0  0  0  0
    4.0889   -5.6949    5.7452 H   0  0  0  0  0  0  0  0  0  0  0  0
    2.7802   -4.7124    3.8907 H   0  0  0  0  0  0  0  0  0  0  0  0
    4.5418   -2.7343    1.2469 H   0  0  0  0  0  0  0  0  0  0  0  0
    1.8147   -1.2717   -2.1348 H   0  0  0  0  0  0  0  0  0  0  0  0
    2.9399    0.7490   -3.0782 H   0  0  0  0  0  0  0  0  0  0  0  0
    5.0434    1.3296    0.6219 H   0  0  0  0  0  0  0  0  0  0  0  0
    3.9314   -0.6735    1.5850 H   0  0  0  0  0  0  0  0  0  0  0  0
   -0.5714   -5.7168    0.7085 H   0  0  0  0  0  0  0  0  0  0  0  0
   -1.1752   -4.4852   -0.4346 H   0  0  0  0  0  0  0  0  0  0  0  0
   -1.4473   -4.3491    2.6426 H   0  0  0  0  0  0  0  0  0  0  0  0
   -2.7538   -4.7585    1.5026 H   0  0  0  0  0  0  0  0  0  0  0  0
   -2.0540   -3.1193    1.4932 H   0  0  0  0  0  0  0  0  0  0  0  0
  1  2  1  0
  1 27  1  0
  1 28  1  0
  1 29  1  0
  2  3  1  0
  2 30  1  0
  2 31  1  0
  3  4  1  0
  4  5  2  0
  4  9  1  0
  5  6  1  0
  5 32  1  0
  6  7  2  0
  6 33  1  0
  7  8  1  0
  7 34  1  0
  8  9  2  0
  8 35  1  0
  9 10  1  0
 10 11  1  0
 10 36  1  0
 11 12  2  0
 11 25  1  0
 12 13  1  0
 12 20  1  0
 13 14  2  0
 13 19  1  0
 14 15  1  0
 14 37  1  0
 15 16  2  0
 15 38  1  0
 16 17  1  0
 16 18  1  0
 18 19  2  0
 18 39  1  0
 19 40  1  0
 20 21  2  0
 20 22  1  0
 22 23  1  0
 22 25  1  0
 23 24  1  0
 23 41  1  0
 23 42  1  0
 24 43  1  0
 24 44  1  0
 24 45  1  0
 25 26  2  0
M  END

