
     RDKit          3D

 56 58  0  0  0  0  0  0  0  0999 V2000
    2.1485    0.8866    0.3045 C   0  0  0  0  0  0  0  0  0  0  0  0
    3.6555    0.8876    0.6262 C   0  0  1  0  0  0  0  0  0  0  0  0
    4.2918    2.2175    0.1771 C   0  0  0  0  0  0  0  0  0  0  0  0
    3.8431    0.7335    2.1488 C   0  0  0  0  0  0  0  0  0  0  0  0
    4.3579   -0.3181   -0.0466 C   0  0  0  0  0  0  0  0  0  0  0  0
    4.2698   -0.4311   -1.5691 C   0  0  0  0  0  0  0  0  0  0  0  0
    3.8153    0.4447   -2.2947 O   0  0  0  0  0  0  0  0  0  0  0  0
    4.7520   -1.5932   -2.1195 N   0  0  0  0  0  0  0  0  0  0  0  0
    4.8122   -1.7203   -3.5841 C   0  0  0  0  0  0  0  0  0  0  0  0
    5.4421   -3.1006   -3.8084 C   0  0  0  0  0  0  0  0  0  0  0  0
    6.2978   -3.3078   -2.5525 C   0  0  0  0  0  0  0  0  0  0  0  0
    5.4291   -2.6944   -1.4293 C   0  0  2  0  0  0  0  0  0  0  0  0
    6.0725   -2.3244   -0.6171 H   0  0  0  0  0  0  0  0  0  0  0  0
    4.4897   -3.7258   -0.8047 C   0  0  0  0  0  0  0  0  0  0  0  0
    3.1099   -3.7624   -1.0535 C   0  0  0  0  0  0  0  0  0  0  0  0
    2.3422   -4.7591   -0.4509 C   0  0  0  0  0  0  0  0  0  0  0  0
    2.9589   -5.6955    0.3878 C   0  0  0  0  0  0  0  0  0  0  0  0
    2.1637   -6.7650    1.1128 C   0  0  0  0  0  0  0  0  0  0  0  0
    1.1096   -7.3405    0.2879 N   0  0  0  0  0  0  0  0  0  0  0  0
    1.5684   -8.2176   -0.7926 C   0  0  0  0  0  0  0  0  0  0  0  0
    1.8363   -9.6474   -0.3120 C   0  0  0  0  0  0  0  0  0  0  0  0
    0.7003  -10.1839    0.3421 O   0  0  0  0  0  0  0  0  0  0  0  0
    0.2991   -9.3955    1.4471 C   0  0  0  0  0  0  0  0  0  0  0  0
   -0.0032   -7.9596    1.0067 C   0  0  0  0  0  0  0  0  0  0  0  0
    4.3456   -5.5723    0.5578 C   0  0  0  0  0  0  0  0  0  0  0  0
    5.0875   -4.6228   -0.0117 N   0  0  0  0  0  0  0  0  0  0  0  0
    1.6409    1.7089    0.8352 H   0  0  0  0  0  0  0  0  0  0  0  0
    1.6751   -0.0569    0.6266 H   0  0  0  0  0  0  0  0  0  0  0  0
    1.9756    1.0118   -0.7731 H   0  0  0  0  0  0  0  0  0  0  0  0
    3.8163    3.0660    0.6967 H   0  0  0  0  0  0  0  0  0  0  0  0
    4.1788    2.3608   -0.9055 H   0  0  0  0  0  0  0  0  0  0  0  0
    5.3679    2.2421    0.4206 H   0  0  0  0  0  0  0  0  0  0  0  0
    3.3696    1.5711    2.6863 H   0  0  0  0  0  0  0  0  0  0  0  0
    4.9110    0.7210    2.4244 H   0  0  0  0  0  0  0  0  0  0  0  0
    3.3903   -0.2014    2.5196 H   0  0  0  0  0  0  0  0  0  0  0  0
    3.9688   -1.2516    0.3940 H   0  0  0  0  0  0  0  0  0  0  0  0
    5.4313   -0.2999    0.2196 H   0  0  0  0  0  0  0  0  0  0  0  0
    5.4276   -0.9047   -4.0029 H   0  0  0  0  0  0  0  0  0  0  0  0
    3.8104   -1.6137   -4.0281 H   0  0  0  0  0  0  0  0  0  0  0  0
    6.0230   -3.1494   -4.7411 H   0  0  0  0  0  0  0  0  0  0  0  0
    4.6595   -3.8748   -3.8661 H   0  0  0  0  0  0  0  0  0  0  0  0
    7.2379   -2.7375   -2.6318 H   0  0  0  0  0  0  0  0  0  0  0  0
    6.5548   -4.3550   -2.3422 H   0  0  0  0  0  0  0  0  0  0  0  0
    2.6497   -3.0166   -1.7038 H   0  0  0  0  0  0  0  0  0  0  0  0
    1.2665   -4.8296   -0.6294 H   0  0  0  0  0  0  0  0  0  0  0  0
    1.6739   -6.3005    1.9872 H   0  0  0  0  0  0  0  0  0  0  0  0
    2.8762   -7.5079    1.5326 H   0  0  0  0  0  0  0  0  0  0  0  0
    2.4691   -7.7886   -1.2598 H   0  0  0  0  0  0  0  0  0  0  0  0
    0.7815   -8.2532   -1.5674 H   0  0  0  0  0  0  0  0  0  0  0  0
    2.7140   -9.6704    0.3687 H   0  0  0  0  0  0  0  0  0  0  0  0
    2.0590  -10.3103   -1.1629 H   0  0  0  0  0  0  0  0  0  0  0  0
    1.0879   -9.4022    2.2299 H   0  0  0  0  0  0  0  0  0  0  0  0
   -0.5979   -9.8728    1.8728 H   0  0  0  0  0  0  0  0  0  0  0  0
   -0.2759   -7.3362    1.8741 H   0  0  0  0  0  0  0  0  0  0  0  0
   -0.8769   -7.9850    0.3301 H   0  0  0  0  0  0  0  0  0  0  0  0
    4.8799   -6.2893    1.1954 H   0  0  0  0  0  0  0  0  0  0  0  0
  2  1  1  1
  1 27  1  0
  1 28  1  0
  1 29  1  0
  2  3  1  0
  2  4  1  0
  2  5  1  0
  3 30  1  0
  3 31  1  0
  3 32  1  0
  4 33  1  0
  4 34  1  0
  4 35  1  0
  5  6  1  0
  5 36  1  0
  5 37  1  0
  6  7  2  0
  6  8  1  0
  8  9  1  0
  8 12  1  0
  9 10  1  0
  9 38  1  0
  9 39  1  0
 10 11  1  0
 10 40  1  0
 10 41  1  0
 11 12  1  0
 11 42  1  0
 11 43  1  0
 12 13  1  1
 12 14  1  0
 14 15  2  0
 14 26  1  0
 15 16  1  0
 15 44  1  0
 16 17  2  0
 16 45  1  0
 17 18  1  0
 17 25  1  0
 18 19  1  0
 18 46  1  0
 18 47  1  0
 19 20  1  0
 19 24  1  0
 20 21  1  0
 20 48  1  0
 20 49  1  0
 21 22  1  0
 21 50  1  0
 21 51  1  0
 22 23  1  0
 23 24  1  0
 23 52  1  0
 23 53  1  0
 24 54  1  0
 24 55  1  0
 25 26  2  0
 25 56  1  0
M  END

