
     RDKit          3D

 43 44  0  0  0  0  0  0  0  0999 V2000
    1.2335    0.4670   -0.2169 C   0  0  0  0  0  0  0  0  0  0  0  0
    2.5702    0.9576   -0.7442 C   0  0  0  0  0  0  0  0  0  0  0  0
    3.2892   -0.1589   -1.2399 O   0  0  0  0  0  0  0  0  0  0  0  0
    4.6713    0.0097   -1.5532 C   0  0  1  0  0  0  0  0  0  0  0  0
    5.5039    0.1256   -0.2533 C   0  0  0  0  0  0  0  0  0  0  0  0
    6.5285    0.7695   -0.2155 O   0  0  0  0  0  0  0  0  0  0  0  0
    4.9916   -0.6433    0.9765 C   0  0  0  0  0  0  0  0  0  0  0  0
    6.0601   -1.2711    1.8122 C   0  0  0  0  0  0  0  0  0  0  0  0
    6.4506   -2.6034    1.9078 C   0  0  0  0  0  0  0  0  0  0  0  0
    5.7131   -4.0650    0.9674 Br  0  0  0  0  0  0  0  0  0  0  0  0
    7.5021   -2.6482    2.8577 C   0  0  0  0  0  0  0  0  0  0  0  0
    8.2845   -3.8289    3.3363 C   0  0  0  0  0  0  0  0  0  0  0  0
    7.7357   -1.4194    3.3127 N   0  0  0  0  0  0  0  0  0  0  0  0
    6.8725   -0.6040    2.6809 N   0  0  0  0  0  0  0  0  0  0  0  0
    6.8707    0.8127    2.9936 C   0  0  0  0  0  0  0  0  0  0  0  0
    5.1023   -1.3054   -2.2486 C   0  0  0  0  0  0  0  0  0  0  0  0
    4.4170   -1.4818   -3.6096 C   0  0  0  0  0  0  0  0  0  0  0  0
    4.6774   -0.2850   -4.5308 C   0  0  0  0  0  0  0  0  0  0  0  0
    4.2681    1.0312   -3.8584 C   0  0  0  0  0  0  0  0  0  0  0  0
    4.9415    1.2023   -2.4910 C   0  0  0  0  0  0  0  0  0  0  0  0
    0.6264    1.3131    0.1417 H   0  0  0  0  0  0  0  0  0  0  0  0
    1.3718   -0.2411    0.6147 H   0  0  0  0  0  0  0  0  0  0  0  0
    0.6744   -0.0487   -1.0127 H   0  0  0  0  0  0  0  0  0  0  0  0
    3.1364    1.4704    0.0600 H   0  0  0  0  0  0  0  0  0  0  0  0
    2.4094    1.7060   -1.5427 H   0  0  0  0  0  0  0  0  0  0  0  0
    4.2706   -1.4088    0.6637 H   0  0  0  0  0  0  0  0  0  0  0  0
    4.4152    0.0869    1.5744 H   0  0  0  0  0  0  0  0  0  0  0  0
    8.8170   -4.3217    2.5063 H   0  0  0  0  0  0  0  0  0  0  0  0
    7.6290   -4.5869    3.7956 H   0  0  0  0  0  0  0  0  0  0  0  0
    9.0222   -3.5033    4.0823 H   0  0  0  0  0  0  0  0  0  0  0  0
    7.7267    0.9942    3.6542 H   0  0  0  0  0  0  0  0  0  0  0  0
    5.9463    1.1031    3.5211 H   0  0  0  0  0  0  0  0  0  0  0  0
    6.9743    1.4027    2.0735 H   0  0  0  0  0  0  0  0  0  0  0  0
    4.8754   -2.1574   -1.5892 H   0  0  0  0  0  0  0  0  0  0  0  0
    6.1974   -1.2787   -2.3780 H   0  0  0  0  0  0  0  0  0  0  0  0
    3.3327   -1.5974   -3.4480 H   0  0  0  0  0  0  0  0  0  0  0  0
    4.7718   -2.4155   -4.0767 H   0  0  0  0  0  0  0  0  0  0  0  0
    4.1387   -0.4108   -5.4849 H   0  0  0  0  0  0  0  0  0  0  0  0
    5.7534   -0.2448   -4.7828 H   0  0  0  0  0  0  0  0  0  0  0  0
    3.1709    1.0489   -3.7366 H   0  0  0  0  0  0  0  0  0  0  0  0
    4.5238    1.8886   -4.5030 H   0  0  0  0  0  0  0  0  0  0  0  0
    4.6284    2.1432   -2.0110 H   0  0  0  0  0  0  0  0  0  0  0  0
    6.0327    1.2822   -2.6087 H   0  0  0  0  0  0  0  0  0  0  0  0
  1  2  1  0
  1 21  1  0
  1 22  1  0
  1 23  1  0
  2  3  1  0
  2 24  1  0
  2 25  1  0
  4  3  1  1
  4  5  1  0
  4 16  1  0
  4 20  1  0
  5  6  2  0
  5  7  1  0
  7  8  1  0
  7 26  1  0
  7 27  1  0
  8  9  2  0
  8 14  1  0
  9 10  1  0
  9 11  1  0
 11 12  1  0
 11 13  2  0
 12 28  1  0
 12 29  1  0
 12 30  1  0
 13 14  1  0
 14 15  1  0
 15 31  1  0
 15 32  1  0
 15 33  1  0
 16 17  1  0
 16 34  1  0
 16 35  1  0
 17 18  1  0
 17 36  1  0
 17 37  1  0
 18 19  1  0
 18 38  1  0
 18 39  1  0
 19 20  1  0
 19 40  1  0
 19 41  1  0
 20 42  1  0
 20 43  1  0
M  END

