
     RDKit          3D

 44 46  0  0  0  0  0  0  0  0999 V2000
    2.1170   -0.5182    1.4874 C   0  0  0  0  0  0  0  0  0  0  0  0
    2.4694    0.0975    0.1230 C   0  0  1  0  0  0  0  0  0  0  0  0
    3.5526    1.1731    0.3088 C   0  0  0  0  0  0  0  0  0  0  0  0
    2.9041   -0.8870   -1.0071 C   0  0  1  0  0  0  0  0  0  0  0  0
    3.9109   -1.9783   -0.5849 C   0  0  0  0  0  0  0  0  0  0  0  0
    3.2869   -3.1327    0.0535 N   0  0  0  0  0  0  0  0  0  0  0  0
    3.8055   -3.5946    1.2468 C   0  0  0  0  0  0  0  0  0  0  0  0
    4.6171   -2.9867    1.9053 O   0  0  0  0  0  0  0  0  0  0  0  0
    3.3393   -4.7928    1.6792 O   0  0  0  0  0  0  0  0  0  0  0  0
    2.2015   -3.7328   -0.7117 C   0  0  0  0  0  0  0  0  0  0  0  0
    1.1666   -2.6684   -1.0929 C   0  0  0  0  0  0  0  0  0  0  0  0
    1.7907   -1.5195   -1.7417 N   0  0  0  0  0  0  0  0  0  0  0  0
    1.6076   -1.4097   -3.1167 C   0  0  0  0  0  0  0  0  0  0  0  0
    1.0015   -2.2647   -3.7483 O   0  0  0  0  0  0  0  0  0  0  0  0
    2.1418   -0.1967   -3.8298 C   0  0  0  0  0  0  0  0  0  0  0  0
    2.7312   -0.4019   -5.1045 C   0  0  0  0  0  0  0  0  0  0  0  0
    3.1802    0.6591   -5.8770 C   0  0  0  0  0  0  0  0  0  0  0  0
    3.0204    1.9762   -5.4000 C   0  0  0  0  0  0  0  0  0  0  0  0
    3.3331    3.2809   -5.9133 C   0  0  0  0  0  0  0  0  0  0  0  0
    2.9034    4.1922   -4.9774 C   0  0  0  0  0  0  0  0  0  0  0  0
    2.3405    3.5293   -3.9067 N   0  0  0  0  0  0  0  0  0  0  0  0
    1.9451    3.9722   -3.0885 H   0  0  0  0  0  0  0  0  0  0  0  0
    2.3978    2.1698   -4.1312 C   0  0  0  0  0  0  0  0  0  0  0  0
    1.9621    1.1005   -3.3400 C   0  0  0  0  0  0  0  0  0  0  0  0
    1.7997    0.2797    2.1784 H   0  0  0  0  0  0  0  0  0  0  0  0
    2.9826   -1.0225    1.9441 H   0  0  0  0  0  0  0  0  0  0  0  0
    1.2914   -1.2417    1.4330 H   0  0  0  0  0  0  0  0  0  0  0  0
    1.5628    0.5985   -0.2603 H   0  0  0  0  0  0  0  0  0  0  0  0
    4.4992    0.7321    0.6634 H   0  0  0  0  0  0  0  0  0  0  0  0
    3.2420    1.9162    1.0601 H   0  0  0  0  0  0  0  0  0  0  0  0
    3.7637    1.7088   -0.6312 H   0  0  0  0  0  0  0  0  0  0  0  0
    3.4371   -0.2767   -1.7457 H   0  0  0  0  0  0  0  0  0  0  0  0
    4.6598   -1.5792    0.1090 H   0  0  0  0  0  0  0  0  0  0  0  0
    4.4394   -2.3208   -1.4953 H   0  0  0  0  0  0  0  0  0  0  0  0
    2.8758   -5.2694    0.9783 H   0  0  0  0  0  0  0  0  0  0  0  0
    1.6874   -4.5045   -0.1198 H   0  0  0  0  0  0  0  0  0  0  0  0
    2.5914   -4.2096   -1.6317 H   0  0  0  0  0  0  0  0  0  0  0  0
    0.6334   -2.3368   -0.1886 H   0  0  0  0  0  0  0  0  0  0  0  0
    0.4421   -3.0939   -1.7971 H   0  0  0  0  0  0  0  0  0  0  0  0
    2.8156   -1.4263   -5.4714 H   0  0  0  0  0  0  0  0  0  0  0  0
    3.6417    0.4762   -6.8507 H   0  0  0  0  0  0  0  0  0  0  0  0
    3.8140    3.5157   -6.8604 H   0  0  0  0  0  0  0  0  0  0  0  0
    2.9550    5.2796   -4.9896 H   0  0  0  0  0  0  0  0  0  0  0  0
    1.4730    1.2756   -2.3801 H   0  0  0  0  0  0  0  0  0  0  0  0
  1  2  1  0
  1 25  1  0
  1 26  1  0
  1 27  1  0
  2  3  1  0
  2  4  1  0
  2 28  1  6
  3 29  1  0
  3 30  1  0
  3 31  1  0
  4  5  1  0
  4 12  1  0
  4 32  1  6
  5  6  1  0
  5 33  1  0
  5 34  1  0
  6  7  1  0
  6 10  1  0
  7  8  2  0
  7  9  1  0
  9 35  1  0
 10 11  1  0
 10 36  1  0
 10 37  1  0
 11 12  1  0
 11 38  1  0
 11 39  1  0
 12 13  1  0
 13 14  2  0
 13 15  1  0
 15 16  2  0
 15 24  1  0
 16 17  1  0
 16 40  1  0
 17 18  2  0
 17 41  1  0
 18 19  1  0
 18 23  1  0
 19 20  2  0
 19 42  1  0
 20 21  1  0
 20 43  1  0
 21 22  1  0
 21 23  1  0
 23 24  2  0
 24 44  1  0
M  END

