
     RDKit          3D

 57 57  0  0  0  0  0  0  0  0999 V2000
    0.8376   -0.0185    0.1955 C   0  0  0  0  0  0  0  0  0  0  0  0
    2.3589    0.0611    0.0604 C   0  0  0  0  0  0  0  0  0  0  0  0
    2.9198   -0.7952   -1.0793 C   0  0  0  0  0  0  0  0  0  0  0  0
    4.4428   -0.7212   -1.2218 C   0  0  0  0  0  0  0  0  0  0  0  0
    5.0032   -1.5775   -2.3612 C   0  0  0  0  0  0  0  0  0  0  0  0
    6.5263   -1.5031   -2.5032 C   0  0  0  0  0  0  0  0  0  0  0  0
    7.0867   -2.3595   -3.6426 C   0  0  0  0  0  0  0  0  0  0  0  0
    8.6099   -2.2853   -3.7842 C   0  0  0  0  0  0  0  0  0  0  0  0
    9.1697   -3.1418   -4.9237 C   0  0  0  0  0  0  0  0  0  0  0  0
   10.6930   -3.0689   -5.0652 C   0  0  0  0  0  0  0  0  0  0  0  0
   11.2445   -3.9254   -6.2081 C   0  0  0  0  0  0  0  0  0  0  0  0
   12.7628   -3.8547   -6.3424 C   0  0  0  0  0  0  0  0  0  0  0  0
   13.3329   -4.6680   -7.4931 C   0  0  0  0  0  0  0  0  0  0  0  0
   12.6247   -5.2413   -8.2933 O   0  0  0  0  0  0  0  0  0  0  0  0
   14.8609   -4.7642   -7.5722 C   0  0  0  0  0  0  0  0  0  0  0  0
   15.3470   -6.0657   -6.9604 C   0  0  0  0  0  0  0  0  0  0  0  0
   15.9514   -6.1001   -5.7592 C   0  0  0  0  0  0  0  0  0  0  0  0
   16.4606   -7.3589   -5.1034 C   0  0  0  0  0  0  0  0  0  0  0  0
   16.5258   -8.5434   -6.0762 C   0  0  0  0  0  0  0  0  0  0  0  0
   15.2677   -8.6043   -6.9475 C   0  0  0  0  0  0  0  0  0  0  0  0
   15.1042   -7.3218   -7.7710 C   0  0  0  0  0  0  0  0  0  0  0  0
    0.4701    0.6086    1.0236 H   0  0  0  0  0  0  0  0  0  0  0  0
    0.5057   -1.0525    0.3890 H   0  0  0  0  0  0  0  0  0  0  0  0
    0.3349    0.3201   -0.7262 H   0  0  0  0  0  0  0  0  0  0  0  0
    2.8304   -0.2476    1.0114 H   0  0  0  0  0  0  0  0  0  0  0  0
    2.6611    1.1131   -0.0943 H   0  0  0  0  0  0  0  0  0  0  0  0
    2.4486   -0.4871   -2.0317 H   0  0  0  0  0  0  0  0  0  0  0  0
    2.6183   -1.8484   -0.9254 H   0  0  0  0  0  0  0  0  0  0  0  0
    4.9133   -1.0290   -0.2692 H   0  0  0  0  0  0  0  0  0  0  0  0
    4.7436    0.3321   -1.3755 H   0  0  0  0  0  0  0  0  0  0  0  0
    4.5329   -1.2697   -3.3139 H   0  0  0  0  0  0  0  0  0  0  0  0
    4.7025   -2.6308   -2.2077 H   0  0  0  0  0  0  0  0  0  0  0  0
    6.9967   -1.8108   -1.5505 H   0  0  0  0  0  0  0  0  0  0  0  0
    6.8271   -0.4498   -2.6569 H   0  0  0  0  0  0  0  0  0  0  0  0
    6.6167   -2.0518   -4.5953 H   0  0  0  0  0  0  0  0  0  0  0  0
    6.7859   -3.4127   -3.4891 H   0  0  0  0  0  0  0  0  0  0  0  0
    9.0800   -2.5932   -2.8315 H   0  0  0  0  0  0  0  0  0  0  0  0
    8.9108   -1.2320   -3.9378 H   0  0  0  0  0  0  0  0  0  0  0  0
    8.7013   -2.8339   -5.8769 H   0  0  0  0  0  0  0  0  0  0  0  0
    8.8690   -4.1950   -4.7711 H   0  0  0  0  0  0  0  0  0  0  0  0
   11.1624   -3.3783   -4.1123 H   0  0  0  0  0  0  0  0  0  0  0  0
   10.9944   -2.0151   -5.2164 H   0  0  0  0  0  0  0  0  0  0  0  0
   10.7863   -3.6211   -7.1642 H   0  0  0  0  0  0  0  0  0  0  0  0
   10.9457   -4.9784   -6.0661 H   0  0  0  0  0  0  0  0  0  0  0  0
   13.2678   -4.1865   -5.4161 H   0  0  0  0  0  0  0  0  0  0  0  0
   13.1003   -2.8095   -6.4856 H   0  0  0  0  0  0  0  0  0  0  0  0
   15.3249   -3.9074   -7.0613 H   0  0  0  0  0  0  0  0  0  0  0  0
   15.1321   -4.7302   -8.6407 H   0  0  0  0  0  0  0  0  0  0  0  0
   16.0954   -5.1624   -5.2084 H   0  0  0  0  0  0  0  0  0  0  0  0
   15.8063   -7.6095   -4.2448 H   0  0  0  0  0  0  0  0  0  0  0  0
   17.4545   -7.1698   -4.6602 H   0  0  0  0  0  0  0  0  0  0  0  0
   16.6649   -9.4851   -5.5201 H   0  0  0  0  0  0  0  0  0  0  0  0
   17.4108   -8.4309   -6.7284 H   0  0  0  0  0  0  0  0  0  0  0  0
   14.3829   -8.7361   -6.2986 H   0  0  0  0  0  0  0  0  0  0  0  0
   15.2971   -9.4808   -7.6154 H   0  0  0  0  0  0  0  0  0  0  0  0
   14.1009   -7.2716   -8.2256 H   0  0  0  0  0  0  0  0  0  0  0  0
   15.8085   -7.3243   -8.6265 H   0  0  0  0  0  0  0  0  0  0  0  0
  1  2  1  0
  1 22  1  0
  1 23  1  0
  1 24  1  0
  2  3  1  0
  2 25  1  0
  2 26  1  0
  3  4  1  0
  3 27  1  0
  3 28  1  0
  4  5  1  0
  4 29  1  0
  4 30  1  0
  5  6  1  0
  5 31  1  0
  5 32  1  0
  6  7  1  0
  6 33  1  0
  6 34  1  0
  7  8  1  0
  7 35  1  0
  7 36  1  0
  8  9  1  0
  8 37  1  0
  8 38  1  0
  9 10  1  0
  9 39  1  0
  9 40  1  0
 10 11  1  0
 10 41  1  0
 10 42  1  0
 11 12  1  0
 11 43  1  0
 11 44  1  0
 12 13  1  0
 12 45  1  0
 12 46  1  0
 13 14  2  0
 13 15  1  0
 15 16  1  0
 15 47  1  0
 15 48  1  0
 16 17  2  0
 16 21  1  0
 17 18  1  0
 17 49  1  0
 18 19  1  0
 18 50  1  0
 18 51  1  0
 19 20  1  0
 19 52  1  0
 19 53  1  0
 20 21  1  0
 20 54  1  0
 20 55  1  0
 21 56  1  0
 21 57  1  0
M  END

