
     RDKit          3D

 45 47  0  0  0  0  0  0  0  0999 V2000
    4.4375   -0.7864   -1.7543 O   0  0  0  0  0  0  0  0  0  0  0  0
    4.2136    0.0730   -0.9079 C   0  0  0  0  0  0  0  0  0  0  0  0
    2.7779    0.3967   -0.5662 C   0  0  2  0  0  0  0  0  0  0  0  0
    2.5294    1.1715    0.1572 H   0  0  0  0  0  0  0  0  0  0  0  0
    1.7789   -0.7259   -0.6648 C   0  0  0  0  0  0  0  0  0  0  0  0
    1.8094    0.3194   -1.7318 C   0  0  1  0  0  0  0  0  0  0  0  0
    2.1825    0.0916   -2.7292 H   0  0  0  0  0  0  0  0  0  0  0  0
    0.7226    1.3178   -1.7606 N   0  0  0  0  0  0  0  0  0  0  0  0
    0.2411    1.6765   -0.6956 O   0  0  0  0  0  0  0  0  0  0  0  0
    0.3801    1.7153   -2.8594 O   0  0  0  0  0  0  0  0  0  0  0  0
    5.2146    0.7444   -0.2597 N   0  0  0  0  0  0  0  0  0  0  0  0
    6.6071    0.4227   -0.5883 C   0  0  0  0  0  0  0  0  0  0  0  0
    7.3595    1.6683   -1.0658 C   0  0  0  0  0  0  0  0  0  0  0  0
    7.2573    2.8139   -0.0435 C   0  0  2  0  0  0  0  0  0  0  0  0
    7.9256    2.4790    1.1667 O   0  0  0  0  0  0  0  0  0  0  0  0
    9.3274    2.7534    1.2210 C   0  0  1  0  0  0  0  0  0  0  0  0
    9.5870    4.2094    1.6456 C   0  0  0  0  0  0  0  0  0  0  0  0
    9.1332    4.4788    3.0866 C   0  0  0  0  0  0  0  0  0  0  0  0
    9.7686    3.4894    4.0729 C   0  0  0  0  0  0  0  0  0  0  0  0
    9.5000    2.0364    3.6581 C   0  0  0  0  0  0  0  0  0  0  0  0
    9.9558    1.7723    2.2168 C   0  0  0  0  0  0  0  0  0  0  0  0
    5.7876    3.0778    0.3001 C   0  0  0  0  0  0  0  0  0  0  0  0
    5.0764    1.7945    0.7485 C   0  0  0  0  0  0  0  0  0  0  0  0
    0.9355   -0.6972    0.0280 H   0  0  0  0  0  0  0  0  0  0  0  0
    2.1631   -1.7051   -0.9589 H   0  0  0  0  0  0  0  0  0  0  0  0
    6.5944   -0.3609   -1.3540 H   0  0  0  0  0  0  0  0  0  0  0  0
    7.0984    0.0222    0.3157 H   0  0  0  0  0  0  0  0  0  0  0  0
    6.9434    2.0066   -2.0301 H   0  0  0  0  0  0  0  0  0  0  0  0
    8.4166    1.4128   -1.2457 H   0  0  0  0  0  0  0  0  0  0  0  0
    7.6960    3.7333   -0.4748 H   0  0  0  0  0  0  0  0  0  0  0  0
    9.7719    2.5817    0.2219 H   0  0  0  0  0  0  0  0  0  0  0  0
    9.0872    4.8997    0.9452 H   0  0  0  0  0  0  0  0  0  0  0  0
   10.6702    4.4063    1.5501 H   0  0  0  0  0  0  0  0  0  0  0  0
    8.0347    4.3857    3.1373 H   0  0  0  0  0  0  0  0  0  0  0  0
    9.3753    5.5166    3.3701 H   0  0  0  0  0  0  0  0  0  0  0  0
    9.3921    3.6723    5.0934 H   0  0  0  0  0  0  0  0  0  0  0  0
   10.8607    3.6623    4.1101 H   0  0  0  0  0  0  0  0  0  0  0  0
    8.4194    1.8272    3.7347 H   0  0  0  0  0  0  0  0  0  0  0  0
   10.0063    1.3387    4.3459 H   0  0  0  0  0  0  0  0  0  0  0  0
    9.7101    0.7425    1.9103 H   0  0  0  0  0  0  0  0  0  0  0  0
   11.0537    1.8742    2.1504 H   0  0  0  0  0  0  0  0  0  0  0  0
    5.2779    3.4870   -0.5883 H   0  0  0  0  0  0  0  0  0  0  0  0
    5.7290    3.8325    1.1000 H   0  0  0  0  0  0  0  0  0  0  0  0
    4.0203    1.9987    0.9518 H   0  0  0  0  0  0  0  0  0  0  0  0
    5.5290    1.4436    1.6925 H   0  0  0  0  0  0  0  0  0  0  0  0
  1  2  2  0
  2  3  1  0
  2 11  1  0
  3  4  1  1
  3  5  1  0
  3  6  1  0
  5  6  1  0
  5 24  1  0
  5 25  1  0
  6  7  1  6
  6  8  1  0
  8  9  2  0
  8 10  1  0
 11 12  1  0
 11 23  1  0
 12 13  1  0
 12 26  1  0
 12 27  1  0
 13 14  1  0
 13 28  1  0
 13 29  1  0
 14 15  1  0
 14 22  1  0
 14 30  1  6
 15 16  1  0
 16 17  1  0
 16 21  1  0
 16 31  1  6
 17 18  1  0
 17 32  1  0
 17 33  1  0
 18 19  1  0
 18 34  1  0
 18 35  1  0
 19 20  1  0
 19 36  1  0
 19 37  1  0
 20 21  1  0
 20 38  1  0
 20 39  1  0
 21 40  1  0
 21 41  1  0
 22 23  1  0
 22 42  1  0
 22 43  1  0
 23 44  1  0
 23 45  1  0
M  CHG  2   8   1  10  -1
M  END

