
     RDKit          3D

 32 33  0  0  0  0  0  0  0  0999 V2000
    2.9216    0.7863   -0.9061 C   0  0  0  0  0  0  0  0  0  0  0  0
    2.8041   -0.4361    0.0155 C   0  0  1  0  0  0  0  0  0  0  0  0
    3.7709   -1.4974   -0.2813 N   0  0  0  0  0  0  0  0  0  0  0  0
    2.8852   -0.0513    1.5028 C   0  0  0  0  0  0  0  0  0  0  0  0
    4.5475    0.4722    2.0955 S   0  0  0  0  0  0  0  0  0  0  0  0
    5.1886   -1.1503    2.6830 C   0  0  0  0  0  0  0  0  0  0  0  0
    6.7019   -1.1614    2.7761 C   0  0  2  0  0  0  0  0  0  0  0  0
    7.3065   -2.5046    3.2661 C   0  0  0  0  0  0  0  0  0  0  0  0
    8.3860   -2.0304    4.2100 C   0  0  0  0  0  0  0  0  0  0  0  0
    9.4089   -2.7043    4.8686 C   0  0  0  0  0  0  0  0  0  0  0  0
   10.2272   -1.9741    5.7441 C   0  0  0  0  0  0  0  0  0  0  0  0
   11.6508   -2.8687    6.6542 Br  0  0  0  0  0  0  0  0  0  0  0  0
   10.0230   -0.6078    5.9630 C   0  0  0  0  0  0  0  0  0  0  0  0
    8.9904    0.0692    5.3005 C   0  0  0  0  0  0  0  0  0  0  0  0
    8.1850   -0.6606    4.4288 C   0  0  0  0  0  0  0  0  0  0  0  0
    7.1464   -0.1533    3.7203 O   0  0  0  0  0  0  0  0  0  0  0  0
    2.8524    0.4844   -1.9640 H   0  0  0  0  0  0  0  0  0  0  0  0
    3.8918    1.2893   -0.7570 H   0  0  0  0  0  0  0  0  0  0  0  0
    2.1234    1.5226   -0.7137 H   0  0  0  0  0  0  0  0  0  0  0  0
    1.7982   -0.8750   -0.1232 H   0  0  0  0  0  0  0  0  0  0  0  0
    4.7073   -1.0865   -0.3052 H   0  0  0  0  0  0  0  0  0  0  0  0
    3.6037   -1.8693   -1.2166 H   0  0  0  0  0  0  0  0  0  0  0  0
    2.5574   -0.8918    2.1325 H   0  0  0  0  0  0  0  0  0  0  0  0
    2.2136    0.7959    1.7102 H   0  0  0  0  0  0  0  0  0  0  0  0
    4.8665   -1.9187    1.9647 H   0  0  0  0  0  0  0  0  0  0  0  0
    4.7585   -1.3779    3.6724 H   0  0  0  0  0  0  0  0  0  0  0  0
    7.1340   -0.8875    1.7963 H   0  0  0  0  0  0  0  0  0  0  0  0
    7.6839   -3.1098    2.4281 H   0  0  0  0  0  0  0  0  0  0  0  0
    6.5533   -3.1127    3.7991 H   0  0  0  0  0  0  0  0  0  0  0  0
    9.5779   -3.7718    4.7157 H   0  0  0  0  0  0  0  0  0  0  0  0
   10.6756   -0.0658    6.6495 H   0  0  0  0  0  0  0  0  0  0  0  0
    8.8202    1.1357    5.4570 H   0  0  0  0  0  0  0  0  0  0  0  0
  1  2  1  0
  1 17  1  0
  1 18  1  0
  1 19  1  0
  2  3  1  0
  2  4  1  0
  2 20  1  1
  3 21  1  0
  3 22  1  0
  4  5  1  0
  4 23  1  0
  4 24  1  0
  5  6  1  0
  6  7  1  0
  6 25  1  0
  6 26  1  0
  7  8  1  0
  7 16  1  0
  7 27  1  6
  8  9  1  0
  8 28  1  0
  8 29  1  0
  9 10  2  0
  9 15  1  0
 10 11  1  0
 10 30  1  0
 11 12  1  0
 11 13  2  0
 13 14  1  0
 13 31  1  0
 14 15  2  0
 14 32  1  0
 15 16  1  0
M  END

