
     RDKit          3D

 27 28  0  0  0  0  0  0  0  0999 V2000
    5.3696   -1.4294    1.7786 C   0  0  0  0  0  0  0  0  0  0  0  0
    4.4994   -0.5696    0.8997 C   0  0  0  0  0  0  0  0  0  0  0  0
    4.9373    0.6638    0.3381 C   0  0  0  0  0  0  0  0  0  0  0  0
    3.9807    1.2798   -0.4330 C   0  0  0  0  0  0  0  0  0  0  0  0
    2.5189    0.3809   -0.4927 S   0  0  0  0  0  0  0  0  0  0  0  0
    3.1827   -0.8674    0.5398 C   0  0  0  0  0  0  0  0  0  0  0  0
    2.4934   -2.0821    0.9241 C   0  0  0  0  0  0  0  0  0  0  0  0
    1.2960   -2.5179    0.7518 N   0  0  0  0  0  0  0  0  0  0  0  0
    0.3753   -1.6364    0.1586 N   0  0  0  0  0  0  0  0  0  0  0  0
   -0.1201   -1.9907   -1.0895 C   0  0  0  0  0  0  0  0  0  0  0  0
    0.5166   -3.1611   -2.0690 S   0  0  0  0  0  0  0  0  0  0  0  0
   -1.2145   -1.2447   -1.4669 N   0  0  0  0  0  0  0  0  0  0  0  0
   -1.5953   -1.4579   -2.3842 H   0  0  0  0  0  0  0  0  0  0  0  0
   -1.8463   -0.2924   -0.7722 N   0  0  0  0  0  0  0  0  0  0  0  0
   -1.4034    0.0018    0.4081 C   0  0  0  0  0  0  0  0  0  0  0  0
   -2.0823    1.0568    1.2230 C   0  0  0  0  0  0  0  0  0  0  0  0
   -0.2311   -0.6768    1.0085 C   0  0  0  0  0  0  0  0  0  0  0  0
    0.1937   -0.4436    2.1189 O   0  0  0  0  0  0  0  0  0  0  0  0
    6.3690   -0.9847    1.8857 H   0  0  0  0  0  0  0  0  0  0  0  0
    5.5008   -2.4416    1.3627 H   0  0  0  0  0  0  0  0  0  0  0  0
    4.9451   -1.5414    2.7892 H   0  0  0  0  0  0  0  0  0  0  0  0
    5.9339    1.0769    0.5018 H   0  0  0  0  0  0  0  0  0  0  0  0
    4.0640    2.2218   -0.9741 H   0  0  0  0  0  0  0  0  0  0  0  0
    3.1262   -2.8069    1.4522 H   0  0  0  0  0  0  0  0  0  0  0  0
   -2.9294    1.4734    0.6631 H   0  0  0  0  0  0  0  0  0  0  0  0
   -1.3753    1.8620    1.4806 H   0  0  0  0  0  0  0  0  0  0  0  0
   -2.4388    0.6387    2.1781 H   0  0  0  0  0  0  0  0  0  0  0  0
  1  2  1  0
  1 19  1  0
  1 20  1  0
  1 21  1  0
  2  3  1  0
  2  6  2  0
  3  4  2  0
  3 22  1  0
  4  5  1  0
  4 23  1  0
  5  6  1  0
  6  7  1  0
  7  8  2  0
  7 24  1  0
  8  9  1  0
  9 10  1  0
  9 17  1  0
 10 11  2  0
 10 12  1  0
 12 13  1  0
 12 14  1  0
 14 15  2  0
 15 16  1  0
 15 17  1  0
 16 25  1  0
 16 26  1  0
 16 27  1  0
 17 18  2  0
M  END

