
     RDKit          3D

 45 46  0  0  0  0  0  0  0  0999 V2000
    2.4336   -0.6801   -2.4247 C   0  0  0  0  0  0  0  0  0  0  0  0
    3.2636    0.1020   -1.5056 N   0  0  0  0  0  0  0  0  0  0  0  0
    2.6380    0.7186   -0.3525 C   0  0  0  0  0  0  0  0  0  0  0  0
    1.0078    1.5793   -0.6565 P   0  0  0  0  0  0  0  0  0  0  0  0
   -0.1181    0.6298   -0.9818 O   0  0  0  0  0  0  0  0  0  0  0  0
    0.7133    2.4456    0.9328 C   0  0  0  0  0  0  0  0  0  0  0  0
    1.5325    3.4687    1.4378 C   0  0  0  0  0  0  0  0  0  0  0  0
    1.2352    4.0622    2.6667 C   0  0  0  0  0  0  0  0  0  0  0  0
    0.1182    3.6406    3.3969 C   0  0  0  0  0  0  0  0  0  0  0  0
   -0.7027    2.6263    2.8959 C   0  0  0  0  0  0  0  0  0  0  0  0
   -0.4081    2.0289    1.6668 C   0  0  0  0  0  0  0  0  0  0  0  0
    1.2660    2.8310   -1.9604 C   0  0  0  0  0  0  0  0  0  0  0  0
    0.2164    2.9878   -2.8810 C   0  0  0  0  0  0  0  0  0  0  0  0
    0.3165    3.9353   -3.9023 C   0  0  0  0  0  0  0  0  0  0  0  0
    1.4660    4.7236   -4.0169 C   0  0  0  0  0  0  0  0  0  0  0  0
    2.5201    4.5594   -3.1130 C   0  0  0  0  0  0  0  0  0  0  0  0
    2.4230    3.6157   -2.0873 C   0  0  0  0  0  0  0  0  0  0  0  0
    4.6014    0.2081   -1.8125 C   0  0  0  0  0  0  0  0  0  0  0  0
    5.0619   -0.2263   -2.8532 O   0  0  0  0  0  0  0  0  0  0  0  0
    5.5279    0.7888   -0.7596 C   0  0  0  0  0  0  0  0  0  0  0  0
    5.6869    0.1011    0.4567 C   0  0  0  0  0  0  0  0  0  0  0  0
    6.6335    0.4984    1.4014 C   0  0  0  0  0  0  0  0  0  0  0  0
    7.4406    1.6100    1.1455 C   0  0  0  0  0  0  0  0  0  0  0  0
    7.3016    2.3117   -0.0537 C   0  0  0  0  0  0  0  0  0  0  0  0
    6.3592    1.8956   -0.9999 C   0  0  0  0  0  0  0  0  0  0  0  0
    6.2293    2.8974   -2.6212 Br  0  0  0  0  0  0  0  0  0  0  0  0
    1.5327   -1.0203   -1.8988 H   0  0  0  0  0  0  0  0  0  0  0  0
    3.0154   -1.5306   -2.8031 H   0  0  0  0  0  0  0  0  0  0  0  0
    2.1150   -0.0771   -3.2908 H   0  0  0  0  0  0  0  0  0  0  0  0
    3.3276    1.4348    0.1121 H   0  0  0  0  0  0  0  0  0  0  0  0
    2.3763   -0.0259    0.4255 H   0  0  0  0  0  0  0  0  0  0  0  0
    2.4001    3.8186    0.8727 H   0  0  0  0  0  0  0  0  0  0  0  0
    1.8745    4.8596    3.0541 H   0  0  0  0  0  0  0  0  0  0  0  0
   -0.1133    4.1080    4.3575 H   0  0  0  0  0  0  0  0  0  0  0  0
   -1.5782    2.2994    3.4628 H   0  0  0  0  0  0  0  0  0  0  0  0
   -1.0404    1.2395    1.2534 H   0  0  0  0  0  0  0  0  0  0  0  0
   -0.6664    2.3511   -2.7864 H   0  0  0  0  0  0  0  0  0  0  0  0
   -0.5035    4.0545   -4.6151 H   0  0  0  0  0  0  0  0  0  0  0  0
    1.5455    5.4618   -4.8192 H   0  0  0  0  0  0  0  0  0  0  0  0
    3.4287    5.1582   -3.2108 H   0  0  0  0  0  0  0  0  0  0  0  0
    3.2679    3.4889   -1.4068 H   0  0  0  0  0  0  0  0  0  0  0  0
    5.0590   -0.7721    0.6521 H   0  0  0  0  0  0  0  0  0  0  0  0
    6.7418   -0.0605    2.3337 H   0  0  0  0  0  0  0  0  0  0  0  0
    8.1846    1.9347    1.8770 H   0  0  0  0  0  0  0  0  0  0  0  0
    7.9268    3.1811   -0.2636 H   0  0  0  0  0  0  0  0  0  0  0  0
  1  2  1  0
  1 27  1  0
  1 28  1  0
  1 29  1  0
  2  3  2  0
  2 18  1  0
  3 30  1  0
  3 31  1  0
  4  5  1  0
  4  6  1  0
  4 12  1  0
  6  7  2  0
  6 11  1  0
  7  8  1  0
  7 32  1  0
  8  9  2  0
  8 33  1  0
  9 10  1  0
  9 34  1  0
 10 11  2  0
 10 35  1  0
 11 36  1  0
 12 13  2  0
 12 17  1  0
 13 14  1  0
 13 37  1  0
 14 15  2  0
 14 38  1  0
 15 16  1  0
 15 39  1  0
 16 17  2  0
 16 40  1  0
 17 41  1  0
 18 19  2  0
 18 20  1  0
 20 21  2  0
 20 25  1  0
 21 22  1  0
 21 42  1  0
 22 23  2  0
 22 43  1  0
 23 24  1  0
 23 44  1  0
 24 25  2  0
 24 45  1  0
 25 26  1  0
M  CHG  2   2   1   5  -1
M  END

