
     RDKit          3D

 19 18  0  0  0  0  0  0  0  0999 V2000
    1.1037   -0.0003   -0.1206 C   0  0  0  0  0  0  0  0  0  0  0  0
    2.5084   -0.0587   -0.3783 O   0  0  0  0  0  0  0  0  0  0  0  0
    3.0748   -1.2753   -0.3354 C   0  0  0  0  0  0  0  0  0  0  0  0
    2.4586   -2.2900   -0.1132 O   0  0  0  0  0  0  0  0  0  0  0  0
    4.5701   -1.1870   -0.5691 C   0  0  0  0  0  0  0  0  0  0  0  0
    5.2062   -2.5555   -0.8374 C   0  0  1  0  0  0  0  0  0  0  0  0
    4.8390   -3.2699   -0.0816 H   0  0  0  0  0  0  0  0  0  0  0  0
    4.8425   -3.1178   -2.2239 C   0  0  0  0  0  0  0  0  0  0  0  0
    6.7110   -2.4701   -0.6472 C   0  0  0  0  0  0  0  0  0  0  0  0
    7.3618   -1.4935   -0.4782 O   0  0  0  0  0  0  0  0  0  0  0  0
    7.5139   -4.1016   -0.6811 Cl  0  0  0  0  0  0  0  0  0  0  0  0
    0.8234    1.0573   -0.1966 H   0  0  0  0  0  0  0  0  0  0  0  0
    0.8739   -0.3858    0.8842 H   0  0  0  0  0  0  0  0  0  0  0  0
    0.5461   -0.5979   -0.8575 H   0  0  0  0  0  0  0  0  0  0  0  0
    5.0110   -0.7211    0.3281 H   0  0  0  0  0  0  0  0  0  0  0  0
    4.7664   -0.4780   -1.3885 H   0  0  0  0  0  0  0  0  0  0  0  0
    3.7502   -3.2130   -2.2988 H   0  0  0  0  0  0  0  0  0  0  0  0
    5.2857   -4.1109   -2.3770 H   0  0  0  0  0  0  0  0  0  0  0  0
    5.1957   -2.4501   -3.0263 H   0  0  0  0  0  0  0  0  0  0  0  0
  1  2  1  0
  1 12  1  0
  1 13  1  0
  1 14  1  0
  2  3  1  0
  3  4  2  0
  3  5  1  0
  5  6  1  0
  5 15  1  0
  5 16  1  0
  6  7  1  1
  6  8  1  0
  6  9  1  0
  8 17  1  0
  8 18  1  0
  8 19  1  0
  9 10  2  0
  9 11  1  0
M  END

