
     RDKit          3D

 66 74  0  0  0  0  0  0  0  0999 V2000
    4.1042    0.0619   -2.4313 O   0  0  0  0  0  0  0  0  0  0  0  0
    5.2664    0.0372   -1.4690 S   0  0  0  0  0  0  0  0  0  0  0  0
    5.0408   -1.2406   -0.1843 C   0  0  0  0  0  0  0  0  0  0  0  0
    4.9680   -2.6042   -0.4371 C   0  0  0  0  0  0  0  0  0  0  0  0
    4.8476   -3.4788    0.6493 C   0  0  0  0  0  0  0  0  0  0  0  0
    4.8155   -2.9946    1.9709 C   0  0  0  0  0  0  0  0  0  0  0  0
    4.6984   -3.9450    3.1239 C   0  0  0  0  0  0  0  0  0  0  0  0
    5.8688   -4.4455    3.7450 C   0  0  0  0  0  0  0  0  0  0  0  0
    7.1886   -4.0835    3.3135 C   0  0  0  0  0  0  0  0  0  0  0  0
    8.3048   -4.5856    3.9359 C   0  0  0  0  0  0  0  0  0  0  0  0
    8.1824   -5.4864    5.0346 C   0  0  0  0  0  0  0  0  0  0  0  0
    6.9403   -5.8609    5.4798 C   0  0  0  0  0  0  0  0  0  0  0  0
    5.7496   -5.3617    4.8596 C   0  0  0  0  0  0  0  0  0  0  0  0
    4.4768   -5.7396    5.3057 C   0  0  0  0  0  0  0  0  0  0  0  0
    3.3108   -5.2537    4.7006 C   0  0  0  0  0  0  0  0  0  0  0  0
    2.0105   -5.6423    5.1590 C   0  0  0  0  0  0  0  0  0  0  0  0
    0.8745   -5.1603    4.5604 C   0  0  0  0  0  0  0  0  0  0  0  0
    0.9751   -4.2561    3.4623 C   0  0  0  0  0  0  0  0  0  0  0  0
    2.2021   -3.8582    2.9918 C   0  0  0  0  0  0  0  0  0  0  0  0
    3.4178   -4.3364    3.5856 C   0  0  0  0  0  0  0  0  0  0  0  0
    4.8865   -1.6093    2.1993 C   0  0  0  0  0  0  0  0  0  0  0  0
    4.9843   -0.7226    1.1211 C   0  0  0  0  0  0  0  0  0  0  0  0
    5.0025    0.7512    1.1361 C   0  0  0  0  0  0  0  0  0  0  0  0
    4.9249    1.6180    2.2319 C   0  0  0  0  0  0  0  0  0  0  0  0
    4.8878    3.0090    2.0317 C   0  0  0  0  0  0  0  0  0  0  0  0
    4.7903    3.9384    3.2034 C   0  0  0  0  0  0  0  0  0  0  0  0
    5.9660    4.3381    3.8849 C   0  0  0  0  0  0  0  0  0  0  0  0
    7.2744    3.8951    3.4961 C   0  0  0  0  0  0  0  0  0  0  0  0
    8.3958    4.3000    4.1770 C   0  0  0  0  0  0  0  0  0  0  0  0
    8.2908    5.1783    5.2955 C   0  0  0  0  0  0  0  0  0  0  0  0
    7.0606    5.6302    5.6999 C   0  0  0  0  0  0  0  0  0  0  0  0
    5.8650    5.2338    5.0178 C   0  0  0  0  0  0  0  0  0  0  0  0
    4.6048    5.6942    5.4200 C   0  0  0  0  0  0  0  0  0  0  0  0
    3.4341    5.3094    4.7544 C   0  0  0  0  0  0  0  0  0  0  0  0
    2.1468    5.7818    5.1686 C   0  0  0  0  0  0  0  0  0  0  0  0
    1.0054    5.3959    4.5132 C   0  0  0  0  0  0  0  0  0  0  0  0
    1.0872    4.5082    3.4003 C   0  0  0  0  0  0  0  0  0  0  0  0
    2.3014    4.0324    2.9706 C   0  0  0  0  0  0  0  0  0  0  0  0
    3.5224    4.4113    3.6223 C   0  0  0  0  0  0  0  0  0  0  0  0
    4.9341    3.5189    0.7201 C   0  0  0  0  0  0  0  0  0  0  0  0
    5.0344    2.6638   -0.3836 C   0  0  0  0  0  0  0  0  0  0  0  0
    5.0729    1.2940   -0.1586 C   0  0  0  0  0  0  0  0  0  0  0  0
    4.9931   -2.9843   -1.4615 H   0  0  0  0  0  0  0  0  0  0  0  0
    4.7780   -4.5551    0.4749 H   0  0  0  0  0  0  0  0  0  0  0  0
    7.2989   -3.3962    2.4734 H   0  0  0  0  0  0  0  0  0  0  0  0
    9.2989   -4.2942    3.5875 H   0  0  0  0  0  0  0  0  0  0  0  0
    9.0821   -5.8757    5.5176 H   0  0  0  0  0  0  0  0  0  0  0  0
    6.8363   -6.5517    6.3209 H   0  0  0  0  0  0  0  0  0  0  0  0
    4.3912   -6.4321    6.1480 H   0  0  0  0  0  0  0  0  0  0  0  0
    1.9436   -6.3357    6.0017 H   0  0  0  0  0  0  0  0  0  0  0  0
   -0.1109   -5.4657    4.9209 H   0  0  0  0  0  0  0  0  0  0  0  0
    0.0641   -3.8774    2.9920 H   0  0  0  0  0  0  0  0  0  0  0  0
    2.2616   -3.1659    2.1508 H   0  0  0  0  0  0  0  0  0  0  0  0
    4.8514   -1.2346    3.2251 H   0  0  0  0  0  0  0  0  0  0  0  0
    4.8784    1.2234    3.2498 H   0  0  0  0  0  0  0  0  0  0  0  0
    7.3719    3.2250    2.6407 H   0  0  0  0  0  0  0  0  0  0  0  0
    9.3809    3.9484    3.8600 H   0  0  0  0  0  0  0  0  0  0  0  0
    9.1944    5.4895    5.8256 H   0  0  0  0  0  0  0  0  0  0  0  0
    6.9699    6.3058    6.5548 H   0  0  0  0  0  0  0  0  0  0  0  0
    4.5332    6.3717    6.2757 H   0  0  0  0  0  0  0  0  0  0  0  0
    2.0942    6.4605    6.0243 H   0  0  0  0  0  0  0  0  0  0  0  0
    0.0301    5.7645    4.8405 H   0  0  0  0  0  0  0  0  0  0  0  0
    0.1718    4.2041    2.8862 H   0  0  0  0  0  0  0  0  0  0  0  0
    2.3461    3.3526    2.1185 H   0  0  0  0  0  0  0  0  0  0  0  0
    4.8918    4.5999    0.5675 H   0  0  0  0  0  0  0  0  0  0  0  0
    5.0705    3.0640   -1.4001 H   0  0  0  0  0  0  0  0  0  0  0  0
  2  1  1  6
  2  3  1  0
  2 42  1  0
  3  4  2  0
  3 22  1  0
  4  5  1  0
  4 43  1  0
  5  6  2  0
  5 44  1  0
  6  7  1  0
  6 21  1  0
  7  8  1  0
  7 20  2  0
  8  9  2  0
  8 13  1  0
  9 10  1  0
  9 45  1  0
 10 11  2  0
 10 46  1  0
 11 12  1  0
 11 47  1  0
 12 13  2  0
 12 48  1  0
 13 14  1  0
 14 15  2  0
 14 49  1  0
 15 16  1  0
 15 20  1  0
 16 17  2  0
 16 50  1  0
 17 18  1  0
 17 51  1  0
 18 19  2  0
 18 52  1  0
 19 20  1  0
 19 53  1  0
 21 22  2  0
 21 54  1  0
 22 23  1  0
 23 24  1  0
 23 42  2  0
 24 25  2  0
 24 55  1  0
 25 26  1  0
 25 40  1  0
 26 27  1  0
 26 39  2  0
 27 28  2  0
 27 32  1  0
 28 29  1  0
 28 56  1  0
 29 30  2  0
 29 57  1  0
 30 31  1  0
 30 58  1  0
 31 32  2  0
 31 59  1  0
 32 33  1  0
 33 34  2  0
 33 60  1  0
 34 35  1  0
 34 39  1  0
 35 36  2  0
 35 61  1  0
 36 37  1  0
 36 62  1  0
 37 38  2  0
 37 63  1  0
 38 39  1  0
 38 64  1  0
 40 41  2  0
 40 65  1  0
 41 42  1  0
 41 66  1  0
M  CHG  2   1  -1   2   1
M  END

