
     RDKit          3D

 63 65  0  0  0  0  0  0  0  0999 V2000
    5.9319   -0.6289   -2.5624 C   0  0  0  0  0  0  0  0  0  0  0  0
    5.4173    0.7482   -2.9870 C   0  0  0  0  0  0  0  0  0  0  0  0
    4.5764    1.4026   -1.9837 N   0  0  0  0  0  0  0  0  0  0  0  0
    3.1895    0.9823   -1.8983 C   0  0  0  0  0  0  0  0  0  0  0  0
    5.2008    2.1959   -1.0445 C   0  0  0  0  0  0  0  0  0  0  0  0
    6.4051    2.4033   -1.0838 O   0  0  0  0  0  0  0  0  0  0  0  0
    4.3267    2.8091    0.0491 C   0  0  0  0  0  0  0  0  0  0  0  0
    5.0845    3.7328    0.9974 C   0  0  0  0  0  0  0  0  0  0  0  0
    5.6668    4.9389    0.3862 N   0  0  0  0  0  0  0  0  0  0  0  0
    4.9708    5.6126   -0.7007 C   0  0  0  0  0  0  0  0  0  0  0  0
    3.8036    6.4926   -0.2588 C   0  0  1  0  0  0  0  0  0  0  0  0
    4.1623    7.1632    0.5465 H   0  0  0  0  0  0  0  0  0  0  0  0
    3.1735    7.3257   -1.3768 C   0  0  0  0  0  0  0  0  0  0  0  0
    1.7693    7.5830   -0.8176 C   0  0  0  0  0  0  0  0  0  0  0  0
    1.4695    6.2760   -0.0631 C   0  0  0  0  0  0  0  0  0  0  0  0
    2.7310    5.6804    0.2366 O   0  0  0  0  0  0  0  0  0  0  0  0
    6.8341    5.3774    0.9503 C   0  0  0  0  0  0  0  0  0  0  0  0
    7.3834    4.7928    1.8768 O   0  0  0  0  0  0  0  0  0  0  0  0
    7.5249    6.6291    0.4578 C   0  0  0  0  0  0  0  0  0  0  0  0
    8.8833    6.9065    0.7853 C   0  0  0  0  0  0  0  0  0  0  0  0
    9.1118    8.1469    0.2511 C   0  0  0  0  0  0  0  0  0  0  0  0
   10.3106    8.9903    0.1956 C   0  0  0  0  0  0  0  0  0  0  0  0
   11.5710    8.3542    0.1623 C   0  0  0  0  0  0  0  0  0  0  0  0
   12.7519    9.1013    0.1298 C   0  0  0  0  0  0  0  0  0  0  0  0
   13.9991    8.5680    0.0873 O   0  0  0  0  0  0  0  0  0  0  0  0
   14.1508    7.1663    0.0897 C   0  0  0  0  0  0  0  0  0  0  0  0
   12.6772   10.5065    0.1351 C   0  0  0  0  0  0  0  0  0  0  0  0
   11.4410   11.1369    0.1806 C   0  0  0  0  0  0  0  0  0  0  0  0
   10.2474   10.3982    0.2146 C   0  0  0  0  0  0  0  0  0  0  0  0
    9.0505   11.0432    0.3512 O   0  0  0  0  0  0  0  0  0  0  0  0
    8.5076   11.6419   -0.8142 C   0  0  0  0  0  0  0  0  0  0  0  0
    7.9723    8.5778   -0.3416 O   0  0  0  0  0  0  0  0  0  0  0  0
    6.9852    7.6319   -0.2077 N   0  0  0  0  0  0  0  0  0  0  0  0
    6.5449   -1.0727   -3.3636 H   0  0  0  0  0  0  0  0  0  0  0  0
    5.1081   -1.3289   -2.3463 H   0  0  0  0  0  0  0  0  0  0  0  0
    6.5604   -0.5422   -1.6630 H   0  0  0  0  0  0  0  0  0  0  0  0
    4.8297    0.6688   -3.9177 H   0  0  0  0  0  0  0  0  0  0  0  0
    6.2691    1.4140   -3.1791 H   0  0  0  0  0  0  0  0  0  0  0  0
    2.7973    0.8079   -2.9128 H   0  0  0  0  0  0  0  0  0  0  0  0
    2.5652    1.7555   -1.4338 H   0  0  0  0  0  0  0  0  0  0  0  0
    3.0549    0.0462   -1.3229 H   0  0  0  0  0  0  0  0  0  0  0  0
    3.9125    1.9907    0.6644 H   0  0  0  0  0  0  0  0  0  0  0  0
    3.4511    3.3240   -0.3744 H   0  0  0  0  0  0  0  0  0  0  0  0
    5.9183    3.1942    1.4613 H   0  0  0  0  0  0  0  0  0  0  0  0
    4.3917    4.0337    1.8021 H   0  0  0  0  0  0  0  0  0  0  0  0
    4.5997    4.8639   -1.4168 H   0  0  0  0  0  0  0  0  0  0  0  0
    5.6818    6.2452   -1.2401 H   0  0  0  0  0  0  0  0  0  0  0  0
    3.1223    6.7315   -2.3064 H   0  0  0  0  0  0  0  0  0  0  0  0
    3.7427    8.2424   -1.5878 H   0  0  0  0  0  0  0  0  0  0  0  0
    1.0201    7.8074   -1.5916 H   0  0  0  0  0  0  0  0  0  0  0  0
    1.7924    8.4350   -0.1190 H   0  0  0  0  0  0  0  0  0  0  0  0
    0.8815    5.5732   -0.6825 H   0  0  0  0  0  0  0  0  0  0  0  0
    0.9043    6.4484    0.8698 H   0  0  0  0  0  0  0  0  0  0  0  0
    9.5448    6.2701    1.3633 H   0  0  0  0  0  0  0  0  0  0  0  0
   11.5991    7.2657    0.1390 H   0  0  0  0  0  0  0  0  0  0  0  0
   15.2306    6.9681    0.0614 H   0  0  0  0  0  0  0  0  0  0  0  0
   13.6790    6.6992   -0.7939 H   0  0  0  0  0  0  0  0  0  0  0  0
   13.7271    6.7078    1.0016 H   0  0  0  0  0  0  0  0  0  0  0  0
   13.6072   11.0779    0.1135 H   0  0  0  0  0  0  0  0  0  0  0  0
   11.3780   12.2269    0.2165 H   0  0  0  0  0  0  0  0  0  0  0  0
    7.5891   12.1615   -0.5075 H   0  0  0  0  0  0  0  0  0  0  0  0
    8.2529   10.8811   -1.5714 H   0  0  0  0  0  0  0  0  0  0  0  0
    9.2033   12.3773   -1.2584 H   0  0  0  0  0  0  0  0  0  0  0  0
  1  2  1  0
  1 34  1  0
  1 35  1  0
  1 36  1  0
  2  3  1  0
  2 37  1  0
  2 38  1  0
  3  4  1  0
  3  5  1  0
  4 39  1  0
  4 40  1  0
  4 41  1  0
  5  6  2  0
  5  7  1  0
  7  8  1  0
  7 42  1  0
  7 43  1  0
  8  9  1  0
  8 44  1  0
  8 45  1  0
  9 10  1  0
  9 17  1  0
 10 11  1  0
 10 46  1  0
 10 47  1  0
 11 12  1  1
 11 13  1  0
 11 16  1  0
 13 14  1  0
 13 48  1  0
 13 49  1  0
 14 15  1  0
 14 50  1  0
 14 51  1  0
 15 16  1  0
 15 52  1  0
 15 53  1  0
 17 18  2  0
 17 19  1  0
 19 20  1  0
 19 33  2  0
 20 21  2  0
 20 54  1  0
 21 22  1  0
 21 32  1  0
 22 23  2  0
 22 29  1  0
 23 24  1  0
 23 55  1  0
 24 25  1  0
 24 27  2  0
 25 26  1  0
 26 56  1  0
 26 57  1  0
 26 58  1  0
 27 28  1  0
 27 59  1  0
 28 29  2  0
 28 60  1  0
 29 30  1  0
 30 31  1  0
 31 61  1  0
 31 62  1  0
 31 63  1  0
 32 33  1  0
M  END

