
     RDKit          3D

 49 50  0  0  0  0  0  0  0  0999 V2000
    2.4694   -2.0572   -0.8994 C   0  0  0  0  0  0  0  0  0  0  0  0
    3.3921   -1.2455   -0.2225 O   0  0  0  0  0  0  0  0  0  0  0  0
    4.3426   -1.9591    0.5206 C   0  0  0  0  0  0  0  0  0  0  0  0
    5.2632   -0.9514    1.1879 C   0  0  0  0  0  0  0  0  0  0  0  0
    6.2259   -1.6580    1.9381 O   0  0  0  0  0  0  0  0  0  0  0  0
    7.1545   -0.8481    2.6156 C   0  0  0  0  0  0  0  0  0  0  0  0
    8.1574   -1.6855    3.4091 C   0  0  0  0  0  0  0  0  0  0  0  0
    9.0429   -1.1468    4.0535 O   0  0  0  0  0  0  0  0  0  0  0  0
    7.9715   -3.0270    3.3303 N   0  0  0  0  0  0  0  0  0  0  0  0
    8.8178   -3.9744    4.0502 C   0  0  1  0  0  0  0  0  0  0  0  0
    8.0896   -5.3158    4.2219 C   0  0  0  0  0  0  0  0  0  0  0  0
    7.9821   -6.1014    2.9094 C   0  0  0  0  0  0  0  0  0  0  0  0
    9.2966   -6.2578    2.2909 N   0  0  0  0  0  0  0  0  0  0  0  0
    9.5870   -7.4633    1.6833 C   0  0  0  0  0  0  0  0  0  0  0  0
    8.7660   -8.3652    1.6085 O   0  0  0  0  0  0  0  0  0  0  0  0
   10.9833   -7.6714    1.1446 C   0  0  0  0  0  0  0  0  0  0  0  0
   12.1193   -7.4199    1.9325 C   0  0  0  0  0  0  0  0  0  0  0  0
   13.3899   -7.7302    1.4319 C   0  0  0  0  0  0  0  0  0  0  0  0
   14.5263   -7.5297    2.1473 O   0  0  0  0  0  0  0  0  0  0  0  0
   13.5294   -8.2698    0.1462 C   0  0  0  0  0  0  0  0  0  0  0  0
   12.3917   -8.5204   -0.6288 C   0  0  0  0  0  0  0  0  0  0  0  0
   12.4709   -9.0462   -1.8764 O   0  0  0  0  0  0  0  0  0  0  0  0
   11.1133   -8.2344   -0.1264 C   0  0  0  0  0  0  0  0  0  0  0  0
    9.9922   -4.9936    2.0407 C   0  0  0  0  0  0  0  0  0  0  0  0
   10.1662   -4.1990    3.3355 C   0  0  0  0  0  0  0  0  0  0  0  0
    1.7782   -1.3981   -1.4445 H   0  0  0  0  0  0  0  0  0  0  0  0
    1.8805   -2.6870   -0.2018 H   0  0  0  0  0  0  0  0  0  0  0  0
    2.9649   -2.7299   -1.6286 H   0  0  0  0  0  0  0  0  0  0  0  0
    4.9412   -2.6357   -0.1252 H   0  0  0  0  0  0  0  0  0  0  0  0
    3.8623   -2.5919    1.2965 H   0  0  0  0  0  0  0  0  0  0  0  0
    4.6683   -0.2786    1.8368 H   0  0  0  0  0  0  0  0  0  0  0  0
    5.7452   -0.3214    0.4144 H   0  0  0  0  0  0  0  0  0  0  0  0
    6.6570   -0.1625    3.3303 H   0  0  0  0  0  0  0  0  0  0  0  0
    7.7336   -0.2144    1.9149 H   0  0  0  0  0  0  0  0  0  0  0  0
    7.1927   -3.3450    2.7629 H   0  0  0  0  0  0  0  0  0  0  0  0
    9.0225   -3.5275    5.0358 H   0  0  0  0  0  0  0  0  0  0  0  0
    7.0840   -5.1512    4.6430 H   0  0  0  0  0  0  0  0  0  0  0  0
    8.6502   -5.9230    4.9511 H   0  0  0  0  0  0  0  0  0  0  0  0
    7.2966   -5.5906    2.2019 H   0  0  0  0  0  0  0  0  0  0  0  0
    7.5653   -7.1026    3.0719 H   0  0  0  0  0  0  0  0  0  0  0  0
   12.0141   -7.0138    2.9422 H   0  0  0  0  0  0  0  0  0  0  0  0
   14.3022   -7.1653    3.0135 H   0  0  0  0  0  0  0  0  0  0  0  0
   14.5327   -8.4959   -0.2243 H   0  0  0  0  0  0  0  0  0  0  0  0
   13.3958   -9.2144   -2.0996 H   0  0  0  0  0  0  0  0  0  0  0  0
   10.2335   -8.4669   -0.7265 H   0  0  0  0  0  0  0  0  0  0  0  0
    9.3976   -4.3929    1.3236 H   0  0  0  0  0  0  0  0  0  0  0  0
   10.9592   -5.1901    1.5649 H   0  0  0  0  0  0  0  0  0  0  0  0
   10.6337   -3.2239    3.1316 H   0  0  0  0  0  0  0  0  0  0  0  0
   10.8378   -4.7489    4.0172 H   0  0  0  0  0  0  0  0  0  0  0  0
  1  2  1  0
  1 26  1  0
  1 27  1  0
  1 28  1  0
  2  3  1  0
  3  4  1  0
  3 29  1  0
  3 30  1  0
  4  5  1  0
  4 31  1  0
  4 32  1  0
  5  6  1  0
  6  7  1  0
  6 33  1  0
  6 34  1  0
  7  8  2  0
  7  9  1  0
  9 10  1  0
  9 35  1  0
 10 11  1  0
 10 25  1  0
 10 36  1  1
 11 12  1  0
 11 37  1  0
 11 38  1  0
 12 13  1  0
 12 39  1  0
 12 40  1  0
 13 14  1  0
 13 24  1  0
 14 15  2  0
 14 16  1  0
 16 17  2  0
 16 23  1  0
 17 18  1  0
 17 41  1  0
 18 19  1  0
 18 20  2  0
 19 42  1  0
 20 21  1  0
 20 43  1  0
 21 22  1  0
 21 23  2  0
 22 44  1  0
 23 45  1  0
 24 25  1  0
 24 46  1  0
 24 47  1  0
 25 48  1  0
 25 49  1  0
M  END

