
     RDKit          3D

 50 51  0  0  0  0  0  0  0  0999 V2000
    2.0743    0.3414    0.8319 C   0  0  0  0  0  0  0  0  0  0  0  0
    3.1097   -0.1378   -0.1965 C   0  0  1  0  0  0  0  0  0  0  0  0
    4.5208   -0.1307    0.4076 C   0  0  0  0  0  0  0  0  0  0  0  0
    2.7515   -1.4967   -0.8665 C   0  0  1  0  0  0  0  0  0  0  0  0
    2.6459   -2.6618    0.1336 C   0  0  0  0  0  0  0  0  0  0  0  0
    2.5269   -4.0542   -0.4942 C   0  0  0  0  0  0  0  0  0  0  0  0
    1.3421   -4.2637   -1.4522 C   0  0  0  0  0  0  0  0  0  0  0  0
    1.5315   -3.7040   -2.7904 N   0  0  0  0  0  0  0  0  0  0  0  0
    1.7980   -4.4232   -3.9278 C   0  0  0  0  0  0  0  0  0  0  0  0
    1.9678   -3.8440   -4.9958 O   0  0  0  0  0  0  0  0  0  0  0  0
    1.8638   -5.9883   -3.8769 C   0  0  1  0  0  0  0  0  0  0  0  0
    3.0112   -6.4245   -2.9764 C   0  0  0  0  0  0  0  0  0  0  0  0
    4.2334   -5.8659   -3.2393 N   0  0  0  0  0  0  0  0  0  0  0  0
    2.8037   -7.2677   -2.0238 N   0  0  0  0  0  0  0  0  0  0  0  0
    4.0163   -7.5467   -1.3505 O   0  0  0  0  0  0  0  0  0  0  0  0
    0.4652   -6.6019   -3.5043 C   0  0  0  0  0  0  0  0  0  0  0  0
    0.0407   -7.4826   -4.6954 C   0  0  0  0  0  0  0  0  0  0  0  0
    0.7554   -6.8553   -5.8955 C   0  0  0  0  0  0  0  0  0  0  0  0
    2.1358   -6.5244   -5.3242 C   0  0  0  0  0  0  0  0  0  0  0  0
    1.4429   -2.2467   -2.9934 C   0  0  0  0  0  0  0  0  0  0  0  0
    1.4764   -1.3832   -1.7331 C   0  0  0  0  0  0  0  0  0  0  0  0
    2.3222    1.3546    1.1879 H   0  0  0  0  0  0  0  0  0  0  0  0
    2.0447   -0.3150    1.7170 H   0  0  0  0  0  0  0  0  0  0  0  0
    1.0574    0.3819    0.4105 H   0  0  0  0  0  0  0  0  0  0  0  0
    3.1155    0.6017   -1.0193 H   0  0  0  0  0  0  0  0  0  0  0  0
    4.5982   -0.7903    1.2875 H   0  0  0  0  0  0  0  0  0  0  0  0
    4.7983    0.8833    0.7389 H   0  0  0  0  0  0  0  0  0  0  0  0
    5.2757   -0.4604   -0.3251 H   0  0  0  0  0  0  0  0  0  0  0  0
    3.5903   -1.7218   -1.5528 H   0  0  0  0  0  0  0  0  0  0  0  0
    1.7715   -2.4916    0.7881 H   0  0  0  0  0  0  0  0  0  0  0  0
    3.5252   -2.6624    0.7985 H   0  0  0  0  0  0  0  0  0  0  0  0
    2.4293   -4.7959    0.3170 H   0  0  0  0  0  0  0  0  0  0  0  0
    3.4530   -4.3164   -1.0316 H   0  0  0  0  0  0  0  0  0  0  0  0
    0.4195   -3.8420   -1.0157 H   0  0  0  0  0  0  0  0  0  0  0  0
    1.1684   -5.3371   -1.5470 H   0  0  0  0  0  0  0  0  0  0  0  0
    4.3789   -5.3929   -4.1211 H   0  0  0  0  0  0  0  0  0  0  0  0
    5.0349   -6.2907   -2.7882 H   0  0  0  0  0  0  0  0  0  0  0  0
    3.7467   -8.2002   -0.6950 H   0  0  0  0  0  0  0  0  0  0  0  0
   -0.2662   -5.7912   -3.3628 H   0  0  0  0  0  0  0  0  0  0  0  0
    0.5208   -7.1703   -2.5679 H   0  0  0  0  0  0  0  0  0  0  0  0
   -1.0539   -7.5346   -4.8085 H   0  0  0  0  0  0  0  0  0  0  0  0
    0.4025   -8.5146   -4.5480 H   0  0  0  0  0  0  0  0  0  0  0  0
    0.2502   -5.9247   -6.2045 H   0  0  0  0  0  0  0  0  0  0  0  0
    0.8036   -7.5165   -6.7755 H   0  0  0  0  0  0  0  0  0  0  0  0
    2.6871   -5.7943   -5.9293 H   0  0  0  0  0  0  0  0  0  0  0  0
    2.7300   -7.4499   -5.2491 H   0  0  0  0  0  0  0  0  0  0  0  0
    0.5220   -2.0224   -3.5626 H   0  0  0  0  0  0  0  0  0  0  0  0
    2.2698   -1.9564   -3.6593 H   0  0  0  0  0  0  0  0  0  0  0  0
    0.5789   -1.5557   -1.1150 H   0  0  0  0  0  0  0  0  0  0  0  0
    1.3804   -0.3465   -2.0989 H   0  0  0  0  0  0  0  0  0  0  0  0
  1  2  1  0
  1 22  1  0
  1 23  1  0
  1 24  1  0
  2  3  1  0
  2  4  1  0
  2 25  1  6
  3 26  1  0
  3 27  1  0
  3 28  1  0
  4  5  1  0
  4 21  1  0
  4 29  1  6
  5  6  1  0
  5 30  1  0
  5 31  1  0
  6  7  1  0
  6 32  1  0
  6 33  1  0
  7  8  1  0
  7 34  1  0
  7 35  1  0
  8  9  1  0
  8 20  1  0
  9 10  2  0
 11  9  1  6
 11 12  1  0
 11 16  1  0
 11 19  1  0
 12 13  1  0
 12 14  2  0
 13 36  1  0
 13 37  1  0
 14 15  1  0
 15 38  1  0
 16 17  1  0
 16 39  1  0
 16 40  1  0
 17 18  1  0
 17 41  1  0
 17 42  1  0
 18 19  1  0
 18 43  1  0
 18 44  1  0
 19 45  1  0
 19 46  1  0
 20 21  1  0
 20 47  1  0
 20 48  1  0
 21 49  1  0
 21 50  1  0
M  END

