
     RDKit          3D

 78 82  0  0  0  0  0  0  0  0999 V2000
    0.6365    1.5573   -0.5948 C   0  0  0  0  0  0  0  0  0  0  0  0
    1.9077    1.0656   -0.2332 O   0  0  0  0  0  0  0  0  0  0  0  0
    2.4884    1.5014    0.9154 C   0  0  0  0  0  0  0  0  0  0  0  0
    1.8870    2.3918    1.8082 C   0  0  0  0  0  0  0  0  0  0  0  0
    2.5745    2.8194    2.9510 C   0  0  0  0  0  0  0  0  0  0  0  0
    3.8628    2.3513    3.2268 C   0  0  0  0  0  0  0  0  0  0  0  0
    4.4877    1.4587    2.3100 C   0  0  0  0  0  0  0  0  0  0  0  0
    5.7699    1.1294    2.5963 O   0  0  0  0  0  0  0  0  0  0  0  0
    6.4104   -0.0477    2.1396 C   0  0  0  0  0  0  0  0  0  0  0  0
    3.8008    1.0296    1.1556 C   0  0  0  0  0  0  0  0  0  0  0  0
    4.4402    0.2500    0.2281 O   0  0  0  0  0  0  0  0  0  0  0  0
    3.9294   -1.0541   -0.0078 C   0  0  0  0  0  0  0  0  0  0  0  0
    4.5910    2.7100    4.4901 C   0  0  0  0  0  0  0  0  0  0  0  0
    4.9201    1.6948    5.3424 C   0  0  0  0  0  0  0  0  0  0  0  0
    5.8000    2.1598    6.4159 C   0  0  0  0  0  0  0  0  0  0  0  0
    7.1305    2.3147    6.0978 C   0  0  0  0  0  0  0  0  0  0  0  0
    8.0141    1.3373    5.7125 N   0  0  0  0  0  0  0  0  0  0  0  0
    8.3431    0.1894    6.5506 C   0  0  1  0  0  0  0  0  0  0  0  0
    7.4516   -0.0357    7.1555 H   0  0  0  0  0  0  0  0  0  0  0  0
    8.7069   -1.0462    5.7257 C   0  0  0  0  0  0  0  0  0  0  0  0
    9.4682    0.4831    7.5871 C   0  0  0  0  0  0  0  0  0  0  0  0
    9.8446   -0.4138    8.3230 O   0  0  0  0  0  0  0  0  0  0  0  0
    9.9548    1.7614    7.5915 N   0  0  0  0  0  0  0  0  0  0  0  0
   10.9543    2.3204    8.4156 C   0  0  0  0  0  0  0  0  0  0  0  0
   11.6309    1.6065    9.4187 C   0  0  0  0  0  0  0  0  0  0  0  0
   12.6113    2.2508   10.1788 C   0  0  0  0  0  0  0  0  0  0  0  0
   12.9212    3.5916    9.9651 C   0  0  0  0  0  0  0  0  0  0  0  0
   12.2384    4.3103    8.9654 C   0  0  0  0  0  0  0  0  0  0  0  0
   11.2677    3.6743    8.1922 C   0  0  0  0  0  0  0  0  0  0  0  0
   12.5491    5.6705    8.8086 N   0  0  0  0  0  0  0  0  0  0  0  0
   13.6511    6.2648    9.3675 C   0  0  0  0  0  0  0  0  0  0  0  0
   13.9326    7.4358    9.2149 O   0  0  0  0  0  0  0  0  0  0  0  0
   14.5384    5.2978   10.1506 C   0  0  0  0  0  0  0  0  0  0  0  0
   13.8372    4.2257   10.7579 O   0  0  0  0  0  0  0  0  0  0  0  0
    7.4979    3.7051    5.6860 C   0  0  0  0  0  0  0  0  0  0  0  0
    8.6795    4.0528    5.5757 O   0  0  0  0  0  0  0  0  0  0  0  0
    6.3536    4.4897    5.1905 C   0  0  0  0  0  0  0  0  0  0  0  0
    5.1019    4.1118    4.7263 C   0  0  0  0  0  0  0  0  0  0  0  0
    4.0972    5.2942    4.5663 C   0  0  1  0  0  0  0  0  0  0  0  0
    3.7022    5.3710    5.5971 H   0  0  0  0  0  0  0  0  0  0  0  0
    4.7413    6.5812    4.3144 N   0  0  0  0  0  0  0  0  0  0  0  0
    5.3479    6.8964    3.1226 C   0  0  0  0  0  0  0  0  0  0  0  0
    5.9828    8.2771    3.0619 C   0  0  0  0  0  0  0  0  0  0  0  0
    5.4026    6.1132    2.1927 O   0  0  0  0  0  0  0  0  0  0  0  0
    2.8443    5.1811    3.6704 C   0  0  0  0  0  0  0  0  0  0  0  0
    2.0031    3.9042    3.8245 C   0  0  0  0  0  0  0  0  0  0  0  0
    0.3839    1.0910   -1.5566 H   0  0  0  0  0  0  0  0  0  0  0  0
    0.6436    2.6546   -0.7197 H   0  0  0  0  0  0  0  0  0  0  0  0
   -0.1367    1.2884    0.1473 H   0  0  0  0  0  0  0  0  0  0  0  0
    0.8890    2.7830    1.6126 H   0  0  0  0  0  0  0  0  0  0  0  0
    7.3059   -0.1546    2.7692 H   0  0  0  0  0  0  0  0  0  0  0  0
    6.7060    0.0222    1.0837 H   0  0  0  0  0  0  0  0  0  0  0  0
    5.7748   -0.9397    2.2762 H   0  0  0  0  0  0  0  0  0  0  0  0
    4.6249   -1.5420   -0.7058 H   0  0  0  0  0  0  0  0  0  0  0  0
    2.9260   -1.0238   -0.4575 H   0  0  0  0  0  0  0  0  0  0  0  0
    3.8878   -1.6452    0.9263 H   0  0  0  0  0  0  0  0  0  0  0  0
    4.6514    0.6599    5.1163 H   0  0  0  0  0  0  0  0  0  0  0  0
    5.3986    3.0598    6.8873 H   0  0  0  0  0  0  0  0  0  0  0  0
    8.7981    1.6990    5.1717 H   0  0  0  0  0  0  0  0  0  0  0  0
    7.8526   -1.3620    5.1092 H   0  0  0  0  0  0  0  0  0  0  0  0
    8.9940   -1.8652    6.3983 H   0  0  0  0  0  0  0  0  0  0  0  0
    9.5597   -0.8372    5.0587 H   0  0  0  0  0  0  0  0  0  0  0  0
    9.5548    2.4201    6.9253 H   0  0  0  0  0  0  0  0  0  0  0  0
   11.3877    0.5607    9.5880 H   0  0  0  0  0  0  0  0  0  0  0  0
   13.1473    1.7147   10.9648 H   0  0  0  0  0  0  0  0  0  0  0  0
   10.7388    4.2325    7.4142 H   0  0  0  0  0  0  0  0  0  0  0  0
   11.9685    6.2569    8.2162 H   0  0  0  0  0  0  0  0  0  0  0  0
   15.0376    5.8632   10.9475 H   0  0  0  0  0  0  0  0  0  0  0  0
   15.3167    4.9158    9.4580 H   0  0  0  0  0  0  0  0  0  0  0  0
    6.5861    5.5540    5.1185 H   0  0  0  0  0  0  0  0  0  0  0  0
    4.7278    7.2755    5.0499 H   0  0  0  0  0  0  0  0  0  0  0  0
    5.6308    8.9648    3.8453 H   0  0  0  0  0  0  0  0  0  0  0  0
    5.7814    8.7123    2.0734 H   0  0  0  0  0  0  0  0  0  0  0  0
    7.0753    8.1662    3.1545 H   0  0  0  0  0  0  0  0  0  0  0  0
    3.1435    5.2955    2.6194 H   0  0  0  0  0  0  0  0  0  0  0  0
    2.2311    6.0604    3.9291 H   0  0  0  0  0  0  0  0  0  0  0  0
    0.9661    4.1173    3.5235 H   0  0  0  0  0  0  0  0  0  0  0  0
    1.9650    3.5890    4.8827 H   0  0  0  0  0  0  0  0  0  0  0  0
  1  2  1  0
  1 47  1  0
  1 48  1  0
  1 49  1  0
  2  3  1  0
  3  4  2  0
  3 10  1  0
  4  5  1  0
  4 50  1  0
  5  6  2  0
  5 46  1  0
  6  7  1  0
  6 13  1  0
  7  8  1  0
  7 10  2  0
  8  9  1  0
  9 51  1  0
  9 52  1  0
  9 53  1  0
 10 11  1  0
 11 12  1  0
 12 54  1  0
 12 55  1  0
 12 56  1  0
 13 14  2  0
 13 38  1  0
 14 15  1  0
 14 57  1  0
 15 16  2  0
 15 58  1  0
 16 17  1  0
 16 35  1  0
 17 18  1  0
 17 59  1  0
 18 19  1  1
 18 20  1  0
 18 21  1  0
 20 60  1  0
 20 61  1  0
 20 62  1  0
 21 22  2  0
 21 23  1  0
 23 24  1  0
 23 63  1  0
 24 25  2  0
 24 29  1  0
 25 26  1  0
 25 64  1  0
 26 27  2  0
 26 65  1  0
 27 28  1  0
 27 34  1  0
 28 29  2  0
 28 30  1  0
 29 66  1  0
 30 31  1  0
 30 67  1  0
 31 32  2  0
 31 33  1  0
 33 34  1  0
 33 68  1  0
 33 69  1  0
 35 36  2  0
 35 37  1  0
 37 38  2  0
 37 70  1  0
 38 39  1  0
 39 40  1  1
 39 41  1  0
 39 45  1  0
 41 42  1  0
 41 71  1  0
 42 43  1  0
 42 44  2  0
 43 72  1  0
 43 73  1  0
 43 74  1  0
 45 46  1  0
 45 75  1  0
 45 76  1  0
 46 77  1  0
 46 78  1  0
M  END

