
     RDKit          3D

 44 46  0  0  0  0  0  0  0  0999 V2000
    2.8772   -0.4556    2.5706 C   0  0  0  0  0  0  0  0  0  0  0  0
    2.5017    0.0011    1.1536 C   0  0  1  0  0  0  0  0  0  0  0  0
    0.9810    0.1562    1.0193 C   0  0  0  0  0  0  0  0  0  0  0  0
    3.2074    1.3040    0.7360 C   0  0  0  0  0  0  0  0  0  0  0  0
    4.7432    1.2381    0.6592 C   0  0  1  0  0  0  0  0  0  0  0  0
    5.2800    0.2244   -0.2554 N   0  0  0  0  0  0  0  0  0  0  0  0
    5.3000    2.6253    0.2548 C   0  0  0  0  0  0  0  0  0  0  0  0
    4.5587    3.4494   -0.2654 O   0  0  0  0  0  0  0  0  0  0  0  0
    6.6242    2.9050    0.4972 N   0  0  0  0  0  0  0  0  0  0  0  0
    7.0755    4.2843    0.3177 C   0  0  0  0  0  0  0  0  0  0  0  0
    7.1997    4.9853    1.6819 C   0  0  0  0  0  0  0  0  0  0  0  0
    7.8791    4.0599    2.6532 C   0  0  0  0  0  0  0  0  0  0  0  0
    8.5243    4.5581    4.1907 S   0  0  0  0  0  0  0  0  0  0  0  0
    9.0372    2.9435    4.5600 C   0  0  0  0  0  0  0  0  0  0  0  0
    8.7251    2.0717    3.5506 C   0  0  0  0  0  0  0  0  0  0  0  0
    8.0521    2.7080    2.4563 C   0  0  0  0  0  0  0  0  0  0  0  0
    7.5922    2.0297    1.1756 C   0  0  2  0  0  0  0  0  0  0  0  0
    8.7870    1.6717    0.2879 C   0  0  1  0  0  0  0  0  0  0  0  0
    9.4042    0.2971    0.3791 C   0  0  0  0  0  0  0  0  0  0  0  0
    8.6326    0.7006   -0.8514 C   0  0  0  0  0  0  0  0  0  0  0  0
    2.3403   -1.3778    2.8460 H   0  0  0  0  0  0  0  0  0  0  0  0
    2.6140    0.3164    3.3141 H   0  0  0  0  0  0  0  0  0  0  0  0
    3.9545   -0.6623    2.6775 H   0  0  0  0  0  0  0  0  0  0  0  0
    2.8104   -0.7942    0.4480 H   0  0  0  0  0  0  0  0  0  0  0  0
    0.6036    0.9382    1.7004 H   0  0  0  0  0  0  0  0  0  0  0  0
    0.4573   -0.7818    1.2659 H   0  0  0  0  0  0  0  0  0  0  0  0
    0.6950    0.4445   -0.0050 H   0  0  0  0  0  0  0  0  0  0  0  0
    2.9240    2.1094    1.4361 H   0  0  0  0  0  0  0  0  0  0  0  0
    2.8342    1.6312   -0.2480 H   0  0  0  0  0  0  0  0  0  0  0  0
    5.1307    1.0013    1.6640 H   0  0  0  0  0  0  0  0  0  0  0  0
    4.9260    0.3860   -1.2001 H   0  0  0  0  0  0  0  0  0  0  0  0
    4.9679   -0.7077    0.0160 H   0  0  0  0  0  0  0  0  0  0  0  0
    6.3489    4.7960   -0.3226 H   0  0  0  0  0  0  0  0  0  0  0  0
    8.0508    4.2795   -0.1946 H   0  0  0  0  0  0  0  0  0  0  0  0
    6.1934    5.2573    2.0483 H   0  0  0  0  0  0  0  0  0  0  0  0
    7.7583    5.9297    1.5685 H   0  0  0  0  0  0  0  0  0  0  0  0
    9.5401    2.7314    5.5024 H   0  0  0  0  0  0  0  0  0  0  0  0
    8.9640    1.0073    3.5826 H   0  0  0  0  0  0  0  0  0  0  0  0
    7.0835    1.0908    1.4212 H   0  0  0  0  0  0  0  0  0  0  0  0
    9.4940    2.4949    0.1421 H   0  0  0  0  0  0  0  0  0  0  0  0
    8.9400   -0.4305    1.0526 H   0  0  0  0  0  0  0  0  0  0  0  0
   10.4933    0.2158    0.3212 H   0  0  0  0  0  0  0  0  0  0  0  0
    7.6375    0.2685   -0.9853 H   0  0  0  0  0  0  0  0  0  0  0  0
    9.1882    0.8992   -1.7725 H   0  0  0  0  0  0  0  0  0  0  0  0
  1  2  1  0
  1 21  1  0
  1 22  1  0
  1 23  1  0
  2  3  1  0
  2  4  1  0
  2 24  1  6
  3 25  1  0
  3 26  1  0
  3 27  1  0
  4  5  1  0
  4 28  1  0
  4 29  1  0
  5  6  1  0
  5  7  1  0
  5 30  1  1
  6 31  1  0
  6 32  1  0
  7  8  2  0
  7  9  1  0
  9 10  1  0
  9 17  1  0
 10 11  1  0
 10 33  1  0
 10 34  1  0
 11 12  1  0
 11 35  1  0
 11 36  1  0
 12 13  1  0
 12 16  2  0
 13 14  1  0
 14 15  2  0
 14 37  1  0
 15 16  1  0
 15 38  1  0
 16 17  1  0
 17 18  1  0
 17 39  1  1
 18 19  1  0
 18 20  1  0
 18 40  1  6
 19 20  1  0
 19 41  1  0
 19 42  1  0
 20 43  1  0
 20 44  1  0
M  END

