
     RDKit          3D

 26 27  0  0  0  0  0  0  0  0999 V2000
    2.8781    1.0663   -1.6484 C   0  0  0  0  0  0  0  0  0  0  0  0
    2.4802    0.3541   -0.3577 C   0  0  0  0  0  0  0  0  0  0  0  0
    3.1091    0.9971    0.9035 C   0  0  1  0  0  0  0  0  0  0  0  0
    2.5835    0.3687    2.1355 C   0  0  0  0  0  0  0  0  0  0  0  0
    2.1451   -0.1357    3.0812 N   0  0  0  0  0  0  0  0  0  0  0  0
    4.5641    1.0188    0.8948 N   0  0  0  0  0  0  0  0  0  0  0  0
    5.3251    2.1690    0.7306 C   0  0  0  0  0  0  0  0  0  0  0  0
    6.6575    1.8552    0.6793 C   0  0  0  0  0  0  0  0  0  0  0  0
    6.7491    0.4306    0.8217 C   0  0  0  0  0  0  0  0  0  0  0  0
    7.8170   -0.4860    0.8567 C   0  0  0  0  0  0  0  0  0  0  0  0
    9.4566    0.1012    0.6903 Cl  0  0  0  0  0  0  0  0  0  0  0  0
    7.5689   -1.8427    1.0245 C   0  0  0  0  0  0  0  0  0  0  0  0
    6.2447   -2.3067    1.1666 C   0  0  0  0  0  0  0  0  0  0  0  0
    5.1563   -1.4393    1.1383 C   0  0  0  0  0  0  0  0  0  0  0  0
    5.4217   -0.0725    0.9580 C   0  0  0  0  0  0  0  0  0  0  0  0
    2.3951    0.5880   -2.5138 H   0  0  0  0  0  0  0  0  0  0  0  0
    3.9659    1.0318   -1.8114 H   0  0  0  0  0  0  0  0  0  0  0  0
    2.5705    2.1251   -1.6382 H   0  0  0  0  0  0  0  0  0  0  0  0
    2.7690   -0.7075   -0.4003 H   0  0  0  0  0  0  0  0  0  0  0  0
    1.3859    0.3750   -0.2261 H   0  0  0  0  0  0  0  0  0  0  0  0
    2.7902    2.0520    0.9390 H   0  0  0  0  0  0  0  0  0  0  0  0
    4.8355    3.1391    0.6637 H   0  0  0  0  0  0  0  0  0  0  0  0
    7.4849    2.5499    0.5611 H   0  0  0  0  0  0  0  0  0  0  0  0
    8.4053   -2.5425    1.0513 H   0  0  0  0  0  0  0  0  0  0  0  0
    6.0729   -3.3761    1.3087 H   0  0  0  0  0  0  0  0  0  0  0  0
    4.1427   -1.8183    1.2727 H   0  0  0  0  0  0  0  0  0  0  0  0
  1  2  1  0
  1 16  1  0
  1 17  1  0
  1 18  1  0
  2  3  1  0
  2 19  1  0
  2 20  1  0
  3  4  1  0
  3  6  1  0
  3 21  1  1
  4  5  3  0
  6  7  1  0
  6 15  1  0
  7  8  2  0
  7 22  1  0
  8  9  1  0
  8 23  1  0
  9 10  1  0
  9 15  2  0
 10 11  1  0
 10 12  2  0
 12 13  1  0
 12 24  1  0
 13 14  2  0
 13 25  1  0
 14 15  1  0
 14 26  1  0
M  END

