
     RDKit          3D

 33 35  0  0  0  0  0  0  0  0999 V2000
    4.8770   -2.3912   -0.7422 C   0  0  0  0  0  0  0  0  0  0  0  0
    4.3083   -1.1601   -0.0796 C   0  0  0  0  0  0  0  0  0  0  0  0
    5.1253   -0.0643    0.2170 C   0  0  0  0  0  0  0  0  0  0  0  0
    4.6323    1.0901    0.8295 C   0  0  0  0  0  0  0  0  0  0  0  0
    3.2762    1.1392    1.1515 C   0  0  0  0  0  0  0  0  0  0  0  0
    2.6256    2.5732    1.9208 Cl  0  0  0  0  0  0  0  0  0  0  0  0
    2.4191    0.0738    0.8771 C   0  0  0  0  0  0  0  0  0  0  0  0
    2.9325   -1.0808    0.2599 C   0  0  0  0  0  0  0  0  0  0  0  0
    2.1193   -2.1830   -0.0403 N   0  0  0  0  0  0  0  0  0  0  0  0
    0.7733   -2.3624    0.1840 C   0  0  0  0  0  0  0  0  0  0  0  0
    0.0243   -1.5539    0.7066 O   0  0  0  0  0  0  0  0  0  0  0  0
    0.2803   -3.6904   -0.2853 C   0  0  0  0  0  0  0  0  0  0  0  0
   -1.0471   -4.1767   -0.1989 C   0  0  0  0  0  0  0  0  0  0  0  0
   -1.0013   -5.4428   -0.7625 C   0  0  0  0  0  0  0  0  0  0  0  0
   -2.0702   -6.4443   -0.9601 C   0  0  1  0  0  0  0  0  0  0  0  0
   -2.1124   -7.3368   -2.1862 C   0  0  0  0  0  0  0  0  0  0  0  0
   -1.8029   -7.9329   -0.8437 C   0  0  0  0  0  0  0  0  0  0  0  0
    0.3037   -5.6259   -1.1365 N   0  0  0  0  0  0  0  0  0  0  0  0
    0.7089   -6.4402   -1.5829 H   0  0  0  0  0  0  0  0  0  0  0  0
    1.0906   -4.5812   -0.8574 N   0  0  0  0  0  0  0  0  0  0  0  0
    5.9534   -2.2732   -0.9301 H   0  0  0  0  0  0  0  0  0  0  0  0
    4.3958   -2.5994   -1.7145 H   0  0  0  0  0  0  0  0  0  0  0  0
    4.7504   -3.2943   -0.1188 H   0  0  0  0  0  0  0  0  0  0  0  0
    6.1868   -0.1156   -0.0407 H   0  0  0  0  0  0  0  0  0  0  0  0
    5.2849    1.9348    1.0532 H   0  0  0  0  0  0  0  0  0  0  0  0
    1.3640    0.1219    1.1322 H   0  0  0  0  0  0  0  0  0  0  0  0
    2.5657   -2.9781   -0.4879 H   0  0  0  0  0  0  0  0  0  0  0  0
   -1.9066   -3.6613    0.2200 H   0  0  0  0  0  0  0  0  0  0  0  0
   -3.0357   -6.0975   -0.5836 H   0  0  0  0  0  0  0  0  0  0  0  0
   -1.3024   -7.2372   -2.9156 H   0  0  0  0  0  0  0  0  0  0  0  0
   -3.0887   -7.5345   -2.6370 H   0  0  0  0  0  0  0  0  0  0  0  0
   -0.7770   -8.2517   -0.6341 H   0  0  0  0  0  0  0  0  0  0  0  0
   -2.5629   -8.5477   -0.3539 H   0  0  0  0  0  0  0  0  0  0  0  0
  1  2  1  0
  1 21  1  0
  1 22  1  0
  1 23  1  0
  2  3  2  0
  2  8  1  0
  3  4  1  0
  3 24  1  0
  4  5  2  0
  4 25  1  0
  5  6  1  0
  5  7  1  0
  7  8  2  0
  7 26  1  0
  8  9  1  0
  9 10  1  0
  9 27  1  0
 10 11  2  0
 10 12  1  0
 12 13  1  0
 12 20  2  0
 13 14  2  0
 13 28  1  0
 14 15  1  0
 14 18  1  0
 15 16  1  0
 15 17  1  0
 15 29  1  1
 16 17  1  0
 16 30  1  0
 16 31  1  0
 17 32  1  0
 17 33  1  0
 18 19  1  0
 18 20  1  0
M  END

