
     RDKit          3D

 32 33  0  0  0  0  0  0  0  0999 V2000
    6.4092    4.8694   -3.6306 N   0  0  0  0  0  0  0  0  0  0  0  0
    6.4890    3.6332   -3.0595 C   0  0  0  0  0  0  0  0  0  0  0  0
    5.3341    2.8296   -2.8891 C   0  0  0  0  0  0  0  0  0  0  0  0
    5.4097    1.5628   -2.3373 C   0  0  0  0  0  0  0  0  0  0  0  0
    6.6385    1.0149   -1.9165 C   0  0  0  0  0  0  0  0  0  0  0  0
    6.6315   -0.3664   -1.3356 C   0  0  0  0  0  0  0  0  0  0  0  0
    5.5889   -1.0008   -1.3020 O   0  0  0  0  0  0  0  0  0  0  0  0
    7.9349   -0.9490   -0.7780 C   0  0  1  0  0  0  0  0  0  0  0  0
    8.2534   -0.3602    0.6236 C   0  0  0  0  0  0  0  0  0  0  0  0
    7.3607   -0.9423    1.7266 C   0  0  0  0  0  0  0  0  0  0  0  0
    7.4531   -2.4723    1.7682 C   0  0  0  0  0  0  0  0  0  0  0  0
    7.0913   -3.0867    0.4108 C   0  0  0  0  0  0  0  0  0  0  0  0
    7.9300   -2.4923   -0.7310 C   0  0  0  0  0  0  0  0  0  0  0  0
    7.7933    1.8007   -2.0773 C   0  0  0  0  0  0  0  0  0  0  0  0
    7.7180    3.0731   -2.6325 C   0  0  0  0  0  0  0  0  0  0  0  0
    9.3252    4.1024   -2.8240 Br  0  0  0  0  0  0  0  0  0  0  0  0
    5.5029    5.2939   -3.7690 H   0  0  0  0  0  0  0  0  0  0  0  0
    7.2159    5.4798   -3.6043 H   0  0  0  0  0  0  0  0  0  0  0  0
    4.3685    3.2315   -3.2091 H   0  0  0  0  0  0  0  0  0  0  0  0
    4.5121    0.9538   -2.2155 H   0  0  0  0  0  0  0  0  0  0  0  0
    8.7435   -0.6375   -1.4595 H   0  0  0  0  0  0  0  0  0  0  0  0
    8.1763    0.7391    0.6063 H   0  0  0  0  0  0  0  0  0  0  0  0
    9.3085   -0.5939    0.8548 H   0  0  0  0  0  0  0  0  0  0  0  0
    6.3116   -0.6434    1.5532 H   0  0  0  0  0  0  0  0  0  0  0  0
    7.6507   -0.5106    2.6997 H   0  0  0  0  0  0  0  0  0  0  0  0
    6.7948   -2.8745    2.5567 H   0  0  0  0  0  0  0  0  0  0  0  0
    8.4842   -2.7634    2.0465 H   0  0  0  0  0  0  0  0  0  0  0  0
    6.0267   -2.9064    0.1990 H   0  0  0  0  0  0  0  0  0  0  0  0
    7.2347   -4.1806    0.4381 H   0  0  0  0  0  0  0  0  0  0  0  0
    7.5839   -2.8901   -1.6985 H   0  0  0  0  0  0  0  0  0  0  0  0
    8.9792   -2.8197   -0.6133 H   0  0  0  0  0  0  0  0  0  0  0  0
    8.7718    1.4301   -1.7725 H   0  0  0  0  0  0  0  0  0  0  0  0
  1  2  1  0
  1 17  1  0
  1 18  1  0
  2  3  2  0
  2 15  1  0
  3  4  1  0
  3 19  1  0
  4  5  2  0
  4 20  1  0
  5  6  1  0
  5 14  1  0
  6  7  2  0
  6  8  1  0
  8  9  1  0
  8 13  1  0
  8 21  1  6
  9 10  1  0
  9 22  1  0
  9 23  1  0
 10 11  1  0
 10 24  1  0
 10 25  1  0
 11 12  1  0
 11 26  1  0
 11 27  1  0
 12 13  1  0
 12 28  1  0
 12 29  1  0
 13 30  1  0
 13 31  1  0
 14 15  2  0
 14 32  1  0
 15 16  1  0
M  END

