
     RDKit          3D

 43 44  0  0  0  0  0  0  0  0999 V2000
    2.7661    0.6681    1.0432 N   0  0  0  0  0  0  0  0  0  0  0  0
    2.3417    0.1489   -0.2545 C   0  0  0  0  0  0  0  0  0  0  0  0
    2.9628    0.9374   -1.4217 C   0  0  1  0  0  0  0  0  0  0  0  0
    2.4055    2.2875   -1.4738 N   0  0  0  0  0  0  0  0  0  0  0  0
    1.3617    2.6339   -2.2680 C   0  0  0  0  0  0  0  0  0  0  0  0
    0.7608    1.8603   -2.9979 O   0  0  0  0  0  0  0  0  0  0  0  0
    1.0186    4.1437   -2.2468 C   0  0  1  0  0  0  0  0  0  0  0  0
   -0.4877    4.3728   -2.4405 C   0  0  0  0  0  0  0  0  0  0  0  0
   -1.2115    4.1530   -1.2456 O   0  0  0  0  0  0  0  0  0  0  0  0
   -0.7697    4.9824   -0.1932 C   0  0  0  0  0  0  0  0  0  0  0  0
    0.6982    4.7018    0.1207 C   0  0  0  0  0  0  0  0  0  0  0  0
    1.5622    4.8179   -1.0593 N   0  0  0  0  0  0  0  0  0  0  0  0
    4.5115    1.0172   -1.3975 C   0  0  1  0  0  0  0  0  0  0  0  0
    5.2002   -0.3487   -1.1987 C   0  0  0  0  0  0  0  0  0  0  0  0
    5.0879   -1.2625   -2.4273 C   0  0  0  0  0  0  0  0  0  0  0  0
    5.6396   -0.5741   -3.6837 C   0  0  0  0  0  0  0  0  0  0  0  0
    4.9843    0.7945   -3.9144 C   0  0  0  0  0  0  0  0  0  0  0  0
    5.0799    1.6885   -2.6680 C   0  0  0  0  0  0  0  0  0  0  0  0
    2.3927    0.0911    1.7963 H   0  0  0  0  0  0  0  0  0  0  0  0
    2.3770    1.6009    1.1877 H   0  0  0  0  0  0  0  0  0  0  0  0
    1.2436    0.1533   -0.4112 H   0  0  0  0  0  0  0  0  0  0  0  0
    2.6578   -0.9039   -0.3271 H   0  0  0  0  0  0  0  0  0  0  0  0
    2.6160    0.4464   -2.3435 H   0  0  0  0  0  0  0  0  0  0  0  0
    2.8303    3.0530   -0.9544 H   0  0  0  0  0  0  0  0  0  0  0  0
    1.5379    4.5551   -3.1303 H   0  0  0  0  0  0  0  0  0  0  0  0
   -0.8717    3.6677   -3.1895 H   0  0  0  0  0  0  0  0  0  0  0  0
   -0.6550    5.4111   -2.7983 H   0  0  0  0  0  0  0  0  0  0  0  0
   -1.4097    4.7723    0.6787 H   0  0  0  0  0  0  0  0  0  0  0  0
   -0.9010    6.0543   -0.4621 H   0  0  0  0  0  0  0  0  0  0  0  0
    0.7765    3.6714    0.5104 H   0  0  0  0  0  0  0  0  0  0  0  0
    1.0722    5.3788    0.9062 H   0  0  0  0  0  0  0  0  0  0  0  0
    1.7415    5.7988   -1.2674 H   0  0  0  0  0  0  0  0  0  0  0  0
    4.7725    1.6385   -0.5232 H   0  0  0  0  0  0  0  0  0  0  0  0
    4.8196   -0.8447   -0.2934 H   0  0  0  0  0  0  0  0  0  0  0  0
    6.2709   -0.1562   -1.0042 H   0  0  0  0  0  0  0  0  0  0  0  0
    4.0325   -1.5439   -2.5967 H   0  0  0  0  0  0  0  0  0  0  0  0
    5.6275   -2.2072   -2.2431 H   0  0  0  0  0  0  0  0  0  0  0  0
    5.5042   -1.2188   -4.5686 H   0  0  0  0  0  0  0  0  0  0  0  0
    6.7308   -0.4360   -3.5647 H   0  0  0  0  0  0  0  0  0  0  0  0
    3.9249    0.6533   -4.1930 H   0  0  0  0  0  0  0  0  0  0  0  0
    5.4562    1.3019   -4.7730 H   0  0  0  0  0  0  0  0  0  0  0  0
    4.5749    2.6504   -2.8524 H   0  0  0  0  0  0  0  0  0  0  0  0
    6.1425    1.9288   -2.4822 H   0  0  0  0  0  0  0  0  0  0  0  0
  1  2  1  0
  1 19  1  0
  1 20  1  0
  2  3  1  0
  2 21  1  0
  2 22  1  0
  3  4  1  0
  3 13  1  0
  3 23  1  6
  4  5  1  0
  4 24  1  0
  5  6  2  0
  5  7  1  0
  7  8  1  0
  7 12  1  0
  7 25  1  6
  8  9  1  0
  8 26  1  0
  8 27  1  0
  9 10  1  0
 10 11  1  0
 10 28  1  0
 10 29  1  0
 11 12  1  0
 11 30  1  0
 11 31  1  0
 12 32  1  0
 13 14  1  0
 13 18  1  0
 13 33  1  1
 14 15  1  0
 14 34  1  0
 14 35  1  0
 15 16  1  0
 15 36  1  0
 15 37  1  0
 16 17  1  0
 16 38  1  0
 16 39  1  0
 17 18  1  0
 17 40  1  0
 17 41  1  0
 18 42  1  0
 18 43  1  0
M  END

