
     RDKit          3D

 68 70  0  0  0  0  0  0  0  0999 V2000
    3.4307   -1.2584    0.8125 C   0  0  0  0  0  0  0  0  0  0  0  0
    2.8601   -0.1758    0.0206 N   0  0  0  0  0  0  0  0  0  0  0  0
    3.0103    1.1056    0.7078 C   0  0  0  0  0  0  0  0  0  0  0  0
    2.0934    2.2207    0.1793 C   0  0  0  0  0  0  0  0  0  0  0  0
    0.6734    1.9103    0.1373 N   0  0  0  0  0  0  0  0  0  0  0  0
   -0.0227    1.7791    1.3769 C   0  0  0  0  0  0  0  0  0  0  0  0
   -1.8352    1.9116    1.0958 S   0  0  1  0  0  0  0  0  0  0  0  0
   -2.1262    1.0617   -0.0751 O   0  0  0  0  0  0  0  0  0  0  0  0
   -2.4792    1.6651    2.3949 O   0  0  0  0  0  0  0  0  0  0  0  0
   -2.1311    3.6224    0.6333 C   0  0  0  0  0  0  0  0  0  0  0  0
   -1.9391    4.0321   -0.6891 C   0  0  0  0  0  0  0  0  0  0  0  0
   -2.1749    5.3641   -1.0260 C   0  0  0  0  0  0  0  0  0  0  0  0
   -2.6117    6.2963   -0.0634 C   0  0  0  0  0  0  0  0  0  0  0  0
   -2.8648    7.7143   -0.4330 C   0  0  0  0  0  0  0  0  0  0  0  0
   -3.4270    8.0486   -1.6798 C   0  0  0  0  0  0  0  0  0  0  0  0
   -3.6661    9.3800   -2.0255 C   0  0  0  0  0  0  0  0  0  0  0  0
   -3.3455   10.4079   -1.1337 C   0  0  0  0  0  0  0  0  0  0  0  0
   -2.7854   10.0922    0.1078 C   0  0  0  0  0  0  0  0  0  0  0  0
   -2.5494    8.7606    0.4547 C   0  0  0  0  0  0  0  0  0  0  0  0
   -2.8089    5.8469    1.2574 C   0  0  0  0  0  0  0  0  0  0  0  0
   -2.5719    4.5189    1.6104 C   0  0  0  0  0  0  0  0  0  0  0  0
    3.3399   -0.1762   -1.3615 C   0  0  0  0  0  0  0  0  0  0  0  0
    2.5849   -1.1020   -2.3327 C   0  0  1  0  0  0  0  0  0  0  0  0
    2.8777   -2.4860   -2.1600 O   0  0  0  0  0  0  0  0  0  0  0  0
    1.0714   -0.8781   -2.3349 C   0  0  0  0  0  0  0  0  0  0  0  0
    0.4545   -1.6792   -3.3642 N   0  0  0  0  0  0  0  0  0  0  0  0
   -0.9168   -1.8182   -3.4931 C   0  0  0  0  0  0  0  0  0  0  0  0
   -1.4388   -2.7545   -4.4165 C   0  0  0  0  0  0  0  0  0  0  0  0
   -2.8087   -2.9056   -4.5814 C   0  0  0  0  0  0  0  0  0  0  0  0
   -3.7266   -2.1337   -3.8437 C   0  0  0  0  0  0  0  0  0  0  0  0
   -5.1984   -2.3283   -4.0234 C   0  0  0  0  0  0  0  0  0  0  0  0
   -5.7813   -3.4270   -4.3465 N   0  0  0  0  0  0  0  0  0  0  0  0
   -5.9710   -1.2070   -3.7706 N   0  0  0  0  0  0  0  0  0  0  0  0
   -3.2045   -1.2029   -2.9313 C   0  0  0  0  0  0  0  0  0  0  0  0
   -1.8302   -1.0427   -2.7492 C   0  0  0  0  0  0  0  0  0  0  0  0
    2.9041   -1.3478    1.7758 H   0  0  0  0  0  0  0  0  0  0  0  0
    4.5131   -1.1084    1.0254 H   0  0  0  0  0  0  0  0  0  0  0  0
    3.3428   -2.2155    0.2830 H   0  0  0  0  0  0  0  0  0  0  0  0
    4.0637    1.4718    0.6862 H   0  0  0  0  0  0  0  0  0  0  0  0
    2.7744    0.9313    1.7712 H   0  0  0  0  0  0  0  0  0  0  0  0
    2.4002    2.5176   -0.8376 H   0  0  0  0  0  0  0  0  0  0  0  0
    2.2453    3.1171    0.8047 H   0  0  0  0  0  0  0  0  0  0  0  0
    0.4954    1.0956   -0.4456 H   0  0  0  0  0  0  0  0  0  0  0  0
    0.2443    2.5792    2.0842 H   0  0  0  0  0  0  0  0  0  0  0  0
    0.0445    0.8055    1.9062 H   0  0  0  0  0  0  0  0  0  0  0  0
   -1.6073    3.3128   -1.4382 H   0  0  0  0  0  0  0  0  0  0  0  0
   -2.0005    5.6920   -2.0530 H   0  0  0  0  0  0  0  0  0  0  0  0
   -3.7057    7.2548   -2.3766 H   0  0  0  0  0  0  0  0  0  0  0  0
   -4.1132    9.6150   -2.9948 H   0  0  0  0  0  0  0  0  0  0  0  0
   -3.5320   11.4500   -1.4047 H   0  0  0  0  0  0  0  0  0  0  0  0
   -2.5238   10.8885    0.8094 H   0  0  0  0  0  0  0  0  0  0  0  0
   -2.0903    8.5304    1.4189 H   0  0  0  0  0  0  0  0  0  0  0  0
   -3.1841    6.5403    2.0130 H   0  0  0  0  0  0  0  0  0  0  0  0
   -2.7482    4.1631    2.6274 H   0  0  0  0  0  0  0  0  0  0  0  0
    4.4191   -0.4353   -1.4193 H   0  0  0  0  0  0  0  0  0  0  0  0
    3.2475    0.8422   -1.7685 H   0  0  0  0  0  0  0  0  0  0  0  0
    2.9691   -0.8664   -3.3407 H   0  0  0  0  0  0  0  0  0  0  0  0
    2.3558   -2.8176   -1.4160 H   0  0  0  0  0  0  0  0  0  0  0  0
    0.8596    0.1942   -2.5056 H   0  0  0  0  0  0  0  0  0  0  0  0
    0.6805   -1.1145   -1.3224 H   0  0  0  0  0  0  0  0  0  0  0  0
    1.0072   -2.4799   -3.6523 H   0  0  0  0  0  0  0  0  0  0  0  0
   -0.7480   -3.3557   -5.0151 H   0  0  0  0  0  0  0  0  0  0  0  0
   -3.1816   -3.6255   -5.3148 H   0  0  0  0  0  0  0  0  0  0  0  0
   -5.1039   -4.1913   -4.3789 H   0  0  0  0  0  0  0  0  0  0  0  0
   -5.5772   -0.3050   -4.0120 H   0  0  0  0  0  0  0  0  0  0  0  0
   -6.9520   -1.3249   -4.0037 H   0  0  0  0  0  0  0  0  0  0  0  0
   -3.8819   -0.6069   -2.3157 H   0  0  0  0  0  0  0  0  0  0  0  0
   -1.4921   -0.3259   -2.0006 H   0  0  0  0  0  0  0  0  0  0  0  0
  1  2  1  0
  1 36  1  0
  1 37  1  0
  1 38  1  0
  2  3  1  0
  2 22  1  0
  3  4  1  0
  3 39  1  0
  3 40  1  0
  4  5  1  0
  4 41  1  0
  4 42  1  0
  5  6  1  0
  5 43  1  0
  7  6  1  1
  6 44  1  0
  6 45  1  0
  7  8  2  0
  7  9  2  0
  7 10  1  0
 10 11  2  0
 10 21  1  0
 11 12  1  0
 11 46  1  0
 12 13  2  0
 12 47  1  0
 13 14  1  0
 13 20  1  0
 14 15  2  0
 14 19  1  0
 15 16  1  0
 15 48  1  0
 16 17  2  0
 16 49  1  0
 17 18  1  0
 17 50  1  0
 18 19  2  0
 18 51  1  0
 19 52  1  0
 20 21  2  0
 20 53  1  0
 21 54  1  0
 22 23  1  0
 22 55  1  0
 22 56  1  0
 23 24  1  0
 23 25  1  0
 23 57  1  6
 24 58  1  0
 25 26  1  0
 25 59  1  0
 25 60  1  0
 26 27  1  0
 26 61  1  0
 27 28  2  0
 27 35  1  0
 28 29  1  0
 28 62  1  0
 29 30  2  0
 29 63  1  0
 30 31  1  0
 30 34  1  0
 31 32  2  0
 31 33  1  0
 32 64  1  0
 33 65  1  0
 33 66  1  0
 34 35  2  0
 34 67  1  0
 35 68  1  0
M  END

