
     RDKit          3D

 53 56  0  0  0  0  0  0  0  0999 V2000
    0.7822    0.2400    0.2574 C   0  0  0  0  0  0  0  0  0  0  0  0
    2.2569   -0.0273   -0.0068 C   0  0  1  0  0  0  0  0  0  0  0  0
    3.0584    1.1023    0.3980 O   0  0  0  0  0  0  0  0  0  0  0  0
    3.3693    2.0346   -0.5369 C   0  0  0  0  0  0  0  0  0  0  0  0
    3.0434    1.9439   -1.6963 O   0  0  0  0  0  0  0  0  0  0  0  0
    4.1597    3.1659    0.0323 C   0  0  0  0  0  0  0  0  0  0  0  0
    4.4178    3.2929    1.4065 C   0  0  0  0  0  0  0  0  0  0  0  0
    5.1557    4.3772    1.8823 C   0  0  0  0  0  0  0  0  0  0  0  0
    5.6438    5.3513    0.9981 C   0  0  0  0  0  0  0  0  0  0  0  0
    6.4603    6.5210    1.5158 C   0  0  0  0  0  0  0  0  0  0  0  0
    7.8973    6.2772    1.4849 N   0  0  0  0  0  0  0  0  0  0  0  0
    8.6086    5.6696    2.4993 C   0  0  0  0  0  0  0  0  0  0  0  0
    8.1696    5.2758    3.5542 O   0  0  0  0  0  0  0  0  0  0  0  0
   10.0615    5.6065    2.0134 C   0  0  0  0  0  0  0  0  0  0  0  0
    9.9779    6.2091    0.7034 N   0  0  0  0  0  0  0  0  0  0  0  0
    8.7113    6.6106    0.3747 C   0  0  0  0  0  0  0  0  0  0  0  0
    8.3262    7.1452   -0.6392 O   0  0  0  0  0  0  0  0  0  0  0  0
    5.3859    5.2191   -0.3764 C   0  0  0  0  0  0  0  0  0  0  0  0
    4.6478    4.1387   -0.8550 C   0  0  0  0  0  0  0  0  0  0  0  0
    2.7474   -1.2894    0.7189 C   0  0  0  0  0  0  0  0  0  0  0  0
    2.0784   -2.3110    0.6781 O   0  0  0  0  0  0  0  0  0  0  0  0
    3.9509   -1.1896    1.3382 N   0  0  0  0  0  0  0  0  0  0  0  0
    4.5391   -2.2983    2.0791 C   0  0  0  0  0  0  0  0  0  0  0  0
    4.3025   -2.2325    3.5776 C   0  0  0  0  0  0  0  0  0  0  0  0
    3.0391   -2.5486    4.1000 C   0  0  0  0  0  0  0  0  0  0  0  0
    2.7673   -2.4743    5.4789 C   0  0  0  0  0  0  0  0  0  0  0  0
    3.8036   -2.0730    6.3046 C   0  0  0  0  0  0  0  0  0  0  0  0
    5.0652   -1.7594    5.7954 C   0  0  0  0  0  0  0  0  0  0  0  0
    5.3456   -1.8296    4.4420 C   0  0  0  0  0  0  0  0  0  0  0  0
    5.9009   -1.4295    6.8276 O   0  0  0  0  0  0  0  0  0  0  0  0
    5.0845   -1.3759    7.9944 C   0  0  0  0  0  0  0  0  0  0  0  0
    3.8214   -1.9466    7.6671 O   0  0  0  0  0  0  0  0  0  0  0  0
    0.4251    1.0679   -0.3719 H   0  0  0  0  0  0  0  0  0  0  0  0
    0.6167    0.4937    1.3159 H   0  0  0  0  0  0  0  0  0  0  0  0
    0.2092   -0.6670    0.0215 H   0  0  0  0  0  0  0  0  0  0  0  0
    2.4170   -0.1881   -1.0848 H   0  0  0  0  0  0  0  0  0  0  0  0
    4.0294    2.5462    2.1003 H   0  0  0  0  0  0  0  0  0  0  0  0
    5.3645    4.4691    2.9510 H   0  0  0  0  0  0  0  0  0  0  0  0
    6.1943    6.7413    2.5591 H   0  0  0  0  0  0  0  0  0  0  0  0
    6.2785    7.4147    0.9031 H   0  0  0  0  0  0  0  0  0  0  0  0
   10.3978    4.5551    1.9968 H   0  0  0  0  0  0  0  0  0  0  0  0
   10.7092    6.1599    2.7158 H   0  0  0  0  0  0  0  0  0  0  0  0
   10.7489    6.3428    0.0626 H   0  0  0  0  0  0  0  0  0  0  0  0
    5.7771    5.9684   -1.0692 H   0  0  0  0  0  0  0  0  0  0  0  0
    4.4348    4.0292   -1.9200 H   0  0  0  0  0  0  0  0  0  0  0  0
    4.3673   -0.2682    1.4038 H   0  0  0  0  0  0  0  0  0  0  0  0
    5.6204   -2.3250    1.8703 H   0  0  0  0  0  0  0  0  0  0  0  0
    4.0921   -3.2136    1.6665 H   0  0  0  0  0  0  0  0  0  0  0  0
    2.2487   -2.8580    3.4120 H   0  0  0  0  0  0  0  0  0  0  0  0
    1.7869   -2.7278    5.8853 H   0  0  0  0  0  0  0  0  0  0  0  0
    6.3418   -1.5889    4.0647 H   0  0  0  0  0  0  0  0  0  0  0  0
    4.9483   -0.3207    8.3057 H   0  0  0  0  0  0  0  0  0  0  0  0
    5.5561   -1.9546    8.8055 H   0  0  0  0  0  0  0  0  0  0  0  0
  1  2  1  0
  1 33  1  0
  1 34  1  0
  1 35  1  0
  2  3  1  0
  2 20  1  0
  2 36  1  6
  3  4  1  0
  4  5  2  0
  4  6  1  0
  6  7  2  0
  6 19  1  0
  7  8  1  0
  7 37  1  0
  8  9  2  0
  8 38  1  0
  9 10  1  0
  9 18  1  0
 10 11  1  0
 10 39  1  0
 10 40  1  0
 11 12  1  0
 11 16  1  0
 12 13  2  0
 12 14  1  0
 14 15  1  0
 14 41  1  0
 14 42  1  0
 15 16  1  0
 15 43  1  0
 16 17  2  0
 18 19  2  0
 18 44  1  0
 19 45  1  0
 20 21  2  0
 20 22  1  0
 22 23  1  0
 22 46  1  0
 23 24  1  0
 23 47  1  0
 23 48  1  0
 24 25  2  0
 24 29  1  0
 25 26  1  0
 25 49  1  0
 26 27  2  0
 26 50  1  0
 27 28  1  0
 27 32  1  0
 28 29  2  0
 28 30  1  0
 29 51  1  0
 30 31  1  0
 31 32  1  0
 31 52  1  0
 31 53  1  0
M  END

