
     RDKit          3D

 28 28  0  0  0  0  0  0  0  0999 V2000
    1.0611   -0.0742    0.4586 C   0  0  0  0  0  0  0  0  0  0  0  0
    2.4795   -0.0146    0.2823 O   0  0  0  0  0  0  0  0  0  0  0  0
    3.2114   -0.8410    1.0376 C   0  0  0  0  0  0  0  0  0  0  0  0
    2.7416   -1.6106    1.8418 O   0  0  0  0  0  0  0  0  0  0  0  0
    4.7045   -0.7065    0.7395 C   0  0  1  0  0  0  0  0  0  0  0  0
    5.1722    0.7557    0.8356 C   0  0  0  0  0  0  0  0  0  0  0  0
    5.4105   -1.5807    1.6486 N   0  0  0  0  0  0  0  0  0  0  0  0
    6.6557   -2.1356    1.3419 C   0  0  0  0  0  0  0  0  0  0  0  0
    7.3780   -1.8605    0.1752 C   0  0  0  0  0  0  0  0  0  0  0  0
    8.6206   -2.4653   -0.0673 C   0  0  0  0  0  0  0  0  0  0  0  0
    9.5870   -2.0766   -1.6580 Br  0  0  0  0  0  0  0  0  0  0  0  0
    9.1414   -3.3566    0.8641 C   0  0  0  0  0  0  0  0  0  0  0  0
   10.3238   -3.9511    0.6583 F   0  0  0  0  0  0  0  0  0  0  0  0
    8.4483   -3.6302    2.0448 C   0  0  0  0  0  0  0  0  0  0  0  0
    7.2183   -3.0229    2.3082 C   0  0  0  0  0  0  0  0  0  0  0  0
    6.4774   -3.2912    3.4594 N   0  0  0  0  0  0  0  0  0  0  0  0
    0.6366    0.6529   -0.2439 H   0  0  0  0  0  0  0  0  0  0  0  0
    0.7864    0.1858    1.4918 H   0  0  0  0  0  0  0  0  0  0  0  0
    0.6846   -1.0845    0.2397 H   0  0  0  0  0  0  0  0  0  0  0  0
    4.8156   -1.0374   -0.3157 H   0  0  0  0  0  0  0  0  0  0  0  0
    4.9967    1.1436    1.8507 H   0  0  0  0  0  0  0  0  0  0  0  0
    4.6377    1.3855    0.1111 H   0  0  0  0  0  0  0  0  0  0  0  0
    6.2505    0.8221    0.6313 H   0  0  0  0  0  0  0  0  0  0  0  0
    4.7788   -2.2260    2.1236 H   0  0  0  0  0  0  0  0  0  0  0  0
    6.9813   -1.1791   -0.5763 H   0  0  0  0  0  0  0  0  0  0  0  0
    8.9013   -4.3155    2.7649 H   0  0  0  0  0  0  0  0  0  0  0  0
    6.9715   -3.8176    4.1722 H   0  0  0  0  0  0  0  0  0  0  0  0
    6.0197   -2.4699    3.8507 H   0  0  0  0  0  0  0  0  0  0  0  0
  1  2  1  0
  1 17  1  0
  1 18  1  0
  1 19  1  0
  2  3  1  0
  3  4  2  0
  3  5  1  0
  5  6  1  0
  5  7  1  0
  5 20  1  6
  6 21  1  0
  6 22  1  0
  6 23  1  0
  7  8  1  0
  7 24  1  0
  8  9  2  0
  8 15  1  0
  9 10  1  0
  9 25  1  0
 10 11  1  0
 10 12  2  0
 12 13  1  0
 12 14  1  0
 14 15  2  0
 14 26  1  0
 15 16  1  0
 16 27  1  0
 16 28  1  0
M  END

