
     RDKit          3D

 48 51  0  0  0  0  0  0  0  0999 V2000
    2.3554    0.4275   -0.4882 O   0  0  0  0  0  0  0  0  0  0  0  0
    3.1970   -0.3688   -0.8893 C   0  0  0  0  0  0  0  0  0  0  0  0
    3.6795   -0.3468   -2.1837 N   0  0  0  0  0  0  0  0  0  0  0  0
    3.2865    0.7259   -3.0806 C   0  0  0  0  0  0  0  0  0  0  0  0
    4.0249    2.0593   -2.8291 C   0  0  0  0  0  0  0  0  0  0  0  0
    3.4198    3.2192   -3.5730 C   0  0  0  0  0  0  0  0  0  0  0  0
    3.9571    3.8106   -4.6809 C   0  0  0  0  0  0  0  0  0  0  0  0
    3.0011    5.1243   -5.3224 S   0  0  0  0  0  0  0  0  0  0  0  0
    1.8016    4.9012   -4.0635 C   0  0  0  0  0  0  0  0  0  0  0  0
    0.6265    5.6416   -3.8739 C   0  0  0  0  0  0  0  0  0  0  0  0
   -0.1979    5.3109   -2.8015 C   0  0  0  0  0  0  0  0  0  0  0  0
    0.1415    4.2577   -1.9290 C   0  0  0  0  0  0  0  0  0  0  0  0
    1.3070    3.5214   -2.1151 C   0  0  0  0  0  0  0  0  0  0  0  0
    2.1602    3.8371   -3.1952 C   0  0  0  0  0  0  0  0  0  0  0  0
    3.7352   -1.3571   -0.0923 N   0  0  0  0  0  0  0  0  0  0  0  0
    3.2555   -1.5941    1.2619 C   0  0  2  0  0  0  0  0  0  0  0  0
    4.4220   -1.9943    2.1900 C   0  0  0  0  0  0  0  0  0  0  0  0
    3.9768   -2.3028    3.6319 C   0  0  0  0  0  0  0  0  0  0  0  0
    2.8304   -3.3297    3.7096 C   0  0  0  0  0  0  0  0  0  0  0  0
    1.7089   -2.8465    2.8090 C   0  0  2  0  0  0  0  0  0  0  0  0
    0.6039   -3.7230    2.7166 O   0  0  0  0  0  0  0  0  0  0  0  0
   -0.0969   -3.4245    1.5038 C   0  0  0  0  0  0  0  0  0  0  0  0
    0.8227   -2.5091    0.6516 C   0  0  0  0  0  0  0  0  0  0  0  0
    2.1715   -2.6715    1.3608 C   0  0  1  0  0  0  0  0  0  0  0  0
    4.5595   -0.8143   -2.3702 H   0  0  0  0  0  0  0  0  0  0  0  0
    2.2058    0.8769   -2.9557 H   0  0  0  0  0  0  0  0  0  0  0  0
    3.4493    0.3929   -4.1180 H   0  0  0  0  0  0  0  0  0  0  0  0
    5.0877    1.9487   -3.1019 H   0  0  0  0  0  0  0  0  0  0  0  0
    3.9877    2.2626   -1.7465 H   0  0  0  0  0  0  0  0  0  0  0  0
    4.8960    3.5504   -5.1704 H   0  0  0  0  0  0  0  0  0  0  0  0
    0.3642    6.4589   -4.5498 H   0  0  0  0  0  0  0  0  0  0  0  0
   -1.1187    5.8762   -2.6364 H   0  0  0  0  0  0  0  0  0  0  0  0
   -0.5214    4.0150   -1.0948 H   0  0  0  0  0  0  0  0  0  0  0  0
    1.5565    2.6995   -1.4379 H   0  0  0  0  0  0  0  0  0  0  0  0
    4.2268   -2.1204   -0.5447 H   0  0  0  0  0  0  0  0  0  0  0  0
    2.8300   -0.6340    1.5930 H   0  0  0  0  0  0  0  0  0  0  0  0
    5.1788   -1.1933    2.1884 H   0  0  0  0  0  0  0  0  0  0  0  0
    4.9128   -2.8905    1.7640 H   0  0  0  0  0  0  0  0  0  0  0  0
    3.6469   -1.3637    4.1111 H   0  0  0  0  0  0  0  0  0  0  0  0
    4.8422   -2.6550    4.2161 H   0  0  0  0  0  0  0  0  0  0  0  0
    2.4816   -3.4449    4.7485 H   0  0  0  0  0  0  0  0  0  0  0  0
    3.1672   -4.3235    3.3666 H   0  0  0  0  0  0  0  0  0  0  0  0
    1.3698   -1.8539    3.1858 H   0  0  0  0  0  0  0  0  0  0  0  0
   -1.0593   -2.9312    1.7324 H   0  0  0  0  0  0  0  0  0  0  0  0
   -0.3233   -4.3789    0.9989 H   0  0  0  0  0  0  0  0  0  0  0  0
    0.4985   -1.4579    0.6887 H   0  0  0  0  0  0  0  0  0  0  0  0
    0.8459   -2.8076   -0.4069 H   0  0  0  0  0  0  0  0  0  0  0  0
    2.6197   -3.6367    1.0520 H   0  0  0  0  0  0  0  0  0  0  0  0
  1  2  2  0
  2  3  1  0
  2 15  1  0
  3  4  1  0
  3 25  1  0
  4  5  1  0
  4 26  1  0
  4 27  1  0
  5  6  1  0
  5 28  1  0
  5 29  1  0
  6  7  2  0
  6 14  1  0
  7  8  1  0
  7 30  1  0
  8  9  1  0
  9 10  1  0
  9 14  2  0
 10 11  2  0
 10 31  1  0
 11 12  1  0
 11 32  1  0
 12 13  2  0
 12 33  1  0
 13 14  1  0
 13 34  1  0
 15 16  1  0
 15 35  1  0
 16 17  1  0
 16 24  1  0
 16 36  1  1
 17 18  1  0
 17 37  1  0
 17 38  1  0
 18 19  1  0
 18 39  1  0
 18 40  1  0
 19 20  1  0
 19 41  1  0
 19 42  1  0
 20 21  1  0
 20 24  1  0
 20 43  1  1
 21 22  1  0
 22 23  1  0
 22 44  1  0
 22 45  1  0
 23 24  1  0
 23 46  1  0
 23 47  1  0
 24 48  1  6
M  END

