
     RDKit          3D

 47 48  0  0  0  0  0  0  0  0999 V2000
    0.3511   -2.3148    0.3897 C   0  0  0  0  0  0  0  0  0  0  0  0
    1.8467   -2.6292    0.3193 C   0  0  0  0  0  0  0  0  0  0  0  0
    2.7146   -1.3909    0.0662 C   0  0  0  0  0  0  0  0  0  0  0  0
    4.2370   -1.6439    0.0705 C   0  0  1  0  0  0  0  0  0  0  0  0
    4.7332   -2.5347   -1.0892 C   0  0  0  0  0  0  0  0  0  0  0  0
    4.7133   -1.8203   -2.4507 C   0  0  0  0  0  0  0  0  0  0  0  0
    5.4670   -0.4696   -2.4712 C   0  0  2  0  0  0  0  0  0  0  0  0
    7.0012   -0.5646   -2.6075 C   0  0  1  0  0  0  0  0  0  0  0  0
    7.5403   -1.3131   -1.5285 O   0  0  0  0  0  0  0  0  0  0  0  0
    7.4604   -1.1475   -3.9658 C   0  0  0  0  0  0  0  0  0  0  0  0
    8.9650   -1.1776   -4.1085 C   0  0  0  0  0  0  0  0  0  0  0  0
    9.7147   -2.2799   -3.6674 C   0  0  0  0  0  0  0  0  0  0  0  0
   11.1119   -2.2842   -3.7480 C   0  0  0  0  0  0  0  0  0  0  0  0
   11.8131   -1.1902   -4.2725 C   0  0  0  0  0  0  0  0  0  0  0  0
   13.3196   -1.1875   -4.3691 C   0  0  0  0  0  0  0  0  0  0  0  0
   11.0621   -0.0874   -4.7156 C   0  0  0  0  0  0  0  0  0  0  0  0
    9.6701   -0.0800   -4.6332 C   0  0  0  0  0  0  0  0  0  0  0  0
    5.0230    0.4001   -1.2720 C   0  0  0  0  0  0  0  0  0  0  0  0
    5.0495   -0.3315    0.0791 C   0  0  0  0  0  0  0  0  0  0  0  0
   -0.2467   -3.2218    0.5755 H   0  0  0  0  0  0  0  0  0  0  0  0
   -0.0095   -1.8670   -0.5520 H   0  0  0  0  0  0  0  0  0  0  0  0
    0.1286   -1.5984    1.1985 H   0  0  0  0  0  0  0  0  0  0  0  0
    2.0207   -3.3796   -0.4713 H   0  0  0  0  0  0  0  0  0  0  0  0
    2.1670   -3.1085    1.2627 H   0  0  0  0  0  0  0  0  0  0  0  0
    2.4889   -0.6422    0.8483 H   0  0  0  0  0  0  0  0  0  0  0  0
    2.4000   -0.9240   -0.8846 H   0  0  0  0  0  0  0  0  0  0  0  0
    4.4616   -2.1749    1.0142 H   0  0  0  0  0  0  0  0  0  0  0  0
    4.1313   -3.4568   -1.1529 H   0  0  0  0  0  0  0  0  0  0  0  0
    5.7652   -2.8454   -0.8705 H   0  0  0  0  0  0  0  0  0  0  0  0
    3.6672   -1.6216   -2.7437 H   0  0  0  0  0  0  0  0  0  0  0  0
    5.1084   -2.4954   -3.2276 H   0  0  0  0  0  0  0  0  0  0  0  0
    5.1541    0.0655   -3.3859 H   0  0  0  0  0  0  0  0  0  0  0  0
    7.3839    0.4773   -2.5610 H   0  0  0  0  0  0  0  0  0  0  0  0
    8.5033   -1.3285   -1.6252 H   0  0  0  0  0  0  0  0  0  0  0  0
    7.0208   -0.5382   -4.7723 H   0  0  0  0  0  0  0  0  0  0  0  0
    7.0593   -2.1678   -4.0695 H   0  0  0  0  0  0  0  0  0  0  0  0
    9.1964   -3.1553   -3.2655 H   0  0  0  0  0  0  0  0  0  0  0  0
   11.6659   -3.1614   -3.4010 H   0  0  0  0  0  0  0  0  0  0  0  0
   13.7517   -2.1228   -3.9837 H   0  0  0  0  0  0  0  0  0  0  0  0
   13.7571   -0.3534   -3.7950 H   0  0  0  0  0  0  0  0  0  0  0  0
   13.6547   -1.0677   -5.4131 H   0  0  0  0  0  0  0  0  0  0  0  0
   11.5793    0.7806   -5.1359 H   0  0  0  0  0  0  0  0  0  0  0  0
    9.1155    0.7933   -4.9900 H   0  0  0  0  0  0  0  0  0  0  0  0
    3.9977    0.7582   -1.4722 H   0  0  0  0  0  0  0  0  0  0  0  0
    5.6513    1.3063   -1.2194 H   0  0  0  0  0  0  0  0  0  0  0  0
    4.6669    0.3403    0.8676 H   0  0  0  0  0  0  0  0  0  0  0  0
    6.0940   -0.5657    0.3340 H   0  0  0  0  0  0  0  0  0  0  0  0
  1  2  1  0
  1 20  1  0
  1 21  1  0
  1 22  1  0
  2  3  1  0
  2 23  1  0
  2 24  1  0
  3  4  1  0
  3 25  1  0
  3 26  1  0
  4  5  1  0
  4 19  1  0
  4 27  1  1
  5  6  1  0
  5 28  1  0
  5 29  1  0
  6  7  1  0
  6 30  1  0
  6 31  1  0
  7  8  1  0
  7 18  1  0
  7 32  1  6
  8  9  1  0
  8 10  1  0
  8 33  1  1
  9 34  1  0
 10 11  1  0
 10 35  1  0
 10 36  1  0
 11 12  2  0
 11 17  1  0
 12 13  1  0
 12 37  1  0
 13 14  2  0
 13 38  1  0
 14 15  1  0
 14 16  1  0
 15 39  1  0
 15 40  1  0
 15 41  1  0
 16 17  2  0
 16 42  1  0
 17 43  1  0
 18 19  1  0
 18 44  1  0
 18 45  1  0
 19 46  1  0
 19 47  1  0
M  END

