
     RDKit          3D

 44 47  0  0  0  0  0  0  0  0999 V2000
    0.9500   -0.9107   -5.1796 C   0  0  0  0  0  0  0  0  0  0  0  0
    2.3567   -1.4942   -5.3151 C   0  0  0  0  0  0  0  0  0  0  0  0
    2.8405   -2.2247   -4.0587 C   0  0  0  0  0  0  0  0  0  0  0  0
    4.2506   -2.8063   -4.1875 C   0  0  0  0  0  0  0  0  0  0  0  0
    4.7257   -3.5389   -2.9295 C   0  0  0  0  0  0  0  0  0  0  0  0
    6.1321   -4.1067   -3.0296 C   0  0  0  0  0  0  0  0  0  0  0  0
    7.0549   -3.0257   -3.1441 O   0  0  0  0  0  0  0  0  0  0  0  0
    8.3721   -3.2703   -3.2711 C   0  0  0  0  0  0  0  0  0  0  0  0
    8.9323   -4.5215   -3.3123 C   0  0  0  0  0  0  0  0  0  0  0  0
   10.3560   -4.6980   -3.4554 C   0  0  0  0  0  0  0  0  0  0  0  0
   10.9757   -5.9279   -3.5047 C   0  0  0  0  0  0  0  0  0  0  0  0
   12.4056   -6.0808   -3.6503 C   0  0  0  0  0  0  0  0  0  0  0  0
   13.0372   -7.1033   -3.7029 O   0  0  0  0  0  0  0  0  0  0  0  0
   13.1374   -4.8693   -3.7402 O   0  0  0  0  0  0  0  0  0  0  0  0
   12.5615   -3.6571   -3.6943 C   0  0  0  0  0  0  0  0  0  0  0  0
   13.4033   -2.5184   -3.7930 C   0  0  0  0  0  0  0  0  0  0  0  0
   12.8528   -1.2579   -3.7484 C   0  0  0  0  0  0  0  0  0  0  0  0
   11.4448   -1.0621   -3.6045 C   0  0  0  0  0  0  0  0  0  0  0  0
   10.8479    0.2224   -3.5524 C   0  0  0  0  0  0  0  0  0  0  0  0
    9.4764    0.3579   -3.4088 C   0  0  0  0  0  0  0  0  0  0  0  0
    8.6487   -0.7778   -3.3140 C   0  0  0  0  0  0  0  0  0  0  0  0
    9.1939   -2.0602   -3.3635 C   0  0  0  0  0  0  0  0  0  0  0  0
   10.6060   -2.2138   -3.5078 C   0  0  0  0  0  0  0  0  0  0  0  0
   11.1802   -3.5123   -3.5539 C   0  0  0  0  0  0  0  0  0  0  0  0
    0.6358   -0.3940   -6.1004 H   0  0  0  0  0  0  0  0  0  0  0  0
    0.8957   -0.1812   -4.3541 H   0  0  0  0  0  0  0  0  0  0  0  0
    0.2069   -1.6986   -4.9708 H   0  0  0  0  0  0  0  0  0  0  0  0
    3.0701   -0.6866   -5.5611 H   0  0  0  0  0  0  0  0  0  0  0  0
    2.3870   -2.1901   -6.1732 H   0  0  0  0  0  0  0  0  0  0  0  0
    2.1295   -3.0355   -3.8118 H   0  0  0  0  0  0  0  0  0  0  0  0
    2.8098   -1.5298   -3.1986 H   0  0  0  0  0  0  0  0  0  0  0  0
    4.9632   -1.9980   -4.4260 H   0  0  0  0  0  0  0  0  0  0  0  0
    4.2841   -3.5020   -5.0467 H   0  0  0  0  0  0  0  0  0  0  0  0
    4.0452   -4.3789   -2.7039 H   0  0  0  0  0  0  0  0  0  0  0  0
    4.6818   -2.8634   -2.0572 H   0  0  0  0  0  0  0  0  0  0  0  0
    6.2276   -4.7661   -3.9121 H   0  0  0  0  0  0  0  0  0  0  0  0
    6.3800   -4.7039   -2.1336 H   0  0  0  0  0  0  0  0  0  0  0  0
    8.3157   -5.4163   -3.2401 H   0  0  0  0  0  0  0  0  0  0  0  0
   10.4095   -6.8577   -3.4355 H   0  0  0  0  0  0  0  0  0  0  0  0
   14.4775   -2.6771   -3.9023 H   0  0  0  0  0  0  0  0  0  0  0  0
   13.4994   -0.3798   -3.8237 H   0  0  0  0  0  0  0  0  0  0  0  0
   11.4860    1.1071   -3.6262 H   0  0  0  0  0  0  0  0  0  0  0  0
    9.0280    1.3533   -3.3679 H   0  0  0  0  0  0  0  0  0  0  0  0
    7.5706   -0.6629   -3.1985 H   0  0  0  0  0  0  0  0  0  0  0  0
  1  2  1  0
  1 25  1  0
  1 26  1  0
  1 27  1  0
  2  3  1  0
  2 28  1  0
  2 29  1  0
  3  4  1  0
  3 30  1  0
  3 31  1  0
  4  5  1  0
  4 32  1  0
  4 33  1  0
  5  6  1  0
  5 34  1  0
  5 35  1  0
  6  7  1  0
  6 36  1  0
  6 37  1  0
  7  8  1  0
  8  9  2  0
  8 22  1  0
  9 10  1  0
  9 38  1  0
 10 11  2  0
 10 24  1  0
 11 12  1  0
 11 39  1  0
 12 13  2  0
 12 14  1  0
 14 15  1  0
 15 16  1  0
 15 24  2  0
 16 17  2  0
 16 40  1  0
 17 18  1  0
 17 41  1  0
 18 19  1  0
 18 23  2  0
 19 20  2  0
 19 42  1  0
 20 21  1  0
 20 43  1  0
 21 22  2  0
 21 44  1  0
 22 23  1  0
 23 24  1  0
M  END

