
     RDKit          3D

 48 50  0  0  0  0  0  0  0  0999 V2000
    0.1008   -0.1416   -2.1390 C   0  0  0  0  0  0  0  0  0  0  0  0
    1.5988   -0.3761   -1.9479 C   0  0  0  0  0  0  0  0  0  0  0  0
    2.4969    0.8386   -2.0740 C   0  0  0  0  0  0  0  0  0  0  0  0
    1.9800    2.1417   -2.0963 C   0  0  0  0  0  0  0  0  0  0  0  0
    2.8149    3.2509   -2.2402 C   0  0  0  0  0  0  0  0  0  0  0  0
    4.1920    3.0761   -2.3592 C   0  0  0  0  0  0  0  0  0  0  0  0
    4.7584    1.7942   -2.3235 C   0  0  0  0  0  0  0  0  0  0  0  0
    6.2654    1.6390   -2.3735 C   0  0  0  0  0  0  0  0  0  0  0  0
    6.9056    1.5378   -0.9793 C   0  0  0  0  0  0  0  0  0  0  0  0
    3.8995    0.6834   -2.1806 C   0  0  0  0  0  0  0  0  0  0  0  0
    4.4736   -0.6267   -2.1935 N   0  0  0  0  0  0  0  0  0  0  0  0
    4.4762   -1.5096   -1.1425 C   0  0  0  0  0  0  0  0  0  0  0  0
    3.9485   -1.2796   -0.0689 O   0  0  0  0  0  0  0  0  0  0  0  0
    5.1669   -2.8407   -1.4383 C   0  0  0  0  0  0  0  0  0  0  0  0
    5.6145   -3.5295   -0.1470 C   0  0  0  0  0  0  0  0  0  0  0  0
    6.1908   -4.8443   -0.3796 N   0  0  0  0  0  0  0  0  0  0  0  0
    5.5352   -6.0500   -0.0971 C   0  0  0  0  0  0  0  0  0  0  0  0
    4.4195   -6.1608    0.3528 O   0  0  0  0  0  0  0  0  0  0  0  0
    6.5040   -7.1309   -0.4676 C   0  0  0  0  0  0  0  0  0  0  0  0
    6.3547   -8.5075   -0.3826 C   0  0  0  0  0  0  0  0  0  0  0  0
    7.4357   -9.2981   -0.8021 C   0  0  0  0  0  0  0  0  0  0  0  0
    8.6120   -8.7163   -1.2851 C   0  0  0  0  0  0  0  0  0  0  0  0
    8.7435   -7.3183   -1.3633 C   0  0  0  0  0  0  0  0  0  0  0  0
   10.2196   -6.6317   -1.9684 Cl  0  0  0  0  0  0  0  0  0  0  0  0
    7.6739   -6.5273   -0.9481 C   0  0  0  0  0  0  0  0  0  0  0  0
    7.4814   -5.0399   -0.8973 C   0  0  0  0  0  0  0  0  0  0  0  0
    8.2334   -4.1515   -1.2207 O   0  0  0  0  0  0  0  0  0  0  0  0
   -0.4419   -1.0978   -2.0783 H   0  0  0  0  0  0  0  0  0  0  0  0
   -0.1263    0.3099   -3.1187 H   0  0  0  0  0  0  0  0  0  0  0  0
   -0.3179    0.5167   -1.3613 H   0  0  0  0  0  0  0  0  0  0  0  0
    1.9466   -1.1339   -2.6717 H   0  0  0  0  0  0  0  0  0  0  0  0
    1.7790   -0.8266   -0.9571 H   0  0  0  0  0  0  0  0  0  0  0  0
    0.9032    2.2950   -2.0130 H   0  0  0  0  0  0  0  0  0  0  0  0
    2.3860    4.2561   -2.2642 H   0  0  0  0  0  0  0  0  0  0  0  0
    4.8468    3.9446   -2.4733 H   0  0  0  0  0  0  0  0  0  0  0  0
    6.6917    2.5045   -2.9065 H   0  0  0  0  0  0  0  0  0  0  0  0
    6.5500    0.7537   -2.9664 H   0  0  0  0  0  0  0  0  0  0  0  0
    6.7090    2.4490   -0.3928 H   0  0  0  0  0  0  0  0  0  0  0  0
    7.9974    1.4089   -1.0542 H   0  0  0  0  0  0  0  0  0  0  0  0
    6.4980    0.6885   -0.4094 H   0  0  0  0  0  0  0  0  0  0  0  0
    5.0588   -0.8621   -2.9878 H   0  0  0  0  0  0  0  0  0  0  0  0
    6.0273   -2.6961   -2.1112 H   0  0  0  0  0  0  0  0  0  0  0  0
    4.4429   -3.4838   -1.9691 H   0  0  0  0  0  0  0  0  0  0  0  0
    4.7558   -3.6574    0.5237 H   0  0  0  0  0  0  0  0  0  0  0  0
    6.3627   -2.9096    0.3692 H   0  0  0  0  0  0  0  0  0  0  0  0
    5.4302   -8.9464   -0.0027 H   0  0  0  0  0  0  0  0  0  0  0  0
    7.3658  -10.3875   -0.7537 H   0  0  0  0  0  0  0  0  0  0  0  0
    9.4462   -9.3413   -1.6084 H   0  0  0  0  0  0  0  0  0  0  0  0
  1  2  1  0
  1 28  1  0
  1 29  1  0
  1 30  1  0
  2  3  1  0
  2 31  1  0
  2 32  1  0
  3  4  2  0
  3 10  1  0
  4  5  1  0
  4 33  1  0
  5  6  2  0
  5 34  1  0
  6  7  1  0
  6 35  1  0
  7  8  1  0
  7 10  2  0
  8  9  1  0
  8 36  1  0
  8 37  1  0
  9 38  1  0
  9 39  1  0
  9 40  1  0
 10 11  1  0
 11 12  1  0
 11 41  1  0
 12 13  2  0
 12 14  1  0
 14 15  1  0
 14 42  1  0
 14 43  1  0
 15 16  1  0
 15 44  1  0
 15 45  1  0
 16 17  1  0
 16 26  1  0
 17 18  2  0
 17 19  1  0
 19 20  1  0
 19 25  2  0
 20 21  2  0
 20 46  1  0
 21 22  1  0
 21 47  1  0
 22 23  2  0
 22 48  1  0
 23 24  1  0
 23 25  1  0
 25 26  1  0
 26 27  2  0
M  END

