
     RDKit          3D

 49 53  0  0  0  0  0  0  0  0999 V2000
    1.3986    0.4877   -3.0094 C   0  0  0  0  0  0  0  0  0  0  0  0
    2.7482    0.3376   -2.3633 C   0  0  0  0  0  0  0  0  0  0  0  0
    3.6147    1.4197   -2.1373 C   0  0  0  0  0  0  0  0  0  0  0  0
    4.8093    1.2971   -1.5734 N   0  0  0  0  0  0  0  0  0  0  0  0
    5.2026    0.0674   -1.1992 C   0  0  0  0  0  0  0  0  0  0  0  0
    6.5284   -0.0350   -0.5799 C   0  0  0  0  0  0  0  0  0  0  0  0
    7.3295    1.1064   -0.3371 C   0  0  0  0  0  0  0  0  0  0  0  0
    8.4831    0.7851    0.2242 N   0  0  0  0  0  0  0  0  0  0  0  0
    8.4744   -0.5454    0.3572 N   0  0  0  0  0  0  0  0  0  0  0  0
    9.6545   -1.1598    0.9604 C   0  0  0  0  0  0  0  0  0  0  0  0
    7.3153   -1.1170   -0.1098 C   0  0  0  0  0  0  0  0  0  0  0  0
    7.1818   -2.6079   -0.0410 C   0  0  0  0  0  0  0  0  0  0  0  0
    8.1263   -3.2871    0.3439 O   0  0  0  0  0  0  0  0  0  0  0  0
    5.9744   -3.1421   -0.4131 N   0  0  0  0  0  0  0  0  0  0  0  0
    5.6541   -4.4994   -0.4076 C   0  0  0  0  0  0  0  0  0  0  0  0
    6.5199   -5.5432   -0.0961 C   0  0  0  0  0  0  0  0  0  0  0  0
    6.0521   -6.8766   -0.1364 C   0  0  0  0  0  0  0  0  0  0  0  0
    6.6469   -8.0432    0.1051 N   0  0  0  0  0  0  0  0  0  0  0  0
    5.6676   -8.9563   -0.1063 C   0  0  0  0  0  0  0  0  0  0  0  0
    5.8755  -10.4056    0.0463 C   0  0  0  0  0  0  0  0  0  0  0  0
    7.1364  -10.8940    0.4284 C   0  0  0  0  0  0  0  0  0  0  0  0
    7.3430  -12.2664    0.5759 C   0  0  0  0  0  0  0  0  0  0  0  0
    6.2961  -13.1650    0.3443 C   0  0  0  0  0  0  0  0  0  0  0  0
    5.0384  -12.6836   -0.0365 C   0  0  0  0  0  0  0  0  0  0  0  0
    4.8266  -11.3127   -0.1854 C   0  0  0  0  0  0  0  0  0  0  0  0
    4.4800   -8.4453   -0.4689 N   0  0  0  0  0  0  0  0  0  0  0  0
    4.7264   -7.1247   -0.4876 N   0  0  0  0  0  0  0  0  0  0  0  0
    3.8455   -6.1318   -0.7942 C   0  0  0  0  0  0  0  0  0  0  0  0
    4.3023   -4.8449   -0.7531 C   0  0  0  0  0  0  0  0  0  0  0  0
    3.4415   -3.8514   -1.0442 F   0  0  0  0  0  0  0  0  0  0  0  0
    4.4452   -1.0298   -1.3640 N   0  0  0  0  0  0  0  0  0  0  0  0
    3.2479   -0.8965   -1.9343 C   0  0  0  0  0  0  0  0  0  0  0  0
    1.1822    1.5415   -3.2385 H   0  0  0  0  0  0  0  0  0  0  0  0
    0.5950    0.1130   -2.3545 H   0  0  0  0  0  0  0  0  0  0  0  0
    1.3394   -0.0799   -3.9528 H   0  0  0  0  0  0  0  0  0  0  0  0
    3.3141    2.4336   -2.4330 H   0  0  0  0  0  0  0  0  0  0  0  0
    7.0768    2.1399   -0.5617 H   0  0  0  0  0  0  0  0  0  0  0  0
   10.3119   -0.3274    1.2362 H   0  0  0  0  0  0  0  0  0  0  0  0
   10.1526   -1.8306    0.2498 H   0  0  0  0  0  0  0  0  0  0  0  0
    9.3801   -1.7489    1.8438 H   0  0  0  0  0  0  0  0  0  0  0  0
    5.2496   -2.4743   -0.7542 H   0  0  0  0  0  0  0  0  0  0  0  0
    7.5504   -5.3476    0.1796 H   0  0  0  0  0  0  0  0  0  0  0  0
    7.9422  -10.1794    0.6051 H   0  0  0  0  0  0  0  0  0  0  0  0
    8.3270  -12.6379    0.8735 H   0  0  0  0  0  0  0  0  0  0  0  0
    6.4596  -14.2396    0.4604 H   0  0  0  0  0  0  0  0  0  0  0  0
    4.2176  -13.3823   -0.2186 H   0  0  0  0  0  0  0  0  0  0  0  0
    3.8492  -10.9279   -0.4820 H   0  0  0  0  0  0  0  0  0  0  0  0
    2.8243   -6.4082   -1.0520 H   0  0  0  0  0  0  0  0  0  0  0  0
    2.6639   -1.8158   -2.0513 H   0  0  0  0  0  0  0  0  0  0  0  0
  1  2  1  0
  1 33  1  0
  1 34  1  0
  1 35  1  0
  2  3  2  0
  2 32  1  0
  3  4  1  0
  3 36  1  0
  4  5  2  0
  5  6  1  0
  5 31  1  0
  6  7  1  0
  6 11  2  0
  7  8  2  0
  7 37  1  0
  8  9  1  0
  9 10  1  0
  9 11  1  0
 10 38  1  0
 10 39  1  0
 10 40  1  0
 11 12  1  0
 12 13  2  0
 12 14  1  0
 14 15  1  0
 14 41  1  0
 15 16  2  0
 15 29  1  0
 16 17  1  0
 16 42  1  0
 17 18  2  0
 17 27  1  0
 18 19  1  0
 19 20  1  0
 19 26  2  0
 20 21  2  0
 20 25  1  0
 21 22  1  0
 21 43  1  0
 22 23  2  0
 22 44  1  0
 23 24  1  0
 23 45  1  0
 24 25  2  0
 24 46  1  0
 25 47  1  0
 26 27  1  0
 27 28  1  0
 28 29  2  0
 28 48  1  0
 29 30  1  0
 31 32  2  0
 32 49  1  0
M  END

