
     RDKit          3D

 46 47  0  0  0  0  0  0  0  0999 V2000
    5.9019    3.1219   -1.2423 O   0  0  0  0  0  0  0  0  0  0  0  0
    4.9299    2.4886   -0.9107 C   0  0  0  0  0  0  0  0  0  0  0  0
    3.8240    3.1344   -0.4853 O   0  0  0  0  0  0  0  0  0  0  0  0
    4.8483    0.9729   -1.0002 C   0  0  0  0  0  0  0  0  0  0  0  0
    4.4903    0.4724   -2.4180 C   0  0  0  0  0  0  0  0  0  0  0  0
    5.3512    1.0749   -3.5440 C   0  0  0  0  0  0  0  0  0  0  0  0
    6.7790    1.0730   -3.2870 N   0  0  0  0  0  0  0  0  0  0  0  0
    7.4956   -0.1002   -3.4054 C   0  0  0  0  0  0  0  0  0  0  0  0
    6.9643   -1.1469   -3.7607 O   0  0  0  0  0  0  0  0  0  0  0  0
    8.8517   -0.0181   -3.1236 N   0  0  0  0  0  0  0  0  0  0  0  0
    9.6182   -1.2501   -3.0022 C   0  0  0  0  0  0  0  0  0  0  0  0
   10.8997   -1.2075   -3.8358 C   0  0  0  0  0  0  0  0  0  0  0  0
   11.7970   -0.0126   -3.4652 C   0  0  2  0  0  0  0  0  0  0  0  0
   12.7621    0.1458   -4.4722 F   0  0  0  0  0  0  0  0  0  0  0  0
   12.5803   -0.1749   -2.1419 C   0  0  0  0  0  0  0  0  0  0  0  0
   12.4327    0.8013   -1.1423 C   0  0  0  0  0  0  0  0  0  0  0  0
   13.1203    0.7622    0.0722 C   0  0  0  0  0  0  0  0  0  0  0  0
   14.0115   -0.2746    0.3236 C   0  0  0  0  0  0  0  0  0  0  0  0
   14.1982   -1.2519   -0.6523 C   0  0  0  0  0  0  0  0  0  0  0  0
   13.5075   -1.2234   -1.8739 C   0  0  0  0  0  0  0  0  0  0  0  0
   13.8023   -2.4143   -2.7801 C   0  0  1  0  0  0  0  0  0  0  0  0
   13.8194   -2.1364   -4.0845 F   0  0  0  0  0  0  0  0  0  0  0  0
   14.9971   -2.9644   -2.4902 F   0  0  0  0  0  0  0  0  0  0  0  0
   12.8848   -3.3962   -2.5925 F   0  0  0  0  0  0  0  0  0  0  0  0
   10.9237    1.2526   -3.5699 C   0  0  0  0  0  0  0  0  0  0  0  0
    9.5741    1.2079   -2.8329 C   0  0  0  0  0  0  0  0  0  0  0  0
    3.1334    2.5000   -0.2467 H   0  0  0  0  0  0  0  0  0  0  0  0
    4.1272    0.5692   -0.2695 H   0  0  0  0  0  0  0  0  0  0  0  0
    5.8398    0.5883   -0.7206 H   0  0  0  0  0  0  0  0  0  0  0  0
    3.4294    0.6857   -2.6379 H   0  0  0  0  0  0  0  0  0  0  0  0
    4.6099   -0.6215   -2.4272 H   0  0  0  0  0  0  0  0  0  0  0  0
    5.0548    2.1184   -3.7335 H   0  0  0  0  0  0  0  0  0  0  0  0
    5.1628    0.5051   -4.4651 H   0  0  0  0  0  0  0  0  0  0  0  0
    7.0995    1.8096   -2.6662 H   0  0  0  0  0  0  0  0  0  0  0  0
    8.9720   -2.0699   -3.3373 H   0  0  0  0  0  0  0  0  0  0  0  0
    9.8706   -1.4358   -1.9385 H   0  0  0  0  0  0  0  0  0  0  0  0
   10.6410   -1.0870   -4.8997 H   0  0  0  0  0  0  0  0  0  0  0  0
   11.4225   -2.1632   -3.7391 H   0  0  0  0  0  0  0  0  0  0  0  0
   11.7601    1.6393   -1.3080 H   0  0  0  0  0  0  0  0  0  0  0  0
   12.9578    1.5512    0.8106 H   0  0  0  0  0  0  0  0  0  0  0  0
   14.5652   -0.3267    1.2637 H   0  0  0  0  0  0  0  0  0  0  0  0
   14.9054   -2.0600   -0.4680 H   0  0  0  0  0  0  0  0  0  0  0  0
   10.7238    1.3575   -4.6471 H   0  0  0  0  0  0  0  0  0  0  0  0
   11.4929    2.1461   -3.2745 H   0  0  0  0  0  0  0  0  0  0  0  0
    8.9856    2.0694   -3.1745 H   0  0  0  0  0  0  0  0  0  0  0  0
    9.7167    1.3262   -1.7409 H   0  0  0  0  0  0  0  0  0  0  0  0
  1  2  2  0
  2  3  1  0
  2  4  1  0
  3 27  1  0
  4  5  1  0
  4 28  1  0
  4 29  1  0
  5  6  1  0
  5 30  1  0
  5 31  1  0
  6  7  1  0
  6 32  1  0
  6 33  1  0
  7  8  1  0
  7 34  1  0
  8  9  2  0
  8 10  1  0
 10 11  1  0
 10 26  1  0
 11 12  1  0
 11 35  1  0
 11 36  1  0
 12 13  1  0
 12 37  1  0
 12 38  1  0
 13 14  1  6
 13 15  1  0
 13 25  1  0
 15 16  2  0
 15 20  1  0
 16 17  1  0
 16 39  1  0
 17 18  2  0
 17 40  1  0
 18 19  1  0
 18 41  1  0
 19 20  2  0
 19 42  1  0
 20 21  1  0
 21 22  1  6
 21 23  1  0
 21 24  1  0
 25 26  1  0
 25 43  1  0
 25 44  1  0
 26 45  1  0
 26 46  1  0
M  END

