
     RDKit          3D

 23 24  0  0  0  0  0  0  0  0999 V2000
    1.5133   -1.2926    0.9150 O   0  0  0  0  0  0  0  0  0  0  0  0
    2.3666   -0.5513    0.4605 C   0  0  0  0  0  0  0  0  0  0  0  0
    2.7527    0.6492    1.0063 N   0  0  0  0  0  0  0  0  0  0  0  0
    2.2864    1.2729    2.1526 C   0  0  0  0  0  0  0  0  0  0  0  0
    1.2835    0.7506    2.9916 C   0  0  0  0  0  0  0  0  0  0  0  0
    0.9579    1.5335    4.0946 C   0  0  0  0  0  0  0  0  0  0  0  0
    1.5424    2.7076    4.3645 N   0  0  0  0  0  0  0  0  0  0  0  0
    2.4696    3.0875    3.4996 C   0  0  0  0  0  0  0  0  0  0  0  0
    3.2526    4.6152    3.8220 Cl  0  0  0  0  0  0  0  0  0  0  0  0
    2.8759    2.4470    2.4160 N   0  0  0  0  0  0  0  0  0  0  0  0
    3.1195   -0.8863   -0.8055 C   0  0  0  0  0  0  0  0  0  0  0  0
    2.8311   -2.0812   -1.4748 C   0  0  0  0  0  0  0  0  0  0  0  0
    3.5340   -2.3768   -2.6414 C   0  0  0  0  0  0  0  0  0  0  0  0
    4.4936   -1.4623   -3.0843 C   0  0  0  0  0  0  0  0  0  0  0  0
    5.4098   -1.7621   -4.5291 Cl  0  0  0  0  0  0  0  0  0  0  0  0
    4.7167   -0.2878   -2.3483 C   0  0  0  0  0  0  0  0  0  0  0  0
    4.0406   -0.0168   -1.2374 N   0  0  0  0  0  0  0  0  0  0  0  0
    3.4841    1.1464    0.4960 H   0  0  0  0  0  0  0  0  0  0  0  0
    0.8065   -0.2022    2.7772 H   0  0  0  0  0  0  0  0  0  0  0  0
    0.1874    1.2001    4.7989 H   0  0  0  0  0  0  0  0  0  0  0  0
    2.0683   -2.7486   -1.0715 H   0  0  0  0  0  0  0  0  0  0  0  0
    3.3483   -3.2947   -3.2022 H   0  0  0  0  0  0  0  0  0  0  0  0
    5.4648    0.4376   -2.6834 H   0  0  0  0  0  0  0  0  0  0  0  0
  1  2  2  0
  2  3  1  0
  2 11  1  0
  3  4  1  0
  3 18  1  0
  4  5  2  0
  4 10  1  0
  5  6  1  0
  5 19  1  0
  6  7  2  0
  6 20  1  0
  7  8  1  0
  8  9  1  0
  8 10  2  0
 11 12  2  0
 11 17  1  0
 12 13  1  0
 12 21  1  0
 13 14  2  0
 13 22  1  0
 14 15  1  0
 14 16  1  0
 16 17  2  0
 16 23  1  0
M  END

