
     RDKit          3D

 33 34  0  0  0  0  0  0  0  0999 V2000
    0.2927    0.0790   -0.5982 C   0  0  0  0  0  0  0  0  0  0  0  0
    1.8108    0.2238   -0.4020 C   0  0  0  0  0  0  0  0  0  0  0  0
    2.6054   -0.8388   -1.1363 C   0  0  0  0  0  0  0  0  0  0  0  0
    2.9916   -0.6048   -2.4664 C   0  0  0  0  0  0  0  0  0  0  0  0
    3.6584   -1.5704   -3.2213 C   0  0  0  0  0  0  0  0  0  0  0  0
    3.9514   -2.8117   -2.6525 C   0  0  0  0  0  0  0  0  0  0  0  0
    3.5788   -3.0658   -1.3326 C   0  0  0  0  0  0  0  0  0  0  0  0
    2.9147   -2.0950   -0.5623 C   0  0  0  0  0  0  0  0  0  0  0  0
    2.5823   -2.4242    0.8595 C   0  0  0  0  0  0  0  0  0  0  0  0
    3.3019   -1.8348    1.9097 C   0  0  0  0  0  0  0  0  0  0  0  0
    3.0537   -2.1491    3.2509 C   0  0  0  0  0  0  0  0  0  0  0  0
    3.8383   -1.4659    4.3570 C   0  0  0  0  0  0  0  0  0  0  0  0
    5.0819   -0.9486    3.9495 O   0  0  0  0  0  0  0  0  0  0  0  0
    2.0542   -3.0860    3.5551 C   0  0  0  0  0  0  0  0  0  0  0  0
    1.3195   -3.6844    2.5375 C   0  0  0  0  0  0  0  0  0  0  0  0
    1.5743   -3.3624    1.1892 C   0  0  0  0  0  0  0  0  0  0  0  0
    0.7870   -3.9977    0.1677 C   0  0  0  0  0  0  0  0  0  0  0  0
    0.1251   -4.5246   -0.6279 N   0  0  0  0  0  0  0  0  0  0  0  0
   -0.2505    0.8728   -0.0603 H   0  0  0  0  0  0  0  0  0  0  0  0
   -0.0695   -0.8923   -0.2267 H   0  0  0  0  0  0  0  0  0  0  0  0
    0.0226    0.1436   -1.6642 H   0  0  0  0  0  0  0  0  0  0  0  0
    2.0396    0.2010    0.6738 H   0  0  0  0  0  0  0  0  0  0  0  0
    2.1285    1.2160   -0.7636 H   0  0  0  0  0  0  0  0  0  0  0  0
    2.7575    0.3637   -2.9184 H   0  0  0  0  0  0  0  0  0  0  0  0
    3.9468   -1.3539   -4.2531 H   0  0  0  0  0  0  0  0  0  0  0  0
    4.4698   -3.5799   -3.2314 H   0  0  0  0  0  0  0  0  0  0  0  0
    3.8117   -4.0333   -0.8807 H   0  0  0  0  0  0  0  0  0  0  0  0
    4.0911   -1.1165    1.6787 H   0  0  0  0  0  0  0  0  0  0  0  0
    3.9350   -2.1589    5.2170 H   0  0  0  0  0  0  0  0  0  0  0  0
    3.2585   -0.6008    4.7249 H   0  0  0  0  0  0  0  0  0  0  0  0
    5.6380   -1.6860    3.6627 H   0  0  0  0  0  0  0  0  0  0  0  0
    1.8527   -3.3534    4.5963 H   0  0  0  0  0  0  0  0  0  0  0  0
    0.5412   -4.4132    2.7722 H   0  0  0  0  0  0  0  0  0  0  0  0
  1  2  1  0
  1 19  1  0
  1 20  1  0
  1 21  1  0
  2  3  1  0
  2 22  1  0
  2 23  1  0
  3  4  2  0
  3  8  1  0
  4  5  1  0
  4 24  1  0
  5  6  2  0
  5 25  1  0
  6  7  1  0
  6 26  1  0
  7  8  2  0
  7 27  1  0
  8  9  1  0
  9 10  2  0
  9 16  1  0
 10 11  1  0
 10 28  1  0
 11 12  1  0
 11 14  2  0
 12 13  1  0
 12 29  1  0
 12 30  1  0
 13 31  1  0
 14 15  1  0
 14 32  1  0
 15 16  2  0
 15 33  1  0
 16 17  1  0
 17 18  3  0
M  END

