
     RDKit          3D

 48 49  0  0  0  0  0  0  0  0999 V2000
    5.5630    7.4982   -2.9504 C   0  0  0  0  0  0  0  0  0  0  0  0
    5.2696    6.1451   -2.6943 O   0  0  0  0  0  0  0  0  0  0  0  0
    5.4778    5.2243   -3.6734 C   0  0  0  0  0  0  0  0  0  0  0  0
    5.9712    5.5201   -4.9508 C   0  0  0  0  0  0  0  0  0  0  0  0
    6.1401    4.4760   -5.8702 C   0  0  0  0  0  0  0  0  0  0  0  0
    5.8260    3.1599   -5.5407 C   0  0  0  0  0  0  0  0  0  0  0  0
    5.3280    2.8535   -4.2576 C   0  0  0  0  0  0  0  0  0  0  0  0
    4.9528    1.4387   -3.8644 C   0  0  0  0  0  0  0  0  0  0  0  0
    6.0753    0.3632   -3.9185 C   0  0  1  0  0  0  0  0  0  0  0  0
    6.4383    0.1186   -5.2813 O   0  0  0  0  0  0  0  0  0  0  0  0
    7.3723    0.8022   -3.2229 C   0  0  0  0  0  0  0  0  0  0  0  0
    7.2445    0.8514   -1.6976 C   0  0  0  0  0  0  0  0  0  0  0  0
    6.7704   -0.4882   -1.1206 C   0  0  0  0  0  0  0  0  0  0  0  0
    5.4517   -0.9620   -1.7560 C   0  0  2  0  0  0  0  0  0  0  0  0
    5.0033   -2.3505   -1.2646 C   0  0  0  0  0  0  0  0  0  0  0  0
    4.7203   -2.5146    0.2419 C   0  0  1  0  0  0  0  0  0  0  0  0
    3.6060   -1.5849    0.7406 C   0  0  0  0  0  0  0  0  0  0  0  0
    4.3872   -3.9787    0.5598 C   0  0  0  0  0  0  0  0  0  0  0  0
    5.5798   -0.9591   -3.2914 C   0  0  0  0  0  0  0  0  0  0  0  0
    5.1618    3.8950   -3.3406 C   0  0  0  0  0  0  0  0  0  0  0  0
    5.3229    8.0514   -2.0320 H   0  0  0  0  0  0  0  0  0  0  0  0
    4.9548    7.9036   -3.7797 H   0  0  0  0  0  0  0  0  0  0  0  0
    6.6313    7.6516   -3.1897 H   0  0  0  0  0  0  0  0  0  0  0  0
    6.2238    6.5406   -5.2391 H   0  0  0  0  0  0  0  0  0  0  0  0
    6.5275    4.7056   -6.8666 H   0  0  0  0  0  0  0  0  0  0  0  0
    5.9844    2.3570   -6.2606 H   0  0  0  0  0  0  0  0  0  0  0  0
    4.1435    1.0783   -4.5270 H   0  0  0  0  0  0  0  0  0  0  0  0
    4.5176    1.4604   -2.8543 H   0  0  0  0  0  0  0  0  0  0  0  0
    5.6665   -0.2523   -5.7313 H   0  0  0  0  0  0  0  0  0  0  0  0
    7.6951    1.7740   -3.6264 H   0  0  0  0  0  0  0  0  0  0  0  0
    8.1467    0.0699   -3.5078 H   0  0  0  0  0  0  0  0  0  0  0  0
    6.5421    1.6511   -1.4031 H   0  0  0  0  0  0  0  0  0  0  0  0
    8.2164    1.1283   -1.2562 H   0  0  0  0  0  0  0  0  0  0  0  0
    6.6623   -0.4060   -0.0267 H   0  0  0  0  0  0  0  0  0  0  0  0
    7.5461   -1.2570   -1.2994 H   0  0  0  0  0  0  0  0  0  0  0  0
    4.6669   -0.2343   -1.4801 H   0  0  0  0  0  0  0  0  0  0  0  0
    5.7755   -3.0860   -1.5576 H   0  0  0  0  0  0  0  0  0  0  0  0
    4.0907   -2.6401   -1.8195 H   0  0  0  0  0  0  0  0  0  0  0  0
    5.6433   -2.2617    0.7951 H   0  0  0  0  0  0  0  0  0  0  0  0
    2.6636   -1.7716    0.1964 H   0  0  0  0  0  0  0  0  0  0  0  0
    3.8594   -0.5210    0.6119 H   0  0  0  0  0  0  0  0  0  0  0  0
    3.4066   -1.7464    1.8125 H   0  0  0  0  0  0  0  0  0  0  0  0
    3.4669   -4.2968    0.0397 H   0  0  0  0  0  0  0  0  0  0  0  0
    4.2268   -4.1294    1.6398 H   0  0  0  0  0  0  0  0  0  0  0  0
    5.1974   -4.6555    0.2429 H   0  0  0  0  0  0  0  0  0  0  0  0
    4.6103   -1.2362   -3.7467 H   0  0  0  0  0  0  0  0  0  0  0  0
    6.3009   -1.7386   -3.5942 H   0  0  0  0  0  0  0  0  0  0  0  0
    4.7745    3.7041   -2.3368 H   0  0  0  0  0  0  0  0  0  0  0  0
  1  2  1  0
  1 21  1  0
  1 22  1  0
  1 23  1  0
  2  3  1  0
  3  4  2  0
  3 20  1  0
  4  5  1  0
  4 24  1  0
  5  6  2  0
  5 25  1  0
  6  7  1  0
  6 26  1  0
  7  8  1  0
  7 20  2  0
  8  9  1  0
  8 27  1  0
  8 28  1  0
  9 10  1  6
  9 11  1  0
  9 19  1  0
 10 29  1  0
 11 12  1  0
 11 30  1  0
 11 31  1  0
 12 13  1  0
 12 32  1  0
 12 33  1  0
 13 14  1  0
 13 34  1  0
 13 35  1  0
 14 15  1  0
 14 19  1  0
 14 36  1  6
 15 16  1  0
 15 37  1  0
 15 38  1  0
 16 17  1  0
 16 18  1  0
 16 39  1  1
 17 40  1  0
 17 41  1  0
 17 42  1  0
 18 43  1  0
 18 44  1  0
 18 45  1  0
 19 46  1  0
 19 47  1  0
 20 48  1  0
M  END

