
     RDKit          3D

 36 38  0  0  0  0  0  0  0  0999 V2000
    2.1031   -0.6346    1.4027 N   0  0  0  0  0  0  0  0  0  0  0  0
    3.4179   -0.8738    0.9974 C   0  0  0  0  0  0  0  0  0  0  0  0
    4.3488    0.0972    1.2159 N   0  0  0  0  0  0  0  0  0  0  0  0
    5.5324   -0.2820    0.7838 C   0  0  0  0  0  0  0  0  0  0  0  0
    6.6475    0.4860    0.8629 N   0  0  0  0  0  0  0  0  0  0  0  0
    6.6897    1.8099    1.4368 C   0  0  1  0  0  0  0  0  0  0  0  0
    7.6837    2.1103    2.5907 C   0  0  0  0  0  0  0  0  0  0  0  0
    7.9094    3.5099    1.9620 C   0  0  0  0  0  0  0  0  0  0  0  0
    7.3374    2.9644    0.6276 C   0  0  0  0  0  0  0  0  0  0  0  0
    5.5857   -1.8757    0.0443 S   0  0  0  0  0  0  0  0  0  0  0  0
    3.8690   -2.0474    0.4099 C   0  0  0  0  0  0  0  0  0  0  0  0
    3.2325   -3.3373    0.1244 C   0  0  0  0  0  0  0  0  0  0  0  0
    3.7788   -4.1887   -0.5654 O   0  0  0  0  0  0  0  0  0  0  0  0
    1.9882   -3.5049    0.7194 N   0  0  0  0  0  0  0  0  0  0  0  0
    1.1224   -4.6035    0.6362 C   0  0  0  0  0  0  0  0  0  0  0  0
    1.3491   -5.7150   -0.1980 C   0  0  0  0  0  0  0  0  0  0  0  0
    0.4245   -6.7613   -0.2365 C   0  0  0  0  0  0  0  0  0  0  0  0
   -0.7288   -6.7182    0.5508 C   0  0  0  0  0  0  0  0  0  0  0  0
   -2.1274   -8.3207    0.4829 I   0  0  0  0  0  0  0  0  0  0  0  0
   -0.9648   -5.6236    1.3874 C   0  0  0  0  0  0  0  0  0  0  0  0
   -0.0441   -4.5778    1.4259 C   0  0  0  0  0  0  0  0  0  0  0  0
    1.9997    0.3012    1.7871 H   0  0  0  0  0  0  0  0  0  0  0  0
    1.4094   -0.8060    0.6774 H   0  0  0  0  0  0  0  0  0  0  0  0
    7.5147    0.0911    0.5182 H   0  0  0  0  0  0  0  0  0  0  0  0
    5.6607    2.0578    1.7284 H   0  0  0  0  0  0  0  0  0  0  0  0
    8.5854    1.4808    2.5094 H   0  0  0  0  0  0  0  0  0  0  0  0
    7.3042    2.0458    3.6219 H   0  0  0  0  0  0  0  0  0  0  0  0
    8.9374    3.8999    1.9501 H   0  0  0  0  0  0  0  0  0  0  0  0
    7.2528    4.2720    2.4092 H   0  0  0  0  0  0  0  0  0  0  0  0
    8.1379    2.5860   -0.0298 H   0  0  0  0  0  0  0  0  0  0  0  0
    6.6716    3.6076    0.0320 H   0  0  0  0  0  0  0  0  0  0  0  0
    1.7250   -2.7906    1.3945 H   0  0  0  0  0  0  0  0  0  0  0  0
    2.2532   -5.7504   -0.8012 H   0  0  0  0  0  0  0  0  0  0  0  0
    0.6169   -7.6150   -0.8891 H   0  0  0  0  0  0  0  0  0  0  0  0
   -1.8599   -5.5791    2.0104 H   0  0  0  0  0  0  0  0  0  0  0  0
   -0.2334   -3.7246    2.0844 H   0  0  0  0  0  0  0  0  0  0  0  0
  1  2  1  0
  1 22  1  0
  1 23  1  0
  2  3  2  0
  2 11  1  0
  3  4  1  0
  4  5  1  0
  4 10  2  0
  5  6  1  0
  5 24  1  0
  6  7  1  0
  6  9  1  0
  6 25  1  1
  7  8  1  0
  7 26  1  0
  7 27  1  0
  8  9  1  0
  8 28  1  0
  8 29  1  0
  9 30  1  0
  9 31  1  0
 10 11  1  0
 11 12  2  0
 12 13  1  0
 12 14  1  0
 14 15  1  0
 14 32  1  0
 15 16  2  0
 15 21  1  0
 16 17  1  0
 16 33  1  0
 17 18  2  0
 17 34  1  0
 18 19  1  0
 18 20  1  0
 20 21  2  0
 20 35  1  0
 21 36  1  0
M  CHG  2  10   1  13  -1
M  END

