
     RDKit          3D

 59 60  0  0  0  0  0  0  0  0999 V2000
   -0.6908   -1.4891   -3.3190 C   0  0  0  0  0  0  0  0  0  0  0  0
   -0.4322   -2.5224   -2.3892 O   0  0  0  0  0  0  0  0  0  0  0  0
   -0.0984   -2.2002   -1.1122 C   0  0  0  0  0  0  0  0  0  0  0  0
   -0.0796   -0.8884   -0.6179 C   0  0  0  0  0  0  0  0  0  0  0  0
    0.2563   -0.6354    0.7146 C   0  0  0  0  0  0  0  0  0  0  0  0
    0.5737   -1.6943    1.5637 C   0  0  0  0  0  0  0  0  0  0  0  0
    0.9826   -1.3807    3.2349 Cl  0  0  0  0  0  0  0  0  0  0  0  0
    0.5627   -3.0055    1.0848 C   0  0  0  0  0  0  0  0  0  0  0  0
    0.2362   -3.2716   -0.2475 C   0  0  0  0  0  0  0  0  0  0  0  0
    0.2622   -4.6138   -0.7398 N   0  0  0  0  0  0  0  0  0  0  0  0
    1.5396   -5.2544   -1.1567 C   0  0  1  0  0  0  0  0  0  0  0  0
    2.3544   -4.3614   -2.0837 C   0  0  0  0  0  0  0  0  0  0  0  0
    2.3783   -5.6770    0.0824 C   0  0  0  0  0  0  0  0  0  0  0  0
    3.3745   -5.0567    0.4202 O   0  0  0  0  0  0  0  0  0  0  0  0
    1.8955   -6.7650    0.7396 N   0  0  0  0  0  0  0  0  0  0  0  0
    2.5176   -7.3069    1.9407 C   0  0  1  0  0  0  0  0  0  0  0  0
    1.4454   -7.6631    2.9935 C   0  0  0  0  0  0  0  0  0  0  0  0
    0.5495   -6.5053    3.4725 C   0  0  1  0  0  0  0  0  0  0  0  0
   -0.5474   -7.0369    4.4043 C   0  0  0  0  0  0  0  0  0  0  0  0
    1.3503   -5.3878    4.1542 C   0  0  0  0  0  0  0  0  0  0  0  0
    3.4129   -8.5112    1.6522 C   0  0  0  0  0  0  0  0  0  0  0  0
    4.5796   -8.7080    2.4058 C   0  0  0  0  0  0  0  0  0  0  0  0
    5.3890   -9.8282    2.1985 C   0  0  0  0  0  0  0  0  0  0  0  0
    5.0433  -10.7730    1.2278 C   0  0  0  0  0  0  0  0  0  0  0  0
    3.8851  -10.5857    0.4677 C   0  0  0  0  0  0  0  0  0  0  0  0
    3.0780   -9.4641    0.6791 C   0  0  0  0  0  0  0  0  0  0  0  0
   -1.1316   -5.5511   -0.6048 S   0  0  1  0  0  0  0  0  0  0  0  0
   -2.0483   -5.3099   -2.1310 C   0  0  0  0  0  0  0  0  0  0  0  0
   -0.7011   -6.9629   -0.6034 O   0  0  0  0  0  0  0  0  0  0  0  0
   -1.9432   -5.0163    0.4871 O   0  0  0  0  0  0  0  0  0  0  0  0
   -0.8988   -1.9796   -4.2791 H   0  0  0  0  0  0  0  0  0  0  0  0
    0.1809   -0.8222   -3.4380 H   0  0  0  0  0  0  0  0  0  0  0  0
   -1.5680   -0.8850   -3.0276 H   0  0  0  0  0  0  0  0  0  0  0  0
   -0.3292   -0.0475   -1.2643 H   0  0  0  0  0  0  0  0  0  0  0  0
    0.2673    0.3882    1.0927 H   0  0  0  0  0  0  0  0  0  0  0  0
    0.8058   -3.8330    1.7477 H   0  0  0  0  0  0  0  0  0  0  0  0
    1.2527   -6.1721   -1.6892 H   0  0  0  0  0  0  0  0  0  0  0  0
    2.7293   -3.4795   -1.5468 H   0  0  0  0  0  0  0  0  0  0  0  0
    1.7476   -4.0418   -2.9420 H   0  0  0  0  0  0  0  0  0  0  0  0
    3.2326   -4.9152   -2.4464 H   0  0  0  0  0  0  0  0  0  0  0  0
    1.0181   -7.1658    0.4082 H   0  0  0  0  0  0  0  0  0  0  0  0
    3.1662   -6.5086    2.3283 H   0  0  0  0  0  0  0  0  0  0  0  0
    1.9617   -8.1078    3.8621 H   0  0  0  0  0  0  0  0  0  0  0  0
    0.8109   -8.4685    2.5806 H   0  0  0  0  0  0  0  0  0  0  0  0
    0.0445   -6.0781    2.5877 H   0  0  0  0  0  0  0  0  0  0  0  0
   -0.1125   -7.4876    5.3135 H   0  0  0  0  0  0  0  0  0  0  0  0
   -1.1592   -7.8078    3.9086 H   0  0  0  0  0  0  0  0  0  0  0  0
   -1.2235   -6.2277    4.7235 H   0  0  0  0  0  0  0  0  0  0  0  0
    1.8664   -5.7664    5.0540 H   0  0  0  0  0  0  0  0  0  0  0  0
    0.6912   -4.5642    4.4711 H   0  0  0  0  0  0  0  0  0  0  0  0
    2.1158   -4.9518    3.4933 H   0  0  0  0  0  0  0  0  0  0  0  0
    4.8622   -7.9681    3.1607 H   0  0  0  0  0  0  0  0  0  0  0  0
    6.2976   -9.9592    2.7923 H   0  0  0  0  0  0  0  0  0  0  0  0
    5.6765  -11.6482    1.0606 H   0  0  0  0  0  0  0  0  0  0  0  0
    3.6082  -11.3163   -0.2972 H   0  0  0  0  0  0  0  0  0  0  0  0
    2.1815   -9.3248    0.0695 H   0  0  0  0  0  0  0  0  0  0  0  0
   -1.4299   -5.6520   -2.9701 H   0  0  0  0  0  0  0  0  0  0  0  0
   -2.2863   -4.2449   -2.2269 H   0  0  0  0  0  0  0  0  0  0  0  0
   -2.9572   -5.9202   -2.0408 H   0  0  0  0  0  0  0  0  0  0  0  0
  1  2  1  0
  1 31  1  0
  1 32  1  0
  1 33  1  0
  2  3  1  0
  3  4  2  0
  3  9  1  0
  4  5  1  0
  4 34  1  0
  5  6  2  0
  5 35  1  0
  6  7  1  0
  6  8  1  0
  8  9  2  0
  8 36  1  0
  9 10  1  0
 10 11  1  0
 27 10  1  6
 11 12  1  0
 11 13  1  0
 11 37  1  6
 12 38  1  0
 12 39  1  0
 12 40  1  0
 13 14  2  0
 13 15  1  0
 15 16  1  0
 15 41  1  0
 16 17  1  0
 16 21  1  0
 16 42  1  1
 17 18  1  0
 17 43  1  0
 17 44  1  0
 18 19  1  0
 18 20  1  0
 18 45  1  6
 19 46  1  0
 19 47  1  0
 19 48  1  0
 20 49  1  0
 20 50  1  0
 20 51  1  0
 21 22  2  0
 21 26  1  0
 22 23  1  0
 22 52  1  0
 23 24  2  0
 23 53  1  0
 24 25  1  0
 24 54  1  0
 25 26  2  0
 25 55  1  0
 26 56  1  0
 27 28  1  0
 27 29  2  0
 27 30  2  0
 28 57  1  0
 28 58  1  0
 28 59  1  0
M  END

