
     RDKit          3D

 67 69  0  0  0  0  0  0  0  0999 V2000
    1.8603   -6.2809   -1.9260 C   0  0  0  0  0  0  0  0  0  0  0  0
    2.2005   -5.5303   -3.1864 C   0  0  0  0  0  0  0  0  0  0  0  0
    3.1697   -6.0321   -4.0684 C   0  0  0  0  0  0  0  0  0  0  0  0
    3.5342   -5.3366   -5.2203 C   0  0  0  0  0  0  0  0  0  0  0  0
    2.9286   -4.1139   -5.5131 C   0  0  0  0  0  0  0  0  0  0  0  0
    1.9433   -3.5827   -4.6722 C   0  0  0  0  0  0  0  0  0  0  0  0
    1.2767   -2.2693   -5.0030 C   0  0  0  0  0  0  0  0  0  0  0  0
    1.5808   -4.3040   -3.5119 C   0  0  0  0  0  0  0  0  0  0  0  0
    0.5949   -3.7380   -2.6522 N   0  0  0  0  0  0  0  0  0  0  0  0
   -0.6104   -4.3088   -2.3065 C   0  0  0  0  0  0  0  0  0  0  0  0
   -0.9606   -5.4178   -2.6642 O   0  0  0  0  0  0  0  0  0  0  0  0
   -1.4726   -3.4296   -1.3720 C   0  0  0  0  0  0  0  0  0  0  0  0
   -2.8560   -3.8010   -1.2575 N   0  0  0  0  0  0  0  0  0  0  0  0
   -3.6297   -3.6140   -2.4721 C   0  0  0  0  0  0  0  0  0  0  0  0
   -3.1482   -5.0333   -0.5259 C   0  0  0  0  0  0  0  0  0  0  0  0
   -4.3745   -4.8595    0.3956 C   0  0  0  0  0  0  0  0  0  0  0  0
   -4.7865   -6.0331    1.1579 N   0  0  0  0  0  0  0  0  0  0  0  0
   -5.3388   -7.1089    0.3534 C   0  0  0  0  0  0  0  0  0  0  0  0
   -3.9027   -6.3693    2.2748 C   0  0  1  0  0  0  0  0  0  0  0  0
   -3.9745   -5.2919    3.3563 C   0  0  0  0  0  0  0  0  0  0  0  0
   -2.8009   -4.8746    4.0454 C   0  0  0  0  0  0  0  0  0  0  0  0
   -2.8612   -3.9493    5.0656 C   0  0  0  0  0  0  0  0  0  0  0  0
   -4.1021   -3.3805    5.4664 C   0  0  0  0  0  0  0  0  0  0  0  0
   -4.2051   -2.4245    6.5156 C   0  0  0  0  0  0  0  0  0  0  0  0
   -5.4274   -1.8909    6.8672 C   0  0  0  0  0  0  0  0  0  0  0  0
   -6.6044   -2.2879    6.1817 C   0  0  0  0  0  0  0  0  0  0  0  0
   -6.5373   -3.2111    5.1593 C   0  0  0  0  0  0  0  0  0  0  0  0
   -5.2923   -3.7850    4.7736 C   0  0  0  0  0  0  0  0  0  0  0  0
   -5.1910   -4.7398    3.7235 C   0  0  0  0  0  0  0  0  0  0  0  0
   -4.2121   -7.7723    2.8839 C   0  0  1  0  0  0  0  0  0  0  0  0
   -3.2059   -8.2049    3.9522 C   0  0  0  0  0  0  0  0  0  0  0  0
   -5.5391   -7.8736    3.3625 O   0  0  0  0  0  0  0  0  0  0  0  0
    2.6167   -7.0490   -1.7096 H   0  0  0  0  0  0  0  0  0  0  0  0
    0.8748   -6.7641   -2.0147 H   0  0  0  0  0  0  0  0  0  0  0  0
    1.8019   -5.5993   -1.0618 H   0  0  0  0  0  0  0  0  0  0  0  0
    3.6550   -6.9828   -3.8313 H   0  0  0  0  0  0  0  0  0  0  0  0
    4.2961   -5.7450   -5.8890 H   0  0  0  0  0  0  0  0  0  0  0  0
    3.2132   -3.5642   -6.4144 H   0  0  0  0  0  0  0  0  0  0  0  0
    1.5959   -1.9037   -5.9893 H   0  0  0  0  0  0  0  0  0  0  0  0
    1.5249   -1.4787   -4.2711 H   0  0  0  0  0  0  0  0  0  0  0  0
    0.1784   -2.3632   -5.0133 H   0  0  0  0  0  0  0  0  0  0  0  0
    0.7009   -2.7528   -2.4339 H   0  0  0  0  0  0  0  0  0  0  0  0
   -1.4015   -2.3762   -1.7054 H   0  0  0  0  0  0  0  0  0  0  0  0
   -0.9984   -3.4609   -0.3740 H   0  0  0  0  0  0  0  0  0  0  0  0
   -3.5089   -2.5812   -2.8410 H   0  0  0  0  0  0  0  0  0  0  0  0
   -4.7012   -3.7555   -2.2638 H   0  0  0  0  0  0  0  0  0  0  0  0
   -3.3476   -4.3101   -3.2891 H   0  0  0  0  0  0  0  0  0  0  0  0
   -2.2682   -5.2885    0.0848 H   0  0  0  0  0  0  0  0  0  0  0  0
   -3.2897   -5.8883   -1.2138 H   0  0  0  0  0  0  0  0  0  0  0  0
   -5.2365   -4.5338   -0.2123 H   0  0  0  0  0  0  0  0  0  0  0  0
   -4.1638   -4.0316    1.0906 H   0  0  0  0  0  0  0  0  0  0  0  0
   -6.0020   -6.6672   -0.4074 H   0  0  0  0  0  0  0  0  0  0  0  0
   -5.9524   -7.7764    0.9741 H   0  0  0  0  0  0  0  0  0  0  0  0
   -4.5895   -7.7257   -0.1903 H   0  0  0  0  0  0  0  0  0  0  0  0
   -2.8404   -6.4386    1.9496 H   0  0  0  0  0  0  0  0  0  0  0  0
   -1.8347   -5.2940    3.7508 H   0  0  0  0  0  0  0  0  0  0  0  0
   -1.9474   -3.6361    5.5786 H   0  0  0  0  0  0  0  0  0  0  0  0
   -3.2959   -2.1187    7.0410 H   0  0  0  0  0  0  0  0  0  0  0  0
   -5.4937   -1.1583    7.6757 H   0  0  0  0  0  0  0  0  0  0  0  0
   -7.5673   -1.8567    6.4677 H   0  0  0  0  0  0  0  0  0  0  0  0
   -7.4434   -3.5168    4.6289 H   0  0  0  0  0  0  0  0  0  0  0  0
   -6.0863   -5.0228    3.1641 H   0  0  0  0  0  0  0  0  0  0  0  0
   -4.1494   -8.5000    2.0603 H   0  0  0  0  0  0  0  0  0  0  0  0
   -3.2318   -7.5394    4.8296 H   0  0  0  0  0  0  0  0  0  0  0  0
   -2.1751   -8.2152    3.5628 H   0  0  0  0  0  0  0  0  0  0  0  0
   -3.4577   -9.2213    4.2900 H   0  0  0  0  0  0  0  0  0  0  0  0
   -5.6605   -7.1967    4.0446 H   0  0  0  0  0  0  0  0  0  0  0  0
  1  2  1  0
  1 33  1  0
  1 34  1  0
  1 35  1  0
  2  3  2  0
  2  8  1  0
  3  4  1  0
  3 36  1  0
  4  5  2  0
  4 37  1  0
  5  6  1  0
  5 38  1  0
  6  7  1  0
  6  8  2  0
  7 39  1  0
  7 40  1  0
  7 41  1  0
  8  9  1  0
  9 10  1  0
  9 42  1  0
 10 11  2  0
 10 12  1  0
 12 13  1  0
 12 43  1  0
 12 44  1  0
 13 14  1  0
 13 15  1  0
 14 45  1  0
 14 46  1  0
 14 47  1  0
 15 16  1  0
 15 48  1  0
 15 49  1  0
 16 17  1  0
 16 50  1  0
 16 51  1  0
 17 18  1  0
 17 19  1  0
 18 52  1  0
 18 53  1  0
 18 54  1  0
 19 20  1  0
 19 30  1  0
 19 55  1  6
 20 21  2  0
 20 29  1  0
 21 22  1  0
 21 56  1  0
 22 23  2  0
 22 57  1  0
 23 24  1  0
 23 28  1  0
 24 25  2  0
 24 58  1  0
 25 26  1  0
 25 59  1  0
 26 27  2  0
 26 60  1  0
 27 28  1  0
 27 61  1  0
 28 29  2  0
 29 62  1  0
 30 31  1  0
 30 32  1  0
 30 63  1  6
 31 64  1  0
 31 65  1  0
 31 66  1  0
 32 67  1  0
M  END

