
     RDKit          3D

 33 34  0  0  0  0  0  0  0  0999 V2000
    1.1262    0.3088   -1.5252 C   0  0  0  0  0  0  0  0  0  0  0  0
    2.5695    0.4058   -1.1555 C   0  0  0  0  0  0  0  0  0  0  0  0
    3.4411   -0.6257   -1.2624 N   0  0  0  0  0  0  0  0  0  0  0  0
    3.2206   -1.5501   -1.6182 H   0  0  0  0  0  0  0  0  0  0  0  0
    4.7029   -0.3774   -0.8657 N   0  0  0  0  0  0  0  0  0  0  0  0
    4.6594    0.9023   -0.4696 C   0  0  0  0  0  0  0  0  0  0  0  0
    5.6955    1.7326    0.0502 C   0  0  0  0  0  0  0  0  0  0  0  0
    5.3442    3.0234    0.3620 C   0  0  0  0  0  0  0  0  0  0  0  0
    4.0919    3.5584    0.2100 N   0  0  0  0  0  0  0  0  0  0  0  0
    3.1263    2.8144   -0.2586 C   0  0  0  0  0  0  0  0  0  0  0  0
    1.8770    3.2956   -0.4129 O   0  0  0  0  0  0  0  0  0  0  0  0
    1.5950    4.6737   -0.0687 C   0  0  1  0  0  0  0  0  0  0  0  0
    1.9404    5.5572   -1.2629 C   0  0  0  0  0  0  0  0  0  0  0  0
    0.1212    4.7169    0.3726 C   0  0  1  0  0  0  0  0  0  0  0  0
   -0.1288    3.7858    1.5662 C   0  0  0  0  0  0  0  0  0  0  0  0
   -0.3319    6.1465    0.6995 C   0  0  0  0  0  0  0  0  0  0  0  0
    3.3422    1.4504   -0.6275 C   0  0  0  0  0  0  0  0  0  0  0  0
    0.9605   -0.4397   -2.3160 H   0  0  0  0  0  0  0  0  0  0  0  0
    0.7627    1.2826   -1.8790 H   0  0  0  0  0  0  0  0  0  0  0  0
    0.5051    0.0257   -0.6577 H   0  0  0  0  0  0  0  0  0  0  0  0
    6.7113    1.3607    0.1886 H   0  0  0  0  0  0  0  0  0  0  0  0
    6.0939    3.7131    0.7635 H   0  0  0  0  0  0  0  0  0  0  0  0
    2.2445    4.9443    0.7792 H   0  0  0  0  0  0  0  0  0  0  0  0
    1.3003    5.3186   -2.1280 H   0  0  0  0  0  0  0  0  0  0  0  0
    2.9915    5.4050   -1.5456 H   0  0  0  0  0  0  0  0  0  0  0  0
    1.8135    6.6220   -1.0182 H   0  0  0  0  0  0  0  0  0  0  0  0
   -0.4795    4.3512   -0.4817 H   0  0  0  0  0  0  0  0  0  0  0  0
    0.4396    4.1201    2.4512 H   0  0  0  0  0  0  0  0  0  0  0  0
    0.1753    2.7537    1.3416 H   0  0  0  0  0  0  0  0  0  0  0  0
   -1.1960    3.7771    1.8399 H   0  0  0  0  0  0  0  0  0  0  0  0
    0.2966    6.5913    1.4905 H   0  0  0  0  0  0  0  0  0  0  0  0
   -1.3702    6.1450    1.0671 H   0  0  0  0  0  0  0  0  0  0  0  0
   -0.2943    6.8124   -0.1754 H   0  0  0  0  0  0  0  0  0  0  0  0
  1  2  1  0
  1 18  1  0
  1 19  1  0
  1 20  1  0
  2  3  1  0
  2 17  2  0
  3  4  1  0
  3  5  1  0
  5  6  2  0
  6  7  1  0
  6 17  1  0
  7  8  2  0
  7 21  1  0
  8  9  1  0
  8 22  1  0
  9 10  2  0
 10 11  1  0
 10 17  1  0
 11 12  1  0
 12 13  1  0
 12 14  1  0
 12 23  1  1
 13 24  1  0
 13 25  1  0
 13 26  1  0
 14 15  1  0
 14 16  1  0
 14 27  1  6
 15 28  1  0
 15 29  1  0
 15 30  1  0
 16 31  1  0
 16 32  1  0
 16 33  1  0
M  END

