
     RDKit          3D

 51 53  0  0  0  0  0  0  0  0999 V2000
    1.3184    0.3747   -0.4781 C   0  0  0  0  0  0  0  0  0  0  0  0
    2.6317    0.1670   -0.3650 C   0  0  0  0  0  0  0  0  0  0  0  0
    3.2493   -0.9436    0.4297 C   0  0  0  0  0  0  0  0  0  0  0  0
    4.2521   -0.3912    1.2707 O   0  0  0  0  0  0  0  0  0  0  0  0
    4.9935   -1.2131    2.0525 C   0  0  0  0  0  0  0  0  0  0  0  0
    5.9873   -0.5569    2.8379 C   0  0  0  0  0  0  0  0  0  0  0  0
    6.8025   -1.2802    3.6719 C   0  0  0  0  0  0  0  0  0  0  0  0
    6.6809   -2.6983    3.7772 C   0  0  0  0  0  0  0  0  0  0  0  0
    7.5104   -3.4646    4.6302 C   0  0  0  0  0  0  0  0  0  0  0  0
    7.3763   -4.8446    4.7197 C   0  0  0  0  0  0  0  0  0  0  0  0
    8.2520   -5.6315    5.6166 C   0  0  0  0  0  0  0  0  0  0  0  0
    9.1776   -4.9714    6.3377 N   0  0  0  0  0  0  0  0  0  0  0  0
    9.9602   -5.6767    7.1386 C   0  0  0  0  0  0  0  0  0  0  0  0
    9.8607   -7.0797    7.2634 C   0  0  0  0  0  0  0  0  0  0  0  0
   10.7049   -7.8376    8.1261 C   0  0  0  0  0  0  0  0  0  0  0  0
   11.4285   -8.4862    8.8585 C   0  0  0  0  0  0  0  0  0  0  0  0
   12.2937   -9.2529    9.7528 C   0  0  0  0  0  0  0  0  0  0  0  0
   12.2957   -8.7404   11.2059 C   0  0  0  0  0  0  0  0  0  0  0  0
   13.2054   -9.5648   12.1185 C   0  0  0  0  0  0  0  0  0  0  0  0
   13.2705   -9.0355   13.5462 C   0  0  1  0  0  0  0  0  0  0  0  0
   14.1860   -9.8286   14.4614 C   0  0  0  0  0  0  0  0  0  0  0  0
   13.7269   -7.7147   13.5062 F   0  0  0  0  0  0  0  0  0  0  0  0
    8.8587   -7.6689    6.4646 C   0  0  0  0  0  0  0  0  0  0  0  0
    8.0746   -6.9642    5.6619 N   0  0  0  0  0  0  0  0  0  0  0  0
    6.3809   -5.4944    3.9335 C   0  0  0  0  0  0  0  0  0  0  0  0
    5.5617   -4.7716    3.0964 C   0  0  0  0  0  0  0  0  0  0  0  0
    5.6804   -3.3562    2.9875 C   0  0  0  0  0  0  0  0  0  0  0  0
    4.8440   -2.5891    2.1293 C   0  0  0  0  0  0  0  0  0  0  0  0
    0.9191    1.1785   -1.1024 H   0  0  0  0  0  0  0  0  0  0  0  0
    0.5897   -0.2531    0.0458 H   0  0  0  0  0  0  0  0  0  0  0  0
    3.3426    0.8150   -0.8912 H   0  0  0  0  0  0  0  0  0  0  0  0
    3.7105   -1.6867   -0.2517 H   0  0  0  0  0  0  0  0  0  0  0  0
    2.4846   -1.4720    1.0287 H   0  0  0  0  0  0  0  0  0  0  0  0
    6.0717    0.5281    2.7498 H   0  0  0  0  0  0  0  0  0  0  0  0
    7.5622   -0.7712    4.2710 H   0  0  0  0  0  0  0  0  0  0  0  0
    8.2734   -2.9692    5.2334 H   0  0  0  0  0  0  0  0  0  0  0  0
   10.7104   -5.1289    7.7213 H   0  0  0  0  0  0  0  0  0  0  0  0
   13.3261   -9.2370    9.3572 H   0  0  0  0  0  0  0  0  0  0  0  0
   11.9815  -10.3131    9.7321 H   0  0  0  0  0  0  0  0  0  0  0  0
   11.2628   -8.7518   11.5944 H   0  0  0  0  0  0  0  0  0  0  0  0
   12.6232   -7.6894   11.2239 H   0  0  0  0  0  0  0  0  0  0  0  0
   14.2319   -9.5829   11.7097 H   0  0  0  0  0  0  0  0  0  0  0  0
   12.8625  -10.6144   12.1521 H   0  0  0  0  0  0  0  0  0  0  0  0
   12.2502   -8.9989   13.9732 H   0  0  0  0  0  0  0  0  0  0  0  0
   15.2085   -9.8589   14.0527 H   0  0  0  0  0  0  0  0  0  0  0  0
   13.8248  -10.8627   14.5749 H   0  0  0  0  0  0  0  0  0  0  0  0
   14.2255   -9.3636   15.4578 H   0  0  0  0  0  0  0  0  0  0  0  0
    8.7048   -8.7541    6.4932 H   0  0  0  0  0  0  0  0  0  0  0  0
    6.2868   -6.5779    4.0137 H   0  0  0  0  0  0  0  0  0  0  0  0
    4.8023   -5.2841    2.4990 H   0  0  0  0  0  0  0  0  0  0  0  0
    4.0893   -3.1124    1.5418 H   0  0  0  0  0  0  0  0  0  0  0  0
  1  2  2  0
  1 29  1  0
  1 30  1  0
  2  3  1  0
  2 31  1  0
  3  4  1  0
  3 32  1  0
  3 33  1  0
  4  5  1  0
  5  6  2  0
  5 28  1  0
  6  7  1  0
  6 34  1  0
  7  8  2  0
  7 35  1  0
  8  9  1  0
  8 27  1  0
  9 10  2  0
  9 36  1  0
 10 11  1  0
 10 25  1  0
 11 12  2  0
 11 24  1  0
 12 13  1  0
 13 14  2  0
 13 37  1  0
 14 15  1  0
 14 23  1  0
 15 16  3  0
 16 17  1  0
 17 18  1  0
 17 38  1  0
 17 39  1  0
 18 19  1  0
 18 40  1  0
 18 41  1  0
 19 20  1  0
 19 42  1  0
 19 43  1  0
 20 21  1  0
 20 22  1  0
 20 44  1  1
 21 45  1  0
 21 46  1  0
 21 47  1  0
 23 24  2  0
 23 48  1  0
 25 26  2  0
 25 49  1  0
 26 27  1  0
 26 50  1  0
 27 28  2  0
 28 51  1  0
M  END

