
     RDKit          3D

 30 30  0  0  0  0  0  0  0  0999 V2000
    1.2561   -0.2398    0.5432 C   0  0  0  0  0  0  0  0  0  0  0  0
    2.7099   -0.1960    0.1607 C   0  0  0  0  0  0  0  0  0  0  0  0
    3.4452    1.0169    0.2151 C   0  0  0  0  0  0  0  0  0  0  0  0
    2.8127    2.1894    0.5941 N   0  0  0  0  0  0  0  0  0  0  0  0
    4.7975    1.0264   -0.1664 C   0  0  0  0  0  0  0  0  0  0  0  0
    5.4285   -0.1444   -0.5997 C   0  0  0  0  0  0  0  0  0  0  0  0
    6.8649   -0.0502   -0.9856 C   0  0  0  0  0  0  0  0  0  0  0  0
    7.5253    0.9630   -0.9464 O   0  0  0  0  0  0  0  0  0  0  0  0
    7.3693   -1.2375   -1.3998 O   0  0  0  0  0  0  0  0  0  0  0  0
    8.7414   -1.2610   -1.8014 C   0  0  0  0  0  0  0  0  0  0  0  0
    9.6928   -1.3767   -0.6195 C   0  0  0  0  0  0  0  0  0  0  0  0
    9.2971   -2.8730    0.3807 S   0  0  0  0  0  0  0  0  0  0  0  0
   10.8692   -2.9877    1.2834 C   0  0  1  0  0  0  0  0  0  0  0  0
   11.9248   -3.1635    0.4703 F   0  0  0  0  0  0  0  0  0  0  0  0
   11.1287   -1.8914    2.0115 F   0  0  0  0  0  0  0  0  0  0  0  0
   10.8025   -4.0341    2.1087 F   0  0  0  0  0  0  0  0  0  0  0  0
    4.7219   -1.3538   -0.6560 C   0  0  0  0  0  0  0  0  0  0  0  0
    3.3859   -1.3407   -0.2727 C   0  0  0  0  0  0  0  0  0  0  0  0
    2.7024   -2.4996   -0.3261 F   0  0  0  0  0  0  0  0  0  0  0  0
    0.6710    0.4879   -0.0452 H   0  0  0  0  0  0  0  0  0  0  0  0
    1.1085    0.0112    1.6100 H   0  0  0  0  0  0  0  0  0  0  0  0
    0.8317   -1.2375    0.3781 H   0  0  0  0  0  0  0  0  0  0  0  0
    1.9989    2.1114    1.1914 H   0  0  0  0  0  0  0  0  0  0  0  0
    3.4127    2.9709    0.8291 H   0  0  0  0  0  0  0  0  0  0  0  0
    5.3784    1.9502   -0.1315 H   0  0  0  0  0  0  0  0  0  0  0  0
    8.9800   -0.3418   -2.3579 H   0  0  0  0  0  0  0  0  0  0  0  0
    8.8329   -2.1316   -2.4661 H   0  0  0  0  0  0  0  0  0  0  0  0
    9.6325   -0.4823    0.0153 H   0  0  0  0  0  0  0  0  0  0  0  0
   10.7197   -1.4783   -1.0011 H   0  0  0  0  0  0  0  0  0  0  0  0
    5.1892   -2.2805   -0.9837 H   0  0  0  0  0  0  0  0  0  0  0  0
  1  2  1  0
  1 20  1  0
  1 21  1  0
  1 22  1  0
  2  3  2  0
  2 18  1  0
  3  4  1  0
  3  5  1  0
  4 23  1  0
  4 24  1  0
  5  6  2  0
  5 25  1  0
  6  7  1  0
  6 17  1  0
  7  8  2  0
  7  9  1  0
  9 10  1  0
 10 11  1  0
 10 26  1  0
 10 27  1  0
 11 12  1  0
 11 28  1  0
 11 29  1  0
 12 13  1  0
 13 14  1  6
 13 15  1  0
 13 16  1  0
 17 18  2  0
 17 30  1  0
 18 19  1  0
M  END

