
     RDKit          3D

 28 28  0  0  0  0  0  0  0  0999 V2000
    0.9683    0.0239   -0.2794 C   0  0  0  0  0  0  0  0  0  0  0  0
    2.4956   -0.0483   -0.0908 C   0  0  1  0  0  0  0  0  0  0  0  0
    3.1967    0.1589   -1.4567 C   0  0  0  0  0  0  0  0  0  0  0  0
    4.1905    0.8169   -1.6076 O   0  0  0  0  0  0  0  0  0  0  0  0
    2.6299   -0.4429   -2.5269 O   0  0  0  0  0  0  0  0  0  0  0  0
    3.0054    1.0409    0.8793 C   0  0  0  0  0  0  0  0  0  0  0  0
    4.3923    0.5793    1.3552 C   0  0  0  0  0  0  0  0  0  0  0  0
    4.4087   -0.9760    1.1975 C   0  0  2  0  0  0  0  0  0  0  0  0
    5.5673   -1.4479    0.4321 C   0  0  0  0  0  0  0  0  0  0  0  0
    6.4957   -1.8407   -0.1399 N   0  0  0  0  0  0  0  0  0  0  0  0
    3.0070   -1.3929    0.5886 C   0  0  1  0  0  0  0  0  0  0  0  0
    2.0912   -1.7893    1.7662 C   0  0  0  0  0  0  0  0  0  0  0  0
    3.0935   -2.5925   -0.3673 C   0  0  0  0  0  0  0  0  0  0  0  0
    0.6856    0.9246   -0.8463 H   0  0  0  0  0  0  0  0  0  0  0  0
    0.4524    0.0725    0.6893 H   0  0  0  0  0  0  0  0  0  0  0  0
    0.5537   -0.8518   -0.8096 H   0  0  0  0  0  0  0  0  0  0  0  0
    1.8345   -0.9281   -2.2688 H   0  0  0  0  0  0  0  0  0  0  0  0
    2.3048    1.1189    1.7251 H   0  0  0  0  0  0  0  0  0  0  0  0
    3.0457    2.0276    0.3969 H   0  0  0  0  0  0  0  0  0  0  0  0
    4.5926    0.8711    2.3963 H   0  0  0  0  0  0  0  0  0  0  0  0
    5.1706    1.0236    0.7244 H   0  0  0  0  0  0  0  0  0  0  0  0
    4.5040   -1.4570    2.1843 H   0  0  0  0  0  0  0  0  0  0  0  0
    1.9761   -0.9824    2.5058 H   0  0  0  0  0  0  0  0  0  0  0  0
    2.5204   -2.6580    2.2897 H   0  0  0  0  0  0  0  0  0  0  0  0
    1.0882   -2.0820    1.4224 H   0  0  0  0  0  0  0  0  0  0  0  0
    3.7678   -2.4187   -1.2164 H   0  0  0  0  0  0  0  0  0  0  0  0
    2.0965   -2.8541   -0.7599 H   0  0  0  0  0  0  0  0  0  0  0  0
    3.4663   -3.4799    0.1678 H   0  0  0  0  0  0  0  0  0  0  0  0
  1  2  1  0
  1 14  1  0
  1 15  1  0
  1 16  1  0
  2  3  1  6
  2  6  1  0
  2 11  1  0
  3  4  2  0
  3  5  1  0
  5 17  1  0
  6  7  1  0
  6 18  1  0
  6 19  1  0
  7  8  1  0
  7 20  1  0
  7 21  1  0
  8  9  1  0
  8 11  1  0
  8 22  1  1
  9 10  3  0
 11 12  1  1
 11 13  1  0
 12 23  1  0
 12 24  1  0
 12 25  1  0
 13 26  1  0
 13 27  1  0
 13 28  1  0
M  END

