
     RDKit          3D

 42 46  0  0  0  0  0  0  0  0999 V2000
    5.5964    0.0056   -1.7318 C   0  0  0  0  0  0  0  0  0  0  0  0
    4.3889    0.0916   -0.7994 C   0  0  0  0  0  0  0  0  0  0  0  0
    3.0585   -0.2692   -1.4848 C   0  0  2  0  0  0  0  0  0  0  0  0
    3.1283   -1.2696   -1.9317 H   0  0  0  0  0  0  0  0  0  0  0  0
    2.6743    0.6769   -2.5956 C   0  0  0  0  0  0  0  0  0  0  0  0
    2.2276    0.2373   -3.8053 N   0  0  0  0  0  0  0  0  0  0  0  0
    1.9899    1.3542   -4.4694 C   0  0  0  0  0  0  0  0  0  0  0  0
    1.5201    1.6983   -5.7630 C   0  0  0  0  0  0  0  0  0  0  0  0
    1.0871    1.0467   -6.9449 C   0  0  0  0  0  0  0  0  0  0  0  0
    0.7575    1.9329   -7.8648 N   0  0  0  0  0  0  0  0  0  0  0  0
    0.9525    3.1693   -7.3451 N   0  0  0  0  0  0  0  0  0  0  0  0
    0.6743    4.3157   -8.1535 C   0  0  0  0  0  0  0  0  0  0  0  0
    0.3202    4.1174   -9.4974 C   0  0  0  0  0  0  0  0  0  0  0  0
    0.0397    5.2180  -10.3066 C   0  0  0  0  0  0  0  0  0  0  0  0
    0.1093    6.5168   -9.7930 C   0  0  0  0  0  0  0  0  0  0  0  0
    0.4630    6.7044   -8.4550 C   0  0  0  0  0  0  0  0  0  0  0  0
    0.7458    5.6144   -7.6277 C   0  0  0  0  0  0  0  0  0  0  0  0
    1.4215    3.0766   -6.0547 C   0  0  0  0  0  0  0  0  0  0  0  0
    1.7382    4.0932   -5.2119 N   0  0  0  0  0  0  0  0  0  0  0  0
    2.1677    3.7561   -4.0345 C   0  0  0  0  0  0  0  0  0  0  0  0
    2.2976    2.4446   -3.6504 N   0  0  0  0  0  0  0  0  0  0  0  0
    2.7405    1.9967   -2.4519 N   0  0  0  0  0  0  0  0  0  0  0  0
    1.9707   -0.3869   -0.5059 N   0  0  0  0  0  0  0  0  0  0  0  0
    1.2588    0.6091    0.0911 C   0  0  0  0  0  0  0  0  0  0  0  0
    0.4401   -0.0167    1.0175 C   0  0  0  0  0  0  0  0  0  0  0  0
   -0.8122    0.8036    2.1590 Br  0  0  0  0  0  0  0  0  0  0  0  0
    0.7389   -1.3950    0.9093 C   0  0  0  0  0  0  0  0  0  0  0  0
    1.6723   -1.6000   -0.0143 N   0  0  0  0  0  0  0  0  0  0  0  0
    6.5254    0.2284   -1.1847 H   0  0  0  0  0  0  0  0  0  0  0  0
    5.5227    0.7247   -2.5630 H   0  0  0  0  0  0  0  0  0  0  0  0
    5.6994   -1.0023   -2.1665 H   0  0  0  0  0  0  0  0  0  0  0  0
    4.3054    1.1054   -0.3746 H   0  0  0  0  0  0  0  0  0  0  0  0
    4.5118   -0.6042    0.0461 H   0  0  0  0  0  0  0  0  0  0  0  0
    1.0050   -0.0197   -7.1482 H   0  0  0  0  0  0  0  0  0  0  0  0
    0.2673    3.1023   -9.8872 H   0  0  0  0  0  0  0  0  0  0  0  0
   -0.2355    5.0547  -11.3515 H   0  0  0  0  0  0  0  0  0  0  0  0
   -0.1111    7.3754  -10.4316 H   0  0  0  0  0  0  0  0  0  0  0  0
    0.5206    7.7135   -8.0394 H   0  0  0  0  0  0  0  0  0  0  0  0
    1.0240    5.7670   -6.5875 H   0  0  0  0  0  0  0  0  0  0  0  0
    2.4490    4.5011   -3.2850 H   0  0  0  0  0  0  0  0  0  0  0  0
    1.3782    1.6535   -0.1830 H   0  0  0  0  0  0  0  0  0  0  0  0
    0.3061   -2.2273    1.4627 H   0  0  0  0  0  0  0  0  0  0  0  0
  1  2  1  0
  1 29  1  0
  1 30  1  0
  1 31  1  0
  2  3  1  0
  2 32  1  0
  2 33  1  0
  3  4  1  6
  3  5  1  0
  3 23  1  0
  5  6  1  0
  5 22  2  0
  6  7  2  0
  7  8  1  0
  7 21  1  0
  8  9  1  0
  8 18  2  0
  9 10  2  0
  9 34  1  0
 10 11  1  0
 11 12  1  0
 11 18  1  0
 12 13  2  0
 12 17  1  0
 13 14  1  0
 13 35  1  0
 14 15  2  0
 14 36  1  0
 15 16  1  0
 15 37  1  0
 16 17  2  0
 16 38  1  0
 17 39  1  0
 18 19  1  0
 19 20  2  0
 20 21  1  0
 20 40  1  0
 21 22  1  0
 23 24  1  0
 23 28  1  0
 24 25  2  0
 24 41  1  0
 25 26  1  0
 25 27  1  0
 27 28  2  0
 27 42  1  0
M  END

