
     RDKit          3D

 82 86  0  0  0  0  0  0  0  0999 V2000
    4.1087    0.6585   -6.2925 C   0  0  0  0  0  0  0  0  0  0  0  0
    4.2870    0.7022   -4.9028 O   0  0  0  0  0  0  0  0  0  0  0  0
    3.0952    0.8849   -4.1760 C   0  0  0  0  0  0  0  0  0  0  0  0
    3.4032    0.9972   -2.6814 C   0  0  0  0  0  0  0  0  0  0  0  0
    4.1458    2.2381   -2.2659 C   0  0  0  0  0  0  0  0  0  0  0  0
    3.6039    3.3994   -1.7775 C   0  0  0  0  0  0  0  0  0  0  0  0
    4.7226    4.2953   -1.5199 C   0  0  0  0  0  0  0  0  0  0  0  0
    5.9000    3.6928   -1.8181 N   0  0  0  0  0  0  0  0  0  0  0  0
    5.6037    2.4630   -2.2702 C   0  0  0  0  0  0  0  0  0  0  0  0
    6.5898    1.5471   -2.8016 C   0  0  0  0  0  0  0  0  0  0  0  0
    7.9488    1.6724   -2.6654 C   0  0  0  0  0  0  0  0  0  0  0  0
    8.5257    2.5497   -1.6702 C   0  0  0  0  0  0  0  0  0  0  0  0
    9.2495    3.6771   -2.0066 N   0  0  0  0  0  0  0  0  0  0  0  0
    9.3117    4.0056   -2.9635 H   0  0  0  0  0  0  0  0  0  0  0  0
    9.2413    4.5504   -0.9365 C   0  0  0  0  0  0  0  0  0  0  0  0
    8.7009    3.8617    0.1596 C   0  0  0  0  0  0  0  0  0  0  0  0
    8.2537    2.6113   -0.2854 C   0  0  0  0  0  0  0  0  0  0  0  0
    7.5762    1.5527    0.5348 C   0  0  0  0  0  0  0  0  0  0  0  0
    8.4076    1.0210    1.7001 C   0  0  0  0  0  0  0  0  0  0  0  0
    8.5715    2.0331    2.6661 O   0  0  0  0  0  0  0  0  0  0  0  0
    9.3846    1.6641    3.7446 C   0  0  0  0  0  0  0  0  0  0  0  0
    9.3607    5.9767   -1.0874 C   0  0  0  0  0  0  0  0  0  0  0  0
    8.3902    6.7181   -0.5340 N   0  0  0  0  0  0  0  0  0  0  0  0
    8.6022    8.0090   -0.9125 C   0  0  0  0  0  0  0  0  0  0  0  0
    7.6125    8.9986   -0.6807 C   0  0  0  0  0  0  0  0  0  0  0  0
    7.9870   10.3197   -0.7998 O   0  0  0  0  0  0  0  0  0  0  0  0
    8.7709   10.8451    0.2600 C   0  0  0  0  0  0  0  0  0  0  0  0
    6.2344    8.8195   -0.4429 C   0  0  0  0  0  0  0  0  0  0  0  0
    5.3787    7.7110   -0.5800 C   0  0  0  0  0  0  0  0  0  0  0  0
    5.7454    6.4265   -0.8738 N   0  0  0  0  0  0  0  0  0  0  0  0
    6.7487    6.1558   -0.8070 H   0  0  0  0  0  0  0  0  0  0  0  0
    4.6507    5.6379   -1.0930 C   0  0  0  0  0  0  0  0  0  0  0  0
    3.4946    6.4634   -0.8771 C   0  0  0  0  0  0  0  0  0  0  0  0
    3.9212    7.7367   -0.5591 C   0  0  0  0  0  0  0  0  0  0  0  0
    3.0588    8.9353   -0.2767 C   0  0  0  0  0  0  0  0  0  0  0  0
    2.0245    9.2523   -1.3554 C   0  0  0  0  0  0  0  0  0  0  0  0
    1.0402    8.2453   -1.3774 O   0  0  0  0  0  0  0  0  0  0  0  0
    0.0713    8.4204   -2.3762 C   0  0  0  0  0  0  0  0  0  0  0  0
    9.8244    8.1045   -1.7189 C   0  0  0  0  0  0  0  0  0  0  0  0
   10.4304    9.3429   -2.3198 C   0  0  0  0  0  0  0  0  0  0  0  0
   11.6106    9.1044   -3.2687 C   0  0  0  0  0  0  0  0  0  0  0  0
   11.3567    8.2516   -4.3626 O   0  0  0  0  0  0  0  0  0  0  0  0
   10.4511    8.7479   -5.3126 C   0  0  0  0  0  0  0  0  0  0  0  0
   10.2615    6.8003   -1.8576 C   0  0  0  0  0  0  0  0  0  0  0  0
    5.0961    0.5166   -6.7558 H   0  0  0  0  0  0  0  0  0  0  0  0
    3.6676    1.5977   -6.6835 H   0  0  0  0  0  0  0  0  0  0  0  0
    3.4507   -0.1799   -6.6012 H   0  0  0  0  0  0  0  0  0  0  0  0
    2.4082    0.0283   -4.3483 H   0  0  0  0  0  0  0  0  0  0  0  0
    2.5686    1.7994   -4.5207 H   0  0  0  0  0  0  0  0  0  0  0  0
    3.9571    0.0922   -2.3794 H   0  0  0  0  0  0  0  0  0  0  0  0
    2.4380    0.9628   -2.1495 H   0  0  0  0  0  0  0  0  0  0  0  0
    2.5486    3.6157   -1.6113 H   0  0  0  0  0  0  0  0  0  0  0  0
    6.1976    0.7819   -3.4774 H   0  0  0  0  0  0  0  0  0  0  0  0
    8.6032    1.1373   -3.3658 H   0  0  0  0  0  0  0  0  0  0  0  0
    8.6215    4.2573    1.1678 H   0  0  0  0  0  0  0  0  0  0  0  0
    7.3046    0.7030   -0.1100 H   0  0  0  0  0  0  0  0  0  0  0  0
    6.6334    1.9517    0.9483 H   0  0  0  0  0  0  0  0  0  0  0  0
    9.3958    0.6688    1.3357 H   0  0  0  0  0  0  0  0  0  0  0  0
    7.8967    0.1433    2.1516 H   0  0  0  0  0  0  0  0  0  0  0  0
    9.4406    2.5187    4.4352 H   0  0  0  0  0  0  0  0  0  0  0  0
   10.4139    1.4045    3.4218 H   0  0  0  0  0  0  0  0  0  0  0  0
    8.9747    0.7927    4.2968 H   0  0  0  0  0  0  0  0  0  0  0  0
    9.1008   11.8478   -0.0470 H   0  0  0  0  0  0  0  0  0  0  0  0
    9.6542   10.2186    0.4719 H   0  0  0  0  0  0  0  0  0  0  0  0
    8.1747   10.9309    1.1869 H   0  0  0  0  0  0  0  0  0  0  0  0
    5.7231    9.7650   -0.2501 H   0  0  0  0  0  0  0  0  0  0  0  0
    2.4607    6.1461   -0.9815 H   0  0  0  0  0  0  0  0  0  0  0  0
    3.6835    9.8301   -0.1365 H   0  0  0  0  0  0  0  0  0  0  0  0
    2.5142    8.7884    0.6729 H   0  0  0  0  0  0  0  0  0  0  0  0
    2.5188    9.3366   -2.3458 H   0  0  0  0  0  0  0  0  0  0  0  0
    1.5571   10.2366   -1.1395 H   0  0  0  0  0  0  0  0  0  0  0  0
   -0.6474    7.5914   -2.2991 H   0  0  0  0  0  0  0  0  0  0  0  0
    0.5149    8.4102   -3.3926 H   0  0  0  0  0  0  0  0  0  0  0  0
   -0.4798    9.3756   -2.2560 H   0  0  0  0  0  0  0  0  0  0  0  0
   10.8064   10.0083   -1.5212 H   0  0  0  0  0  0  0  0  0  0  0  0
    9.6416    9.9344   -2.8152 H   0  0  0  0  0  0  0  0  0  0  0  0
   12.4389    8.6327   -2.7160 H   0  0  0  0  0  0  0  0  0  0  0  0
   11.9751   10.0894   -3.6301 H   0  0  0  0  0  0  0  0  0  0  0  0
   10.4476    8.0498   -6.1631 H   0  0  0  0  0  0  0  0  0  0  0  0
   10.7506    9.7497   -5.6849 H   0  0  0  0  0  0  0  0  0  0  0  0
    9.4168    8.8217   -4.9249 H   0  0  0  0  0  0  0  0  0  0  0  0
   11.1168    6.4598   -2.4377 H   0  0  0  0  0  0  0  0  0  0  0  0
  1  2  1  0
  1 45  1  0
  1 46  1  0
  1 47  1  0
  2  3  1  0
  3  4  1  0
  3 48  1  0
  3 49  1  0
  4  5  1  0
  4 50  1  0
  4 51  1  0
  5  6  2  0
  5  9  1  0
  6  7  1  0
  6 52  1  0
  7  8  2  0
  7 32  1  0
  8  9  1  0
  9 10  2  0
 10 11  1  0
 10 53  1  0
 11 12  2  0
 11 54  1  0
 12 13  1  0
 12 17  1  0
 13 14  1  0
 13 15  1  0
 15 16  1  0
 15 22  2  0
 16 17  2  0
 16 55  1  0
 17 18  1  0
 18 19  1  0
 18 56  1  0
 18 57  1  0
 19 20  1  0
 19 58  1  0
 19 59  1  0
 20 21  1  0
 21 60  1  0
 21 61  1  0
 21 62  1  0
 22 23  1  0
 22 44  1  0
 23 24  2  0
 24 25  1  0
 24 39  1  0
 25 26  1  0
 25 28  2  0
 26 27  1  0
 27 63  1  0
 27 64  1  0
 27 65  1  0
 28 29  1  0
 28 66  1  0
 29 30  1  0
 29 34  2  0
 30 31  1  0
 30 32  1  0
 32 33  2  0
 33 34  1  0
 33 67  1  0
 34 35  1  0
 35 36  1  0
 35 68  1  0
 35 69  1  0
 36 37  1  0
 36 70  1  0
 36 71  1  0
 37 38  1  0
 38 72  1  0
 38 73  1  0
 38 74  1  0
 39 40  1  0
 39 44  2  0
 40 41  1  0
 40 75  1  0
 40 76  1  0
 41 42  1  0
 41 77  1  0
 41 78  1  0
 42 43  1  0
 43 79  1  0
 43 80  1  0
 43 81  1  0
 44 82  1  0
M  END

