
     RDKit          3D

 40 43  0  0  0  0  0  0  0  0999 V2000
    5.0928   -2.2987   -0.0231 O   0  0  0  0  0  0  0  0  0  0  0  0
    4.3886   -1.3280    0.1998 C   0  0  0  0  0  0  0  0  0  0  0  0
    3.1150   -1.4122    0.7237 N   0  0  0  0  0  0  0  0  0  0  0  0
    2.4046   -2.5507    1.1431 C   0  0  0  0  0  0  0  0  0  0  0  0
    2.9420   -3.8522    1.1209 C   0  0  0  0  0  0  0  0  0  0  0  0
    2.1624   -4.9232    1.5656 C   0  0  0  0  0  0  0  0  0  0  0  0
    0.8622   -4.7376    2.0304 C   0  0  0  0  0  0  0  0  0  0  0  0
    0.3144   -3.4377    2.0553 C   0  0  0  0  0  0  0  0  0  0  0  0
   -1.0153   -3.2113    2.5255 C   0  0  0  0  0  0  0  0  0  0  0  0
   -2.1476   -3.0002    2.9233 C   0  0  0  0  0  0  0  0  0  0  0  0
   -3.4811   -2.7977    3.4011 C   0  0  0  0  0  0  0  0  0  0  0  0
   -4.2556   -3.9221    3.8583 C   0  0  0  0  0  0  0  0  0  0  0  0
   -5.5339   -3.7241    4.3156 C   0  0  0  0  0  0  0  0  0  0  0  0
   -6.0465   -2.4075    4.3197 C   0  0  0  0  0  0  0  0  0  0  0  0
   -7.2124   -1.8992    4.6893 N   0  0  0  0  0  0  0  0  0  0  0  0
   -7.1123   -0.5627    4.4575 C   0  0  0  0  0  0  0  0  0  0  0  0
   -5.8739   -0.2149    3.9362 C   0  0  0  0  0  0  0  0  0  0  0  0
   -5.1841   -1.3949    3.8450 N   0  0  0  0  0  0  0  0  0  0  0  0
   -3.9378   -1.5541    3.3945 N   0  0  0  0  0  0  0  0  0  0  0  0
    1.0955   -2.3556    1.6106 C   0  0  0  0  0  0  0  0  0  0  0  0
    4.8608    0.0706   -0.1068 C   0  0  0  0  0  0  0  0  0  0  0  0
    5.9056    0.2014   -1.0359 C   0  0  0  0  0  0  0  0  0  0  0  0
    6.4041    1.4611   -1.3673 C   0  0  0  0  0  0  0  0  0  0  0  0
    5.8767    2.6068   -0.7612 C   0  0  0  0  0  0  0  0  0  0  0  0
    4.8518    2.4857    0.1816 C   0  0  0  0  0  0  0  0  0  0  0  0
    4.3464    1.2246    0.5077 C   0  0  0  0  0  0  0  0  0  0  0  0
    2.5900   -0.5473    0.7589 H   0  0  0  0  0  0  0  0  0  0  0  0
    3.9537   -4.0035    0.7533 H   0  0  0  0  0  0  0  0  0  0  0  0
    2.5885   -5.9293    1.5444 H   0  0  0  0  0  0  0  0  0  0  0  0
    0.2635   -5.5827    2.3742 H   0  0  0  0  0  0  0  0  0  0  0  0
   -3.8054   -4.9145    3.8310 H   0  0  0  0  0  0  0  0  0  0  0  0
   -6.1658   -4.5382    4.6738 H   0  0  0  0  0  0  0  0  0  0  0  0
   -7.9388    0.1149    4.6735 H   0  0  0  0  0  0  0  0  0  0  0  0
   -5.4302    0.7281    3.6307 H   0  0  0  0  0  0  0  0  0  0  0  0
    0.6659   -1.3508    1.6343 H   0  0  0  0  0  0  0  0  0  0  0  0
    6.3127   -0.7058   -1.4859 H   0  0  0  0  0  0  0  0  0  0  0  0
    7.2107    1.5513   -2.0992 H   0  0  0  0  0  0  0  0  0  0  0  0
    6.2700    3.5938   -1.0174 H   0  0  0  0  0  0  0  0  0  0  0  0
    4.4494    3.3750    0.6728 H   0  0  0  0  0  0  0  0  0  0  0  0
    3.5697    1.1527    1.2741 H   0  0  0  0  0  0  0  0  0  0  0  0
  1  2  2  0
  2  3  1  0
  2 21  1  0
  3  4  1  0
  3 27  1  0
  4  5  2  0
  4 20  1  0
  5  6  1  0
  5 28  1  0
  6  7  2  0
  6 29  1  0
  7  8  1  0
  7 30  1  0
  8  9  1  0
  8 20  2  0
  9 10  3  0
 10 11  1  0
 11 12  1  0
 11 19  2  0
 12 13  2  0
 12 31  1  0
 13 14  1  0
 13 32  1  0
 14 15  2  0
 14 18  1  0
 15 16  1  0
 16 17  2  0
 16 33  1  0
 17 18  1  0
 17 34  1  0
 18 19  1  0
 20 35  1  0
 21 22  2  0
 21 26  1  0
 22 23  1  0
 22 36  1  0
 23 24  2  0
 23 37  1  0
 24 25  1  0
 24 38  1  0
 25 26  2  0
 25 39  1  0
 26 40  1  0
M  END

