
     RDKit          3D

 62 66  0  0  0  0  0  0  0  0999 V2000
    0.9865    0.3884    2.9876 C   0  0  0  0  0  0  0  0  0  0  0  0
    2.3812    0.2649    2.9272 O   0  0  0  0  0  0  0  0  0  0  0  0
    3.0413    1.4633    2.5955 C   0  0  0  0  0  0  0  0  0  0  0  0
    4.5350    1.1766    2.5641 C   0  0  0  0  0  0  0  0  0  0  0  0
    5.3469    2.4197    2.2170 C   0  0  0  0  0  0  0  0  0  0  0  0
    4.7936    3.4920    2.0154 O   0  0  0  0  0  0  0  0  0  0  0  0
    6.7164    2.2898    2.1325 N   0  0  0  0  0  0  0  0  0  0  0  0
    7.4699    1.0880    2.4571 C   0  0  0  0  0  0  0  0  0  0  0  0
    8.5496    0.7919    1.4061 C   0  0  0  0  0  0  0  0  0  0  0  0
    9.3757    1.9685    1.1740 N   0  0  0  0  0  0  0  0  0  0  0  0
   10.7455    2.0229    1.2806 C   0  0  0  0  0  0  0  0  0  0  0  0
   11.2902    3.2400    1.4078 N   0  0  0  0  0  0  0  0  0  0  0  0
   12.5931    3.4372    1.6006 C   0  0  0  0  0  0  0  0  0  0  0  0
   13.0577    4.8535    1.6385 C   0  0  1  0  0  0  0  0  0  0  0  0
   12.2801    5.9258    0.9011 C   0  0  0  0  0  0  0  0  0  0  0  0
   12.2426    5.8977    2.3933 C   0  0  0  0  0  0  0  0  0  0  0  0
   13.5008    2.3506    1.7485 C   0  0  0  0  0  0  0  0  0  0  0  0
   14.9336    2.4918    2.0580 C   0  0  0  0  0  0  0  0  0  0  0  0
   16.0210    1.8632    1.4801 C   0  0  0  0  0  0  0  0  0  0  0  0
   17.1982    2.2999    2.1761 C   0  0  0  0  0  0  0  0  0  0  0  0
   18.5754    2.0270    2.0532 C   0  0  0  0  0  0  0  0  0  0  0  0
   19.4666    2.6408    2.9271 C   0  0  0  0  0  0  0  0  0  0  0  0
   19.0132    3.5292    3.9276 C   0  0  0  0  0  0  0  0  0  0  0  0
   17.6600    3.8247    4.0709 C   0  0  0  0  0  0  0  0  0  0  0  0
   16.7641    3.2066    3.1877 C   0  0  0  0  0  0  0  0  0  0  0  0
   15.3934    3.3096    3.0838 N   0  0  0  0  0  0  0  0  0  0  0  0
   14.7947    3.8091    3.7277 H   0  0  0  0  0  0  0  0  0  0  0  0
   12.9685    1.0784    1.5231 C   0  0  0  0  0  0  0  0  0  0  0  0
   11.6089    0.8751    1.2434 C   0  0  0  0  0  0  0  0  0  0  0  0
   11.2042   -0.4422    0.8620 C   0  0  0  0  0  0  0  0  0  0  0  0
   10.9262   -1.5236    0.5355 N   0  0  0  0  0  0  0  0  0  0  0  0
    8.5864    3.1444    0.8060 C   0  0  0  0  0  0  0  0  0  0  0  0
    7.5214    3.4911    1.8558 C   0  0  2  0  0  0  0  0  0  0  0  0
    8.0979    4.1102    3.1345 C   0  0  0  0  0  0  0  0  0  0  0  0
    0.5709   -0.5954    3.2516 H   0  0  0  0  0  0  0  0  0  0  0  0
    0.5535    0.7048    2.0164 H   0  0  0  0  0  0  0  0  0  0  0  0
    0.6658    1.1237    3.7541 H   0  0  0  0  0  0  0  0  0  0  0  0
    2.8215    2.2612    3.3323 H   0  0  0  0  0  0  0  0  0  0  0  0
    2.7057    1.8484    1.6122 H   0  0  0  0  0  0  0  0  0  0  0  0
    4.7284    0.3708    1.8358 H   0  0  0  0  0  0  0  0  0  0  0  0
    4.8431    0.7784    3.5460 H   0  0  0  0  0  0  0  0  0  0  0  0
    6.7985    0.2237    2.5161 H   0  0  0  0  0  0  0  0  0  0  0  0
    7.9553    1.1915    3.4464 H   0  0  0  0  0  0  0  0  0  0  0  0
    8.0673    0.4776    0.4613 H   0  0  0  0  0  0  0  0  0  0  0  0
    9.1535   -0.0487    1.7589 H   0  0  0  0  0  0  0  0  0  0  0  0
   14.1406    4.9779    1.6602 H   0  0  0  0  0  0  0  0  0  0  0  0
   11.3888    5.5961    0.3629 H   0  0  0  0  0  0  0  0  0  0  0  0
   12.8650    6.7043    0.4038 H   0  0  0  0  0  0  0  0  0  0  0  0
   11.3261    5.5383    2.8685 H   0  0  0  0  0  0  0  0  0  0  0  0
   12.7910    6.6608    2.9534 H   0  0  0  0  0  0  0  0  0  0  0  0
   15.9779    1.1867    0.6290 H   0  0  0  0  0  0  0  0  0  0  0  0
   18.9356    1.3397    1.2834 H   0  0  0  0  0  0  0  0  0  0  0  0
   20.5364    2.4342    2.8425 H   0  0  0  0  0  0  0  0  0  0  0  0
   19.7378    3.9940    4.6009 H   0  0  0  0  0  0  0  0  0  0  0  0
   17.3115    4.5141    4.8442 H   0  0  0  0  0  0  0  0  0  0  0  0
   13.6301    0.2103    1.5522 H   0  0  0  0  0  0  0  0  0  0  0  0
    8.0765    2.9265   -0.1511 H   0  0  0  0  0  0  0  0  0  0  0  0
    9.2642    3.9902    0.6585 H   0  0  0  0  0  0  0  0  0  0  0  0
    6.8259    4.2126    1.4066 H   0  0  0  0  0  0  0  0  0  0  0  0
    8.8266    3.4488    3.6285 H   0  0  0  0  0  0  0  0  0  0  0  0
    7.2880    4.3338    3.8450 H   0  0  0  0  0  0  0  0  0  0  0  0
    8.6143    5.0538    2.8993 H   0  0  0  0  0  0  0  0  0  0  0  0
  1  2  1  0
  1 35  1  0
  1 36  1  0
  1 37  1  0
  2  3  1  0
  3  4  1  0
  3 38  1  0
  3 39  1  0
  4  5  1  0
  4 40  1  0
  4 41  1  0
  5  6  2  0
  5  7  1  0
  7  8  1  0
  7 33  1  0
  8  9  1  0
  8 42  1  0
  8 43  1  0
  9 10  1  0
  9 44  1  0
  9 45  1  0
 10 11  1  0
 10 32  1  0
 11 12  2  0
 11 29  1  0
 12 13  1  0
 13 14  1  0
 13 17  2  0
 14 15  1  0
 14 16  1  0
 14 46  1  1
 15 16  1  0
 15 47  1  0
 15 48  1  0
 16 49  1  0
 16 50  1  0
 17 18  1  0
 17 28  1  0
 18 19  2  0
 18 26  1  0
 19 20  1  0
 19 51  1  0
 20 21  2  0
 20 25  1  0
 21 22  1  0
 21 52  1  0
 22 23  2  0
 22 53  1  0
 23 24  1  0
 23 54  1  0
 24 25  2  0
 24 55  1  0
 25 26  1  0
 26 27  1  0
 28 29  2  0
 28 56  1  0
 29 30  1  0
 30 31  3  0
 32 33  1  0
 32 57  1  0
 32 58  1  0
 33 34  1  0
 33 59  1  6
 34 60  1  0
 34 61  1  0
 34 62  1  0
M  END

