
     RDKit          3D

 28 29  0  0  0  0  0  0  0  0999 V2000
    1.5624    0.0944    0.9693 O   0  0  0  0  0  0  0  0  0  0  0  0
    2.5910    0.0066    0.3569 C   0  0  0  0  0  0  0  0  0  0  0  0
    3.0887    0.9201   -0.7545 C   0  0  0  0  0  0  0  0  0  0  0  0
    4.5808    0.6130   -0.8503 C   0  0  1  0  0  0  0  0  0  0  0  0
    4.9777    0.6928   -1.8729 H   0  0  0  0  0  0  0  0  0  0  0  0
    5.4065    1.5629    0.0676 C   0  0  0  0  0  0  0  0  0  0  0  0
    4.8841    2.3939    0.7657 O   0  0  0  0  0  0  0  0  0  0  0  0
    6.7203    1.3866    0.0120 O   0  0  0  0  0  0  0  0  0  0  0  0
    4.6693   -0.8108   -0.4252 N   0  0  0  0  0  0  0  0  0  0  0  0
    5.7192   -1.6036   -0.8044 C   0  0  0  0  0  0  0  0  0  0  0  0
    6.7973   -0.9540   -1.2976 N   0  0  0  0  0  0  0  0  0  0  0  0
    7.8785   -1.5991   -1.7356 C   0  0  0  0  0  0  0  0  0  0  0  0
    7.9942   -2.9825   -1.6866 C   0  0  0  0  0  0  0  0  0  0  0  0
    9.2433   -3.6975   -2.1239 C   0  0  1  0  0  0  0  0  0  0  0  0
   10.0428   -2.8979   -2.8472 F   0  0  0  0  0  0  0  0  0  0  0  0
    9.9584   -4.1364   -1.0723 F   0  0  0  0  0  0  0  0  0  0  0  0
    8.9521   -4.7763   -2.8728 F   0  0  0  0  0  0  0  0  0  0  0  0
    6.8963   -3.6998   -1.1903 C   0  0  0  0  0  0  0  0  0  0  0  0
    5.7545   -3.0370   -0.7690 C   0  0  0  0  0  0  0  0  0  0  0  0
    4.3928   -4.0380   -0.3164 Cl  0  0  0  0  0  0  0  0  0  0  0  0
    3.6322   -1.0994    0.5643 C   0  0  0  0  0  0  0  0  0  0  0  0
    2.8772    1.9694   -0.5169 H   0  0  0  0  0  0  0  0  0  0  0  0
    2.5650    0.6444   -1.6856 H   0  0  0  0  0  0  0  0  0  0  0  0
    6.9158    0.6110   -0.5834 H   0  0  0  0  0  0  0  0  0  0  0  0
    8.6916   -0.9807   -2.1261 H   0  0  0  0  0  0  0  0  0  0  0  0
    6.9105   -4.7909   -1.1661 H   0  0  0  0  0  0  0  0  0  0  0  0
    4.0121   -1.0585    1.6027 H   0  0  0  0  0  0  0  0  0  0  0  0
    3.1538   -2.0746    0.4226 H   0  0  0  0  0  0  0  0  0  0  0  0
  1  2  2  0
  2  3  1  0
  2 21  1  0
  3  4  1  0
  3 22  1  0
  3 23  1  0
  4  5  1  6
  4  6  1  0
  4  9  1  0
  6  7  2  0
  6  8  1  0
  8 24  1  0
  9 10  1  0
  9 21  1  0
 10 11  2  0
 10 19  1  0
 11 12  1  0
 12 13  2  0
 12 25  1  0
 13 14  1  0
 13 18  1  0
 14 15  1  6
 14 16  1  0
 14 17  1  0
 18 19  2  0
 18 26  1  0
 19 20  1  0
 21 27  1  0
 21 28  1  0
M  END

