
     RDKit          3D

 46 48  0  0  0  0  0  0  0  0999 V2000
    2.7216    2.6708    0.6612 C   0  0  0  0  0  0  0  0  0  0  0  0
    3.9114    1.8470    0.6373 N   0  0  0  0  0  0  0  0  0  0  0  0
    5.1244    2.4090    0.8144 N   0  0  0  0  0  0  0  0  0  0  0  0
    5.9943    1.4086    0.7275 C   0  0  0  0  0  0  0  0  0  0  0  0
    5.3398    0.1721    0.4889 C   0  0  0  0  0  0  0  0  0  0  0  0
    3.9922    0.5031    0.4297 C   0  0  0  0  0  0  0  0  0  0  0  0
    2.8597   -0.4519    0.2199 C   0  0  0  0  0  0  0  0  0  0  0  0
    3.4238   -1.7908   -0.2927 C   0  0  0  0  0  0  0  0  0  0  0  0
    4.6776   -2.2247    0.4793 C   0  0  0  0  0  0  0  0  0  0  0  0
    5.8570   -1.2305    0.3068 C   0  0  1  0  0  0  0  0  0  0  0  0
    6.5108   -1.3517   -0.9963 N   0  0  0  0  0  0  0  0  0  0  0  0
    7.5294   -2.2456   -1.3015 C   0  0  0  0  0  0  0  0  0  0  0  0
    7.8490   -3.2685   -0.3786 C   0  0  0  0  0  0  0  0  0  0  0  0
    8.8562   -4.1985   -0.6276 C   0  0  0  0  0  0  0  0  0  0  0  0
    9.5766   -4.1360   -1.8160 C   0  0  0  0  0  0  0  0  0  0  0  0
    9.2653   -3.1323   -2.7385 C   0  0  0  0  0  0  0  0  0  0  0  0
    8.2615   -2.1731   -2.5356 C   0  0  0  0  0  0  0  0  0  0  0  0
    7.9889   -1.0975   -3.6213 C   0  0  1  0  0  0  0  0  0  0  0  0
    8.8933   -1.2820   -4.8589 C   0  0  0  0  0  0  0  0  0  0  0  0
    6.5310   -1.1940   -4.1398 C   0  0  0  0  0  0  0  0  0  0  0  0
    8.2961    0.3241   -3.0815 C   0  0  0  0  0  0  0  0  0  0  0  0
    3.0331    3.6851    0.9373 H   0  0  0  0  0  0  0  0  0  0  0  0
    1.9973    2.2990    1.4032 H   0  0  0  0  0  0  0  0  0  0  0  0
    2.2323    2.7006   -0.3265 H   0  0  0  0  0  0  0  0  0  0  0  0
    7.0605    1.6041    0.8472 H   0  0  0  0  0  0  0  0  0  0  0  0
    2.1166   -0.0463   -0.4883 H   0  0  0  0  0  0  0  0  0  0  0  0
    2.3185   -0.6098    1.1727 H   0  0  0  0  0  0  0  0  0  0  0  0
    3.6839   -1.6918   -1.3605 H   0  0  0  0  0  0  0  0  0  0  0  0
    2.6482   -2.5702   -0.2292 H   0  0  0  0  0  0  0  0  0  0  0  0
    4.9940   -3.2242    0.1457 H   0  0  0  0  0  0  0  0  0  0  0  0
    4.4415   -2.3054    1.5559 H   0  0  0  0  0  0  0  0  0  0  0  0
    6.6033   -1.4388    1.0952 H   0  0  0  0  0  0  0  0  0  0  0  0
    6.4329   -0.5313   -1.5746 H   0  0  0  0  0  0  0  0  0  0  0  0
    7.2935   -3.3418    0.5555 H   0  0  0  0  0  0  0  0  0  0  0  0
    9.0691   -4.9715    0.1159 H   0  0  0  0  0  0  0  0  0  0  0  0
   10.3699   -4.8545   -2.0342 H   0  0  0  0  0  0  0  0  0  0  0  0
    9.8425   -3.1048   -3.6613 H   0  0  0  0  0  0  0  0  0  0  0  0
    8.7405   -2.2595   -5.3411 H   0  0  0  0  0  0  0  0  0  0  0  0
    9.9614   -1.1820   -4.6130 H   0  0  0  0  0  0  0  0  0  0  0  0
    8.6534   -0.5060   -5.6028 H   0  0  0  0  0  0  0  0  0  0  0  0
    6.3607   -2.1752   -4.6105 H   0  0  0  0  0  0  0  0  0  0  0  0
    6.3434   -0.4177   -4.9000 H   0  0  0  0  0  0  0  0  0  0  0  0
    5.7749   -1.0815   -3.3516 H   0  0  0  0  0  0  0  0  0  0  0  0
    9.3523    0.3956   -2.7778 H   0  0  0  0  0  0  0  0  0  0  0  0
    7.6948    0.6197   -2.2097 H   0  0  0  0  0  0  0  0  0  0  0  0
    8.1179    1.0773   -3.8665 H   0  0  0  0  0  0  0  0  0  0  0  0
  1  2  1  0
  1 22  1  0
  1 23  1  0
  1 24  1  0
  2  3  1  0
  2  6  1  0
  3  4  2  0
  4  5  1  0
  4 25  1  0
  5  6  2  0
  5 10  1  0
  6  7  1  0
  7  8  1  0
  7 26  1  0
  7 27  1  0
  8  9  1  0
  8 28  1  0
  8 29  1  0
  9 10  1  0
  9 30  1  0
  9 31  1  0
 10 11  1  0
 10 32  1  1
 11 12  1  0
 11 33  1  0
 12 13  2  0
 12 17  1  0
 13 14  1  0
 13 34  1  0
 14 15  2  0
 14 35  1  0
 15 16  1  0
 15 36  1  0
 16 17  2  0
 16 37  1  0
 17 18  1  0
 18 19  1  6
 18 20  1  0
 18 21  1  0
 19 38  1  0
 19 39  1  0
 19 40  1  0
 20 41  1  0
 20 42  1  0
 20 43  1  0
 21 44  1  0
 21 45  1  0
 21 46  1  0
M  END

