
     RDKit          3D

 41 41  0  0  0  0  0  0  0  0999 V2000
    5.0614    1.0901    4.0430 C   0  0  0  0  0  0  0  0  0  0  0  0
    5.3562    0.5545    2.6546 C   0  0  0  0  0  0  0  0  0  0  0  0
    5.9072    1.5902    1.8698 O   0  0  0  0  0  0  0  0  0  0  0  0
    6.2228    1.2185    0.5569 C   0  0  0  0  0  0  0  0  0  0  0  0
    6.8361    2.4233   -0.1627 C   0  0  1  0  0  0  0  0  0  0  0  0
    8.1392    2.8707    0.4934 C   0  0  0  0  0  0  0  0  0  0  0  0
    7.0388    2.0164   -1.5655 N   0  0  0  0  0  0  0  0  0  0  0  0
    7.3388    3.1894   -2.7514 S   0  0  1  0  0  0  0  0  0  0  0  0
    6.7141    2.6451   -3.9612 O   0  0  0  0  0  0  0  0  0  0  0  0
    6.9883    4.5221   -2.2441 O   0  0  0  0  0  0  0  0  0  0  0  0
    9.1197    3.1448   -2.9778 C   0  0  0  0  0  0  0  0  0  0  0  0
    9.7226    1.9629   -3.4135 C   0  0  0  0  0  0  0  0  0  0  0  0
   11.1007    1.9682   -3.6311 C   0  0  0  0  0  0  0  0  0  0  0  0
   11.8463    3.1338   -3.4302 C   0  0  0  0  0  0  0  0  0  0  0  0
   11.2358    4.3279   -3.0111 C   0  0  0  0  0  0  0  0  0  0  0  0
   12.0805    5.5956   -2.8565 C   0  0  1  0  0  0  0  0  0  0  0  0
   11.4156    6.6867   -2.0037 C   0  0  0  0  0  0  0  0  0  0  0  0
   13.4268    5.2336   -2.4060 N   0  0  0  0  0  0  0  0  0  0  0  0
    9.8510    4.3179   -2.7824 C   0  0  0  0  0  0  0  0  0  0  0  0
    4.6241    0.3021    4.6757 H   0  0  0  0  0  0  0  0  0  0  0  0
    4.3515    1.9299    3.9905 H   0  0  0  0  0  0  0  0  0  0  0  0
    5.9839    1.4511    4.5236 H   0  0  0  0  0  0  0  0  0  0  0  0
    4.4276    0.1705    2.1815 H   0  0  0  0  0  0  0  0  0  0  0  0
    6.0619   -0.3013    2.7080 H   0  0  0  0  0  0  0  0  0  0  0  0
    5.3101    0.8860    0.0142 H   0  0  0  0  0  0  0  0  0  0  0  0
    6.9380    0.3687    0.5386 H   0  0  0  0  0  0  0  0  0  0  0  0
    6.1066    3.2510   -0.1015 H   0  0  0  0  0  0  0  0  0  0  0  0
    8.9038    2.0807    0.4195 H   0  0  0  0  0  0  0  0  0  0  0  0
    7.9522    3.0874    1.5545 H   0  0  0  0  0  0  0  0  0  0  0  0
    8.5281    3.7821    0.0179 H   0  0  0  0  0  0  0  0  0  0  0  0
    6.2755    1.4528   -1.9436 H   0  0  0  0  0  0  0  0  0  0  0  0
    9.1256    1.0632   -3.5719 H   0  0  0  0  0  0  0  0  0  0  0  0
   11.6005    1.0550   -3.9643 H   0  0  0  0  0  0  0  0  0  0  0  0
   12.9258    3.1363   -3.5893 H   0  0  0  0  0  0  0  0  0  0  0  0
   12.2053    6.0084   -3.8765 H   0  0  0  0  0  0  0  0  0  0  0  0
   11.1996    6.3207   -0.9858 H   0  0  0  0  0  0  0  0  0  0  0  0
   10.4733    7.0526   -2.4401 H   0  0  0  0  0  0  0  0  0  0  0  0
   12.0919    7.5520   -1.9175 H   0  0  0  0  0  0  0  0  0  0  0  0
   13.3980    4.9157   -1.4350 H   0  0  0  0  0  0  0  0  0  0  0  0
   14.0358    6.0514   -2.4270 H   0  0  0  0  0  0  0  0  0  0  0  0
    9.3150    5.2088   -2.4565 H   0  0  0  0  0  0  0  0  0  0  0  0
  1  2  1  0
  1 20  1  0
  1 21  1  0
  1 22  1  0
  2  3  1  0
  2 23  1  0
  2 24  1  0
  3  4  1  0
  4  5  1  0
  4 25  1  0
  4 26  1  0
  5  6  1  0
  5  7  1  0
  5 27  1  6
  6 28  1  0
  6 29  1  0
  6 30  1  0
  8  7  1  1
  7 31  1  0
  8  9  2  0
  8 10  2  0
  8 11  1  0
 11 12  2  0
 11 19  1  0
 12 13  1  0
 12 32  1  0
 13 14  2  0
 13 33  1  0
 14 15  1  0
 14 34  1  0
 15 16  1  0
 15 19  2  0
 16 17  1  0
 16 18  1  0
 16 35  1  6
 17 36  1  0
 17 37  1  0
 17 38  1  0
 18 39  1  0
 18 40  1  0
 19 41  1  0
M  END

