
     RDKit          3D

 71 74  0  0  0  0  0  0  0  0999 V2000
    1.3825    2.2766   -0.9858 C   0  0  0  0  0  0  0  0  0  0  0  0
    2.2463    2.1431    0.0256 C   0  0  0  0  0  0  0  0  0  0  0  0
    2.7428    0.8417    0.5940 C   0  0  0  0  0  0  0  0  0  0  0  0
    4.2834    0.7632    0.7479 C   0  0  1  0  0  0  0  0  0  0  0  0
    4.8221   -0.5517    1.4192 C   0  0  1  0  0  0  0  0  0  0  0  0
    4.3268   -0.6186    2.8609 C   0  0  0  0  0  0  0  0  0  0  0  0
    3.0168   -0.9880    3.2190 C   0  0  0  0  0  0  0  0  0  0  0  0
    2.5956   -0.9727    4.5512 C   0  0  0  0  0  0  0  0  0  0  0  0
    3.4743   -0.5830    5.5666 C   0  0  0  0  0  0  0  0  0  0  0  0
    4.7786   -0.2110    5.2327 C   0  0  0  0  0  0  0  0  0  0  0  0
    5.1930   -0.2287    3.8972 C   0  0  0  0  0  0  0  0  0  0  0  0
    4.6251   -1.8122    0.5128 C   0  0  2  0  0  0  0  0  0  0  0  0
    5.2125   -3.1585    1.0703 C   0  0  1  0  0  0  0  0  0  0  0  0
    4.5789   -3.7555    2.3529 C   0  0  0  0  0  0  0  0  0  0  0  0
    3.1932   -4.3719    2.1150 C   0  0  0  0  0  0  0  0  0  0  0  0
    3.2482   -5.4038    0.9829 C   0  0  0  0  0  0  0  0  0  0  0  0
    3.9155   -4.7810   -0.2539 C   0  0  0  0  0  0  0  0  0  0  0  0
    5.2212   -4.1846    0.0079 N   0  0  0  0  0  0  0  0  0  0  0  0
    6.3169   -5.1310    0.0818 C   0  0  0  0  0  0  0  0  0  0  0  0
    5.1771   -1.5653   -0.9396 C   0  0  2  0  0  0  0  0  0  0  0  0
    6.6535   -1.8798   -1.2106 C   0  0  0  0  0  0  0  0  0  0  0  0
    7.7295   -1.5185   -0.3823 C   0  0  0  0  0  0  0  0  0  0  0  0
    9.0506   -1.8246   -0.7293 C   0  0  0  0  0  0  0  0  0  0  0  0
    9.3368   -2.4884   -1.9244 C   0  0  0  0  0  0  0  0  0  0  0  0
    8.2818   -2.8489   -2.7679 C   0  0  0  0  0  0  0  0  0  0  0  0
    6.9657   -2.5515   -2.4074 C   0  0  0  0  0  0  0  0  0  0  0  0
    4.7606   -0.1819   -1.5018 C   0  0  0  0  0  0  0  0  0  0  0  0
    5.0082    1.0315   -0.5921 C   0  0  2  0  0  0  0  0  0  0  0  0
    6.4334    1.3649   -0.4133 N   0  0  0  0  0  0  0  0  0  0  0  0
    7.1268    1.5833   -1.6741 C   0  0  0  0  0  0  0  0  0  0  0  0
    6.6644    2.4920    0.4761 C   0  0  0  0  0  0  0  0  0  0  0  0
    1.0410    3.2598   -1.3217 H   0  0  0  0  0  0  0  0  0  0  0  0
    0.9800    1.4062   -1.5155 H   0  0  0  0  0  0  0  0  0  0  0  0
    2.6183    3.0498    0.5224 H   0  0  0  0  0  0  0  0  0  0  0  0
    2.3420    0.0059   -0.0014 H   0  0  0  0  0  0  0  0  0  0  0  0
    2.3059    0.7402    1.6003 H   0  0  0  0  0  0  0  0  0  0  0  0
    4.5351    1.5753    1.4460 H   0  0  0  0  0  0  0  0  0  0  0  0
    5.9067   -0.3878    1.4920 H   0  0  0  0  0  0  0  0  0  0  0  0
    2.3157   -1.3202    2.4518 H   0  0  0  0  0  0  0  0  0  0  0  0
    1.5734   -1.2727    4.7974 H   0  0  0  0  0  0  0  0  0  0  0  0
    3.1451   -0.5726    6.6087 H   0  0  0  0  0  0  0  0  0  0  0  0
    5.4804    0.0926    6.0141 H   0  0  0  0  0  0  0  0  0  0  0  0
    6.2192    0.0604    3.6515 H   0  0  0  0  0  0  0  0  0  0  0  0
    3.5368   -1.9456    0.3833 H   0  0  0  0  0  0  0  0  0  0  0  0
    6.2684   -2.9533    1.3020 H   0  0  0  0  0  0  0  0  0  0  0  0
    4.5503   -3.0289    3.1719 H   0  0  0  0  0  0  0  0  0  0  0  0
    5.2557   -4.5595    2.6935 H   0  0  0  0  0  0  0  0  0  0  0  0
    2.4643   -3.5842    1.8532 H   0  0  0  0  0  0  0  0  0  0  0  0
    2.8211   -4.8312    3.0463 H   0  0  0  0  0  0  0  0  0  0  0  0
    2.2386   -5.7680    0.7251 H   0  0  0  0  0  0  0  0  0  0  0  0
    3.8251   -6.2860    1.3133 H   0  0  0  0  0  0  0  0  0  0  0  0
    3.2430   -4.0016   -0.6602 H   0  0  0  0  0  0  0  0  0  0  0  0
    4.0318   -5.5299   -1.0551 H   0  0  0  0  0  0  0  0  0  0  0  0
    6.3145   -5.7688   -0.8174 H   0  0  0  0  0  0  0  0  0  0  0  0
    6.3012   -5.8080    0.9651 H   0  0  0  0  0  0  0  0  0  0  0  0
    7.2752   -4.5890    0.0948 H   0  0  0  0  0  0  0  0  0  0  0  0
    4.6445   -2.2931   -1.5658 H   0  0  0  0  0  0  0  0  0  0  0  0
    7.5482   -0.9645    0.5367 H   0  0  0  0  0  0  0  0  0  0  0  0
    9.8630   -1.5311   -0.0586 H   0  0  0  0  0  0  0  0  0  0  0  0
   10.3695   -2.7226   -2.1957 H   0  0  0  0  0  0  0  0  0  0  0  0
    8.4822   -3.3721   -3.7069 H   0  0  0  0  0  0  0  0  0  0  0  0
    6.1501   -2.8594   -3.0685 H   0  0  0  0  0  0  0  0  0  0  0  0
    3.6764   -0.2066   -1.6949 H   0  0  0  0  0  0  0  0  0  0  0  0
    5.2194   -0.0419   -2.4909 H   0  0  0  0  0  0  0  0  0  0  0  0
    4.5023    1.9015   -1.0708 H   0  0  0  0  0  0  0  0  0  0  0  0
    7.1344    0.6779   -2.2932 H   0  0  0  0  0  0  0  0  0  0  0  0
    8.1775    1.8417   -1.4737 H   0  0  0  0  0  0  0  0  0  0  0  0
    6.6832    2.4121   -2.2742 H   0  0  0  0  0  0  0  0  0  0  0  0
    6.3625    2.2723    1.5100 H   0  0  0  0  0  0  0  0  0  0  0  0
    6.1332    3.4201    0.1581 H   0  0  0  0  0  0  0  0  0  0  0  0
    7.7406    2.7207    0.4993 H   0  0  0  0  0  0  0  0  0  0  0  0
  1  2  2  0
  1 32  1  0
  1 33  1  0
  2  3  1  0
  2 34  1  0
  3  4  1  0
  3 35  1  0
  3 36  1  0
  4  5  1  0
  4 28  1  0
  4 37  1  1
  5  6  1  0
  5 12  1  0
  5 38  1  1
  6  7  2  0
  6 11  1  0
  7  8  1  0
  7 39  1  0
  8  9  2  0
  8 40  1  0
  9 10  1  0
  9 41  1  0
 10 11  2  0
 10 42  1  0
 11 43  1  0
 12 13  1  0
 12 20  1  0
 12 44  1  6
 13 14  1  0
 13 18  1  0
 13 45  1  1
 14 15  1  0
 14 46  1  0
 14 47  1  0
 15 16  1  0
 15 48  1  0
 15 49  1  0
 16 17  1  0
 16 50  1  0
 16 51  1  0
 17 18  1  0
 17 52  1  0
 17 53  1  0
 18 19  1  0
 19 54  1  0
 19 55  1  0
 19 56  1  0
 20 21  1  0
 20 27  1  0
 20 57  1  6
 21 22  2  0
 21 26  1  0
 22 23  1  0
 22 58  1  0
 23 24  2  0
 23 59  1  0
 24 25  1  0
 24 60  1  0
 25 26  2  0
 25 61  1  0
 26 62  1  0
 27 28  1  0
 27 63  1  0
 27 64  1  0
 28 29  1  0
 28 65  1  6
 29 30  1  0
 29 31  1  0
 30 66  1  0
 30 67  1  0
 30 68  1  0
 31 69  1  0
 31 70  1  0
 31 71  1  0
M  END

