
     RDKit          3D

 57 60  0  0  0  0  0  0  0  0999 V2000
    6.1551    1.7780    4.9843 C   0  0  0  0  0  0  0  0  0  0  0  0
    6.8235    1.3798    3.6926 C   0  0  0  0  0  0  0  0  0  0  0  0
    6.0850    1.3077    2.5034 C   0  0  0  0  0  0  0  0  0  0  0  0
    6.6777    0.9404    1.2927 C   0  0  0  0  0  0  0  0  0  0  0  0
    8.0426    0.6364    1.2586 C   0  0  0  0  0  0  0  0  0  0  0  0
    8.8370    0.2428   -0.2980 S   0  0  0  0  0  0  0  0  0  0  0  0
    8.9350   -1.5427   -0.2925 C   0  0  0  0  0  0  0  0  0  0  0  0
    8.2991   -2.3750    0.6384 C   0  0  0  0  0  0  0  0  0  0  0  0
    8.4096   -3.7652    0.5604 C   0  0  0  0  0  0  0  0  0  0  0  0
    9.1627   -4.3547   -0.4678 C   0  0  0  0  0  0  0  0  0  0  0  0
    9.3211   -5.7508   -0.6178 N   0  0  0  0  0  0  0  0  0  0  0  0
    8.8245   -6.7650    0.1568 C   0  0  0  0  0  0  0  0  0  0  0  0
    8.1210   -6.6061    1.1406 O   0  0  0  0  0  0  0  0  0  0  0  0
    9.2398   -8.1704   -0.2890 C   0  0  1  0  0  0  0  0  0  0  0  0
   10.1443   -8.8758    0.7405 C   0  0  0  0  0  0  0  0  0  0  0  0
    9.7760  -10.3523    0.6292 C   0  0  0  0  0  0  0  0  0  0  0  0
   10.3934  -11.2941    1.0906 O   0  0  0  0  0  0  0  0  0  0  0  0
    8.5870  -10.4303   -0.0567 N   0  0  0  0  0  0  0  0  0  0  0  0
    7.8265  -11.6591   -0.2140 C   0  0  1  0  0  0  0  0  0  0  0  0
    8.5762  -12.7411   -1.0379 C   0  0  0  0  0  0  0  0  0  0  0  0
    7.8180  -14.0735   -0.9233 C   0  0  0  0  0  0  0  0  0  0  0  0
    6.7174  -13.9192    0.5524 S   0  0  2  0  0  0  0  0  0  0  0  0
    6.9628  -14.9918    1.5206 O   0  0  0  0  0  0  0  0  0  0  0  0
    5.3594  -13.6334    0.0598 O   0  0  0  0  0  0  0  0  0  0  0  0
    7.4270  -12.3334    1.1083 C   0  0  0  0  0  0  0  0  0  0  0  0
    8.0280   -9.1242   -0.3926 C   0  0  0  0  0  0  0  0  0  0  0  0
    9.7989   -3.5208   -1.4045 C   0  0  0  0  0  0  0  0  0  0  0  0
    9.6914   -2.1365   -1.3180 C   0  0  0  0  0  0  0  0  0  0  0  0
    8.7946    0.7158    2.4400 C   0  0  0  0  0  0  0  0  0  0  0  0
    8.2069    1.0762    3.6589 C   0  0  0  0  0  0  0  0  0  0  0  0
    9.0423    1.1472    4.9133 C   0  0  0  0  0  0  0  0  0  0  0  0
    5.0838    1.9767    4.8373 H   0  0  0  0  0  0  0  0  0  0  0  0
    6.6108    2.6866    5.4135 H   0  0  0  0  0  0  0  0  0  0  0  0
    6.2501    0.9897    5.7503 H   0  0  0  0  0  0  0  0  0  0  0  0
    5.0174    1.5444    2.5250 H   0  0  0  0  0  0  0  0  0  0  0  0
    6.0859    0.8886    0.3765 H   0  0  0  0  0  0  0  0  0  0  0  0
    7.7043   -1.9396    1.4428 H   0  0  0  0  0  0  0  0  0  0  0  0
    7.9127   -4.4002    1.2902 H   0  0  0  0  0  0  0  0  0  0  0  0
    9.8926   -6.0316   -1.4057 H   0  0  0  0  0  0  0  0  0  0  0  0
    9.7549   -8.1413   -1.2632 H   0  0  0  0  0  0  0  0  0  0  0  0
    9.8972   -8.5465    1.7643 H   0  0  0  0  0  0  0  0  0  0  0  0
   11.2216   -8.7255    0.5865 H   0  0  0  0  0  0  0  0  0  0  0  0
    6.8975  -11.3918   -0.7416 H   0  0  0  0  0  0  0  0  0  0  0  0
    9.5830  -12.8429   -0.6112 H   0  0  0  0  0  0  0  0  0  0  0  0
    8.6787  -12.4221   -2.0859 H   0  0  0  0  0  0  0  0  0  0  0  0
    8.4676  -14.9418   -0.7541 H   0  0  0  0  0  0  0  0  0  0  0  0
    7.1324  -14.2750   -1.7575 H   0  0  0  0  0  0  0  0  0  0  0  0
    8.3034  -12.5451    1.7359 H   0  0  0  0  0  0  0  0  0  0  0  0
    6.6448  -11.8096    1.6734 H   0  0  0  0  0  0  0  0  0  0  0  0
    7.2467   -8.8192    0.3261 H   0  0  0  0  0  0  0  0  0  0  0  0
    7.5871   -9.1313   -1.4024 H   0  0  0  0  0  0  0  0  0  0  0  0
   10.3932   -3.9613   -2.2113 H   0  0  0  0  0  0  0  0  0  0  0  0
   10.2029   -1.5102   -2.0535 H   0  0  0  0  0  0  0  0  0  0  0  0
    9.8634    0.4909    2.4030 H   0  0  0  0  0  0  0  0  0  0  0  0
   10.0907    0.8851    4.7116 H   0  0  0  0  0  0  0  0  0  0  0  0
    8.6671    0.4595    5.6903 H   0  0  0  0  0  0  0  0  0  0  0  0
    9.0266    2.1578    5.3556 H   0  0  0  0  0  0  0  0  0  0  0  0
  1  2  1  0
  1 32  1  0
  1 33  1  0
  1 34  1  0
  2  3  2  0
  2 30  1  0
  3  4  1  0
  3 35  1  0
  4  5  2  0
  4 36  1  0
  5  6  1  0
  5 29  1  0
  6  7  1  0
  7  8  2  0
  7 28  1  0
  8  9  1  0
  8 37  1  0
  9 10  2  0
  9 38  1  0
 10 11  1  0
 10 27  1  0
 11 12  1  0
 11 39  1  0
 12 13  2  0
 12 14  1  0
 14 15  1  0
 14 26  1  0
 14 40  1  6
 15 16  1  0
 15 41  1  0
 15 42  1  0
 16 17  2  0
 16 18  1  0
 18 19  1  0
 18 26  1  0
 19 20  1  0
 19 25  1  0
 19 43  1  6
 20 21  1  0
 20 44  1  0
 20 45  1  0
 22 21  1  6
 21 46  1  0
 21 47  1  0
 22 23  2  0
 22 24  2  0
 22 25  1  0
 25 48  1  0
 25 49  1  0
 26 50  1  0
 26 51  1  0
 27 28  2  0
 27 52  1  0
 28 53  1  0
 29 30  2  0
 29 54  1  0
 30 31  1  0
 31 55  1  0
 31 56  1  0
 31 57  1  0
M  END

