
     RDKit          3D

 51 54  0  0  0  0  0  0  0  0999 V2000
    1.0163   -0.1572    0.5076 C   0  0  0  0  0  0  0  0  0  0  0  0
    2.4937   -0.1465    0.1865 C   0  0  0  0  0  0  0  0  0  0  0  0
    3.1064    1.0167   -0.3224 C   0  0  0  0  0  0  0  0  0  0  0  0
    4.4744    1.0686   -0.6354 C   0  0  0  0  0  0  0  0  0  0  0  0
    5.1900   -0.0934   -0.4156 C   0  0  0  0  0  0  0  0  0  0  0  0
    6.5320   -0.3428   -0.6237 O   0  0  0  0  0  0  0  0  0  0  0  0
    6.6887   -1.6473   -0.2372 C   0  0  0  0  0  0  0  0  0  0  0  0
    7.9306   -2.1797   -0.3762 N   0  0  0  0  0  0  0  0  0  0  0  0
    8.2009   -3.5171    0.1438 C   0  0  0  0  0  0  0  0  0  0  0  0
    9.1533   -4.2522   -0.7941 C   0  0  0  0  0  0  0  0  0  0  0  0
   10.3415   -3.4512   -1.0731 N   0  0  0  0  0  0  0  0  0  0  0  0
   11.5875   -4.0492   -0.9534 C   0  0  0  0  0  0  0  0  0  0  0  0
   11.7351   -5.1398   -0.4215 O   0  0  0  0  0  0  0  0  0  0  0  0
   12.6621   -3.3282   -1.4504 N   0  0  0  0  0  0  0  0  0  0  0  0
   13.9958   -3.8957   -1.4262 C   0  0  0  0  0  0  0  0  0  0  0  0
   15.0707   -2.8963   -1.0454 C   0  0  0  0  0  0  0  0  0  0  0  0
   14.8427   -1.9140   -0.0670 C   0  0  0  0  0  0  0  0  0  0  0  0
   15.8512   -1.0294    0.3061 C   0  0  0  0  0  0  0  0  0  0  0  0
   17.1157   -1.0892   -0.3014 C   0  0  0  0  0  0  0  0  0  0  0  0
   18.1590   -0.1067    0.1527 C   0  0  0  0  0  0  0  0  0  0  0  0
   18.0704    0.5219    1.1742 O   0  0  0  0  0  0  0  0  0  0  0  0
   19.2315    0.0558   -0.6568 O   0  0  0  0  0  0  0  0  0  0  0  0
   17.3515   -2.0768   -1.2700 C   0  0  0  0  0  0  0  0  0  0  0  0
   16.3392   -2.9645   -1.6390 C   0  0  0  0  0  0  0  0  0  0  0  0
   10.0700   -2.1138   -1.5745 C   0  0  0  0  0  0  0  0  0  0  0  0
    9.1057   -1.3670   -0.6433 C   0  0  0  0  0  0  0  0  0  0  0  0
    5.6168   -2.2443    0.1955 N   0  0  0  0  0  0  0  0  0  0  0  0
    4.6228   -1.2764    0.0910 C   0  0  0  0  0  0  0  0  0  0  0  0
    3.2608   -1.3071    0.3965 C   0  0  0  0  0  0  0  0  0  0  0  0
    0.5523    0.8214    0.3152 H   0  0  0  0  0  0  0  0  0  0  0  0
    0.8370   -0.4115    1.5656 H   0  0  0  0  0  0  0  0  0  0  0  0
    0.4795   -0.9071   -0.0975 H   0  0  0  0  0  0  0  0  0  0  0  0
    2.4964    1.9100   -0.4792 H   0  0  0  0  0  0  0  0  0  0  0  0
    4.9416    1.9732   -1.0284 H   0  0  0  0  0  0  0  0  0  0  0  0
    7.2460   -4.0500    0.2343 H   0  0  0  0  0  0  0  0  0  0  0  0
    8.6506   -3.4440    1.1533 H   0  0  0  0  0  0  0  0  0  0  0  0
    8.6263   -4.4763   -1.7420 H   0  0  0  0  0  0  0  0  0  0  0  0
    9.4855   -5.1965   -0.3469 H   0  0  0  0  0  0  0  0  0  0  0  0
   12.4925   -2.6021   -2.1344 H   0  0  0  0  0  0  0  0  0  0  0  0
   14.2560   -4.3596   -2.3959 H   0  0  0  0  0  0  0  0  0  0  0  0
   13.9616   -4.7188   -0.6945 H   0  0  0  0  0  0  0  0  0  0  0  0
   13.8592   -1.8506    0.4038 H   0  0  0  0  0  0  0  0  0  0  0  0
   15.6833   -0.2739    1.0760 H   0  0  0  0  0  0  0  0  0  0  0  0
   19.0980   -0.4085   -1.4945 H   0  0  0  0  0  0  0  0  0  0  0  0
   18.3361   -2.1863   -1.7354 H   0  0  0  0  0  0  0  0  0  0  0  0
   16.5417   -3.7272   -2.3963 H   0  0  0  0  0  0  0  0  0  0  0  0
    9.6296   -2.1590   -2.5906 H   0  0  0  0  0  0  0  0  0  0  0  0
   10.9966   -1.5278   -1.6285 H   0  0  0  0  0  0  0  0  0  0  0  0
    8.7987   -0.4198   -1.1034 H   0  0  0  0  0  0  0  0  0  0  0  0
    9.6315   -1.1342    0.3047 H   0  0  0  0  0  0  0  0  0  0  0  0
    2.8076   -2.2196    0.7911 H   0  0  0  0  0  0  0  0  0  0  0  0
  1  2  1  0
  1 30  1  0
  1 31  1  0
  1 32  1  0
  2  3  2  0
  2 29  1  0
  3  4  1  0
  3 33  1  0
  4  5  2  0
  4 34  1  0
  5  6  1  0
  5 28  1  0
  6  7  1  0
  7  8  1  0
  7 27  2  0
  8  9  1  0
  8 26  1  0
  9 10  1  0
  9 35  1  0
  9 36  1  0
 10 11  1  0
 10 37  1  0
 10 38  1  0
 11 12  1  0
 11 25  1  0
 12 13  2  0
 12 14  1  0
 14 15  1  0
 14 39  1  0
 15 16  1  0
 15 40  1  0
 15 41  1  0
 16 17  2  0
 16 24  1  0
 17 18  1  0
 17 42  1  0
 18 19  2  0
 18 43  1  0
 19 20  1  0
 19 23  1  0
 20 21  2  0
 20 22  1  0
 22 44  1  0
 23 24  2  0
 23 45  1  0
 24 46  1  0
 25 26  1  0
 25 47  1  0
 25 48  1  0
 26 49  1  0
 26 50  1  0
 27 28  1  0
 28 29  2  0
 29 51  1  0
M  END

