
     RDKit          3D

 31 30  0  0  0  0  0  0  0  0999 V2000
    1.2398    0.3091   -0.5494 C   0  0  0  0  0  0  0  0  0  0  0  0
    2.5019   -0.0150   -0.0357 O   0  0  0  0  0  0  0  0  0  0  0  0
    2.9419    0.8434    0.9876 C   0  0  0  0  0  0  0  0  0  0  0  0
    4.3178    0.3663    1.4433 C   0  0  0  0  0  0  0  0  0  0  0  0
    4.8895    1.1922    2.4989 N   0  0  0  0  0  0  0  0  0  0  0  0
    4.3528    0.8753    3.8119 C   0  0  0  0  0  0  0  0  0  0  0  0
    6.3480    1.2291    2.4881 C   0  0  0  0  0  0  0  0  0  0  0  0
    6.9349    2.1497    1.4036 C   0  0  1  0  0  0  0  0  0  0  0  0
    6.4743    3.6085    1.5875 C   0  0  0  0  0  0  0  0  0  0  0  0
    8.4655    2.0958    1.4314 C   0  0  0  0  0  0  0  0  0  0  0  0
    9.1867    2.3283    0.1170 C   0  0  0  0  0  0  0  0  0  0  0  0
    9.0707    1.8866    2.4609 O   0  0  0  0  0  0  0  0  0  0  0  0
    0.9964   -0.4209   -1.3356 H   0  0  0  0  0  0  0  0  0  0  0  0
    1.2183    1.3255   -0.9943 H   0  0  0  0  0  0  0  0  0  0  0  0
    0.4490    0.2652    0.2279 H   0  0  0  0  0  0  0  0  0  0  0  0
    2.2199    0.8434    1.8310 H   0  0  0  0  0  0  0  0  0  0  0  0
    3.0137    1.8918    0.6296 H   0  0  0  0  0  0  0  0  0  0  0  0
    4.9742    0.3917    0.5604 H   0  0  0  0  0  0  0  0  0  0  0  0
    4.2433   -0.7034    1.7415 H   0  0  0  0  0  0  0  0  0  0  0  0
    3.2536    0.9290    3.8052 H   0  0  0  0  0  0  0  0  0  0  0  0
    4.7134    1.6029    4.5553 H   0  0  0  0  0  0  0  0  0  0  0  0
    4.6347   -0.1431    4.1653 H   0  0  0  0  0  0  0  0  0  0  0  0
    6.7858    0.2115    2.3840 H   0  0  0  0  0  0  0  0  0  0  0  0
    6.6984    1.6017    3.4618 H   0  0  0  0  0  0  0  0  0  0  0  0
    6.6040    1.8104    0.4060 H   0  0  0  0  0  0  0  0  0  0  0  0
    6.8716    4.0216    2.5290 H   0  0  0  0  0  0  0  0  0  0  0  0
    5.3767    3.6400    1.6382 H   0  0  0  0  0  0  0  0  0  0  0  0
    6.8078    4.2565    0.7618 H   0  0  0  0  0  0  0  0  0  0  0  0
    8.7730    3.1947   -0.4232 H   0  0  0  0  0  0  0  0  0  0  0  0
    9.0421    1.4482   -0.5336 H   0  0  0  0  0  0  0  0  0  0  0  0
   10.2608    2.4690    0.2965 H   0  0  0  0  0  0  0  0  0  0  0  0
  1  2  1  0
  1 13  1  0
  1 14  1  0
  1 15  1  0
  2  3  1  0
  3  4  1  0
  3 16  1  0
  3 17  1  0
  4  5  1  0
  4 18  1  0
  4 19  1  0
  5  6  1  0
  5  7  1  0
  6 20  1  0
  6 21  1  0
  6 22  1  0
  7  8  1  0
  7 23  1  0
  7 24  1  0
  8  9  1  0
  8 10  1  0
  8 25  1  6
  9 26  1  0
  9 27  1  0
  9 28  1  0
 10 11  1  0
 10 12  2  0
 11 29  1  0
 11 30  1  0
 11 31  1  0
M  END

