
     RDKit          3D

 24 25  0  0  0  0  0  0  0  0999 V2000
    3.6095   -0.3346   -1.1662 N   0  0  0  0  0  0  0  0  0  0  0  0
    2.7008    0.1010   -0.1096 C   0  0  2  0  0  0  0  0  0  0  0  0
    1.6795   -0.1442   -0.4627 H   0  0  0  0  0  0  0  0  0  0  0  0
    2.7163    1.6207    0.1870 C   0  0  0  0  0  0  0  0  0  0  0  0
    2.3371    2.4771   -1.0045 C   0  0  1  0  0  0  0  0  0  0  0  0
    2.7141    3.9353   -1.0543 C   0  0  0  0  0  0  0  0  0  0  0  0
    3.3747    2.9589   -1.9938 C   0  0  0  0  0  0  0  0  0  0  0  0
    2.9644   -0.7364    1.1267 C   0  0  0  0  0  0  0  0  0  0  0  0
    3.6327   -1.9349    1.1968 C   0  0  0  0  0  0  0  0  0  0  0  0
    3.6712   -2.5013    2.5081 C   0  0  0  0  0  0  0  0  0  0  0  0
    3.0196   -1.7178    3.4243 C   0  0  0  0  0  0  0  0  0  0  0  0
    2.8133   -2.0493    5.2675 Br  0  0  0  0  0  0  0  0  0  0  0  0
    2.3602   -0.2788    2.7042 S   0  0  0  0  0  0  0  0  0  0  0  0
    4.5668   -0.0554   -0.9441 H   0  0  0  0  0  0  0  0  0  0  0  0
    3.3675    0.1175   -2.0462 H   0  0  0  0  0  0  0  0  0  0  0  0
    3.7190    1.9059    0.5540 H   0  0  0  0  0  0  0  0  0  0  0  0
    2.0144    1.8349    1.0136 H   0  0  0  0  0  0  0  0  0  0  0  0
    1.3566    2.2310   -1.4317 H   0  0  0  0  0  0  0  0  0  0  0  0
    3.3111    4.3347   -0.2284 H   0  0  0  0  0  0  0  0  0  0  0  0
    1.9911    4.6456   -1.4650 H   0  0  0  0  0  0  0  0  0  0  0  0
    4.4212    2.7006   -1.8047 H   0  0  0  0  0  0  0  0  0  0  0  0
    3.1112    2.9972   -3.0550 H   0  0  0  0  0  0  0  0  0  0  0  0
    4.0726   -2.3948    0.3121 H   0  0  0  0  0  0  0  0  0  0  0  0
    4.1567   -3.4439    2.7620 H   0  0  0  0  0  0  0  0  0  0  0  0
  1  2  1  0
  1 14  1  0
  1 15  1  0
  2  3  1  6
  2  4  1  0
  2  8  1  0
  4  5  1  0
  4 16  1  0
  4 17  1  0
  5  6  1  0
  5  7  1  0
  5 18  1  6
  6  7  1  0
  6 19  1  0
  6 20  1  0
  7 21  1  0
  7 22  1  0
  8  9  2  0
  8 13  1  0
  9 10  1  0
  9 23  1  0
 10 11  2  0
 10 24  1  0
 11 12  1  0
 11 13  1  0
M  END

