
     RDKit          3D

 31 31  0  0  0  0  0  0  0  0999 V2000
    0.9521    0.0694    0.1484 C   0  0  0  0  0  0  0  0  0  0  0  0
    2.4634    0.0357   -0.0932 C   0  0  0  0  0  0  0  0  0  0  0  0
    3.0128   -1.3512   -0.4790 C   0  0  1  0  0  0  0  0  0  0  0  0
    2.7180   -2.0492    0.3240 H   0  0  0  0  0  0  0  0  0  0  0  0
    2.3431   -1.9237   -1.7636 C   0  0  0  0  0  0  0  0  0  0  0  0
    2.3614   -1.0075   -2.9827 C   0  0  0  0  0  0  0  0  0  0  0  0
    1.3670   -0.6183   -3.5350 O   0  0  0  0  0  0  0  0  0  0  0  0
    3.5801   -0.6423   -3.4395 O   0  0  0  0  0  0  0  0  0  0  0  0
    4.5393   -1.4193   -0.5461 C   0  0  0  0  0  0  0  0  0  0  0  0
    5.3492   -0.3087   -0.8402 C   0  0  0  0  0  0  0  0  0  0  0  0
    6.7405   -0.4473   -0.9117 C   0  0  0  0  0  0  0  0  0  0  0  0
    7.3775   -1.6726   -0.6950 C   0  0  0  0  0  0  0  0  0  0  0  0
    8.8762   -1.8265   -0.7667 C   0  0  0  0  0  0  0  0  0  0  0  0
    6.5608   -2.7857   -0.3949 C   0  0  0  0  0  0  0  0  0  0  0  0
    7.0818   -4.0182   -0.1603 O   0  0  0  0  0  0  0  0  0  0  0  0
    5.1709   -2.6531   -0.3246 C   0  0  0  0  0  0  0  0  0  0  0  0
    0.6432    1.0546    0.5314 H   0  0  0  0  0  0  0  0  0  0  0  0
    0.6446   -0.6859    0.8914 H   0  0  0  0  0  0  0  0  0  0  0  0
    0.3860   -0.1120   -0.7779 H   0  0  0  0  0  0  0  0  0  0  0  0
    2.9916    0.3710    0.8153 H   0  0  0  0  0  0  0  0  0  0  0  0
    2.7135    0.7708   -0.8778 H   0  0  0  0  0  0  0  0  0  0  0  0
    1.2868   -2.1504   -1.5702 H   0  0  0  0  0  0  0  0  0  0  0  0
    2.8358   -2.8740   -2.0310 H   0  0  0  0  0  0  0  0  0  0  0  0
    4.2858   -0.9713   -2.8575 H   0  0  0  0  0  0  0  0  0  0  0  0
    4.9074    0.6742   -1.0073 H   0  0  0  0  0  0  0  0  0  0  0  0
    7.3522    0.4301   -1.1401 H   0  0  0  0  0  0  0  0  0  0  0  0
    9.3616   -0.8720   -1.0142 H   0  0  0  0  0  0  0  0  0  0  0  0
    9.1813   -2.5548   -1.5404 H   0  0  0  0  0  0  0  0  0  0  0  0
    9.3035   -2.1672    0.1944 H   0  0  0  0  0  0  0  0  0  0  0  0
    8.0445   -3.9883   -0.2281 H   0  0  0  0  0  0  0  0  0  0  0  0
    4.5883   -3.5452   -0.0807 H   0  0  0  0  0  0  0  0  0  0  0  0
  1  2  1  0
  1 17  1  0
  1 18  1  0
  1 19  1  0
  2  3  1  0
  2 20  1  0
  2 21  1  0
  3  4  1  1
  3  5  1  0
  3  9  1  0
  5  6  1  0
  5 22  1  0
  5 23  1  0
  6  7  2  0
  6  8  1  0
  8 24  1  0
  9 10  2  0
  9 16  1  0
 10 11  1  0
 10 25  1  0
 11 12  2  0
 11 26  1  0
 12 13  1  0
 12 14  1  0
 13 27  1  0
 13 28  1  0
 13 29  1  0
 14 15  1  0
 14 16  2  0
 15 30  1  0
 16 31  1  0
M  END

