
     RDKit          3D

 50 52  0  0  0  0  0  0  0  0999 V2000
    8.3785   -0.8732    8.2217 C   0  0  0  0  0  0  0  0  0  0  0  0
    7.2234   -1.8788    8.2433 C   0  0  2  0  0  0  0  0  0  0  0  0
    7.5553   -2.8310    7.8018 H   0  0  0  0  0  0  0  0  0  0  0  0
    6.1370   -1.4127    7.3792 N   0  0  0  0  0  0  0  0  0  0  0  0
    5.5517   -2.2096    6.4574 C   0  0  0  0  0  0  0  0  0  0  0  0
    5.8606   -3.3687    6.2261 O   0  0  0  0  0  0  0  0  0  0  0  0
    4.4521   -1.5754    5.5953 C   0  0  0  0  0  0  0  0  0  0  0  0
    3.9423   -0.3203    6.0783 O   0  0  0  0  0  0  0  0  0  0  0  0
    2.9214   -0.3696    6.9740 C   0  0  0  0  0  0  0  0  0  0  0  0
    2.4265   -1.4076    7.3346 O   0  0  0  0  0  0  0  0  0  0  0  0
    2.4638    0.9759    7.4569 C   0  0  0  0  0  0  0  0  0  0  0  0
    1.3668    0.9475    8.3368 C   0  0  0  0  0  0  0  0  0  0  0  0
    0.8497    2.1134    8.8945 C   0  0  0  0  0  0  0  0  0  0  0  0
    1.4228    3.3460    8.5678 C   0  0  0  0  0  0  0  0  0  0  0  0
    2.4971    3.3990    7.6811 C   0  0  0  0  0  0  0  0  0  0  0  0
    3.0347    2.2298    7.1217 C   0  0  0  0  0  0  0  0  0  0  0  0
    4.1249    2.3842    6.2145 N   0  0  0  0  0  0  0  0  0  0  0  0
    5.7169    2.4281    6.8469 S   0  0  1  0  0  0  0  0  0  0  0  0
    5.8007    1.6127    8.0732 O   0  0  0  0  0  0  0  0  0  0  0  0
    6.5662    2.1281    5.6949 O   0  0  0  0  0  0  0  0  0  0  0  0
    5.9444    4.1321    7.3265 C   0  0  0  0  0  0  0  0  0  0  0  0
    5.9649    4.4713    8.6822 C   0  0  0  0  0  0  0  0  0  0  0  0
    6.1725    5.8025    9.0472 C   0  0  0  0  0  0  0  0  0  0  0  0
    6.3579    6.7551    8.0458 C   0  0  0  0  0  0  0  0  0  0  0  0
    6.5555    8.0283    8.3926 F   0  0  0  0  0  0  0  0  0  0  0  0
    6.3484    6.4198    6.6894 C   0  0  0  0  0  0  0  0  0  0  0  0
    6.1438    5.0908    6.3255 C   0  0  0  0  0  0  0  0  0  0  0  0
    6.7291   -2.1597    9.6543 C   0  0  1  0  0  0  0  0  0  0  0  0
    5.9683   -3.4267    9.9424 C   0  0  0  0  0  0  0  0  0  0  0  0
    7.3713   -3.2538   10.4704 C   0  0  0  0  0  0  0  0  0  0  0  0
    8.0493    0.1089    8.5972 H   0  0  0  0  0  0  0  0  0  0  0  0
    8.7581   -0.7326    7.1978 H   0  0  0  0  0  0  0  0  0  0  0  0
    9.2057   -1.2254    8.8569 H   0  0  0  0  0  0  0  0  0  0  0  0
    5.8321   -0.4483    7.4925 H   0  0  0  0  0  0  0  0  0  0  0  0
    3.6409   -2.3080    5.5055 H   0  0  0  0  0  0  0  0  0  0  0  0
    4.8720   -1.3631    4.6020 H   0  0  0  0  0  0  0  0  0  0  0  0
    0.9395   -0.0274    8.5763 H   0  0  0  0  0  0  0  0  0  0  0  0
   -0.0000    2.0616    9.5788 H   0  0  0  0  0  0  0  0  0  0  0  0
    1.0215    4.2711    8.9890 H   0  0  0  0  0  0  0  0  0  0  0  0
    2.9300    4.3570    7.3889 H   0  0  0  0  0  0  0  0  0  0  0  0
    4.1687    1.6285    5.5267 H   0  0  0  0  0  0  0  0  0  0  0  0
    5.8250    3.6952    9.4360 H   0  0  0  0  0  0  0  0  0  0  0  0
    6.1978    6.1116   10.0937 H   0  0  0  0  0  0  0  0  0  0  0  0
    6.5095    7.2000    5.9433 H   0  0  0  0  0  0  0  0  0  0  0  0
    6.1462    4.7934    5.2755 H   0  0  0  0  0  0  0  0  0  0  0  0
    6.4144   -1.2624   10.2019 H   0  0  0  0  0  0  0  0  0  0  0  0
    5.8145   -4.1173    9.1082 H   0  0  0  0  0  0  0  0  0  0  0  0
    5.1362   -3.3822   10.6506 H   0  0  0  0  0  0  0  0  0  0  0  0
    8.1692   -3.8388   10.0017 H   0  0  0  0  0  0  0  0  0  0  0  0
    7.5123   -3.0893   11.5426 H   0  0  0  0  0  0  0  0  0  0  0  0
  1  2  1  0
  1 31  1  0
  1 32  1  0
  1 33  1  0
  2  3  1  6
  2  4  1  0
  2 28  1  0
  4  5  1  0
  4 34  1  0
  5  6  2  0
  5  7  1  0
  7  8  1  0
  7 35  1  0
  7 36  1  0
  8  9  1  0
  9 10  2  0
  9 11  1  0
 11 12  2  0
 11 16  1  0
 12 13  1  0
 12 37  1  0
 13 14  2  0
 13 38  1  0
 14 15  1  0
 14 39  1  0
 15 16  2  0
 15 40  1  0
 16 17  1  0
 18 17  1  6
 17 41  1  0
 18 19  2  0
 18 20  2  0
 18 21  1  0
 21 22  2  0
 21 27  1  0
 22 23  1  0
 22 42  1  0
 23 24  2  0
 23 43  1  0
 24 25  1  0
 24 26  1  0
 26 27  2  0
 26 44  1  0
 27 45  1  0
 28 29  1  0
 28 30  1  0
 28 46  1  1
 29 30  1  0
 29 47  1  0
 29 48  1  0
 30 49  1  0
 30 50  1  0
M  END

