
     RDKit          3D

 41 42  0  0  0  0  0  0  0  0999 V2000
    0.2300   -0.2777    0.4824 C   0  0  0  0  0  0  0  0  0  0  0  0
    1.6666   -0.4247    0.3538 N   0  0  0  0  0  0  0  0  0  0  0  0
    2.3887   -0.1473    1.5930 C   0  0  0  0  0  0  0  0  0  0  0  0
    3.8092    0.3890    1.3436 C   0  0  0  0  0  0  0  0  0  0  0  0
    4.6200    0.5019    2.6131 C   0  0  0  0  0  0  0  0  0  0  0  0
    5.1113    1.7358    3.0719 C   0  0  0  0  0  0  0  0  0  0  0  0
    5.8583    1.7788    4.2501 C   0  0  0  0  0  0  0  0  0  0  0  0
    6.0903    0.5893    4.9427 C   0  0  0  0  0  0  0  0  0  0  0  0
    5.5563   -0.5903    4.4139 C   0  0  0  0  0  0  0  0  0  0  0  0
    4.8451   -0.6375    3.2874 N   0  0  0  0  0  0  0  0  0  0  0  0
    2.0506   -1.6872   -0.2735 C   0  0  0  0  0  0  0  0  0  0  0  0
    2.0133   -1.6432   -1.8043 C   0  0  0  0  0  0  0  0  0  0  0  0
    3.0522   -0.6564   -2.3749 C   0  0  1  0  0  0  0  0  0  0  0  0
    4.3488   -0.9939   -1.9454 O   0  0  0  0  0  0  0  0  0  0  0  0
    2.9961   -0.6087   -3.8959 C   0  0  0  0  0  0  0  0  0  0  0  0
    1.9398   -0.0115   -4.6029 C   0  0  0  0  0  0  0  0  0  0  0  0
    1.9543   -0.0369   -5.9956 C   0  0  0  0  0  0  0  0  0  0  0  0
    3.0302   -0.6619   -6.6239 C   0  0  0  0  0  0  0  0  0  0  0  0
    3.0939   -0.7122   -7.9589 F   0  0  0  0  0  0  0  0  0  0  0  0
    4.0477   -1.2292   -5.8606 C   0  0  0  0  0  0  0  0  0  0  0  0
    4.0175   -1.1957   -4.5270 N   0  0  0  0  0  0  0  0  0  0  0  0
   -0.0245    0.7369    0.8283 H   0  0  0  0  0  0  0  0  0  0  0  0
   -0.2277   -1.0050    1.1932 H   0  0  0  0  0  0  0  0  0  0  0  0
   -0.2609   -0.4238   -0.4929 H   0  0  0  0  0  0  0  0  0  0  0  0
    2.4554   -1.0417    2.2477 H   0  0  0  0  0  0  0  0  0  0  0  0
    1.8213    0.6097    2.1593 H   0  0  0  0  0  0  0  0  0  0  0  0
    3.7427    1.3675    0.8433 H   0  0  0  0  0  0  0  0  0  0  0  0
    4.3364   -0.2831    0.6466 H   0  0  0  0  0  0  0  0  0  0  0  0
    4.9111    2.6477    2.5043 H   0  0  0  0  0  0  0  0  0  0  0  0
    6.2532    2.7283    4.6219 H   0  0  0  0  0  0  0  0  0  0  0  0
    6.6692    0.5707    5.8690 H   0  0  0  0  0  0  0  0  0  0  0  0
    5.7160   -1.5454    4.9298 H   0  0  0  0  0  0  0  0  0  0  0  0
    1.4146   -2.5252    0.0894 H   0  0  0  0  0  0  0  0  0  0  0  0
    3.0810   -1.9315    0.0197 H   0  0  0  0  0  0  0  0  0  0  0  0
    1.0053   -1.3713   -2.1630 H   0  0  0  0  0  0  0  0  0  0  0  0
    2.2323   -2.6500   -2.2005 H   0  0  0  0  0  0  0  0  0  0  0  0
    2.8008    0.3446   -1.9783 H   0  0  0  0  0  0  0  0  0  0  0  0
    4.7941   -1.3581   -2.7341 H   0  0  0  0  0  0  0  0  0  0  0  0
    1.1215    0.4744   -4.0665 H   0  0  0  0  0  0  0  0  0  0  0  0
    1.1620    0.4168   -6.5952 H   0  0  0  0  0  0  0  0  0  0  0  0
    4.8981   -1.7130   -6.3530 H   0  0  0  0  0  0  0  0  0  0  0  0
  1  2  1  0
  1 22  1  0
  1 23  1  0
  1 24  1  0
  2  3  1  0
  2 11  1  0
  3  4  1  0
  3 25  1  0
  3 26  1  0
  4  5  1  0
  4 27  1  0
  4 28  1  0
  5  6  2  0
  5 10  1  0
  6  7  1  0
  6 29  1  0
  7  8  2  0
  7 30  1  0
  8  9  1  0
  8 31  1  0
  9 10  2  0
  9 32  1  0
 11 12  1  0
 11 33  1  0
 11 34  1  0
 12 13  1  0
 12 35  1  0
 12 36  1  0
 13 14  1  0
 13 15  1  0
 13 37  1  1
 14 38  1  0
 15 16  2  0
 15 21  1  0
 16 17  1  0
 16 39  1  0
 17 18  2  0
 17 40  1  0
 18 19  1  0
 18 20  1  0
 20 21  2  0
 20 41  1  0
M  END

