
     RDKit          3D

 52 54  0  0  0  0  0  0  0  0999 V2000
    3.9649   -2.5455   -6.9133 C   0  0  0  0  0  0  0  0  0  0  0  0
    4.4908   -2.0024   -5.6058 C   0  0  0  0  0  0  0  0  0  0  0  0
    4.9137   -0.6741   -5.4879 C   0  0  0  0  0  0  0  0  0  0  0  0
    5.3964   -0.1932   -4.2630 C   0  0  0  0  0  0  0  0  0  0  0  0
    5.4622   -1.0231   -3.1496 C   0  0  0  0  0  0  0  0  0  0  0  0
    5.0390   -2.3604   -3.2553 C   0  0  0  0  0  0  0  0  0  0  0  0
    5.1322   -3.1075   -2.1224 O   0  0  0  0  0  0  0  0  0  0  0  0
    4.7229   -4.4610   -2.1308 C   0  0  0  0  0  0  0  0  0  0  0  0
    4.9787   -5.0529   -0.7379 C   0  0  1  0  0  0  0  0  0  0  0  0
    4.2391   -4.3032    0.3676 C   0  0  0  0  0  0  0  0  0  0  0  0
    4.6233   -6.4651   -0.7157 N   0  0  0  0  0  0  0  0  0  0  0  0
    5.4691   -7.4320   -1.2259 C   0  0  0  0  0  0  0  0  0  0  0  0
    6.5746   -7.1707   -1.6782 O   0  0  0  0  0  0  0  0  0  0  0  0
    4.9627   -8.7171   -1.1831 N   0  0  0  0  0  0  0  0  0  0  0  0
    5.8125   -9.8569   -1.5461 C   0  0  1  0  0  0  0  0  0  0  0  0
    5.2203  -11.1540   -0.9763 C   0  0  0  0  0  0  0  0  0  0  0  0
    3.9681  -11.5869   -1.7447 C   0  0  0  0  0  0  0  0  0  0  0  0
    4.2131  -11.6950   -3.1278 O   0  0  0  0  0  0  0  0  0  0  0  0
    4.6519  -10.4751   -3.7280 C   0  0  2  0  0  0  0  0  0  0  0  0
    4.7911  -10.7169   -5.2106 C   0  0  1  0  0  0  0  0  0  0  0  0
    3.5717  -10.7221   -6.0924 C   0  0  0  0  0  0  0  0  0  0  0  0
    4.5603   -9.5873   -6.1830 C   0  0  0  0  0  0  0  0  0  0  0  0
    5.9510   -9.9947   -3.0746 C   0  0  0  0  0  0  0  0  0  0  0  0
    4.5572   -2.8432   -4.4787 C   0  0  0  0  0  0  0  0  0  0  0  0
    4.0168   -1.7928   -7.7135 H   0  0  0  0  0  0  0  0  0  0  0  0
    2.9128   -2.8647   -6.8204 H   0  0  0  0  0  0  0  0  0  0  0  0
    4.5398   -3.4275   -7.2417 H   0  0  0  0  0  0  0  0  0  0  0  0
    4.8686   -0.0109   -6.3556 H   0  0  0  0  0  0  0  0  0  0  0  0
    5.7269    0.8457   -4.1799 H   0  0  0  0  0  0  0  0  0  0  0  0
    5.8378   -0.6676   -2.1881 H   0  0  0  0  0  0  0  0  0  0  0  0
    5.2994   -5.0395   -2.8731 H   0  0  0  0  0  0  0  0  0  0  0  0
    3.6462   -4.5394   -2.3838 H   0  0  0  0  0  0  0  0  0  0  0  0
    6.0637   -4.9983   -0.5615 H   0  0  0  0  0  0  0  0  0  0  0  0
    3.1449   -4.3746    0.2337 H   0  0  0  0  0  0  0  0  0  0  0  0
    4.5071   -3.2382    0.3486 H   0  0  0  0  0  0  0  0  0  0  0  0
    4.4932   -4.7169    1.3554 H   0  0  0  0  0  0  0  0  0  0  0  0
    3.6451   -6.6953   -0.5801 H   0  0  0  0  0  0  0  0  0  0  0  0
    4.2082   -8.8965   -0.5303 H   0  0  0  0  0  0  0  0  0  0  0  0
    6.8159   -9.6850   -1.1224 H   0  0  0  0  0  0  0  0  0  0  0  0
    4.9966  -11.0448    0.1000 H   0  0  0  0  0  0  0  0  0  0  0  0
    5.9795  -11.9473   -1.0670 H   0  0  0  0  0  0  0  0  0  0  0  0
    3.1348  -10.8743   -1.5570 H   0  0  0  0  0  0  0  0  0  0  0  0
    3.6273  -12.5773   -1.4043 H   0  0  0  0  0  0  0  0  0  0  0  0
    3.8709   -9.7008   -3.5671 H   0  0  0  0  0  0  0  0  0  0  0  0
    5.5815  -11.4326   -5.4641 H   0  0  0  0  0  0  0  0  0  0  0  0
    2.6048  -10.5274   -5.6188 H   0  0  0  0  0  0  0  0  0  0  0  0
    3.5295  -11.4454   -6.9113 H   0  0  0  0  0  0  0  0  0  0  0  0
    4.2655   -8.6144   -5.7770 H   0  0  0  0  0  0  0  0  0  0  0  0
    5.2067   -9.5223   -7.0625 H   0  0  0  0  0  0  0  0  0  0  0  0
    6.2699   -9.0324   -3.5003 H   0  0  0  0  0  0  0  0  0  0  0  0
    6.7462  -10.7291   -3.2895 H   0  0  0  0  0  0  0  0  0  0  0  0
    4.2315   -3.8799   -4.5750 H   0  0  0  0  0  0  0  0  0  0  0  0
  1  2  1  0
  1 25  1  0
  1 26  1  0
  1 27  1  0
  2  3  2  0
  2 24  1  0
  3  4  1  0
  3 28  1  0
  4  5  2  0
  4 29  1  0
  5  6  1  0
  5 30  1  0
  6  7  1  0
  6 24  2  0
  7  8  1  0
  8  9  1  0
  8 31  1  0
  8 32  1  0
  9 10  1  0
  9 11  1  0
  9 33  1  1
 10 34  1  0
 10 35  1  0
 10 36  1  0
 11 12  1  0
 11 37  1  0
 12 13  2  0
 12 14  1  0
 14 15  1  0
 14 38  1  0
 15 16  1  0
 15 23  1  0
 15 39  1  1
 16 17  1  0
 16 40  1  0
 16 41  1  0
 17 18  1  0
 17 42  1  0
 17 43  1  0
 18 19  1  0
 19 20  1  0
 19 23  1  0
 19 44  1  6
 20 21  1  0
 20 22  1  0
 20 45  1  1
 21 22  1  0
 21 46  1  0
 21 47  1  0
 22 48  1  0
 22 49  1  0
 23 50  1  0
 23 51  1  0
 24 52  1  0
M  END

