
     RDKit          3D

 49 50  0  0  0  0  0  0  0  0999 V2000
    4.9539    1.9649    0.8496 C   0  0  0  0  0  0  0  0  0  0  0  0
    4.9353    2.0492   -0.6781 C   0  0  0  0  0  0  0  0  0  0  0  0
    5.3284    0.8140   -1.3321 N   0  0  0  0  0  0  0  0  0  0  0  0
    6.5836    0.6213   -1.8047 C   0  0  0  0  0  0  0  0  0  0  0  0
    7.4903    1.4338   -1.7904 O   0  0  0  0  0  0  0  0  0  0  0  0
    6.8130   -0.6629   -2.3732 N   0  0  0  0  0  0  0  0  0  0  0  0
    5.9795   -1.7386   -2.4767 C   0  0  0  0  0  0  0  0  0  0  0  0
    4.8216   -1.7711   -2.0806 O   0  0  0  0  0  0  0  0  0  0  0  0
    6.5925   -2.9458   -3.2240 C   0  0  1  0  0  0  0  0  0  0  0  0
    6.0379   -2.9107   -4.6550 C   0  0  0  0  0  0  0  0  0  0  0  0
    8.0564   -2.9223   -3.1316 N   0  0  0  0  0  0  0  0  0  0  0  0
    8.5573   -3.3628   -1.8167 C   0  0  0  0  0  0  0  0  0  0  0  0
    8.6452   -4.8949   -1.6954 C   0  0  0  0  0  0  0  0  0  0  0  0
    9.4255   -5.5044   -2.7716 N   0  0  0  0  0  0  0  0  0  0  0  0
   10.8750   -5.4756   -2.5898 C   0  0  0  0  0  0  0  0  0  0  0  0
   11.3423   -6.5057   -1.5807 C   0  0  0  0  0  0  0  0  0  0  0  0
   11.6936   -6.1381   -0.2760 C   0  0  0  0  0  0  0  0  0  0  0  0
   11.6090   -4.8370    0.0646 F   0  0  0  0  0  0  0  0  0  0  0  0
   12.1202   -7.0426    0.6927 C   0  0  0  0  0  0  0  0  0  0  0  0
   12.1978   -8.3934    0.3525 C   0  0  0  0  0  0  0  0  0  0  0  0
   11.8552   -8.8187   -0.9333 C   0  0  0  0  0  0  0  0  0  0  0  0
   11.4310   -7.8786   -1.8765 C   0  0  0  0  0  0  0  0  0  0  0  0
   11.0232   -8.4458   -3.4819 Cl  0  0  0  0  0  0  0  0  0  0  0  0
    8.9428   -5.0668   -4.0781 C   0  0  0  0  0  0  0  0  0  0  0  0
    8.8530   -3.5358   -4.2022 C   0  0  0  0  0  0  0  0  0  0  0  0
    4.6266    2.9190    1.2941 H   0  0  0  0  0  0  0  0  0  0  0  0
    5.9697    1.7478    1.2153 H   0  0  0  0  0  0  0  0  0  0  0  0
    4.2809    1.1723    1.2159 H   0  0  0  0  0  0  0  0  0  0  0  0
    5.6261    2.8329   -1.0208 H   0  0  0  0  0  0  0  0  0  0  0  0
    3.9256    2.3222   -1.0299 H   0  0  0  0  0  0  0  0  0  0  0  0
    4.6919    0.0167   -1.3864 H   0  0  0  0  0  0  0  0  0  0  0  0
    7.7572   -0.8207   -2.7274 H   0  0  0  0  0  0  0  0  0  0  0  0
    6.1459   -3.8259   -2.7212 H   0  0  0  0  0  0  0  0  0  0  0  0
    6.4367   -2.0528   -5.2188 H   0  0  0  0  0  0  0  0  0  0  0  0
    4.9445   -2.8123   -4.6046 H   0  0  0  0  0  0  0  0  0  0  0  0
    6.2675   -3.8336   -5.2068 H   0  0  0  0  0  0  0  0  0  0  0  0
    7.9145   -2.9504   -1.0228 H   0  0  0  0  0  0  0  0  0  0  0  0
    9.5586   -2.9229   -1.6647 H   0  0  0  0  0  0  0  0  0  0  0  0
    7.6287   -5.3282   -1.7187 H   0  0  0  0  0  0  0  0  0  0  0  0
    9.0787   -5.1697   -0.7218 H   0  0  0  0  0  0  0  0  0  0  0  0
   11.2718   -4.4874   -2.2879 H   0  0  0  0  0  0  0  0  0  0  0  0
   11.3340   -5.7198   -3.5588 H   0  0  0  0  0  0  0  0  0  0  0  0
   12.3771   -6.6770    1.6882 H   0  0  0  0  0  0  0  0  0  0  0  0
   12.5290   -9.1237    1.0943 H   0  0  0  0  0  0  0  0  0  0  0  0
   11.9142   -9.8712   -1.2128 H   0  0  0  0  0  0  0  0  0  0  0  0
    7.9395   -5.5053   -4.2370 H   0  0  0  0  0  0  0  0  0  0  0  0
    9.5951   -5.4816   -4.8636 H   0  0  0  0  0  0  0  0  0  0  0  0
    8.4599   -3.2429   -5.1853 H   0  0  0  0  0  0  0  0  0  0  0  0
    9.8693   -3.1067   -4.1383 H   0  0  0  0  0  0  0  0  0  0  0  0
  1  2  1  0
  1 26  1  0
  1 27  1  0
  1 28  1  0
  2  3  1  0
  2 29  1  0
  2 30  1  0
  3  4  1  0
  3 31  1  0
  4  5  2  0
  4  6  1  0
  6  7  1  0
  6 32  1  0
  7  8  2  0
  7  9  1  0
  9 10  1  0
  9 11  1  0
  9 33  1  1
 10 34  1  0
 10 35  1  0
 10 36  1  0
 11 12  1  0
 11 25  1  0
 12 13  1  0
 12 37  1  0
 12 38  1  0
 13 14  1  0
 13 39  1  0
 13 40  1  0
 14 15  1  0
 14 24  1  0
 15 16  1  0
 15 41  1  0
 15 42  1  0
 16 17  2  0
 16 22  1  0
 17 18  1  0
 17 19  1  0
 19 20  2  0
 19 43  1  0
 20 21  1  0
 20 44  1  0
 21 22  2  0
 21 45  1  0
 22 23  1  0
 24 25  1  0
 24 46  1  0
 24 47  1  0
 25 48  1  0
 25 49  1  0
M  END

