
     RDKit          3D

 38 40  0  0  0  0  0  0  0  0999 V2000
    3.3335    2.1082    0.1014 C   0  0  0  0  0  0  0  0  0  0  0  0
    2.6081    1.1487    0.8461 O   0  0  0  0  0  0  0  0  0  0  0  0
    3.1579   -0.0490    1.1149 C   0  0  0  0  0  0  0  0  0  0  0  0
    2.3662   -0.9438    1.8650 C   0  0  0  0  0  0  0  0  0  0  0  0
    2.8342   -2.2023    2.1973 C   0  0  0  0  0  0  0  0  0  0  0  0
    4.1281   -2.6302    1.7916 C   0  0  0  0  0  0  0  0  0  0  0  0
    4.7579   -3.9047    2.0553 C   0  0  0  0  0  0  0  0  0  0  0  0
    4.4585   -5.0851    2.6973 C   0  0  0  0  0  0  0  0  0  0  0  0
    3.2117   -5.4232    3.4071 C   0  0  0  0  0  0  0  0  0  0  0  0
    2.2341   -4.7092    3.5551 O   0  0  0  0  0  0  0  0  0  0  0  0
    3.1848   -6.7041    3.9530 N   0  0  0  0  0  0  0  0  0  0  0  0
    4.1509   -7.6964    3.9259 C   0  0  0  0  0  0  0  0  0  0  0  0
    3.9750   -8.7723    4.4486 O   0  0  0  0  0  0  0  0  0  0  0  0
    5.3303   -7.3492    3.2513 N   0  0  0  0  0  0  0  0  0  0  0  0
    6.3746   -8.3422    3.1930 C   0  0  0  0  0  0  0  0  0  0  0  0
    6.1820   -9.5161    2.4604 C   0  0  0  0  0  0  0  0  0  0  0  0
    7.1873  -10.4819    2.4044 C   0  0  0  0  0  0  0  0  0  0  0  0
    8.3901  -10.2594    3.0802 C   0  0  0  0  0  0  0  0  0  0  0  0
    9.6560  -11.4630    3.0094 Cl  0  0  0  0  0  0  0  0  0  0  0  0
    8.5933   -9.0861    3.8125 C   0  0  0  0  0  0  0  0  0  0  0  0
    7.5789   -8.1305    3.8695 C   0  0  0  0  0  0  0  0  0  0  0  0
    5.5605   -6.1008    2.6315 C   0  0  0  0  0  0  0  0  0  0  0  0
    6.6210   -5.8949    2.0751 O   0  0  0  0  0  0  0  0  0  0  0  0
    4.9045   -1.7124    1.0392 C   0  0  0  0  0  0  0  0  0  0  0  0
    4.4431   -0.4462    0.7004 C   0  0  0  0  0  0  0  0  0  0  0  0
    2.6847    2.9895    0.0170 H   0  0  0  0  0  0  0  0  0  0  0  0
    3.5743    1.7399   -0.9110 H   0  0  0  0  0  0  0  0  0  0  0  0
    4.2686    2.3968    0.6122 H   0  0  0  0  0  0  0  0  0  0  0  0
    1.3730   -0.6135    2.1756 H   0  0  0  0  0  0  0  0  0  0  0  0
    2.2158   -2.8845    2.7766 H   0  0  0  0  0  0  0  0  0  0  0  0
    5.7642   -3.9615    1.6245 H   0  0  0  0  0  0  0  0  0  0  0  0
    2.3311   -6.9532    4.4463 H   0  0  0  0  0  0  0  0  0  0  0  0
    5.2391   -9.6814    1.9366 H   0  0  0  0  0  0  0  0  0  0  0  0
    7.0430  -11.4035    1.8388 H   0  0  0  0  0  0  0  0  0  0  0  0
    9.5382   -8.9268    4.3340 H   0  0  0  0  0  0  0  0  0  0  0  0
    7.7284   -7.2110    4.4375 H   0  0  0  0  0  0  0  0  0  0  0  0
    5.9039   -2.0110    0.7122 H   0  0  0  0  0  0  0  0  0  0  0  0
    5.0809    0.2199    0.1199 H   0  0  0  0  0  0  0  0  0  0  0  0
  1  2  1  0
  1 26  1  0
  1 27  1  0
  1 28  1  0
  2  3  1  0
  3  4  2  0
  3 25  1  0
  4  5  1  0
  4 29  1  0
  5  6  2  0
  5 30  1  0
  6  7  1  0
  6 24  1  0
  7  8  2  0
  7 31  1  0
  8  9  1  0
  8 22  1  0
  9 10  2  0
  9 11  1  0
 11 12  1  0
 11 32  1  0
 12 13  2  0
 12 14  1  0
 14 15  1  0
 14 22  1  0
 15 16  2  0
 15 21  1  0
 16 17  1  0
 16 33  1  0
 17 18  2  0
 17 34  1  0
 18 19  1  0
 18 20  1  0
 20 21  2  0
 20 35  1  0
 21 36  1  0
 22 23  2  0
 24 25  2  0
 24 37  1  0
 25 38  1  0
M  END

