
     RDKit          3D

 45 47  0  0  0  0  0  0  0  0999 V2000
   -0.1335   -2.2166    2.9468 C   0  0  0  0  0  0  0  0  0  0  0  0
    1.3457   -2.1515    2.5358 C   0  0  0  0  0  0  0  0  0  0  0  0
    2.1719   -1.2237    3.4010 C   0  0  0  0  0  0  0  0  0  0  0  0
    2.7500   -1.6716    4.6028 C   0  0  0  0  0  0  0  0  0  0  0  0
    3.4787   -0.8165    5.4242 C   0  0  0  0  0  0  0  0  0  0  0  0
    3.6518    0.5291    5.0630 C   0  0  0  0  0  0  0  0  0  0  0  0
    4.3823    1.2987    5.9226 O   0  0  0  0  0  0  0  0  0  0  0  0
    4.6002    2.6625    5.6329 C   0  0  0  0  0  0  0  0  0  0  0  0
    5.4359    3.3325    6.7231 C   0  0  0  0  0  0  0  0  0  0  0  0
    5.6806    4.5279    6.6461 O   0  0  0  0  0  0  0  0  0  0  0  0
    5.8699    2.5213    7.7141 N   0  0  0  0  0  0  0  0  0  0  0  0
    6.6310    3.0386    8.8449 C   0  0  0  0  0  0  0  0  0  0  0  0
    5.7769    3.6172    9.9418 C   0  0  0  0  0  0  0  0  0  0  0  0
    5.1494    4.8559    9.9353 C   0  0  0  0  0  0  0  0  0  0  0  0
    4.4658    4.9289   11.1305 N   0  0  0  0  0  0  0  0  0  0  0  0
    3.6730    5.9310   11.6573 C   0  0  0  0  0  0  0  0  0  0  0  0
    3.4868    7.1653   10.8320 C   0  0  0  0  0  0  0  0  0  0  0  0
    3.1172    5.7179   12.8974 C   0  0  0  0  0  0  0  0  0  0  0  0
    3.3472    4.5109   13.6171 C   0  0  0  0  0  0  0  0  0  0  0  0
    4.1390    3.5209   13.0819 C   0  0  0  0  0  0  0  0  0  0  0  0
    4.7210    3.7162   11.8066 C   0  0  0  0  0  0  0  0  0  0  0  0
    5.5107    2.9280   11.0839 N   0  0  0  0  0  0  0  0  0  0  0  0
    3.0869    0.9990    3.8704 C   0  0  0  0  0  0  0  0  0  0  0  0
    2.3577    0.1210    3.0590 C   0  0  0  0  0  0  0  0  0  0  0  0
   -0.6973   -2.9042    2.2954 H   0  0  0  0  0  0  0  0  0  0  0  0
   -0.6071   -1.2237    2.8836 H   0  0  0  0  0  0  0  0  0  0  0  0
   -0.2427   -2.5681    3.9855 H   0  0  0  0  0  0  0  0  0  0  0  0
    1.4160   -1.8277    1.4836 H   0  0  0  0  0  0  0  0  0  0  0  0
    1.7770   -3.1665    2.5741 H   0  0  0  0  0  0  0  0  0  0  0  0
    2.6308   -2.7179    4.9000 H   0  0  0  0  0  0  0  0  0  0  0  0
    3.9285   -1.1728    6.3534 H   0  0  0  0  0  0  0  0  0  0  0  0
    3.6489    3.2198    5.5585 H   0  0  0  0  0  0  0  0  0  0  0  0
    5.1377    2.7950    4.6760 H   0  0  0  0  0  0  0  0  0  0  0  0
    5.5228    1.5687    7.7281 H   0  0  0  0  0  0  0  0  0  0  0  0
    7.3117    3.8085    8.4543 H   0  0  0  0  0  0  0  0  0  0  0  0
    7.2284    2.2189    9.2676 H   0  0  0  0  0  0  0  0  0  0  0  0
    5.1346    5.6354    9.1808 H   0  0  0  0  0  0  0  0  0  0  0  0
    4.4535    7.6550   10.6217 H   0  0  0  0  0  0  0  0  0  0  0  0
    2.8409    7.8842   11.3532 H   0  0  0  0  0  0  0  0  0  0  0  0
    3.0282    6.9289    9.8562 H   0  0  0  0  0  0  0  0  0  0  0  0
    2.4886    6.5000   13.3263 H   0  0  0  0  0  0  0  0  0  0  0  0
    2.8889    4.3785   14.5995 H   0  0  0  0  0  0  0  0  0  0  0  0
    4.3409    2.5826   13.5995 H   0  0  0  0  0  0  0  0  0  0  0  0
    3.2085    2.0368    3.5594 H   0  0  0  0  0  0  0  0  0  0  0  0
    1.9271    0.5033    2.1286 H   0  0  0  0  0  0  0  0  0  0  0  0
  1  2  1  0
  1 25  1  0
  1 26  1  0
  1 27  1  0
  2  3  1  0
  2 28  1  0
  2 29  1  0
  3  4  2  0
  3 24  1  0
  4  5  1  0
  4 30  1  0
  5  6  2  0
  5 31  1  0
  6  7  1  0
  6 23  1  0
  7  8  1  0
  8  9  1  0
  8 32  1  0
  8 33  1  0
  9 10  2  0
  9 11  1  0
 11 12  1  0
 11 34  1  0
 12 13  1  0
 12 35  1  0
 12 36  1  0
 13 14  2  0
 13 22  1  0
 14 15  1  0
 14 37  1  0
 15 16  1  0
 15 21  1  0
 16 17  1  0
 16 18  2  0
 17 38  1  0
 17 39  1  0
 17 40  1  0
 18 19  1  0
 18 41  1  0
 19 20  2  0
 19 42  1  0
 20 21  1  0
 20 43  1  0
 21 22  2  0
 23 24  2  0
 23 44  1  0
 24 45  1  0
M  END

