
     RDKit          3D

 43 45  0  0  0  0  0  0  0  0999 V2000
    2.5245   -0.5095    1.7298 N   0  0  0  0  0  0  0  0  0  0  0  0
    2.8182   -0.3002    0.3208 C   0  0  0  0  0  0  0  0  0  0  0  0
    3.0248   -1.5986   -0.4309 C   0  0  0  0  0  0  0  0  0  0  0  0
    3.6545   -1.6129   -1.6940 C   0  0  0  0  0  0  0  0  0  0  0  0
    3.8438   -2.7239   -2.3917 N   0  0  0  0  0  0  0  0  0  0  0  0
    3.4322   -3.8891   -1.9251 N   0  0  0  0  0  0  0  0  0  0  0  0
    2.8275   -3.9732   -0.7237 C   0  0  0  0  0  0  0  0  0  0  0  0
    2.4446   -5.2291   -0.3067 N   0  0  0  0  0  0  0  0  0  0  0  0
    2.8035   -6.4267   -1.0754 C   0  0  0  0  0  0  0  0  0  0  0  0
    1.6714   -6.9870   -1.9186 C   0  0  0  0  0  0  0  0  0  0  0  0
    1.2002   -6.2806   -3.0397 C   0  0  0  0  0  0  0  0  0  0  0  0
    0.1556   -6.7922   -3.8116 C   0  0  0  0  0  0  0  0  0  0  0  0
   -0.4358   -8.0172   -3.4793 C   0  0  0  0  0  0  0  0  0  0  0  0
    0.0275   -8.7292   -2.3711 C   0  0  0  0  0  0  0  0  0  0  0  0
    1.0746   -8.2147   -1.5975 C   0  0  0  0  0  0  0  0  0  0  0  0
    1.6131   -5.4168    0.8645 C   0  0  0  0  0  0  0  0  0  0  0  0
    2.3467   -5.5631    2.1948 C   0  0  0  0  0  0  0  0  0  0  0  0
    3.7437   -5.5370    2.2864 C   0  0  0  0  0  0  0  0  0  0  0  0
    4.3806   -5.6872    3.5241 C   0  0  0  0  0  0  0  0  0  0  0  0
    3.6282   -5.8640    4.6869 C   0  0  0  0  0  0  0  0  0  0  0  0
    2.2310   -5.8899    4.6056 C   0  0  0  0  0  0  0  0  0  0  0  0
    1.5987   -5.7411    3.3703 C   0  0  0  0  0  0  0  0  0  0  0  0
    2.6077   -2.8161    0.0715 C   0  0  0  0  0  0  0  0  0  0  0  0
    2.2168    0.3568    2.1679 H   0  0  0  0  0  0  0  0  0  0  0  0
    3.3577   -0.8171    2.2325 H   0  0  0  0  0  0  0  0  0  0  0  0
    3.6919    0.3564    0.1195 H   0  0  0  0  0  0  0  0  0  0  0  0
    1.9532    0.2163   -0.1342 H   0  0  0  0  0  0  0  0  0  0  0  0
    4.0268   -0.6917   -2.1554 H   0  0  0  0  0  0  0  0  0  0  0  0
    3.1453   -7.1971   -0.3644 H   0  0  0  0  0  0  0  0  0  0  0  0
    3.6487   -6.1547   -1.7195 H   0  0  0  0  0  0  0  0  0  0  0  0
    1.6724   -5.3312   -3.3039 H   0  0  0  0  0  0  0  0  0  0  0  0
   -0.1969   -6.2348   -4.6837 H   0  0  0  0  0  0  0  0  0  0  0  0
   -1.2528   -8.4158   -4.0865 H   0  0  0  0  0  0  0  0  0  0  0  0
   -0.4246   -9.6887   -2.1060 H   0  0  0  0  0  0  0  0  0  0  0  0
    1.4389   -8.7816   -0.7350 H   0  0  0  0  0  0  0  0  0  0  0  0
    1.0016   -6.3193    0.6964 H   0  0  0  0  0  0  0  0  0  0  0  0
    0.8851   -4.5919    0.9414 H   0  0  0  0  0  0  0  0  0  0  0  0
    4.3382   -5.3961    1.3811 H   0  0  0  0  0  0  0  0  0  0  0  0
    5.4724   -5.6654    3.5760 H   0  0  0  0  0  0  0  0  0  0  0  0
    4.1253   -5.9815    5.6531 H   0  0  0  0  0  0  0  0  0  0  0  0
    1.6320   -6.0272    5.5097 H   0  0  0  0  0  0  0  0  0  0  0  0
    0.5055   -5.7635    3.3161 H   0  0  0  0  0  0  0  0  0  0  0  0
    2.1488   -2.8549    1.0584 H   0  0  0  0  0  0  0  0  0  0  0  0
  1  2  1  0
  1 24  1  0
  1 25  1  0
  2  3  1  0
  2 26  1  0
  2 27  1  0
  3  4  2  0
  3 23  1  0
  4  5  1  0
  4 28  1  0
  5  6  2  0
  6  7  1  0
  7  8  1  0
  7 23  2  0
  8  9  1  0
  8 16  1  0
  9 10  1  0
  9 29  1  0
  9 30  1  0
 10 11  2  0
 10 15  1  0
 11 12  1  0
 11 31  1  0
 12 13  2  0
 12 32  1  0
 13 14  1  0
 13 33  1  0
 14 15  2  0
 14 34  1  0
 15 35  1  0
 16 17  1  0
 16 36  1  0
 16 37  1  0
 17 18  2  0
 17 22  1  0
 18 19  1  0
 18 38  1  0
 19 20  2  0
 19 39  1  0
 20 21  1  0
 20 40  1  0
 21 22  2  0
 21 41  1  0
 22 42  1  0
 23 43  1  0
M  END

