
     RDKit          3D

 51 53  0  0  0  0  0  0  0  0999 V2000
    2.4224    0.0813   -2.6939 C   0  0  0  0  0  0  0  0  0  0  0  0
    2.0604    1.1566   -1.6645 C   0  0  1  0  0  0  0  0  0  0  0  0
    0.5782    1.0947   -1.2773 C   0  0  0  0  0  0  0  0  0  0  0  0
    2.9342    1.0698   -0.3950 C   0  0  0  0  0  0  0  0  0  0  0  0
    4.3596    1.2416   -0.6067 N   0  0  0  0  0  0  0  0  0  0  0  0
    5.0481    2.4464   -0.6792 C   0  0  0  0  0  0  0  0  0  0  0  0
    4.3907    3.6459   -0.6063 N   0  0  0  0  0  0  0  0  0  0  0  0
    5.1284    4.9011   -0.6913 C   0  0  0  0  0  0  0  0  0  0  0  0
    5.6070    5.2932   -2.0966 C   0  0  0  0  0  0  0  0  0  0  0  0
    4.4558    5.5479   -3.0861 C   0  0  0  0  0  0  0  0  0  0  0  0
    4.8108    5.9331   -4.4426 N   0  0  0  0  0  0  0  0  0  0  0  0
    5.4949    4.9185   -5.2316 C   0  0  0  0  0  0  0  0  0  0  0  0
    5.5544    5.3606   -6.6925 C   0  0  0  0  0  0  0  0  0  0  0  0
    6.1716    6.6257   -6.8215 O   0  0  0  0  0  0  0  0  0  0  0  0
    5.4947    7.6127   -6.0706 C   0  0  0  0  0  0  0  0  0  0  0  0
    5.4344    7.2395   -4.5903 C   0  0  0  0  0  0  0  0  0  0  0  0
    6.3515    2.3110   -0.7566 N   0  0  0  0  0  0  0  0  0  0  0  0
    6.5737    0.9457   -0.7194 C   0  0  0  0  0  0  0  0  0  0  0  0
    7.7741    0.2255   -0.7604 C   0  0  0  0  0  0  0  0  0  0  0  0
    7.7145   -1.1700   -0.7058 C   0  0  0  0  0  0  0  0  0  0  0  0
    6.4848   -1.8460   -0.6132 C   0  0  0  0  0  0  0  0  0  0  0  0
    5.2729   -1.1450   -0.5768 C   0  0  0  0  0  0  0  0  0  0  0  0
    5.3404    0.2472   -0.6303 C   0  0  0  0  0  0  0  0  0  0  0  0
    1.8254    0.2013   -3.6119 H   0  0  0  0  0  0  0  0  0  0  0  0
    2.2216   -0.9283   -2.2964 H   0  0  0  0  0  0  0  0  0  0  0  0
    3.4857    0.1259   -2.9737 H   0  0  0  0  0  0  0  0  0  0  0  0
    2.2489    2.1432   -2.1305 H   0  0  0  0  0  0  0  0  0  0  0  0
    0.3349    0.1297   -0.8004 H   0  0  0  0  0  0  0  0  0  0  0  0
   -0.0671    1.1969   -2.1637 H   0  0  0  0  0  0  0  0  0  0  0  0
    0.3045    1.8941   -0.5691 H   0  0  0  0  0  0  0  0  0  0  0  0
    2.7837    0.0912    0.0894 H   0  0  0  0  0  0  0  0  0  0  0  0
    2.6022    1.8292    0.3346 H   0  0  0  0  0  0  0  0  0  0  0  0
    3.4157    3.6587   -0.8746 H   0  0  0  0  0  0  0  0  0  0  0  0
    6.0001    4.8100   -0.0274 H   0  0  0  0  0  0  0  0  0  0  0  0
    4.4777    5.6898   -0.2759 H   0  0  0  0  0  0  0  0  0  0  0  0
    6.2745    4.4989   -2.4662 H   0  0  0  0  0  0  0  0  0  0  0  0
    6.2226    6.2040   -1.9967 H   0  0  0  0  0  0  0  0  0  0  0  0
    3.7975    6.3375   -2.6759 H   0  0  0  0  0  0  0  0  0  0  0  0
    3.8349    4.6361   -3.1572 H   0  0  0  0  0  0  0  0  0  0  0  0
    4.9431    3.9657   -5.1576 H   0  0  0  0  0  0  0  0  0  0  0  0
    6.5329    4.7270   -4.8781 H   0  0  0  0  0  0  0  0  0  0  0  0
    4.5246    5.3928   -7.1052 H   0  0  0  0  0  0  0  0  0  0  0  0
    6.1485    4.6512   -7.2889 H   0  0  0  0  0  0  0  0  0  0  0  0
    4.4614    7.7453   -6.4535 H   0  0  0  0  0  0  0  0  0  0  0  0
    6.0438    8.5566   -6.2112 H   0  0  0  0  0  0  0  0  0  0  0  0
    4.8380    7.9918   -4.0457 H   0  0  0  0  0  0  0  0  0  0  0  0
    6.4685    7.2728   -4.1776 H   0  0  0  0  0  0  0  0  0  0  0  0
    8.7265    0.7554   -0.8299 H   0  0  0  0  0  0  0  0  0  0  0  0
    8.6409   -1.7493   -0.7351 H   0  0  0  0  0  0  0  0  0  0  0  0
    6.4716   -2.9379   -0.5712 H   0  0  0  0  0  0  0  0  0  0  0  0
    4.3213   -1.6773   -0.5116 H   0  0  0  0  0  0  0  0  0  0  0  0
  1  2  1  0
  1 24  1  0
  1 25  1  0
  1 26  1  0
  2  3  1  0
  2  4  1  0
  2 27  1  6
  3 28  1  0
  3 29  1  0
  3 30  1  0
  4  5  1  0
  4 31  1  0
  4 32  1  0
  5  6  1  0
  5 23  1  0
  6  7  1  0
  6 17  2  0
  7  8  1  0
  7 33  1  0
  8  9  1  0
  8 34  1  0
  8 35  1  0
  9 10  1  0
  9 36  1  0
  9 37  1  0
 10 11  1  0
 10 38  1  0
 10 39  1  0
 11 12  1  0
 11 16  1  0
 12 13  1  0
 12 40  1  0
 12 41  1  0
 13 14  1  0
 13 42  1  0
 13 43  1  0
 14 15  1  0
 15 16  1  0
 15 44  1  0
 15 45  1  0
 16 46  1  0
 16 47  1  0
 17 18  1  0
 18 19  1  0
 18 23  2  0
 19 20  2  0
 19 48  1  0
 20 21  1  0
 20 49  1  0
 21 22  2  0
 21 50  1  0
 22 23  1  0
 22 51  1  0
M  END

