
     RDKit          3D

 37 39  0  0  0  0  0  0  0  0999 V2000
    1.2974   -0.1187    0.3672 O   0  0  0  0  0  0  0  0  0  0  0  0
    2.5206   -0.0943    0.3869 C   0  0  0  0  0  0  0  0  0  0  0  0
    3.3256   -1.2906    0.0575 C   0  0  0  0  0  0  0  0  0  0  0  0
    2.7027   -2.4549   -0.2426 C   0  0  0  0  0  0  0  0  0  0  0  0
    3.3126   -3.7280   -0.6107 C   0  0  0  0  0  0  0  0  0  0  0  0
    4.7095   -3.9205   -0.7134 C   0  0  0  0  0  0  0  0  0  0  0  0
    5.2324   -5.1594   -1.0597 C   0  0  0  0  0  0  0  0  0  0  0  0
    4.3838   -6.2451   -1.3193 C   0  0  0  0  0  0  0  0  0  0  0  0
    2.9867   -6.0663   -1.2446 C   0  0  0  0  0  0  0  0  0  0  0  0
    2.4699   -4.8217   -0.8880 C   0  0  0  0  0  0  0  0  0  0  0  0
    2.1228   -7.0898   -1.5141 O   0  0  0  0  0  0  0  0  0  0  0  0
    2.7069   -8.1809   -2.2091 C   0  0  0  0  0  0  0  0  0  0  0  0
    4.0398   -8.5507   -1.5811 C   0  0  0  0  0  0  0  0  0  0  0  0
    4.9356   -7.4476   -1.6389 O   0  0  0  0  0  0  0  0  0  0  0  0
    3.1988    1.2268    0.7048 C   0  0  0  0  0  0  0  0  0  0  0  0
    2.3788    2.3606    0.6046 C   0  0  0  0  0  0  0  0  0  0  0  0
    2.8731    3.6313    0.8723 C   0  0  0  0  0  0  0  0  0  0  0  0
    1.9859    4.7994    0.7409 N   0  0  0  0  0  0  0  0  0  0  0  0
    0.8358    4.6023    0.3857 O   0  0  0  0  0  0  0  0  0  0  0  0
    2.4608    5.8966    0.9970 O   0  0  0  0  0  0  0  0  0  0  0  0
    4.1990    3.8263    1.2689 C   0  0  0  0  0  0  0  0  0  0  0  0
    5.0208    2.7159    1.3915 C   0  0  0  0  0  0  0  0  0  0  0  0
    4.5413    1.4198    1.1169 C   0  0  0  0  0  0  0  0  0  0  0  0
    5.3611    0.3554    1.2664 O   0  0  0  0  0  0  0  0  0  0  0  0
    4.4097   -1.2032    0.0575 H   0  0  0  0  0  0  0  0  0  0  0  0
    1.6081   -2.4378   -0.2039 H   0  0  0  0  0  0  0  0  0  0  0  0
    5.3915   -3.0927   -0.5131 H   0  0  0  0  0  0  0  0  0  0  0  0
    6.3096   -5.3244   -1.1309 H   0  0  0  0  0  0  0  0  0  0  0  0
    1.3841   -4.7149   -0.8358 H   0  0  0  0  0  0  0  0  0  0  0  0
    2.8530   -7.9173   -3.2736 H   0  0  0  0  0  0  0  0  0  0  0  0
    1.9959   -9.0176   -2.1494 H   0  0  0  0  0  0  0  0  0  0  0  0
    4.5192   -9.3800   -2.1210 H   0  0  0  0  0  0  0  0  0  0  0  0
    3.8884   -8.8542   -0.5286 H   0  0  0  0  0  0  0  0  0  0  0  0
    1.3379    2.2233    0.3139 H   0  0  0  0  0  0  0  0  0  0  0  0
    4.5581    4.8341    1.4749 H   0  0  0  0  0  0  0  0  0  0  0  0
    6.0604    2.8401    1.7109 H   0  0  0  0  0  0  0  0  0  0  0  0
    6.2274    0.6520    1.5773 H   0  0  0  0  0  0  0  0  0  0  0  0
  1  2  2  0
  2  3  1  0
  2 15  1  0
  3  4  2  0
  3 25  1  0
  4  5  1  0
  4 26  1  0
  5  6  2  0
  5 10  1  0
  6  7  1  0
  6 27  1  0
  7  8  2  0
  7 28  1  0
  8  9  1  0
  8 14  1  0
  9 10  2  0
  9 11  1  0
 10 29  1  0
 11 12  1  0
 12 13  1  0
 12 30  1  0
 12 31  1  0
 13 14  1  0
 13 32  1  0
 13 33  1  0
 15 16  2  0
 15 23  1  0
 16 17  1  0
 16 34  1  0
 17 18  1  0
 17 21  2  0
 18 19  2  0
 18 20  1  0
 21 22  1  0
 21 35  1  0
 22 23  2  0
 22 36  1  0
 23 24  1  0
 24 37  1  0
M  CHG  2  18   1  20  -1
M  END

