
     RDKit          3D

 34 34  0  0  0  0  0  0  0  0999 V2000
    1.0003   -0.0246   -0.5024 C   0  0  0  0  0  0  0  0  0  0  0  0
    2.4464   -0.4144   -0.2014 C   0  0  0  0  0  0  0  0  0  0  0  0
    3.1004    0.4590    0.7756 N   0  0  0  0  0  0  0  0  0  0  0  0
    2.5874    0.3916    2.1219 C   0  0  0  0  0  0  0  0  0  0  0  0
    2.8358   -0.8996    2.9136 C   0  0  0  0  0  0  0  0  0  0  0  0
    3.5742   -1.7696    2.5038 O   0  0  0  0  0  0  0  0  0  0  0  0
    2.0906   -1.0384    4.2465 C   0  0  1  0  0  0  0  0  0  0  0  0
    0.7963   -1.8390    4.0001 C   0  0  0  0  0  0  0  0  0  0  0  0
    2.9763   -1.7055    5.3031 C   0  0  0  0  0  0  0  0  0  0  0  0
    4.5554    0.4919    0.6650 C   0  0  0  0  0  0  0  0  0  0  0  0
    5.0188    1.2781   -0.5384 C   0  0  0  0  0  0  0  0  0  0  0  0
    4.4739    2.4167   -1.0835 C   0  0  0  0  0  0  0  0  0  0  0  0
    5.2157    2.9203   -2.1959 C   0  0  0  0  0  0  0  0  0  0  0  0
    6.3193    2.1587   -2.4855 C   0  0  0  0  0  0  0  0  0  0  0  0
    6.4563    0.8121   -1.4057 S   0  0  0  0  0  0  0  0  0  0  0  0
    0.5937   -0.6679   -1.2990 H   0  0  0  0  0  0  0  0  0  0  0  0
    0.9381    1.0228   -0.8375 H   0  0  0  0  0  0  0  0  0  0  0  0
    0.3385   -0.1407    0.3714 H   0  0  0  0  0  0  0  0  0  0  0  0
    3.0269   -0.3358   -1.1335 H   0  0  0  0  0  0  0  0  0  0  0  0
    2.4974   -1.4789    0.1069 H   0  0  0  0  0  0  0  0  0  0  0  0
    1.5010    0.5907    2.1278 H   0  0  0  0  0  0  0  0  0  0  0  0
    3.0196    1.2123    2.7273 H   0  0  0  0  0  0  0  0  0  0  0  0
    1.8065   -0.0263    4.5870 H   0  0  0  0  0  0  0  0  0  0  0  0
    1.0356   -2.8531    3.6427 H   0  0  0  0  0  0  0  0  0  0  0  0
    0.1485   -1.3587    3.2490 H   0  0  0  0  0  0  0  0  0  0  0  0
    0.2165   -1.9310    4.9321 H   0  0  0  0  0  0  0  0  0  0  0  0
    3.3234   -2.6853    4.9425 H   0  0  0  0  0  0  0  0  0  0  0  0
    2.4217   -1.8519    6.2433 H   0  0  0  0  0  0  0  0  0  0  0  0
    3.8679   -1.0977    5.5247 H   0  0  0  0  0  0  0  0  0  0  0  0
    5.0052   -0.5202    0.6504 H   0  0  0  0  0  0  0  0  0  0  0  0
    4.9494    0.9755    1.5766 H   0  0  0  0  0  0  0  0  0  0  0  0
    3.5607    2.8670   -0.6925 H   0  0  0  0  0  0  0  0  0  0  0  0
    4.9396    3.8135   -2.7595 H   0  0  0  0  0  0  0  0  0  0  0  0
    7.0569    2.3075   -3.2729 H   0  0  0  0  0  0  0  0  0  0  0  0
  1  2  1  0
  1 16  1  0
  1 17  1  0
  1 18  1  0
  2  3  1  0
  2 19  1  0
  2 20  1  0
  3  4  1  0
  3 10  1  0
  4  5  1  0
  4 21  1  0
  4 22  1  0
  5  6  2  0
  5  7  1  0
  7  8  1  0
  7  9  1  0
  7 23  1  1
  8 24  1  0
  8 25  1  0
  8 26  1  0
  9 27  1  0
  9 28  1  0
  9 29  1  0
 10 11  1  0
 10 30  1  0
 10 31  1  0
 11 12  2  0
 11 15  1  0
 12 13  1  0
 12 32  1  0
 13 14  2  0
 13 33  1  0
 14 15  1  0
 14 34  1  0
M  END

