
     RDKit          3D

 42 43  0  0  0  0  0  0  0  0999 V2000
    2.8316    4.3905   -3.9048 C   0  0  0  0  0  0  0  0  0  0  0  0
    3.2157    4.2040   -2.6358 C   0  0  0  0  0  0  0  0  0  0  0  0
    3.4513    2.8661   -1.9907 C   0  0  0  0  0  0  0  0  0  0  0  0
    4.9549    2.5964   -1.7787 C   0  0  2  0  0  0  0  0  0  0  0  0
    5.3438    3.3412   -1.0536 H   0  0  0  0  0  0  0  0  0  0  0  0
    5.6474    2.7157   -3.0099 O   0  0  0  0  0  0  0  0  0  0  0  0
    5.2711    1.1920   -1.1998 C   0  0  1  0  0  0  0  0  0  0  0  0
    4.6391    1.0056    0.2066 C   0  0  0  0  0  0  0  0  0  0  0  0
    3.2909    0.2789    0.2502 C   0  0  0  0  0  0  0  0  0  0  0  0
    4.7388    0.1961   -2.0876 O   0  0  0  0  0  0  0  0  0  0  0  0
    5.6838   -0.2224   -3.0357 C   0  0  2  0  0  0  0  0  0  0  0  0
    5.3733    0.1344   -4.0329 H   0  0  0  0  0  0  0  0  0  0  0  0
    5.7961   -1.6237   -3.0333 O   0  0  0  0  0  0  0  0  0  0  0  0
    7.1705   -1.9916   -3.0469 C   0  0  1  0  0  0  0  0  0  0  0  0
    7.3642   -3.2042   -2.1490 C   0  0  0  0  0  0  0  0  0  0  0  0
    7.6383   -2.2412   -4.4846 C   0  0  0  0  0  0  0  0  0  0  0  0
    7.8759   -0.8835   -2.4931 O   0  0  0  0  0  0  0  0  0  0  0  0
    7.0716    0.2820   -2.5792 C   0  0  2  0  0  0  0  0  0  0  0  0
    7.5082    1.0063   -3.2825 H   0  0  0  0  0  0  0  0  0  0  0  0
    6.8034    0.8983   -1.1951 C   0  0  1  0  0  0  0  0  0  0  0  0
    6.9438    0.0624   -0.4922 H   0  0  0  0  0  0  0  0  0  0  0  0
    7.7403    2.0327   -0.7891 C   0  0  0  0  0  0  0  0  0  0  0  0
    2.6980    5.3925   -4.3226 H   0  0  0  0  0  0  0  0  0  0  0  0
    2.6127    3.5440   -4.5648 H   0  0  0  0  0  0  0  0  0  0  0  0
    3.4162    5.0852   -2.0110 H   0  0  0  0  0  0  0  0  0  0  0  0
    3.0406    2.0553   -2.6118 H   0  0  0  0  0  0  0  0  0  0  0  0
    2.9396    2.8393   -1.0158 H   0  0  0  0  0  0  0  0  0  0  0  0
    5.2343    3.4295   -3.5185 H   0  0  0  0  0  0  0  0  0  0  0  0
    5.3476    0.4334    0.8267 H   0  0  0  0  0  0  0  0  0  0  0  0
    4.5544    1.9924    0.6940 H   0  0  0  0  0  0  0  0  0  0  0  0
    3.3759   -0.7199   -0.1994 H   0  0  0  0  0  0  0  0  0  0  0  0
    2.4975    0.8137   -0.2918 H   0  0  0  0  0  0  0  0  0  0  0  0
    2.9617    0.1634    1.2954 H   0  0  0  0  0  0  0  0  0  0  0  0
    6.8060   -4.0658   -2.5440 H   0  0  0  0  0  0  0  0  0  0  0  0
    6.9953   -2.9737   -1.1399 H   0  0  0  0  0  0  0  0  0  0  0  0
    8.4306   -3.4672   -2.0906 H   0  0  0  0  0  0  0  0  0  0  0  0
    7.0670   -3.0651   -4.9382 H   0  0  0  0  0  0  0  0  0  0  0  0
    8.7086   -2.4966   -4.4993 H   0  0  0  0  0  0  0  0  0  0  0  0
    7.4913   -1.3387   -5.0976 H   0  0  0  0  0  0  0  0  0  0  0  0
    7.6958    2.8657   -1.5059 H   0  0  0  0  0  0  0  0  0  0  0  0
    8.7788    1.6674   -0.7552 H   0  0  0  0  0  0  0  0  0  0  0  0
    7.4967    2.4211    0.2135 H   0  0  0  0  0  0  0  0  0  0  0  0
  1  2  2  0
  1 23  1  0
  1 24  1  0
  2  3  1  0
  2 25  1  0
  3  4  1  0
  3 26  1  0
  3 27  1  0
  4  5  1  1
  4  6  1  0
  4  7  1  0
  6 28  1  0
  7  8  1  1
  7 10  1  0
  7 20  1  0
  8  9  1  0
  8 29  1  0
  8 30  1  0
  9 31  1  0
  9 32  1  0
  9 33  1  0
 10 11  1  0
 11 12  1  6
 11 13  1  0
 11 18  1  0
 13 14  1  0
 14 15  1  1
 14 16  1  0
 14 17  1  0
 15 34  1  0
 15 35  1  0
 15 36  1  0
 16 37  1  0
 16 38  1  0
 16 39  1  0
 17 18  1  0
 18 19  1  6
 18 20  1  0
 20 21  1  1
 20 22  1  0
 22 40  1  0
 22 41  1  0
 22 42  1  0
M  END

