
     RDKit          3D

 43 45  0  0  0  0  0  0  0  0999 V2000
    0.8994   -1.5655   -0.6137 C   0  0  0  0  0  0  0  0  0  0  0  0
    2.3934   -1.5377   -0.8213 C   0  0  0  0  0  0  0  0  0  0  0  0
    2.9668   -0.9088   -1.9379 C   0  0  0  0  0  0  0  0  0  0  0  0
    4.3485   -0.8928   -2.1273 C   0  0  0  0  0  0  0  0  0  0  0  0
    5.2032   -1.5203   -1.2103 C   0  0  0  0  0  0  0  0  0  0  0  0
    6.6818   -1.4560   -1.4788 C   0  0  0  0  0  0  0  0  0  0  0  0
    7.1651   -0.6299   -2.2423 O   0  0  0  0  0  0  0  0  0  0  0  0
    7.4628   -2.3725   -0.8253 N   0  0  0  0  0  0  0  0  0  0  0  0
    8.9009   -2.4021   -1.0085 C   0  0  0  0  0  0  0  0  0  0  0  0
    9.3219   -3.0813   -2.3267 C   0  0  0  0  0  0  0  0  0  0  0  0
   10.7560   -3.0798   -2.5361 N   0  0  0  0  0  0  0  0  0  0  0  0
   11.6064   -3.9803   -1.9602 C   0  0  0  0  0  0  0  0  0  0  0  0
   13.0143   -3.8788   -2.2305 C   0  0  0  0  0  0  0  0  0  0  0  0
   13.8720   -4.7978   -1.6688 C   0  0  0  0  0  0  0  0  0  0  0  0
   15.2832   -4.7104   -1.9275 C   0  0  0  0  0  0  0  0  0  0  0  0
   16.4239   -4.6454   -2.1323 N   0  0  0  0  0  0  0  0  0  0  0  0
   13.3526   -5.8430   -0.8275 C   0  0  0  0  0  0  0  0  0  0  0  0
   14.1639   -6.8281   -0.2146 C   0  0  0  0  0  0  0  0  0  0  0  0
   13.5798   -7.7959    0.5794 C   0  0  0  0  0  0  0  0  0  0  0  0
   14.5692   -9.0182    1.3414 Cl  0  0  0  0  0  0  0  0  0  0  0  0
   12.1797   -7.8179    0.7901 C   0  0  0  0  0  0  0  0  0  0  0  0
   11.3797   -6.8629    0.1990 C   0  0  0  0  0  0  0  0  0  0  0  0
   11.9341   -5.8460   -0.6273 C   0  0  0  0  0  0  0  0  0  0  0  0
   11.1046   -4.9258   -1.1832 N   0  0  0  0  0  0  0  0  0  0  0  0
    4.6381   -2.1387   -0.0823 C   0  0  0  0  0  0  0  0  0  0  0  0
    3.2565   -2.1462    0.1060 C   0  0  0  0  0  0  0  0  0  0  0  0
    0.3750   -0.9490   -1.3582 H   0  0  0  0  0  0  0  0  0  0  0  0
    0.6269   -1.1947    0.3879 H   0  0  0  0  0  0  0  0  0  0  0  0
    0.5062   -2.5935   -0.6928 H   0  0  0  0  0  0  0  0  0  0  0  0
    2.3179   -0.4190   -2.6694 H   0  0  0  0  0  0  0  0  0  0  0  0
    4.7944   -0.3909   -2.9882 H   0  0  0  0  0  0  0  0  0  0  0  0
    7.0192   -3.1449   -0.3458 H   0  0  0  0  0  0  0  0  0  0  0  0
    9.3556   -2.9356   -0.1611 H   0  0  0  0  0  0  0  0  0  0  0  0
    9.2695   -1.3652   -1.0072 H   0  0  0  0  0  0  0  0  0  0  0  0
    8.8494   -2.5479   -3.1639 H   0  0  0  0  0  0  0  0  0  0  0  0
    8.9674   -4.1232   -2.3300 H   0  0  0  0  0  0  0  0  0  0  0  0
   11.1617   -2.3216   -3.0681 H   0  0  0  0  0  0  0  0  0  0  0  0
   13.3988   -3.0856   -2.8748 H   0  0  0  0  0  0  0  0  0  0  0  0
   15.2441   -6.8216   -0.3701 H   0  0  0  0  0  0  0  0  0  0  0  0
   11.7489   -8.5965    1.4221 H   0  0  0  0  0  0  0  0  0  0  0  0
   10.2983   -6.8618    0.3467 H   0  0  0  0  0  0  0  0  0  0  0  0
    5.2759   -2.5935    0.6803 H   0  0  0  0  0  0  0  0  0  0  0  0
    2.8390   -2.6250    0.9966 H   0  0  0  0  0  0  0  0  0  0  0  0
  1  2  1  0
  1 27  1  0
  1 28  1  0
  1 29  1  0
  2  3  2  0
  2 26  1  0
  3  4  1  0
  3 30  1  0
  4  5  2  0
  4 31  1  0
  5  6  1  0
  5 25  1  0
  6  7  2  0
  6  8  1  0
  8  9  1  0
  8 32  1  0
  9 10  1  0
  9 33  1  0
  9 34  1  0
 10 11  1  0
 10 35  1  0
 10 36  1  0
 11 12  1  0
 11 37  1  0
 12 13  2  0
 12 24  1  0
 13 14  1  0
 13 38  1  0
 14 15  1  0
 14 17  2  0
 15 16  3  0
 17 18  1  0
 17 23  1  0
 18 19  2  0
 18 39  1  0
 19 20  1  0
 19 21  1  0
 21 22  2  0
 21 40  1  0
 22 23  1  0
 22 41  1  0
 23 24  2  0
 25 26  2  0
 25 42  1  0
 26 43  1  0
M  END

