
     RDKit          3D

 17 16  0  0  0  0  0  0  0  0999 V2000
    1.0794    0.0801   -0.0189 C   0  0  0  0  0  0  0  0  0  0  0  0
    2.5957   -0.0687   -0.0933 C   0  0  1  0  0  0  0  0  0  0  0  0
    3.0322   -0.7826   -1.3702 C   0  0  0  0  0  0  0  0  0  0  0  0
    3.1296    1.2341   -0.1527 F   0  0  0  0  0  0  0  0  0  0  0  0
    3.1446   -0.7139    1.1961 C   0  0  0  0  0  0  0  0  0  0  0  0
    4.6624   -0.7025    1.2791 C   0  0  0  0  0  0  0  0  0  0  0  0
    5.3967   -1.4661    3.1984 I   0  0  0  0  0  0  0  0  0  0  0  0
    0.7081    0.6083   -0.9100 H   0  0  0  0  0  0  0  0  0  0  0  0
    0.7933    0.6601    0.8712 H   0  0  0  0  0  0  0  0  0  0  0  0
    0.5886   -0.9040    0.0328 H   0  0  0  0  0  0  0  0  0  0  0  0
    2.6183   -0.2655   -2.2487 H   0  0  0  0  0  0  0  0  0  0  0  0
    2.6756   -1.8242   -1.3801 H   0  0  0  0  0  0  0  0  0  0  0  0
    4.1274   -0.7874   -1.4685 H   0  0  0  0  0  0  0  0  0  0  0  0
    2.7608   -1.7443    1.2697 H   0  0  0  0  0  0  0  0  0  0  0  0
    2.7298   -0.1568    2.0509 H   0  0  0  0  0  0  0  0  0  0  0  0
    5.0645    0.3139    1.2038 H   0  0  0  0  0  0  0  0  0  0  0  0
    5.1459   -1.3448    0.5343 H   0  0  0  0  0  0  0  0  0  0  0  0
  1  2  1  0
  1  8  1  0
  1  9  1  0
  1 10  1  0
  2  3  1  0
  2  4  1  6
  2  5  1  0
  3 11  1  0
  3 12  1  0
  3 13  1  0
  5  6  1  0
  5 14  1  0
  5 15  1  0
  6  7  1  0
  6 16  1  0
  6 17  1  0
M  END

