
     RDKit          3D

 58 59  0  0  0  0  0  0  0  0999 V2000
    1.7429    0.7559   -1.4791 C   0  0  0  0  0  0  0  0  0  0  0  0
    2.1027   -0.0310   -0.2189 C   0  0  1  0  0  0  0  0  0  0  0  0
    0.8600   -0.5967    0.4615 C   0  0  0  0  0  0  0  0  0  0  0  0
    3.1697   -1.1013   -0.5150 C   0  0  0  0  0  0  0  0  0  0  0  0
    3.6178   -1.9771    0.6661 C   0  0  0  0  0  0  0  0  0  0  0  0
    4.9798   -2.6358    0.4161 C   0  0  0  0  0  0  0  0  0  0  0  0
    5.4081   -3.6169    1.5139 C   0  0  0  0  0  0  0  0  0  0  0  0
    6.8710   -4.0819    1.3888 C   0  0  0  0  0  0  0  0  0  0  0  0
    7.8434   -2.9668    1.7768 C   0  0  0  0  0  0  0  0  0  0  0  0
    7.7712   -2.4518    2.8734 O   0  0  0  0  0  0  0  0  0  0  0  0
    8.8884   -2.5334    0.7547 C   0  0  0  0  0  0  0  0  0  0  0  0
    9.5676   -1.2012    1.0823 C   0  0  0  0  0  0  0  0  0  0  0  0
    8.5958   -0.0223    0.9771 C   0  0  0  0  0  0  0  0  0  0  0  0
    9.1641    1.3530    1.3560 C   0  0  0  0  0  0  0  0  0  0  0  0
    8.0496    2.4076    1.5287 C   0  0  0  0  0  0  0  0  0  0  0  0
    7.5313    2.6489    2.9720 C   0  0  2  0  0  0  0  0  0  0  0  0
    8.2961    3.7822    3.6503 C   0  0  0  0  0  0  0  0  0  0  0  0
    7.4930    1.4166    3.8793 C   0  0  0  0  0  0  0  0  0  0  0  0
    6.1468    3.1932    2.8133 O   0  0  0  0  0  0  0  0  0  0  0  0
    4.7887    2.3896    2.9508 P   0  0  2  0  0  0  0  0  0  0  0  0
    4.1934    2.2237    4.2829 O   0  0  0  0  0  0  0  0  0  0  0  0
    4.9400    1.0298    1.9776 O   0  0  0  0  0  0  0  0  0  0  0  0
    4.0297    1.6824    0.7418 P   0  0  1  0  0  0  0  0  0  0  0  0
    4.7018    1.8546   -0.5609 O   0  0  0  0  0  0  0  0  0  0  0  0
    2.6339    0.9352    0.7869 O   0  0  0  0  0  0  0  0  0  0  0  0
    3.8287    3.0000    1.7260 O   0  0  0  0  0  0  0  0  0  0  0  0
    1.2742    0.0873   -2.2175 H   0  0  0  0  0  0  0  0  0  0  0  0
    2.6387    1.2055   -1.9299 H   0  0  0  0  0  0  0  0  0  0  0  0
    1.0281    1.5573   -1.2383 H   0  0  0  0  0  0  0  0  0  0  0  0
    0.3857   -1.3458   -0.1912 H   0  0  0  0  0  0  0  0  0  0  0  0
    0.1334    0.2050    0.6594 H   0  0  0  0  0  0  0  0  0  0  0  0
    1.1122   -1.0738    1.4186 H   0  0  0  0  0  0  0  0  0  0  0  0
    4.0432   -0.5844   -0.9460 H   0  0  0  0  0  0  0  0  0  0  0  0
    2.7753   -1.7395   -1.3245 H   0  0  0  0  0  0  0  0  0  0  0  0
    2.8610   -2.7537    0.8729 H   0  0  0  0  0  0  0  0  0  0  0  0
    3.6894   -1.3657    1.5809 H   0  0  0  0  0  0  0  0  0  0  0  0
    5.7339   -1.8336    0.3209 H   0  0  0  0  0  0  0  0  0  0  0  0
    4.9717   -3.1583   -0.5589 H   0  0  0  0  0  0  0  0  0  0  0  0
    4.7422   -4.4968    1.5037 H   0  0  0  0  0  0  0  0  0  0  0  0
    5.2919   -3.1459    2.5043 H   0  0  0  0  0  0  0  0  0  0  0  0
    7.0826   -4.4595    0.3750 H   0  0  0  0  0  0  0  0  0  0  0  0
    7.0492   -4.9114    2.0944 H   0  0  0  0  0  0  0  0  0  0  0  0
    8.4126   -2.5071   -0.2423 H   0  0  0  0  0  0  0  0  0  0  0  0
    9.6254   -3.3579    0.6952 H   0  0  0  0  0  0  0  0  0  0  0  0
   10.4272   -1.0525    0.4061 H   0  0  0  0  0  0  0  0  0  0  0  0
    9.9714   -1.2530    2.1071 H   0  0  0  0  0  0  0  0  0  0  0  0
    7.7266   -0.2359    1.6149 H   0  0  0  0  0  0  0  0  0  0  0  0
    8.2003    0.0382   -0.0536 H   0  0  0  0  0  0  0  0  0  0  0  0
    9.8612    1.6883    0.5696 H   0  0  0  0  0  0  0  0  0  0  0  0
    9.7765    1.2736    2.2711 H   0  0  0  0  0  0  0  0  0  0  0  0
    7.1964    2.1118    0.9012 H   0  0  0  0  0  0  0  0  0  0  0  0
    8.3780    3.3828    1.1364 H   0  0  0  0  0  0  0  0  0  0  0  0
    9.3660    3.5268    3.7071 H   0  0  0  0  0  0  0  0  0  0  0  0
    7.9230    3.9557    4.6706 H   0  0  0  0  0  0  0  0  0  0  0  0
    8.1909    4.7133    3.0745 H   0  0  0  0  0  0  0  0  0  0  0  0
    8.5150    1.0809    4.1032 H   0  0  0  0  0  0  0  0  0  0  0  0
    6.9632    0.5669    3.4287 H   0  0  0  0  0  0  0  0  0  0  0  0
    7.0043    1.6678    4.8322 H   0  0  0  0  0  0  0  0  0  0  0  0
  2  1  1  6
  1 27  1  0
  1 28  1  0
  1 29  1  0
  2  3  1  0
  2  4  1  0
  2 25  1  0
  3 30  1  0
  3 31  1  0
  3 32  1  0
  4  5  1  0
  4 33  1  0
  4 34  1  0
  5  6  1  0
  5 35  1  0
  5 36  1  0
  6  7  1  0
  6 37  1  0
  6 38  1  0
  7  8  1  0
  7 39  1  0
  7 40  1  0
  8  9  1  0
  8 41  1  0
  8 42  1  0
  9 10  2  0
  9 11  1  0
 11 12  1  0
 11 43  1  0
 11 44  1  0
 12 13  1  0
 12 45  1  0
 12 46  1  0
 13 14  1  0
 13 47  1  0
 13 48  1  0
 14 15  1  0
 14 49  1  0
 14 50  1  0
 15 16  1  0
 15 51  1  0
 15 52  1  0
 16 17  1  1
 16 18  1  0
 16 19  1  0
 17 53  1  0
 17 54  1  0
 17 55  1  0
 18 56  1  0
 18 57  1  0
 18 58  1  0
 20 19  1  1
 20 21  2  0
 20 22  1  0
 20 26  1  0
 23 22  1  1
 23 24  2  0
 23 25  1  0
 23 26  1  0
M  END

