
     RDKit          3D

 49 51  0  0  0  0  0  0  0  0999 V2000
   -1.5586   -0.3972   -0.6332 C   0  0  0  0  0  0  0  0  0  0  0  0
   -0.2062    0.1918   -0.9391 C   0  0  0  0  0  0  0  0  0  0  0  0
    0.0498    1.5616   -0.8252 C   0  0  0  0  0  0  0  0  0  0  0  0
    1.3090    2.1028   -1.1115 C   0  0  0  0  0  0  0  0  0  0  0  0
    2.3393    1.2595   -1.5216 C   0  0  0  0  0  0  0  0  0  0  0  0
    2.1175   -0.1175   -1.6462 C   0  0  0  0  0  0  0  0  0  0  0  0
    0.8538   -0.6436   -1.3565 C   0  0  0  0  0  0  0  0  0  0  0  0
    0.5524   -1.9785   -1.4523 O   0  0  0  0  0  0  0  0  0  0  0  0
    1.5367   -2.9000   -1.8640 C   0  0  0  0  0  0  0  0  0  0  0  0
    0.9799   -4.3251   -1.9021 C   0  0  0  0  0  0  0  0  0  0  0  0
    1.7068   -5.2412   -2.2337 O   0  0  0  0  0  0  0  0  0  0  0  0
   -0.3376   -4.4262   -1.5428 N   0  0  0  0  0  0  0  0  0  0  0  0
   -1.1468   -5.5681   -1.4718 C   0  0  0  0  0  0  0  0  0  0  0  0
   -0.6818   -6.8589   -1.7992 C   0  0  0  0  0  0  0  0  0  0  0  0
   -1.5455   -7.9467   -1.7057 C   0  0  0  0  0  0  0  0  0  0  0  0
   -2.8659   -7.7641   -1.2807 C   0  0  0  0  0  0  0  0  0  0  0  0
   -3.9753   -9.1684   -1.1944 S   0  0  1  0  0  0  0  0  0  0  0  0
   -5.3035   -8.6374   -0.8564 O   0  0  0  0  0  0  0  0  0  0  0  0
   -3.7721   -9.9908   -2.3910 O   0  0  0  0  0  0  0  0  0  0  0  0
   -3.3713  -10.0651    0.1028 N   0  0  0  0  0  0  0  0  0  0  0  0
   -3.8240   -9.7029    1.4518 C   0  0  0  0  0  0  0  0  0  0  0  0
   -4.9919  -10.5898    1.8865 C   0  0  0  0  0  0  0  0  0  0  0  0
   -4.6587  -11.9603    1.7674 O   0  0  0  0  0  0  0  0  0  0  0  0
   -4.3276  -12.3152    0.4380 C   0  0  0  0  0  0  0  0  0  0  0  0
   -3.1358  -11.5045   -0.0703 C   0  0  0  0  0  0  0  0  0  0  0  0
   -3.3418   -6.4893   -0.9655 C   0  0  0  0  0  0  0  0  0  0  0  0
   -2.4815   -5.3981   -1.0589 C   0  0  0  0  0  0  0  0  0  0  0  0
   -2.2680    0.3829   -0.3226 H   0  0  0  0  0  0  0  0  0  0  0  0
   -1.4982   -1.1444    0.1763 H   0  0  0  0  0  0  0  0  0  0  0  0
   -1.9818   -0.9112   -1.5130 H   0  0  0  0  0  0  0  0  0  0  0  0
   -0.7616    2.2204   -0.5032 H   0  0  0  0  0  0  0  0  0  0  0  0
    1.4785    3.1774   -1.0133 H   0  0  0  0  0  0  0  0  0  0  0  0
    3.3284    1.6645   -1.7494 H   0  0  0  0  0  0  0  0  0  0  0  0
    2.9334   -0.7648   -1.9682 H   0  0  0  0  0  0  0  0  0  0  0  0
    2.4038   -2.9060   -1.1791 H   0  0  0  0  0  0  0  0  0  0  0  0
    1.9147   -2.6697   -2.8766 H   0  0  0  0  0  0  0  0  0  0  0  0
   -0.7723   -3.5412   -1.2969 H   0  0  0  0  0  0  0  0  0  0  0  0
    0.3474   -6.9867   -2.1266 H   0  0  0  0  0  0  0  0  0  0  0  0
   -1.1911   -8.9443   -1.9725 H   0  0  0  0  0  0  0  0  0  0  0  0
   -4.1115   -8.6425    1.4772 H   0  0  0  0  0  0  0  0  0  0  0  0
   -2.9721   -9.8411    2.1407 H   0  0  0  0  0  0  0  0  0  0  0  0
   -5.8761  -10.3463    1.2650 H   0  0  0  0  0  0  0  0  0  0  0  0
   -5.2436  -10.4110    2.9436 H   0  0  0  0  0  0  0  0  0  0  0  0
   -5.1946  -12.1521   -0.2350 H   0  0  0  0  0  0  0  0  0  0  0  0
   -4.0911  -13.3908    0.4417 H   0  0  0  0  0  0  0  0  0  0  0  0
   -2.9404  -11.7126   -1.1301 H   0  0  0  0  0  0  0  0  0  0  0  0
   -2.2341  -11.7656    0.5119 H   0  0  0  0  0  0  0  0  0  0  0  0
   -4.3817   -6.3623   -0.6609 H   0  0  0  0  0  0  0  0  0  0  0  0
   -2.8491   -4.3976   -0.8140 H   0  0  0  0  0  0  0  0  0  0  0  0
  1  2  1  0
  1 28  1  0
  1 29  1  0
  1 30  1  0
  2  3  2  0
  2  7  1  0
  3  4  1  0
  3 31  1  0
  4  5  2  0
  4 32  1  0
  5  6  1  0
  5 33  1  0
  6  7  2  0
  6 34  1  0
  7  8  1  0
  8  9  1  0
  9 10  1  0
  9 35  1  0
  9 36  1  0
 10 11  2  0
 10 12  1  0
 12 13  1  0
 12 37  1  0
 13 14  2  0
 13 27  1  0
 14 15  1  0
 14 38  1  0
 15 16  2  0
 15 39  1  0
 17 16  1  6
 16 26  1  0
 17 18  2  0
 17 19  2  0
 17 20  1  0
 20 21  1  0
 20 25  1  0
 21 22  1  0
 21 40  1  0
 21 41  1  0
 22 23  1  0
 22 42  1  0
 22 43  1  0
 23 24  1  0
 24 25  1  0
 24 44  1  0
 24 45  1  0
 25 46  1  0
 25 47  1  0
 26 27  2  0
 26 48  1  0
 27 49  1  0
M  END

