
     RDKit          3D

 43 45  0  0  0  0  0  0  0  0999 V2000
    1.2904   -0.6380    3.0174 C   0  0  0  0  0  0  0  0  0  0  0  0
    0.7344   -1.9530    2.4370 C   0  0  1  0  0  0  0  0  0  0  0  0
    1.7873   -2.8700    2.0554 N   0  0  0  0  0  0  0  0  0  0  0  0
    2.4152   -2.7895    0.8564 C   0  0  0  0  0  0  0  0  0  0  0  0
    2.1839   -1.9186    0.0282 O   0  0  0  0  0  0  0  0  0  0  0  0
    3.5059   -3.8655    0.6414 C   0  0  2  0  0  0  0  0  0  0  0  0
    3.7132   -4.1666   -0.8537 C   0  0  0  0  0  0  0  0  0  0  0  0
    2.6269   -5.0988   -1.4004 C   0  0  0  0  0  0  0  0  0  0  0  0
    2.4872   -6.3621   -0.5404 C   0  0  2  0  0  0  0  0  0  0  0  0
    1.3949   -7.3201   -1.0370 C   0  0  0  0  0  0  0  0  0  0  0  0
    1.2634   -8.5554   -0.1372 C   0  0  0  0  0  0  0  0  0  0  0  0
    1.0268   -8.1606    1.3267 C   0  0  0  0  0  0  0  0  0  0  0  0
    2.1035   -7.1946    1.8365 C   0  0  0  0  0  0  0  0  0  0  0  0
    2.2382   -5.9664    0.9320 C   0  0  1  0  0  0  0  0  0  0  0  0
    3.2485   -5.0471    1.4689 N   0  0  0  0  0  0  0  0  0  0  0  0
   -0.1918   -2.6600    3.4029 C   0  0  0  0  0  0  0  0  0  0  0  0
    0.0752   -3.7988    3.9729 N   0  0  0  0  0  0  0  0  0  0  0  0
   -0.9296   -4.1932    4.8205 C   0  0  0  0  0  0  0  0  0  0  0  0
   -1.9960   -3.3409    4.9096 C   0  0  0  0  0  0  0  0  0  0  0  0
   -1.7360   -1.9727    3.8794 S   0  0  0  0  0  0  0  0  0  0  0  0
    1.9339   -0.1604    2.2647 H   0  0  0  0  0  0  0  0  0  0  0  0
    1.8812   -0.8348    3.9255 H   0  0  0  0  0  0  0  0  0  0  0  0
    0.4771    0.0596    3.2724 H   0  0  0  0  0  0  0  0  0  0  0  0
    0.1739   -1.6969    1.5208 H   0  0  0  0  0  0  0  0  0  0  0  0
    1.9983   -3.6714    2.6490 H   0  0  0  0  0  0  0  0  0  0  0  0
    4.4261   -3.3951    1.0324 H   0  0  0  0  0  0  0  0  0  0  0  0
    4.7016   -4.6438   -0.9765 H   0  0  0  0  0  0  0  0  0  0  0  0
    3.7310   -3.2169   -1.4077 H   0  0  0  0  0  0  0  0  0  0  0  0
    2.8505   -5.3711   -2.4462 H   0  0  0  0  0  0  0  0  0  0  0  0
    1.6602   -4.5633   -1.4196 H   0  0  0  0  0  0  0  0  0  0  0  0
    3.4543   -6.9056   -0.5690 H   0  0  0  0  0  0  0  0  0  0  0  0
    1.6060   -7.6207   -2.0779 H   0  0  0  0  0  0  0  0  0  0  0  0
    0.4296   -6.7802   -1.0626 H   0  0  0  0  0  0  0  0  0  0  0  0
    2.1893   -9.1558   -0.2071 H   0  0  0  0  0  0  0  0  0  0  0  0
    0.4462   -9.2046   -0.4944 H   0  0  0  0  0  0  0  0  0  0  0  0
    0.9895   -9.0583    1.9665 H   0  0  0  0  0  0  0  0  0  0  0  0
    0.0374   -7.6758    1.4160 H   0  0  0  0  0  0  0  0  0  0  0  0
    3.0787   -7.7183    1.8741 H   0  0  0  0  0  0  0  0  0  0  0  0
    1.8818   -6.8626    2.8637 H   0  0  0  0  0  0  0  0  0  0  0  0
    1.2724   -5.4248    0.9616 H   0  0  0  0  0  0  0  0  0  0  0  0
    4.1180   -5.5509    1.6396 H   0  0  0  0  0  0  0  0  0  0  0  0
   -0.8377   -5.1343    5.3657 H   0  0  0  0  0  0  0  0  0  0  0  0
   -2.9003   -3.4407    5.5071 H   0  0  0  0  0  0  0  0  0  0  0  0
  1  2  1  0
  1 21  1  0
  1 22  1  0
  1 23  1  0
  2  3  1  0
  2 16  1  0
  2 24  1  6
  3  4  1  0
  3 25  1  0
  4  5  2  0
  4  6  1  0
  6  7  1  0
  6 15  1  0
  6 26  1  1
  7  8  1  0
  7 27  1  0
  7 28  1  0
  8  9  1  0
  8 29  1  0
  8 30  1  0
  9 10  1  0
  9 14  1  0
  9 31  1  1
 10 11  1  0
 10 32  1  0
 10 33  1  0
 11 12  1  0
 11 34  1  0
 11 35  1  0
 12 13  1  0
 12 36  1  0
 12 37  1  0
 13 14  1  0
 13 38  1  0
 13 39  1  0
 14 15  1  0
 14 40  1  6
 15 41  1  0
 16 17  2  0
 16 20  1  0
 17 18  1  0
 18 19  2  0
 18 42  1  0
 19 20  1  0
 19 43  1  0
M  END

