
     RDKit          3D

 55 55  0  0  0  0  0  0  0  0999 V2000
    1.0087    0.2263   -1.1707 C   0  0  0  0  0  0  0  0  0  0  0  0
    2.4204    0.2243   -0.5631 C   0  0  1  0  0  0  0  0  0  0  0  0
    3.2899   -0.8150   -1.2835 C   0  0  0  0  0  0  0  0  0  0  0  0
    3.0312    1.6578   -0.5809 C   0  0  1  0  0  0  0  0  0  0  0  0
    2.1265    2.6095    0.0452 N   0  0  0  0  0  0  0  0  0  0  0  0
    1.8164    3.8145   -0.5389 C   0  0  0  0  0  0  0  0  0  0  0  0
    2.4030    4.2776   -1.4962 O   0  0  0  0  0  0  0  0  0  0  0  0
    0.7843    4.3765    0.1186 O   0  0  0  0  0  0  0  0  0  0  0  0
    0.2009    5.6606   -0.2885 C   0  0  1  0  0  0  0  0  0  0  0  0
   -0.3891    5.5349   -1.6967 C   0  0  0  0  0  0  0  0  0  0  0  0
   -0.9033    5.8738    0.7485 C   0  0  0  0  0  0  0  0  0  0  0  0
    1.2503    6.7721   -0.2012 C   0  0  0  0  0  0  0  0  0  0  0  0
    4.4532    1.7123    0.0180 C   0  0  0  0  0  0  0  0  0  0  0  0
    5.3950    1.1324   -0.5067 O   0  0  0  0  0  0  0  0  0  0  0  0
    4.5953    2.4397    1.1562 N   0  0  0  0  0  0  0  0  0  0  0  0
    5.8621    2.5274    1.8372 C   0  0  1  0  0  0  0  0  0  0  0  0
    6.3462    1.5348    1.7766 H   0  0  0  0  0  0  0  0  0  0  0  0
    6.8480    3.5405    1.1782 C   0  0  0  0  0  0  0  0  0  0  0  0
    6.4166    4.9880    1.2287 C   0  0  0  0  0  0  0  0  0  0  0  0
    6.8293    5.8305    2.2722 C   0  0  0  0  0  0  0  0  0  0  0  0
    6.4253    7.1658    2.3349 C   0  0  0  0  0  0  0  0  0  0  0  0
    5.5873    7.6914    1.3426 C   0  0  0  0  0  0  0  0  0  0  0  0
    5.1615    8.9816    1.3469 O   0  0  0  0  0  0  0  0  0  0  0  0
    5.1646    6.8635    0.2927 C   0  0  0  0  0  0  0  0  0  0  0  0
    5.5748    5.5326    0.2417 C   0  0  0  0  0  0  0  0  0  0  0  0
    5.5940    2.8524    3.3086 C   0  0  0  0  0  0  0  0  0  0  0  0
    4.5098    3.1266    3.7456 O   0  0  0  0  0  0  0  0  0  0  0  0
    6.6783    2.8335    4.1116 O   0  0  0  0  0  0  0  0  0  0  0  0
    0.5796   -0.7873   -1.1375 H   0  0  0  0  0  0  0  0  0  0  0  0
    1.0424    0.5398   -2.2277 H   0  0  0  0  0  0  0  0  0  0  0  0
    0.3131    0.8984   -0.6471 H   0  0  0  0  0  0  0  0  0  0  0  0
    2.3391   -0.0767    0.5004 H   0  0  0  0  0  0  0  0  0  0  0  0
    3.4018   -0.5553   -2.3494 H   0  0  0  0  0  0  0  0  0  0  0  0
    2.8073   -1.8040   -1.2280 H   0  0  0  0  0  0  0  0  0  0  0  0
    4.2977   -0.8868   -0.8587 H   0  0  0  0  0  0  0  0  0  0  0  0
    3.1585    1.9737   -1.6291 H   0  0  0  0  0  0  0  0  0  0  0  0
    1.4908    2.2863    0.7663 H   0  0  0  0  0  0  0  0  0  0  0  0
   -1.1168    4.7090   -1.7368 H   0  0  0  0  0  0  0  0  0  0  0  0
    0.3983    5.3509   -2.4391 H   0  0  0  0  0  0  0  0  0  0  0  0
   -0.9144    6.4651   -1.9640 H   0  0  0  0  0  0  0  0  0  0  0  0
   -1.6304    5.0482    0.7165 H   0  0  0  0  0  0  0  0  0  0  0  0
   -1.4359    6.8159    0.5491 H   0  0  0  0  0  0  0  0  0  0  0  0
   -0.4781    5.9208    1.7624 H   0  0  0  0  0  0  0  0  0  0  0  0
    2.0442    6.6231   -0.9433 H   0  0  0  0  0  0  0  0  0  0  0  0
    1.7049    6.7975    0.8010 H   0  0  0  0  0  0  0  0  0  0  0  0
    0.7722    7.7469   -0.3846 H   0  0  0  0  0  0  0  0  0  0  0  0
    3.7998    2.9140    1.5717 H   0  0  0  0  0  0  0  0  0  0  0  0
    6.9699    3.2007    0.1392 H   0  0  0  0  0  0  0  0  0  0  0  0
    7.8394    3.4285    1.6520 H   0  0  0  0  0  0  0  0  0  0  0  0
    7.4810    5.4414    3.0596 H   0  0  0  0  0  0  0  0  0  0  0  0
    6.7638    7.8024    3.1587 H   0  0  0  0  0  0  0  0  0  0  0  0
    5.5222    9.4372    2.1187 H   0  0  0  0  0  0  0  0  0  0  0  0
    4.5157    7.2820   -0.4786 H   0  0  0  0  0  0  0  0  0  0  0  0
    5.2264    4.9090   -0.5855 H   0  0  0  0  0  0  0  0  0  0  0  0
    7.4679    2.5740    3.6148 H   0  0  0  0  0  0  0  0  0  0  0  0
  1  2  1  0
  1 29  1  0
  1 30  1  0
  1 31  1  0
  2  3  1  0
  2  4  1  0
  2 32  1  1
  3 33  1  0
  3 34  1  0
  3 35  1  0
  4  5  1  0
  4 13  1  0
  4 36  1  6
  5  6  1  0
  5 37  1  0
  6  7  2  0
  6  8  1  0
  9  8  1  1
  9 10  1  0
  9 11  1  0
  9 12  1  0
 10 38  1  0
 10 39  1  0
 10 40  1  0
 11 41  1  0
 11 42  1  0
 11 43  1  0
 12 44  1  0
 12 45  1  0
 12 46  1  0
 13 14  2  0
 13 15  1  0
 15 16  1  0
 15 47  1  0
 16 17  1  1
 16 18  1  0
 16 26  1  0
 18 19  1  0
 18 48  1  0
 18 49  1  0
 19 20  2  0
 19 25  1  0
 20 21  1  0
 20 50  1  0
 21 22  2  0
 21 51  1  0
 22 23  1  0
 22 24  1  0
 23 52  1  0
 24 25  2  0
 24 53  1  0
 25 54  1  0
 26 27  2  0
 26 28  1  0
 28 55  1  0
M  END

