
     RDKit          3D

 28 30  0  0  0  0  0  0  0  0999 V2000
    1.1504    0.2526    0.1690 C   0  0  0  0  0  0  0  0  0  0  0  0
    2.6409    0.0903    0.0084 C   0  0  0  0  0  0  0  0  0  0  0  0
    3.3398    1.2444    0.0214 N   0  0  0  0  0  0  0  0  0  0  0  0
    4.6476    1.1664   -0.0889 C   0  0  0  0  0  0  0  0  0  0  0  0
    5.3866   -0.0246   -0.2025 C   0  0  0  0  0  0  0  0  0  0  0  0
    4.6819   -1.2132   -0.2156 C   0  0  0  0  0  0  0  0  0  0  0  0
    3.2732   -1.1737   -0.1224 C   0  0  0  0  0  0  0  0  0  0  0  0
    2.5225   -2.4601   -0.1485 C   0  0  0  0  0  0  0  0  0  0  0  0
    2.8818   -3.5206    0.7006 C   0  0  0  0  0  0  0  0  0  0  0  0
    2.1789   -4.7264    0.6278 C   0  0  0  0  0  0  0  0  0  0  0  0
    1.1678   -4.9433   -0.2163 N   0  0  0  0  0  0  0  0  0  0  0  0
    0.8257   -3.9412   -1.0298 C   0  0  0  0  0  0  0  0  0  0  0  0
    1.4606   -2.6964   -1.0375 C   0  0  0  0  0  0  0  0  0  0  0  0
    6.8335    0.3297   -0.2914 C   0  0  1  0  0  0  0  0  0  0  0  0
    7.8789   -0.3740    1.2187 Br  0  0  0  0  0  0  0  0  0  0  0  0
    7.6411   -0.2129   -2.0005 Br  0  0  0  0  0  0  0  0  0  0  0  0
    6.8343    1.8988   -0.2136 C   0  0  0  0  0  0  0  0  0  0  0  0
    7.7852    2.6296   -0.2458 O   0  0  0  0  0  0  0  0  0  0  0  0
    5.5051    2.2630   -0.0996 N   0  0  0  0  0  0  0  0  0  0  0  0
    0.9532    1.1627    0.7518 H   0  0  0  0  0  0  0  0  0  0  0  0
    0.6814   -0.6108    0.6590 H   0  0  0  0  0  0  0  0  0  0  0  0
    0.6623    0.3858   -0.8118 H   0  0  0  0  0  0  0  0  0  0  0  0
    5.1996   -2.1699   -0.3152 H   0  0  0  0  0  0  0  0  0  0  0  0
    3.6917   -3.4037    1.4249 H   0  0  0  0  0  0  0  0  0  0  0  0
    2.4495   -5.5559    1.2922 H   0  0  0  0  0  0  0  0  0  0  0  0
    0.0001   -4.1354   -1.7251 H   0  0  0  0  0  0  0  0  0  0  0  0
    1.1426   -1.9295   -1.7463 H   0  0  0  0  0  0  0  0  0  0  0  0
    5.1999    3.2277   -0.0262 H   0  0  0  0  0  0  0  0  0  0  0  0
  1  2  1  0
  1 20  1  0
  1 21  1  0
  1 22  1  0
  2  3  2  0
  2  7  1  0
  3  4  1  0
  4  5  2  0
  4 19  1  0
  5  6  1  0
  5 14  1  0
  6  7  2  0
  6 23  1  0
  7  8  1  0
  8  9  2  0
  8 13  1  0
  9 10  1  0
  9 24  1  0
 10 11  2  0
 10 25  1  0
 11 12  1  0
 12 13  2  0
 12 26  1  0
 13 27  1  0
 14 15  1  1
 14 16  1  0
 14 17  1  0
 17 18  2  0
 17 19  1  0
 19 28  1  0
M  END

