
     RDKit          3D

 49 51  0  0  0  0  0  0  0  0999 V2000
    2.4615   -0.2326    1.3591 C   0  0  0  0  0  0  0  0  0  0  0  0
    3.0280    0.2884    0.0394 C   0  0  0  0  0  0  0  0  0  0  0  0
    3.3549   -0.7619   -0.9265 N   0  0  0  0  0  0  0  0  0  0  0  0
    2.2658   -1.3799   -1.6654 C   0  0  0  0  0  0  0  0  0  0  0  0
    2.0586   -2.8801   -1.4652 C   0  0  0  0  0  0  0  0  0  0  0  0
    2.5609   -3.5573   -0.3486 C   0  0  0  0  0  0  0  0  0  0  0  0
    2.3242   -4.9325   -0.1400 C   0  0  0  0  0  0  0  0  0  0  0  0
    1.5609   -5.5908   -1.0857 C   0  0  0  0  0  0  0  0  0  0  0  0
    1.0565   -4.9251   -2.2081 C   0  0  0  0  0  0  0  0  0  0  0  0
    1.2919   -3.5812   -2.4288 C   0  0  0  0  0  0  0  0  0  0  0  0
    0.3754   -5.8145   -2.9909 O   0  0  0  0  0  0  0  0  0  0  0  0
    0.3011   -7.0248   -2.2402 C   0  0  0  0  0  0  0  0  0  0  0  0
    1.2064   -6.9099   -1.1467 O   0  0  0  0  0  0  0  0  0  0  0  0
    4.6809   -0.8633   -1.3505 C   0  0  0  0  0  0  0  0  0  0  0  0
    5.5698   -0.1457   -0.9120 O   0  0  0  0  0  0  0  0  0  0  0  0
    4.9172   -1.8175   -2.3207 N   0  0  0  0  0  0  0  0  0  0  0  0
    6.2839   -2.0709   -2.7798 C   0  0  1  0  0  0  0  0  0  0  0  0
    7.0722   -3.0180   -1.8531 C   0  0  0  0  0  0  0  0  0  0  0  0
    6.5771   -4.4694   -1.9213 C   0  0  0  0  0  0  0  0  0  0  0  0
    6.5468   -5.0173   -3.3596 C   0  0  2  0  0  0  0  0  0  0  0  0
    7.9610   -5.3176   -3.8781 C   0  0  0  0  0  0  0  0  0  0  0  0
    8.9647   -5.2201   -3.2266 O   0  0  0  0  0  0  0  0  0  0  0  0
    8.0321   -5.7523   -5.1604 O   0  0  0  0  0  0  0  0  0  0  0  0
    5.7527   -4.0656   -4.2867 C   0  0  0  0  0  0  0  0  0  0  0  0
    6.2670   -2.6202   -4.2166 C   0  0  0  0  0  0  0  0  0  0  0  0
    2.2080    0.6107    2.0220 H   0  0  0  0  0  0  0  0  0  0  0  0
    3.1973   -0.8641    1.8817 H   0  0  0  0  0  0  0  0  0  0  0  0
    1.5446   -0.8273    1.2128 H   0  0  0  0  0  0  0  0  0  0  0  0
    3.9576    0.8432    0.2176 H   0  0  0  0  0  0  0  0  0  0  0  0
    2.3115    0.9930   -0.4241 H   0  0  0  0  0  0  0  0  0  0  0  0
    2.3822   -1.1844   -2.7478 H   0  0  0  0  0  0  0  0  0  0  0  0
    1.3384   -0.8623   -1.3684 H   0  0  0  0  0  0  0  0  0  0  0  0
    3.1568   -3.0031    0.3780 H   0  0  0  0  0  0  0  0  0  0  0  0
    2.7245   -5.4563    0.7294 H   0  0  0  0  0  0  0  0  0  0  0  0
    0.8940   -3.0823   -3.3154 H   0  0  0  0  0  0  0  0  0  0  0  0
    0.5917   -7.8757   -2.8770 H   0  0  0  0  0  0  0  0  0  0  0  0
   -0.7303   -7.1635   -1.8594 H   0  0  0  0  0  0  0  0  0  0  0  0
    4.2505   -2.5759   -2.4063 H   0  0  0  0  0  0  0  0  0  0  0  0
    6.7809   -1.0914   -2.7700 H   0  0  0  0  0  0  0  0  0  0  0  0
    7.0155   -2.6361   -0.8222 H   0  0  0  0  0  0  0  0  0  0  0  0
    8.1347   -2.9898   -2.1430 H   0  0  0  0  0  0  0  0  0  0  0  0
    5.5563   -4.5390   -1.5068 H   0  0  0  0  0  0  0  0  0  0  0  0
    7.2172   -5.1118   -1.2992 H   0  0  0  0  0  0  0  0  0  0  0  0
    6.0329   -5.9978   -3.3564 H   0  0  0  0  0  0  0  0  0  0  0  0
    7.1489   -5.7934   -5.5532 H   0  0  0  0  0  0  0  0  0  0  0  0
    4.6907   -4.1061   -3.9873 H   0  0  0  0  0  0  0  0  0  0  0  0
    5.7603   -4.4142   -5.3350 H   0  0  0  0  0  0  0  0  0  0  0  0
    5.6531   -1.9666   -4.8569 H   0  0  0  0  0  0  0  0  0  0  0  0
    7.2958   -2.5816   -4.6141 H   0  0  0  0  0  0  0  0  0  0  0  0
  1  2  1  0
  1 26  1  0
  1 27  1  0
  1 28  1  0
  2  3  1  0
  2 29  1  0
  2 30  1  0
  3  4  1  0
  3 14  1  0
  4  5  1  0
  4 31  1  0
  4 32  1  0
  5  6  2  0
  5 10  1  0
  6  7  1  0
  6 33  1  0
  7  8  2  0
  7 34  1  0
  8  9  1  0
  8 13  1  0
  9 10  2  0
  9 11  1  0
 10 35  1  0
 11 12  1  0
 12 13  1  0
 12 36  1  0
 12 37  1  0
 14 15  2  0
 14 16  1  0
 16 17  1  0
 16 38  1  0
 17 18  1  0
 17 25  1  0
 17 39  1  6
 18 19  1  0
 18 40  1  0
 18 41  1  0
 19 20  1  0
 19 42  1  0
 19 43  1  0
 20 21  1  0
 20 24  1  0
 20 44  1  1
 21 22  2  0
 21 23  1  0
 23 45  1  0
 24 25  1  0
 24 46  1  0
 24 47  1  0
 25 48  1  0
 25 49  1  0
M  END

