
     RDKit          3D

 47 48  0  0  0  0  0  0  0  0999 V2000
    2.7881   -0.4487   -2.1541 C   0  0  0  0  0  0  0  0  0  0  0  0
    2.4536   -0.2047   -0.6793 C   0  0  1  0  0  0  0  0  0  0  0  0
    0.9400   -0.1302   -0.4468 C   0  0  0  0  0  0  0  0  0  0  0  0
    3.0773   -1.2778    0.2322 C   0  0  0  0  0  0  0  0  0  0  0  0
    4.5203   -1.3855    0.1375 N   0  0  0  0  0  0  0  0  0  0  0  0
    5.2900   -0.2534    0.6412 C   0  0  0  0  0  0  0  0  0  0  0  0
    6.7093   -0.8081    0.7451 C   0  0  0  0  0  0  0  0  0  0  0  0
    6.4625   -2.2307    1.2681 C   0  0  0  0  0  0  0  0  0  0  0  0
    5.1106   -2.6403    0.6357 C   0  0  2  0  0  0  0  0  0  0  0  0
    4.4608   -3.0935    1.4163 H   0  0  0  0  0  0  0  0  0  0  0  0
    5.2480   -3.6590   -0.5040 C   0  0  0  0  0  0  0  0  0  0  0  0
    5.6922   -4.9562   -0.0192 N   0  0  0  0  0  0  0  0  0  0  0  0
    5.8838   -5.9557   -1.0539 C   0  0  0  0  0  0  0  0  0  0  0  0
    6.4206   -7.2679   -0.5180 C   0  0  0  0  0  0  0  0  0  0  0  0
    6.1142   -8.4795   -1.1598 C   0  0  0  0  0  0  0  0  0  0  0  0
    6.6395   -9.6862   -0.7040 C   0  0  0  0  0  0  0  0  0  0  0  0
    7.4697   -9.7183    0.4272 C   0  0  0  0  0  0  0  0  0  0  0  0
    8.0046  -11.0520    0.8670 C   0  0  0  0  0  0  0  0  0  0  0  0
    8.0041  -12.0280    0.1638 O   0  0  0  0  0  0  0  0  0  0  0  0
    8.4973  -11.1203    2.1263 O   0  0  0  0  0  0  0  0  0  0  0  0
    7.7826   -8.5089    1.0681 C   0  0  0  0  0  0  0  0  0  0  0  0
    7.2653   -7.2995    0.6016 C   0  0  0  0  0  0  0  0  0  0  0  0
    2.3988    0.3612   -2.7922 H   0  0  0  0  0  0  0  0  0  0  0  0
    2.3394   -1.3946   -2.5056 H   0  0  0  0  0  0  0  0  0  0  0  0
    3.8750   -0.5226   -2.3057 H   0  0  0  0  0  0  0  0  0  0  0  0
    2.8808    0.7732   -0.3891 H   0  0  0  0  0  0  0  0  0  0  0  0
    0.4500   -1.0817   -0.7179 H   0  0  0  0  0  0  0  0  0  0  0  0
    0.4813    0.6630   -1.0584 H   0  0  0  0  0  0  0  0  0  0  0  0
    0.6998    0.0794    0.6085 H   0  0  0  0  0  0  0  0  0  0  0  0
    2.6405   -2.2537   -0.0441 H   0  0  0  0  0  0  0  0  0  0  0  0
    2.7585   -1.0810    1.2846 H   0  0  0  0  0  0  0  0  0  0  0  0
    4.9307    0.0831    1.6429 H   0  0  0  0  0  0  0  0  0  0  0  0
    5.2190    0.6152   -0.0341 H   0  0  0  0  0  0  0  0  0  0  0  0
    7.3579   -0.2089    1.4018 H   0  0  0  0  0  0  0  0  0  0  0  0
    7.1741   -0.8323   -0.2541 H   0  0  0  0  0  0  0  0  0  0  0  0
    6.3738   -2.2133    2.3662 H   0  0  0  0  0  0  0  0  0  0  0  0
    7.2603   -2.9452    1.0194 H   0  0  0  0  0  0  0  0  0  0  0  0
    5.9902   -3.2784   -1.2276 H   0  0  0  0  0  0  0  0  0  0  0  0
    4.2831   -3.7095   -1.0562 H   0  0  0  0  0  0  0  0  0  0  0  0
    5.0407   -5.3096    0.6829 H   0  0  0  0  0  0  0  0  0  0  0  0
    6.6123   -5.5493   -1.7816 H   0  0  0  0  0  0  0  0  0  0  0  0
    4.9638   -6.1605   -1.6468 H   0  0  0  0  0  0  0  0  0  0  0  0
    5.4533   -8.4743   -2.0315 H   0  0  0  0  0  0  0  0  0  0  0  0
    6.4130  -10.6279   -1.2076 H   0  0  0  0  0  0  0  0  0  0  0  0
    8.3109  -10.3017    2.6062 H   0  0  0  0  0  0  0  0  0  0  0  0
    8.4640   -8.4869    1.9248 H   0  0  0  0  0  0  0  0  0  0  0  0
    7.5124   -6.3607    1.1002 H   0  0  0  0  0  0  0  0  0  0  0  0
  1  2  1  0
  1 23  1  0
  1 24  1  0
  1 25  1  0
  2  3  1  0
  2  4  1  0
  2 26  1  1
  3 27  1  0
  3 28  1  0
  3 29  1  0
  4  5  1  0
  4 30  1  0
  4 31  1  0
  5  6  1  0
  5  9  1  0
  6  7  1  0
  6 32  1  0
  6 33  1  0
  7  8  1  0
  7 34  1  0
  7 35  1  0
  8  9  1  0
  8 36  1  0
  8 37  1  0
  9 10  1  1
  9 11  1  0
 11 12  1  0
 11 38  1  0
 11 39  1  0
 12 13  1  0
 12 40  1  0
 13 14  1  0
 13 41  1  0
 13 42  1  0
 14 15  2  0
 14 22  1  0
 15 16  1  0
 15 43  1  0
 16 17  2  0
 16 44  1  0
 17 18  1  0
 17 21  1  0
 18 19  2  0
 18 20  1  0
 20 45  1  0
 21 22  2  0
 21 46  1  0
 22 47  1  0
M  END

