
     RDKit          3D

 61 64  0  0  0  0  0  0  0  0999 V2000
   11.6245   -3.7198   -4.4204 C   0  0  0  0  0  0  0  0  0  0  0  0
   11.0078   -3.0217   -3.3001 N   0  0  0  0  0  0  0  0  0  0  0  0
   11.4861   -1.7264   -3.0158 C   0  0  0  0  0  0  0  0  0  0  0  0
   12.3778   -1.2138   -3.6782 O   0  0  0  0  0  0  0  0  0  0  0  0
   10.8429   -1.0536   -1.8845 C   0  0  0  0  0  0  0  0  0  0  0  0
    9.8580   -1.6336   -1.1600 C   0  0  0  0  0  0  0  0  0  0  0  0
    9.3904   -2.9606   -1.4743 C   0  0  0  0  0  0  0  0  0  0  0  0
    8.3712   -3.5828   -0.7365 C   0  0  0  0  0  0  0  0  0  0  0  0
    7.9272   -4.8685   -1.0507 C   0  0  0  0  0  0  0  0  0  0  0  0
    6.9353   -5.3793   -0.2754 O   0  0  0  0  0  0  0  0  0  0  0  0
    6.4529   -6.6896   -0.5228 C   0  0  0  0  0  0  0  0  0  0  0  0
    5.3706   -6.9870    0.5041 C   0  0  0  0  0  0  0  0  0  0  0  0
    4.7265   -8.3646    0.3304 C   0  0  0  0  0  0  0  0  0  0  0  0
    5.6533   -9.4930    0.4585 N   0  0  0  0  0  0  0  0  0  0  0  0
    6.0809   -9.7361    1.8359 C   0  0  0  0  0  0  0  0  0  0  0  0
    7.4561  -10.4204    1.9439 C   0  0  0  0  0  0  0  0  0  0  0  0
    7.8825  -10.6369    3.3794 C   0  0  0  0  0  0  0  0  0  0  0  0
    7.5296  -11.8081    4.0694 C   0  0  0  0  0  0  0  0  0  0  0  0
    7.8889  -11.9915    5.4076 C   0  0  0  0  0  0  0  0  0  0  0  0
    8.6104  -11.0024    6.0824 C   0  0  0  0  0  0  0  0  0  0  0  0
    8.9699   -9.8314    5.4084 C   0  0  0  0  0  0  0  0  0  0  0  0
    8.6077   -9.6525    4.0705 C   0  0  0  0  0  0  0  0  0  0  0  0
    5.1331  -10.6947   -0.1852 C   0  0  0  0  0  0  0  0  0  0  0  0
    5.1578  -10.6426   -1.7004 C   0  0  0  0  0  0  0  0  0  0  0  0
    6.3037  -10.2292   -2.3956 C   0  0  0  0  0  0  0  0  0  0  0  0
    6.2946  -10.2424   -3.7921 C   0  0  0  0  0  0  0  0  0  0  0  0
    5.2441  -10.6281   -4.5238 N   0  0  0  0  0  0  0  0  0  0  0  0
    4.1528  -11.0203   -3.8648 C   0  0  0  0  0  0  0  0  0  0  0  0
    4.0588  -11.0446   -2.4683 C   0  0  0  0  0  0  0  0  0  0  0  0
    8.5234   -5.5419   -2.1330 C   0  0  0  0  0  0  0  0  0  0  0  0
    9.5377   -4.9373   -2.8760 C   0  0  0  0  0  0  0  0  0  0  0  0
    9.9949   -3.6424   -2.5695 C   0  0  0  0  0  0  0  0  0  0  0  0
   12.3832   -3.0512   -4.8410 H   0  0  0  0  0  0  0  0  0  0  0  0
   10.8778   -3.9605   -5.1940 H   0  0  0  0  0  0  0  0  0  0  0  0
   12.1033   -4.6545   -4.0870 H   0  0  0  0  0  0  0  0  0  0  0  0
   11.2173   -0.0515   -1.6707 H   0  0  0  0  0  0  0  0  0  0  0  0
    9.3978   -1.1040   -0.3206 H   0  0  0  0  0  0  0  0  0  0  0  0
    7.9084   -3.0593    0.1028 H   0  0  0  0  0  0  0  0  0  0  0  0
    7.2719   -7.4260   -0.4431 H   0  0  0  0  0  0  0  0  0  0  0  0
    6.0421   -6.7624   -1.5483 H   0  0  0  0  0  0  0  0  0  0  0  0
    4.5822   -6.2208    0.4193 H   0  0  0  0  0  0  0  0  0  0  0  0
    5.8001   -6.8681    1.5125 H   0  0  0  0  0  0  0  0  0  0  0  0
    4.2812   -8.4146   -0.6764 H   0  0  0  0  0  0  0  0  0  0  0  0
    3.8778   -8.4607    1.0443 H   0  0  0  0  0  0  0  0  0  0  0  0
    5.3255  -10.3303    2.3974 H   0  0  0  0  0  0  0  0  0  0  0  0
    6.1449   -8.7696    2.3564 H   0  0  0  0  0  0  0  0  0  0  0  0
    8.1937   -9.7938    1.4173 H   0  0  0  0  0  0  0  0  0  0  0  0
    7.4352  -11.3902    1.4200 H   0  0  0  0  0  0  0  0  0  0  0  0
    6.9709  -12.5916    3.5483 H   0  0  0  0  0  0  0  0  0  0  0  0
    7.6078  -12.9131    5.9242 H   0  0  0  0  0  0  0  0  0  0  0  0
    8.8956  -11.1455    7.1277 H   0  0  0  0  0  0  0  0  0  0  0  0
    9.5395   -9.0546    5.9254 H   0  0  0  0  0  0  0  0  0  0  0  0
    8.8997   -8.7354    3.5497 H   0  0  0  0  0  0  0  0  0  0  0  0
    4.1007  -10.9334    0.1563 H   0  0  0  0  0  0  0  0  0  0  0  0
    5.7567  -11.5483    0.1271 H   0  0  0  0  0  0  0  0  0  0  0  0
    7.1893   -9.9008   -1.8473 H   0  0  0  0  0  0  0  0  0  0  0  0
    7.1857   -9.9259   -4.3482 H   0  0  0  0  0  0  0  0  0  0  0  0
    3.2966  -11.3319   -4.4755 H   0  0  0  0  0  0  0  0  0  0  0  0
    3.1329  -11.3733   -1.9880 H   0  0  0  0  0  0  0  0  0  0  0  0
    8.2019   -6.5457   -2.4107 H   0  0  0  0  0  0  0  0  0  0  0  0
    9.9706   -5.4938   -3.7058 H   0  0  0  0  0  0  0  0  0  0  0  0
  1  2  1  0
  1 33  1  0
  1 34  1  0
  1 35  1  0
  2  3  1  0
  2 32  1  0
  3  4  2  0
  3  5  1  0
  5  6  2  0
  5 36  1  0
  6  7  1  0
  6 37  1  0
  7  8  1  0
  7 32  2  0
  8  9  2  0
  8 38  1  0
  9 10  1  0
  9 30  1  0
 10 11  1  0
 11 12  1  0
 11 39  1  0
 11 40  1  0
 12 13  1  0
 12 41  1  0
 12 42  1  0
 13 14  1  0
 13 43  1  0
 13 44  1  0
 14 15  1  0
 14 23  1  0
 15 16  1  0
 15 45  1  0
 15 46  1  0
 16 17  1  0
 16 47  1  0
 16 48  1  0
 17 18  2  0
 17 22  1  0
 18 19  1  0
 18 49  1  0
 19 20  2  0
 19 50  1  0
 20 21  1  0
 20 51  1  0
 21 22  2  0
 21 52  1  0
 22 53  1  0
 23 24  1  0
 23 54  1  0
 23 55  1  0
 24 25  2  0
 24 29  1  0
 25 26  1  0
 25 56  1  0
 26 27  2  0
 26 57  1  0
 27 28  1  0
 28 29  2  0
 28 58  1  0
 29 59  1  0
 30 31  2  0
 30 60  1  0
 31 32  1  0
 31 61  1  0
M  END

