
     RDKit          3D

 55 59  0  0  0  0  0  0  0  0999 V2000
    5.2222    0.4136   -0.5895 C   0  0  0  0  0  0  0  0  0  0  0  0
    3.7583    0.1189   -0.6754 C   0  0  0  0  0  0  0  0  0  0  0  0
    2.6979    0.9213   -0.3294 C   0  0  0  0  0  0  0  0  0  0  0  0
    2.6806    2.2986    0.2224 C   0  0  0  0  0  0  0  0  0  0  0  0
    3.7210    2.9145    0.4427 O   0  0  0  0  0  0  0  0  0  0  0  0
    1.4704    2.8604    0.4833 N   0  0  0  0  0  0  0  0  0  0  0  0
    1.2491    4.2058    0.9983 C   0  0  0  0  0  0  0  0  0  0  0  0
   -0.2839    3.9297    0.9687 C   0  0  1  0  0  0  0  0  0  0  0  0
   -1.0110    3.9243    2.3150 C   0  0  0  0  0  0  0  0  0  0  0  0
   -2.5155    3.9183    2.0259 C   0  0  2  0  0  0  0  0  0  0  0  0
   -3.1035    4.1213    2.9383 H   0  0  0  0  0  0  0  0  0  0  0  0
   -2.9194    2.6688    1.4609 O   0  0  0  0  0  0  0  0  0  0  0  0
   -3.2747    1.6743    2.4056 C   0  0  0  0  0  0  0  0  0  0  0  0
   -4.6469    1.9473    3.0424 C   0  0  0  0  0  0  0  0  0  0  0  0
   -4.7381    2.3363    4.2012 O   0  0  0  0  0  0  0  0  0  0  0  0
   -5.7345    1.7752    2.2455 N   0  0  0  0  0  0  0  0  0  0  0  0
   -7.0818    2.0628    2.7535 C   0  0  0  0  0  0  0  0  0  0  0  0
   -8.0024    1.5684    1.6305 C   0  0  0  0  0  0  0  0  0  0  0  0
   -7.1488    1.7509    0.3662 C   0  0  0  0  0  0  0  0  0  0  0  0
   -5.7420    1.3590    0.8364 C   0  0  0  0  0  0  0  0  0  0  0  0
   -2.7543    5.0143    0.9841 C   0  0  0  0  0  0  0  0  0  0  0  0
   -1.2620    5.0705   -0.1024 S   0  0  0  0  0  0  0  0  0  0  0  0
    0.0455    2.5332    0.3505 C   0  0  0  0  0  0  0  0  0  0  0  0
    1.4874    0.2933   -0.5556 O   0  0  0  0  0  0  0  0  0  0  0  0
    1.7693   -0.9358   -1.0570 C   0  0  0  0  0  0  0  0  0  0  0  0
    0.8457   -1.9106   -1.4310 C   0  0  0  0  0  0  0  0  0  0  0  0
    1.3676   -3.1073   -1.9242 C   0  0  0  0  0  0  0  0  0  0  0  0
    2.7597   -3.3120   -2.0356 C   0  0  0  0  0  0  0  0  0  0  0  0
    3.6668   -2.3249   -1.6569 C   0  0  0  0  0  0  0  0  0  0  0  0
    3.1640   -1.1097   -1.1567 C   0  0  0  0  0  0  0  0  0  0  0  0
    5.3912    1.4197   -0.1894 H   0  0  0  0  0  0  0  0  0  0  0  0
    5.6919    0.3391   -1.5852 H   0  0  0  0  0  0  0  0  0  0  0  0
    5.7285   -0.3216    0.0592 H   0  0  0  0  0  0  0  0  0  0  0  0
    1.6003    5.0045    0.3237 H   0  0  0  0  0  0  0  0  0  0  0  0
    1.6777    4.3821    1.9999 H   0  0  0  0  0  0  0  0  0  0  0  0
   -0.7585    4.8412    2.8737 H   0  0  0  0  0  0  0  0  0  0  0  0
   -0.7028    3.0677    2.9361 H   0  0  0  0  0  0  0  0  0  0  0  0
   -2.5524    1.6143    3.2370 H   0  0  0  0  0  0  0  0  0  0  0  0
   -3.2653    0.7145    1.8660 H   0  0  0  0  0  0  0  0  0  0  0  0
   -7.1947    3.1469    2.9364 H   0  0  0  0  0  0  0  0  0  0  0  0
   -7.2456    1.5610    3.7191 H   0  0  0  0  0  0  0  0  0  0  0  0
   -8.9560    2.1155    1.5955 H   0  0  0  0  0  0  0  0  0  0  0  0
   -8.2383    0.5007    1.7756 H   0  0  0  0  0  0  0  0  0  0  0  0
   -7.1574    2.8082    0.0520 H   0  0  0  0  0  0  0  0  0  0  0  0
   -7.4914    1.1472   -0.4872 H   0  0  0  0  0  0  0  0  0  0  0  0
   -4.9421    1.8596    0.2735 H   0  0  0  0  0  0  0  0  0  0  0  0
   -5.5904    0.2660    0.7464 H   0  0  0  0  0  0  0  0  0  0  0  0
   -2.8846    5.9907    1.4741 H   0  0  0  0  0  0  0  0  0  0  0  0
   -3.6500    4.7932    0.3879 H   0  0  0  0  0  0  0  0  0  0  0  0
   -0.2950    2.4045   -0.6877 H   0  0  0  0  0  0  0  0  0  0  0  0
   -0.2799    1.6651    0.9429 H   0  0  0  0  0  0  0  0  0  0  0  0
   -0.2284   -1.7388   -1.3411 H   0  0  0  0  0  0  0  0  0  0  0  0
    0.6838   -3.9026   -2.2313 H   0  0  0  0  0  0  0  0  0  0  0  0
    3.1280   -4.2634   -2.4269 H   0  0  0  0  0  0  0  0  0  0  0  0
    4.7431   -2.4903   -1.7466 H   0  0  0  0  0  0  0  0  0  0  0  0
  1  2  1  0
  1 31  1  0
  1 32  1  0
  1 33  1  0
  2  3  2  0
  2 30  1  0
  3  4  1  0
  3 24  1  0
  4  5  2  0
  4  6  1  0
  6  7  1  0
  6 23  1  0
  7  8  1  0
  7 34  1  0
  7 35  1  0
  8  9  1  0
  8 22  1  6
  8 23  1  0
  9 10  1  0
  9 36  1  0
  9 37  1  0
 10 11  1  1
 10 12  1  0
 10 21  1  0
 12 13  1  0
 13 14  1  0
 13 38  1  0
 13 39  1  0
 14 15  2  0
 14 16  1  0
 16 17  1  0
 16 20  1  0
 17 18  1  0
 17 40  1  0
 17 41  1  0
 18 19  1  0
 18 42  1  0
 18 43  1  0
 19 20  1  0
 19 44  1  0
 19 45  1  0
 20 46  1  0
 20 47  1  0
 21 22  1  0
 21 48  1  0
 21 49  1  0
 23 50  1  0
 23 51  1  0
 24 25  1  0
 25 26  1  0
 25 30  2  0
 26 27  2  0
 26 52  1  0
 27 28  1  0
 27 53  1  0
 28 29  2  0
 28 54  1  0
 29 30  1  0
 29 55  1  0
M  END

