
     RDKit          3D

 52 54  0  0  0  0  0  0  0  0999 V2000
    4.8054    1.1074   -0.6604 C   0  0  0  0  0  0  0  0  0  0  0  0
    4.4278    1.3694    0.8038 C   0  0  1  0  0  0  0  0  0  0  0  0
    5.0429    2.6669    1.3458 C   0  0  0  0  0  0  0  0  0  0  0  0
    2.9625    1.2910    1.0345 N   0  0  0  0  0  0  0  0  0  0  0  0
    2.1489    2.2318    0.4589 C   0  0  0  0  0  0  0  0  0  0  0  0
    2.5780    3.1141   -0.2768 O   0  0  0  0  0  0  0  0  0  0  0  0
    0.6372    2.1975    0.7548 C   0  0  0  0  0  0  0  0  0  0  0  0
   -0.0581    1.0905    0.1092 N   0  0  0  0  0  0  0  0  0  0  0  0
   -0.0315    1.1562   -1.3518 C   0  0  0  0  0  0  0  0  0  0  0  0
   -0.4247   -0.1969   -1.9400 C   0  0  0  0  0  0  0  0  0  0  0  0
   -1.6950   -0.7267   -1.3163 C   0  0  0  0  0  0  0  0  0  0  0  0
   -2.3346   -1.6790   -1.9440 N   0  0  0  0  0  0  0  0  0  0  0  0
   -3.4312   -2.2021   -1.3987 N   0  0  0  0  0  0  0  0  0  0  0  0
   -4.1030   -3.2544   -2.1521 C   0  0  0  0  0  0  0  0  0  0  0  0
   -3.9962   -1.8355   -0.1579 C   0  0  0  0  0  0  0  0  0  0  0  0
   -5.0022   -2.3961    0.2531 O   0  0  0  0  0  0  0  0  0  0  0  0
   -3.2665   -0.7702    0.5063 C   0  0  0  0  0  0  0  0  0  0  0  0
   -2.1482   -0.2166   -0.0473 C   0  0  0  0  0  0  0  0  0  0  0  0
   -1.4193    0.9408    0.6007 C   0  0  0  0  0  0  0  0  0  0  0  0
    2.4578    0.1859    1.8545 C   0  0  1  0  0  0  0  0  0  0  0  0
    2.7949   -1.2372    1.3643 C   0  0  0  0  0  0  0  0  0  0  0  0
    2.3881   -2.0979    2.5658 C   0  0  0  0  0  0  0  0  0  0  0  0
    2.8649   -1.2890    3.7973 C   0  0  0  0  0  0  0  0  0  0  0  0
    2.9074    0.1951    3.3404 C   0  0  0  0  0  0  0  0  0  0  0  0
    5.9013    1.0533   -0.7615 H   0  0  0  0  0  0  0  0  0  0  0  0
    4.4332    1.9126   -1.3074 H   0  0  0  0  0  0  0  0  0  0  0  0
    4.3851    0.1516   -1.0107 H   0  0  0  0  0  0  0  0  0  0  0  0
    4.8481    0.5451    1.3988 H   0  0  0  0  0  0  0  0  0  0  0  0
    4.6878    3.5375    0.7796 H   0  0  0  0  0  0  0  0  0  0  0  0
    6.1409    2.6187    1.2670 H   0  0  0  0  0  0  0  0  0  0  0  0
    4.7852    2.8110    2.4070 H   0  0  0  0  0  0  0  0  0  0  0  0
    0.2634    3.1843    0.4141 H   0  0  0  0  0  0  0  0  0  0  0  0
    0.4595    2.1369    1.8407 H   0  0  0  0  0  0  0  0  0  0  0  0
    0.9775    1.4366   -1.6836 H   0  0  0  0  0  0  0  0  0  0  0  0
   -0.7151    1.9538   -1.7245 H   0  0  0  0  0  0  0  0  0  0  0  0
    0.3912   -0.9167   -1.7517 H   0  0  0  0  0  0  0  0  0  0  0  0
   -0.5491   -0.1342   -3.0319 H   0  0  0  0  0  0  0  0  0  0  0  0
   -3.5371   -3.4124   -3.0764 H   0  0  0  0  0  0  0  0  0  0  0  0
   -5.1391   -2.9590   -2.3748 H   0  0  0  0  0  0  0  0  0  0  0  0
   -4.1443   -4.1789   -1.5569 H   0  0  0  0  0  0  0  0  0  0  0  0
   -3.6710   -0.4384    1.4657 H   0  0  0  0  0  0  0  0  0  0  0  0
   -1.4006    0.7954    1.6934 H   0  0  0  0  0  0  0  0  0  0  0  0
   -2.0192    1.8663    0.4209 H   0  0  0  0  0  0  0  0  0  0  0  0
    1.3657    0.2435    1.8214 H   0  0  0  0  0  0  0  0  0  0  0  0
    3.8751   -1.3449    1.1682 H   0  0  0  0  0  0  0  0  0  0  0  0
    2.2592   -1.4888    0.4360 H   0  0  0  0  0  0  0  0  0  0  0  0
    2.8076   -3.1150    2.5336 H   0  0  0  0  0  0  0  0  0  0  0  0
    1.2901   -2.2056    2.5837 H   0  0  0  0  0  0  0  0  0  0  0  0
    3.8697   -1.6212    4.1033 H   0  0  0  0  0  0  0  0  0  0  0  0
    2.2085   -1.4437    4.6671 H   0  0  0  0  0  0  0  0  0  0  0  0
    3.9264    0.6011    3.4303 H   0  0  0  0  0  0  0  0  0  0  0  0
    2.2589    0.8487    3.9447 H   0  0  0  0  0  0  0  0  0  0  0  0
  1  2  1  0
  1 25  1  0
  1 26  1  0
  1 27  1  0
  2  3  1  0
  2  4  1  0
  2 28  1  1
  3 29  1  0
  3 30  1  0
  3 31  1  0
  4  5  1  0
  4 20  1  0
  5  6  2  0
  5  7  1  0
  7  8  1  0
  7 32  1  0
  7 33  1  0
  8  9  1  0
  8 19  1  0
  9 10  1  0
  9 34  1  0
  9 35  1  0
 10 11  1  0
 10 36  1  0
 10 37  1  0
 11 12  2  0
 11 18  1  0
 12 13  1  0
 13 14  1  0
 13 15  1  0
 14 38  1  0
 14 39  1  0
 14 40  1  0
 15 16  2  0
 15 17  1  0
 17 18  2  0
 17 41  1  0
 18 19  1  0
 19 42  1  0
 19 43  1  0
 20 21  1  0
 20 24  1  0
 20 44  1  1
 21 22  1  0
 21 45  1  0
 21 46  1  0
 22 23  1  0
 22 47  1  0
 22 48  1  0
 23 24  1  0
 23 49  1  0
 23 50  1  0
 24 51  1  0
 24 52  1  0
M  END

