
     RDKit          3D

 29 30  0  0  0  0  0  0  0  0999 V2000
    1.0984   -0.0243    0.0910 C   0  0  0  0  0  0  0  0  0  0  0  0
    2.5393    0.0280    0.1237 N   0  0  0  0  0  0  0  0  0  0  0  0
    3.3129    1.1748    0.2790 C   0  0  0  0  0  0  0  0  0  0  0  0
    4.6499    0.8280    0.2728 C   0  0  0  0  0  0  0  0  0  0  0  0
    5.7516    1.6096    0.3920 O   0  0  0  0  0  0  0  0  0  0  0  0
    5.5401    2.9986    0.5331 C   0  0  0  0  0  0  0  0  0  0  0  0
    6.8936    3.6835    0.6630 C   0  0  0  0  0  0  0  0  0  0  0  0
    6.7104    5.1243    0.7896 N   0  0  0  0  0  0  0  0  0  0  0  0
    4.7259   -0.5957    0.1080 C   0  0  0  0  0  0  0  0  0  0  0  0
    5.7956   -1.5075    0.0288 C   0  0  0  0  0  0  0  0  0  0  0  0
    5.5087   -2.8604   -0.1359 C   0  0  0  0  0  0  0  0  0  0  0  0
    6.4811   -3.8162   -0.2226 O   0  0  0  0  0  0  0  0  0  0  0  0
    4.1686   -3.3119   -0.2222 C   0  0  0  0  0  0  0  0  0  0  0  0
    3.1021   -2.4237   -0.1457 C   0  0  0  0  0  0  0  0  0  0  0  0
    3.3836   -1.0581    0.0198 C   0  0  0  0  0  0  0  0  0  0  0  0
    0.6949    0.9923    0.1923 H   0  0  0  0  0  0  0  0  0  0  0  0
    0.6952   -0.6371    0.9164 H   0  0  0  0  0  0  0  0  0  0  0  0
    0.7298   -0.4461   -0.8605 H   0  0  0  0  0  0  0  0  0  0  0  0
    2.8397    2.1479    0.3818 H   0  0  0  0  0  0  0  0  0  0  0  0
    4.9232    3.2168    1.4253 H   0  0  0  0  0  0  0  0  0  0  0  0
    4.9926    3.3917   -0.3487 H   0  0  0  0  0  0  0  0  0  0  0  0
    7.5279    3.3611   -0.1896 H   0  0  0  0  0  0  0  0  0  0  0  0
    7.3832    3.3051    1.5753 H   0  0  0  0  0  0  0  0  0  0  0  0
    6.4722    5.5367   -0.1132 H   0  0  0  0  0  0  0  0  0  0  0  0
    7.5773    5.5708    1.0845 H   0  0  0  0  0  0  0  0  0  0  0  0
    6.8286   -1.1541    0.0964 H   0  0  0  0  0  0  0  0  0  0  0  0
    7.3458   -3.3923   -0.1511 H   0  0  0  0  0  0  0  0  0  0  0  0
    3.9973   -4.3825   -0.3509 H   0  0  0  0  0  0  0  0  0  0  0  0
    2.0753   -2.7901   -0.2140 H   0  0  0  0  0  0  0  0  0  0  0  0
  1  2  1  0
  1 16  1  0
  1 17  1  0
  1 18  1  0
  2  3  1  0
  2 15  1  0
  3  4  2  0
  3 19  1  0
  4  5  1  0
  4  9  1  0
  5  6  1  0
  6  7  1  0
  6 20  1  0
  6 21  1  0
  7  8  1  0
  7 22  1  0
  7 23  1  0
  8 24  1  0
  8 25  1  0
  9 10  1  0
  9 15  2  0
 10 11  2  0
 10 26  1  0
 11 12  1  0
 11 13  1  0
 12 27  1  0
 13 14  2  0
 13 28  1  0
 14 15  1  0
 14 29  1  0
M  END

