
     RDKit          3D

 27 28  0  0  0  0  0  0  0  0999 V2000
    8.0778    3.0425   -0.2656 C   0  0  0  0  0  0  0  0  0  0  0  0
    7.2096    2.1986   -0.2512 C   0  0  0  0  0  0  0  0  0  0  0  0
    6.1650    1.1723   -0.2033 C   0  0  0  0  0  0  0  0  0  0  0  0
    6.6297   -0.1139   -0.7035 N   0  0  0  0  0  0  0  0  0  0  0  0
    5.6395   -1.1666   -0.6265 C   0  0  0  0  0  0  0  0  0  0  0  0
    6.2078   -2.4807   -1.1327 C   0  0  2  0  0  0  0  0  0  0  0  0
    5.2292   -3.6815   -1.0977 C   0  0  0  0  0  0  0  0  0  0  0  0
    6.0825   -4.7684   -0.4876 C   0  0  0  0  0  0  0  0  0  0  0  0
    5.8565   -6.1270   -0.2947 C   0  0  0  0  0  0  0  0  0  0  0  0
    6.8435   -6.8785    0.3612 C   0  0  0  0  0  0  0  0  0  0  0  0
    6.5884   -8.5954    0.6098 Cl  0  0  0  0  0  0  0  0  0  0  0  0
    8.0245   -6.2846    0.8190 C   0  0  0  0  0  0  0  0  0  0  0  0
    8.2506   -4.9158    0.6254 C   0  0  0  0  0  0  0  0  0  0  0  0
    7.2673   -4.1777   -0.0298 C   0  0  0  0  0  0  0  0  0  0  0  0
    7.3363   -2.8472   -0.2906 O   0  0  0  0  0  0  0  0  0  0  0  0
    8.8463    3.7921   -0.2870 H   0  0  0  0  0  0  0  0  0  0  0  0
    5.3117    1.5035   -0.8248 H   0  0  0  0  0  0  0  0  0  0  0  0
    5.7702    1.1228    0.8389 H   0  0  0  0  0  0  0  0  0  0  0  0
    7.4718   -0.4009   -0.2052 H   0  0  0  0  0  0  0  0  0  0  0  0
    4.7738   -0.8983   -1.2599 H   0  0  0  0  0  0  0  0  0  0  0  0
    5.2389   -1.3313    0.4015 H   0  0  0  0  0  0  0  0  0  0  0  0
    6.6118   -2.3255   -2.1478 H   0  0  0  0  0  0  0  0  0  0  0  0
    4.8564   -3.9319   -2.1026 H   0  0  0  0  0  0  0  0  0  0  0  0
    4.3492   -3.4657   -0.4649 H   0  0  0  0  0  0  0  0  0  0  0  0
    4.9402   -6.6109   -0.6381 H   0  0  0  0  0  0  0  0  0  0  0  0
    8.7716   -6.8988    1.3244 H   0  0  0  0  0  0  0  0  0  0  0  0
    9.1687   -4.4390    0.9727 H   0  0  0  0  0  0  0  0  0  0  0  0
  1  2  3  0
  1 16  1  0
  2  3  1  0
  3  4  1  0
  3 17  1  0
  3 18  1  0
  4  5  1  0
  4 19  1  0
  5  6  1  0
  5 20  1  0
  5 21  1  0
  6  7  1  0
  6 15  1  0
  6 22  1  6
  7  8  1  0
  7 23  1  0
  7 24  1  0
  8  9  2  0
  8 14  1  0
  9 10  1  0
  9 25  1  0
 10 11  1  0
 10 12  2  0
 12 13  1  0
 12 26  1  0
 13 14  2  0
 13 27  1  0
 14 15  1  0
M  END

