
     RDKit          3D

 44 47  0  0  0  0  0  0  0  0999 V2000
    1.3848    0.8445   -0.3843 C   0  0  0  0  0  0  0  0  0  0  0  0
    2.4224    0.3464    0.6196 C   0  0  0  0  0  0  0  0  0  0  0  0
    3.1012    1.4334    1.3083 N   0  0  0  0  0  0  0  0  0  0  0  0
    4.4756    1.4897    1.3901 C   0  0  0  0  0  0  0  0  0  0  0  0
    5.1991    0.6413    0.8870 O   0  0  0  0  0  0  0  0  0  0  0  0
    5.0035    2.5881    2.0670 N   0  0  0  0  0  0  0  0  0  0  0  0
    6.4104    2.5512    2.4400 C   0  0  0  0  0  0  0  0  0  0  0  0
    7.1013    3.8834    2.1304 C   0  0  0  0  0  0  0  0  0  0  0  0
    6.3678    4.9970    2.7299 N   0  0  0  0  0  0  0  0  0  0  0  0
    6.7414    5.6123    3.9076 C   0  0  0  0  0  0  0  0  0  0  0  0
    8.1442    5.6880    4.2804 C   0  0  0  0  0  0  0  0  0  0  0  0
    8.5114    6.3579    5.4117 C   0  0  0  0  0  0  0  0  0  0  0  0
    7.4954    6.9653    6.1894 C   0  0  0  0  0  0  0  0  0  0  0  0
    7.5153    7.6792    7.3071 N   0  0  0  0  0  0  0  0  0  0  0  0
    6.2441    8.0136    7.5869 N   0  0  0  0  0  0  0  0  0  0  0  0
    5.4293    7.5154    6.6539 C   0  0  0  0  0  0  0  0  0  0  0  0
    3.9842    7.6841    6.6546 C   0  0  0  0  0  0  0  0  0  0  0  0
    3.3277    8.4614    7.6729 C   0  0  0  0  0  0  0  0  0  0  0  0
    1.9714    8.5030    7.5115 C   0  0  0  0  0  0  0  0  0  0  0  0
    1.4618    7.5992    6.1220 S   0  0  0  0  0  0  0  0  0  0  0  0
    3.0871    7.1562    5.7463 C   0  0  0  0  0  0  0  0  0  0  0  0
    6.1890    6.8370    5.7344 N   0  0  0  0  0  0  0  0  0  0  0  0
    5.7849    6.1635    4.6356 N   0  0  0  0  0  0  0  0  0  0  0  0
    4.9826    5.0324    2.2786 C   0  0  0  0  0  0  0  0  0  0  0  0
    4.2474    3.7182    2.5861 C   0  0  0  0  0  0  0  0  0  0  0  0
    0.8864   -0.0051   -0.8781 H   0  0  0  0  0  0  0  0  0  0  0  0
    1.8554    1.4675   -1.1611 H   0  0  0  0  0  0  0  0  0  0  0  0
    0.6015    1.4476    0.1057 H   0  0  0  0  0  0  0  0  0  0  0  0
    3.2064   -0.2377    0.1191 H   0  0  0  0  0  0  0  0  0  0  0  0
    1.9433   -0.3283    1.3540 H   0  0  0  0  0  0  0  0  0  0  0  0
    2.5467    1.9929    1.9423 H   0  0  0  0  0  0  0  0  0  0  0  0
    6.8785    1.7295    1.8834 H   0  0  0  0  0  0  0  0  0  0  0  0
    6.5130    2.3404    3.5242 H   0  0  0  0  0  0  0  0  0  0  0  0
    7.1356    4.0358    1.0375 H   0  0  0  0  0  0  0  0  0  0  0  0
    8.1353    3.8521    2.4922 H   0  0  0  0  0  0  0  0  0  0  0  0
    8.9036    5.2447    3.6395 H   0  0  0  0  0  0  0  0  0  0  0  0
    9.5517    6.4553    5.7250 H   0  0  0  0  0  0  0  0  0  0  0  0
    3.8753    8.9543    8.4756 H   0  0  0  0  0  0  0  0  0  0  0  0
    1.2368    9.0156    8.1307 H   0  0  0  0  0  0  0  0  0  0  0  0
    3.3152    6.5301    4.8892 H   0  0  0  0  0  0  0  0  0  0  0  0
    4.9889    5.1819    1.1844 H   0  0  0  0  0  0  0  0  0  0  0  0
    4.4703    5.8805    2.7456 H   0  0  0  0  0  0  0  0  0  0  0  0
    3.2630    3.7649    2.1010 H   0  0  0  0  0  0  0  0  0  0  0  0
    4.0912    3.6319    3.6799 H   0  0  0  0  0  0  0  0  0  0  0  0
  1  2  1  0
  1 26  1  0
  1 27  1  0
  1 28  1  0
  2  3  1  0
  2 29  1  0
  2 30  1  0
  3  4  1  0
  3 31  1  0
  4  5  2  0
  4  6  1  0
  6  7  1  0
  6 25  1  0
  7  8  1  0
  7 32  1  0
  7 33  1  0
  8  9  1  0
  8 34  1  0
  8 35  1  0
  9 10  1  0
  9 24  1  0
 10 11  1  0
 10 23  2  0
 11 12  2  0
 11 36  1  0
 12 13  1  0
 12 37  1  0
 13 14  2  0
 13 22  1  0
 14 15  1  0
 15 16  2  0
 16 17  1  0
 16 22  1  0
 17 18  1  0
 17 21  2  0
 18 19  2  0
 18 38  1  0
 19 20  1  0
 19 39  1  0
 20 21  1  0
 21 40  1  0
 22 23  1  0
 24 25  1  0
 24 41  1  0
 24 42  1  0
 25 43  1  0
 25 44  1  0
M  END

