
     RDKit          3D

 51 56  0  0  0  0  0  0  0  0999 V2000
    1.5638    0.4521    0.1765 C   0  0  0  0  0  0  0  0  0  0  0  0
    2.9440    0.0290    0.0088 N   0  0  0  0  0  0  0  0  0  0  0  0
    3.9089    0.9396   -0.0686 N   0  0  0  0  0  0  0  0  0  0  0  0
    5.0623    0.2776   -0.2535 C   0  0  0  0  0  0  0  0  0  0  0  0
    6.3486    0.9799   -0.3649 C   0  0  0  0  0  0  0  0  0  0  0  0
    6.5099    2.2659    0.1854 C   0  0  0  0  0  0  0  0  0  0  0  0
    7.7253    2.9366    0.0923 C   0  0  0  0  0  0  0  0  0  0  0  0
    8.8380    2.3560   -0.5500 C   0  0  0  0  0  0  0  0  0  0  0  0
   10.1343    3.0713   -0.6418 C   0  0  0  0  0  0  0  0  0  0  0  0
   11.3665    2.3991   -0.5638 C   0  0  0  0  0  0  0  0  0  0  0  0
   12.5534    3.1241   -0.6571 C   0  0  0  0  0  0  0  0  0  0  0  0
   12.4794    4.5106   -0.8217 C   0  0  0  0  0  0  0  0  0  0  0  0
   11.3215    5.1702   -0.9045 N   0  0  0  0  0  0  0  0  0  0  0  0
   10.1919    4.4693   -0.8204 C   0  0  0  0  0  0  0  0  0  0  0  0
    8.6713    1.0764   -1.1085 C   0  0  0  0  0  0  0  0  0  0  0  0
    7.4522    0.4034   -1.0237 C   0  0  0  0  0  0  0  0  0  0  0  0
    4.8025   -1.1160   -0.2772 C   0  0  0  0  0  0  0  0  0  0  0  0
    5.6621   -2.1674   -0.4142 O   0  0  0  0  0  0  0  0  0  0  0  0
    3.4241   -1.2527   -0.1065 C   0  0  0  0  0  0  0  0  0  0  0  0
    2.6313   -2.4631   -0.0423 C   0  0  0  0  0  0  0  0  0  0  0  0
    1.3279   -2.5458    0.1370 N   0  0  0  0  0  0  0  0  0  0  0  0
    1.0422   -3.8955    0.1277 C   0  0  0  0  0  0  0  0  0  0  0  0
   -0.1913   -4.5561    0.2818 C   0  0  0  0  0  0  0  0  0  0  0  0
   -0.1763   -5.9444    0.2461 C   0  0  0  0  0  0  0  0  0  0  0  0
    1.0207   -6.6767    0.0532 C   0  0  0  0  0  0  0  0  0  0  0  0
    2.2514   -6.0494   -0.1125 C   0  0  0  0  0  0  0  0  0  0  0  0
    2.2367   -4.6482   -0.0664 C   0  0  0  0  0  0  0  0  0  0  0  0
    3.2318   -3.6996   -0.1715 N   0  0  0  0  0  0  0  0  0  0  0  0
    4.2268   -3.8398   -0.3082 H   0  0  0  0  0  0  0  0  0  0  0  0
    0.6721   -8.1560    0.0349 C   0  0  0  0  0  0  0  0  0  0  0  0
   -0.6863   -8.2461    0.5969 N   0  0  0  0  0  0  0  0  0  0  0  0
   -1.3221   -6.9382    0.3572 C   0  0  0  0  0  0  0  0  0  0  0  0
    1.5777    1.5462    0.2458 H   0  0  0  0  0  0  0  0  0  0  0  0
    1.1314    0.0080    1.0831 H   0  0  0  0  0  0  0  0  0  0  0  0
    0.9528    0.1269   -0.6770 H   0  0  0  0  0  0  0  0  0  0  0  0
    5.6634    2.7266    0.6974 H   0  0  0  0  0  0  0  0  0  0  0  0
    7.8238    3.9219    0.5538 H   0  0  0  0  0  0  0  0  0  0  0  0
   11.3930    1.3177   -0.4075 H   0  0  0  0  0  0  0  0  0  0  0  0
   13.5234    2.6255   -0.5915 H   0  0  0  0  0  0  0  0  0  0  0  0
   13.3941    5.1115   -0.8888 H   0  0  0  0  0  0  0  0  0  0  0  0
    9.2610    5.0397   -0.9200 H   0  0  0  0  0  0  0  0  0  0  0  0
    9.4964    0.6129   -1.6546 H   0  0  0  0  0  0  0  0  0  0  0  0
    7.3461   -0.5604   -1.5284 H   0  0  0  0  0  0  0  0  0  0  0  0
    6.5521   -1.8876   -0.1571 H   0  0  0  0  0  0  0  0  0  0  0  0
   -1.1086   -3.9806    0.4273 H   0  0  0  0  0  0  0  0  0  0  0  0
    3.1755   -6.6133   -0.2650 H   0  0  0  0  0  0  0  0  0  0  0  0
    1.3767   -8.7866    0.6010 H   0  0  0  0  0  0  0  0  0  0  0  0
    0.6788   -8.5340   -1.0069 H   0  0  0  0  0  0  0  0  0  0  0  0
   -0.5992   -8.3703    1.6046 H   0  0  0  0  0  0  0  0  0  0  0  0
   -2.0428   -6.6982    1.1552 H   0  0  0  0  0  0  0  0  0  0  0  0
   -1.8969   -6.9634   -0.5896 H   0  0  0  0  0  0  0  0  0  0  0  0
  1  2  1  0
  1 33  1  0
  1 34  1  0
  1 35  1  0
  2  3  1  0
  2 19  1  0
  3  4  2  0
  4  5  1  0
  4 17  1  0
  5  6  2  0
  5 16  1  0
  6  7  1  0
  6 36  1  0
  7  8  2  0
  7 37  1  0
  8  9  1  0
  8 15  1  0
  9 10  2  0
  9 14  1  0
 10 11  1  0
 10 38  1  0
 11 12  2  0
 11 39  1  0
 12 13  1  0
 12 40  1  0
 13 14  2  0
 14 41  1  0
 15 16  2  0
 15 42  1  0
 16 43  1  0
 17 18  1  0
 17 19  2  0
 18 44  1  0
 19 20  1  0
 20 21  2  0
 20 28  1  0
 21 22  1  0
 22 23  2  0
 22 27  1  0
 23 24  1  0
 23 45  1  0
 24 25  2  0
 24 32  1  0
 25 26  1  0
 25 30  1  0
 26 27  2  0
 26 46  1  0
 27 28  1  0
 28 29  1  0
 30 31  1  0
 30 47  1  0
 30 48  1  0
 31 32  1  0
 31 49  1  0
 32 50  1  0
 32 51  1  0
M  END

