
     RDKit          3D

 45 46  0  0  0  0  0  0  0  0999 V2000
    1.0469   -0.4369    0.0121 C   0  0  0  0  0  0  0  0  0  0  0  0
    2.5228   -0.2019   -0.0469 C   0  0  0  0  0  0  0  0  0  0  0  0
    3.2047    0.9889   -0.0176 C   0  0  0  0  0  0  0  0  0  0  0  0
    4.5585    0.6612   -0.0912 N   0  0  0  0  0  0  0  0  0  0  0  0
    5.6802    1.5688   -0.0211 C   0  0  0  0  0  0  0  0  0  0  0  0
    4.6156   -0.7082   -0.1846 C   0  0  0  0  0  0  0  0  0  0  0  0
    5.8408   -1.3584   -0.2293 N   0  0  0  0  0  0  0  0  0  0  0  0
    5.9591   -2.8247   -0.2273 C   0  0  2  0  0  0  0  0  0  0  0  0
    5.3257   -3.5001   -1.4576 C   0  0  0  0  0  0  0  0  0  0  0  0
    5.5239   -5.0346   -1.4958 C   0  0  2  0  0  0  0  0  0  0  0  0
    6.9742   -5.3946   -1.8828 C   0  0  0  0  0  0  0  0  0  0  0  0
    4.6018   -5.6259   -2.5807 C   0  0  0  0  0  0  0  0  0  0  0  0
    5.0966   -5.6326   -0.1275 C   0  0  0  0  0  0  0  0  0  0  0  0
    5.6188   -4.9615    1.1725 C   0  0  2  0  0  0  0  0  0  0  0  0
    7.0941   -5.3002    1.4749 C   0  0  0  0  0  0  0  0  0  0  0  0
    4.7783   -5.4946    2.3501 C   0  0  0  0  0  0  0  0  0  0  0  0
    5.4108   -3.4314    1.0718 C   0  0  0  0  0  0  0  0  0  0  0  0
    3.4151   -1.2515   -0.1584 N   0  0  0  0  0  0  0  0  0  0  0  0
    0.4931    0.5105    0.0910 H   0  0  0  0  0  0  0  0  0  0  0  0
    0.7811   -1.0649    0.8791 H   0  0  0  0  0  0  0  0  0  0  0  0
    0.6937   -0.9691   -0.8873 H   0  0  0  0  0  0  0  0  0  0  0  0
    2.8694    2.0214    0.0419 H   0  0  0  0  0  0  0  0  0  0  0  0
    5.3828    2.4837    0.5108 H   0  0  0  0  0  0  0  0  0  0  0  0
    6.0537    1.8582   -1.0202 H   0  0  0  0  0  0  0  0  0  0  0  0
    6.5025    1.0950    0.5370 H   0  0  0  0  0  0  0  0  0  0  0  0
    6.5049   -0.9178   -0.8586 H   0  0  0  0  0  0  0  0  0  0  0  0
    7.0477   -2.9995   -0.2516 H   0  0  0  0  0  0  0  0  0  0  0  0
    5.7401   -3.0518   -2.3792 H   0  0  0  0  0  0  0  0  0  0  0  0
    4.2497   -3.2671   -1.4461 H   0  0  0  0  0  0  0  0  0  0  0  0
    7.1816   -5.0761   -2.9180 H   0  0  0  0  0  0  0  0  0  0  0  0
    7.1375   -6.4837   -1.8321 H   0  0  0  0  0  0  0  0  0  0  0  0
    7.7292   -4.9206   -1.2412 H   0  0  0  0  0  0  0  0  0  0  0  0
    4.8431   -5.2115   -3.5736 H   0  0  0  0  0  0  0  0  0  0  0  0
    3.5434   -5.4019   -2.3720 H   0  0  0  0  0  0  0  0  0  0  0  0
    4.7100   -6.7220   -2.6405 H   0  0  0  0  0  0  0  0  0  0  0  0
    5.3417   -6.7100   -0.1067 H   0  0  0  0  0  0  0  0  0  0  0  0
    3.9948   -5.5745   -0.0899 H   0  0  0  0  0  0  0  0  0  0  0  0
    7.2590   -6.3903    1.4663 H   0  0  0  0  0  0  0  0  0  0  0  0
    7.3710   -4.9300    2.4758 H   0  0  0  0  0  0  0  0  0  0  0  0
    7.8005   -4.8565    0.7604 H   0  0  0  0  0  0  0  0  0  0  0  0
    4.8960   -6.5857    2.4607 H   0  0  0  0  0  0  0  0  0  0  0  0
    3.7067   -5.2835    2.2050 H   0  0  0  0  0  0  0  0  0  0  0  0
    5.0871   -5.0267    3.2995 H   0  0  0  0  0  0  0  0  0  0  0  0
    5.8838   -2.9297    1.9334 H   0  0  0  0  0  0  0  0  0  0  0  0
    4.3343   -3.2069    1.1209 H   0  0  0  0  0  0  0  0  0  0  0  0
  1  2  1  0
  1 19  1  0
  1 20  1  0
  1 21  1  0
  2  3  2  0
  2 18  1  0
  3  4  1  0
  3 22  1  0
  4  5  1  0
  4  6  1  0
  5 23  1  0
  5 24  1  0
  5 25  1  0
  6  7  1  0
  6 18  2  0
  7  8  1  0
  7 26  1  0
  8  9  1  0
  8 17  1  0
  8 27  1  6
  9 10  1  0
  9 28  1  0
  9 29  1  0
 10 11  1  6
 10 12  1  0
 10 13  1  0
 11 30  1  0
 11 31  1  0
 11 32  1  0
 12 33  1  0
 12 34  1  0
 12 35  1  0
 13 14  1  0
 13 36  1  0
 13 37  1  0
 14 15  1  1
 14 16  1  0
 14 17  1  0
 15 38  1  0
 15 39  1  0
 15 40  1  0
 16 41  1  0
 16 42  1  0
 16 43  1  0
 17 44  1  0
 17 45  1  0
M  END

