
     RDKit          3D

 28 28  0  0  0  0  0  0  0  0999 V2000
    3.3866    1.1004    0.0024 C   0  0  0  0  0  0  0  0  0  0  0  0
    2.5146   -0.1646   -0.0576 C   0  0  1  0  0  0  0  0  0  0  0  0
    1.1818    0.0031    0.5265 N   0  0  0  0  0  0  0  0  0  0  0  0
    2.3741   -0.7437   -1.4974 C   0  0  1  0  0  0  0  0  0  0  0  0
    1.6489    0.1831   -2.4750 C   0  0  0  0  0  0  0  0  0  0  0  0
    3.7259   -1.1933   -2.0621 C   0  0  0  0  0  0  0  0  0  0  0  0
    4.1834   -0.7113   -3.0762 O   0  0  0  0  0  0  0  0  0  0  0  0
    4.4861   -2.2793   -1.2979 C   0  0  0  0  0  0  0  0  0  0  0  0
    5.5134   -3.0010   -2.1423 C   0  0  1  0  0  0  0  0  0  0  0  0
    6.0770   -4.3242   -1.6932 C   0  0  0  0  0  0  0  0  0  0  0  0
    5.1472   -4.2628   -2.8811 C   0  0  0  0  0  0  0  0  0  0  0  0
    3.5130    1.4266    1.0477 H   0  0  0  0  0  0  0  0  0  0  0  0
    2.9219    1.9325   -0.5512 H   0  0  0  0  0  0  0  0  0  0  0  0
    4.3914    0.9414   -0.4230 H   0  0  0  0  0  0  0  0  0  0  0  0
    3.0087   -0.9420    0.5501 H   0  0  0  0  0  0  0  0  0  0  0  0
    0.7163    0.8135    0.1146 H   0  0  0  0  0  0  0  0  0  0  0  0
    1.2648    0.2111    1.5221 H   0  0  0  0  0  0  0  0  0  0  0  0
    1.7724   -1.6619   -1.3689 H   0  0  0  0  0  0  0  0  0  0  0  0
    2.2161    1.1066   -2.6610 H   0  0  0  0  0  0  0  0  0  0  0  0
    0.6478    0.4441   -2.0995 H   0  0  0  0  0  0  0  0  0  0  0  0
    1.5222   -0.3106   -3.4494 H   0  0  0  0  0  0  0  0  0  0  0  0
    3.7714   -2.9885   -0.8460 H   0  0  0  0  0  0  0  0  0  0  0  0
    4.9847   -1.7804   -0.4443 H   0  0  0  0  0  0  0  0  0  0  0  0
    6.1962   -2.3247   -2.6648 H   0  0  0  0  0  0  0  0  0  0  0  0
    5.6933   -4.7593   -0.7646 H   0  0  0  0  0  0  0  0  0  0  0  0
    7.1377   -4.5239   -1.8706 H   0  0  0  0  0  0  0  0  0  0  0  0
    4.1326   -4.6552   -2.7571 H   0  0  0  0  0  0  0  0  0  0  0  0
    5.5638   -4.4176   -3.8803 H   0  0  0  0  0  0  0  0  0  0  0  0
  1  2  1  0
  1 12  1  0
  1 13  1  0
  1 14  1  0
  2  3  1  0
  2  4  1  0
  2 15  1  1
  3 16  1  0
  3 17  1  0
  4  5  1  0
  4  6  1  0
  4 18  1  1
  5 19  1  0
  5 20  1  0
  5 21  1  0
  6  7  2  0
  6  8  1  0
  8  9  1  0
  8 22  1  0
  8 23  1  0
  9 10  1  0
  9 11  1  0
  9 24  1  6
 10 11  1  0
 10 25  1  0
 10 26  1  0
 11 27  1  0
 11 28  1  0
M  END

