
     RDKit          3D

 54 56  0  0  0  0  0  0  0  0999 V2000
    1.3555    0.3029   -2.0348 C   0  0  0  0  0  0  0  0  0  0  0  0
    2.6643   -0.3986   -2.2982 C   0  0  0  0  0  0  0  0  0  0  0  0
    2.9403   -1.7539   -1.9510 C   0  0  0  0  0  0  0  0  0  0  0  0
    1.8980   -2.5971   -1.2594 C   0  0  0  0  0  0  0  0  0  0  0  0
    0.8510   -2.1097   -0.8736 O   0  0  0  0  0  0  0  0  0  0  0  0
    2.1824   -4.0835   -1.0319 C   0  0  0  0  0  0  0  0  0  0  0  0
    1.0011   -4.8552   -0.4195 C   0  0  1  0  0  0  0  0  0  0  0  0
   -0.1477   -5.1007   -1.4215 C   0  0  0  0  0  0  0  0  0  0  0  0
    0.1845   -6.1801   -2.4567 C   0  0  0  0  0  0  0  0  0  0  0  0
    0.6308   -7.4108   -1.8115 N   0  0  0  0  0  0  0  0  0  0  0  0
    0.0662   -8.6049   -2.1857 C   0  0  0  0  0  0  0  0  0  0  0  0
   -0.8331   -8.7018   -3.0008 O   0  0  0  0  0  0  0  0  0  0  0  0
    0.6310   -9.6451   -1.5321 O   0  0  0  0  0  0  0  0  0  0  0  0
    0.1841  -11.0238   -1.7442 C   0  0  1  0  0  0  0  0  0  0  0  0
    0.4197  -11.4358   -3.2015 C   0  0  0  0  0  0  0  0  0  0  0  0
    1.0900  -11.8236   -0.8051 C   0  0  0  0  0  0  0  0  0  0  0  0
   -1.2848  -11.1721   -1.3331 C   0  0  0  0  0  0  0  0  0  0  0  0
    1.7463   -7.2684   -0.8827 C   0  0  0  0  0  0  0  0  0  0  0  0
    1.4365   -6.2072    0.1811 C   0  0  0  0  0  0  0  0  0  0  0  0
    4.2037   -2.3212   -2.2445 C   0  0  0  0  0  0  0  0  0  0  0  0
    5.2183   -1.5994   -2.8666 C   0  0  0  0  0  0  0  0  0  0  0  0
    4.9378   -0.2783   -3.2022 C   0  0  0  0  0  0  0  0  0  0  0  0
    3.7026    0.3012   -2.9293 C   0  0  0  0  0  0  0  0  0  0  0  0
    3.7590    1.7255   -3.4288 C   0  0  0  0  0  0  0  0  0  0  0  0
    5.0702    1.8799   -3.9761 O   0  0  0  0  0  0  0  0  0  0  0  0
    5.8056    0.7302   -3.8684 C   0  0  0  0  0  0  0  0  0  0  0  0
    6.9333    0.6327   -4.2615 O   0  0  0  0  0  0  0  0  0  0  0  0
    0.5047   -0.2510   -2.4566 H   0  0  0  0  0  0  0  0  0  0  0  0
    1.3607    1.3164   -2.4609 H   0  0  0  0  0  0  0  0  0  0  0  0
    1.1484    0.3752   -0.9570 H   0  0  0  0  0  0  0  0  0  0  0  0
    3.0567   -4.1489   -0.3585 H   0  0  0  0  0  0  0  0  0  0  0  0
    2.5176   -4.5315   -1.9818 H   0  0  0  0  0  0  0  0  0  0  0  0
    0.6059   -4.2256    0.3926 H   0  0  0  0  0  0  0  0  0  0  0  0
   -0.4196   -4.1638   -1.9311 H   0  0  0  0  0  0  0  0  0  0  0  0
   -1.0400   -5.4229   -0.8584 H   0  0  0  0  0  0  0  0  0  0  0  0
    0.9738   -5.8244   -3.1496 H   0  0  0  0  0  0  0  0  0  0  0  0
   -0.6917   -6.4241   -3.0692 H   0  0  0  0  0  0  0  0  0  0  0  0
    1.4752  -11.2819   -3.4764 H   0  0  0  0  0  0  0  0  0  0  0  0
   -0.2125  -10.8524   -3.8823 H   0  0  0  0  0  0  0  0  0  0  0  0
    0.1873  -12.5049   -3.3275 H   0  0  0  0  0  0  0  0  0  0  0  0
    2.1483  -11.6817   -1.0727 H   0  0  0  0  0  0  0  0  0  0  0  0
    0.8552  -12.8968   -0.8710 H   0  0  0  0  0  0  0  0  0  0  0  0
    0.9505  -11.5004    0.2378 H   0  0  0  0  0  0  0  0  0  0  0  0
   -1.9386  -10.5869   -1.9916 H   0  0  0  0  0  0  0  0  0  0  0  0
   -1.4278  -10.8315   -0.2954 H   0  0  0  0  0  0  0  0  0  0  0  0
   -1.5807  -12.2316   -1.3875 H   0  0  0  0  0  0  0  0  0  0  0  0
    2.6597   -6.9895   -1.4464 H   0  0  0  0  0  0  0  0  0  0  0  0
    1.9432   -8.2382   -0.4148 H   0  0  0  0  0  0  0  0  0  0  0  0
    2.3166   -6.0782    0.8343 H   0  0  0  0  0  0  0  0  0  0  0  0
    0.6202   -6.5882    0.8181 H   0  0  0  0  0  0  0  0  0  0  0  0
    4.3997   -3.3575   -1.9711 H   0  0  0  0  0  0  0  0  0  0  0  0
    6.1928   -2.0401   -3.0865 H   0  0  0  0  0  0  0  0  0  0  0  0
    3.6188    2.4694   -2.6260 H   0  0  0  0  0  0  0  0  0  0  0  0
    3.0172    1.9349   -4.2185 H   0  0  0  0  0  0  0  0  0  0  0  0
  1  2  1  0
  1 28  1  0
  1 29  1  0
  1 30  1  0
  2  3  2  0
  2 23  1  0
  3  4  1  0
  3 20  1  0
  4  5  2  0
  4  6  1  0
  6  7  1  0
  6 31  1  0
  6 32  1  0
  7  8  1  0
  7 19  1  0
  7 33  1  1
  8  9  1  0
  8 34  1  0
  8 35  1  0
  9 10  1  0
  9 36  1  0
  9 37  1  0
 10 11  1  0
 10 18  1  0
 11 12  2  0
 11 13  1  0
 14 13  1  6
 14 15  1  0
 14 16  1  0
 14 17  1  0
 15 38  1  0
 15 39  1  0
 15 40  1  0
 16 41  1  0
 16 42  1  0
 16 43  1  0
 17 44  1  0
 17 45  1  0
 17 46  1  0
 18 19  1  0
 18 47  1  0
 18 48  1  0
 19 49  1  0
 19 50  1  0
 20 21  2  0
 20 51  1  0
 21 22  1  0
 21 52  1  0
 22 23  2  0
 22 26  1  0
 23 24  1  0
 24 25  1  0
 24 53  1  0
 24 54  1  0
 25 26  1  0
 26 27  2  0
M  END

