
     RDKit          3D

 44 44  0  0  0  0  0  0  0  0999 V2000
    4.5234   -3.0305    3.0042 C   0  0  0  0  0  0  0  0  0  0  0  0
    4.3038   -2.8610    1.5000 C   0  0  0  0  0  0  0  0  0  0  0  0
    5.1528   -3.8177    0.6539 C   0  0  0  0  0  0  0  0  0  0  0  0
    4.9200   -3.7256   -0.8629 C   0  0  0  0  0  0  0  0  0  0  0  0
    5.3923   -2.4339   -1.5645 C   0  0  2  0  0  0  0  0  0  0  0  0
    5.0612   -1.5677   -0.9592 H   0  0  0  0  0  0  0  0  0  0  0  0
    4.7797   -2.2816   -2.9717 C   0  0  0  0  0  0  0  0  0  0  0  0
    3.2938   -1.9179   -2.9927 C   0  0  0  0  0  0  0  0  0  0  0  0
    6.9285   -2.3915   -1.6213 C   0  0  0  0  0  0  0  0  0  0  0  0
    7.4050   -1.0731   -2.0542 N   0  0  0  0  0  0  0  0  0  0  0  0
    9.0575   -0.8235   -2.2534 S   0  0  1  0  0  0  0  0  0  0  0  0
    9.2403    0.6230   -2.1029 O   0  0  0  0  0  0  0  0  0  0  0  0
    9.8241   -1.7885   -1.4596 O   0  0  0  0  0  0  0  0  0  0  0  0
    9.3251   -1.2364   -3.9836 C   0  0  0  0  0  0  0  0  0  0  0  0
    9.9115   -2.4552   -4.3252 C   0  0  0  0  0  0  0  0  0  0  0  0
   10.1062   -2.7560   -5.6790 C   0  0  0  0  0  0  0  0  0  0  0  0
    9.7290   -1.8430   -6.6620 C   0  0  0  0  0  0  0  0  0  0  0  0
    9.1737   -0.6004   -6.3084 C   0  0  0  0  0  0  0  0  0  0  0  0
    8.7939    0.3417   -7.4214 C   0  0  0  0  0  0  0  0  0  0  0  0
    8.6317   -0.0238   -8.5549 O   0  0  0  0  0  0  0  0  0  0  0  0
    8.6407    1.6411   -7.0887 O   0  0  0  0  0  0  0  0  0  0  0  0
    8.9630   -0.3021   -4.9573 C   0  0  0  0  0  0  0  0  0  0  0  0
    3.8980   -2.3346    3.5858 H   0  0  0  0  0  0  0  0  0  0  0  0
    5.5747   -2.8424    3.2798 H   0  0  0  0  0  0  0  0  0  0  0  0
    4.2764   -4.0541    3.3325 H   0  0  0  0  0  0  0  0  0  0  0  0
    4.5193   -1.8147    1.2192 H   0  0  0  0  0  0  0  0  0  0  0  0
    3.2361   -3.0205    1.2618 H   0  0  0  0  0  0  0  0  0  0  0  0
    4.9343   -4.8528    0.9717 H   0  0  0  0  0  0  0  0  0  0  0  0
    6.2210   -3.6617    0.8895 H   0  0  0  0  0  0  0  0  0  0  0  0
    3.8413   -3.8558   -1.0529 H   0  0  0  0  0  0  0  0  0  0  0  0
    5.4124   -4.5828   -1.3575 H   0  0  0  0  0  0  0  0  0  0  0  0
    4.9428   -3.2226   -3.5294 H   0  0  0  0  0  0  0  0  0  0  0  0
    5.3447   -1.5062   -3.5139 H   0  0  0  0  0  0  0  0  0  0  0  0
    2.6668   -2.6789   -2.5011 H   0  0  0  0  0  0  0  0  0  0  0  0
    2.9285   -1.8145   -4.0267 H   0  0  0  0  0  0  0  0  0  0  0  0
    3.1104   -0.9583   -2.4804 H   0  0  0  0  0  0  0  0  0  0  0  0
    7.2835   -3.1385   -2.3517 H   0  0  0  0  0  0  0  0  0  0  0  0
    7.3655   -2.6670   -0.6472 H   0  0  0  0  0  0  0  0  0  0  0  0
    7.0447   -0.2845   -1.5145 H   0  0  0  0  0  0  0  0  0  0  0  0
   10.2143   -3.1455   -3.5359 H   0  0  0  0  0  0  0  0  0  0  0  0
   10.5581   -3.7092   -5.9629 H   0  0  0  0  0  0  0  0  0  0  0  0
    9.8618   -2.0647   -7.7226 H   0  0  0  0  0  0  0  0  0  0  0  0
    8.9422    1.8075   -6.1845 H   0  0  0  0  0  0  0  0  0  0  0  0
    8.5094    0.6373   -4.6322 H   0  0  0  0  0  0  0  0  0  0  0  0
  1  2  1  0
  1 23  1  0
  1 24  1  0
  1 25  1  0
  2  3  1  0
  2 26  1  0
  2 27  1  0
  3  4  1  0
  3 28  1  0
  3 29  1  0
  4  5  1  0
  4 30  1  0
  4 31  1  0
  5  6  1  1
  5  7  1  0
  5  9  1  0
  7  8  1  0
  7 32  1  0
  7 33  1  0
  8 34  1  0
  8 35  1  0
  8 36  1  0
  9 10  1  0
  9 37  1  0
  9 38  1  0
 11 10  1  1
 10 39  1  0
 11 12  2  0
 11 13  2  0
 11 14  1  0
 14 15  2  0
 14 22  1  0
 15 16  1  0
 15 40  1  0
 16 17  2  0
 16 41  1  0
 17 18  1  0
 17 42  1  0
 18 19  1  0
 18 22  2  0
 19 20  2  0
 19 21  1  0
 21 43  1  0
 22 44  1  0
M  END

