
     RDKit          3D

 30 32  0  0  0  0  0  0  0  0999 V2000
    2.2862   -2.1202   -3.4749 C   0  0  0  0  0  0  0  0  0  0  0  0
    3.3441   -2.8756   -2.7163 C   0  0  0  0  0  0  0  0  0  0  0  0
    4.2962   -3.7420   -3.3506 C   0  0  0  0  0  0  0  0  0  0  0  0
    5.1602   -4.3471   -2.4770 C   0  0  0  0  0  0  0  0  0  0  0  0
    4.8399   -3.8727   -0.8481 S   0  0  0  0  0  0  0  0  0  0  0  0
    3.5153   -2.8454   -1.3457 C   0  0  0  0  0  0  0  0  0  0  0  0
    2.7441   -2.0694   -0.3041 C   0  0  0  0  0  0  0  0  0  0  0  0
    1.3233   -2.3864   -0.2335 N   0  0  0  0  0  0  0  0  0  0  0  0
    0.7567   -3.5927    0.1601 C   0  0  0  0  0  0  0  0  0  0  0  0
    1.5378   -4.6557    0.5275 N   0  0  0  0  0  0  0  0  0  0  0  0
   -0.5535   -3.5710    0.2152 N   0  0  0  0  0  0  0  0  0  0  0  0
   -0.9046   -2.2840   -0.1391 C   0  0  0  0  0  0  0  0  0  0  0  0
   -2.1678   -1.6941   -0.2448 C   0  0  0  0  0  0  0  0  0  0  0  0
   -2.2539   -0.3524   -0.6291 C   0  0  0  0  0  0  0  0  0  0  0  0
   -3.8339    0.3811   -0.7592 Cl  0  0  0  0  0  0  0  0  0  0  0  0
   -1.0915    0.4011   -0.9055 C   0  0  0  0  0  0  0  0  0  0  0  0
   -1.2016    2.0790   -1.3771 Cl  0  0  0  0  0  0  0  0  0  0  0  0
    0.1815   -0.1774   -0.8071 C   0  0  0  0  0  0  0  0  0  0  0  0
    0.2538   -1.5142   -0.4270 C   0  0  0  0  0  0  0  0  0  0  0  0
    2.6339   -1.8747   -4.4897 H   0  0  0  0  0  0  0  0  0  0  0  0
    2.0046   -1.1809   -2.9779 H   0  0  0  0  0  0  0  0  0  0  0  0
    1.3632   -2.7157   -3.5787 H   0  0  0  0  0  0  0  0  0  0  0  0
    4.3328   -3.8983   -4.4306 H   0  0  0  0  0  0  0  0  0  0  0  0
    5.9759   -5.0333   -2.7002 H   0  0  0  0  0  0  0  0  0  0  0  0
    2.8186   -0.9902   -0.5070 H   0  0  0  0  0  0  0  0  0  0  0  0
    3.2000   -2.2290    0.6878 H   0  0  0  0  0  0  0  0  0  0  0  0
    2.4114   -4.7979    0.0294 H   0  0  0  0  0  0  0  0  0  0  0  0
    1.0047   -5.5030    0.6919 H   0  0  0  0  0  0  0  0  0  0  0  0
   -3.0715   -2.2645   -0.0296 H   0  0  0  0  0  0  0  0  0  0  0  0
    1.0601    0.4327   -1.0202 H   0  0  0  0  0  0  0  0  0  0  0  0
  1  2  1  0
  1 20  1  0
  1 21  1  0
  1 22  1  0
  2  3  1  0
  2  6  2  0
  3  4  2  0
  3 23  1  0
  4  5  1  0
  4 24  1  0
  5  6  1  0
  6  7  1  0
  7  8  1  0
  7 25  1  0
  7 26  1  0
  8  9  1  0
  8 19  1  0
  9 10  1  0
  9 11  2  0
 10 27  1  0
 10 28  1  0
 11 12  1  0
 12 13  1  0
 12 19  2  0
 13 14  2  0
 13 29  1  0
 14 15  1  0
 14 16  1  0
 16 17  1  0
 16 18  2  0
 18 19  1  0
 18 30  1  0
M  END

