
     RDKit          3D

 50 52  0  0  0  0  0  0  0  0999 V2000
    1.0518   -1.6163   -1.1393 C   0  0  0  0  0  0  0  0  0  0  0  0
    2.5350   -1.8455   -0.8640 C   0  0  0  0  0  0  0  0  0  0  0  0
    2.9972   -1.3023    0.4176 N   0  0  0  0  0  0  0  0  0  0  0  0
    2.2614   -1.7609    1.5923 C   0  0  0  0  0  0  0  0  0  0  0  0
    2.3455   -3.2790    1.8184 C   0  0  0  0  0  0  0  0  0  0  0  0
    1.5531   -4.0637    1.3702 O   0  0  0  0  0  0  0  0  0  0  0  0
    3.4363   -3.7205    2.4928 O   0  0  0  0  0  0  0  0  0  0  0  0
    4.4405   -1.3729    0.5553 C   0  0  1  0  0  0  0  0  0  0  0  0
    5.2889   -0.4779   -0.3848 C   0  0  0  0  0  0  0  0  0  0  0  0
    6.2155   -0.1439    0.8112 C   0  0  2  0  0  0  0  0  0  0  0  0
    7.3892   -1.0028    0.8244 N   0  0  0  0  0  0  0  0  0  0  0  0
    8.2312   -0.9786    1.9231 C   0  0  0  0  0  0  0  0  0  0  0  0
    7.9440   -0.3499    2.9303 O   0  0  0  0  0  0  0  0  0  0  0  0
    9.4101   -1.7150    1.7856 N   0  0  0  0  0  0  0  0  0  0  0  0
    9.3872   -3.0133    1.0907 C   0  0  0  0  0  0  0  0  0  0  0  0
   10.7944   -3.4831    0.7167 C   0  0  0  0  0  0  0  0  0  0  0  0
   11.6602   -3.5154    1.8317 O   0  0  0  0  0  0  0  0  0  0  0  0
   11.7129   -2.2359    2.4174 C   0  0  2  0  0  0  0  0  0  0  0  0
   12.5938   -2.1247    3.6530 C   0  0  0  0  0  0  0  0  0  0  0  0
   12.0808   -0.8221    4.3337 C   0  0  0  0  0  0  0  0  0  0  0  0
   10.7342   -0.4545    3.6364 C   0  0  0  0  0  0  0  0  0  0  0  0
   10.3454   -1.7477    2.9129 C   0  0  1  0  0  0  0  0  0  0  0  0
    5.0880   -0.6356    1.7557 C   0  0  0  0  0  0  0  0  0  0  0  0
    0.8215   -1.8864   -2.1815 H   0  0  0  0  0  0  0  0  0  0  0  0
    0.7828   -0.5581   -0.9908 H   0  0  0  0  0  0  0  0  0  0  0  0
    0.4176   -2.2410   -0.4931 H   0  0  0  0  0  0  0  0  0  0  0  0
    3.1273   -1.3451   -1.6476 H   0  0  0  0  0  0  0  0  0  0  0  0
    2.7585   -2.9316   -0.9530 H   0  0  0  0  0  0  0  0  0  0  0  0
    1.1979   -1.5122    1.4812 H   0  0  0  0  0  0  0  0  0  0  0  0
    2.6345   -1.2187    2.4770 H   0  0  0  0  0  0  0  0  0  0  0  0
    3.9645   -2.9734    2.8091 H   0  0  0  0  0  0  0  0  0  0  0  0
    4.8185   -2.4169    0.5051 H   0  0  0  0  0  0  0  0  0  0  0  0
    4.7145    0.4063   -0.6970 H   0  0  0  0  0  0  0  0  0  0  0  0
    5.7506   -0.9434   -1.2701 H   0  0  0  0  0  0  0  0  0  0  0  0
    6.4956    0.9150    0.9388 H   0  0  0  0  0  0  0  0  0  0  0  0
    7.8135   -1.1820   -0.0788 H   0  0  0  0  0  0  0  0  0  0  0  0
    8.7809   -2.9559    0.1772 H   0  0  0  0  0  0  0  0  0  0  0  0
    8.9194   -3.7787    1.7429 H   0  0  0  0  0  0  0  0  0  0  0  0
   11.2070   -2.8147   -0.0674 H   0  0  0  0  0  0  0  0  0  0  0  0
   10.7444   -4.5042    0.3090 H   0  0  0  0  0  0  0  0  0  0  0  0
   12.0550   -1.5047    1.6521 H   0  0  0  0  0  0  0  0  0  0  0  0
   13.6651   -2.0981    3.4068 H   0  0  0  0  0  0  0  0  0  0  0  0
   12.4233   -3.0085    4.2883 H   0  0  0  0  0  0  0  0  0  0  0  0
   12.8087   -0.0028    4.2347 H   0  0  0  0  0  0  0  0  0  0  0  0
   11.9349   -0.9784    5.4130 H   0  0  0  0  0  0  0  0  0  0  0  0
   10.8818    0.3467    2.8942 H   0  0  0  0  0  0  0  0  0  0  0  0
    9.9601   -0.1116    4.3303 H   0  0  0  0  0  0  0  0  0  0  0  0
    9.9847   -2.4830    3.6639 H   0  0  0  0  0  0  0  0  0  0  0  0
    4.4644    0.2109    2.0791 H   0  0  0  0  0  0  0  0  0  0  0  0
    5.4127   -1.2059    2.6385 H   0  0  0  0  0  0  0  0  0  0  0  0
  1  2  1  0
  1 24  1  0
  1 25  1  0
  1 26  1  0
  2  3  1  0
  2 27  1  0
  2 28  1  0
  3  4  1  0
  3  8  1  0
  4  5  1  0
  4 29  1  0
  4 30  1  0
  5  6  2  0
  5  7  1  0
  7 31  1  0
  8  9  1  0
  8 23  1  0
  8 32  1  1
  9 10  1  0
  9 33  1  0
  9 34  1  0
 10 11  1  0
 10 23  1  0
 10 35  1  1
 11 12  1  0
 11 36  1  0
 12 13  2  0
 12 14  1  0
 14 15  1  0
 14 22  1  0
 15 16  1  0
 15 37  1  0
 15 38  1  0
 16 17  1  0
 16 39  1  0
 16 40  1  0
 17 18  1  0
 18 19  1  0
 18 22  1  0
 18 41  1  6
 19 20  1  0
 19 42  1  0
 19 43  1  0
 20 21  1  0
 20 44  1  0
 20 45  1  0
 21 22  1  0
 21 46  1  0
 21 47  1  0
 22 48  1  1
 23 49  1  0
 23 50  1  0
M  END

