
     RDKit          3D

 52 52  0  0  0  0  0  0  0  0999 V2000
    4.6287   -2.2224    8.9539 C   0  0  0  0  0  0  0  0  0  0  0  0
    4.8552   -0.8499    8.3184 C   0  0  0  0  0  0  0  0  0  0  0  0
    5.9028   -0.8566    7.2007 C   0  0  0  0  0  0  0  0  0  0  0  0
    6.1360    0.5141    6.5588 C   0  0  0  0  0  0  0  0  0  0  0  0
    7.1848    0.5068    5.4430 C   0  0  0  0  0  0  0  0  0  0  0  0
    7.4193    1.8781    4.8025 C   0  0  0  0  0  0  0  0  0  0  0  0
    8.4760    1.8685    3.6951 C   0  0  0  0  0  0  0  0  0  0  0  0
    8.7265    3.2354    3.0428 C   0  0  0  0  0  0  0  0  0  0  0  0
    9.2420    4.2475    3.9516 N   0  0  0  0  0  0  0  0  0  0  0  0
   10.5840    4.4278    4.1555 C   0  0  0  0  0  0  0  0  0  0  0  0
   11.4350    3.7727    3.5714 O   0  0  0  0  0  0  0  0  0  0  0  0
   10.9211    5.4982    5.1443 C   0  0  0  0  0  0  0  0  0  0  0  0
   12.2103    5.7603    5.4122 C   0  0  0  0  0  0  0  0  0  0  0  0
   12.7394    6.9816    6.5478 S   0  0  0  0  0  0  0  0  0  0  0  0
   14.5490    6.7669    6.4132 C   0  0  0  0  0  0  0  0  0  0  0  0
   15.0372    5.9023    5.7311 O   0  0  0  0  0  0  0  0  0  0  0  0
   15.3341    7.7244    7.2568 C   0  0  0  0  0  0  0  0  0  0  0  0
   14.8082    8.9986    7.5399 C   0  0  0  0  0  0  0  0  0  0  0  0
   15.5137    9.9207    8.3069 C   0  0  0  0  0  0  0  0  0  0  0  0
   16.7600    9.5380    8.7956 C   0  0  0  0  0  0  0  0  0  0  0  0
   17.5322   10.4963    9.6228 N   0  0  0  0  0  0  0  0  0  0  0  0
   17.0288   11.5873    9.8309 O   0  0  0  0  0  0  0  0  0  0  0  0
   18.6180   10.1320   10.0410 O   0  0  0  0  0  0  0  0  0  0  0  0
   17.3073    8.2850    8.5323 C   0  0  0  0  0  0  0  0  0  0  0  0
   16.6146    7.3513    7.7492 C   0  0  0  0  0  0  0  0  0  0  0  0
   17.2540    6.0130    7.4772 C   0  0  0  0  0  0  0  0  0  0  0  0
    3.8705   -2.1799    9.7522 H   0  0  0  0  0  0  0  0  0  0  0  0
    5.5579   -2.6167    9.3986 H   0  0  0  0  0  0  0  0  0  0  0  0
    4.2845   -2.9581    8.2075 H   0  0  0  0  0  0  0  0  0  0  0  0
    5.1617   -0.1285    9.0979 H   0  0  0  0  0  0  0  0  0  0  0  0
    3.8991   -0.4669    7.9169 H   0  0  0  0  0  0  0  0  0  0  0  0
    5.5973   -1.5781    6.4197 H   0  0  0  0  0  0  0  0  0  0  0  0
    6.8602   -1.2394    7.6013 H   0  0  0  0  0  0  0  0  0  0  0  0
    6.4408    1.2353    7.3402 H   0  0  0  0  0  0  0  0  0  0  0  0
    5.1785    0.8961    6.1576 H   0  0  0  0  0  0  0  0  0  0  0  0
    6.8813   -0.2135    4.6606 H   0  0  0  0  0  0  0  0  0  0  0  0
    8.1424    0.1258    5.8434 H   0  0  0  0  0  0  0  0  0  0  0  0
    7.7211    2.5942    5.5890 H   0  0  0  0  0  0  0  0  0  0  0  0
    6.4630    2.2587    4.3951 H   0  0  0  0  0  0  0  0  0  0  0  0
    8.1716    1.1646    2.8996 H   0  0  0  0  0  0  0  0  0  0  0  0
    9.4349    1.4913    4.0901 H   0  0  0  0  0  0  0  0  0  0  0  0
    7.7937    3.6198    2.5956 H   0  0  0  0  0  0  0  0  0  0  0  0
    9.4651    3.1238    2.2360 H   0  0  0  0  0  0  0  0  0  0  0  0
    8.5882    4.8018    4.4897 H   0  0  0  0  0  0  0  0  0  0  0  0
   10.1103    6.0496    5.6322 H   0  0  0  0  0  0  0  0  0  0  0  0
   13.0068    5.1943    4.9160 H   0  0  0  0  0  0  0  0  0  0  0  0
   13.8350    9.2808    7.1347 H   0  0  0  0  0  0  0  0  0  0  0  0
   15.1231   10.9133    8.5269 H   0  0  0  0  0  0  0  0  0  0  0  0
   18.2870    8.0462    8.9459 H   0  0  0  0  0  0  0  0  0  0  0  0
   18.1603    5.8919    8.0868 H   0  0  0  0  0  0  0  0  0  0  0  0
   17.5252    5.9137    6.4156 H   0  0  0  0  0  0  0  0  0  0  0  0
   16.5700    5.1787    7.6926 H   0  0  0  0  0  0  0  0  0  0  0  0
  1  2  1  0
  1 27  1  0
  1 28  1  0
  1 29  1  0
  2  3  1  0
  2 30  1  0
  2 31  1  0
  3  4  1  0
  3 32  1  0
  3 33  1  0
  4  5  1  0
  4 34  1  0
  4 35  1  0
  5  6  1  0
  5 36  1  0
  5 37  1  0
  6  7  1  0
  6 38  1  0
  6 39  1  0
  7  8  1  0
  7 40  1  0
  7 41  1  0
  8  9  1  0
  8 42  1  0
  8 43  1  0
  9 10  1  0
  9 44  1  0
 10 11  2  0
 10 12  1  0
 12 13  2  0
 12 45  1  0
 13 14  1  0
 13 46  1  0
 14 15  2  0
 15 16  1  0
 15 17  1  0
 17 18  2  0
 17 25  1  0
 18 19  1  0
 18 47  1  0
 19 20  2  0
 19 48  1  0
 20 21  1  0
 20 24  1  0
 21 22  2  0
 21 23  1  0
 24 25  2  0
 24 49  1  0
 25 26  1  0
 26 50  1  0
 26 51  1  0
 26 52  1  0
M  CHG  4  14   1  16  -1  21   1  23  -1
M  END

