
     RDKit          3D

 68 72  0  0  0  0  0  0  0  0999 V2000
    1.6320   -0.1289    1.1457 O   0  0  0  0  0  0  0  0  0  0  0  0
    1.9879   -0.3267   -0.0104 C   0  0  0  0  0  0  0  0  0  0  0  0
    1.5117    0.3762   -1.0686 N   0  0  0  0  0  0  0  0  0  0  0  0
    0.5972    1.4944   -0.9337 C   0  0  0  0  0  0  0  0  0  0  0  0
   -0.8464    1.1735   -1.3948 C   0  0  1  0  0  0  0  0  0  0  0  0
   -0.7921    0.7175   -2.7478 O   0  0  0  0  0  0  0  0  0  0  0  0
   -1.5327    0.1108   -0.5128 C   0  0  0  0  0  0  0  0  0  0  0  0
   -1.8886    0.6097    0.8939 C   0  0  0  0  0  0  0  0  0  0  0  0
   -2.7273    1.8929    0.8353 C   0  0  0  0  0  0  0  0  0  0  0  0
   -2.0466    2.9747   -0.0136 C   0  0  0  0  0  0  0  0  0  0  0  0
   -1.6947    2.4552   -1.4145 C   0  0  0  0  0  0  0  0  0  0  0  0
    3.0084   -1.4423   -0.3559 C   0  0  1  0  0  0  0  0  0  0  0  0
    3.3352   -1.2369   -1.7437 O   0  0  0  0  0  0  0  0  0  0  0  0
    4.0479   -2.2085   -2.4675 C   0  0  0  0  0  0  0  0  0  0  0  0
    4.7606   -1.5910   -3.6522 C   0  0  0  0  0  0  0  0  0  0  0  0
    4.8754   -0.2132   -3.7876 C   0  0  0  0  0  0  0  0  0  0  0  0
    5.5648    0.3763   -4.9016 C   0  0  0  0  0  0  0  0  0  0  0  0
    5.7825    1.5366   -5.2187 O   0  0  0  0  0  0  0  0  0  0  0  0
    6.0499   -0.6677   -5.7340 N   0  0  0  0  0  0  0  0  0  0  0  0
    6.7501   -0.4864   -6.8788 N   0  0  0  0  0  0  0  0  0  0  0  0
    6.9511    0.4620   -7.1818 H   0  0  0  0  0  0  0  0  0  0  0  0
    7.0217   -1.7329   -7.3619 C   0  0  0  0  0  0  0  0  0  0  0  0
    7.7710   -1.9723   -8.6008 C   0  0  0  0  0  0  0  0  0  0  0  0
    8.2657   -0.9178   -9.3881 C   0  0  0  0  0  0  0  0  0  0  0  0
    8.9729   -1.1884  -10.5598 C   0  0  0  0  0  0  0  0  0  0  0  0
    9.1923   -2.5118  -10.9556 C   0  0  0  0  0  0  0  0  0  0  0  0
    8.7021   -3.5652  -10.1756 C   0  0  0  0  0  0  0  0  0  0  0  0
    7.9947   -3.3006   -9.0039 C   0  0  0  0  0  0  0  0  0  0  0  0
    6.5267   -2.6736   -6.5766 N   0  0  0  0  0  0  0  0  0  0  0  0
    5.9091   -2.0273   -5.5439 C   0  0  0  0  0  0  0  0  0  0  0  0
    5.2644   -2.5147   -4.5096 N   0  0  0  0  0  0  0  0  0  0  0  0
    4.2826   -1.2928    0.5081 C   0  0  0  0  0  0  0  0  0  0  0  0
    4.1060   -1.6928    1.9806 C   0  0  0  0  0  0  0  0  0  0  0  0
    3.4794   -3.0853    2.1187 C   0  0  0  0  0  0  0  0  0  0  0  0
    2.1550   -3.1790    1.3519 C   0  0  0  0  0  0  0  0  0  0  0  0
    2.3476   -2.8237   -0.1294 C   0  0  0  0  0  0  0  0  0  0  0  0
    1.9223    0.1582   -1.9700 H   0  0  0  0  0  0  0  0  0  0  0  0
    0.9685    2.3263   -1.5540 H   0  0  0  0  0  0  0  0  0  0  0  0
    0.6204    1.8106    0.1175 H   0  0  0  0  0  0  0  0  0  0  0  0
   -0.4155   -0.1731   -2.7381 H   0  0  0  0  0  0  0  0  0  0  0  0
   -0.8915   -0.7858   -0.4492 H   0  0  0  0  0  0  0  0  0  0  0  0
   -2.4504   -0.1931   -1.0463 H   0  0  0  0  0  0  0  0  0  0  0  0
   -0.9618    0.7811    1.4669 H   0  0  0  0  0  0  0  0  0  0  0  0
   -2.4374   -0.1794    1.4350 H   0  0  0  0  0  0  0  0  0  0  0  0
   -2.9208    2.2715    1.8531 H   0  0  0  0  0  0  0  0  0  0  0  0
   -3.7154    1.6611    0.3959 H   0  0  0  0  0  0  0  0  0  0  0  0
   -1.1346    3.3254    0.5018 H   0  0  0  0  0  0  0  0  0  0  0  0
   -2.7003    3.8583   -0.1039 H   0  0  0  0  0  0  0  0  0  0  0  0
   -1.1735    3.2265   -2.0061 H   0  0  0  0  0  0  0  0  0  0  0  0
   -2.6191    2.2140   -1.9662 H   0  0  0  0  0  0  0  0  0  0  0  0
    3.3873   -3.0056   -2.8556 H   0  0  0  0  0  0  0  0  0  0  0  0
    4.8153   -2.7111   -1.8496 H   0  0  0  0  0  0  0  0  0  0  0  0
    4.4424    0.4518   -3.0435 H   0  0  0  0  0  0  0  0  0  0  0  0
    8.1046    0.1231   -9.0963 H   0  0  0  0  0  0  0  0  0  0  0  0
    9.3538   -0.3632  -11.1659 H   0  0  0  0  0  0  0  0  0  0  0  0
    9.7464   -2.7218  -11.8738 H   0  0  0  0  0  0  0  0  0  0  0  0
    8.8725   -4.5995  -10.4835 H   0  0  0  0  0  0  0  0  0  0  0  0
    7.6038   -4.1074   -8.3818 H   0  0  0  0  0  0  0  0  0  0  0  0
    4.6520   -0.2582    0.4211 H   0  0  0  0  0  0  0  0  0  0  0  0
    5.0559   -1.9394    0.0574 H   0  0  0  0  0  0  0  0  0  0  0  0
    3.4635   -0.9532    2.4797 H   0  0  0  0  0  0  0  0  0  0  0  0
    5.0896   -1.6642    2.4794 H   0  0  0  0  0  0  0  0  0  0  0  0
    3.3188   -3.3236    3.1833 H   0  0  0  0  0  0  0  0  0  0  0  0
    4.1814   -3.8489    1.7319 H   0  0  0  0  0  0  0  0  0  0  0  0
    1.4203   -2.4954    1.8036 H   0  0  0  0  0  0  0  0  0  0  0  0
    1.7395   -4.1983    1.4236 H   0  0  0  0  0  0  0  0  0  0  0  0
    1.3907   -2.8611   -0.6773 H   0  0  0  0  0  0  0  0  0  0  0  0
    3.0011   -3.5873   -0.5842 H   0  0  0  0  0  0  0  0  0  0  0  0
  1  2  2  0
  2  3  1  0
  2 12  1  0
  3  4  1  0
  3 37  1  0
  4  5  1  0
  4 38  1  0
  4 39  1  0
  5  6  1  6
  5  7  1  0
  5 11  1  0
  6 40  1  0
  7  8  1  0
  7 41  1  0
  7 42  1  0
  8  9  1  0
  8 43  1  0
  8 44  1  0
  9 10  1  0
  9 45  1  0
  9 46  1  0
 10 11  1  0
 10 47  1  0
 10 48  1  0
 11 49  1  0
 11 50  1  0
 12 13  1  6
 12 32  1  0
 12 36  1  0
 13 14  1  0
 14 15  1  0
 14 51  1  0
 14 52  1  0
 15 16  2  0
 15 31  1  0
 16 17  1  0
 16 53  1  0
 17 18  2  0
 17 19  1  0
 19 20  1  0
 19 30  1  0
 20 21  1  0
 20 22  1  0
 22 23  1  0
 22 29  2  0
 23 24  2  0
 23 28  1  0
 24 25  1  0
 24 54  1  0
 25 26  2  0
 25 55  1  0
 26 27  1  0
 26 56  1  0
 27 28  2  0
 27 57  1  0
 28 58  1  0
 29 30  1  0
 30 31  2  0
 32 33  1  0
 32 59  1  0
 32 60  1  0
 33 34  1  0
 33 61  1  0
 33 62  1  0
 34 35  1  0
 34 63  1  0
 34 64  1  0
 35 36  1  0
 35 65  1  0
 35 66  1  0
 36 67  1  0
 36 68  1  0
M  END

