
     RDKit          3D

 52 55  0  0  0  0  0  0  0  0999 V2000
   10.8542    2.4528   -3.4371 F   0  0  0  0  0  0  0  0  0  0  0  0
    9.7252    1.8396   -3.0752 C   0  0  0  0  0  0  0  0  0  0  0  0
    9.2367    2.0113   -1.7827 C   0  0  0  0  0  0  0  0  0  0  0  0
    8.0555    1.3729   -1.3998 C   0  0  0  0  0  0  0  0  0  0  0  0
    7.3474    0.5522   -2.2940 C   0  0  0  0  0  0  0  0  0  0  0  0
    6.0766   -0.1772   -1.8643 C   0  0  0  0  0  0  0  0  0  0  0  0
    6.2364   -1.5471   -1.3772 N   0  0  0  0  0  0  0  0  0  0  0  0
    6.6395   -2.4886   -2.4163 C   0  0  0  0  0  0  0  0  0  0  0  0
    6.6436   -3.9402   -1.9315 C   0  0  0  0  0  0  0  0  0  0  0  0
    7.3592   -4.0490   -0.6784 N   0  0  0  0  0  0  0  0  0  0  0  0
    8.2216   -5.1873   -0.4094 C   0  0  0  0  0  0  0  0  0  0  0  0
    9.1969   -4.6803    0.6825 C   0  0  0  0  0  0  0  0  0  0  0  0
    8.5898   -3.3442    1.1548 C   0  0  0  0  0  0  0  0  0  0  0  0
    7.9179   -2.8279   -0.1207 C   0  0  2  0  0  0  0  0  0  0  0  0
    8.7300   -2.4109   -0.7651 H   0  0  0  0  0  0  0  0  0  0  0  0
    6.8502   -1.7137   -0.0347 C   0  0  2  0  0  0  0  0  0  0  0  0
    7.4203   -0.7987    0.2128 H   0  0  0  0  0  0  0  0  0  0  0  0
    5.7983   -1.8799    1.1042 C   0  0  1  0  0  0  0  0  0  0  0  0
    5.0216   -0.5649    1.4256 C   0  0  0  0  0  0  0  0  0  0  0  0
    3.6029   -0.5494    0.8439 C   0  0  0  0  0  0  0  0  0  0  0  0
    2.7397   -1.6705    1.4614 C   0  0  0  0  0  0  0  0  0  0  0  0
    3.5818   -2.9207    1.8047 C   0  0  0  0  0  0  0  0  0  0  0  0
    4.8079   -3.0458    0.8923 C   0  0  0  0  0  0  0  0  0  0  0  0
    7.8494    0.4090   -3.5981 C   0  0  0  0  0  0  0  0  0  0  0  0
    9.0308    1.0425   -3.9910 C   0  0  0  0  0  0  0  0  0  0  0  0
    9.6995    0.8456   -5.7576 Br  0  0  0  0  0  0  0  0  0  0  0  0
    9.7914    2.6544   -1.0962 H   0  0  0  0  0  0  0  0  0  0  0  0
    7.6712    1.5337   -0.3897 H   0  0  0  0  0  0  0  0  0  0  0  0
    5.3824   -0.2085   -2.7218 H   0  0  0  0  0  0  0  0  0  0  0  0
    5.5784    0.4168   -1.0862 H   0  0  0  0  0  0  0  0  0  0  0  0
    7.6426   -2.2577   -2.8345 H   0  0  0  0  0  0  0  0  0  0  0  0
    5.9298   -2.3983   -3.2574 H   0  0  0  0  0  0  0  0  0  0  0  0
    7.1211   -4.5591   -2.7191 H   0  0  0  0  0  0  0  0  0  0  0  0
    5.6029   -4.3081   -1.8313 H   0  0  0  0  0  0  0  0  0  0  0  0
    8.7780   -5.5149   -1.3151 H   0  0  0  0  0  0  0  0  0  0  0  0
    7.6350   -6.0639   -0.0730 H   0  0  0  0  0  0  0  0  0  0  0  0
   10.1927   -4.5062    0.2450 H   0  0  0  0  0  0  0  0  0  0  0  0
    9.3266   -5.4008    1.5038 H   0  0  0  0  0  0  0  0  0  0  0  0
    9.3420   -2.6475    1.5559 H   0  0  0  0  0  0  0  0  0  0  0  0
    7.8405   -3.5270    1.9393 H   0  0  0  0  0  0  0  0  0  0  0  0
    6.3885   -2.1029    2.0086 H   0  0  0  0  0  0  0  0  0  0  0  0
    5.5944    0.3155    1.0903 H   0  0  0  0  0  0  0  0  0  0  0  0
    4.9435   -0.4545    2.5215 H   0  0  0  0  0  0  0  0  0  0  0  0
    3.6598   -0.6853   -0.2481 H   0  0  0  0  0  0  0  0  0  0  0  0
    3.1283    0.4322    1.0095 H   0  0  0  0  0  0  0  0  0  0  0  0
    1.9330   -1.9379    0.7581 H   0  0  0  0  0  0  0  0  0  0  0  0
    2.2384   -1.3013    2.3724 H   0  0  0  0  0  0  0  0  0  0  0  0
    2.9599   -3.8285    1.7368 H   0  0  0  0  0  0  0  0  0  0  0  0
    3.9211   -2.8681    2.8550 H   0  0  0  0  0  0  0  0  0  0  0  0
    4.4767   -3.0417   -0.1589 H   0  0  0  0  0  0  0  0  0  0  0  0
    5.3202   -4.0061    1.0474 H   0  0  0  0  0  0  0  0  0  0  0  0
    7.3088   -0.1916   -4.3320 H   0  0  0  0  0  0  0  0  0  0  0  0
  1  2  1  0
  2  3  2  0
  2 25  1  0
  3  4  1  0
  3 27  1  0
  4  5  2  0
  4 28  1  0
  5  6  1  0
  5 24  1  0
  6  7  1  0
  6 29  1  0
  6 30  1  0
  7  8  1  0
  7 16  1  0
  8  9  1  0
  8 31  1  0
  8 32  1  0
  9 10  1  0
  9 33  1  0
  9 34  1  0
 10 11  1  0
 10 14  1  0
 11 12  1  0
 11 35  1  0
 11 36  1  0
 12 13  1  0
 12 37  1  0
 12 38  1  0
 13 14  1  0
 13 39  1  0
 13 40  1  0
 14 15  1  6
 14 16  1  0
 16 17  1  1
 16 18  1  0
 18 19  1  0
 18 23  1  0
 18 41  1  1
 19 20  1  0
 19 42  1  0
 19 43  1  0
 20 21  1  0
 20 44  1  0
 20 45  1  0
 21 22  1  0
 21 46  1  0
 21 47  1  0
 22 23  1  0
 22 48  1  0
 22 49  1  0
 23 50  1  0
 23 51  1  0
 24 25  2  0
 24 52  1  0
 25 26  1  0
M  END

