
     RDKit          3D

 45 46  0  0  0  0  0  0  0  0999 V2000
    3.1886   -0.8096    1.7032 C   0  0  0  0  0  0  0  0  0  0  0  0
    2.4651   -0.6078    0.5105 O   0  0  0  0  0  0  0  0  0  0  0  0
    2.9665   -1.0773   -0.6591 C   0  0  0  0  0  0  0  0  0  0  0  0
    2.1938   -0.8393   -1.8086 C   0  0  0  0  0  0  0  0  0  0  0  0
    2.6320   -1.2801   -3.0527 C   0  0  0  0  0  0  0  0  0  0  0  0
    3.8442   -1.9783   -3.2048 C   0  0  0  0  0  0  0  0  0  0  0  0
    4.2815   -2.4553   -4.5809 C   0  0  1  0  0  0  0  0  0  0  0  0
    5.6669   -2.0554   -4.8459 N   0  0  0  0  0  0  0  0  0  0  0  0
    6.1274   -1.8217   -6.1077 C   0  0  0  0  0  0  0  0  0  0  0  0
    5.4323   -1.9703   -7.1023 O   0  0  0  0  0  0  0  0  0  0  0  0
    7.5934   -1.3962   -6.2022 C   0  0  0  0  0  0  0  0  0  0  0  0
    7.8409   -0.4743   -7.4069 C   0  0  0  0  0  0  0  0  0  0  0  0
    9.2891   -0.1879   -7.6789 C   0  0  0  0  0  0  0  0  0  0  0  0
   10.0717   -0.6495   -8.7089 C   0  0  0  0  0  0  0  0  0  0  0  0
   11.4289   -0.2019   -8.6588 C   0  0  0  0  0  0  0  0  0  0  0  0
   11.6625    0.6027   -7.5752 C   0  0  0  0  0  0  0  0  0  0  0  0
   13.1506    1.3617   -7.1352 Cl  0  0  0  0  0  0  0  0  0  0  0  0
   10.2314    0.8278   -6.6065 S   0  0  0  0  0  0  0  0  0  0  0  0
    4.0613   -3.9750   -4.8647 C   0  0  1  0  0  0  0  0  0  0  0  0
    4.8944   -4.9068   -3.9796 C   0  0  0  0  0  0  0  0  0  0  0  0
    2.5738   -4.3388   -4.8185 C   0  0  0  0  0  0  0  0  0  0  0  0
    4.6014   -2.2083   -2.0475 C   0  0  0  0  0  0  0  0  0  0  0  0
    4.1822   -1.7651   -0.7871 C   0  0  0  0  0  0  0  0  0  0  0  0
    2.5990   -0.3520    2.5090 H   0  0  0  0  0  0  0  0  0  0  0  0
    4.1820   -0.3262    1.6695 H   0  0  0  0  0  0  0  0  0  0  0  0
    3.3245   -1.8834    1.9264 H   0  0  0  0  0  0  0  0  0  0  0  0
    1.2529   -0.2964   -1.6981 H   0  0  0  0  0  0  0  0  0  0  0  0
    2.0193   -1.0738   -3.9344 H   0  0  0  0  0  0  0  0  0  0  0  0
    3.6694   -1.9299   -5.3309 H   0  0  0  0  0  0  0  0  0  0  0  0
    6.2619   -1.8239   -4.0607 H   0  0  0  0  0  0  0  0  0  0  0  0
    8.1945   -2.3153   -6.3190 H   0  0  0  0  0  0  0  0  0  0  0  0
    7.9295   -0.9230   -5.2644 H   0  0  0  0  0  0  0  0  0  0  0  0
    7.2823    0.4667   -7.2629 H   0  0  0  0  0  0  0  0  0  0  0  0
    7.4031   -0.9526   -8.2955 H   0  0  0  0  0  0  0  0  0  0  0  0
    9.6803   -1.2977   -9.4955 H   0  0  0  0  0  0  0  0  0  0  0  0
   12.1973   -0.4575   -9.3884 H   0  0  0  0  0  0  0  0  0  0  0  0
    4.4025   -4.1015   -5.9061 H   0  0  0  0  0  0  0  0  0  0  0  0
    4.5493   -4.8981   -2.9330 H   0  0  0  0  0  0  0  0  0  0  0  0
    5.9616   -4.6325   -3.9940 H   0  0  0  0  0  0  0  0  0  0  0  0
    4.8184   -5.9452   -4.3404 H   0  0  0  0  0  0  0  0  0  0  0  0
    2.1609   -4.2354   -3.8015 H   0  0  0  0  0  0  0  0  0  0  0  0
    2.4202   -5.3827   -5.1356 H   0  0  0  0  0  0  0  0  0  0  0  0
    1.9791   -3.6984   -5.4905 H   0  0  0  0  0  0  0  0  0  0  0  0
    5.5490   -2.7503   -2.1075 H   0  0  0  0  0  0  0  0  0  0  0  0
    4.8089   -1.9662    0.0820 H   0  0  0  0  0  0  0  0  0  0  0  0
  1  2  1  0
  1 24  1  0
  1 25  1  0
  1 26  1  0
  2  3  1  0
  3  4  2  0
  3 23  1  0
  4  5  1  0
  4 27  1  0
  5  6  2  0
  5 28  1  0
  6  7  1  0
  6 22  1  0
  7  8  1  0
  7 19  1  0
  7 29  1  6
  8  9  1  0
  8 30  1  0
  9 10  2  0
  9 11  1  0
 11 12  1  0
 11 31  1  0
 11 32  1  0
 12 13  1  0
 12 33  1  0
 12 34  1  0
 13 14  2  0
 13 18  1  0
 14 15  1  0
 14 35  1  0
 15 16  2  0
 15 36  1  0
 16 17  1  0
 16 18  1  0
 19 20  1  0
 19 21  1  0
 19 37  1  6
 20 38  1  0
 20 39  1  0
 20 40  1  0
 21 41  1  0
 21 42  1  0
 21 43  1  0
 22 23  2  0
 22 44  1  0
 23 45  1  0
M  END

