
     RDKit          3D

 73 78  0  0  0  0  0  0  0  0999 V2000
   -1.2553    4.2208   14.8566 C   0  0  0  0  0  0  0  0  0  0  0  0
   -1.7426    4.0291   13.4195 C   0  0  2  0  0  0  0  0  0  0  0  0
   -1.3724    2.6479   12.8553 C   0  0  0  0  0  0  0  0  0  0  0  0
   -1.8004    2.4957   11.3907 C   0  0  0  0  0  0  0  0  0  0  0  0
   -1.2701    3.6442   10.5175 C   0  0  1  0  0  0  0  0  0  0  0  0
   -1.5908    4.9612   11.0803 N   0  0  0  0  0  0  0  0  0  0  0  0
   -1.1964    5.1197   12.4799 C   0  0  0  0  0  0  0  0  0  0  0  0
    0.1417    3.5024   10.4594 O   0  0  0  0  0  0  0  0  0  0  0  0
    0.6310    4.2475    9.3503 C   0  0  1  0  0  0  0  0  0  0  0  0
    1.8585    3.5685    8.7154 C   0  0  0  0  0  0  0  0  0  0  0  0
    1.6045    3.6721    7.2037 C   0  0  1  0  0  0  0  0  0  0  0  0
    2.3652    2.7190    6.2715 C   0  0  2  0  0  0  0  0  0  0  0  0
    3.9340    2.6624    6.4620 C   0  0  0  0  0  0  0  0  0  0  0  0
    4.2549    1.8002    5.2512 C   0  0  0  0  0  0  0  0  0  0  0  0
    4.1322    2.5006    4.0407 C   0  0  0  0  0  0  0  0  0  0  0  0
    5.2299    2.7639    3.1111 C   0  0  0  0  0  0  0  0  0  0  0  0
    5.2099    1.3129    2.3875 C   0  0  1  0  0  0  0  0  0  0  0  0
    5.7825    0.3645    3.2301 O   0  0  0  0  0  0  0  0  0  0  0  0
    3.7902    0.9072    1.8803 C   0  0  0  0  0  0  0  0  0  0  0  0
    2.5938    1.1042    2.8634 C   0  0  0  0  0  0  0  0  0  0  0  0
    2.7235    2.5152    3.5162 C   0  0  2  0  0  0  0  0  0  0  0  0
    2.4773    3.5837    2.4243 C   0  0  0  0  0  0  0  0  0  0  0  0
    1.8654    3.0073    4.7947 C   0  0  1  0  0  0  0  0  0  0  0  0
    0.3583    2.7038    4.7090 C   0  0  0  0  0  0  0  0  0  0  0  0
   -0.4546    3.5711    5.6898 C   0  0  0  0  0  0  0  0  0  0  0  0
    0.0829    3.4261    7.1139 C   0  0  2  0  0  0  0  0  0  0  0  0
   -0.5188    4.2736    8.2748 C   0  0  2  0  0  0  0  0  0  0  0  0
   -0.8324    5.7166    7.8564 C   0  0  0  0  0  0  0  0  0  0  0  0
   -1.6977    3.5696    9.0255 C   0  0  2  0  0  0  0  0  0  0  0  0
   -3.1167    4.0377    8.7027 C   0  0  0  0  0  0  0  0  0  0  0  0
   -1.6668    3.4486   15.5268 H   0  0  0  0  0  0  0  0  0  0  0  0
   -1.5516    5.2046   15.2569 H   0  0  0  0  0  0  0  0  0  0  0  0
   -0.1551    4.1559   14.9120 H   0  0  0  0  0  0  0  0  0  0  0  0
   -2.8484    4.1123   13.4142 H   0  0  0  0  0  0  0  0  0  0  0  0
   -1.8274    1.8509   13.4687 H   0  0  0  0  0  0  0  0  0  0  0  0
   -0.2787    2.5152   12.9212 H   0  0  0  0  0  0  0  0  0  0  0  0
   -2.9031    2.4931   11.3222 H   0  0  0  0  0  0  0  0  0  0  0  0
   -1.4457    1.5365   10.9809 H   0  0  0  0  0  0  0  0  0  0  0  0
   -2.5870    5.1455   10.9754 H   0  0  0  0  0  0  0  0  0  0  0  0
   -1.5174    6.1192   12.8186 H   0  0  0  0  0  0  0  0  0  0  0  0
   -0.0937    5.1087   12.5243 H   0  0  0  0  0  0  0  0  0  0  0  0
    0.8658    5.2757    9.6765 H   0  0  0  0  0  0  0  0  0  0  0  0
    1.8640    2.5113    9.0281 H   0  0  0  0  0  0  0  0  0  0  0  0
    2.8103    4.0178    9.0356 H   0  0  0  0  0  0  0  0  0  0  0  0
    1.8157    4.7110    6.8837 H   0  0  0  0  0  0  0  0  0  0  0  0
    2.0285    1.6998    6.5361 H   0  0  0  0  0  0  0  0  0  0  0  0
    4.1714    2.2163    7.4418 H   0  0  0  0  0  0  0  0  0  0  0  0
    4.3872    3.6672    6.4160 H   0  0  0  0  0  0  0  0  0  0  0  0
    3.4584    1.0336    5.2870 H   0  0  0  0  0  0  0  0  0  0  0  0
    6.2199    2.8636    3.5801 H   0  0  0  0  0  0  0  0  0  0  0  0
    5.0617    3.5530    2.3662 H   0  0  0  0  0  0  0  0  0  0  0  0
    5.8724    1.4052    1.5092 H   0  0  0  0  0  0  0  0  0  0  0  0
    5.4865    0.5793    4.1493 H   0  0  0  0  0  0  0  0  0  0  0  0
    3.8576   -0.1556    1.5990 H   0  0  0  0  0  0  0  0  0  0  0  0
    3.5925    1.4554    0.9442 H   0  0  0  0  0  0  0  0  0  0  0  0
    2.6147    0.3203    3.6351 H   0  0  0  0  0  0  0  0  0  0  0  0
    1.6400    0.9869    2.3208 H   0  0  0  0  0  0  0  0  0  0  0  0
    1.3970    3.6726    2.2306 H   0  0  0  0  0  0  0  0  0  0  0  0
    2.9547    3.3495    1.4644 H   0  0  0  0  0  0  0  0  0  0  0  0
    2.8378    4.5737    2.7448 H   0  0  0  0  0  0  0  0  0  0  0  0
    1.9599    4.1055    4.7045 H   0  0  0  0  0  0  0  0  0  0  0  0
    0.1885    1.6337    4.9266 H   0  0  0  0  0  0  0  0  0  0  0  0
   -0.0104    2.8721    3.6839 H   0  0  0  0  0  0  0  0  0  0  0  0
   -1.5216    3.2918    5.6437 H   0  0  0  0  0  0  0  0  0  0  0  0
   -0.3915    4.6238    5.3647 H   0  0  0  0  0  0  0  0  0  0  0  0
   -0.0561    2.3656    7.3979 H   0  0  0  0  0  0  0  0  0  0  0  0
    0.0527    6.2008    7.4126 H   0  0  0  0  0  0  0  0  0  0  0  0
   -1.1289    6.3053    8.7365 H   0  0  0  0  0  0  0  0  0  0  0  0
   -1.6423    5.7715    7.1129 H   0  0  0  0  0  0  0  0  0  0  0  0
   -1.6450    2.4972    8.7752 H   0  0  0  0  0  0  0  0  0  0  0  0
   -3.2756    5.1045    8.9200 H   0  0  0  0  0  0  0  0  0  0  0  0
   -3.8618    3.4599    9.2743 H   0  0  0  0  0  0  0  0  0  0  0  0
   -3.3467    3.8885    7.6359 H   0  0  0  0  0  0  0  0  0  0  0  0
  1  2  1  0
  1 31  1  0
  1 32  1  0
  1 33  1  0
  2  3  1  0
  2  7  1  0
  2 34  1  1
  3  4  1  0
  3 35  1  0
  3 36  1  0
  4  5  1  0
  4 37  1  0
  4 38  1  0
  5  6  1  0
  5  8  1  6
  5 29  1  0
  6  7  1  0
  6 39  1  0
  7 40  1  0
  7 41  1  0
  8  9  1  0
  9 10  1  0
  9 27  1  0
  9 42  1  1
 10 11  1  0
 10 43  1  0
 10 44  1  0
 11 12  1  0
 11 26  1  0
 11 45  1  6
 12 13  1  0
 12 23  1  0
 12 46  1  1
 13 14  1  0
 13 47  1  0
 13 48  1  0
 14 15  2  0
 14 49  1  0
 15 16  1  0
 15 21  1  0
 16 17  1  0
 16 50  1  0
 16 51  1  0
 17 18  1  0
 17 19  1  0
 17 52  1  6
 18 53  1  0
 19 20  1  0
 19 54  1  0
 19 55  1  0
 20 21  1  0
 20 56  1  0
 20 57  1  0
 21 22  1  6
 21 23  1  0
 22 58  1  0
 22 59  1  0
 22 60  1  0
 23 24  1  0
 23 61  1  1
 24 25  1  0
 24 62  1  0
 24 63  1  0
 25 26  1  0
 25 64  1  0
 25 65  1  0
 26 27  1  0
 26 66  1  1
 27 28  1  6
 27 29  1  0
 28 67  1  0
 28 68  1  0
 28 69  1  0
 29 30  1  0
 29 70  1  6
 30 71  1  0
 30 72  1  0
 30 73  1  0
M  END

