
     RDKit          3D

 58 59  0  0  0  0  0  0  0  0999 V2000
    1.2016    2.1813    0.5121 C   0  0  0  0  0  0  0  0  0  0  0  0
    2.6916    1.9574    0.6817 C   0  0  0  0  0  0  0  0  0  0  0  0
    3.3511    2.5024   -0.4530 O   0  0  0  0  0  0  0  0  0  0  0  0
    4.6956    2.4380   -0.5610 C   0  0  0  0  0  0  0  0  0  0  0  0
    5.2486    3.0090   -1.7260 C   0  0  0  0  0  0  0  0  0  0  0  0
    6.6186    2.9832   -1.9112 C   0  0  0  0  0  0  0  0  0  0  0  0
    7.4824    2.4005   -0.9623 C   0  0  0  0  0  0  0  0  0  0  0  0
    8.8816    2.3541   -1.0933 N   0  0  0  0  0  0  0  0  0  0  0  0
    9.3504    2.8038   -2.1604 N   0  0  0  0  0  0  0  0  0  0  0  0
   10.8140    2.7090   -2.2164 C   0  0  1  0  0  0  0  0  0  0  0  0
   11.3010    1.7231   -3.3099 C   0  0  0  0  0  0  0  0  0  0  0  0
   10.4514    1.5610   -4.5422 C   0  0  0  0  0  0  0  0  0  0  0  0
   12.3363    1.1267   -3.1265 O   0  0  0  0  0  0  0  0  0  0  0  0
   11.3497    4.1047   -2.5782 C   0  0  0  0  0  0  0  0  0  0  0  0
   11.5463    4.4554   -3.7265 O   0  0  0  0  0  0  0  0  0  0  0  0
   11.5742    4.9948   -1.5444 N   0  0  0  0  0  0  0  0  0  0  0  0
   11.3549    4.5669    0.1355 Cl  0  0  0  0  0  0  0  0  0  0  0  0
   12.0546    6.3266   -1.7666 C   0  0  0  0  0  0  0  0  0  0  0  0
   11.1442    7.3584   -1.9387 C   0  0  0  0  0  0  0  0  0  0  0  0
   11.6266    8.6655   -2.1477 C   0  0  0  0  0  0  0  0  0  0  0  0
   10.6828    9.6232   -2.3166 O   0  0  0  0  0  0  0  0  0  0  0  0
   11.0861   10.9545   -2.5459 C   0  0  0  0  0  0  0  0  0  0  0  0
   13.0018    8.9057   -2.1677 C   0  0  0  0  0  0  0  0  0  0  0  0
   13.9106    7.8438   -1.9859 C   0  0  0  0  0  0  0  0  0  0  0  0
   15.2206    8.1889   -2.0290 O   0  0  0  0  0  0  0  0  0  0  0  0
   16.2006    7.1847   -1.8807 C   0  0  0  0  0  0  0  0  0  0  0  0
   13.4421    6.5431   -1.7802 C   0  0  0  0  0  0  0  0  0  0  0  0
    6.9234    1.8294    0.2124 C   0  0  0  0  0  0  0  0  0  0  0  0
    7.7771    1.2828    1.0961 O   0  0  0  0  0  0  0  0  0  0  0  0
    7.2986    0.6897    2.2941 C   0  0  0  0  0  0  0  0  0  0  0  0
    8.4958    0.1748    3.0693 C   0  0  0  0  0  0  0  0  0  0  0  0
    5.5295    1.8514    0.4029 C   0  0  0  0  0  0  0  0  0  0  0  0
    0.6548    1.7706    1.3747 H   0  0  0  0  0  0  0  0  0  0  0  0
    0.8352    1.6870   -0.4003 H   0  0  0  0  0  0  0  0  0  0  0  0
    0.9760    3.2556    0.4357 H   0  0  0  0  0  0  0  0  0  0  0  0
    2.9200    0.8785    0.7659 H   0  0  0  0  0  0  0  0  0  0  0  0
    3.0598    2.4485    1.6017 H   0  0  0  0  0  0  0  0  0  0  0  0
    4.5752    3.4624   -2.4551 H   0  0  0  0  0  0  0  0  0  0  0  0
    7.0734    3.4222   -2.8003 H   0  0  0  0  0  0  0  0  0  0  0  0
   11.2138    2.3512   -1.2564 H   0  0  0  0  0  0  0  0  0  0  0  0
   10.4065    2.5297   -5.0637 H   0  0  0  0  0  0  0  0  0  0  0  0
    9.4207    1.2926   -4.2622 H   0  0  0  0  0  0  0  0  0  0  0  0
   10.8880    0.7921   -5.1923 H   0  0  0  0  0  0  0  0  0  0  0  0
   10.0691    7.1762   -1.9275 H   0  0  0  0  0  0  0  0  0  0  0  0
   10.1672   11.5447   -2.6595 H   0  0  0  0  0  0  0  0  0  0  0  0
   11.6878   11.0484   -3.4677 H   0  0  0  0  0  0  0  0  0  0  0  0
   11.6689   11.3596   -1.6991 H   0  0  0  0  0  0  0  0  0  0  0  0
   13.4183    9.8994   -2.3255 H   0  0  0  0  0  0  0  0  0  0  0  0
   17.1753    7.6837   -1.9625 H   0  0  0  0  0  0  0  0  0  0  0  0
   16.1237    6.4169   -2.6709 H   0  0  0  0  0  0  0  0  0  0  0  0
   16.1349    6.6889   -0.8956 H   0  0  0  0  0  0  0  0  0  0  0  0
   14.1096    5.6951   -1.6357 H   0  0  0  0  0  0  0  0  0  0  0  0
    6.6021   -0.1356    2.0542 H   0  0  0  0  0  0  0  0  0  0  0  0
    6.7383    1.4365    2.8875 H   0  0  0  0  0  0  0  0  0  0  0  0
    9.0496   -0.5696    2.4778 H   0  0  0  0  0  0  0  0  0  0  0  0
    8.1665   -0.2971    4.0076 H   0  0  0  0  0  0  0  0  0  0  0  0
    9.1834    0.9984    3.3136 H   0  0  0  0  0  0  0  0  0  0  0  0
    5.1014    1.4126    1.2997 H   0  0  0  0  0  0  0  0  0  0  0  0
  1  2  1  0
  1 33  1  0
  1 34  1  0
  1 35  1  0
  2  3  1  0
  2 36  1  0
  2 37  1  0
  3  4  1  0
  4  5  2  0
  4 32  1  0
  5  6  1  0
  5 38  1  0
  6  7  2  0
  6 39  1  0
  7  8  1  0
  7 28  1  0
  8  9  2  0
  9 10  1  0
 10 11  1  0
 10 14  1  0
 10 40  1  1
 11 12  1  0
 11 13  2  0
 12 41  1  0
 12 42  1  0
 12 43  1  0
 14 15  2  0
 14 16  1  0
 16 17  1  0
 16 18  1  0
 18 19  2  0
 18 27  1  0
 19 20  1  0
 19 44  1  0
 20 21  1  0
 20 23  2  0
 21 22  1  0
 22 45  1  0
 22 46  1  0
 22 47  1  0
 23 24  1  0
 23 48  1  0
 24 25  1  0
 24 27  2  0
 25 26  1  0
 26 49  1  0
 26 50  1  0
 26 51  1  0
 27 52  1  0
 28 29  1  0
 28 32  2  0
 29 30  1  0
 30 31  1  0
 30 53  1  0
 30 54  1  0
 31 55  1  0
 31 56  1  0
 31 57  1  0
 32 58  1  0
M  END

