
     RDKit          3D

 50 53  0  0  0  0  0  0  0  0999 V2000
    0.1978   -0.9859    3.3587 C   0  0  0  0  0  0  0  0  0  0  0  0
    1.5018   -1.2886    2.9107 O   0  0  0  0  0  0  0  0  0  0  0  0
    2.3261   -2.0385    3.7044 C   0  0  0  0  0  0  0  0  0  0  0  0
    1.9349   -2.6061    4.9227 C   0  0  0  0  0  0  0  0  0  0  0  0
    2.8512   -3.3740    5.6534 C   0  0  0  0  0  0  0  0  0  0  0  0
    4.1444   -3.5779    5.1760 C   0  0  0  0  0  0  0  0  0  0  0  0
    4.5255   -3.0027    3.9570 C   0  0  0  0  0  0  0  0  0  0  0  0
    3.6371   -2.2254    3.2113 C   0  0  0  0  0  0  0  0  0  0  0  0
    4.0429   -1.5842    1.8994 C   0  0  0  0  0  0  0  0  0  0  0  0
    3.3484   -2.1299    0.7411 N   0  0  0  0  0  0  0  0  0  0  0  0
    3.9126   -3.0972   -0.0436 C   0  0  0  0  0  0  0  0  0  0  0  0
    5.0535   -3.5046    0.1212 O   0  0  0  0  0  0  0  0  0  0  0  0
    3.0439   -3.6377   -1.1523 C   0  0  0  0  0  0  0  0  0  0  0  0
    3.3836   -4.8876   -1.6926 C   0  0  0  0  0  0  0  0  0  0  0  0
    2.6296   -5.4339   -2.7276 C   0  0  0  0  0  0  0  0  0  0  0  0
    1.5246   -4.7440   -3.2449 C   0  0  0  0  0  0  0  0  0  0  0  0
    1.1831   -3.4830   -2.7214 C   0  0  0  0  0  0  0  0  0  0  0  0
    1.9559   -2.9363   -1.6866 C   0  0  0  0  0  0  0  0  0  0  0  0
    0.0744   -2.7864   -3.2119 N   0  0  0  0  0  0  0  0  0  0  0  0
   -0.6276   -2.9402   -4.3936 C   0  0  0  0  0  0  0  0  0  0  0  0
   -1.5548   -2.1814   -4.6310 O   0  0  0  0  0  0  0  0  0  0  0  0
   -0.1583   -4.0286   -5.3038 C   0  0  0  0  0  0  0  0  0  0  0  0
   -0.2412   -4.0967   -6.6613 C   0  0  0  0  0  0  0  0  0  0  0  0
   -0.8208   -3.2628   -7.7164 C   0  0  0  0  0  0  0  0  0  0  0  0
   -1.7514   -2.2099   -7.5619 C   0  0  0  0  0  0  0  0  0  0  0  0
   -2.2347   -1.5037   -8.6626 C   0  0  0  0  0  0  0  0  0  0  0  0
   -1.8108   -1.8236   -9.9569 C   0  0  0  0  0  0  0  0  0  0  0  0
   -0.8994   -2.8639  -10.1501 C   0  0  0  0  0  0  0  0  0  0  0  0
   -0.4281   -3.5588   -9.0434 C   0  0  0  0  0  0  0  0  0  0  0  0
    0.4474   -4.5571   -9.2586 F   0  0  0  0  0  0  0  0  0  0  0  0
    0.5089   -5.4808   -4.4929 S   0  0  0  0  0  0  0  0  0  0  0  0
   -0.2596   -0.3492    2.5892 H   0  0  0  0  0  0  0  0  0  0  0  0
    0.2130   -0.4349    4.3154 H   0  0  0  0  0  0  0  0  0  0  0  0
   -0.4161   -1.8960    3.4819 H   0  0  0  0  0  0  0  0  0  0  0  0
    0.9261   -2.4623    5.3102 H   0  0  0  0  0  0  0  0  0  0  0  0
    2.5383   -3.8159    6.6030 H   0  0  0  0  0  0  0  0  0  0  0  0
    4.8554   -4.1822    5.7439 H   0  0  0  0  0  0  0  0  0  0  0  0
    5.5353   -3.1613    3.5692 H   0  0  0  0  0  0  0  0  0  0  0  0
    5.1154   -1.7371    1.7279 H   0  0  0  0  0  0  0  0  0  0  0  0
    3.8467   -0.5002    1.9409 H   0  0  0  0  0  0  0  0  0  0  0  0
    2.3449   -1.9950    0.7187 H   0  0  0  0  0  0  0  0  0  0  0  0
    4.2533   -5.4085   -1.2897 H   0  0  0  0  0  0  0  0  0  0  0  0
    2.8965   -6.4057   -3.1498 H   0  0  0  0  0  0  0  0  0  0  0  0
    1.7057   -1.9364   -1.3221 H   0  0  0  0  0  0  0  0  0  0  0  0
   -0.2507   -1.9862   -2.6766 H   0  0  0  0  0  0  0  0  0  0  0  0
    0.2694   -4.9712   -7.0744 H   0  0  0  0  0  0  0  0  0  0  0  0
   -2.0876   -1.9673   -6.5560 H   0  0  0  0  0  0  0  0  0  0  0  0
   -2.9552   -0.6975   -8.5069 H   0  0  0  0  0  0  0  0  0  0  0  0
   -2.1906   -1.2692  -10.8186 H   0  0  0  0  0  0  0  0  0  0  0  0
   -0.5442   -3.1493  -11.1420 H   0  0  0  0  0  0  0  0  0  0  0  0
  1  2  1  0
  1 32  1  0
  1 33  1  0
  1 34  1  0
  2  3  1  0
  3  4  2  0
  3  8  1  0
  4  5  1  0
  4 35  1  0
  5  6  2  0
  5 36  1  0
  6  7  1  0
  6 37  1  0
  7  8  2  0
  7 38  1  0
  8  9  1  0
  9 10  1  0
  9 39  1  0
  9 40  1  0
 10 11  1  0
 10 41  1  0
 11 12  2  0
 11 13  1  0
 13 14  2  0
 13 18  1  0
 14 15  1  0
 14 42  1  0
 15 16  2  0
 15 43  1  0
 16 17  1  0
 16 31  1  0
 17 18  2  0
 17 19  1  0
 18 44  1  0
 19 20  1  0
 19 45  1  0
 20 21  2  0
 20 22  1  0
 22 23  2  0
 22 31  1  0
 23 24  1  0
 23 46  1  0
 24 25  2  0
 24 29  1  0
 25 26  1  0
 25 47  1  0
 26 27  2  0
 26 48  1  0
 27 28  1  0
 27 49  1  0
 28 29  2  0
 28 50  1  0
 29 30  1  0
M  END

