
     RDKit          3D

 63 62  0  0  0  0  0  0  0  0999 V2000
    1.2043    3.5348    6.3494 C   0  0  0  0  0  0  0  0  0  0  0  0
    2.0987    2.5098    5.6509 C   0  0  0  0  0  0  0  0  0  0  0  0
    3.2752    2.0443    6.5128 C   0  0  0  0  0  0  0  0  0  0  0  0
    4.2222    1.0690    5.7659 C   0  0  1  0  0  0  0  0  0  0  0  0
    4.8403    1.6776    4.6106 N   0  0  0  0  0  0  0  0  0  0  0  0
    4.6098    1.2390    3.3422 C   0  0  0  0  0  0  0  0  0  0  0  0
    3.8834    0.2948    3.0710 O   0  0  0  0  0  0  0  0  0  0  0  0
    5.3482    2.0101    2.2215 C   0  0  2  0  0  0  0  0  0  0  0  0
    4.8925    1.6169    1.3043 H   0  0  0  0  0  0  0  0  0  0  0  0
    6.8639    1.7260    2.1848 C   0  0  0  0  0  0  0  0  0  0  0  0
    7.2592    0.2369    2.1683 C   0  0  1  0  0  0  0  0  0  0  0  0
    6.6185   -0.5459    1.0141 C   0  0  0  0  0  0  0  0  0  0  0  0
    8.7886    0.1125    2.1433 C   0  0  0  0  0  0  0  0  0  0  0  0
    5.0475    3.4505    2.2068 N   0  0  0  0  0  0  0  0  0  0  0  0
    5.4546    4.3742    3.1112 C   0  0  0  0  0  0  0  0  0  0  0  0
    6.1747    4.1227    4.0780 O   0  0  0  0  0  0  0  0  0  0  0  0
    4.8513    5.7808    2.8587 C   0  0  1  0  0  0  0  0  0  0  0  0
    3.4785    5.7845    3.3706 N   0  0  0  0  0  0  0  0  0  0  0  0
    2.4435    5.3163    2.5983 C   0  0  0  0  0  0  0  0  0  0  0  0
    2.5753    4.9341    1.4559 O   0  0  0  0  0  0  0  0  0  0  0  0
    1.2292    5.3087    3.1913 O   0  0  0  0  0  0  0  0  0  0  0  0
    5.6843    6.9875    3.3835 C   0  0  1  0  0  0  0  0  0  0  0  0
    7.1193    6.8719    2.8334 C   0  0  0  0  0  0  0  0  0  0  0  0
    5.0437    8.2802    2.8396 C   0  0  0  0  0  0  0  0  0  0  0  0
    5.7239    7.0477    4.9240 C   0  0  0  0  0  0  0  0  0  0  0  0
    5.2888    0.5406    6.7145 C   0  0  0  0  0  0  0  0  0  0  0  0
    6.4513    0.8783    6.6691 O   0  0  0  0  0  0  0  0  0  0  0  0
    4.8201   -0.4825    7.7822 C   0  0  0  0  0  0  0  0  0  0  0  0
    5.8318   -0.8849    8.5811 N   0  0  0  0  0  0  0  0  0  0  0  0
    3.6616   -0.8535    7.8518 O   0  0  0  0  0  0  0  0  0  0  0  0
    0.3685    3.8387    5.6987 H   0  0  0  0  0  0  0  0  0  0  0  0
    1.7703    4.4421    6.6294 H   0  0  0  0  0  0  0  0  0  0  0  0
    0.7699    3.1318    7.2791 H   0  0  0  0  0  0  0  0  0  0  0  0
    2.4820    2.9411    4.7116 H   0  0  0  0  0  0  0  0  0  0  0  0
    1.4986    1.6333    5.3539 H   0  0  0  0  0  0  0  0  0  0  0  0
    2.8967    1.5393    7.4149 H   0  0  0  0  0  0  0  0  0  0  0  0
    3.8649    2.9173    6.8494 H   0  0  0  0  0  0  0  0  0  0  0  0
    3.6289    0.2111    5.4134 H   0  0  0  0  0  0  0  0  0  0  0  0
    5.5143    2.4349    4.7464 H   0  0  0  0  0  0  0  0  0  0  0  0
    7.3418    2.2168    3.0453 H   0  0  0  0  0  0  0  0  0  0  0  0
    7.2639    2.2197    1.2804 H   0  0  0  0  0  0  0  0  0  0  0  0
    6.9086   -0.2131    3.1153 H   0  0  0  0  0  0  0  0  0  0  0  0
    6.8641   -0.0888    0.0390 H   0  0  0  0  0  0  0  0  0  0  0  0
    5.5238   -0.5931    1.1125 H   0  0  0  0  0  0  0  0  0  0  0  0
    6.9901   -1.5832    0.9942 H   0  0  0  0  0  0  0  0  0  0  0  0
    9.2048    0.5319    1.2109 H   0  0  0  0  0  0  0  0  0  0  0  0
    9.1029   -0.9420    2.2020 H   0  0  0  0  0  0  0  0  0  0  0  0
    9.2519    0.6500    2.9866 H   0  0  0  0  0  0  0  0  0  0  0  0
    4.3272    3.7573    1.5522 H   0  0  0  0  0  0  0  0  0  0  0  0
    4.7513    5.9018    1.7706 H   0  0  0  0  0  0  0  0  0  0  0  0
    3.3666    5.8498    4.3765 H   0  0  0  0  0  0  0  0  0  0  0  0
    1.2461    5.7311    4.0617 H   0  0  0  0  0  0  0  0  0  0  0  0
    7.1190    6.7841    1.7338 H   0  0  0  0  0  0  0  0  0  0  0  0
    7.6433    6.0014    3.2514 H   0  0  0  0  0  0  0  0  0  0  0  0
    7.6962    7.7741    3.0915 H   0  0  0  0  0  0  0  0  0  0  0  0
    5.0490    8.2989    1.7375 H   0  0  0  0  0  0  0  0  0  0  0  0
    5.6025    9.1611    3.1932 H   0  0  0  0  0  0  0  0  0  0  0  0
    3.9997    8.3873    3.1716 H   0  0  0  0  0  0  0  0  0  0  0  0
    6.1421    6.1254    5.3470 H   0  0  0  0  0  0  0  0  0  0  0  0
    4.7209    7.2153    5.3545 H   0  0  0  0  0  0  0  0  0  0  0  0
    6.3446    7.8978    5.2492 H   0  0  0  0  0  0  0  0  0  0  0  0
    6.7635   -0.5217    8.4139 H   0  0  0  0  0  0  0  0  0  0  0  0
    5.6607   -1.5743    9.3023 H   0  0  0  0  0  0  0  0  0  0  0  0
  1  2  1  0
  1 31  1  0
  1 32  1  0
  1 33  1  0
  2  3  1  0
  2 34  1  0
  2 35  1  0
  3  4  1  0
  3 36  1  0
  3 37  1  0
  4  5  1  0
  4 26  1  0
  4 38  1  6
  5  6  1  0
  5 39  1  0
  6  7  2  0
  6  8  1  0
  8  9  1  6
  8 10  1  0
  8 14  1  0
 10 11  1  0
 10 40  1  0
 10 41  1  0
 11 12  1  0
 11 13  1  0
 11 42  1  1
 12 43  1  0
 12 44  1  0
 12 45  1  0
 13 46  1  0
 13 47  1  0
 13 48  1  0
 14 15  1  0
 14 49  1  0
 15 16  2  0
 15 17  1  0
 17 18  1  0
 17 22  1  0
 17 50  1  6
 18 19  1  0
 18 51  1  0
 19 20  2  0
 19 21  1  0
 21 52  1  0
 22 23  1  6
 22 24  1  0
 22 25  1  0
 23 53  1  0
 23 54  1  0
 23 55  1  0
 24 56  1  0
 24 57  1  0
 24 58  1  0
 25 59  1  0
 25 60  1  0
 25 61  1  0
 26 27  2  0
 26 28  1  0
 28 29  1  0
 28 30  2  0
 29 62  1  0
 29 63  1  0
M  END

