
     RDKit          3D

 67 68  0  0  0  0  0  0  0  0999 V2000
    0.9183    0.7988   -0.2881 C   0  0  0  0  0  0  0  0  0  0  0  0
    2.4233    0.5348   -0.2218 C   0  0  0  0  0  0  0  0  0  0  0  0
    2.8510   -0.2739    1.0069 C   0  0  0  0  0  0  0  0  0  0  0  0
    4.3568   -0.5429    1.0809 C   0  0  0  0  0  0  0  0  0  0  0  0
    4.7834   -1.3522    2.3093 C   0  0  0  0  0  0  0  0  0  0  0  0
    6.2894   -1.6217    2.3824 C   0  0  0  0  0  0  0  0  0  0  0  0
    6.7123   -2.4324    3.6105 C   0  0  0  0  0  0  0  0  0  0  0  0
    8.2269   -2.7011    3.6771 C   0  0  0  0  0  0  0  0  0  0  0  0
    8.6444   -3.5014    4.8918 C   0  0  0  0  0  0  0  0  0  0  0  0
    8.9901   -2.8624    6.0916 C   0  0  0  0  0  0  0  0  0  0  0  0
    9.3414   -3.6189    7.2132 C   0  0  0  0  0  0  0  0  0  0  0  0
    9.3469   -5.0117    7.1661 C   0  0  0  0  0  0  0  0  0  0  0  0
    9.0144   -5.6743    5.9674 C   0  0  0  0  0  0  0  0  0  0  0  0
    9.0451   -7.0793    5.8960 N   0  0  0  0  0  0  0  0  0  0  0  0
    9.8744   -7.8294    6.7144 C   0  0  0  0  0  0  0  0  0  0  0  0
    9.6164   -9.1584    6.8793 C   0  0  0  0  0  0  0  0  0  0  0  0
   10.3964  -10.0687    7.5764 O   0  0  0  0  0  0  0  0  0  0  0  0
   11.3735   -9.7327    8.4478 C   0  0  0  0  0  0  0  0  0  0  0  0
   11.6860   -8.5968    8.7184 O   0  0  0  0  0  0  0  0  0  0  0  0
   12.0441  -10.9673    9.0320 C   0  0  1  0  0  0  0  0  0  0  0  0
   13.5161  -11.0208    8.5708 C   0  0  0  0  0  0  0  0  0  0  0  0
   13.7028  -11.1383    7.0574 C   0  0  0  0  0  0  0  0  0  0  0  0
   11.9316  -10.9459   10.5682 C   0  0  0  0  0  0  0  0  0  0  0  0
   10.4993  -11.0295   11.1057 C   0  0  0  0  0  0  0  0  0  0  0  0
   10.4324  -11.0415   12.6337 C   0  0  0  0  0  0  0  0  0  0  0  0
    8.4548   -9.7347    6.4142 N   0  0  0  0  0  0  0  0  0  0  0  0
    7.7863   -9.0991    5.5268 C   0  0  0  0  0  0  0  0  0  0  0  0
    8.2922   -7.8186    4.8888 C   0  0  0  0  0  0  0  0  0  0  0  0
    8.6685   -4.9027    4.8412 C   0  0  0  0  0  0  0  0  0  0  0  0
    0.6475    1.3817   -1.1830 H   0  0  0  0  0  0  0  0  0  0  0  0
    0.5709    1.3631    0.5937 H   0  0  0  0  0  0  0  0  0  0  0  0
    0.3467   -0.1441   -0.3200 H   0  0  0  0  0  0  0  0  0  0  0  0
    2.9674    1.4970   -0.2298 H   0  0  0  0  0  0  0  0  0  0  0  0
    2.7451    0.0028   -1.1358 H   0  0  0  0  0  0  0  0  0  0  0  0
    2.3072   -1.2372    1.0159 H   0  0  0  0  0  0  0  0  0  0  0  0
    2.5298    0.2577    1.9223 H   0  0  0  0  0  0  0  0  0  0  0  0
    4.9002    0.4204    1.0724 H   0  0  0  0  0  0  0  0  0  0  0  0
    4.6777   -1.0739    0.1651 H   0  0  0  0  0  0  0  0  0  0  0  0
    4.2400   -2.3155    2.3182 H   0  0  0  0  0  0  0  0  0  0  0  0
    4.4635   -0.8215    3.2252 H   0  0  0  0  0  0  0  0  0  0  0  0
    6.8336   -0.6589    2.3752 H   0  0  0  0  0  0  0  0  0  0  0  0
    6.6105   -2.1519    1.4662 H   0  0  0  0  0  0  0  0  0  0  0  0
    6.1740   -3.3973    3.6214 H   0  0  0  0  0  0  0  0  0  0  0  0
    6.3992   -1.9054    4.5295 H   0  0  0  0  0  0  0  0  0  0  0  0
    8.7626   -1.7365    3.6727 H   0  0  0  0  0  0  0  0  0  0  0  0
    8.5378   -3.2314    2.7603 H   0  0  0  0  0  0  0  0  0  0  0  0
    8.9862   -1.7705    6.1468 H   0  0  0  0  0  0  0  0  0  0  0  0
    9.6024   -3.1166    8.1484 H   0  0  0  0  0  0  0  0  0  0  0  0
    9.5872   -5.5861    8.0618 H   0  0  0  0  0  0  0  0  0  0  0  0
   10.6818   -7.3224    7.2343 H   0  0  0  0  0  0  0  0  0  0  0  0
   11.5138  -11.8503    8.6406 H   0  0  0  0  0  0  0  0  0  0  0  0
   13.9946  -11.8803    9.0709 H   0  0  0  0  0  0  0  0  0  0  0  0
   14.0285  -10.1173    8.9430 H   0  0  0  0  0  0  0  0  0  0  0  0
   13.1954  -12.0309    6.6556 H   0  0  0  0  0  0  0  0  0  0  0  0
   14.7705  -11.2149    6.7975 H   0  0  0  0  0  0  0  0  0  0  0  0
   13.3001  -10.2607    6.5257 H   0  0  0  0  0  0  0  0  0  0  0  0
   12.4140  -10.0251   10.9400 H   0  0  0  0  0  0  0  0  0  0  0  0
   12.5209  -11.7909   10.9661 H   0  0  0  0  0  0  0  0  0  0  0  0
   10.0112  -11.9364   10.7058 H   0  0  0  0  0  0  0  0  0  0  0  0
    9.9100  -10.1772   10.7235 H   0  0  0  0  0  0  0  0  0  0  0  0
   10.9782  -11.9036   13.0531 H   0  0  0  0  0  0  0  0  0  0  0  0
    9.3923  -11.1007   12.9917 H   0  0  0  0  0  0  0  0  0  0  0  0
   10.8805  -10.1289   13.0613 H   0  0  0  0  0  0  0  0  0  0  0  0
    6.8096   -9.4948    5.2164 H   0  0  0  0  0  0  0  0  0  0  0  0
    7.4463   -7.2106    4.5400 H   0  0  0  0  0  0  0  0  0  0  0  0
    8.9210   -8.0516    3.9981 H   0  0  0  0  0  0  0  0  0  0  0  0
    8.4417   -5.3940    3.8931 H   0  0  0  0  0  0  0  0  0  0  0  0
  1  2  1  0
  1 30  1  0
  1 31  1  0
  1 32  1  0
  2  3  1  0
  2 33  1  0
  2 34  1  0
  3  4  1  0
  3 35  1  0
  3 36  1  0
  4  5  1  0
  4 37  1  0
  4 38  1  0
  5  6  1  0
  5 39  1  0
  5 40  1  0
  6  7  1  0
  6 41  1  0
  6 42  1  0
  7  8  1  0
  7 43  1  0
  7 44  1  0
  8  9  1  0
  8 45  1  0
  8 46  1  0
  9 10  2  0
  9 29  1  0
 10 11  1  0
 10 47  1  0
 11 12  2  0
 11 48  1  0
 12 13  1  0
 12 49  1  0
 13 14  1  0
 13 29  2  0
 14 15  1  0
 14 28  1  0
 15 16  2  0
 15 50  1  0
 16 17  1  0
 16 26  1  0
 17 18  1  0
 18 19  2  0
 18 20  1  0
 20 21  1  0
 20 23  1  0
 20 51  1  6
 21 22  1  0
 21 52  1  0
 21 53  1  0
 22 54  1  0
 22 55  1  0
 22 56  1  0
 23 24  1  0
 23 57  1  0
 23 58  1  0
 24 25  1  0
 24 59  1  0
 24 60  1  0
 25 61  1  0
 25 62  1  0
 25 63  1  0
 26 27  2  0
 27 28  1  0
 27 64  1  0
 28 65  1  0
 28 66  1  0
 29 67  1  0
M  END

