
     RDKit          3D

 39 40  0  0  0  0  0  0  0  0999 V2000
    2.6304    3.5537   -2.5443 C   0  0  0  0  0  0  0  0  0  0  0  0
    3.3558    2.6169   -1.5568 C   0  0  1  0  0  0  0  0  0  0  0  0
    2.7534    2.7183   -0.1470 C   0  0  0  0  0  0  0  0  0  0  0  0
    3.4075    1.2010   -2.0650 C   0  0  0  0  0  0  0  0  0  0  0  0
    2.4675    0.2436   -1.7866 N   0  0  0  0  0  0  0  0  0  0  0  0
    1.6519    0.3475   -1.1957 H   0  0  0  0  0  0  0  0  0  0  0  0
    2.6995   -0.9243   -2.3723 N   0  0  0  0  0  0  0  0  0  0  0  0
    3.8368   -0.7544   -3.0706 C   0  0  0  0  0  0  0  0  0  0  0  0
    4.4546   -1.7472   -3.9979 C   0  0  0  0  0  0  0  0  0  0  0  0
    5.1573   -1.3081   -4.9138 O   0  0  0  0  0  0  0  0  0  0  0  0
    4.2592   -3.0930   -3.8305 N   0  0  0  0  0  0  0  0  0  0  0  0
    4.6951   -3.9923   -4.9003 C   0  0  0  0  0  0  0  0  0  0  0  0
    5.4599   -5.1781   -4.3244 C   0  0  0  0  0  0  0  0  0  0  0  0
    4.7152   -5.8308   -3.3132 O   0  0  0  0  0  0  0  0  0  0  0  0
    4.4197   -4.9504   -2.2510 C   0  0  0  0  0  0  0  0  0  0  0  0
    3.5812   -3.7451   -2.7040 C   0  0  2  0  0  0  0  0  0  0  0  0
    2.1287   -4.1485   -3.0417 C   0  0  0  0  0  0  0  0  0  0  0  0
    1.3965   -3.1226   -3.6471 O   0  0  0  0  0  0  0  0  0  0  0  0
    4.3156    0.5844   -2.9283 C   0  0  0  0  0  0  0  0  0  0  0  0
    5.4663    1.1147   -3.4866 N   0  0  0  0  0  0  0  0  0  0  0  0
    2.6687    4.5989   -2.1964 H   0  0  0  0  0  0  0  0  0  0  0  0
    1.5707    3.2686   -2.6499 H   0  0  0  0  0  0  0  0  0  0  0  0
    3.0846    3.5104   -3.5465 H   0  0  0  0  0  0  0  0  0  0  0  0
    4.4074    2.9496   -1.4922 H   0  0  0  0  0  0  0  0  0  0  0  0
    1.6839    2.4430   -0.1408 H   0  0  0  0  0  0  0  0  0  0  0  0
    2.8139    3.7525    0.2255 H   0  0  0  0  0  0  0  0  0  0  0  0
    3.2794    2.0670    0.5680 H   0  0  0  0  0  0  0  0  0  0  0  0
    5.3222   -3.4143   -5.5901 H   0  0  0  0  0  0  0  0  0  0  0  0
    3.8102   -4.3531   -5.4555 H   0  0  0  0  0  0  0  0  0  0  0  0
    6.4329   -4.8332   -3.9164 H   0  0  0  0  0  0  0  0  0  0  0  0
    5.6597   -5.9226   -5.1100 H   0  0  0  0  0  0  0  0  0  0  0  0
    5.3579   -4.5841   -1.7853 H   0  0  0  0  0  0  0  0  0  0  0  0
    3.8666   -5.5308   -1.4960 H   0  0  0  0  0  0  0  0  0  0  0  0
    3.5556   -3.0308   -1.8719 H   0  0  0  0  0  0  0  0  0  0  0  0
    1.6648   -4.5063   -2.0959 H   0  0  0  0  0  0  0  0  0  0  0  0
    2.1342   -5.0105   -3.7292 H   0  0  0  0  0  0  0  0  0  0  0  0
    1.5714   -2.3055   -3.1419 H   0  0  0  0  0  0  0  0  0  0  0  0
    5.7649    0.5706   -4.2956 H   0  0  0  0  0  0  0  0  0  0  0  0
    5.4416    2.1124   -3.6666 H   0  0  0  0  0  0  0  0  0  0  0  0
  1  2  1  0
  1 21  1  0
  1 22  1  0
  1 23  1  0
  2  3  1  0
  2  4  1  0
  2 24  1  1
  3 25  1  0
  3 26  1  0
  3 27  1  0
  4  5  1  0
  4 19  2  0
  5  6  1  0
  5  7  1  0
  7  8  2  0
  8  9  1  0
  8 19  1  0
  9 10  2  0
  9 11  1  0
 11 12  1  0
 11 16  1  0
 12 13  1  0
 12 28  1  0
 12 29  1  0
 13 14  1  0
 13 30  1  0
 13 31  1  0
 14 15  1  0
 15 16  1  0
 15 32  1  0
 15 33  1  0
 16 17  1  0
 16 34  1  1
 17 18  1  0
 17 35  1  0
 17 36  1  0
 18 37  1  0
 19 20  1  0
 20 38  1  0
 20 39  1  0
M  END

