
     RDKit          3D

 49 51  0  0  0  0  0  0  0  0999 V2000
    2.7333   -2.9550    4.4091 O   0  0  0  0  0  0  0  0  0  0  0  0
    2.2277   -2.7717    3.3091 C   0  0  0  0  0  0  0  0  0  0  0  0
    0.7309   -2.8335    3.0413 C   0  0  0  0  0  0  0  0  0  0  0  0
   -0.0251   -1.6589    3.6404 C   0  0  0  0  0  0  0  0  0  0  0  0
   -0.8021   -0.8216    2.8273 C   0  0  0  0  0  0  0  0  0  0  0  0
   -1.5070    0.2548    3.3759 C   0  0  0  0  0  0  0  0  0  0  0  0
   -1.4390    0.5094    4.7476 C   0  0  0  0  0  0  0  0  0  0  0  0
   -0.6625   -0.3182    5.5660 C   0  0  0  0  0  0  0  0  0  0  0  0
    0.0387   -1.3948    5.0188 C   0  0  0  0  0  0  0  0  0  0  0  0
    2.9997   -2.4707    2.2307 N   0  0  0  0  0  0  0  0  0  0  0  0
    4.3636   -2.3802    2.3985 N   0  0  0  0  0  0  0  0  0  0  0  0
    5.1377   -2.2020    1.2951 C   0  0  0  0  0  0  0  0  0  0  0  0
    4.6275   -2.1066    0.1826 O   0  0  0  0  0  0  0  0  0  0  0  0
    6.6193   -2.1299    1.5169 C   0  0  0  0  0  0  0  0  0  0  0  0
    7.4397   -2.2321    0.3839 C   0  0  0  0  0  0  0  0  0  0  0  0
    8.8309   -2.1820    0.5036 C   0  0  0  0  0  0  0  0  0  0  0  0
    9.4228   -2.0147    1.7563 C   0  0  0  0  0  0  0  0  0  0  0  0
    8.5979   -1.8874    2.8789 C   0  0  0  0  0  0  0  0  0  0  0  0
    9.3447   -1.7021    4.5051 S   0  0  1  0  0  0  0  0  0  0  0  0
    8.2523   -1.7282    5.4852 O   0  0  0  0  0  0  0  0  0  0  0  0
   10.4727   -2.6308    4.6041 O   0  0  0  0  0  0  0  0  0  0  0  0
   10.0227   -0.1481    4.4088 N   0  0  0  0  0  0  0  0  0  0  0  0
   11.2944    0.0470    5.1226 C   0  0  0  0  0  0  0  0  0  0  0  0
   11.8948    1.3748    4.6696 C   0  0  0  0  0  0  0  0  0  0  0  0
   10.9974    2.4461    4.8753 O   0  0  0  0  0  0  0  0  0  0  0  0
    9.7893    2.2606    4.1712 C   0  0  0  0  0  0  0  0  0  0  0  0
    9.0868    0.9686    4.5884 C   0  0  0  0  0  0  0  0  0  0  0  0
    7.2089   -1.9511    2.7787 C   0  0  0  0  0  0  0  0  0  0  0  0
    0.3819   -3.7755    3.4959 H   0  0  0  0  0  0  0  0  0  0  0  0
    0.5332   -2.8972    1.9606 H   0  0  0  0  0  0  0  0  0  0  0  0
   -0.8620   -1.0144    1.7520 H   0  0  0  0  0  0  0  0  0  0  0  0
   -2.1099    0.8954    2.7270 H   0  0  0  0  0  0  0  0  0  0  0  0
   -1.9889    1.3498    5.1788 H   0  0  0  0  0  0  0  0  0  0  0  0
   -0.6025   -0.1246    6.6402 H   0  0  0  0  0  0  0  0  0  0  0  0
    0.6561   -2.0328    5.6547 H   0  0  0  0  0  0  0  0  0  0  0  0
    2.6982   -2.3346    1.2696 H   0  0  0  0  0  0  0  0  0  0  0  0
    4.6625   -2.5884    3.3483 H   0  0  0  0  0  0  0  0  0  0  0  0
    6.9582   -2.3538   -0.5881 H   0  0  0  0  0  0  0  0  0  0  0  0
    9.4584   -2.2776   -0.3857 H   0  0  0  0  0  0  0  0  0  0  0  0
   10.5078   -1.9835    1.8699 H   0  0  0  0  0  0  0  0  0  0  0  0
   11.9688   -0.7871    4.8879 H   0  0  0  0  0  0  0  0  0  0  0  0
   11.1385    0.0697    6.2190 H   0  0  0  0  0  0  0  0  0  0  0  0
   12.1744    1.3049    3.5982 H   0  0  0  0  0  0  0  0  0  0  0  0
   12.8014    1.5963    5.2526 H   0  0  0  0  0  0  0  0  0  0  0  0
    9.9776    2.2366    3.0781 H   0  0  0  0  0  0  0  0  0  0  0  0
    9.1475    3.1262    4.3946 H   0  0  0  0  0  0  0  0  0  0  0  0
    8.1984    0.8120    3.9571 H   0  0  0  0  0  0  0  0  0  0  0  0
    8.7495    1.0393    5.6394 H   0  0  0  0  0  0  0  0  0  0  0  0
    6.6228   -1.8455    3.6935 H   0  0  0  0  0  0  0  0  0  0  0  0
  1  2  2  0
  2  3  1  0
  2 10  1  0
  3  4  1  0
  3 29  1  0
  3 30  1  0
  4  5  2  0
  4  9  1  0
  5  6  1  0
  5 31  1  0
  6  7  2  0
  6 32  1  0
  7  8  1  0
  7 33  1  0
  8  9  2  0
  8 34  1  0
  9 35  1  0
 10 11  1  0
 10 36  1  0
 11 12  1  0
 11 37  1  0
 12 13  2  0
 12 14  1  0
 14 15  2  0
 14 28  1  0
 15 16  1  0
 15 38  1  0
 16 17  2  0
 16 39  1  0
 17 18  1  0
 17 40  1  0
 19 18  1  6
 18 28  2  0
 19 20  2  0
 19 21  2  0
 19 22  1  0
 22 23  1  0
 22 27  1  0
 23 24  1  0
 23 41  1  0
 23 42  1  0
 24 25  1  0
 24 43  1  0
 24 44  1  0
 25 26  1  0
 26 27  1  0
 26 45  1  0
 26 46  1  0
 27 47  1  0
 27 48  1  0
 28 49  1  0
M  END

