
     RDKit          3D

 48 50  0  0  0  0  0  0  0  0999 V2000
    2.2573    3.8329    0.8113 C   0  0  0  0  0  0  0  0  0  0  0  0
    2.4648    2.4142    0.5383 N   0  0  0  0  0  0  0  0  0  0  0  0
    3.1247    1.9628   -0.9443 S   0  0  1  0  0  0  0  0  0  0  0  0
    2.6545    0.5947   -1.1674 O   0  0  0  0  0  0  0  0  0  0  0  0
    2.9223    3.0263   -1.9334 O   0  0  0  0  0  0  0  0  0  0  0  0
    4.8884    1.9023   -0.5912 C   0  0  0  0  0  0  0  0  0  0  0  0
    5.3972    0.8419    0.1669 C   0  0  0  0  0  0  0  0  0  0  0  0
    6.7638    0.7902    0.4236 C   0  0  0  0  0  0  0  0  0  0  0  0
    7.6229    1.7898   -0.0670 C   0  0  0  0  0  0  0  0  0  0  0  0
    9.0831    1.6455    0.2592 C   0  0  0  0  0  0  0  0  0  0  0  0
    9.5559    0.6008    0.6771 O   0  0  0  0  0  0  0  0  0  0  0  0
    9.8658    2.7622    0.0765 N   0  0  0  0  0  0  0  0  0  0  0  0
   11.2314    2.8337    0.3152 C   0  0  0  0  0  0  0  0  0  0  0  0
   11.8820    3.9437    0.1371 N   0  0  0  0  0  0  0  0  0  0  0  0
   13.2248    3.7985    0.4270 C   0  0  0  0  0  0  0  0  0  0  0  0
   14.1234    4.9607    0.2810 C   0  0  0  0  0  0  0  0  0  0  0  0
   13.6187    6.1900   -0.1502 C   0  0  0  0  0  0  0  0  0  0  0  0
   14.4607    7.3009   -0.2932 C   0  0  0  0  0  0  0  0  0  0  0  0
   15.8237    7.2080   -0.0085 C   0  0  0  0  0  0  0  0  0  0  0  0
   16.7157    8.2207   -0.1152 O   0  0  0  0  0  0  0  0  0  0  0  0
   16.2662    9.4838   -0.5447 C   0  0  0  0  0  0  0  0  0  0  0  0
   16.3518    5.9603    0.4322 C   0  0  0  0  0  0  0  0  0  0  0  0
   17.6830    5.9480    0.6890 O   0  0  0  0  0  0  0  0  0  0  0  0
   18.2847    4.7546    1.1280 C   0  0  0  0  0  0  0  0  0  0  0  0
   15.5040    4.8647    0.5698 C   0  0  0  0  0  0  0  0  0  0  0  0
   13.5702    2.5285    0.8337 C   0  0  0  0  0  0  0  0  0  0  0  0
   12.1886    1.4754    0.8650 S   0  0  0  0  0  0  0  0  0  0  0  0
    7.0940    2.8301   -0.8466 C   0  0  0  0  0  0  0  0  0  0  0  0
    5.7239    2.8899   -1.1136 C   0  0  0  0  0  0  0  0  0  0  0  0
    1.8364    3.9285    1.8229 H   0  0  0  0  0  0  0  0  0  0  0  0
    1.5874    4.3284    0.0885 H   0  0  0  0  0  0  0  0  0  0  0  0
    3.2237    4.3592    0.8047 H   0  0  0  0  0  0  0  0  0  0  0  0
    1.6639    1.8069    0.7117 H   0  0  0  0  0  0  0  0  0  0  0  0
    4.7257    0.0660    0.5387 H   0  0  0  0  0  0  0  0  0  0  0  0
    7.1985   -0.0260    1.0030 H   0  0  0  0  0  0  0  0  0  0  0  0
    9.4565    3.6476   -0.2008 H   0  0  0  0  0  0  0  0  0  0  0  0
   12.5558    6.2756   -0.3759 H   0  0  0  0  0  0  0  0  0  0  0  0
   14.0368    8.2464   -0.6321 H   0  0  0  0  0  0  0  0  0  0  0  0
   17.1457   10.1418   -0.5559 H   0  0  0  0  0  0  0  0  0  0  0  0
   15.5106    9.9083    0.1417 H   0  0  0  0  0  0  0  0  0  0  0  0
   15.8357    9.4447   -1.5621 H   0  0  0  0  0  0  0  0  0  0  0  0
   19.3513    4.9754    1.2705 H   0  0  0  0  0  0  0  0  0  0  0  0
   18.1849    3.9427    0.3840 H   0  0  0  0  0  0  0  0  0  0  0  0
   17.8612    4.4065    2.0884 H   0  0  0  0  0  0  0  0  0  0  0  0
   15.9157    3.9149    0.9074 H   0  0  0  0  0  0  0  0  0  0  0  0
   14.5484    2.1490    1.1189 H   0  0  0  0  0  0  0  0  0  0  0  0
    7.7410    3.5931   -1.2861 H   0  0  0  0  0  0  0  0  0  0  0  0
    5.3000    3.6804   -1.7348 H   0  0  0  0  0  0  0  0  0  0  0  0
  1  2  1  0
  1 30  1  0
  1 31  1  0
  1 32  1  0
  3  2  1  1
  2 33  1  0
  3  4  2  0
  3  5  2  0
  3  6  1  0
  6  7  2  0
  6 29  1  0
  7  8  1  0
  7 34  1  0
  8  9  2  0
  8 35  1  0
  9 10  1  0
  9 28  1  0
 10 11  2  0
 10 12  1  0
 12 13  1  0
 12 36  1  0
 13 14  2  0
 13 27  1  0
 14 15  1  0
 15 16  1  0
 15 26  2  0
 16 17  2  0
 16 25  1  0
 17 18  1  0
 17 37  1  0
 18 19  2  0
 18 38  1  0
 19 20  1  0
 19 22  1  0
 20 21  1  0
 21 39  1  0
 21 40  1  0
 21 41  1  0
 22 23  1  0
 22 25  2  0
 23 24  1  0
 24 42  1  0
 24 43  1  0
 24 44  1  0
 25 45  1  0
 26 27  1  0
 26 46  1  0
 28 29  2  0
 28 47  1  0
 29 48  1  0
M  END

