
     RDKit          3D

 43 47  0  0  0  0  0  0  0  0999 V2000
   -4.8320    2.2352    2.6605 C   0  0  0  0  0  0  0  0  0  0  0  0
   -3.6037    1.6329    2.2524 O   0  0  0  0  0  0  0  0  0  0  0  0
   -3.5477    1.1940    0.9816 C   0  0  0  0  0  0  0  0  0  0  0  0
   -4.4653    1.2753    0.2021 O   0  0  0  0  0  0  0  0  0  0  0  0
   -2.1969    0.6495    0.6676 C   0  0  0  0  0  0  0  0  0  0  0  0
   -1.8814   -0.1813   -0.3696 C   0  0  0  0  0  0  0  0  0  0  0  0
   -2.8456   -0.8356   -1.3075 C   0  0  0  0  0  0  0  0  0  0  0  0
   -2.6582   -0.9356   -2.4974 O   0  0  0  0  0  0  0  0  0  0  0  0
   -3.8983   -1.3582   -0.6678 O   0  0  0  0  0  0  0  0  0  0  0  0
   -4.9261   -1.9134   -1.4876 C   0  0  0  0  0  0  0  0  0  0  0  0
   -0.4588   -0.4150   -0.5066 C   0  0  0  0  0  0  0  0  0  0  0  0
    0.2772   -1.1207   -1.3868 C   0  0  0  0  0  0  0  0  0  0  0  0
    1.7768   -1.0627   -1.1007 C   0  0  1  0  0  0  0  0  0  0  0  0
    2.3745   -1.6419   -1.8151 H   0  0  0  0  0  0  0  0  0  0  0  0
    2.1558    0.4213   -1.0836 C   0  0  0  0  0  0  0  0  0  0  0  0
    3.1376    1.0366   -1.8544 C   0  0  0  0  0  0  0  0  0  0  0  0
    3.3592    2.4155   -1.7152 C   0  0  0  0  0  0  0  0  0  0  0  0
    2.5998    3.1615   -0.8127 C   0  0  0  0  0  0  0  0  0  0  0  0
    1.6096    2.5418   -0.0339 C   0  0  0  0  0  0  0  0  0  0  0  0
    1.3946    1.1747   -0.1710 C   0  0  0  0  0  0  0  0  0  0  0  0
    0.3747    0.2981    0.5787 C   0  0  1  0  0  0  0  0  0  0  0  0
   -0.8242    1.2016    1.6428 S   0  0  0  0  0  0  0  0  0  0  0  0
    1.1999   -0.8006    1.2705 C   0  0  0  0  0  0  0  0  0  0  0  0
    1.2497   -1.1060    2.6262 C   0  0  0  0  0  0  0  0  0  0  0  0
    2.0759   -2.1539    3.0627 C   0  0  0  0  0  0  0  0  0  0  0  0
    2.8373   -2.8819    2.1473 C   0  0  0  0  0  0  0  0  0  0  0  0
    2.7815   -2.5746    0.7788 C   0  0  0  0  0  0  0  0  0  0  0  0
    1.9626   -1.5367    0.3440 C   0  0  0  0  0  0  0  0  0  0  0  0
   -4.6852    2.5530    3.6998 H   0  0  0  0  0  0  0  0  0  0  0  0
   -5.6597    1.5128    2.5948 H   0  0  0  0  0  0  0  0  0  0  0  0
   -5.0727    3.1002    2.0241 H   0  0  0  0  0  0  0  0  0  0  0  0
   -5.6694   -2.3349   -0.8000 H   0  0  0  0  0  0  0  0  0  0  0  0
   -4.5231   -2.6962   -2.1472 H   0  0  0  0  0  0  0  0  0  0  0  0
   -5.3858   -1.1289   -2.1076 H   0  0  0  0  0  0  0  0  0  0  0  0
   -0.1403   -1.6626   -2.2354 H   0  0  0  0  0  0  0  0  0  0  0  0
    3.7295    0.4512   -2.5635 H   0  0  0  0  0  0  0  0  0  0  0  0
    4.1267    2.9053   -2.3199 H   0  0  0  0  0  0  0  0  0  0  0  0
    2.7709    4.2362   -0.7122 H   0  0  0  0  0  0  0  0  0  0  0  0
    1.0061    3.1250    0.6651 H   0  0  0  0  0  0  0  0  0  0  0  0
    0.6438   -0.5414    3.3385 H   0  0  0  0  0  0  0  0  0  0  0  0
    2.1174   -2.4007    4.1266 H   0  0  0  0  0  0  0  0  0  0  0  0
    3.4770   -3.6973    2.4944 H   0  0  0  0  0  0  0  0  0  0  0  0
    3.3752   -3.1465    0.0602 H   0  0  0  0  0  0  0  0  0  0  0  0
  1  2  1  0
  1 29  1  0
  1 30  1  0
  1 31  1  0
  2  3  1  0
  3  4  2  0
  3  5  1  0
  5  6  2  0
  5 22  1  0
  6  7  1  0
  6 11  1  0
  7  8  2  0
  7  9  1  0
  9 10  1  0
 10 32  1  0
 10 33  1  0
 10 34  1  0
 11 12  2  0
 11 21  1  0
 12 13  1  0
 12 35  1  0
 13 14  1  6
 13 15  1  0
 13 28  1  0
 15 16  2  0
 15 20  1  0
 16 17  1  0
 16 36  1  0
 17 18  2  0
 17 37  1  0
 18 19  1  0
 18 38  1  0
 19 20  2  0
 19 39  1  0
 20 21  1  0
 21 22  1  1
 21 23  1  0
 23 24  1  0
 23 28  2  0
 24 25  2  0
 24 40  1  0
 25 26  1  0
 25 41  1  0
 26 27  2  0
 26 42  1  0
 27 28  1  0
 27 43  1  0
M  END

