
     RDKit          3D

 35 36  0  0  0  0  0  0  0  0999 V2000
    6.9819    3.1264   -5.3071 O   0  0  0  0  0  0  0  0  0  0  0  0
    6.8165    2.3756   -4.1855 C   0  0  0  0  0  0  0  0  0  0  0  0
    5.6881    1.5931   -3.9358 C   0  0  0  0  0  0  0  0  0  0  0  0
    5.5705    0.8430   -2.7585 C   0  0  0  0  0  0  0  0  0  0  0  0
    6.5880    0.8583   -1.7985 C   0  0  0  0  0  0  0  0  0  0  0  0
    6.4918    0.0363   -0.5306 C   0  0  0  0  0  0  0  0  0  0  0  0
    7.0689   -1.3903   -0.6385 C   0  0  0  0  0  0  0  0  0  0  0  0
    8.5612   -1.4708   -0.9767 C   0  0  0  0  0  0  0  0  0  0  0  0
    9.4182   -0.7188   -0.0764 N   0  0  0  0  0  0  0  0  0  0  0  0
    9.4614   -1.1739    1.3087 C   0  0  0  0  0  0  0  0  0  0  0  0
   10.6269   -0.3787    1.9258 C   0  0  0  0  0  0  0  0  0  0  0  0
   11.5322   -0.0183    0.7155 C   0  0  0  0  0  0  0  0  0  0  0  0
   10.8138   -0.6448   -0.4921 C   0  0  0  0  0  0  0  0  0  0  0  0
    7.7237    1.6480   -2.0559 C   0  0  0  0  0  0  0  0  0  0  0  0
    7.8516    2.4022   -3.2234 C   0  0  0  0  0  0  0  0  0  0  0  0
    8.9356    3.1767   -3.4941 O   0  0  0  0  0  0  0  0  0  0  0  0
    6.2057    3.0196   -5.8717 H   0  0  0  0  0  0  0  0  0  0  0  0
    4.8821    1.5774   -4.6774 H   0  0  0  0  0  0  0  0  0  0  0  0
    4.6686    0.2480   -2.5906 H   0  0  0  0  0  0  0  0  0  0  0  0
    5.4329   -0.0452   -0.2339 H   0  0  0  0  0  0  0  0  0  0  0  0
    7.0081    0.5653    0.2861 H   0  0  0  0  0  0  0  0  0  0  0  0
    6.5207   -1.9502   -1.4157 H   0  0  0  0  0  0  0  0  0  0  0  0
    6.8716   -1.9203    0.3098 H   0  0  0  0  0  0  0  0  0  0  0  0
    8.7214   -1.0764   -1.9938 H   0  0  0  0  0  0  0  0  0  0  0  0
    8.8607   -2.5462   -1.0083 H   0  0  0  0  0  0  0  0  0  0  0  0
    9.6675   -2.2695    1.3652 H   0  0  0  0  0  0  0  0  0  0  0  0
    8.5042   -0.9979    1.8237 H   0  0  0  0  0  0  0  0  0  0  0  0
   11.1547   -0.9667    2.6915 H   0  0  0  0  0  0  0  0  0  0  0  0
   10.2551    0.5333    2.4163 H   0  0  0  0  0  0  0  0  0  0  0  0
   12.5576   -0.4031    0.8208 H   0  0  0  0  0  0  0  0  0  0  0  0
   11.6059    1.0737    0.5995 H   0  0  0  0  0  0  0  0  0  0  0  0
   11.2273   -1.6599   -0.7013 H   0  0  0  0  0  0  0  0  0  0  0  0
   10.9170   -0.0587   -1.4204 H   0  0  0  0  0  0  0  0  0  0  0  0
    8.5344    1.6641   -1.3196 H   0  0  0  0  0  0  0  0  0  0  0  0
    9.5519    3.1167   -2.7527 H   0  0  0  0  0  0  0  0  0  0  0  0
  1  2  1  0
  1 17  1  0
  2  3  2  0
  2 15  1  0
  3  4  1  0
  3 18  1  0
  4  5  2  0
  4 19  1  0
  5  6  1  0
  5 14  1  0
  6  7  1  0
  6 20  1  0
  6 21  1  0
  7  8  1  0
  7 22  1  0
  7 23  1  0
  8  9  1  0
  8 24  1  0
  8 25  1  0
  9 10  1  0
  9 13  1  0
 10 11  1  0
 10 26  1  0
 10 27  1  0
 11 12  1  0
 11 28  1  0
 11 29  1  0
 12 13  1  0
 12 30  1  0
 12 31  1  0
 13 32  1  0
 13 33  1  0
 14 15  2  0
 14 34  1  0
 15 16  1  0
 16 35  1  0
M  END

