
     RDKit          3D

 71 74  0  0  0  0  0  0  0  0999 V2000
    3.0932   -1.1521   -2.4998 C   0  0  0  0  0  0  0  0  0  0  0  0
    3.3656   -0.5002   -1.1645 C   0  0  0  0  0  0  0  0  0  0  0  0
    4.0893    0.6983   -1.0890 C   0  0  0  0  0  0  0  0  0  0  0  0
    4.3819    1.2817    0.1444 C   0  0  0  0  0  0  0  0  0  0  0  0
    3.9631    0.6643    1.3235 C   0  0  0  0  0  0  0  0  0  0  0  0
    3.2354   -0.5341    1.2898 C   0  0  0  0  0  0  0  0  0  0  0  0
    2.8227   -1.2179    2.5719 C   0  0  0  0  0  0  0  0  0  0  0  0
    2.9226   -1.0978    0.0347 C   0  0  0  0  0  0  0  0  0  0  0  0
    2.2106   -2.4345   -0.0413 C   0  0  0  0  0  0  0  0  0  0  0  0
    2.8593   -3.4667   -0.1526 O   0  0  0  0  0  0  0  0  0  0  0  0
    0.8351   -2.4320    0.0012 N   0  0  0  0  0  0  0  0  0  0  0  0
    0.0060   -1.2452    0.1818 C   0  0  0  0  0  0  0  0  0  0  0  0
   -0.9606   -1.0675   -0.9920 C   0  0  0  0  0  0  0  0  0  0  0  0
   -1.7981   -2.3331   -1.2168 C   0  0  0  0  0  0  0  0  0  0  0  0
   -0.8910   -3.5740   -1.3218 C   0  0  2  0  0  0  0  0  0  0  0  0
   -0.2430   -3.4122   -2.2030 H   0  0  0  0  0  0  0  0  0  0  0  0
   -1.5427   -4.9365   -1.6238 C   0  0  0  0  0  0  0  0  0  0  0  0
   -0.8710   -5.9515   -1.6002 O   0  0  0  0  0  0  0  0  0  0  0  0
   -2.8776   -4.9051   -1.9522 N   0  0  0  0  0  0  0  0  0  0  0  0
   -3.7278   -5.9679   -2.3288 C   0  0  0  0  0  0  0  0  0  0  0  0
   -3.3034   -7.3054   -2.4093 C   0  0  0  0  0  0  0  0  0  0  0  0
   -4.2299   -8.2738   -2.7919 C   0  0  0  0  0  0  0  0  0  0  0  0
   -5.5557   -7.9468   -3.0930 C   0  0  0  0  0  0  0  0  0  0  0  0
   -5.9981   -6.6163   -3.0176 C   0  0  0  0  0  0  0  0  0  0  0  0
   -7.4469   -6.1934   -3.3374 C   0  0  1  0  0  0  0  0  0  0  0  0
   -8.3253   -7.3925   -3.7380 C   0  0  0  0  0  0  0  0  0  0  0  0
   -8.0784   -5.5297   -2.0917 C   0  0  0  0  0  0  0  0  0  0  0  0
   -7.4440   -5.1861   -4.5106 C   0  0  0  0  0  0  0  0  0  0  0  0
   -5.0607   -5.6456   -2.6321 C   0  0  0  0  0  0  0  0  0  0  0  0
    0.1106   -3.7094   -0.1418 C   0  0  2  0  0  0  0  0  0  0  0  0
    0.8651   -4.4420   -0.4526 H   0  0  0  0  0  0  0  0  0  0  0  0
   -0.4293   -4.1890    1.2101 C   0  0  0  0  0  0  0  0  0  0  0  0
    0.5159   -4.4668    2.2160 C   0  0  0  0  0  0  0  0  0  0  0  0
    0.1182   -4.9084    3.4780 C   0  0  0  0  0  0  0  0  0  0  0  0
   -1.2392   -5.0921    3.7652 C   0  0  0  0  0  0  0  0  0  0  0  0
   -2.1864   -4.8388    2.7731 C   0  0  0  0  0  0  0  0  0  0  0  0
   -1.7840   -4.3926    1.5078 C   0  0  0  0  0  0  0  0  0  0  0  0
    3.5023   -0.5546   -3.3271 H   0  0  0  0  0  0  0  0  0  0  0  0
    2.0132   -1.2825   -2.6794 H   0  0  0  0  0  0  0  0  0  0  0  0
    3.5421   -2.1570   -2.5399 H   0  0  0  0  0  0  0  0  0  0  0  0
    4.4330    1.1728   -2.0124 H   0  0  0  0  0  0  0  0  0  0  0  0
    4.9476    2.2160    0.1874 H   0  0  0  0  0  0  0  0  0  0  0  0
    4.2082    1.1119    2.2906 H   0  0  0  0  0  0  0  0  0  0  0  0
    3.1346   -0.6359    3.4511 H   0  0  0  0  0  0  0  0  0  0  0  0
    3.2814   -2.2174    2.6461 H   0  0  0  0  0  0  0  0  0  0  0  0
    1.7328   -1.3664    2.6344 H   0  0  0  0  0  0  0  0  0  0  0  0
    0.6536   -0.3664    0.2854 H   0  0  0  0  0  0  0  0  0  0  0  0
   -0.5683   -1.3464    1.1219 H   0  0  0  0  0  0  0  0  0  0  0  0
   -0.3815   -0.8385   -1.9030 H   0  0  0  0  0  0  0  0  0  0  0  0
   -1.6172   -0.2025   -0.8027 H   0  0  0  0  0  0  0  0  0  0  0  0
   -2.3857   -2.2123   -2.1435 H   0  0  0  0  0  0  0  0  0  0  0  0
   -2.5172   -2.4361   -0.3874 H   0  0  0  0  0  0  0  0  0  0  0  0
   -3.3225   -3.9962   -1.9384 H   0  0  0  0  0  0  0  0  0  0  0  0
   -2.2732   -7.5597   -2.1741 H   0  0  0  0  0  0  0  0  0  0  0  0
   -3.9075   -9.3165   -2.8568 H   0  0  0  0  0  0  0  0  0  0  0  0
   -6.2386   -8.7433   -3.3869 H   0  0  0  0  0  0  0  0  0  0  0  0
   -8.3936   -8.1393   -2.9317 H   0  0  0  0  0  0  0  0  0  0  0  0
   -7.9456   -7.8967   -4.6402 H   0  0  0  0  0  0  0  0  0  0  0  0
   -9.3482   -7.0480   -3.9574 H   0  0  0  0  0  0  0  0  0  0  0  0
   -8.0945   -6.2264   -1.2386 H   0  0  0  0  0  0  0  0  0  0  0  0
   -9.1166   -5.2243   -2.3023 H   0  0  0  0  0  0  0  0  0  0  0  0
   -7.5255   -4.6307   -1.7785 H   0  0  0  0  0  0  0  0  0  0  0  0
   -7.0001   -5.6336   -5.4140 H   0  0  0  0  0  0  0  0  0  0  0  0
   -6.8708   -4.2770   -4.2720 H   0  0  0  0  0  0  0  0  0  0  0  0
   -8.4733   -4.8754   -4.7544 H   0  0  0  0  0  0  0  0  0  0  0  0
   -5.3679   -4.5977   -2.5623 H   0  0  0  0  0  0  0  0  0  0  0  0
    1.5786   -4.3533    1.9892 H   0  0  0  0  0  0  0  0  0  0  0  0
    0.8732   -5.1227    4.2391 H   0  0  0  0  0  0  0  0  0  0  0  0
   -1.5531   -5.4408    4.7523 H   0  0  0  0  0  0  0  0  0  0  0  0
   -3.2495   -4.9922    2.9763 H   0  0  0  0  0  0  0  0  0  0  0  0
   -2.5511   -4.2274    0.7513 H   0  0  0  0  0  0  0  0  0  0  0  0
  1  2  1  0
  1 38  1  0
  1 39  1  0
  1 40  1  0
  2  3  2  0
  2  8  1  0
  3  4  1  0
  3 41  1  0
  4  5  2  0
  4 42  1  0
  5  6  1  0
  5 43  1  0
  6  7  1  0
  6  8  2  0
  7 44  1  0
  7 45  1  0
  7 46  1  0
  8  9  1  0
  9 10  2  0
  9 11  1  0
 11 12  1  0
 11 30  1  0
 12 13  1  0
 12 47  1  0
 12 48  1  0
 13 14  1  0
 13 49  1  0
 13 50  1  0
 14 15  1  0
 14 51  1  0
 14 52  1  0
 15 16  1  6
 15 17  1  0
 15 30  1  0
 17 18  2  0
 17 19  1  0
 19 20  1  0
 19 53  1  0
 20 21  2  0
 20 29  1  0
 21 22  1  0
 21 54  1  0
 22 23  2  0
 22 55  1  0
 23 24  1  0
 23 56  1  0
 24 25  1  0
 24 29  2  0
 25 26  1  6
 25 27  1  0
 25 28  1  0
 26 57  1  0
 26 58  1  0
 26 59  1  0
 27 60  1  0
 27 61  1  0
 27 62  1  0
 28 63  1  0
 28 64  1  0
 28 65  1  0
 29 66  1  0
 30 31  1  6
 30 32  1  0
 32 33  2  0
 32 37  1  0
 33 34  1  0
 33 67  1  0
 34 35  2  0
 34 68  1  0
 35 36  1  0
 35 69  1  0
 36 37  2  0
 36 70  1  0
 37 71  1  0
M  END

