
     RDKit          3D

 50 50  0  0  0  0  0  0  0  0999 V2000
    5.8810    4.6246    1.8242 C   0  0  0  0  0  0  0  0  0  0  0  0
    5.7936    3.2126    1.3255 C   0  0  0  0  0  0  0  0  0  0  0  0
    5.2712    2.1809    1.9997 C   0  0  0  0  0  0  0  0  0  0  0  0
    5.1891    0.7714    1.4873 C   0  0  0  0  0  0  0  0  0  0  0  0
    5.9032   -0.2700    2.3823 C   0  0  1  0  0  0  0  0  0  0  0  0
    5.7915   -1.6922    1.8148 C   0  0  0  0  0  0  0  0  0  0  0  0
    6.5765   -1.8590    0.6440 O   0  0  0  0  0  0  0  0  0  0  0  0
    7.3117    0.0321    2.5689 N   0  0  0  0  0  0  0  0  0  0  0  0
    7.8111    0.6290    3.6912 C   0  0  0  0  0  0  0  0  0  0  0  0
    7.0772    0.9699    4.6280 O   0  0  0  0  0  0  0  0  0  0  0  0
    9.1716    0.7971    3.7058 N   0  0  0  0  0  0  0  0  0  0  0  0
    9.8938    1.6088    4.6902 C   0  0  1  0  0  0  0  0  0  0  0  0
    9.6093    1.1714    6.1497 C   0  0  0  0  0  0  0  0  0  0  0  0
    8.6664    2.1090    6.9413 C   0  0  0  0  0  0  0  0  0  0  0  0
    7.7491    1.3503    7.8977 C   0  0  0  0  0  0  0  0  0  0  0  0
    7.8171    1.4286    9.0982 O   0  0  0  0  0  0  0  0  0  0  0  0
    6.8519    0.5583    7.2931 O   0  0  0  0  0  0  0  0  0  0  0  0
   11.4035    1.5178    4.3685 C   0  0  0  0  0  0  0  0  0  0  0  0
   11.7806    1.9197    2.9583 C   0  0  0  0  0  0  0  0  0  0  0  0
   11.7601    3.2700    2.5660 C   0  0  0  0  0  0  0  0  0  0  0  0
   12.0822    3.6438    1.2599 C   0  0  0  0  0  0  0  0  0  0  0  0
   12.4322    2.6723    0.3151 C   0  0  0  0  0  0  0  0  0  0  0  0
   12.4608    1.3272    0.6892 C   0  0  0  0  0  0  0  0  0  0  0  0
   12.1384    0.9565    2.0001 C   0  0  0  0  0  0  0  0  0  0  0  0
    6.9275    4.9770    1.8448 H   0  0  0  0  0  0  0  0  0  0  0  0
    5.4676    4.7247    2.8394 H   0  0  0  0  0  0  0  0  0  0  0  0
    5.3336    5.3183    1.1615 H   0  0  0  0  0  0  0  0  0  0  0  0
    6.1938    3.0297    0.3181 H   0  0  0  0  0  0  0  0  0  0  0  0
    4.8812    2.3482    3.0118 H   0  0  0  0  0  0  0  0  0  0  0  0
    5.6095    0.7261    0.4665 H   0  0  0  0  0  0  0  0  0  0  0  0
    4.1283    0.4643    1.4112 H   0  0  0  0  0  0  0  0  0  0  0  0
    5.4368   -0.2517    3.3794 H   0  0  0  0  0  0  0  0  0  0  0  0
    4.7298   -1.9460    1.6367 H   0  0  0  0  0  0  0  0  0  0  0  0
    6.1861   -2.4069    2.5533 H   0  0  0  0  0  0  0  0  0  0  0  0
    6.1091   -1.4621   -0.1019 H   0  0  0  0  0  0  0  0  0  0  0  0
    7.9296   -0.2882    1.8304 H   0  0  0  0  0  0  0  0  0  0  0  0
    9.6510    0.6796    2.8185 H   0  0  0  0  0  0  0  0  0  0  0  0
    9.5905    2.6679    4.5785 H   0  0  0  0  0  0  0  0  0  0  0  0
   10.5637    1.0950    6.6948 H   0  0  0  0  0  0  0  0  0  0  0  0
    9.2027    0.1499    6.1230 H   0  0  0  0  0  0  0  0  0  0  0  0
    8.0260    2.6624    6.2370 H   0  0  0  0  0  0  0  0  0  0  0  0
    9.2359    2.8364    7.5359 H   0  0  0  0  0  0  0  0  0  0  0  0
    6.8966    0.6675    6.3135 H   0  0  0  0  0  0  0  0  0  0  0  0
   11.7411    0.4868    4.5655 H   0  0  0  0  0  0  0  0  0  0  0  0
   11.9254    2.1662    5.0904 H   0  0  0  0  0  0  0  0  0  0  0  0
   11.4956    4.0395    3.2973 H   0  0  0  0  0  0  0  0  0  0  0  0
   12.0655    4.6997    0.9778 H   0  0  0  0  0  0  0  0  0  0  0  0
   12.6876    2.9654   -0.7063 H   0  0  0  0  0  0  0  0  0  0  0  0
   12.7424    0.5610   -0.0378 H   0  0  0  0  0  0  0  0  0  0  0  0
   12.1816   -0.0983    2.2890 H   0  0  0  0  0  0  0  0  0  0  0  0
  1  2  1  0
  1 25  1  0
  1 26  1  0
  1 27  1  0
  2  3  2  0
  2 28  1  0
  3  4  1  0
  3 29  1  0
  4  5  1  0
  4 30  1  0
  4 31  1  0
  5  6  1  0
  5  8  1  0
  5 32  1  1
  6  7  1  0
  6 33  1  0
  6 34  1  0
  7 35  1  0
  8  9  1  0
  8 36  1  0
  9 10  2  0
  9 11  1  0
 11 12  1  0
 11 37  1  0
 12 13  1  0
 12 18  1  0
 12 38  1  1
 13 14  1  0
 13 39  1  0
 13 40  1  0
 14 15  1  0
 14 41  1  0
 14 42  1  0
 15 16  2  0
 15 17  1  0
 17 43  1  0
 18 19  1  0
 18 44  1  0
 18 45  1  0
 19 20  2  0
 19 24  1  0
 20 21  1  0
 20 46  1  0
 21 22  2  0
 21 47  1  0
 22 23  1  0
 22 48  1  0
 23 24  2  0
 23 49  1  0
 24 50  1  0
M  END

