
     RDKit          3D

 38 39  0  0  0  0  0  0  0  0999 V2000
    3.0284   -1.6228   -0.1457 C   0  0  0  0  0  0  0  0  0  0  0  0
    2.6187   -0.1526   -0.0368 C   0  0  2  0  0  0  0  0  0  0  0  0
    1.5207   -0.0794    0.0007 H   0  0  0  0  0  0  0  0  0  0  0  0
    3.1082    0.7221   -1.2080 C   0  0  0  0  0  0  0  0  0  0  0  0
    2.5001    0.3609   -2.5757 C   0  0  0  0  0  0  0  0  0  0  0  0
    2.9254    1.3092   -3.6767 C   0  0  0  0  0  0  0  0  0  0  0  0
    4.0301    1.0194   -4.4930 C   0  0  0  0  0  0  0  0  0  0  0  0
    4.4458    1.9112   -5.4862 C   0  0  0  0  0  0  0  0  0  0  0  0
    3.7604    3.1138   -5.6805 C   0  0  0  0  0  0  0  0  0  0  0  0
    2.6574    3.4154   -4.8757 C   0  0  0  0  0  0  0  0  0  0  0  0
    2.2458    2.5208   -3.8843 C   0  0  0  0  0  0  0  0  0  0  0  0
    3.0838    0.3852    1.2416 N   0  0  0  0  0  0  0  0  0  0  0  0
    2.3794    1.3237    1.9386 C   0  0  0  0  0  0  0  0  0  0  0  0
    1.3022    1.7623    1.5663 O   0  0  0  0  0  0  0  0  0  0  0  0
    3.0175    1.7998    3.2253 C   0  0  0  0  0  0  0  0  0  0  0  0
    3.9622    1.0640    3.9569 C   0  0  0  0  0  0  0  0  0  0  0  0
    4.4521    1.6194    5.1426 C   0  0  0  0  0  0  0  0  0  0  0  0
    4.0152    2.8587    5.5749 C   0  0  0  0  0  0  0  0  0  0  0  0
    3.0790    3.5789    4.8615 N   0  0  0  0  0  0  0  0  0  0  0  0
    2.6869    4.7038    5.2680 O   0  0  0  0  0  0  0  0  0  0  0  0
    2.5876    3.0338    3.6998 C   0  0  0  0  0  0  0  0  0  0  0  0
    4.1273   -1.7298   -0.1750 H   0  0  0  0  0  0  0  0  0  0  0  0
    2.6282   -2.0819   -1.0613 H   0  0  0  0  0  0  0  0  0  0  0  0
    2.6500   -2.1976    0.7133 H   0  0  0  0  0  0  0  0  0  0  0  0
    4.2110    0.6732   -1.2687 H   0  0  0  0  0  0  0  0  0  0  0  0
    2.8527    1.7680   -0.9746 H   0  0  0  0  0  0  0  0  0  0  0  0
    1.3999    0.3696   -2.4871 H   0  0  0  0  0  0  0  0  0  0  0  0
    2.7842   -0.6664   -2.8562 H   0  0  0  0  0  0  0  0  0  0  0  0
    4.5698    0.0777   -4.3523 H   0  0  0  0  0  0  0  0  0  0  0  0
    5.3063    1.6633   -6.1135 H   0  0  0  0  0  0  0  0  0  0  0  0
    4.0816    3.8113   -6.4583 H   0  0  0  0  0  0  0  0  0  0  0  0
    2.1114    4.3511   -5.0229 H   0  0  0  0  0  0  0  0  0  0  0  0
    1.3788    2.7643   -3.2626 H   0  0  0  0  0  0  0  0  0  0  0  0
    4.0446    0.2023    1.5071 H   0  0  0  0  0  0  0  0  0  0  0  0
    4.2830    0.0709    3.6394 H   0  0  0  0  0  0  0  0  0  0  0  0
    5.1817    1.0842    5.7541 H   0  0  0  0  0  0  0  0  0  0  0  0
    4.3481    3.3589    6.4835 H   0  0  0  0  0  0  0  0  0  0  0  0
    1.8387    3.6377    3.1901 H   0  0  0  0  0  0  0  0  0  0  0  0
  1  2  1  0
  1 22  1  0
  1 23  1  0
  1 24  1  0
  2  3  1  1
  2  4  1  0
  2 12  1  0
  4  5  1  0
  4 25  1  0
  4 26  1  0
  5  6  1  0
  5 27  1  0
  5 28  1  0
  6  7  2  0
  6 11  1  0
  7  8  1  0
  7 29  1  0
  8  9  2  0
  8 30  1  0
  9 10  1  0
  9 31  1  0
 10 11  2  0
 10 32  1  0
 11 33  1  0
 12 13  1  0
 12 34  1  0
 13 14  2  0
 13 15  1  0
 15 16  2  0
 15 21  1  0
 16 17  1  0
 16 35  1  0
 17 18  2  0
 17 36  1  0
 18 19  1  0
 18 37  1  0
 19 20  1  0
 19 21  2  0
 21 38  1  0
M  CHG  2  19   1  20  -1
M  END

