
     RDKit          3D

 48 53  0  0  0  0  0  0  0  0999 V2000
    3.1489   -1.4531    1.8896 O   0  0  0  0  0  0  0  0  0  0  0  0
    3.4117   -0.8836    0.6849 C   0  0  0  0  0  0  0  0  0  0  0  0
    4.0923    0.3367    0.5765 C   0  0  0  0  0  0  0  0  0  0  0  0
    4.2902    0.9275   -0.6724 C   0  0  0  0  0  0  0  0  0  0  0  0
    3.8020    0.3081   -1.8261 C   0  0  0  0  0  0  0  0  0  0  0  0
    3.1333   -0.9120   -1.7169 C   0  0  0  0  0  0  0  0  0  0  0  0
    2.9470   -1.5403   -0.4747 C   0  0  0  0  0  0  0  0  0  0  0  0
    2.1959   -2.8143   -0.4237 C   0  0  0  0  0  0  0  0  0  0  0  0
    0.9983   -2.9714   -0.9400 N   0  0  0  0  0  0  0  0  0  0  0  0
    0.6729   -4.2857   -0.7360 C   0  0  0  0  0  0  0  0  0  0  0  0
   -0.5522   -4.9378   -1.1082 C   0  0  0  0  0  0  0  0  0  0  0  0
   -1.5988   -4.2316   -1.7405 C   0  0  0  0  0  0  0  0  0  0  0  0
   -2.7756   -4.8770   -2.0809 C   0  0  0  0  0  0  0  0  0  0  0  0
   -2.9266   -6.2469   -1.7922 C   0  0  0  0  0  0  0  0  0  0  0  0
   -1.9042   -6.9509   -1.1733 C   0  0  0  0  0  0  0  0  0  0  0  0
   -0.6848   -6.3259   -0.8125 C   0  0  0  0  0  0  0  0  0  0  0  0
    0.4221   -7.0501   -0.1704 C   0  0  0  0  0  0  0  0  0  0  0  0
    0.3329   -8.4361    0.1004 C   0  0  0  0  0  0  0  0  0  0  0  0
    1.3717   -9.1452    0.6832 C   0  0  0  0  0  0  0  0  0  0  0  0
    2.5645   -8.4846    1.0188 C   0  0  0  0  0  0  0  0  0  0  0  0
    2.6932   -7.1266    0.7761 C   0  0  0  0  0  0  0  0  0  0  0  0
    1.6411   -6.3778    0.1931 C   0  0  0  0  0  0  0  0  0  0  0  0
    1.7059   -4.9652   -0.0913 C   0  0  0  0  0  0  0  0  0  0  0  0
    2.6925   -3.9988    0.1156 N   0  0  0  0  0  0  0  0  0  0  0  0
    4.0021   -4.1746    0.6675 C   0  0  0  0  0  0  0  0  0  0  0  0
    5.1123   -4.2122   -0.1837 C   0  0  0  0  0  0  0  0  0  0  0  0
    6.3928   -4.3884    0.3495 C   0  0  0  0  0  0  0  0  0  0  0  0
    6.5640   -4.5346    1.7286 C   0  0  0  0  0  0  0  0  0  0  0  0
    5.4517   -4.4951    2.5775 C   0  0  0  0  0  0  0  0  0  0  0  0
    4.1725   -4.3069    2.0517 C   0  0  0  0  0  0  0  0  0  0  0  0
    3.5300   -0.9125    2.5940 H   0  0  0  0  0  0  0  0  0  0  0  0
    4.4507    0.8318    1.4849 H   0  0  0  0  0  0  0  0  0  0  0  0
    4.8199    1.8812   -0.7384 H   0  0  0  0  0  0  0  0  0  0  0  0
    3.9407    0.7721   -2.8049 H   0  0  0  0  0  0  0  0  0  0  0  0
    2.7368   -1.4068   -2.6060 H   0  0  0  0  0  0  0  0  0  0  0  0
   -1.4498   -3.1698   -1.9457 H   0  0  0  0  0  0  0  0  0  0  0  0
   -3.5845   -4.3271   -2.5689 H   0  0  0  0  0  0  0  0  0  0  0  0
   -3.8539   -6.7621   -2.0556 H   0  0  0  0  0  0  0  0  0  0  0  0
   -2.0585   -8.0100   -0.9658 H   0  0  0  0  0  0  0  0  0  0  0  0
   -0.5778   -8.9752   -0.1603 H   0  0  0  0  0  0  0  0  0  0  0  0
    1.2610  -10.2157    0.8731 H   0  0  0  0  0  0  0  0  0  0  0  0
    3.3937   -9.0367    1.4685 H   0  0  0  0  0  0  0  0  0  0  0  0
    3.6262   -6.6316    1.0356 H   0  0  0  0  0  0  0  0  0  0  0  0
    4.9656   -4.1083   -1.2604 H   0  0  0  0  0  0  0  0  0  0  0  0
    7.2573   -4.4178   -0.3182 H   0  0  0  0  0  0  0  0  0  0  0  0
    7.5645   -4.6792    2.1440 H   0  0  0  0  0  0  0  0  0  0  0  0
    5.5821   -4.6071    3.6568 H   0  0  0  0  0  0  0  0  0  0  0  0
    3.2976   -4.2621    2.7016 H   0  0  0  0  0  0  0  0  0  0  0  0
  1  2  1  0
  1 31  1  0
  2  3  2  0
  2  7  1  0
  3  4  1  0
  3 32  1  0
  4  5  2  0
  4 33  1  0
  5  6  1  0
  5 34  1  0
  6  7  2  0
  6 35  1  0
  7  8  1  0
  8  9  2  0
  8 24  1  0
  9 10  1  0
 10 11  2  0
 10 23  1  0
 11 12  1  0
 11 16  1  0
 12 13  2  0
 12 36  1  0
 13 14  1  0
 13 37  1  0
 14 15  2  0
 14 38  1  0
 15 16  1  0
 15 39  1  0
 16 17  2  0
 17 18  1  0
 17 22  1  0
 18 19  2  0
 18 40  1  0
 19 20  1  0
 19 41  1  0
 20 21  2  0
 20 42  1  0
 21 22  1  0
 21 43  1  0
 22 23  2  0
 23 24  1  0
 24 25  1  0
 25 26  2  0
 25 30  1  0
 26 27  1  0
 26 44  1  0
 27 28  2  0
 27 45  1  0
 28 29  1  0
 28 46  1  0
 29 30  2  0
 29 47  1  0
 30 48  1  0
M  END

