
     RDKit          3D

 52 55  0  0  0  0  0  0  0  0999 V2000
    1.9537   -3.7471    2.5846 F   0  0  0  0  0  0  0  0  0  0  0  0
    3.1078   -3.1216    2.3302 C   0  0  0  0  0  0  0  0  0  0  0  0
    4.3036   -3.7439    2.6808 C   0  0  0  0  0  0  0  0  0  0  0  0
    5.4960   -3.0811    2.3990 C   0  0  0  0  0  0  0  0  0  0  0  0
    6.6529   -3.6599    2.7148 F   0  0  0  0  0  0  0  0  0  0  0  0
    5.5271   -1.8094    1.8017 C   0  0  0  0  0  0  0  0  0  0  0  0
    6.7167   -1.1826    1.6109 O   0  0  0  0  0  0  0  0  0  0  0  0
    7.0784   -0.8669    0.2629 C   0  0  0  0  0  0  0  0  0  0  0  0
    8.5044   -0.4387    0.2358 C   0  0  0  0  0  0  0  0  0  0  0  0
    8.9701    0.7189   -0.0999 N   0  0  0  0  0  0  0  0  0  0  0  0
   10.3461    0.5879    0.0286 C   0  0  0  0  0  0  0  0  0  0  0  0
   11.3945    1.5096   -0.1924 C   0  0  0  0  0  0  0  0  0  0  0  0
   11.0569    2.7440   -0.6122 O   0  0  0  0  0  0  0  0  0  0  0  0
   12.0644    3.7261   -0.8131 C   0  0  0  0  0  0  0  0  0  0  0  0
   11.3934    5.0150   -1.2583 C   0  0  0  0  0  0  0  0  0  0  0  0
   10.4440    5.6107   -0.2190 C   0  0  0  0  0  0  0  0  0  0  0  0
    9.8681    6.8599   -0.6949 N   0  0  0  0  0  0  0  0  0  0  0  0
    8.9758    7.5108    0.2509 C   0  0  0  0  0  0  0  0  0  0  0  0
    8.4623    8.8370   -0.2666 C   0  0  0  0  0  0  0  0  0  0  0  0
    9.2776    9.7012   -1.0105 C   0  0  0  0  0  0  0  0  0  0  0  0
    8.7620   10.9263   -1.4332 C   0  0  0  0  0  0  0  0  0  0  0  0
    7.4430   11.2497   -1.0966 C   0  0  0  0  0  0  0  0  0  0  0  0
    6.6499   10.4362   -0.3966 N   0  0  0  0  0  0  0  0  0  0  0  0
    7.1522    9.2647   -0.0011 C   0  0  0  0  0  0  0  0  0  0  0  0
   12.6983    1.0519    0.0465 C   0  0  0  0  0  0  0  0  0  0  0  0
   12.9456   -0.2669    0.4848 C   0  0  0  0  0  0  0  0  0  0  0  0
   11.9245   -1.1902    0.7072 C   0  0  0  0  0  0  0  0  0  0  0  0
   10.6378   -0.7127    0.4634 C   0  0  0  0  0  0  0  0  0  0  0  0
    9.4473   -1.3671    0.5877 O   0  0  0  0  0  0  0  0  0  0  0  0
    4.2888   -1.2333    1.4762 C   0  0  0  0  0  0  0  0  0  0  0  0
    4.2865   -0.0210    0.9070 F   0  0  0  0  0  0  0  0  0  0  0  0
    3.0748   -1.8674    1.7248 C   0  0  0  0  0  0  0  0  0  0  0  0
    4.3133   -4.7266    3.1525 H   0  0  0  0  0  0  0  0  0  0  0  0
    6.4726   -0.0398   -0.1343 H   0  0  0  0  0  0  0  0  0  0  0  0
    6.9394   -1.7584   -0.3755 H   0  0  0  0  0  0  0  0  0  0  0  0
   12.7808    3.3794   -1.5806 H   0  0  0  0  0  0  0  0  0  0  0  0
   12.6289    3.8809    0.1264 H   0  0  0  0  0  0  0  0  0  0  0  0
   10.8424    4.8150   -2.1945 H   0  0  0  0  0  0  0  0  0  0  0  0
   12.1750    5.7540   -1.5009 H   0  0  0  0  0  0  0  0  0  0  0  0
   11.0077    5.8258    0.7079 H   0  0  0  0  0  0  0  0  0  0  0  0
    9.6798    4.8523    0.0536 H   0  0  0  0  0  0  0  0  0  0  0  0
    9.3728    6.7003   -1.5732 H   0  0  0  0  0  0  0  0  0  0  0  0
    9.5487    7.6864    1.1817 H   0  0  0  0  0  0  0  0  0  0  0  0
    8.1106    6.8792    0.5526 H   0  0  0  0  0  0  0  0  0  0  0  0
   10.2973    9.3941   -1.2545 H   0  0  0  0  0  0  0  0  0  0  0  0
    9.3698   11.6237   -2.0152 H   0  0  0  0  0  0  0  0  0  0  0  0
    7.0099   12.2068   -1.4121 H   0  0  0  0  0  0  0  0  0  0  0  0
    6.4748    8.6108    0.5641 H   0  0  0  0  0  0  0  0  0  0  0  0
   13.5478    1.7173   -0.1055 H   0  0  0  0  0  0  0  0  0  0  0  0
   13.9821   -0.5689    0.6545 H   0  0  0  0  0  0  0  0  0  0  0  0
   12.1141   -2.2084    1.0471 H   0  0  0  0  0  0  0  0  0  0  0  0
    2.1322   -1.3885    1.4598 H   0  0  0  0  0  0  0  0  0  0  0  0
  1  2  1  0
  2  3  2  0
  2 32  1  0
  3  4  1  0
  3 33  1  0
  4  5  1  0
  4  6  2  0
  6  7  1  0
  6 30  1  0
  7  8  1  0
  8  9  1  0
  8 34  1  0
  8 35  1  0
  9 10  2  0
  9 29  1  0
 10 11  1  0
 11 12  2  0
 11 28  1  0
 12 13  1  0
 12 25  1  0
 13 14  1  0
 14 15  1  0
 14 36  1  0
 14 37  1  0
 15 16  1  0
 15 38  1  0
 15 39  1  0
 16 17  1  0
 16 40  1  0
 16 41  1  0
 17 18  1  0
 17 42  1  0
 18 19  1  0
 18 43  1  0
 18 44  1  0
 19 20  2  0
 19 24  1  0
 20 21  1  0
 20 45  1  0
 21 22  2  0
 21 46  1  0
 22 23  1  0
 22 47  1  0
 23 24  2  0
 24 48  1  0
 25 26  2  0
 25 49  1  0
 26 27  1  0
 26 50  1  0
 27 28  2  0
 27 51  1  0
 28 29  1  0
 30 31  1  0
 30 32  2  0
 32 52  1  0
M  END

