
     RDKit          3D

 36 37  0  0  0  0  0  0  0  0999 V2000
    1.0775    0.5646    0.0105 C   0  0  0  0  0  0  0  0  0  0  0  0
    2.4157   -0.2035   -0.0968 C   0  0  1  0  0  0  0  0  0  0  0  0
    2.1785   -1.4690   -0.9403 C   0  0  0  0  0  0  0  0  0  0  0  0
    3.4568    0.6751   -0.8289 C   0  0  0  0  0  0  0  0  0  0  0  0
    2.9267   -0.5340    1.3194 C   0  0  0  0  0  0  0  0  0  0  0  0
    3.1206   -1.8482    1.7731 C   0  0  0  0  0  0  0  0  0  0  0  0
    3.5729   -2.1449    3.0703 C   0  0  0  0  0  0  0  0  0  0  0  0
    3.8313   -1.0848    3.9262 C   0  0  0  0  0  0  0  0  0  0  0  0
    3.6478    0.2439    3.5077 C   0  0  0  0  0  0  0  0  0  0  0  0
    3.2084    0.5176    2.2220 C   0  0  0  0  0  0  0  0  0  0  0  0
    4.0693    1.1734    4.6313 C   0  0  1  0  0  0  0  0  0  0  0  0
    5.2608    1.8874    4.3298 O   0  0  0  0  0  0  0  0  0  0  0  0
    3.0659    2.2503    5.0702 C   0  0  0  0  0  0  0  0  0  0  0  0
    1.7366    1.7307    5.6088 C   0  0  0  0  0  0  0  0  0  0  0  0
    0.7053    1.7980    4.9958 O   0  0  0  0  0  0  0  0  0  0  0  0
    1.7792    1.1765    6.8367 O   0  0  0  0  0  0  0  0  0  0  0  0
    4.3444    0.1598    5.7931 C   0  0  0  0  0  0  0  0  0  0  0  0
    4.5518    0.4468    6.9573 O   0  0  0  0  0  0  0  0  0  0  0  0
    4.2772   -1.0998    5.2624 N   0  0  0  0  0  0  0  0  0  0  0  0
    0.6978    0.8168   -0.9933 H   0  0  0  0  0  0  0  0  0  0  0  0
    1.1845    1.5051    0.5720 H   0  0  0  0  0  0  0  0  0  0  0  0
    0.3136   -0.0416    0.5223 H   0  0  0  0  0  0  0  0  0  0  0  0
    1.8184   -1.1857   -1.9416 H   0  0  0  0  0  0  0  0  0  0  0  0
    1.4173   -2.1264   -0.4917 H   0  0  0  0  0  0  0  0  0  0  0  0
    3.1021   -2.0539   -1.0758 H   0  0  0  0  0  0  0  0  0  0  0  0
    3.1036    0.9247   -1.8427 H   0  0  0  0  0  0  0  0  0  0  0  0
    4.4208    0.1503   -0.9246 H   0  0  0  0  0  0  0  0  0  0  0  0
    3.6414    1.6235   -0.3014 H   0  0  0  0  0  0  0  0  0  0  0  0
    2.9141   -2.6872    1.1088 H   0  0  0  0  0  0  0  0  0  0  0  0
    3.7075   -3.1818    3.3864 H   0  0  0  0  0  0  0  0  0  0  0  0
    3.0736    1.5575    1.9165 H   0  0  0  0  0  0  0  0  0  0  0  0
    5.8562    1.2994    3.8441 H   0  0  0  0  0  0  0  0  0  0  0  0
    2.8538    2.8992    4.2109 H   0  0  0  0  0  0  0  0  0  0  0  0
    3.5804    2.8480    5.8401 H   0  0  0  0  0  0  0  0  0  0  0  0
    2.6895    1.1631    7.1896 H   0  0  0  0  0  0  0  0  0  0  0  0
    4.3889   -1.9326    5.8307 H   0  0  0  0  0  0  0  0  0  0  0  0
  2  1  1  1
  1 20  1  0
  1 21  1  0
  1 22  1  0
  2  3  1  0
  2  4  1  0
  2  5  1  0
  3 23  1  0
  3 24  1  0
  3 25  1  0
  4 26  1  0
  4 27  1  0
  4 28  1  0
  5  6  2  0
  5 10  1  0
  6  7  1  0
  6 29  1  0
  7  8  2  0
  7 30  1  0
  8  9  1  0
  8 19  1  0
  9 10  2  0
  9 11  1  0
 10 31  1  0
 11 12  1  6
 11 13  1  0
 11 17  1  0
 12 32  1  0
 13 14  1  0
 13 33  1  0
 13 34  1  0
 14 15  2  0
 14 16  1  0
 16 35  1  0
 17 18  2  0
 17 19  1  0
 19 36  1  0
M  END

