
     RDKit          3D

 49 51  0  0  0  0  0  0  0  0999 V2000
    1.2071   -2.2486   -0.3114 C   0  0  0  0  0  0  0  0  0  0  0  0
    1.9108   -0.9527    0.1480 C   0  0  1  0  0  0  0  0  0  0  0  0
    2.5901   -0.3363   -1.1263 C   0  0  1  0  0  0  0  0  0  0  0  0
    1.5372    0.2434   -1.9721 N   0  0  0  0  0  0  0  0  0  0  0  0
    1.8278    0.4579   -3.3348 N   0  0  0  0  0  0  0  0  0  0  0  0
    3.8254    0.6049   -0.9596 C   0  0  2  0  0  0  0  0  0  0  0  0
    5.1506   -0.1798   -0.6775 C   0  0  0  0  0  0  0  0  0  0  0  0
    6.0281    0.2781    0.5187 C   0  0  0  0  0  0  0  0  0  0  0  0
    5.5370    1.3795    1.2592 O   0  0  0  0  0  0  0  0  0  0  0  0
    4.8868    2.4171    0.5128 C   0  0  2  0  0  0  0  0  0  0  0  0
    5.8452    3.0781   -0.5019 C   0  0  0  0  0  0  0  0  0  0  0  0
    6.8357    3.8695    0.3728 C   0  0  0  0  0  0  0  0  0  0  0  0
    6.0352    4.2662    1.6466 C   0  0  0  0  0  0  0  0  0  0  0  0
    4.6667    3.5583    1.5175 C   0  0  0  0  0  0  0  0  0  0  0  0
    3.5924    1.8310   -0.0468 C   0  0  0  0  0  0  0  0  0  0  0  0
    0.8329   -0.0236    0.8265 C   0  0  0  0  0  0  0  0  0  0  0  0
    1.0651   -0.1034    2.3564 C   0  0  0  0  0  0  0  0  0  0  0  0
    1.9794   -1.3202    2.5669 C   0  0  0  0  0  0  0  0  0  0  0  0
    2.8754   -1.2863    1.3222 C   0  0  0  0  0  0  0  0  0  0  0  0
    0.5127   -2.0255   -1.1344 H   0  0  0  0  0  0  0  0  0  0  0  0
    0.6336   -2.7122    0.5059 H   0  0  0  0  0  0  0  0  0  0  0  0
    1.9394   -2.9916   -0.6695 H   0  0  0  0  0  0  0  0  0  0  0  0
    2.9708   -1.1940   -1.7099 H   0  0  0  0  0  0  0  0  0  0  0  0
    1.1742    1.1103   -1.5835 H   0  0  0  0  0  0  0  0  0  0  0  0
    1.7321   -0.4278   -3.8321 H   0  0  0  0  0  0  0  0  0  0  0  0
    2.7891    0.7858   -3.4874 H   0  0  0  0  0  0  0  0  0  0  0  0
    3.9693    1.0177   -1.9725 H   0  0  0  0  0  0  0  0  0  0  0  0
    5.7677   -0.1198   -1.5875 H   0  0  0  0  0  0  0  0  0  0  0  0
    4.9284   -1.2506   -0.5579 H   0  0  0  0  0  0  0  0  0  0  0  0
    7.0528    0.4947    0.1574 H   0  0  0  0  0  0  0  0  0  0  0  0
    6.1243   -0.5358    1.2543 H   0  0  0  0  0  0  0  0  0  0  0  0
    5.2564    3.7607   -1.1384 H   0  0  0  0  0  0  0  0  0  0  0  0
    6.3395    2.3625   -1.1765 H   0  0  0  0  0  0  0  0  0  0  0  0
    7.2497    4.7404   -0.1583 H   0  0  0  0  0  0  0  0  0  0  0  0
    7.6880    3.2285    0.6456 H   0  0  0  0  0  0  0  0  0  0  0  0
    5.9151    5.3571    1.7345 H   0  0  0  0  0  0  0  0  0  0  0  0
    6.5616    3.9311    2.5522 H   0  0  0  0  0  0  0  0  0  0  0  0
    3.9041    4.2433    1.1118 H   0  0  0  0  0  0  0  0  0  0  0  0
    4.2882    3.1615    2.4707 H   0  0  0  0  0  0  0  0  0  0  0  0
    3.0372    2.6050   -0.6026 H   0  0  0  0  0  0  0  0  0  0  0  0
    2.9748    1.5692    0.8242 H   0  0  0  0  0  0  0  0  0  0  0  0
   -0.1756   -0.3727    0.5578 H   0  0  0  0  0  0  0  0  0  0  0  0
    0.8877    1.0187    0.4813 H   0  0  0  0  0  0  0  0  0  0  0  0
    0.1245   -0.1639    2.9259 H   0  0  0  0  0  0  0  0  0  0  0  0
    1.5875    0.8024    2.7084 H   0  0  0  0  0  0  0  0  0  0  0  0
    1.3887   -2.2510    2.5988 H   0  0  0  0  0  0  0  0  0  0  0  0
    2.5515   -1.2716    3.5070 H   0  0  0  0  0  0  0  0  0  0  0  0
    3.4302   -2.2248    1.1574 H   0  0  0  0  0  0  0  0  0  0  0  0
    3.6144   -0.4852    1.4643 H   0  0  0  0  0  0  0  0  0  0  0  0
  2  1  1  6
  1 20  1  0
  1 21  1  0
  1 22  1  0
  2  3  1  0
  2 16  1  0
  2 19  1  0
  3  4  1  0
  3  6  1  0
  3 23  1  6
  4  5  1  0
  4 24  1  0
  5 25  1  0
  5 26  1  0
  6  7  1  0
  6 15  1  0
  6 27  1  6
  7  8  1  0
  7 28  1  0
  7 29  1  0
  8  9  1  0
  8 30  1  0
  8 31  1  0
 10  9  1  1
 10 11  1  0
 10 14  1  0
 10 15  1  0
 11 12  1  0
 11 32  1  0
 11 33  1  0
 12 13  1  0
 12 34  1  0
 12 35  1  0
 13 14  1  0
 13 36  1  0
 13 37  1  0
 14 38  1  0
 14 39  1  0
 15 40  1  0
 15 41  1  0
 16 17  1  0
 16 42  1  0
 16 43  1  0
 17 18  1  0
 17 44  1  0
 17 45  1  0
 18 19  1  0
 18 46  1  0
 18 47  1  0
 19 48  1  0
 19 49  1  0
M  END

