
     RDKit          3D

 44 46  0  0  0  0  0  0  0  0999 V2000
    4.7439    3.9831    2.7057 O   0  0  0  0  0  0  0  0  0  0  0  0
    3.9635    3.1411    3.0730 C   0  0  0  0  0  0  0  0  0  0  0  0
    3.9838    2.6311    4.2971 O   0  0  0  0  0  0  0  0  0  0  0  0
    2.8278    2.6060    2.1556 C   0  0  1  0  0  0  0  0  0  0  0  0
    2.8390    3.2634    0.7653 C   0  0  0  0  0  0  0  0  0  0  0  0
    2.5015    2.1327   -0.2151 C   0  0  0  0  0  0  0  0  0  0  0  0
    3.1336    0.9025    0.4413 C   0  0  0  0  0  0  0  0  0  0  0  0
    2.9310    1.1511    1.8746 N   0  0  0  0  0  0  0  0  0  0  0  0
    2.6405    0.2305    2.8267 C   0  0  0  0  0  0  0  0  0  0  0  0
    2.4135    0.5746    3.9954 O   0  0  0  0  0  0  0  0  0  0  0  0
    2.5953   -1.2353    2.4220 C   0  0  0  0  0  0  0  0  0  0  0  0
    2.4161   -2.1754    3.6134 C   0  0  0  0  0  0  0  0  0  0  0  0
    2.3616   -3.6630    3.2177 C   0  0  0  0  0  0  0  0  0  0  0  0
    3.6297   -4.1945    2.5826 C   0  0  0  0  0  0  0  0  0  0  0  0
    4.8214   -4.3047    3.3594 C   0  0  0  0  0  0  0  0  0  0  0  0
    5.9942   -4.7704    2.8081 C   0  0  0  0  0  0  0  0  0  0  0  0
    6.0585   -5.1602    1.4403 C   0  0  0  0  0  0  0  0  0  0  0  0
    7.2517   -5.6458    0.8368 C   0  0  0  0  0  0  0  0  0  0  0  0
    7.2711   -6.0172   -0.4918 C   0  0  0  0  0  0  0  0  0  0  0  0
    6.0943   -5.9200   -1.2772 C   0  0  0  0  0  0  0  0  0  0  0  0
    4.9215   -5.4531   -0.7204 C   0  0  0  0  0  0  0  0  0  0  0  0
    4.8680   -5.0603    0.6465 C   0  0  0  0  0  0  0  0  0  0  0  0
    3.6753   -4.5727    1.2527 C   0  0  0  0  0  0  0  0  0  0  0  0
    3.3076    1.9024    4.3735 H   0  0  0  0  0  0  0  0  0  0  0  0
    1.8792    2.7745    2.6961 H   0  0  0  0  0  0  0  0  0  0  0  0
    3.8457    3.6660    0.5823 H   0  0  0  0  0  0  0  0  0  0  0  0
    2.1369    4.1072    0.7092 H   0  0  0  0  0  0  0  0  0  0  0  0
    2.8872    2.3128   -1.2293 H   0  0  0  0  0  0  0  0  0  0  0  0
    1.4105    1.9900   -0.2909 H   0  0  0  0  0  0  0  0  0  0  0  0
    4.2123    0.8350    0.2096 H   0  0  0  0  0  0  0  0  0  0  0  0
    2.6643   -0.0397    0.1307 H   0  0  0  0  0  0  0  0  0  0  0  0
    3.5163   -1.4837    1.8681 H   0  0  0  0  0  0  0  0  0  0  0  0
    1.7696   -1.3736    1.6990 H   0  0  0  0  0  0  0  0  0  0  0  0
    1.4935   -1.9062    4.1506 H   0  0  0  0  0  0  0  0  0  0  0  0
    3.2340   -2.0040    4.3319 H   0  0  0  0  0  0  0  0  0  0  0  0
    1.5138   -3.8303    2.5318 H   0  0  0  0  0  0  0  0  0  0  0  0
    2.1419   -4.2487    4.1271 H   0  0  0  0  0  0  0  0  0  0  0  0
    4.7975   -4.0190    4.4150 H   0  0  0  0  0  0  0  0  0  0  0  0
    6.8958   -4.8510    3.4218 H   0  0  0  0  0  0  0  0  0  0  0  0
    8.1570   -5.7207    1.4456 H   0  0  0  0  0  0  0  0  0  0  0  0
    8.1941   -6.3887   -0.9441 H   0  0  0  0  0  0  0  0  0  0  0  0
    6.1205   -6.2185   -2.3284 H   0  0  0  0  0  0  0  0  0  0  0  0
    4.0135   -5.3799   -1.3258 H   0  0  0  0  0  0  0  0  0  0  0  0
    2.7717   -4.5060    0.6384 H   0  0  0  0  0  0  0  0  0  0  0  0
  1  2  2  0
  2  3  1  0
  2  4  1  0
  3 24  1  0
  4  5  1  0
  4  8  1  0
  4 25  1  1
  5  6  1  0
  5 26  1  0
  5 27  1  0
  6  7  1  0
  6 28  1  0
  6 29  1  0
  7  8  1  0
  7 30  1  0
  7 31  1  0
  8  9  1  0
  9 10  2  0
  9 11  1  0
 11 12  1  0
 11 32  1  0
 11 33  1  0
 12 13  1  0
 12 34  1  0
 12 35  1  0
 13 14  1  0
 13 36  1  0
 13 37  1  0
 14 15  2  0
 14 23  1  0
 15 16  1  0
 15 38  1  0
 16 17  2  0
 16 39  1  0
 17 18  1  0
 17 22  1  0
 18 19  2  0
 18 40  1  0
 19 20  1  0
 19 41  1  0
 20 21  2  0
 20 42  1  0
 21 22  1  0
 21 43  1  0
 22 23  2  0
 23 44  1  0
M  END

