
     RDKit          3D

 36 36  0  0  0  0  0  0  0  0999 V2000
    1.1648    0.1446   -0.1828 C   0  0  0  0  0  0  0  0  0  0  0  0
    2.5811    0.0469   -0.0397 O   0  0  0  0  0  0  0  0  0  0  0  0
    3.0358   -0.9691    0.7212 C   0  0  0  0  0  0  0  0  0  0  0  0
    2.3075   -1.7643    1.2641 O   0  0  0  0  0  0  0  0  0  0  0  0
    4.5481   -0.9610    0.7959 C   0  0  0  0  0  0  0  0  0  0  0  0
    5.1224   -2.0897    1.6479 C   0  0  0  0  0  0  0  0  0  0  0  0
    6.6509   -2.0673    1.7128 C   0  0  0  0  0  0  0  0  0  0  0  0
    7.2270   -3.1966    2.5633 C   0  0  0  0  0  0  0  0  0  0  0  0
    8.7492   -3.1887    2.6384 C   0  0  0  0  0  0  0  0  0  0  0  0
    9.3993   -2.3368    2.0594 O   0  0  0  0  0  0  0  0  0  0  0  0
    9.4337   -4.2544    3.4406 C   0  0  0  0  0  0  0  0  0  0  0  0
   10.8341   -4.2439    3.5043 C   0  0  0  0  0  0  0  0  0  0  0  0
   11.5346   -5.2063    4.2324 C   0  0  0  0  0  0  0  0  0  0  0  0
   10.8445   -6.2150    4.9236 C   0  0  0  0  0  0  0  0  0  0  0  0
   11.4074   -7.1942    5.6561 O   0  0  0  0  0  0  0  0  0  0  0  0
   12.8143   -7.2470    5.7741 C   0  0  0  0  0  0  0  0  0  0  0  0
    9.4339   -6.2184    4.8543 C   0  0  0  0  0  0  0  0  0  0  0  0
    8.7686   -7.1768    5.5103 F   0  0  0  0  0  0  0  0  0  0  0  0
    8.7375   -5.2657    4.1332 C   0  0  0  0  0  0  0  0  0  0  0  0
    0.9796    1.0150   -0.8245 H   0  0  0  0  0  0  0  0  0  0  0  0
    0.6790    0.2834    0.7952 H   0  0  0  0  0  0  0  0  0  0  0  0
    0.7526   -0.7643   -0.6473 H   0  0  0  0  0  0  0  0  0  0  0  0
    4.8578    0.0283    1.1765 H   0  0  0  0  0  0  0  0  0  0  0  0
    4.9331   -1.0012   -0.2382 H   0  0  0  0  0  0  0  0  0  0  0  0
    4.7724   -3.0565    1.2473 H   0  0  0  0  0  0  0  0  0  0  0  0
    4.6973   -2.0253    2.6642 H   0  0  0  0  0  0  0  0  0  0  0  0
    7.0014   -1.1010    2.1131 H   0  0  0  0  0  0  0  0  0  0  0  0
    7.0766   -2.1291    0.6970 H   0  0  0  0  0  0  0  0  0  0  0  0
    6.9026   -4.1794    2.1751 H   0  0  0  0  0  0  0  0  0  0  0  0
    6.8283   -3.1489    3.5933 H   0  0  0  0  0  0  0  0  0  0  0  0
   11.3663   -3.4581    2.9656 H   0  0  0  0  0  0  0  0  0  0  0  0
   12.6238   -5.1702    4.2609 H   0  0  0  0  0  0  0  0  0  0  0  0
   13.0396   -8.1109    6.4127 H   0  0  0  0  0  0  0  0  0  0  0  0
   13.2183   -6.3349    6.2475 H   0  0  0  0  0  0  0  0  0  0  0  0
   13.3009   -7.3885    4.7930 H   0  0  0  0  0  0  0  0  0  0  0  0
    7.6492   -5.3344    4.1273 H   0  0  0  0  0  0  0  0  0  0  0  0
  1  2  1  0
  1 20  1  0
  1 21  1  0
  1 22  1  0
  2  3  1  0
  3  4  2  0
  3  5  1  0
  5  6  1  0
  5 23  1  0
  5 24  1  0
  6  7  1  0
  6 25  1  0
  6 26  1  0
  7  8  1  0
  7 27  1  0
  7 28  1  0
  8  9  1  0
  8 29  1  0
  8 30  1  0
  9 10  2  0
  9 11  1  0
 11 12  2  0
 11 19  1  0
 12 13  1  0
 12 31  1  0
 13 14  2  0
 13 32  1  0
 14 15  1  0
 14 17  1  0
 15 16  1  0
 16 33  1  0
 16 34  1  0
 16 35  1  0
 17 18  1  0
 17 19  2  0
 19 36  1  0
M  END

