
     RDKit          3D

 41 42  0  0  0  0  0  0  0  0999 V2000
    1.0570   -0.1840    0.0152 C   0  0  0  0  0  0  0  0  0  0  0  0
    2.5463   -0.3166   -0.3317 C   0  0  1  0  0  0  0  0  0  0  0  0
    2.8468   -1.5193   -1.2507 C   0  0  0  0  0  0  0  0  0  0  0  0
    2.3674   -1.3081   -2.6947 C   0  0  0  0  0  0  0  0  0  0  0  0
    2.9420   -0.0166   -3.2923 C   0  0  0  0  0  0  0  0  0  0  0  0
    2.6468    1.1986   -2.4000 C   0  0  0  0  0  0  0  0  0  0  0  0
    3.1117    0.9940   -0.9474 C   0  0  2  0  0  0  0  0  0  0  0  0
    4.5721    1.0267   -0.8820 N   0  0  0  0  0  0  0  0  0  0  0  0
    5.2562    1.5579    0.1438 C   0  0  0  0  0  0  0  0  0  0  0  0
    4.7855    2.0828    1.1464 O   0  0  0  0  0  0  0  0  0  0  0  0
    6.7878    1.4515   -0.0532 C   0  0  0  0  0  0  0  0  0  0  0  0
    7.2791    0.9217   -1.0379 O   0  0  0  0  0  0  0  0  0  0  0  0
    7.4391    2.0131    0.9984 N   0  0  0  0  0  0  0  0  0  0  0  0
    8.8148    2.1359    1.2294 C   0  0  0  0  0  0  0  0  0  0  0  0
    9.7857    1.6514    0.3301 C   0  0  0  0  0  0  0  0  0  0  0  0
   11.1427    1.8075    0.6224 C   0  0  0  0  0  0  0  0  0  0  0  0
   11.5659    2.4371    1.7942 C   0  0  0  0  0  0  0  0  0  0  0  0
   10.5863    2.9079    2.6679 C   0  0  0  0  0  0  0  0  0  0  0  0
   11.0013    3.5809    3.9202 N   0  0  0  0  0  0  0  0  0  0  0  0
   12.1975    3.6920    4.1296 O   0  0  0  0  0  0  0  0  0  0  0  0
   10.1209    3.9824    4.6639 O   0  0  0  0  0  0  0  0  0  0  0  0
    9.2254    2.7714    2.4118 C   0  0  0  0  0  0  0  0  0  0  0  0
    0.6962   -1.0948    0.5192 H   0  0  0  0  0  0  0  0  0  0  0  0
    0.4223   -0.0283   -0.8712 H   0  0  0  0  0  0  0  0  0  0  0  0
    0.8853    0.6636    0.6981 H   0  0  0  0  0  0  0  0  0  0  0  0
    3.0837   -0.4685    0.6194 H   0  0  0  0  0  0  0  0  0  0  0  0
    2.3964   -2.4321   -0.8257 H   0  0  0  0  0  0  0  0  0  0  0  0
    3.9376   -1.6959   -1.2597 H   0  0  0  0  0  0  0  0  0  0  0  0
    1.2643   -1.2624   -2.7223 H   0  0  0  0  0  0  0  0  0  0  0  0
    2.6510   -2.1741   -3.3156 H   0  0  0  0  0  0  0  0  0  0  0  0
    2.5387    0.1568   -4.3035 H   0  0  0  0  0  0  0  0  0  0  0  0
    4.0345   -0.1314   -3.4263 H   0  0  0  0  0  0  0  0  0  0  0  0
    1.5603    1.3862   -2.3909 H   0  0  0  0  0  0  0  0  0  0  0  0
    3.1146    2.1098   -2.8079 H   0  0  0  0  0  0  0  0  0  0  0  0
    2.7730    1.8371   -0.3259 H   0  0  0  0  0  0  0  0  0  0  0  0
    5.1428    0.6264   -1.6229 H   0  0  0  0  0  0  0  0  0  0  0  0
    6.7927    2.3869    1.6957 H   0  0  0  0  0  0  0  0  0  0  0  0
    9.4611    1.1596   -0.5848 H   0  0  0  0  0  0  0  0  0  0  0  0
   11.8849    1.4273   -0.0833 H   0  0  0  0  0  0  0  0  0  0  0  0
   12.6183    2.5689    2.0411 H   0  0  0  0  0  0  0  0  0  0  0  0
    8.5074    3.1606    3.1342 H   0  0  0  0  0  0  0  0  0  0  0  0
  1  2  1  0
  1 23  1  0
  1 24  1  0
  1 25  1  0
  2  3  1  0
  2  7  1  0
  2 26  1  1
  3  4  1  0
  3 27  1  0
  3 28  1  0
  4  5  1  0
  4 29  1  0
  4 30  1  0
  5  6  1  0
  5 31  1  0
  5 32  1  0
  6  7  1  0
  6 33  1  0
  6 34  1  0
  7  8  1  0
  7 35  1  1
  8  9  1  0
  8 36  1  0
  9 10  2  0
  9 11  1  0
 11 12  2  0
 11 13  1  0
 13 14  1  0
 13 37  1  0
 14 15  2  0
 14 22  1  0
 15 16  1  0
 15 38  1  0
 16 17  2  0
 16 39  1  0
 17 18  1  0
 17 40  1  0
 18 19  1  0
 18 22  2  0
 19 20  2  0
 19 21  1  0
 22 41  1  0
M  CHG  2  19   1  21  -1
M  END

