
     RDKit          3D

 34 36  0  0  0  0  0  0  0  0999 V2000
    2.9358   -1.3365   -0.5251 O   0  0  0  0  0  0  0  0  0  0  0  0
    2.4635   -0.2118   -0.5167 C   0  0  0  0  0  0  0  0  0  0  0  0
    1.0120    0.1043   -0.2075 C   0  0  0  0  0  0  0  0  0  0  0  0
    0.0258   -0.7379   -0.9694 C   0  0  0  0  0  0  0  0  0  0  0  0
    0.1834   -2.0182   -1.4702 C   0  0  0  0  0  0  0  0  0  0  0  0
   -1.0351   -2.3195   -2.0548 N   0  0  0  0  0  0  0  0  0  0  0  0
   -1.6371   -3.3616   -2.7466 C   0  0  0  0  0  0  0  0  0  0  0  0
   -2.9146   -3.0715   -3.0966 C   0  0  0  0  0  0  0  0  0  0  0  0
   -3.4233   -1.4690   -2.5743 S   0  0  0  0  0  0  0  0  0  0  0  0
   -1.8400   -1.2121   -1.8653 C   0  0  0  0  0  0  0  0  0  0  0  0
   -1.2390   -0.2457   -1.2194 N   0  0  0  0  0  0  0  0  0  0  0  0
    3.2626    0.8858   -0.7232 N   0  0  0  0  0  0  0  0  0  0  0  0
    4.6323    0.7307   -0.9031 N   0  0  0  0  0  0  0  0  0  0  0  0
    5.0736    0.9158   -2.5966 S   0  0  1  0  0  0  0  0  0  0  0  0
    4.8396   -0.3022   -3.3737 O   0  0  0  0  0  0  0  0  0  0  0  0
    4.4639    2.1905   -2.9754 O   0  0  0  0  0  0  0  0  0  0  0  0
    6.8426    1.1289   -2.4043 C   0  0  0  0  0  0  0  0  0  0  0  0
    7.3420    2.3475   -1.9351 C   0  0  0  0  0  0  0  0  0  0  0  0
    8.7192    2.5014   -1.8051 C   0  0  0  0  0  0  0  0  0  0  0  0
    9.5872    1.4538   -2.1453 C   0  0  0  0  0  0  0  0  0  0  0  0
   11.2966    1.6865   -1.9696 Cl  0  0  0  0  0  0  0  0  0  0  0  0
    9.0692    0.2366   -2.6261 C   0  0  0  0  0  0  0  0  0  0  0  0
   10.1177   -1.0750   -3.0659 Cl  0  0  0  0  0  0  0  0  0  0  0  0
    7.6857    0.0766   -2.7573 C   0  0  0  0  0  0  0  0  0  0  0  0
    0.7799    1.1631   -0.3977 H   0  0  0  0  0  0  0  0  0  0  0  0
    0.8799   -0.0542    0.8798 H   0  0  0  0  0  0  0  0  0  0  0  0
    1.0324   -2.6933   -1.4559 H   0  0  0  0  0  0  0  0  0  0  0  0
   -1.0890   -4.2796   -2.9517 H   0  0  0  0  0  0  0  0  0  0  0  0
   -3.6029   -3.7142   -3.6411 H   0  0  0  0  0  0  0  0  0  0  0  0
    2.9321    1.8394   -0.6343 H   0  0  0  0  0  0  0  0  0  0  0  0
    4.8536   -0.2344   -0.6211 H   0  0  0  0  0  0  0  0  0  0  0  0
    6.6606    3.1619   -1.6856 H   0  0  0  0  0  0  0  0  0  0  0  0
    9.1439    3.4386   -1.4424 H   0  0  0  0  0  0  0  0  0  0  0  0
    7.2720   -0.8568   -3.1409 H   0  0  0  0  0  0  0  0  0  0  0  0
  1  2  2  0
  2  3  1  0
  2 12  1  0
  3  4  1  0
  3 25  1  0
  3 26  1  0
  4  5  2  0
  4 11  1  0
  5  6  1  0
  5 27  1  0
  6  7  1  0
  6 10  1  0
  7  8  2  0
  7 28  1  0
  8  9  1  0
  8 29  1  0
  9 10  1  0
 10 11  2  0
 12 13  1  0
 12 30  1  0
 14 13  1  1
 13 31  1  0
 14 15  2  0
 14 16  2  0
 14 17  1  0
 17 18  2  0
 17 24  1  0
 18 19  1  0
 18 32  1  0
 19 20  2  0
 19 33  1  0
 20 21  1  0
 20 22  1  0
 22 23  1  0
 22 24  2  0
 24 34  1  0
M  END

