
     RDKit          3D

 36 36  0  0  0  0  0  0  0  0999 V2000
    9.5074    1.6252    6.5586 C   0  0  0  0  0  0  0  0  0  0  0  0
    8.6829    1.7187    5.2725 C   0  0  0  0  0  0  0  0  0  0  0  0
    9.2174    0.8387    4.1214 C   0  0  1  0  0  0  0  0  0  0  0  0
    8.9856   -0.6589    4.3669 C   0  0  0  0  0  0  0  0  0  0  0  0
    8.6671    1.2571    2.7447 C   0  0  1  0  0  0  0  0  0  0  0  0
    7.2045    1.2529    2.7285 N   0  0  0  0  0  0  0  0  0  0  0  0
    6.4608    1.1810    1.6146 C   0  0  0  0  0  0  0  0  0  0  0  0
    6.9301    1.2444    0.4707 O   0  0  0  0  0  0  0  0  0  0  0  0
    4.9494    1.0185    1.8358 C   0  0  2  0  0  0  0  0  0  0  0  0
    4.6895    0.0701    1.3342 H   0  0  0  0  0  0  0  0  0  0  0  0
    4.1596    2.1942    1.2133 C   0  0  0  0  0  0  0  0  0  0  0  0
    3.9039    3.1109    2.4170 C   0  0  0  0  0  0  0  0  0  0  0  0
    3.6398    2.1078    3.5433 C   0  0  0  0  0  0  0  0  0  0  0  0
    4.5921    1.0176    3.2651 N   0  0  0  0  0  0  0  0  0  0  0  0
    9.2558    2.6049    2.2415 C   0  0  0  0  0  0  0  0  0  0  0  0
   10.0547    3.2499    2.8733 O   0  0  0  0  0  0  0  0  0  0  0  0
    8.8430    2.9735    1.0321 O   0  0  0  0  0  0  0  0  0  0  0  0
    9.0922    2.2798    7.3411 H   0  0  0  0  0  0  0  0  0  0  0  0
   10.5478    1.9417    6.3792 H   0  0  0  0  0  0  0  0  0  0  0  0
    9.5333    0.6024    6.9679 H   0  0  0  0  0  0  0  0  0  0  0  0
    8.6758    2.7672    4.9388 H   0  0  0  0  0  0  0  0  0  0  0  0
    7.6345    1.4446    5.4986 H   0  0  0  0  0  0  0  0  0  0  0  0
   10.3022    1.0204    4.0563 H   0  0  0  0  0  0  0  0  0  0  0  0
    7.9100   -0.9019    4.3931 H   0  0  0  0  0  0  0  0  0  0  0  0
    9.4202   -0.9807    5.3250 H   0  0  0  0  0  0  0  0  0  0  0  0
    9.4450   -1.2711    3.5742 H   0  0  0  0  0  0  0  0  0  0  0  0
    8.9933    0.5132    1.9930 H   0  0  0  0  0  0  0  0  0  0  0  0
    6.6607    1.2372    3.5931 H   0  0  0  0  0  0  0  0  0  0  0  0
    3.2038    1.8234    0.8097 H   0  0  0  0  0  0  0  0  0  0  0  0
    4.7094    2.6667    0.3881 H   0  0  0  0  0  0  0  0  0  0  0  0
    3.0677    3.8091    2.2651 H   0  0  0  0  0  0  0  0  0  0  0  0
    4.8023    3.7092    2.6429 H   0  0  0  0  0  0  0  0  0  0  0  0
    2.5878    1.7620    3.5021 H   0  0  0  0  0  0  0  0  0  0  0  0
    3.8065    2.5344    4.5459 H   0  0  0  0  0  0  0  0  0  0  0  0
    4.2594    0.1132    3.5871 H   0  0  0  0  0  0  0  0  0  0  0  0
    8.2070    2.3089    0.6480 H   0  0  0  0  0  0  0  0  0  0  0  0
  1  2  1  0
  1 18  1  0
  1 19  1  0
  1 20  1  0
  2  3  1  0
  2 21  1  0
  2 22  1  0
  3  4  1  0
  3  5  1  0
  3 23  1  6
  4 24  1  0
  4 25  1  0
  4 26  1  0
  5  6  1  0
  5 15  1  0
  5 27  1  6
  6  7  1  0
  6 28  1  0
  7  8  2  0
  7  9  1  0
  9 10  1  6
  9 11  1  0
  9 14  1  0
 11 12  1  0
 11 29  1  0
 11 30  1  0
 12 13  1  0
 12 31  1  0
 12 32  1  0
 13 14  1  0
 13 33  1  0
 13 34  1  0
 14 35  1  0
 15 16  2  0
 15 17  1  0
 17 36  1  0
M  END

