
     RDKit          3D

 45 46  0  0  0  0  0  0  0  0999 V2000
    3.9462   -0.1418    3.0102 C   0  0  0  0  0  0  0  0  0  0  0  0
    2.8179    0.8646    3.2563 C   0  0  0  0  0  0  0  0  0  0  0  0
    3.1070    2.2020    2.7654 N   0  0  0  0  0  0  0  0  0  0  0  0
    3.5125    3.1976    3.6151 C   0  0  0  0  0  0  0  0  0  0  0  0
    3.9689    4.4045    3.1811 C   0  0  0  0  0  0  0  0  0  0  0  0
    4.1274    4.5865    1.7517 C   0  0  0  0  0  0  0  0  0  0  0  0
    3.6631    3.6674    0.8785 C   0  0  0  0  0  0  0  0  0  0  0  0
    2.8205    2.4916    1.3433 C   0  0  2  0  0  0  0  0  0  0  0  0
    1.3435    2.7435    1.1075 C   0  0  0  0  0  0  0  0  0  0  0  0
    0.5709    2.0280    0.2631 C   0  0  0  0  0  0  0  0  0  0  0  0
   -0.8301    2.2793   -0.0090 C   0  0  0  0  0  0  0  0  0  0  0  0
   -1.5768    1.5376   -0.8640 C   0  0  0  0  0  0  0  0  0  0  0  0
   -2.9866    1.7027   -1.2062 C   0  0  0  0  0  0  0  0  0  0  0  0
   -3.8155    2.7102   -0.6678 C   0  0  0  0  0  0  0  0  0  0  0  0
   -5.1526    2.8327   -1.0203 C   0  0  0  0  0  0  0  0  0  0  0  0
   -5.7560    1.9424   -1.9482 C   0  0  0  0  0  0  0  0  0  0  0  0
   -7.0863    2.0620   -2.3028 N   0  0  0  0  0  0  0  0  0  0  0  0
   -7.6698    1.1348   -3.2495 C   0  0  0  0  0  0  0  0  0  0  0  0
   -7.9043    3.1042   -1.7182 C   0  0  0  0  0  0  0  0  0  0  0  0
   -4.9292    0.9277   -2.4920 C   0  0  0  0  0  0  0  0  0  0  0  0
   -3.5918    0.8225   -2.1256 C   0  0  0  0  0  0  0  0  0  0  0  0
    3.6639   -1.1403    3.3825 H   0  0  0  0  0  0  0  0  0  0  0  0
    4.8701    0.1700    3.5223 H   0  0  0  0  0  0  0  0  0  0  0  0
    4.1729   -0.2375    1.9362 H   0  0  0  0  0  0  0  0  0  0  0  0
    2.6123    0.9317    4.3375 H   0  0  0  0  0  0  0  0  0  0  0  0
    1.8838    0.5078    2.7878 H   0  0  0  0  0  0  0  0  0  0  0  0
    3.4698    2.9450    4.6794 H   0  0  0  0  0  0  0  0  0  0  0  0
    4.2777    5.1679    3.8946 H   0  0  0  0  0  0  0  0  0  0  0  0
    4.6769    5.4584    1.3830 H   0  0  0  0  0  0  0  0  0  0  0  0
    3.8214    3.7660   -0.1982 H   0  0  0  0  0  0  0  0  0  0  0  0
    3.0976    1.5957    0.7567 H   0  0  0  0  0  0  0  0  0  0  0  0
    0.9166    3.5944    1.6527 H   0  0  0  0  0  0  0  0  0  0  0  0
    1.0269    1.1852   -0.2757 H   0  0  0  0  0  0  0  0  0  0  0  0
   -1.2830    3.1240    0.5224 H   0  0  0  0  0  0  0  0  0  0  0  0
   -1.0758    0.7042   -1.3726 H   0  0  0  0  0  0  0  0  0  0  0  0
   -3.4049    3.4238    0.0505 H   0  0  0  0  0  0  0  0  0  0  0  0
   -5.7365    3.6333   -0.5674 H   0  0  0  0  0  0  0  0  0  0  0  0
   -7.6290    0.0887   -2.8918 H   0  0  0  0  0  0  0  0  0  0  0  0
   -7.1635    1.1678   -4.2322 H   0  0  0  0  0  0  0  0  0  0  0  0
   -8.7248    1.3917   -3.4097 H   0  0  0  0  0  0  0  0  0  0  0  0
   -7.9694    3.0183   -0.6173 H   0  0  0  0  0  0  0  0  0  0  0  0
   -8.9240    3.0350   -2.1183 H   0  0  0  0  0  0  0  0  0  0  0  0
   -7.5217    4.1159   -1.9491 H   0  0  0  0  0  0  0  0  0  0  0  0
   -5.3312    0.2120   -3.2081 H   0  0  0  0  0  0  0  0  0  0  0  0
   -2.9886    0.0247   -2.5695 H   0  0  0  0  0  0  0  0  0  0  0  0
  1  2  1  0
  1 22  1  0
  1 23  1  0
  1 24  1  0
  2  3  1  0
  2 25  1  0
  2 26  1  0
  3  4  1  0
  3  8  1  0
  4  5  2  0
  4 27  1  0
  5  6  1  0
  5 28  1  0
  6  7  2  0
  6 29  1  0
  7  8  1  0
  7 30  1  0
  8  9  1  0
  8 31  1  6
  9 10  2  0
  9 32  1  0
 10 11  1  0
 10 33  1  0
 11 12  2  0
 11 34  1  0
 12 13  1  0
 12 35  1  0
 13 14  2  0
 13 21  1  0
 14 15  1  0
 14 36  1  0
 15 16  2  0
 15 37  1  0
 16 17  1  0
 16 20  1  0
 17 18  1  0
 17 19  1  0
 18 38  1  0
 18 39  1  0
 18 40  1  0
 19 41  1  0
 19 42  1  0
 19 43  1  0
 20 21  2  0
 20 44  1  0
 21 45  1  0
M  END

