
     RDKit          3D

 73 74  0  0  0  0  0  0  0  0999 V2000
    5.9607    8.7798    2.2009 C   0  0  0  0  0  0  0  0  0  0  0  0
    7.1592    8.2690    1.4000 C   0  0  0  0  0  0  0  0  0  0  0  0
    6.8716    6.9843    0.6168 C   0  0  0  0  0  0  0  0  0  0  0  0
    8.0668    6.4666   -0.1887 C   0  0  0  0  0  0  0  0  0  0  0  0
    7.7789    5.1817   -0.9708 C   0  0  0  0  0  0  0  0  0  0  0  0
    8.9745    4.6675   -1.7773 C   0  0  0  0  0  0  0  0  0  0  0  0
    8.6790    3.3773   -2.5604 C   0  0  0  0  0  0  0  0  0  0  0  0
    9.8638    2.8497   -3.3175 C   0  0  0  0  0  0  0  0  0  0  0  0
    9.8868    2.6689   -4.6414 C   0  0  0  0  0  0  0  0  0  0  0  0
   10.9616    2.0997   -5.2703 O   0  0  0  0  0  0  0  0  0  0  0  0
   11.2635    2.4332   -6.5589 C   0  0  0  0  0  0  0  0  0  0  0  0
   10.8632    3.6349   -7.1622 C   0  0  0  0  0  0  0  0  0  0  0  0
   11.2306    3.8984   -8.4816 C   0  0  0  0  0  0  0  0  0  0  0  0
   12.0045    2.9856   -9.2164 C   0  0  0  0  0  0  0  0  0  0  0  0
   12.3919    3.2759  -10.6176 C   0  0  0  0  0  0  0  0  0  0  0  0
   11.9729    4.4310  -11.1619 N   0  0  0  0  0  0  0  0  0  0  0  0
   12.3300    4.6854  -12.4160 C   0  0  0  0  0  0  0  0  0  0  0  0
   13.1130    3.8132  -13.1864 C   0  0  0  0  0  0  0  0  0  0  0  0
   13.5458    4.1285  -14.5949 C   0  0  0  0  0  0  0  0  0  0  0  0
   14.8912    4.8742  -14.6748 C   0  0  0  0  0  0  0  0  0  0  0  0
   15.3264    5.1909  -16.1081 C   0  0  0  0  0  0  0  0  0  0  0  0
   16.6646    5.9318  -16.1966 C   0  0  0  0  0  0  0  0  0  0  0  0
   17.0935    6.2412  -17.6350 C   0  0  0  0  0  0  0  0  0  0  0  0
   18.3866    7.0662  -17.7876 C   0  0  1  0  0  0  0  0  0  0  0  0
   18.2597    7.9921  -17.1920 H   0  0  0  0  0  0  0  0  0  0  0  0
   19.6144    6.3228  -17.2427 C   0  0  0  0  0  0  0  0  0  0  0  0
   18.5738    7.4909  -19.2583 C   0  0  0  0  0  0  0  0  0  0  0  0
   19.7110    8.4813  -19.5186 C   0  0  0  0  0  0  0  0  0  0  0  0
   13.4841    2.6358  -12.5207 C   0  0  0  0  0  0  0  0  0  0  0  0
   13.1369    2.3654  -11.2672 N   0  0  0  0  0  0  0  0  0  0  0  0
   12.4098    1.7909   -8.5900 C   0  0  0  0  0  0  0  0  0  0  0  0
   12.0444    1.5146   -7.2782 C   0  0  0  0  0  0  0  0  0  0  0  0
    6.2036    9.7033    2.7506 H   0  0  0  0  0  0  0  0  0  0  0  0
    5.6236    8.0325    2.9390 H   0  0  0  0  0  0  0  0  0  0  0  0
    5.1032    9.0005    1.5430 H   0  0  0  0  0  0  0  0  0  0  0  0
    8.0114    8.0945    2.0821 H   0  0  0  0  0  0  0  0  0  0  0  0
    7.4954    9.0539    0.6979 H   0  0  0  0  0  0  0  0  0  0  0  0
    6.0186    7.1577   -0.0661 H   0  0  0  0  0  0  0  0  0  0  0  0
    6.5358    6.1978    1.3185 H   0  0  0  0  0  0  0  0  0  0  0  0
    8.9195    6.2941    0.4942 H   0  0  0  0  0  0  0  0  0  0  0  0
    8.4017    7.2530   -0.8906 H   0  0  0  0  0  0  0  0  0  0  0  0
    6.9252    5.3535   -1.6529 H   0  0  0  0  0  0  0  0  0  0  0  0
    7.4459    4.3939   -0.2694 H   0  0  0  0  0  0  0  0  0  0  0  0
    9.8280    4.4916   -1.0968 H   0  0  0  0  0  0  0  0  0  0  0  0
    9.3105    5.4478   -2.4836 H   0  0  0  0  0  0  0  0  0  0  0  0
    7.8378    3.5504   -3.2548 H   0  0  0  0  0  0  0  0  0  0  0  0
    8.3283    2.6071   -1.8467 H   0  0  0  0  0  0  0  0  0  0  0  0
   10.7664    2.5935   -2.7504 H   0  0  0  0  0  0  0  0  0  0  0  0
    9.0334    2.9017   -5.2901 H   0  0  0  0  0  0  0  0  0  0  0  0
   10.2872    4.3705   -6.5986 H   0  0  0  0  0  0  0  0  0  0  0  0
   10.9276    4.8297   -8.9622 H   0  0  0  0  0  0  0  0  0  0  0  0
   11.9730    5.6309  -12.8467 H   0  0  0  0  0  0  0  0  0  0  0  0
   12.7673    4.7354  -15.0890 H   0  0  0  0  0  0  0  0  0  0  0  0
   13.6188    3.1910  -15.1730 H   0  0  0  0  0  0  0  0  0  0  0  0
   15.6691    4.2694  -14.1750 H   0  0  0  0  0  0  0  0  0  0  0  0
   14.8201    5.8103  -14.0922 H   0  0  0  0  0  0  0  0  0  0  0  0
   14.5410    5.7915  -16.6036 H   0  0  0  0  0  0  0  0  0  0  0  0
   15.3909    4.2500  -16.6858 H   0  0  0  0  0  0  0  0  0  0  0  0
   17.4384    5.3296  -15.6893 H   0  0  0  0  0  0  0  0  0  0  0  0
   16.5958    6.8765  -15.6255 H   0  0  0  0  0  0  0  0  0  0  0  0
   16.2718    6.7862  -18.1343 H   0  0  0  0  0  0  0  0  0  0  0  0
   17.2051    5.2930  -18.1951 H   0  0  0  0  0  0  0  0  0  0  0  0
   19.4978    6.0608  -16.1800 H   0  0  0  0  0  0  0  0  0  0  0  0
   20.5290    6.9295  -17.3246 H   0  0  0  0  0  0  0  0  0  0  0  0
   19.7845    5.3855  -17.8012 H   0  0  0  0  0  0  0  0  0  0  0  0
   17.6277    7.9374  -19.6125 H   0  0  0  0  0  0  0  0  0  0  0  0
   18.7246    6.5844  -19.8743 H   0  0  0  0  0  0  0  0  0  0  0  0
   19.5931    9.3947  -18.9110 H   0  0  0  0  0  0  0  0  0  0  0  0
   19.7316    8.7890  -20.5764 H   0  0  0  0  0  0  0  0  0  0  0  0
   20.6993    8.0546  -19.2856 H   0  0  0  0  0  0  0  0  0  0  0  0
   14.0865    1.8768  -13.0385 H   0  0  0  0  0  0  0  0  0  0  0  0
   13.0133    1.0826   -9.1590 H   0  0  0  0  0  0  0  0  0  0  0  0
   12.3480    0.5891   -6.7851 H   0  0  0  0  0  0  0  0  0  0  0  0
  1  2  1  0
  1 33  1  0
  1 34  1  0
  1 35  1  0
  2  3  1  0
  2 36  1  0
  2 37  1  0
  3  4  1  0
  3 38  1  0
  3 39  1  0
  4  5  1  0
  4 40  1  0
  4 41  1  0
  5  6  1  0
  5 42  1  0
  5 43  1  0
  6  7  1  0
  6 44  1  0
  6 45  1  0
  7  8  1  0
  7 46  1  0
  7 47  1  0
  8  9  2  0
  8 48  1  0
  9 10  1  0
  9 49  1  0
 10 11  1  0
 11 12  2  0
 11 32  1  0
 12 13  1  0
 12 50  1  0
 13 14  2  0
 13 51  1  0
 14 15  1  0
 14 31  1  0
 15 16  2  0
 15 30  1  0
 16 17  1  0
 17 18  2  0
 17 52  1  0
 18 19  1  0
 18 29  1  0
 19 20  1  0
 19 53  1  0
 19 54  1  0
 20 21  1  0
 20 55  1  0
 20 56  1  0
 21 22  1  0
 21 57  1  0
 21 58  1  0
 22 23  1  0
 22 59  1  0
 22 60  1  0
 23 24  1  0
 23 61  1  0
 23 62  1  0
 24 25  1  1
 24 26  1  0
 24 27  1  0
 26 63  1  0
 26 64  1  0
 26 65  1  0
 27 28  1  0
 27 66  1  0
 27 67  1  0
 28 68  1  0
 28 69  1  0
 28 70  1  0
 29 30  2  0
 29 71  1  0
 31 32  2  0
 31 72  1  0
 32 73  1  0
M  END

