
     RDKit          3D

 46 48  0  0  0  0  0  0  0  0999 V2000
    3.0742    0.9448    1.1324 C   0  0  0  0  0  0  0  0  0  0  0  0
    2.6415   -0.1194    0.1220 C   0  0  1  0  0  0  0  0  0  0  0  0
    1.5389   -0.2045    0.1593 H   0  0  0  0  0  0  0  0  0  0  0  0
    3.0278    0.2495   -1.3197 C   0  0  0  0  0  0  0  0  0  0  0  0
    2.4631   -0.7361   -2.3517 C   0  0  0  0  0  0  0  0  0  0  0  0
    2.6616   -2.1710   -1.9253 C   0  0  0  0  0  0  0  0  0  0  0  0
    2.9957   -2.4877   -0.6308 C   0  0  0  0  0  0  0  0  0  0  0  0
    3.1398   -4.2062   -0.4078 S   0  0  0  0  0  0  0  0  0  0  0  0
    2.7252   -4.5103   -2.0819 C   0  0  0  0  0  0  0  0  0  0  0  0
    2.6060   -5.8540   -2.4929 N   0  0  0  0  0  0  0  0  0  0  0  0
    3.4696   -6.5304   -3.3259 C   0  0  0  0  0  0  0  0  0  0  0  0
    4.3784   -5.9654   -3.9167 O   0  0  0  0  0  0  0  0  0  0  0  0
    3.1842   -8.0337   -3.4487 C   0  0  1  0  0  0  0  0  0  0  0  0
    1.7796   -8.3204   -4.0386 C   0  0  0  0  0  0  0  0  0  0  0  0
    1.7014   -8.0058   -5.5376 C   0  0  0  0  0  0  0  0  0  0  0  0
    2.7709   -8.7768   -6.3220 C   0  0  0  0  0  0  0  0  0  0  0  0
    4.1771   -8.5011   -5.7744 C   0  0  0  0  0  0  0  0  0  0  0  0
    4.2715   -8.7598   -4.2629 C   0  0  0  0  0  0  0  0  0  0  0  0
    2.5032   -3.3331   -2.7682 C   0  0  0  0  0  0  0  0  0  0  0  0
    2.0480   -3.1958   -4.1975 C   0  0  0  0  0  0  0  0  0  0  0  0
    2.6637   -4.0061   -5.0978 N   0  0  0  0  0  0  0  0  0  0  0  0
    1.1863   -2.3848   -4.5047 O   0  0  0  0  0  0  0  0  0  0  0  0
    3.2223   -1.5016    0.4813 C   0  0  0  0  0  0  0  0  0  0  0  0
    4.1677    1.0913    1.1101 H   0  0  0  0  0  0  0  0  0  0  0  0
    2.7970    0.6618    2.1613 H   0  0  0  0  0  0  0  0  0  0  0  0
    2.6036    1.9168    0.9140 H   0  0  0  0  0  0  0  0  0  0  0  0
    4.1312    0.2765   -1.3928 H   0  0  0  0  0  0  0  0  0  0  0  0
    2.6765    1.2684   -1.5529 H   0  0  0  0  0  0  0  0  0  0  0  0
    2.9220   -0.5659   -3.3385 H   0  0  0  0  0  0  0  0  0  0  0  0
    1.3855   -0.5619   -2.5107 H   0  0  0  0  0  0  0  0  0  0  0  0
    1.9133   -6.4122   -2.0038 H   0  0  0  0  0  0  0  0  0  0  0  0
    3.2019   -8.4253   -2.4145 H   0  0  0  0  0  0  0  0  0  0  0  0
    0.9991   -7.7672   -3.4902 H   0  0  0  0  0  0  0  0  0  0  0  0
    1.5624   -9.3917   -3.8806 H   0  0  0  0  0  0  0  0  0  0  0  0
    1.8323   -6.9193   -5.6922 H   0  0  0  0  0  0  0  0  0  0  0  0
    0.6944   -8.2511   -5.9144 H   0  0  0  0  0  0  0  0  0  0  0  0
    2.7208   -8.5172   -7.3928 H   0  0  0  0  0  0  0  0  0  0  0  0
    2.5533   -9.8595   -6.2558 H   0  0  0  0  0  0  0  0  0  0  0  0
    4.4522   -7.4531   -5.9720 H   0  0  0  0  0  0  0  0  0  0  0  0
    4.9190   -9.1260   -6.2994 H   0  0  0  0  0  0  0  0  0  0  0  0
    5.2666   -8.4700   -3.8927 H   0  0  0  0  0  0  0  0  0  0  0  0
    4.1607   -9.8421   -4.0713 H   0  0  0  0  0  0  0  0  0  0  0  0
    3.4802   -4.5631   -4.8423 H   0  0  0  0  0  0  0  0  0  0  0  0
    2.4144   -3.8857   -6.0729 H   0  0  0  0  0  0  0  0  0  0  0  0
    4.3070   -1.4004    0.6799 H   0  0  0  0  0  0  0  0  0  0  0  0
    2.7765   -1.8682    1.4221 H   0  0  0  0  0  0  0  0  0  0  0  0
  1  2  1  0
  1 24  1  0
  1 25  1  0
  1 26  1  0
  2  3  1  6
  2  4  1  0
  2 23  1  0
  4  5  1  0
  4 27  1  0
  4 28  1  0
  5  6  1  0
  5 29  1  0
  5 30  1  0
  6  7  2  0
  6 19  1  0
  7  8  1  0
  7 23  1  0
  8  9  2  0
  9 10  1  0
  9 19  1  0
 10 11  1  0
 10 31  1  0
 11 12  2  0
 11 13  1  0
 13 14  1  0
 13 18  1  0
 13 32  1  1
 14 15  1  0
 14 33  1  0
 14 34  1  0
 15 16  1  0
 15 35  1  0
 15 36  1  0
 16 17  1  0
 16 37  1  0
 16 38  1  0
 17 18  1  0
 17 39  1  0
 17 40  1  0
 18 41  1  0
 18 42  1  0
 19 20  2  0
 20 21  1  0
 20 22  1  0
 21 43  1  0
 21 44  1  0
 23 45  1  0
 23 46  1  0
M  CHG  2   8   1  22  -1
M  END

