
     RDKit          3D

 44 48  0  0  0  0  0  0  0  0999 V2000
    2.9747   -0.8193    1.8839 C   0  0  0  0  0  0  0  0  0  0  0  0
    2.9687   -0.4362    0.4141 C   0  0  0  0  0  0  0  0  0  0  0  0
    3.4491   -1.5111   -0.4227 O   0  0  0  0  0  0  0  0  0  0  0  0
    4.7680   -1.6359   -0.5804 C   0  0  0  0  0  0  0  0  0  0  0  0
    5.5932   -0.8704   -0.1402 O   0  0  0  0  0  0  0  0  0  0  0  0
    5.1000   -2.8479   -1.4152 C   0  0  0  0  0  0  0  0  0  0  0  0
    4.7344   -4.1016   -1.0167 C   0  0  0  0  0  0  0  0  0  0  0  0
    5.0328   -5.2374   -1.8245 C   0  0  0  0  0  0  0  0  0  0  0  0
    4.5349   -6.3887   -1.1777 C   0  0  0  0  0  0  0  0  0  0  0  0
    4.6837   -7.6275   -1.7755 C   0  0  0  0  0  0  0  0  0  0  0  0
    5.3407   -7.6546   -3.0227 C   0  0  0  0  0  0  0  0  0  0  0  0
    5.8309   -6.5104   -3.6548 C   0  0  0  0  0  0  0  0  0  0  0  0
    6.6084   -6.8101   -5.2062 Cl  0  0  0  0  0  0  0  0  0  0  0  0
    5.6943   -5.2144   -3.0610 C   0  0  0  0  0  0  0  0  0  0  0  0
    6.1274   -3.8791   -3.5075 C   0  0  0  0  0  0  0  0  0  0  0  0
    6.8150   -3.6551   -4.7015 C   0  0  0  0  0  0  0  0  0  0  0  0
    7.2396   -2.3762   -5.1183 C   0  0  0  0  0  0  0  0  0  0  0  0
    7.9428   -2.1745   -6.3442 C   0  0  0  0  0  0  0  0  0  0  0  0
    8.3503   -0.9150   -6.7196 C   0  0  0  0  0  0  0  0  0  0  0  0
    8.0783    0.2101   -5.8899 C   0  0  0  0  0  0  0  0  0  0  0  0
    7.4029    0.0514   -4.7023 C   0  0  0  0  0  0  0  0  0  0  0  0
    6.9634   -1.2417   -4.2846 C   0  0  0  0  0  0  0  0  0  0  0  0
    6.2676   -1.4495   -3.0808 C   0  0  0  0  0  0  0  0  0  0  0  0
    5.8359   -2.7147   -2.6661 C   0  0  0  0  0  0  0  0  0  0  0  0
    3.9478   -6.0046    0.0281 N   0  0  0  0  0  0  0  0  0  0  0  0
    3.3554   -6.8938    0.9986 C   0  0  0  0  0  0  0  0  0  0  0  0
    4.0431   -4.6146    0.2149 C   0  0  0  0  0  0  0  0  0  0  0  0
    3.6548   -4.0231    1.2008 O   0  0  0  0  0  0  0  0  0  0  0  0
    2.5046   -0.0157    2.4738 H   0  0  0  0  0  0  0  0  0  0  0  0
    4.0026   -0.9602    2.2474 H   0  0  0  0  0  0  0  0  0  0  0  0
    2.4236   -1.7560    2.0466 H   0  0  0  0  0  0  0  0  0  0  0  0
    3.5855    0.4564    0.2312 H   0  0  0  0  0  0  0  0  0  0  0  0
    1.9480   -0.2482    0.0516 H   0  0  0  0  0  0  0  0  0  0  0  0
    4.3184   -8.5510   -1.3239 H   0  0  0  0  0  0  0  0  0  0  0  0
    5.4786   -8.6111   -3.5293 H   0  0  0  0  0  0  0  0  0  0  0  0
    7.0450   -4.4945   -5.3502 H   0  0  0  0  0  0  0  0  0  0  0  0
    8.1528   -3.0391   -6.9794 H   0  0  0  0  0  0  0  0  0  0  0  0
    8.8883   -0.7714   -7.6600 H   0  0  0  0  0  0  0  0  0  0  0  0
    8.4113    1.2026   -6.2034 H   0  0  0  0  0  0  0  0  0  0  0  0
    7.1929    0.9113   -4.0608 H   0  0  0  0  0  0  0  0  0  0  0  0
    6.0822   -0.5897   -2.4372 H   0  0  0  0  0  0  0  0  0  0  0  0
    4.0891   -7.6312    1.3661 H   0  0  0  0  0  0  0  0  0  0  0  0
    2.4944   -7.4357    0.5722 H   0  0  0  0  0  0  0  0  0  0  0  0
    3.0116   -6.2809    1.8424 H   0  0  0  0  0  0  0  0  0  0  0  0
  1  2  1  0
  1 29  1  0
  1 30  1  0
  1 31  1  0
  2  3  1  0
  2 32  1  0
  2 33  1  0
  3  4  1  0
  4  5  2  0
  4  6  1  0
  6  7  2  0
  6 24  1  0
  7  8  1  0
  7 27  1  0
  8  9  2  0
  8 14  1  0
  9 10  1  0
  9 25  1  0
 10 11  2  0
 10 34  1  0
 11 12  1  0
 11 35  1  0
 12 13  1  0
 12 14  2  0
 14 15  1  0
 15 16  1  0
 15 24  2  0
 16 17  2  0
 16 36  1  0
 17 18  1  0
 17 22  1  0
 18 19  2  0
 18 37  1  0
 19 20  1  0
 19 38  1  0
 20 21  2  0
 20 39  1  0
 21 22  1  0
 21 40  1  0
 22 23  2  0
 23 24  1  0
 23 41  1  0
 25 26  1  0
 25 27  1  0
 26 42  1  0
 26 43  1  0
 26 44  1  0
 27 28  2  0
M  END

