
     RDKit          3D

 47 49  0  0  0  0  0  0  0  0999 V2000
    0.9758    0.2629   -0.3790 N   0  0  0  0  0  0  0  0  0  0  0  0
    2.1078    0.2414   -0.1299 C   0  0  0  0  0  0  0  0  0  0  0  0
    3.5597    0.1924    0.1523 C   0  0  1  0  0  0  0  0  0  0  0  0
    3.7976    0.6412    1.6085 C   0  0  0  0  0  0  0  0  0  0  0  0
    2.9126    0.2235    2.6178 C   0  0  0  0  0  0  0  0  0  0  0  0
    3.1334    0.5594    3.9545 C   0  0  0  0  0  0  0  0  0  0  0  0
    4.2471    1.3248    4.3128 C   0  0  0  0  0  0  0  0  0  0  0  0
    5.1315    1.7499    3.3204 C   0  0  0  0  0  0  0  0  0  0  0  0
    4.9088    1.4124    1.9808 C   0  0  0  0  0  0  0  0  0  0  0  0
    4.0475   -1.2828   -0.0285 C   0  0  0  0  0  0  0  0  0  0  0  0
    3.8778   -1.8004   -1.4617 C   0  0  0  0  0  0  0  0  0  0  0  0
    4.5775   -0.8991   -2.5066 C   0  0  2  0  0  0  0  0  0  0  0  0
    6.0411   -0.9549   -2.4956 N   0  0  0  0  0  0  0  0  0  0  0  0
    6.6512   -2.1983   -2.9314 C   0  0  0  0  0  0  0  0  0  0  0  0
    8.1526   -2.0768   -3.1146 C   0  0  0  0  0  0  0  0  0  0  0  0
    8.9916   -3.1794   -2.8849 C   0  0  0  0  0  0  0  0  0  0  0  0
   10.3657   -3.0921   -3.0972 C   0  0  0  0  0  0  0  0  0  0  0  0
   10.9440   -1.8866   -3.5234 C   0  0  0  0  0  0  0  0  0  0  0  0
   12.4318   -1.8592   -3.7353 C   0  0  0  0  0  0  0  0  0  0  0  0
   13.1015   -2.8530   -3.8391 O   0  0  0  0  0  0  0  0  0  0  0  0
   13.0111   -0.6374   -3.8006 O   0  0  0  0  0  0  0  0  0  0  0  0
   10.1074   -0.7837   -3.7595 C   0  0  0  0  0  0  0  0  0  0  0  0
    8.7299   -0.8774   -3.5575 C   0  0  0  0  0  0  0  0  0  0  0  0
    4.0980    0.5533   -2.3367 C   0  0  0  0  0  0  0  0  0  0  0  0
    4.2791    1.0770   -0.9059 C   0  0  0  0  0  0  0  0  0  0  0  0
    2.0289   -0.3629    2.3537 H   0  0  0  0  0  0  0  0  0  0  0  0
    2.4271    0.2253    4.7186 H   0  0  0  0  0  0  0  0  0  0  0  0
    4.4205    1.5919    5.3582 H   0  0  0  0  0  0  0  0  0  0  0  0
    6.0032    2.3542    3.5842 H   0  0  0  0  0  0  0  0  0  0  0  0
    5.6178    1.7649    1.2312 H   0  0  0  0  0  0  0  0  0  0  0  0
    3.5173   -1.9332    0.6837 H   0  0  0  0  0  0  0  0  0  0  0  0
    5.1099   -1.3030    0.2696 H   0  0  0  0  0  0  0  0  0  0  0  0
    2.8032   -1.8576   -1.7041 H   0  0  0  0  0  0  0  0  0  0  0  0
    4.2598   -2.8325   -1.5258 H   0  0  0  0  0  0  0  0  0  0  0  0
    4.2707   -1.2410   -3.5103 H   0  0  0  0  0  0  0  0  0  0  0  0
    6.4233   -0.6750   -1.5937 H   0  0  0  0  0  0  0  0  0  0  0  0
    6.2005   -2.4645   -3.9068 H   0  0  0  0  0  0  0  0  0  0  0  0
    6.4500   -3.0670   -2.2683 H   0  0  0  0  0  0  0  0  0  0  0  0
    8.5594   -4.1215   -2.5353 H   0  0  0  0  0  0  0  0  0  0  0  0
   11.0194   -3.9504   -2.9310 H   0  0  0  0  0  0  0  0  0  0  0  0
   12.3727    0.0519   -3.5717 H   0  0  0  0  0  0  0  0  0  0  0  0
   10.5148    0.1596   -4.1376 H   0  0  0  0  0  0  0  0  0  0  0  0
    8.0808   -0.0193   -3.7411 H   0  0  0  0  0  0  0  0  0  0  0  0
    3.0329    0.6121   -2.6147 H   0  0  0  0  0  0  0  0  0  0  0  0
    4.6524    1.1971   -3.0368 H   0  0  0  0  0  0  0  0  0  0  0  0
    3.9226    2.1158   -0.8254 H   0  0  0  0  0  0  0  0  0  0  0  0
    5.3527    1.0971   -0.6617 H   0  0  0  0  0  0  0  0  0  0  0  0
  1  2  3  0
  3  2  1  6
  3  4  1  0
  3 10  1  0
  3 25  1  0
  4  5  2  0
  4  9  1  0
  5  6  1  0
  5 26  1  0
  6  7  2  0
  6 27  1  0
  7  8  1  0
  7 28  1  0
  8  9  2  0
  8 29  1  0
  9 30  1  0
 10 11  1  0
 10 31  1  0
 10 32  1  0
 11 12  1  0
 11 33  1  0
 11 34  1  0
 12 13  1  0
 12 24  1  0
 12 35  1  6
 13 14  1  0
 13 36  1  0
 14 15  1  0
 14 37  1  0
 14 38  1  0
 15 16  2  0
 15 23  1  0
 16 17  1  0
 16 39  1  0
 17 18  2  0
 17 40  1  0
 18 19  1  0
 18 22  1  0
 19 20  2  0
 19 21  1  0
 21 41  1  0
 22 23  2  0
 22 42  1  0
 23 43  1  0
 24 25  1  0
 24 44  1  0
 24 45  1  0
 25 46  1  0
 25 47  1  0
M  END

