
     RDKit          3D

 38 40  0  0  0  0  0  0  0  0999 V2000
    1.2915    0.4924   -0.0863 O   0  0  0  0  0  0  0  0  0  0  0  0
    2.4585    0.2187    0.1589 C   0  0  0  0  0  0  0  0  0  0  0  0
    3.0034   -0.9887   -0.2670 N   0  0  0  0  0  0  0  0  0  0  0  0
    2.3244   -1.9343   -1.0075 C   0  0  0  0  0  0  0  0  0  0  0  0
    2.9071   -3.0539   -1.3449 N   0  0  0  0  0  0  0  0  0  0  0  0
    2.0964   -3.8663   -2.0752 N   0  0  0  0  0  0  0  0  0  0  0  0
    0.9235   -3.3541   -2.2791 C   0  0  0  0  0  0  0  0  0  0  0  0
    0.6758   -1.7723   -1.5664 S   0  0  0  0  0  0  0  0  0  0  0  0
    3.2970    1.0460    0.8723 N   0  0  0  0  0  0  0  0  0  0  0  0
    4.7580    1.0191    0.8466 C   0  0  0  0  0  0  0  0  0  0  0  0
    5.3126    2.1514   -0.0310 C   0  0  0  0  0  0  0  0  0  0  0  0
    4.7339    3.5143    0.3707 C   0  0  0  0  0  0  0  0  0  0  0  0
    3.1998    3.4826    0.4314 C   0  0  2  0  0  0  0  0  0  0  0  0
    2.6781    4.7550    0.8690 N   0  0  0  0  0  0  0  0  0  0  0  0
    1.4199    5.2535    0.5686 C   0  0  0  0  0  0  0  0  0  0  0  0
    0.4319    4.4796   -0.0788 C   0  0  0  0  0  0  0  0  0  0  0  0
   -0.8197    5.0325   -0.3632 C   0  0  0  0  0  0  0  0  0  0  0  0
   -1.1281    6.3497   -0.0153 C   0  0  0  0  0  0  0  0  0  0  0  0
   -0.1537    7.1188    0.6318 C   0  0  0  0  0  0  0  0  0  0  0  0
    1.0996    6.5844    0.9200 C   0  0  0  0  0  0  0  0  0  0  0  0
    2.7498    2.3168    1.3416 C   0  0  0  0  0  0  0  0  0  0  0  0
    3.9237   -1.2966    0.0251 H   0  0  0  0  0  0  0  0  0  0  0  0
    0.1392   -3.8592   -2.8461 H   0  0  0  0  0  0  0  0  0  0  0  0
    5.1342    0.0510    0.4914 H   0  0  0  0  0  0  0  0  0  0  0  0
    5.1240    1.1334    1.8833 H   0  0  0  0  0  0  0  0  0  0  0  0
    5.0603    1.9374   -1.0839 H   0  0  0  0  0  0  0  0  0  0  0  0
    6.4129    2.1652    0.0388 H   0  0  0  0  0  0  0  0  0  0  0  0
    5.0657    4.2953   -0.3328 H   0  0  0  0  0  0  0  0  0  0  0  0
    5.1199    3.7968    1.3692 H   0  0  0  0  0  0  0  0  0  0  0  0
    2.8209    3.2658   -0.5854 H   0  0  0  0  0  0  0  0  0  0  0  0
    3.3329    5.4060    1.2821 H   0  0  0  0  0  0  0  0  0  0  0  0
    0.6254    3.4407   -0.3507 H   0  0  0  0  0  0  0  0  0  0  0  0
   -1.5670    4.4107   -0.8638 H   0  0  0  0  0  0  0  0  0  0  0  0
   -2.1105    6.7704   -0.2404 H   0  0  0  0  0  0  0  0  0  0  0  0
   -0.3703    8.1526    0.9153 H   0  0  0  0  0  0  0  0  0  0  0  0
    1.8522    7.1998    1.4230 H   0  0  0  0  0  0  0  0  0  0  0  0
    1.6581    2.2384    1.3704 H   0  0  0  0  0  0  0  0  0  0  0  0
    3.1123    2.5045    2.3680 H   0  0  0  0  0  0  0  0  0  0  0  0
  1  2  2  0
  2  3  1  0
  2  9  1  0
  3  4  1  0
  3 22  1  0
  4  5  2  0
  4  8  1  0
  5  6  1  0
  6  7  2  0
  7  8  1  0
  7 23  1  0
  9 10  1  0
  9 21  1  0
 10 11  1  0
 10 24  1  0
 10 25  1  0
 11 12  1  0
 11 26  1  0
 11 27  1  0
 12 13  1  0
 12 28  1  0
 12 29  1  0
 13 14  1  0
 13 21  1  0
 13 30  1  6
 14 15  1  0
 14 31  1  0
 15 16  2  0
 15 20  1  0
 16 17  1  0
 16 32  1  0
 17 18  2  0
 17 33  1  0
 18 19  1  0
 18 34  1  0
 19 20  2  0
 19 35  1  0
 20 36  1  0
 21 37  1  0
 21 38  1  0
M  END

