
     RDKit          3D

110111  0  0  0  0  0  0  0  0999 V2000
   -4.9883    5.3388   10.6867 C   0  0  0  0  0  0  0  0  0  0  0  0
   -3.5572    5.0496   10.2671 C   0  0  0  0  0  0  0  0  0  0  0  0
   -3.5499    4.4356    8.9907 O   0  0  0  0  0  0  0  0  0  0  0  0
   -2.2324    3.9254    8.1056 Si  0  0  1  0  0  4  0  0  0  0  0  0
   -1.1632    2.7482    9.0927 C   0  0  0  0  0  0  0  0  0  0  0  0
    0.0279    2.1693    8.3098 C   0  0  0  0  0  0  0  0  0  0  0  0
    0.8769    1.2092    9.1449 C   0  0  0  0  0  0  0  0  0  0  0  0
    2.2671    0.5455    8.1518 S   0  0  0  0  0  0  0  0  0  0  0  0
    3.0660   -0.5212    9.4088 C   0  0  0  0  0  0  0  0  0  0  0  0
    4.2861   -1.2274    8.8174 C   0  0  0  0  0  0  0  0  0  0  0  0
    4.9975   -2.1338    9.8272 C   0  0  0  0  0  0  0  0  0  0  0  0
    6.2148   -2.8528    9.2385 C   0  0  0  0  0  0  0  0  0  0  0  0
    6.9259   -3.7730   10.2194 C   0  0  0  0  0  0  0  0  0  0  0  0
    6.0317   -4.8072   10.5978 O   0  0  0  0  0  0  0  0  0  0  0  0
    6.4345   -5.7575   11.4821 C   0  0  0  0  0  0  0  0  0  0  0  0
    7.7030   -5.8141   12.0757 C   0  0  0  0  0  0  0  0  0  0  0  0
    8.0276   -6.8349   12.9771 C   0  0  0  0  0  0  0  0  0  0  0  0
    7.0851   -7.8196   13.3012 C   0  0  0  0  0  0  0  0  0  0  0  0
    7.3377   -8.8781   14.2002 N   0  0  0  0  0  0  0  0  0  0  0  0
    8.4784   -9.1398   14.9022 C   0  0  0  0  0  0  0  0  0  0  0  0
    9.5127   -8.5085   14.8836 O   0  0  0  0  0  0  0  0  0  0  0  0
    8.2848  -10.2601   15.6562 O   0  0  0  0  0  0  0  0  0  0  0  0
    9.3898  -10.6875   16.4553 C   0  0  0  0  0  0  0  0  0  0  0  0
    9.4367   -9.9761   17.8161 C   0  0  1  0  0  0  0  0  0  0  0  0
    8.2589  -10.3797   18.7021 C   0  0  0  0  0  0  0  0  0  0  0  0
    8.0184   -9.5121   19.7832 O   0  0  0  0  0  0  0  0  0  0  0  0
    8.8021   -9.7029   20.9414 C   0  0  0  0  0  0  0  0  0  0  0  0
    8.2495   -8.7785   22.0262 C   0  0  0  0  0  0  0  0  0  0  0  0
    9.0326   -8.8152   23.2002 O   0  0  0  0  0  0  0  0  0  0  0  0
   10.1593   -7.9710   23.1869 C   0  0  0  0  0  0  0  0  0  0  0  0
   11.0122   -8.2619   24.4216 C   0  0  0  0  0  0  0  0  0  0  0  0
   12.2576   -7.6003   24.3451 O   0  0  0  0  0  0  0  0  0  0  0  0
   13.2381   -8.2599   23.5717 C   0  0  0  0  0  0  0  0  0  0  0  0
   14.0812   -7.2296   22.8142 C   0  0  0  0  0  0  0  0  0  0  0  0
   14.8342   -7.8427   21.7868 O   0  0  0  0  0  0  0  0  0  0  0  0
   14.1280   -8.0167   20.5797 C   0  0  0  0  0  0  0  0  0  0  0  0
   14.8469   -9.0580   19.7257 C   0  0  0  0  0  0  0  0  0  0  0  0
   14.1428   -9.3461   18.5375 O   0  0  0  0  0  0  0  0  0  0  0  0
   13.0168  -10.1899   18.6628 C   0  0  0  0  0  0  0  0  0  0  0  0
   11.7522   -9.4678   18.2099 C   0  0  0  0  0  0  0  0  0  0  0  0
   10.6537  -10.3258   18.4598 O   0  0  0  0  0  0  0  0  0  0  0  0
    5.8127   -7.7594   12.7022 C   0  0  0  0  0  0  0  0  0  0  0  0
    5.4910   -6.7468   11.8075 C   0  0  0  0  0  0  0  0  0  0  0  0
   -2.8700    3.2552    6.7307 O   0  0  0  0  0  0  0  0  0  0  0  0
   -4.0561    2.4909    6.5855 C   0  0  0  0  0  0  0  0  0  0  0  0
   -4.4953    2.4990    5.1315 C   0  0  0  0  0  0  0  0  0  0  0  0
   -1.2462    5.1675    7.6336 O   0  0  0  0  0  0  0  0  0  0  0  0
   -1.4658    6.1099    6.5936 C   0  0  0  0  0  0  0  0  0  0  0  0
   -2.2336    7.3317    7.0794 C   0  0  0  0  0  0  0  0  0  0  0  0
   -5.0134    5.8159   11.6797 H   0  0  0  0  0  0  0  0  0  0  0  0
   -5.5739    4.4072   10.7324 H   0  0  0  0  0  0  0  0  0  0  0  0
   -5.4752    6.0121    9.9640 H   0  0  0  0  0  0  0  0  0  0  0  0
   -3.0734    4.3909   11.0147 H   0  0  0  0  0  0  0  0  0  0  0  0
   -2.9726    5.9890   10.2410 H   0  0  0  0  0  0  0  0  0  0  0  0
   -1.8098    1.9334    9.4682 H   0  0  0  0  0  0  0  0  0  0  0  0
   -0.8004    3.2818    9.9906 H   0  0  0  0  0  0  0  0  0  0  0  0
    0.6620    2.9936    7.9436 H   0  0  0  0  0  0  0  0  0  0  0  0
   -0.3383    1.6429    7.4117 H   0  0  0  0  0  0  0  0  0  0  0  0
    0.2613    0.3676    9.5075 H   0  0  0  0  0  0  0  0  0  0  0  0
    1.2833    1.7287   10.0300 H   0  0  0  0  0  0  0  0  0  0  0  0
    2.3331   -1.2627    9.7708 H   0  0  0  0  0  0  0  0  0  0  0  0
    3.3623    0.1000   10.2716 H   0  0  0  0  0  0  0  0  0  0  0  0
    4.9924   -0.4701    8.4328 H   0  0  0  0  0  0  0  0  0  0  0  0
    3.9704   -1.8239    7.9432 H   0  0  0  0  0  0  0  0  0  0  0  0
    4.2916   -2.8878   10.2142 H   0  0  0  0  0  0  0  0  0  0  0  0
    5.3158   -1.5345   10.7006 H   0  0  0  0  0  0  0  0  0  0  0  0
    6.9516   -2.1139    8.8765 H   0  0  0  0  0  0  0  0  0  0  0  0
    5.9103   -3.4466    8.3590 H   0  0  0  0  0  0  0  0  0  0  0  0
    7.2515   -3.2082   11.1147 H   0  0  0  0  0  0  0  0  0  0  0  0
    7.8305   -4.2072    9.7532 H   0  0  0  0  0  0  0  0  0  0  0  0
    8.4620   -5.0658   11.8474 H   0  0  0  0  0  0  0  0  0  0  0  0
    9.0159   -6.8692   13.4309 H   0  0  0  0  0  0  0  0  0  0  0  0
    6.5821   -9.5367   14.3502 H   0  0  0  0  0  0  0  0  0  0  0  0
   10.3298  -10.5071   15.9160 H   0  0  0  0  0  0  0  0  0  0  0  0
    9.2577  -11.7704   16.5975 H   0  0  0  0  0  0  0  0  0  0  0  0
    9.3878   -8.8841   17.6522 H   0  0  0  0  0  0  0  0  0  0  0  0
    8.4199  -11.4203   19.0504 H   0  0  0  0  0  0  0  0  0  0  0  0
    7.3485  -10.3644   18.0820 H   0  0  0  0  0  0  0  0  0  0  0  0
    9.8664   -9.4799   20.7474 H   0  0  0  0  0  0  0  0  0  0  0  0
    8.7524  -10.7554   21.2859 H   0  0  0  0  0  0  0  0  0  0  0  0
    7.2312   -9.0987   22.2978 H   0  0  0  0  0  0  0  0  0  0  0  0
    8.1754   -7.7512   21.6198 H   0  0  0  0  0  0  0  0  0  0  0  0
    9.8596   -6.9033   23.1781 H   0  0  0  0  0  0  0  0  0  0  0  0
   10.7744   -8.1365   22.2805 H   0  0  0  0  0  0  0  0  0  0  0  0
   11.1334   -9.3576   24.5218 H   0  0  0  0  0  0  0  0  0  0  0  0
   10.5018   -7.9036   25.3292 H   0  0  0  0  0  0  0  0  0  0  0  0
   12.7727   -8.9372   22.8321 H   0  0  0  0  0  0  0  0  0  0  0  0
   13.8858   -8.8880   24.2142 H   0  0  0  0  0  0  0  0  0  0  0  0
   14.7911   -6.7324   23.4936 H   0  0  0  0  0  0  0  0  0  0  0  0
   13.4060   -6.4497   22.4130 H   0  0  0  0  0  0  0  0  0  0  0  0
   14.0476   -7.0614   20.0221 H   0  0  0  0  0  0  0  0  0  0  0  0
   13.0933   -8.3646   20.7693 H   0  0  0  0  0  0  0  0  0  0  0  0
   15.0084   -9.9685   20.3352 H   0  0  0  0  0  0  0  0  0  0  0  0
   15.8379   -8.6795   19.4306 H   0  0  0  0  0  0  0  0  0  0  0  0
   12.8761  -10.5377   19.7028 H   0  0  0  0  0  0  0  0  0  0  0  0
   13.1617  -11.0916   18.0398 H   0  0  0  0  0  0  0  0  0  0  0  0
   11.8323   -9.2035   17.1395 H   0  0  0  0  0  0  0  0  0  0  0  0
   11.6391   -8.5180   18.7697 H   0  0  0  0  0  0  0  0  0  0  0  0
    5.0635   -8.5199   12.9425 H   0  0  0  0  0  0  0  0  0  0  0  0
    4.5042   -6.7015   11.3426 H   0  0  0  0  0  0  0  0  0  0  0  0
   -4.8524    2.9005    7.2322 H   0  0  0  0  0  0  0  0  0  0  0  0
   -3.8710    1.4502    6.9156 H   0  0  0  0  0  0  0  0  0  0  0  0
   -4.7156    3.5254    4.7979 H   0  0  0  0  0  0  0  0  0  0  0  0
   -5.4023    1.8876    4.9976 H   0  0  0  0  0  0  0  0  0  0  0  0
   -3.7023    2.0923    4.4845 H   0  0  0  0  0  0  0  0  0  0  0  0
   -2.0004    5.6286    5.7553 H   0  0  0  0  0  0  0  0  0  0  0  0
   -0.4736    6.4128    6.2176 H   0  0  0  0  0  0  0  0  0  0  0  0
   -3.2436    7.0540    7.4207 H   0  0  0  0  0  0  0  0  0  0  0  0
   -2.3366    8.0709    6.2680 H   0  0  0  0  0  0  0  0  0  0  0  0
   -1.7067    7.8133    7.9186 H   0  0  0  0  0  0  0  0  0  0  0  0
  1  2  1  0
  1 50  1  0
  1 51  1  0
  1 52  1  0
  2  3  1  0
  2 53  1  0
  2 54  1  0
  4  3  1  1
  4  5  1  0
  4 44  1  0
  4 47  1  0
  5  6  1  0
  5 55  1  0
  5 56  1  0
  6  7  1  0
  6 57  1  0
  6 58  1  0
  7  8  1  0
  7 59  1  0
  7 60  1  0
  8  9  1  0
  9 10  1  0
  9 61  1  0
  9 62  1  0
 10 11  1  0
 10 63  1  0
 10 64  1  0
 11 12  1  0
 11 65  1  0
 11 66  1  0
 12 13  1  0
 12 67  1  0
 12 68  1  0
 13 14  1  0
 13 69  1  0
 13 70  1  0
 14 15  1  0
 15 16  2  0
 15 43  1  0
 16 17  1  0
 16 71  1  0
 17 18  2  0
 17 72  1  0
 18 19  1  0
 18 42  1  0
 19 20  1  0
 19 73  1  0
 20 21  2  0
 20 22  1  0
 22 23  1  0
 23 24  1  0
 23 74  1  0
 23 75  1  0
 24 25  1  0
 24 41  1  0
 24 76  1  6
 25 26  1  0
 25 77  1  0
 25 78  1  0
 26 27  1  0
 27 28  1  0
 27 79  1  0
 27 80  1  0
 28 29  1  0
 28 81  1  0
 28 82  1  0
 29 30  1  0
 30 31  1  0
 30 83  1  0
 30 84  1  0
 31 32  1  0
 31 85  1  0
 31 86  1  0
 32 33  1  0
 33 34  1  0
 33 87  1  0
 33 88  1  0
 34 35  1  0
 34 89  1  0
 34 90  1  0
 35 36  1  0
 36 37  1  0
 36 91  1  0
 36 92  1  0
 37 38  1  0
 37 93  1  0
 37 94  1  0
 38 39  1  0
 39 40  1  0
 39 95  1  0
 39 96  1  0
 40 41  1  0
 40 97  1  0
 40 98  1  0
 42 43  2  0
 42 99  1  0
 43100  1  0
 44 45  1  0
 45 46  1  0
 45101  1  0
 45102  1  0
 46103  1  0
 46104  1  0
 46105  1  0
 47 48  1  0
 48 49  1  0
 48106  1  0
 48107  1  0
 49108  1  0
 49109  1  0
 49110  1  0
M  END

