
     RDKit          3D

 34 36  0  0  0  0  0  0  0  0999 V2000
    0.8331    0.1457    0.6048 C   0  0  0  0  0  0  0  0  0  0  0  0
    2.3180    0.1322    0.3550 C   0  0  0  0  0  0  0  0  0  0  0  0
    2.9938   -1.1276    0.2689 C   0  0  0  0  0  0  0  0  0  0  0  0
    4.3406   -1.1220    0.0342 C   0  0  0  0  0  0  0  0  0  0  0  0
    5.0315    0.0615   -0.1516 N   0  0  0  0  0  0  0  0  0  0  0  0
    4.4615    1.3315   -0.0213 C   0  0  0  0  0  0  0  0  0  0  0  0
    5.1625    2.3433   -0.1213 O   0  0  0  0  0  0  0  0  0  0  0  0
    3.0352    1.3016    0.2228 C   0  0  0  0  0  0  0  0  0  0  0  0
    6.4563   -0.2393   -0.3084 C   0  0  2  0  0  0  0  0  0  0  0  0
    7.1629    0.1796   -1.6358 C   0  0  0  0  0  0  0  0  0  0  0  0
    7.8110   -0.6595   -2.2428 O   0  0  0  0  0  0  0  0  0  0  0  0
    7.0334    1.4871   -1.9649 N   0  0  0  0  0  0  0  0  0  0  0  0
    7.5924    2.1304   -3.0876 C   0  0  0  0  0  0  0  0  0  0  0  0
    8.3721    1.5092   -4.0762 C   0  0  0  0  0  0  0  0  0  0  0  0
    8.8775    2.2423   -5.1531 C   0  0  0  0  0  0  0  0  0  0  0  0
    8.6204    3.6136   -5.2730 C   0  0  0  0  0  0  0  0  0  0  0  0
    9.0881    4.3701   -6.2987 O   0  0  0  0  0  0  0  0  0  0  0  0
    7.8454    4.2533   -4.2951 C   0  0  0  0  0  0  0  0  0  0  0  0
    7.3523    3.5101   -3.2349 C   0  0  0  0  0  0  0  0  0  0  0  0
    6.6124    4.1253   -2.2983 F   0  0  0  0  0  0  0  0  0  0  0  0
    6.3948   -1.7458   -0.1901 C   0  0  0  0  0  0  0  0  0  0  0  0
    5.2125   -2.2134   -0.0109 N   0  0  0  0  0  0  0  0  0  0  0  0
    0.5905   -0.3878    1.5388 H   0  0  0  0  0  0  0  0  0  0  0  0
    0.2984   -0.3743   -0.2074 H   0  0  0  0  0  0  0  0  0  0  0  0
    0.4400    1.1690    0.6780 H   0  0  0  0  0  0  0  0  0  0  0  0
    2.4792   -2.0773    0.4103 H   0  0  0  0  0  0  0  0  0  0  0  0
    2.5541    2.2777    0.3019 H   0  0  0  0  0  0  0  0  0  0  0  0
    7.0255    0.2169    0.5259 H   0  0  0  0  0  0  0  0  0  0  0  0
    6.4547    2.0628   -1.3289 H   0  0  0  0  0  0  0  0  0  0  0  0
    8.5778    0.4453   -3.9875 H   0  0  0  0  0  0  0  0  0  0  0  0
    9.4823    1.7334   -5.9098 H   0  0  0  0  0  0  0  0  0  0  0  0
    9.6023    3.8141   -6.8986 H   0  0  0  0  0  0  0  0  0  0  0  0
    7.6300    5.3201   -4.3613 H   0  0  0  0  0  0  0  0  0  0  0  0
    7.2770   -2.3822   -0.2859 H   0  0  0  0  0  0  0  0  0  0  0  0
  1  2  1  0
  1 23  1  0
  1 24  1  0
  1 25  1  0
  2  3  1  0
  2  8  2  0
  3  4  2  0
  3 26  1  0
  4  5  1  0
  4 22  1  0
  5  6  1  0
  5  9  1  0
  6  7  2  0
  6  8  1  0
  8 27  1  0
  9 10  1  0
  9 21  1  0
  9 28  1  1
 10 11  2  0
 10 12  1  0
 12 13  1  0
 12 29  1  0
 13 14  2  0
 13 19  1  0
 14 15  1  0
 14 30  1  0
 15 16  2  0
 15 31  1  0
 16 17  1  0
 16 18  1  0
 17 32  1  0
 18 19  2  0
 18 33  1  0
 19 20  1  0
 21 22  2  0
 21 34  1  0
M  END

