
     RDKit          3D

 63 64  0  0  0  0  0  0  0  0999 V2000
    6.9901   -1.7112   -1.6872 C   0  0  0  0  0  0  0  0  0  0  0  0
    6.2804   -0.6928   -0.7932 C   0  0  0  0  0  0  0  0  0  0  0  0
    5.5769   -1.2896    0.3359 N   0  0  0  0  0  0  0  0  0  0  0  0
    6.4435   -1.8224    1.3860 C   0  0  0  0  0  0  0  0  0  0  0  0
    5.9329   -3.1272    1.9978 C   0  0  0  0  0  0  0  0  0  0  0  0
    4.4051   -0.5673    0.8393 C   0  0  1  0  0  0  0  0  0  0  0  0
    4.6547    0.9091    1.2598 C   0  0  0  0  0  0  0  0  0  0  0  0
    4.7352    1.8831    0.1823 N   0  0  0  0  0  0  0  0  0  0  0  0
    3.7099    2.7390   -0.1075 C   0  0  0  0  0  0  0  0  0  0  0  0
    2.6449    2.7251    0.4955 O   0  0  0  0  0  0  0  0  0  0  0  0
    3.9600    3.7260   -1.2206 C   0  0  0  0  0  0  0  0  0  0  0  0
    3.1000    4.8252   -1.3194 C   0  0  0  0  0  0  0  0  0  0  0  0
    3.2395    5.8021   -2.3132 C   0  0  0  0  0  0  0  0  0  0  0  0
    2.2784    6.9694   -2.3299 C   0  0  0  0  0  0  0  0  0  0  0  0
    4.2727    5.6798   -3.2761 C   0  0  0  0  0  0  0  0  0  0  0  0
    4.4663    6.7136   -4.3566 C   0  0  0  0  0  0  0  0  0  0  0  0
    5.1139    4.5492   -3.1776 C   0  0  0  0  0  0  0  0  0  0  0  0
    6.4879    4.2730   -4.3164 S   0  0  1  0  0  0  0  0  0  0  0  0
    7.2603    5.5067   -4.4837 O   0  0  0  0  0  0  0  0  0  0  0  0
    7.1524    3.0330   -3.8930 O   0  0  0  0  0  0  0  0  0  0  0  0
    5.7216    4.0317   -5.8056 N   0  0  0  0  0  0  0  0  0  0  0  0
    5.2997    2.6752   -6.1463 C   0  0  0  0  0  0  0  0  0  0  0  0
    4.9735    3.5897   -2.1731 C   0  0  0  0  0  0  0  0  0  0  0  0
    3.1753   -0.6936   -0.0937 C   0  0  0  0  0  0  0  0  0  0  0  0
    2.5979   -2.0892   -0.1568 C   0  0  0  0  0  0  0  0  0  0  0  0
    1.6189   -2.4946    0.7659 C   0  0  0  0  0  0  0  0  0  0  0  0
    1.0948   -3.7902    0.7418 C   0  0  0  0  0  0  0  0  0  0  0  0
    1.5405   -4.7090   -0.2130 C   0  0  0  0  0  0  0  0  0  0  0  0
    2.5101   -4.3189   -1.1416 C   0  0  0  0  0  0  0  0  0  0  0  0
    3.0323   -3.0226   -1.1112 C   0  0  0  0  0  0  0  0  0  0  0  0
    7.4734   -1.2018   -2.5364 H   0  0  0  0  0  0  0  0  0  0  0  0
    6.2733   -2.4485   -2.0805 H   0  0  0  0  0  0  0  0  0  0  0  0
    7.7742   -2.2647   -1.1473 H   0  0  0  0  0  0  0  0  0  0  0  0
    5.5435   -0.1555   -1.4085 H   0  0  0  0  0  0  0  0  0  0  0  0
    7.0243    0.0743   -0.4687 H   0  0  0  0  0  0  0  0  0  0  0  0
    6.6138   -1.0746    2.1932 H   0  0  0  0  0  0  0  0  0  0  0  0
    7.4377   -2.0070    0.9518 H   0  0  0  0  0  0  0  0  0  0  0  0
    4.9382   -3.0067    2.4552 H   0  0  0  0  0  0  0  0  0  0  0  0
    6.6197   -3.4809    2.7843 H   0  0  0  0  0  0  0  0  0  0  0  0
    5.8472   -3.9079    1.2267 H   0  0  0  0  0  0  0  0  0  0  0  0
    4.1281   -1.0723    1.7788 H   0  0  0  0  0  0  0  0  0  0  0  0
    5.5813    0.9623    1.8552 H   0  0  0  0  0  0  0  0  0  0  0  0
    3.8269    1.2336    1.9068 H   0  0  0  0  0  0  0  0  0  0  0  0
    5.6265    2.0223   -0.2746 H   0  0  0  0  0  0  0  0  0  0  0  0
    2.2984    4.9025   -0.5819 H   0  0  0  0  0  0  0  0  0  0  0  0
    1.5531    6.8847   -1.5087 H   0  0  0  0  0  0  0  0  0  0  0  0
    1.7096    7.0205   -3.2728 H   0  0  0  0  0  0  0  0  0  0  0  0
    2.8012    7.9330   -2.2157 H   0  0  0  0  0  0  0  0  0  0  0  0
    3.6841    7.4802   -4.3383 H   0  0  0  0  0  0  0  0  0  0  0  0
    4.4645    6.2367   -5.3484 H   0  0  0  0  0  0  0  0  0  0  0  0
    5.4462    7.2027   -4.2508 H   0  0  0  0  0  0  0  0  0  0  0  0
    6.3000    4.4944   -6.5081 H   0  0  0  0  0  0  0  0  0  0  0  0
    4.5551    2.3253   -5.4157 H   0  0  0  0  0  0  0  0  0  0  0  0
    6.1300    1.9498   -6.1733 H   0  0  0  0  0  0  0  0  0  0  0  0
    4.8088    2.7056   -7.1301 H   0  0  0  0  0  0  0  0  0  0  0  0
    5.6627    2.7447   -2.1798 H   0  0  0  0  0  0  0  0  0  0  0  0
    3.4460   -0.3534   -1.1061 H   0  0  0  0  0  0  0  0  0  0  0  0
    2.4069    0.0087    0.2649 H   0  0  0  0  0  0  0  0  0  0  0  0
    1.2561   -1.7795    1.5108 H   0  0  0  0  0  0  0  0  0  0  0  0
    0.3305   -4.0808    1.4676 H   0  0  0  0  0  0  0  0  0  0  0  0
    1.1300   -5.7218   -0.2370 H   0  0  0  0  0  0  0  0  0  0  0  0
    2.8613   -5.0279   -1.8963 H   0  0  0  0  0  0  0  0  0  0  0  0
    3.7866   -2.7265   -1.8439 H   0  0  0  0  0  0  0  0  0  0  0  0
  1  2  1  0
  1 31  1  0
  1 32  1  0
  1 33  1  0
  2  3  1  0
  2 34  1  0
  2 35  1  0
  3  4  1  0
  3  6  1  0
  4  5  1  0
  4 36  1  0
  4 37  1  0
  5 38  1  0
  5 39  1  0
  5 40  1  0
  6  7  1  0
  6 24  1  0
  6 41  1  1
  7  8  1  0
  7 42  1  0
  7 43  1  0
  8  9  1  0
  8 44  1  0
  9 10  2  0
  9 11  1  0
 11 12  2  0
 11 23  1  0
 12 13  1  0
 12 45  1  0
 13 14  1  0
 13 15  2  0
 14 46  1  0
 14 47  1  0
 14 48  1  0
 15 16  1  0
 15 17  1  0
 16 49  1  0
 16 50  1  0
 16 51  1  0
 17 18  1  0
 17 23  2  0
 18 19  2  0
 18 20  2  0
 18 21  1  6
 21 22  1  0
 21 52  1  0
 22 53  1  0
 22 54  1  0
 22 55  1  0
 23 56  1  0
 24 25  1  0
 24 57  1  0
 24 58  1  0
 25 26  2  0
 25 30  1  0
 26 27  1  0
 26 59  1  0
 27 28  2  0
 27 60  1  0
 28 29  1  0
 28 61  1  0
 29 30  2  0
 29 62  1  0
 30 63  1  0
M  END

