
     RDKit          3D

 56 57  0  0  0  0  0  0  0  0999 V2000
    1.7743    3.0586    6.8207 C   0  0  0  0  0  0  0  0  0  0  0  0
    3.2362    2.8105    6.4470 C   0  0  0  0  0  0  0  0  0  0  0  0
    3.3918    1.9135    5.2137 C   0  0  0  0  0  0  0  0  0  0  0  0
    4.8531    1.6688    4.8440 C   0  0  0  0  0  0  0  0  0  0  0  0
    4.9950    0.6035    3.3847 S   0  0  1  0  0  0  0  0  0  0  0  0
    4.4664   -0.7172    3.7566 O   0  0  0  0  0  0  0  0  0  0  0  0
    4.4267    1.3440    2.2485 O   0  0  0  0  0  0  0  0  0  0  0  0
    6.6635    0.4717    3.1616 N   0  0  0  0  0  0  0  0  0  0  0  0
    7.3001   -0.8175    3.4713 C   0  0  0  0  0  0  0  0  0  0  0  0
    7.3130   -1.7501    2.2545 C   0  0  0  0  0  0  0  0  0  0  0  0
    7.9172   -1.0857    0.9919 C   0  0  2  0  0  0  0  0  0  0  0  0
    9.4413   -0.9940    1.0950 C   0  0  0  0  0  0  0  0  0  0  0  0
    9.9985   -0.3147    1.9460 O   0  0  0  0  0  0  0  0  0  0  0  0
   10.1199   -1.7412    0.1597 N   0  0  0  0  0  0  0  0  0  0  0  0
   11.5081   -1.8972   -0.0235 C   0  0  0  0  0  0  0  0  0  0  0  0
   12.4732   -1.2738    0.7898 C   0  0  0  0  0  0  0  0  0  0  0  0
   13.8276   -1.5005    0.5367 C   0  0  0  0  0  0  0  0  0  0  0  0
   14.2445   -2.3219   -0.5126 C   0  0  0  0  0  0  0  0  0  0  0  0
   13.2859   -2.9335   -1.3363 C   0  0  0  0  0  0  0  0  0  0  0  0
   13.6186   -3.8477   -2.4912 C   0  0  0  0  0  0  0  0  0  0  0  0
   12.7854   -4.6132   -2.9562 O   0  0  0  0  0  0  0  0  0  0  0  0
   14.8934   -3.7644   -2.9776 N   0  0  0  0  0  0  0  0  0  0  0  0
   15.3412   -4.5542   -4.1137 C   0  0  0  0  0  0  0  0  0  0  0  0
   15.2019   -3.8348   -5.4565 C   0  0  0  0  0  0  0  0  0  0  0  0
   11.9287   -2.7256   -1.0749 C   0  0  0  0  0  0  0  0  0  0  0  0
    7.2816    0.3069    0.7586 C   0  0  0  0  0  0  0  0  0  0  0  0
    7.2642    1.1785    2.0200 C   0  0  0  0  0  0  0  0  0  0  0  0
    1.6903    3.7046    7.7089 H   0  0  0  0  0  0  0  0  0  0  0  0
    1.2531    2.1131    7.0441 H   0  0  0  0  0  0  0  0  0  0  0  0
    1.2292    3.5491    5.9974 H   0  0  0  0  0  0  0  0  0  0  0  0
    3.7647    2.3515    7.3021 H   0  0  0  0  0  0  0  0  0  0  0  0
    3.7408    3.7763    6.2628 H   0  0  0  0  0  0  0  0  0  0  0  0
    2.8801    2.3683    4.3491 H   0  0  0  0  0  0  0  0  0  0  0  0
    2.9046    0.9401    5.3912 H   0  0  0  0  0  0  0  0  0  0  0  0
    5.4084    1.1556    5.6440 H   0  0  0  0  0  0  0  0  0  0  0  0
    5.3831    2.5990    4.5884 H   0  0  0  0  0  0  0  0  0  0  0  0
    6.7601   -1.2918    4.3005 H   0  0  0  0  0  0  0  0  0  0  0  0
    8.3274   -0.6019    3.8020 H   0  0  0  0  0  0  0  0  0  0  0  0
    6.2723   -2.0380    2.0331 H   0  0  0  0  0  0  0  0  0  0  0  0
    7.8603   -2.6762    2.4986 H   0  0  0  0  0  0  0  0  0  0  0  0
    7.6639   -1.7197    0.1257 H   0  0  0  0  0  0  0  0  0  0  0  0
    9.5472   -2.2610   -0.4947 H   0  0  0  0  0  0  0  0  0  0  0  0
   12.1498   -0.6325    1.6059 H   0  0  0  0  0  0  0  0  0  0  0  0
   14.5723   -1.0288    1.1829 H   0  0  0  0  0  0  0  0  0  0  0  0
   15.3115   -2.5049   -0.6590 H   0  0  0  0  0  0  0  0  0  0  0  0
   15.4776   -2.9974   -2.6691 H   0  0  0  0  0  0  0  0  0  0  0  0
   14.7370   -5.4722   -4.1165 H   0  0  0  0  0  0  0  0  0  0  0  0
   16.3912   -4.8463   -3.9415 H   0  0  0  0  0  0  0  0  0  0  0  0
   14.1477   -3.5889   -5.6562 H   0  0  0  0  0  0  0  0  0  0  0  0
   15.5658   -4.4746   -6.2766 H   0  0  0  0  0  0  0  0  0  0  0  0
   15.7845   -2.8986   -5.4765 H   0  0  0  0  0  0  0  0  0  0  0  0
   11.2063   -3.2382   -1.7156 H   0  0  0  0  0  0  0  0  0  0  0  0
    6.2398    0.1625    0.4289 H   0  0  0  0  0  0  0  0  0  0  0  0
    7.8078    0.8365   -0.0534 H   0  0  0  0  0  0  0  0  0  0  0  0
    6.6958    2.0979    1.8313 H   0  0  0  0  0  0  0  0  0  0  0  0
    8.2891    1.4540    2.3102 H   0  0  0  0  0  0  0  0  0  0  0  0
  1  2  1  0
  1 28  1  0
  1 29  1  0
  1 30  1  0
  2  3  1  0
  2 31  1  0
  2 32  1  0
  3  4  1  0
  3 33  1  0
  3 34  1  0
  5  4  1  1
  4 35  1  0
  4 36  1  0
  5  6  2  0
  5  7  2  0
  5  8  1  0
  8  9  1  0
  8 27  1  0
  9 10  1  0
  9 37  1  0
  9 38  1  0
 10 11  1  0
 10 39  1  0
 10 40  1  0
 11 12  1  0
 11 26  1  0
 11 41  1  6
 12 13  2  0
 12 14  1  0
 14 15  1  0
 14 42  1  0
 15 16  2  0
 15 25  1  0
 16 17  1  0
 16 43  1  0
 17 18  2  0
 17 44  1  0
 18 19  1  0
 18 45  1  0
 19 20  1  0
 19 25  2  0
 20 21  2  0
 20 22  1  0
 22 23  1  0
 22 46  1  0
 23 24  1  0
 23 47  1  0
 23 48  1  0
 24 49  1  0
 24 50  1  0
 24 51  1  0
 25 52  1  0
 26 27  1  0
 26 53  1  0
 26 54  1  0
 27 55  1  0
 27 56  1  0
M  END

