
     RDKit          3D

 31 31  0  0  0  0  0  0  0  0999 V2000
    3.4679   -1.2682   -0.3018 C   0  0  0  0  0  0  0  0  0  0  0  0
    2.8120    0.0404    0.1731 C   0  0  1  0  0  0  0  0  0  0  0  0
    3.2549    1.2193   -0.7142 C   0  0  0  0  0  0  0  0  0  0  0  0
    1.2831   -0.1025    0.1350 C   0  0  0  0  0  0  0  0  0  0  0  0
    3.1679    0.2947    1.5885 N   0  0  0  0  0  0  0  0  0  0  0  0
    4.4436    0.4793    2.0505 C   0  0  0  0  0  0  0  0  0  0  0  0
    5.4595    0.3941    1.3858 O   0  0  0  0  0  0  0  0  0  0  0  0
    4.4876    0.7883    3.4290 N   0  0  0  0  0  0  0  0  0  0  0  0
    5.7282    0.8052    4.0485 N   0  0  0  0  0  0  0  0  0  0  0  0
    6.3661    2.0329    4.1983 C   0  0  0  0  0  0  0  0  0  0  0  0
    7.6349    2.1478    4.3327 N   0  0  0  0  0  0  0  0  0  0  0  0
    7.8761    3.5646    4.6062 C   0  0  0  0  0  0  0  0  0  0  0  0
    6.5576    4.2934    4.2223 C   0  0  0  0  0  0  0  0  0  0  0  0
    5.6014    3.1879    4.3222 N   0  0  0  0  0  0  0  0  0  0  0  0
    3.1768   -1.4815   -1.3423 H   0  0  0  0  0  0  0  0  0  0  0  0
    3.1448   -2.1130    0.3271 H   0  0  0  0  0  0  0  0  0  0  0  0
    4.5622   -1.1935   -0.2514 H   0  0  0  0  0  0  0  0  0  0  0  0
    2.9742    1.0391   -1.7640 H   0  0  0  0  0  0  0  0  0  0  0  0
    4.3444    1.3505   -0.6608 H   0  0  0  0  0  0  0  0  0  0  0  0
    2.7723    2.1551   -0.3879 H   0  0  0  0  0  0  0  0  0  0  0  0
    0.9439   -0.2992   -0.8927 H   0  0  0  0  0  0  0  0  0  0  0  0
    0.7862    0.8211    0.4781 H   0  0  0  0  0  0  0  0  0  0  0  0
    0.9462   -0.9372    0.7707 H   0  0  0  0  0  0  0  0  0  0  0  0
    2.4148    0.6188    2.1850 H   0  0  0  0  0  0  0  0  0  0  0  0
    3.7639    0.3607    4.0030 H   0  0  0  0  0  0  0  0  0  0  0  0
    6.3744    0.0884    3.7192 H   0  0  0  0  0  0  0  0  0  0  0  0
    8.7449    3.9432    4.0437 H   0  0  0  0  0  0  0  0  0  0  0  0
    8.1025    3.7103    5.6808 H   0  0  0  0  0  0  0  0  0  0  0  0
    6.6065    4.6972    3.1920 H   0  0  0  0  0  0  0  0  0  0  0  0
    6.3028    5.1208    4.9028 H   0  0  0  0  0  0  0  0  0  0  0  0
    4.7346    3.2272    3.7967 H   0  0  0  0  0  0  0  0  0  0  0  0
  1  2  1  0
  1 15  1  0
  1 16  1  0
  1 17  1  0
  2  3  1  0
  2  4  1  0
  2  5  1  1
  3 18  1  0
  3 19  1  0
  3 20  1  0
  4 21  1  0
  4 22  1  0
  4 23  1  0
  5  6  1  0
  5 24  1  0
  6  7  2  0
  6  8  1  0
  8  9  1  0
  8 25  1  0
  9 10  1  0
  9 26  1  0
 10 11  2  0
 10 14  1  0
 11 12  1  0
 12 13  1  0
 12 27  1  0
 12 28  1  0
 13 14  1  0
 13 29  1  0
 13 30  1  0
 14 31  1  0
M  END

