
     RDKit          3D

 44 45  0  0  0  0  0  0  0  0999 V2000
    0.8315   -2.1922   -1.6059 C   0  0  0  0  0  0  0  0  0  0  0  0
    1.2883   -2.4434   -0.1668 C   0  0  0  0  0  0  0  0  0  0  0  0
    2.3559   -1.4628    0.3395 C   0  0  1  0  0  0  0  0  0  0  0  0
    1.8837    0.0065    0.3769 C   0  0  0  0  0  0  0  0  0  0  0  0
    2.8602    0.6718    1.3438 C   0  0  0  0  0  0  0  0  0  0  0  0
    2.9786   -0.3626    2.4698 C   0  0  0  0  0  0  0  0  0  0  0  0
    2.8891   -1.7643    1.7824 C   0  0  2  0  0  0  0  0  0  0  0  0
    4.1958   -2.4525    1.8113 N   0  0  0  0  0  0  0  0  0  0  0  0
    4.6534   -2.7940    3.1613 C   0  0  0  0  0  0  0  0  0  0  0  0
    4.0525   -4.0876    3.7498 C   0  0  2  0  0  0  0  0  0  0  0  0
    4.5665   -4.3386    5.1716 C   0  0  0  0  0  0  0  0  0  0  0  0
    3.9572   -5.5246    5.7670 N   0  0  0  0  0  0  0  0  0  0  0  0
    4.3277   -5.2568    2.7957 C   0  0  0  0  0  0  0  0  0  0  0  0
    3.8561   -4.9137    1.3791 C   0  0  0  0  0  0  0  0  0  0  0  0
    4.4243   -3.5666    0.8692 C   0  0  2  0  0  0  0  0  0  0  0  0
    5.9111   -3.6601    0.4893 C   0  0  0  0  0  0  0  0  0  0  0  0
    0.0937   -2.9449   -1.9271 H   0  0  0  0  0  0  0  0  0  0  0  0
    1.6805   -2.2396   -2.3091 H   0  0  0  0  0  0  0  0  0  0  0  0
    0.3631   -1.2019   -1.7220 H   0  0  0  0  0  0  0  0  0  0  0  0
    1.6648   -3.4768   -0.0869 H   0  0  0  0  0  0  0  0  0  0  0  0
    0.4159   -2.3931    0.5110 H   0  0  0  0  0  0  0  0  0  0  0  0
    3.2239   -1.4944   -0.3419 H   0  0  0  0  0  0  0  0  0  0  0  0
    0.8558    0.0628    0.7815 H   0  0  0  0  0  0  0  0  0  0  0  0
    1.8650    0.4723   -0.6208 H   0  0  0  0  0  0  0  0  0  0  0  0
    2.5319    1.6626    1.6964 H   0  0  0  0  0  0  0  0  0  0  0  0
    3.8392    0.8046    0.8520 H   0  0  0  0  0  0  0  0  0  0  0  0
    2.1375   -0.2414    3.1732 H   0  0  0  0  0  0  0  0  0  0  0  0
    3.9040   -0.2397    3.0477 H   0  0  0  0  0  0  0  0  0  0  0  0
    2.1119   -2.3617    2.3079 H   0  0  0  0  0  0  0  0  0  0  0  0
    4.4483   -1.9508    3.8362 H   0  0  0  0  0  0  0  0  0  0  0  0
    5.7537   -2.9015    3.1456 H   0  0  0  0  0  0  0  0  0  0  0  0
    2.9540   -3.9515    3.8157 H   0  0  0  0  0  0  0  0  0  0  0  0
    4.4202   -3.4101    5.7682 H   0  0  0  0  0  0  0  0  0  0  0  0
    5.6589   -4.5028    5.1302 H   0  0  0  0  0  0  0  0  0  0  0  0
    2.9661   -5.3584    5.9479 H   0  0  0  0  0  0  0  0  0  0  0  0
    4.3802   -5.7309    6.6716 H   0  0  0  0  0  0  0  0  0  0  0  0
    3.8430   -6.1717    3.1683 H   0  0  0  0  0  0  0  0  0  0  0  0
    5.4136   -5.4671    2.7971 H   0  0  0  0  0  0  0  0  0  0  0  0
    2.7533   -4.8560    1.3778 H   0  0  0  0  0  0  0  0  0  0  0  0
    4.1225   -5.7193    0.6732 H   0  0  0  0  0  0  0  0  0  0  0  0
    3.8969   -3.3205   -0.0613 H   0  0  0  0  0  0  0  0  0  0  0  0
    6.5530   -3.9527    1.3342 H   0  0  0  0  0  0  0  0  0  0  0  0
    6.2659   -2.6850    0.1228 H   0  0  0  0  0  0  0  0  0  0  0  0
    6.0583   -4.4084   -0.3063 H   0  0  0  0  0  0  0  0  0  0  0  0
  1  2  1  0
  1 17  1  0
  1 18  1  0
  1 19  1  0
  2  3  1  0
  2 20  1  0
  2 21  1  0
  3  4  1  0
  3  7  1  0
  3 22  1  6
  4  5  1  0
  4 23  1  0
  4 24  1  0
  5  6  1  0
  5 25  1  0
  5 26  1  0
  6  7  1  0
  6 27  1  0
  6 28  1  0
  7  8  1  0
  7 29  1  1
  8  9  1  0
  8 15  1  0
  9 10  1  0
  9 30  1  0
  9 31  1  0
 10 11  1  0
 10 13  1  0
 10 32  1  1
 11 12  1  0
 11 33  1  0
 11 34  1  0
 12 35  1  0
 12 36  1  0
 13 14  1  0
 13 37  1  0
 13 38  1  0
 14 15  1  0
 14 39  1  0
 14 40  1  0
 15 16  1  0
 15 41  1  6
 16 42  1  0
 16 43  1  0
 16 44  1  0
M  END

