
     RDKit          3D

 44 46  0  0  0  0  0  0  0  0999 V2000
    3.5482   -2.7525    6.6002 C   0  0  0  0  0  0  0  0  0  0  0  0
    4.7157   -3.3810    6.1571 C   0  0  0  0  0  0  0  0  0  0  0  0
    5.3129   -2.9861    4.9567 C   0  0  0  0  0  0  0  0  0  0  0  0
    4.7596   -1.9582    4.1753 C   0  0  0  0  0  0  0  0  0  0  0  0
    5.3802   -1.5632    2.8545 C   0  0  0  0  0  0  0  0  0  0  0  0
    4.8398   -2.3877    1.6680 C   0  0  0  0  0  0  0  0  0  0  0  0
    5.4225   -1.9805    0.3958 N   0  0  0  0  0  0  0  0  0  0  0  0
    6.7064   -2.5809    0.0326 C   0  0  1  0  0  0  0  0  0  0  0  0
    6.6218   -4.0333   -0.4827 C   0  0  0  0  0  0  0  0  0  0  0  0
    5.9833   -4.1328   -1.8727 C   0  0  0  0  0  0  0  0  0  0  0  0
    6.6431   -3.2642   -2.8421 N   0  0  0  0  0  0  0  0  0  0  0  0
    6.5875   -3.5712   -4.1972 C   0  0  0  0  0  0  0  0  0  0  0  0
    5.8838   -4.6917   -4.6999 C   0  0  0  0  0  0  0  0  0  0  0  0
    5.9045   -4.9678   -6.0676 C   0  0  0  0  0  0  0  0  0  0  0  0
    6.5444   -4.2369   -6.9821 N   0  0  0  0  0  0  0  0  0  0  0  0
    7.2024   -3.1703   -6.5151 C   0  0  0  0  0  0  0  0  0  0  0  0
    7.2567   -2.7952   -5.1756 C   0  0  0  0  0  0  0  0  0  0  0  0
    6.7577   -1.8691   -2.4095 C   0  0  0  0  0  0  0  0  0  0  0  0
    7.4204   -1.7413   -1.0371 C   0  0  0  0  0  0  0  0  0  0  0  0
    3.5866   -1.3367    4.6343 C   0  0  0  0  0  0  0  0  0  0  0  0
    2.9856   -1.7270    5.8343 C   0  0  0  0  0  0  0  0  0  0  0  0
    3.0816   -3.0572    7.5405 H   0  0  0  0  0  0  0  0  0  0  0  0
    5.1668   -4.1802    6.7514 H   0  0  0  0  0  0  0  0  0  0  0  0
    6.2308   -3.4794    4.6226 H   0  0  0  0  0  0  0  0  0  0  0  0
    6.4751   -1.6835    2.9100 H   0  0  0  0  0  0  0  0  0  0  0  0
    5.1909   -0.4995    2.6398 H   0  0  0  0  0  0  0  0  0  0  0  0
    3.7494   -2.2375    1.6110 H   0  0  0  0  0  0  0  0  0  0  0  0
    4.9831   -3.4671    1.8899 H   0  0  0  0  0  0  0  0  0  0  0  0
    4.7442   -2.0796   -0.3544 H   0  0  0  0  0  0  0  0  0  0  0  0
    7.3276   -2.5722    0.9433 H   0  0  0  0  0  0  0  0  0  0  0  0
    6.0488   -4.6629    0.2179 H   0  0  0  0  0  0  0  0  0  0  0  0
    7.6399   -4.4557   -0.5327 H   0  0  0  0  0  0  0  0  0  0  0  0
    4.8958   -3.9033   -1.8119 H   0  0  0  0  0  0  0  0  0  0  0  0
    6.0609   -5.1730   -2.2133 H   0  0  0  0  0  0  0  0  0  0  0  0
    5.3055   -5.3452   -4.0486 H   0  0  0  0  0  0  0  0  0  0  0  0
    5.3519   -5.8405   -6.4384 H   0  0  0  0  0  0  0  0  0  0  0  0
    7.7352   -2.5622   -7.2570 H   0  0  0  0  0  0  0  0  0  0  0  0
    7.8411   -1.9159   -4.9057 H   0  0  0  0  0  0  0  0  0  0  0  0
    5.7509   -1.3976   -2.3860 H   0  0  0  0  0  0  0  0  0  0  0  0
    7.3403   -1.3012   -3.1426 H   0  0  0  0  0  0  0  0  0  0  0  0
    7.4217   -0.6835   -0.7323 H   0  0  0  0  0  0  0  0  0  0  0  0
    8.4686   -2.0751   -1.1187 H   0  0  0  0  0  0  0  0  0  0  0  0
    3.1423   -0.5288    4.0449 H   0  0  0  0  0  0  0  0  0  0  0  0
    2.0760   -1.2250    6.1749 H   0  0  0  0  0  0  0  0  0  0  0  0
  1  2  2  0
  1 21  1  0
  1 22  1  0
  2  3  1  0
  2 23  1  0
  3  4  2  0
  3 24  1  0
  4  5  1  0
  4 20  1  0
  5  6  1  0
  5 25  1  0
  5 26  1  0
  6  7  1  0
  6 27  1  0
  6 28  1  0
  7  8  1  0
  7 29  1  0
  8  9  1  0
  8 19  1  0
  8 30  1  1
  9 10  1  0
  9 31  1  0
  9 32  1  0
 10 11  1  0
 10 33  1  0
 10 34  1  0
 11 12  1  0
 11 18  1  0
 12 13  2  0
 12 17  1  0
 13 14  1  0
 13 35  1  0
 14 15  2  0
 14 36  1  0
 15 16  1  0
 16 17  2  0
 16 37  1  0
 17 38  1  0
 18 19  1  0
 18 39  1  0
 18 40  1  0
 19 41  1  0
 19 42  1  0
 20 21  2  0
 20 43  1  0
 21 44  1  0
M  END

