
     RDKit          3D

 33 34  0  0  0  0  0  0  0  0999 V2000
    1.4806   -0.8100   -0.4092 C   0  0  0  0  0  0  0  0  0  0  0  0
    2.9328   -0.4190   -0.3232 C   0  0  0  0  0  0  0  0  0  0  0  0
    3.3373    0.8625    0.0658 C   0  0  0  0  0  0  0  0  0  0  0  0
    4.7016    1.1846    0.1226 C   0  0  0  0  0  0  0  0  0  0  0  0
    5.1609    2.5568    0.5458 C   0  0  0  0  0  0  0  0  0  0  0  0
    5.6296    0.1819   -0.2152 C   0  0  0  0  0  0  0  0  0  0  0  0
    7.1109    0.4501   -0.1584 C   0  0  0  0  0  0  0  0  0  0  0  0
    7.8776    0.1293    0.8158 N   0  0  0  0  0  0  0  0  0  0  0  0
    7.6054    1.1620   -1.2326 N   0  0  0  0  0  0  0  0  0  0  0  0
    5.1193   -1.0837   -0.5856 C   0  0  0  0  0  0  0  0  0  0  0  0
    6.3128   -2.3707   -0.9961 S   0  0  0  0  0  0  0  0  0  0  0  0
    5.2693   -3.7018   -1.5799 C   0  0  0  0  0  0  0  0  0  0  0  0
    5.1769   -4.8740   -0.8179 C   0  0  0  0  0  0  0  0  0  0  0  0
    4.4326   -5.9578   -1.2957 C   0  0  0  0  0  0  0  0  0  0  0  0
    3.7710   -5.8794   -2.5228 C   0  0  0  0  0  0  0  0  0  0  0  0
    3.8748   -4.7016   -3.2624 C   0  0  0  0  0  0  0  0  0  0  0  0
    3.2459   -4.6182   -4.4450 F   0  0  0  0  0  0  0  0  0  0  0  0
    4.6204   -3.6144   -2.8191 C   0  0  0  0  0  0  0  0  0  0  0  0
    3.8279   -1.3664   -0.6384 N   0  0  0  0  0  0  0  0  0  0  0  0
    0.8132    0.0161   -0.1263 H   0  0  0  0  0  0  0  0  0  0  0  0
    1.2799   -1.6711    0.2482 H   0  0  0  0  0  0  0  0  0  0  0  0
    1.2336   -1.1312   -1.4340 H   0  0  0  0  0  0  0  0  0  0  0  0
    2.5898    1.6165    0.3233 H   0  0  0  0  0  0  0  0  0  0  0  0
    4.3093    3.2263    0.7312 H   0  0  0  0  0  0  0  0  0  0  0  0
    5.8113    3.0070   -0.2192 H   0  0  0  0  0  0  0  0  0  0  0  0
    5.7639    2.4962    1.4663 H   0  0  0  0  0  0  0  0  0  0  0  0
    7.3438   -0.3388    1.5512 H   0  0  0  0  0  0  0  0  0  0  0  0
    7.1408    1.0431   -2.1250 H   0  0  0  0  0  0  0  0  0  0  0  0
    8.6190    1.2206   -1.2736 H   0  0  0  0  0  0  0  0  0  0  0  0
    5.6847   -4.9303    0.1465 H   0  0  0  0  0  0  0  0  0  0  0  0
    4.3625   -6.8723   -0.7018 H   0  0  0  0  0  0  0  0  0  0  0  0
    3.1806   -6.7091   -2.9162 H   0  0  0  0  0  0  0  0  0  0  0  0
    4.6850   -2.7171   -3.4354 H   0  0  0  0  0  0  0  0  0  0  0  0
  1  2  1  0
  1 20  1  0
  1 21  1  0
  1 22  1  0
  2  3  2  0
  2 19  1  0
  3  4  1  0
  3 23  1  0
  4  5  1  0
  4  6  2  0
  5 24  1  0
  5 25  1  0
  5 26  1  0
  6  7  1  0
  6 10  1  0
  7  8  2  0
  7  9  1  0
  8 27  1  0
  9 28  1  0
  9 29  1  0
 10 11  1  0
 10 19  2  0
 11 12  1  0
 12 13  2  0
 12 18  1  0
 13 14  1  0
 13 30  1  0
 14 15  2  0
 14 31  1  0
 15 16  1  0
 15 32  1  0
 16 17  1  0
 16 18  2  0
 18 33  1  0
M  END

