
     RDKit          3D

 44 44  0  0  0  0  0  0  0  0999 V2000
    0.8366   -2.2253    2.7994 C   0  0  0  0  0  0  0  0  0  0  0  0
    2.3198   -2.6251    2.7726 C   0  0  1  0  0  0  0  0  0  0  0  0
    2.4507   -4.1538    2.8112 C   0  0  0  0  0  0  0  0  0  0  0  0
    3.0689   -2.0140    1.5537 C   0  0  1  0  0  0  0  0  0  0  0  0
    2.7378   -2.5662    0.6508 H   0  0  0  0  0  0  0  0  0  0  0  0
    2.8438   -0.5683    1.4690 N   0  0  0  0  0  0  0  0  0  0  0  0
    4.5822   -2.2952    1.6606 C   0  0  0  0  0  0  0  0  0  0  0  0
    5.0683   -3.3589    1.3003 O   0  0  0  0  0  0  0  0  0  0  0  0
    5.2988   -1.2809    2.2102 N   0  0  0  0  0  0  0  0  0  0  0  0
    6.7271   -1.3564    2.4477 C   0  0  0  0  0  0  0  0  0  0  0  0
    7.0940   -1.8169    3.8637 C   0  0  0  0  0  0  0  0  0  0  0  0
    8.6070   -1.8194    4.1164 C   0  0  0  0  0  0  0  0  0  0  0  0
    9.2081   -0.4913    4.0114 N   0  0  0  0  0  0  0  0  0  0  0  0
    9.0302    0.3672    5.1819 C   0  0  0  0  0  0  0  0  0  0  0  0
   10.0146    0.0677    6.3280 C   0  0  0  0  0  0  0  0  0  0  0  0
   11.4642    0.1095    5.8244 C   0  0  0  0  0  0  0  0  0  0  0  0
   11.6382   -0.7917    4.5940 C   0  0  0  0  0  0  0  0  0  0  0  0
   10.5850   -0.4481    3.5257 C   0  0  0  0  0  0  0  0  0  0  0  0
    0.3220   -2.7294    3.6328 H   0  0  0  0  0  0  0  0  0  0  0  0
    0.3248   -2.5257    1.8683 H   0  0  0  0  0  0  0  0  0  0  0  0
    0.6877   -1.1438    2.9458 H   0  0  0  0  0  0  0  0  0  0  0  0
    2.7972   -2.2080    3.6785 H   0  0  0  0  0  0  0  0  0  0  0  0
    1.9239   -4.6113    1.9565 H   0  0  0  0  0  0  0  0  0  0  0  0
    1.9985   -4.5526    3.7335 H   0  0  0  0  0  0  0  0  0  0  0  0
    3.4974   -4.4811    2.7604 H   0  0  0  0  0  0  0  0  0  0  0  0
    1.8497   -0.3520    1.4999 H   0  0  0  0  0  0  0  0  0  0  0  0
    3.1863   -0.2126    0.5759 H   0  0  0  0  0  0  0  0  0  0  0  0
    4.7662   -0.4474    2.4479 H   0  0  0  0  0  0  0  0  0  0  0  0
    7.1809   -0.3712    2.2595 H   0  0  0  0  0  0  0  0  0  0  0  0
    7.1425   -2.0652    1.7144 H   0  0  0  0  0  0  0  0  0  0  0  0
    6.7049   -2.8364    4.0245 H   0  0  0  0  0  0  0  0  0  0  0  0
    6.5854   -1.1713    4.6017 H   0  0  0  0  0  0  0  0  0  0  0  0
    9.0845   -2.4629    3.3583 H   0  0  0  0  0  0  0  0  0  0  0  0
    8.8041   -2.3103    5.0939 H   0  0  0  0  0  0  0  0  0  0  0  0
    7.9901    0.2876    5.5353 H   0  0  0  0  0  0  0  0  0  0  0  0
    9.1680    1.4173    4.8607 H   0  0  0  0  0  0  0  0  0  0  0  0
    9.7999   -0.9300    6.7515 H   0  0  0  0  0  0  0  0  0  0  0  0
    9.8632    0.7914    7.1474 H   0  0  0  0  0  0  0  0  0  0  0  0
   12.1650   -0.1796    6.6256 H   0  0  0  0  0  0  0  0  0  0  0  0
   11.7207    1.1498    5.5476 H   0  0  0  0  0  0  0  0  0  0  0  0
   11.5326   -1.8513    4.8902 H   0  0  0  0  0  0  0  0  0  0  0  0
   12.6517   -0.6842    4.1703 H   0  0  0  0  0  0  0  0  0  0  0  0
   10.6763   -1.1181    2.6556 H   0  0  0  0  0  0  0  0  0  0  0  0
   10.7822    0.5763    3.1546 H   0  0  0  0  0  0  0  0  0  0  0  0
  1  2  1  0
  1 19  1  0
  1 20  1  0
  1 21  1  0
  2  3  1  0
  2  4  1  0
  2 22  1  1
  3 23  1  0
  3 24  1  0
  3 25  1  0
  4  5  1  6
  4  6  1  0
  4  7  1  0
  6 26  1  0
  6 27  1  0
  7  8  2  0
  7  9  1  0
  9 10  1  0
  9 28  1  0
 10 11  1  0
 10 29  1  0
 10 30  1  0
 11 12  1  0
 11 31  1  0
 11 32  1  0
 12 13  1  0
 12 33  1  0
 12 34  1  0
 13 14  1  0
 13 18  1  0
 14 15  1  0
 14 35  1  0
 14 36  1  0
 15 16  1  0
 15 37  1  0
 15 38  1  0
 16 17  1  0
 16 39  1  0
 16 40  1  0
 17 18  1  0
 17 41  1  0
 17 42  1  0
 18 43  1  0
 18 44  1  0
M  END

