
     RDKit          3D

 34 35  0  0  0  0  0  0  0  0999 V2000
    1.0278   -0.0679    1.0865 C   0  0  0  0  0  0  0  0  0  0  0  0
    2.4133    0.0257    0.4794 C   0  0  0  0  0  0  0  0  0  0  0  0
    3.0077    1.2947    0.3714 C   0  0  0  0  0  0  0  0  0  0  0  0
    4.2957    1.4678   -0.1359 C   0  0  0  0  0  0  0  0  0  0  0  0
    5.0424    0.3545   -0.5303 C   0  0  0  0  0  0  0  0  0  0  0  0
    4.4812   -0.9149   -0.4200 C   0  0  0  0  0  0  0  0  0  0  0  0
    3.1695   -1.0945    0.0536 C   0  0  0  0  0  0  0  0  0  0  0  0
    2.7094   -2.5309    0.1082 C   0  0  0  0  0  0  0  0  0  0  0  0
    3.4746   -3.4394    0.3793 O   0  0  0  0  0  0  0  0  0  0  0  0
    1.3848   -2.7421   -0.2255 N   0  0  0  0  0  0  0  0  0  0  0  0
    0.6916   -3.9545   -0.2821 C   0  0  0  0  0  0  0  0  0  0  0  0
    1.2129   -5.2065    0.0769 C   0  0  0  0  0  0  0  0  0  0  0  0
    0.3965   -6.3361   -0.0317 C   0  0  0  0  0  0  0  0  0  0  0  0
    1.0796   -7.9327    0.4315 S   0  0  1  0  0  0  0  0  0  0  0  0
    2.0037   -8.3674   -0.9141 N   0  0  0  0  0  0  0  0  0  0  0  0
    2.0199   -7.7177    1.5318 O   0  0  0  0  0  0  0  0  0  0  0  0
   -0.0401   -8.8736    0.5242 O   0  0  0  0  0  0  0  0  0  0  0  0
   -0.9269   -6.2734   -0.4667 C   0  0  0  0  0  0  0  0  0  0  0  0
   -1.4533   -5.0271   -0.8197 C   0  0  0  0  0  0  0  0  0  0  0  0
   -0.6469   -3.9049   -0.7239 C   0  0  0  0  0  0  0  0  0  0  0  0
   -1.1420   -2.6951   -1.0588 F   0  0  0  0  0  0  0  0  0  0  0  0
    0.8056    0.8413    1.6636 H   0  0  0  0  0  0  0  0  0  0  0  0
    0.9230   -0.9294    1.7620 H   0  0  0  0  0  0  0  0  0  0  0  0
    0.2324   -0.1521    0.3239 H   0  0  0  0  0  0  0  0  0  0  0  0
    2.4438    2.1683    0.7101 H   0  0  0  0  0  0  0  0  0  0  0  0
    4.7210    2.4721   -0.2075 H   0  0  0  0  0  0  0  0  0  0  0  0
    6.0585    0.4742   -0.9135 H   0  0  0  0  0  0  0  0  0  0  0  0
    5.0516   -1.8030   -0.6987 H   0  0  0  0  0  0  0  0  0  0  0  0
    0.8523   -1.9388   -0.5353 H   0  0  0  0  0  0  0  0  0  0  0  0
    2.2366   -5.2769    0.4371 H   0  0  0  0  0  0  0  0  0  0  0  0
    2.9696   -8.5297   -0.6292 H   0  0  0  0  0  0  0  0  0  0  0  0
    1.5965   -9.1804   -1.3757 H   0  0  0  0  0  0  0  0  0  0  0  0
   -1.5307   -7.1801   -0.5140 H   0  0  0  0  0  0  0  0  0  0  0  0
   -2.4832   -4.9115   -1.1623 H   0  0  0  0  0  0  0  0  0  0  0  0
  1  2  1  0
  1 22  1  0
  1 23  1  0
  1 24  1  0
  2  3  2  0
  2  7  1  0
  3  4  1  0
  3 25  1  0
  4  5  2  0
  4 26  1  0
  5  6  1  0
  5 27  1  0
  6  7  2  0
  6 28  1  0
  7  8  1  0
  8  9  2  0
  8 10  1  0
 10 11  1  0
 10 29  1  0
 11 12  2  0
 11 20  1  0
 12 13  1  0
 12 30  1  0
 13 14  1  0
 13 18  2  0
 14 15  1  6
 14 16  2  0
 14 17  2  0
 15 31  1  0
 15 32  1  0
 18 19  1  0
 18 33  1  0
 19 20  2  0
 19 34  1  0
 20 21  1  0
M  END

