
     RDKit          3D

 62 64  0  0  0  0  0  0  0  0999 V2000
    1.4301   -2.6492    0.7876 C   0  0  0  0  0  0  0  0  0  0  0  0
    2.7756   -2.1364    0.9355 N   0  0  0  0  0  0  0  0  0  0  0  0
    3.1865   -0.9826    0.3268 C   0  0  0  0  0  0  0  0  0  0  0  0
    2.4670   -0.3193   -0.4030 O   0  0  0  0  0  0  0  0  0  0  0  0
    4.6231   -0.5516    0.6244 C   0  0  0  0  0  0  0  0  0  0  0  0
    4.7191    0.3735    1.8589 C   0  0  1  0  0  0  0  0  0  0  0  0
    3.9217    1.1287    1.7858 H   0  0  0  0  0  0  0  0  0  0  0  0
    4.4174   -0.4270    3.0453 N   0  0  0  0  0  0  0  0  0  0  0  0
    3.4349   -0.1098    3.9194 C   0  0  0  0  0  0  0  0  0  0  0  0
    2.8512    0.9515    3.9951 O   0  0  0  0  0  0  0  0  0  0  0  0
    3.1121   -1.1756    4.8332 N   0  0  0  0  0  0  0  0  0  0  0  0
    3.4783   -2.5260    4.7050 C   0  0  0  0  0  0  0  0  0  0  0  0
    4.1555   -3.0298    3.8092 O   0  0  0  0  0  0  0  0  0  0  0  0
    2.9325   -3.1907    5.7805 N   0  0  0  0  0  0  0  0  0  0  0  0
    3.1351   -4.6114    6.0212 C   0  0  0  0  0  0  0  0  0  0  0  0
    1.9174   -5.4989    5.6858 C   0  0  1  0  0  0  0  0  0  0  0  0
    1.4919   -5.4347    4.2045 C   0  0  0  0  0  0  0  0  0  0  0  0
    2.4360   -6.2295    3.2994 C   0  0  0  0  0  0  0  0  0  0  0  0
    2.5653   -7.5718    3.7314 O   0  0  0  0  0  0  0  0  0  0  0  0
    3.0878   -7.6728    5.0388 C   0  0  0  0  0  0  0  0  0  0  0  0
    2.1912   -6.9706    6.0641 C   0  0  0  0  0  0  0  0  0  0  0  0
    2.2243   -2.2947    6.5857 C   0  0  0  0  0  0  0  0  0  0  0  0
    1.5302   -2.4889    7.7784 C   0  0  0  0  0  0  0  0  0  0  0  0
    0.9225   -1.3697    8.3618 C   0  0  0  0  0  0  0  0  0  0  0  0
    1.0109   -0.1058    7.7639 C   0  0  0  0  0  0  0  0  0  0  0  0
    1.7118    0.0916    6.5664 C   0  0  0  0  0  0  0  0  0  0  0  0
    2.3217   -1.0215    5.9903 C   0  0  0  0  0  0  0  0  0  0  0  0
    6.0727    1.1538    1.9875 C   0  0  1  0  0  0  0  0  0  0  0  0
    6.2261    2.1108    0.7895 C   0  0  0  0  0  0  0  0  0  0  0  0
    6.0379    1.9948    3.2787 C   0  0  0  0  0  0  0  0  0  0  0  0
    7.2740    0.1924    2.0429 C   0  0  0  0  0  0  0  0  0  0  0  0
    1.4359   -3.6989    0.4486 H   0  0  0  0  0  0  0  0  0  0  0  0
    0.9182   -2.0337    0.0363 H   0  0  0  0  0  0  0  0  0  0  0  0
    0.8600   -2.5917    1.7319 H   0  0  0  0  0  0  0  0  0  0  0  0
    3.3925   -2.5948    1.5988 H   0  0  0  0  0  0  0  0  0  0  0  0
    4.9597   -0.0130   -0.2696 H   0  0  0  0  0  0  0  0  0  0  0  0
    5.2779   -1.4289    0.7590 H   0  0  0  0  0  0  0  0  0  0  0  0
    4.7705   -1.3830    3.0942 H   0  0  0  0  0  0  0  0  0  0  0  0
    3.3980   -4.7391    7.0844 H   0  0  0  0  0  0  0  0  0  0  0  0
    4.0157   -4.8982    5.4300 H   0  0  0  0  0  0  0  0  0  0  0  0
    1.0765   -5.1357    6.3008 H   0  0  0  0  0  0  0  0  0  0  0  0
    1.4243   -4.3913    3.8555 H   0  0  0  0  0  0  0  0  0  0  0  0
    0.4799   -5.8642    4.1143 H   0  0  0  0  0  0  0  0  0  0  0  0
    3.4304   -5.7401    3.2539 H   0  0  0  0  0  0  0  0  0  0  0  0
    2.0434   -6.2687    2.2717 H   0  0  0  0  0  0  0  0  0  0  0  0
    4.1185   -7.2586    5.0718 H   0  0  0  0  0  0  0  0  0  0  0  0
    3.1650   -8.7471    5.2666 H   0  0  0  0  0  0  0  0  0  0  0  0
    2.6421   -7.0443    7.0694 H   0  0  0  0  0  0  0  0  0  0  0  0
    1.2294   -7.5083    6.1053 H   0  0  0  0  0  0  0  0  0  0  0  0
    1.4589   -3.4739    8.2423 H   0  0  0  0  0  0  0  0  0  0  0  0
    0.3687   -1.4892    9.2958 H   0  0  0  0  0  0  0  0  0  0  0  0
    0.5216    0.7486    8.2371 H   0  0  0  0  0  0  0  0  0  0  0  0
    1.7822    1.0661    6.0884 H   0  0  0  0  0  0  0  0  0  0  0  0
    5.3576    2.7838    0.7021 H   0  0  0  0  0  0  0  0  0  0  0  0
    6.3367    1.5769   -0.1666 H   0  0  0  0  0  0  0  0  0  0  0  0
    7.1228    2.7380    0.9171 H   0  0  0  0  0  0  0  0  0  0  0  0
    5.1600    2.6584    3.3031 H   0  0  0  0  0  0  0  0  0  0  0  0
    6.9438    2.6177    3.3519 H   0  0  0  0  0  0  0  0  0  0  0  0
    5.9976    1.3574    4.1747 H   0  0  0  0  0  0  0  0  0  0  0  0
    7.3912   -0.3822    1.1104 H   0  0  0  0  0  0  0  0  0  0  0  0
    7.1813   -0.5226    2.8769 H   0  0  0  0  0  0  0  0  0  0  0  0
    8.2083    0.7555    2.1987 H   0  0  0  0  0  0  0  0  0  0  0  0
  1  2  1  0
  1 32  1  0
  1 33  1  0
  1 34  1  0
  2  3  1  0
  2 35  1  0
  3  4  2  0
  3  5  1  0
  5  6  1  0
  5 36  1  0
  5 37  1  0
  6  7  1  6
  6  8  1  0
  6 28  1  0
  8  9  1  0
  8 38  1  0
  9 10  2  0
  9 11  1  0
 11 12  1  0
 11 27  1  0
 12 13  2  0
 12 14  1  0
 14 15  1  0
 14 22  1  0
 15 16  1  0
 15 39  1  0
 15 40  1  0
 16 17  1  0
 16 21  1  0
 16 41  1  1
 17 18  1  0
 17 42  1  0
 17 43  1  0
 18 19  1  0
 18 44  1  0
 18 45  1  0
 19 20  1  0
 20 21  1  0
 20 46  1  0
 20 47  1  0
 21 48  1  0
 21 49  1  0
 22 23  1  0
 22 27  2  0
 23 24  2  0
 23 50  1  0
 24 25  1  0
 24 51  1  0
 25 26  2  0
 25 52  1  0
 26 27  1  0
 26 53  1  0
 28 29  1  6
 28 30  1  0
 28 31  1  0
 29 54  1  0
 29 55  1  0
 29 56  1  0
 30 57  1  0
 30 58  1  0
 30 59  1  0
 31 60  1  0
 31 61  1  0
 31 62  1  0
M  END

