
     RDKit          3D

 65 68  0  0  0  0  0  0  0  0999 V2000
    7.4510    1.5778    0.5374 C   0  0  0  0  0  0  0  0  0  0  0  0
    8.1137    0.2370    0.7454 C   0  0  0  0  0  0  0  0  0  0  0  0
    9.2844    0.1091    1.5063 C   0  0  0  0  0  0  0  0  0  0  0  0
    9.8877   -1.1405    1.6955 C   0  0  0  0  0  0  0  0  0  0  0  0
    9.3327   -2.2843    1.1282 C   0  0  0  0  0  0  0  0  0  0  0  0
    8.1586   -2.1763    0.3610 C   0  0  0  0  0  0  0  0  0  0  0  0
    7.5502   -3.3678   -0.2518 C   0  0  0  0  0  0  0  0  0  0  0  0
    8.0622   -4.5736   -0.1402 N   0  0  0  0  0  0  0  0  0  0  0  0
    7.1866   -5.3729   -0.8573 O   0  0  0  0  0  0  0  0  0  0  0  0
    6.2241   -4.5741   -1.3376 C   0  0  0  0  0  0  0  0  0  0  0  0
    5.1034   -5.1969   -2.1174 C   0  0  0  0  0  0  0  0  0  0  0  0
    3.9992   -5.5651   -1.2428 N   0  0  0  0  0  0  0  0  0  0  0  0
    3.1299   -4.4572   -0.8415 C   0  0  0  0  0  0  0  0  0  0  0  0
    2.0890   -4.0932   -1.9123 C   0  0  0  0  0  0  0  0  0  0  0  0
    1.2794   -5.3254   -2.3348 C   0  0  0  0  0  0  0  0  0  0  0  0
    2.1991   -6.4905   -2.7522 C   0  0  2  0  0  0  0  0  0  0  0  0
    1.3842   -7.7624   -2.9840 C   0  0  0  0  0  0  0  0  0  0  0  0
    0.6964   -8.2436   -2.0969 O   0  0  0  0  0  0  0  0  0  0  0  0
    1.5011   -8.3211   -4.2271 N   0  0  0  0  0  0  0  0  0  0  0  0
    0.7901   -9.5194   -4.6348 C   0  0  0  0  0  0  0  0  0  0  0  0
   -0.2312   -9.2624   -5.7482 C   0  0  0  0  0  0  0  0  0  0  0  0
   -0.9560  -10.5262   -6.1908 C   0  0  0  0  0  0  0  0  0  0  0  0
   -1.6449  -11.0669   -5.0882 O   0  0  0  0  0  0  0  0  0  0  0  0
   -2.3046  -12.2927   -5.3202 C   0  0  1  0  0  0  0  0  0  0  0  0
   -2.7604  -12.9096   -3.9964 C   0  0  0  0  0  0  0  0  0  0  0  0
   -3.8029  -13.9431   -4.4331 C   0  0  0  0  0  0  0  0  0  0  0  0
   -4.5826  -13.2376   -5.5695 C   0  0  0  0  0  0  0  0  0  0  0  0
   -3.6063  -12.1809   -6.1577 C   0  0  0  0  0  0  0  0  0  0  0  0
    3.2418   -6.7461   -1.6313 C   0  0  0  0  0  0  0  0  0  0  0  0
    6.3937   -3.3306   -1.0052 N   0  0  0  0  0  0  0  0  0  0  0  0
    7.5619   -0.9214    0.1771 C   0  0  0  0  0  0  0  0  0  0  0  0
    8.0226    2.3900    1.0102 H   0  0  0  0  0  0  0  0  0  0  0  0
    6.4336    1.5907    0.9631 H   0  0  0  0  0  0  0  0  0  0  0  0
    7.3524    1.8137   -0.5351 H   0  0  0  0  0  0  0  0  0  0  0  0
    9.7318    0.9990    1.9581 H   0  0  0  0  0  0  0  0  0  0  0  0
   10.7999   -1.2176    2.2926 H   0  0  0  0  0  0  0  0  0  0  0  0
    9.7945   -3.2630    1.2696 H   0  0  0  0  0  0  0  0  0  0  0  0
    5.4965   -6.1078   -2.5917 H   0  0  0  0  0  0  0  0  0  0  0  0
    4.8329   -4.4902   -2.9284 H   0  0  0  0  0  0  0  0  0  0  0  0
    3.7549   -3.5881   -0.5869 H   0  0  0  0  0  0  0  0  0  0  0  0
    2.6075   -4.7586    0.0844 H   0  0  0  0  0  0  0  0  0  0  0  0
    2.5947   -3.6567   -2.7929 H   0  0  0  0  0  0  0  0  0  0  0  0
    1.4178   -3.3086   -1.5244 H   0  0  0  0  0  0  0  0  0  0  0  0
    0.5871   -5.0755   -3.1565 H   0  0  0  0  0  0  0  0  0  0  0  0
    0.6572   -5.6768   -1.4942 H   0  0  0  0  0  0  0  0  0  0  0  0
    2.7343   -6.2136   -3.6796 H   0  0  0  0  0  0  0  0  0  0  0  0
    2.0748   -7.8442   -4.9122 H   0  0  0  0  0  0  0  0  0  0  0  0
    0.2793   -9.9042   -3.7429 H   0  0  0  0  0  0  0  0  0  0  0  0
    1.5131  -10.2898   -4.9623 H   0  0  0  0  0  0  0  0  0  0  0  0
    0.2682   -8.8237   -6.6313 H   0  0  0  0  0  0  0  0  0  0  0  0
   -0.9715   -8.5243   -5.3970 H   0  0  0  0  0  0  0  0  0  0  0  0
   -0.2281  -11.2673   -6.5885 H   0  0  0  0  0  0  0  0  0  0  0  0
   -1.6513  -10.2863   -7.0202 H   0  0  0  0  0  0  0  0  0  0  0  0
   -1.6029  -12.9922   -5.8230 H   0  0  0  0  0  0  0  0  0  0  0  0
   -3.2246  -12.1117   -3.3911 H   0  0  0  0  0  0  0  0  0  0  0  0
   -1.9265  -13.3279   -3.4122 H   0  0  0  0  0  0  0  0  0  0  0  0
   -4.4530  -14.2777   -3.6103 H   0  0  0  0  0  0  0  0  0  0  0  0
   -3.2932  -14.8416   -4.8226 H   0  0  0  0  0  0  0  0  0  0  0  0
   -5.4786  -12.7417   -5.1639 H   0  0  0  0  0  0  0  0  0  0  0  0
   -4.9386  -13.9517   -6.3279 H   0  0  0  0  0  0  0  0  0  0  0  0
   -4.0025  -11.1607   -6.0287 H   0  0  0  0  0  0  0  0  0  0  0  0
   -3.4264  -12.3265   -7.2339 H   0  0  0  0  0  0  0  0  0  0  0  0
    3.9415   -7.5429   -1.9313 H   0  0  0  0  0  0  0  0  0  0  0  0
    2.6921   -7.1196   -0.7507 H   0  0  0  0  0  0  0  0  0  0  0  0
    6.6513   -0.8601   -0.4230 H   0  0  0  0  0  0  0  0  0  0  0  0
  1  2  1  0
  1 32  1  0
  1 33  1  0
  1 34  1  0
  2  3  2  0
  2 31  1  0
  3  4  1  0
  3 35  1  0
  4  5  2  0
  4 36  1  0
  5  6  1  0
  5 37  1  0
  6  7  1  0
  6 31  2  0
  7  8  2  0
  7 30  1  0
  8  9  1  0
  9 10  1  0
 10 11  1  0
 10 30  2  0
 11 12  1  0
 11 38  1  0
 11 39  1  0
 12 13  1  0
 12 29  1  0
 13 14  1  0
 13 40  1  0
 13 41  1  0
 14 15  1  0
 14 42  1  0
 14 43  1  0
 15 16  1  0
 15 44  1  0
 15 45  1  0
 16 17  1  0
 16 29  1  0
 16 46  1  6
 17 18  2  0
 17 19  1  0
 19 20  1  0
 19 47  1  0
 20 21  1  0
 20 48  1  0
 20 49  1  0
 21 22  1  0
 21 50  1  0
 21 51  1  0
 22 23  1  0
 22 52  1  0
 22 53  1  0
 23 24  1  0
 24 25  1  0
 24 28  1  0
 24 54  1  6
 25 26  1  0
 25 55  1  0
 25 56  1  0
 26 27  1  0
 26 57  1  0
 26 58  1  0
 27 28  1  0
 27 59  1  0
 27 60  1  0
 28 61  1  0
 28 62  1  0
 29 63  1  0
 29 64  1  0
 31 65  1  0
M  END

