
     RDKit          3D

 56 58  0  0  0  0  0  0  0  0999 V2000
    3.7560    5.0630    0.3947 C   0  0  0  0  0  0  0  0  0  0  0  0
    3.2153    4.8083   -1.0153 C   0  0  0  0  0  0  0  0  0  0  0  0
    3.1625    3.3214   -1.4229 C   0  0  1  0  0  0  0  0  0  0  0  0
    2.2062    2.4347   -0.5708 C   0  0  0  0  0  0  0  0  0  0  0  0
    0.6609    2.6482   -0.5484 C   0  0  1  0  0  0  0  0  0  0  0  0
    0.0088    2.5530   -1.9363 C   0  0  0  0  0  0  0  0  0  0  0  0
    0.0719    1.5342    0.3548 C   0  0  0  0  0  0  0  0  0  0  0  0
    0.3337    3.9634    0.1737 C   0  0  0  0  0  0  0  0  0  0  0  0
    0.7013    4.2259    1.2957 O   0  0  0  0  0  0  0  0  0  0  0  0
   -0.4439    4.7976   -0.5435 O   0  0  0  0  0  0  0  0  0  0  0  0
   -0.8174    6.0353    0.0833 C   0  0  0  0  0  0  0  0  0  0  0  0
   -1.7961    6.7478   -0.8296 C   0  0  1  0  0  0  0  0  0  0  0  0
   -2.1324    8.2400   -0.4239 C   0  0  0  0  0  0  0  0  0  0  0  0
   -1.5649    8.6404   -1.7772 C   0  0  0  0  0  0  0  0  0  0  0  0
   -1.3055    9.7171   -2.6177 C   0  0  0  0  0  0  0  0  0  0  0  0
   -0.7122    9.4038   -3.8537 C   0  0  0  0  0  0  0  0  0  0  0  0
   -0.4052    8.0807   -4.2126 C   0  0  0  0  0  0  0  0  0  0  0  0
   -0.6758    6.9997   -3.3541 C   0  0  0  0  0  0  0  0  0  0  0  0
   -1.2606    7.3256   -2.1356 C   0  0  0  0  0  0  0  0  0  0  0  0
    3.0282    3.1027   -2.9319 C   0  0  0  0  0  0  0  0  0  0  0  0
    3.3930    1.8649   -3.4859 C   0  0  0  0  0  0  0  0  0  0  0  0
    3.2979    1.6177   -4.8572 C   0  0  0  0  0  0  0  0  0  0  0  0
    2.8391    2.6037   -5.7428 C   0  0  0  0  0  0  0  0  0  0  0  0
    2.7413    2.3527   -7.2283 C   0  0  0  0  0  0  0  0  0  0  0  0
    2.4857    3.8460   -5.1949 C   0  0  0  0  0  0  0  0  0  0  0  0
    2.5799    4.0920   -3.8227 C   0  0  0  0  0  0  0  0  0  0  0  0
    3.8568    6.1444    0.5807 H   0  0  0  0  0  0  0  0  0  0  0  0
    4.7559    4.6138    0.5205 H   0  0  0  0  0  0  0  0  0  0  0  0
    3.0950    4.6583    1.1741 H   0  0  0  0  0  0  0  0  0  0  0  0
    3.8658    5.3299   -1.7374 H   0  0  0  0  0  0  0  0  0  0  0  0
    2.2226    5.2773   -1.1269 H   0  0  0  0  0  0  0  0  0  0  0  0
    4.1607    2.9159   -1.1712 H   0  0  0  0  0  0  0  0  0  0  0  0
    2.5485    2.4886    0.4745 H   0  0  0  0  0  0  0  0  0  0  0  0
    2.3645    1.3889   -0.8820 H   0  0  0  0  0  0  0  0  0  0  0  0
    0.2989    1.6084   -2.4213 H   0  0  0  0  0  0  0  0  0  0  0  0
    0.3063    3.3725   -2.5995 H   0  0  0  0  0  0  0  0  0  0  0  0
   -1.0882    2.5730   -1.8504 H   0  0  0  0  0  0  0  0  0  0  0  0
    0.2804    0.5454   -0.0830 H   0  0  0  0  0  0  0  0  0  0  0  0
   -1.0211    1.6384    0.4481 H   0  0  0  0  0  0  0  0  0  0  0  0
    0.5068    1.5733    1.3637 H   0  0  0  0  0  0  0  0  0  0  0  0
    0.0890    6.6404    0.2523 H   0  0  0  0  0  0  0  0  0  0  0  0
   -1.2622    5.8237    1.0692 H   0  0  0  0  0  0  0  0  0  0  0  0
   -2.6958    6.1225   -0.9594 H   0  0  0  0  0  0  0  0  0  0  0  0
   -1.5777    8.6123    0.4538 H   0  0  0  0  0  0  0  0  0  0  0  0
   -3.2044    8.4425   -0.2703 H   0  0  0  0  0  0  0  0  0  0  0  0
   -1.5393   10.7522   -2.3544 H   0  0  0  0  0  0  0  0  0  0  0  0
   -0.4826   10.2086   -4.5575 H   0  0  0  0  0  0  0  0  0  0  0  0
    0.0540    7.8911   -5.1867 H   0  0  0  0  0  0  0  0  0  0  0  0
   -0.4378    5.9738   -3.6451 H   0  0  0  0  0  0  0  0  0  0  0  0
    3.7694    1.0726   -2.8313 H   0  0  0  0  0  0  0  0  0  0  0  0
    3.5941    0.6396   -5.2479 H   0  0  0  0  0  0  0  0  0  0  0  0
    2.9899    1.3109   -7.4798 H   0  0  0  0  0  0  0  0  0  0  0  0
    3.4291    3.0056   -7.7923 H   0  0  0  0  0  0  0  0  0  0  0  0
    1.7253    2.5568   -7.6054 H   0  0  0  0  0  0  0  0  0  0  0  0
    2.1303    4.6431   -5.8556 H   0  0  0  0  0  0  0  0  0  0  0  0
    2.2908    5.0761   -3.4493 H   0  0  0  0  0  0  0  0  0  0  0  0
  1  2  1  0
  1 27  1  0
  1 28  1  0
  1 29  1  0
  2  3  1  0
  2 30  1  0
  2 31  1  0
  3  4  1  0
  3 20  1  0
  3 32  1  1
  4  5  1  0
  4 33  1  0
  4 34  1  0
  5  6  1  0
  5  7  1  0
  5  8  1  1
  6 35  1  0
  6 36  1  0
  6 37  1  0
  7 38  1  0
  7 39  1  0
  7 40  1  0
  8  9  2  0
  8 10  1  0
 10 11  1  0
 11 12  1  0
 11 41  1  0
 11 42  1  0
 12 13  1  0
 12 19  1  0
 12 43  1  6
 13 14  1  0
 13 44  1  0
 13 45  1  0
 14 15  2  0
 14 19  1  0
 15 16  1  0
 15 46  1  0
 16 17  2  0
 16 47  1  0
 17 18  1  0
 17 48  1  0
 18 19  2  0
 18 49  1  0
 20 21  2  0
 20 26  1  0
 21 22  1  0
 21 50  1  0
 22 23  2  0
 22 51  1  0
 23 24  1  0
 23 25  1  0
 24 52  1  0
 24 53  1  0
 24 54  1  0
 25 26  2  0
 25 55  1  0
 26 56  1  0
M  END

