
     RDKit          3D

 67 68  0  0  0  0  0  0  0  0999 V2000
    9.5573    2.4821    6.7480 C   0  0  0  0  0  0  0  0  0  0  0  0
    8.4815    1.9654    5.7919 C   0  0  0  0  0  0  0  0  0  0  0  0
    7.2731    1.3613    6.5144 C   0  0  0  0  0  0  0  0  0  0  0  0
    6.1428    0.8941    5.5892 C   0  0  0  0  0  0  0  0  0  0  0  0
    6.5053   -0.1932    4.6953 N   0  0  0  0  0  0  0  0  0  0  0  0
    6.1034   -1.4694    4.8978 C   0  0  0  0  0  0  0  0  0  0  0  0
    5.4127   -1.8339    5.8416 O   0  0  0  0  0  0  0  0  0  0  0  0
    6.5604   -2.5147    3.8387 C   0  0  1  0  0  0  0  0  0  0  0  0
    6.1394   -2.2209    2.3971 C   0  0  0  0  0  0  0  0  0  0  0  0
    5.0197   -1.4151    2.1311 C   0  0  0  0  0  0  0  0  0  0  0  0
    4.5749   -1.2476    0.8180 C   0  0  0  0  0  0  0  0  0  0  0  0
    5.2277   -1.8715   -0.2465 C   0  0  0  0  0  0  0  0  0  0  0  0
    6.3388   -2.6842    0.0142 C   0  0  0  0  0  0  0  0  0  0  0  0
    7.0243   -3.3295   -0.9656 O   0  0  0  0  0  0  0  0  0  0  0  0
    6.7815   -2.8593    1.3316 C   0  0  0  0  0  0  0  0  0  0  0  0
    7.9859   -2.8873    4.0006 N   0  0  0  0  0  0  0  0  0  0  0  0
    8.9650   -2.0443    3.5527 C   0  0  0  0  0  0  0  0  0  0  0  0
    8.7267   -0.9083    3.1429 O   0  0  0  0  0  0  0  0  0  0  0  0
   10.4042   -2.5699    3.4605 C   0  0  1  0  0  0  0  0  0  0  0  0
   10.6174   -3.2933    2.1082 C   0  0  0  0  0  0  0  0  0  0  0  0
   11.9359   -3.7436    1.9746 O   0  0  0  0  0  0  0  0  0  0  0  0
   11.3379   -1.4660    3.5726 N   0  0  0  0  0  0  0  0  0  0  0  0
   12.1618   -1.3432    4.6703 C   0  0  0  0  0  0  0  0  0  0  0  0
   12.3450   -2.2212    5.4892 O   0  0  0  0  0  0  0  0  0  0  0  0
   12.7383   -0.1275    4.6652 O   0  0  0  0  0  0  0  0  0  0  0  0
   13.7754    0.2453    5.6357 C   0  0  1  0  0  0  0  0  0  0  0  0
   14.9838   -0.6841    5.4838 C   0  0  0  0  0  0  0  0  0  0  0  0
   14.1315    1.6731    5.2180 C   0  0  0  0  0  0  0  0  0  0  0  0
   13.2053    0.2212    7.0572 C   0  0  0  0  0  0  0  0  0  0  0  0
    8.2805   -4.1822    4.5884 C   0  0  1  0  0  0  0  0  0  0  0  0
    9.0350   -4.2808    5.8934 C   0  0  0  0  0  0  0  0  0  0  0  0
    7.5672   -4.5927    5.8528 C   0  0  0  0  0  0  0  0  0  0  0  0
   10.4203    2.8946    6.2013 H   0  0  0  0  0  0  0  0  0  0  0  0
    9.9303    1.6761    7.4019 H   0  0  0  0  0  0  0  0  0  0  0  0
    9.1653    3.2788    7.4025 H   0  0  0  0  0  0  0  0  0  0  0  0
    8.9222    1.2124    5.1153 H   0  0  0  0  0  0  0  0  0  0  0  0
    8.1385    2.7928    5.1432 H   0  0  0  0  0  0  0  0  0  0  0  0
    6.8506    2.1115    7.2077 H   0  0  0  0  0  0  0  0  0  0  0  0
    7.5960    0.5113    7.1415 H   0  0  0  0  0  0  0  0  0  0  0  0
    5.7898    1.7455    4.9795 H   0  0  0  0  0  0  0  0  0  0  0  0
    5.2943    0.5384    6.1901 H   0  0  0  0  0  0  0  0  0  0  0  0
    7.1742   -0.0451    3.9389 H   0  0  0  0  0  0  0  0  0  0  0  0
    6.0027   -3.4082    4.1443 H   0  0  0  0  0  0  0  0  0  0  0  0
    4.4903   -0.9176    2.9444 H   0  0  0  0  0  0  0  0  0  0  0  0
    3.7046   -0.6172    0.6185 H   0  0  0  0  0  0  0  0  0  0  0  0
    4.8783   -1.7308   -1.2742 H   0  0  0  0  0  0  0  0  0  0  0  0
    6.6234   -3.1344   -1.8227 H   0  0  0  0  0  0  0  0  0  0  0  0
    7.6431   -3.5075    1.4937 H   0  0  0  0  0  0  0  0  0  0  0  0
   10.6461   -3.2730    4.2641 H   0  0  0  0  0  0  0  0  0  0  0  0
   10.3172   -2.6076    1.2889 H   0  0  0  0  0  0  0  0  0  0  0  0
    9.9631   -4.1775    2.0488 H   0  0  0  0  0  0  0  0  0  0  0  0
   12.5076   -2.9854    2.1676 H   0  0  0  0  0  0  0  0  0  0  0  0
   11.0618   -0.6038    3.1090 H   0  0  0  0  0  0  0  0  0  0  0  0
   15.3501   -0.6717    4.4451 H   0  0  0  0  0  0  0  0  0  0  0  0
   14.7262   -1.7153    5.7580 H   0  0  0  0  0  0  0  0  0  0  0  0
   15.8011   -0.3404    6.1367 H   0  0  0  0  0  0  0  0  0  0  0  0
   14.4979    1.6941    4.1805 H   0  0  0  0  0  0  0  0  0  0  0  0
   14.9167    2.0776    5.8744 H   0  0  0  0  0  0  0  0  0  0  0  0
   13.2492    2.3275    5.2853 H   0  0  0  0  0  0  0  0  0  0  0  0
   12.9381   -0.7992    7.3588 H   0  0  0  0  0  0  0  0  0  0  0  0
   12.3094    0.8576    7.1206 H   0  0  0  0  0  0  0  0  0  0  0  0
   13.9539    0.6155    7.7621 H   0  0  0  0  0  0  0  0  0  0  0  0
    8.4612   -4.9781    3.8548 H   0  0  0  0  0  0  0  0  0  0  0  0
    9.3454   -3.3450    6.3652 H   0  0  0  0  0  0  0  0  0  0  0  0
    9.7570   -5.0949    5.9997 H   0  0  0  0  0  0  0  0  0  0  0  0
    6.8753   -3.8716    6.2977 H   0  0  0  0  0  0  0  0  0  0  0  0
    7.2458   -5.6352    5.9248 H   0  0  0  0  0  0  0  0  0  0  0  0
  1  2  1  0
  1 33  1  0
  1 34  1  0
  1 35  1  0
  2  3  1  0
  2 36  1  0
  2 37  1  0
  3  4  1  0
  3 38  1  0
  3 39  1  0
  4  5  1  0
  4 40  1  0
  4 41  1  0
  5  6  1  0
  5 42  1  0
  6  7  2  0
  6  8  1  0
  8  9  1  0
  8 16  1  0
  8 43  1  1
  9 10  2  0
  9 15  1  0
 10 11  1  0
 10 44  1  0
 11 12  2  0
 11 45  1  0
 12 13  1  0
 12 46  1  0
 13 14  1  0
 13 15  2  0
 14 47  1  0
 15 48  1  0
 16 17  1  0
 16 30  1  0
 17 18  2  0
 17 19  1  0
 19 20  1  0
 19 22  1  0
 19 49  1  1
 20 21  1  0
 20 50  1  0
 20 51  1  0
 21 52  1  0
 22 23  1  0
 22 53  1  0
 23 24  2  0
 23 25  1  0
 26 25  1  6
 26 27  1  0
 26 28  1  0
 26 29  1  0
 27 54  1  0
 27 55  1  0
 27 56  1  0
 28 57  1  0
 28 58  1  0
 28 59  1  0
 29 60  1  0
 29 61  1  0
 29 62  1  0
 30 31  1  0
 30 32  1  0
 30 63  1  6
 31 32  1  0
 31 64  1  0
 31 65  1  0
 32 66  1  0
 32 67  1  0
M  END

