
     RDKit          3D

 41 42  0  0  0  0  0  0  0  0999 V2000
    0.9882   -0.3838    1.6309 C   0  0  0  0  0  0  0  0  0  0  0  0
    2.4454   -0.3275    2.0906 C   0  0  0  0  0  0  0  0  0  0  0  0
    3.4352   -1.0315    1.1392 C   0  0  1  0  0  0  0  0  0  0  0  0
    3.4763   -0.4873   -0.2187 N   0  0  0  0  0  0  0  0  0  0  0  0
    4.8709   -1.0299    1.7018 C   0  0  0  0  0  0  0  0  0  0  0  0
    5.0499   -1.8158    2.9776 C   0  0  0  0  0  0  0  0  0  0  0  0
    5.5849   -1.2480    4.1382 C   0  0  0  0  0  0  0  0  0  0  0  0
    5.7273   -2.0712    5.2638 C   0  0  0  0  0  0  0  0  0  0  0  0
    6.2924   -1.5665    6.5641 C   0  0  0  0  0  0  0  0  0  0  0  0
    5.3579   -3.3550    5.2183 N   0  0  0  0  0  0  0  0  0  0  0  0
    4.8554   -3.8259    4.0697 C   0  0  0  0  0  0  0  0  0  0  0  0
    4.4281   -5.2891    4.0827 C   0  0  1  0  0  0  0  0  0  0  0  0
    3.8842   -5.8148    2.7422 C   0  0  0  0  0  0  0  0  0  0  0  0
    5.0165   -6.0905    1.7429 C   0  0  0  0  0  0  0  0  0  0  0  0
    6.1198   -6.9253    2.3916 C   0  0  0  0  0  0  0  0  0  0  0  0
    6.5889   -6.3328    3.5886 O   0  0  0  0  0  0  0  0  0  0  0  0
    5.5772   -6.1986    4.5628 C   0  0  0  0  0  0  0  0  0  0  0  0
    4.6855   -3.1073    2.9576 N   0  0  0  0  0  0  0  0  0  0  0  0
    0.3215    0.1298    2.3414 H   0  0  0  0  0  0  0  0  0  0  0  0
    0.6377   -1.4258    1.5395 H   0  0  0  0  0  0  0  0  0  0  0  0
    0.8545    0.0996    0.6492 H   0  0  0  0  0  0  0  0  0  0  0  0
    2.5259   -0.7792    3.0945 H   0  0  0  0  0  0  0  0  0  0  0  0
    2.7593    0.7282    2.2049 H   0  0  0  0  0  0  0  0  0  0  0  0
    3.1334   -2.0896    1.0525 H   0  0  0  0  0  0  0  0  0  0  0  0
    3.6409    0.5214   -0.1939 H   0  0  0  0  0  0  0  0  0  0  0  0
    2.5835   -0.6202   -0.6915 H   0  0  0  0  0  0  0  0  0  0  0  0
    5.2123    0.0085    1.8532 H   0  0  0  0  0  0  0  0  0  0  0  0
    5.5167   -1.4728    0.9261 H   0  0  0  0  0  0  0  0  0  0  0  0
    5.8836   -0.1981    4.1653 H   0  0  0  0  0  0  0  0  0  0  0  0
    6.5449   -0.4977    6.5206 H   0  0  0  0  0  0  0  0  0  0  0  0
    7.1982   -2.1371    6.8250 H   0  0  0  0  0  0  0  0  0  0  0  0
    5.5690   -1.7325    7.3782 H   0  0  0  0  0  0  0  0  0  0  0  0
    3.6349   -5.3539    4.8501 H   0  0  0  0  0  0  0  0  0  0  0  0
    3.1601   -5.1053    2.3165 H   0  0  0  0  0  0  0  0  0  0  0  0
    3.3397   -6.7549    2.9437 H   0  0  0  0  0  0  0  0  0  0  0  0
    5.4405   -5.1334    1.4010 H   0  0  0  0  0  0  0  0  0  0  0  0
    4.6288   -6.6147    0.8524 H   0  0  0  0  0  0  0  0  0  0  0  0
    6.9922   -7.0222    1.7266 H   0  0  0  0  0  0  0  0  0  0  0  0
    5.7453   -7.9513    2.6031 H   0  0  0  0  0  0  0  0  0  0  0  0
    6.0459   -5.7719    5.4598 H   0  0  0  0  0  0  0  0  0  0  0  0
    5.1600   -7.1949    4.8232 H   0  0  0  0  0  0  0  0  0  0  0  0
  1  2  1  0
  1 19  1  0
  1 20  1  0
  1 21  1  0
  2  3  1  0
  2 22  1  0
  2 23  1  0
  3  4  1  0
  3  5  1  0
  3 24  1  6
  4 25  1  0
  4 26  1  0
  5  6  1  0
  5 27  1  0
  5 28  1  0
  6  7  2  0
  6 18  1  0
  7  8  1  0
  7 29  1  0
  8  9  1  0
  8 10  2  0
  9 30  1  0
  9 31  1  0
  9 32  1  0
 10 11  1  0
 11 12  1  0
 11 18  2  0
 12 13  1  0
 12 17  1  0
 12 33  1  1
 13 14  1  0
 13 34  1  0
 13 35  1  0
 14 15  1  0
 14 36  1  0
 14 37  1  0
 15 16  1  0
 15 38  1  0
 15 39  1  0
 16 17  1  0
 17 40  1  0
 17 41  1  0
M  END

