
     RDKit          3D

 10  9  0  0  0  0  0  0  0  0999 V2000
    0.9472    0.0794    0.0083 C   0  0  0  0  0  0  0  0  0  0  0  0
    2.4709    0.0913    0.0051 C   0  0  0  0  0  0  0  0  0  0  0  0
    3.2222   -1.1870    0.3566 C   0  0  0  0  0  0  0  0  0  0  0  0
    3.0760    1.1018   -0.2729 O   0  0  0  0  0  0  0  0  0  0  0  0
    0.5075   -0.8919    0.2754 H   0  0  0  0  0  0  0  0  0  0  0  0
    0.5892    0.3775   -0.9904 H   0  0  0  0  0  0  0  0  0  0  0  0
    0.5891    0.8463    0.7140 H   0  0  0  0  0  0  0  0  0  0  0  0
    2.5696   -2.0398    0.5912 H   0  0  0  0  0  0  0  0  0  0  0  0
    3.8795   -0.9854    1.2178 H   0  0  0  0  0  0  0  0  0  0  0  0
    3.8794   -1.4541   -0.4867 H   0  0  0  0  0  0  0  0  0  0  0  0
  1  2  1  0
  1  5  1  0
  1  6  1  0
  1  7  1  0
  2  3  1  0
  2  4  2  0
  3  8  1  0
  3  9  1  0
  3 10  1  0
M  END

