
     RDKit          3D

 39 40  0  0  0  0  0  0  0  0999 V2000
    5.4862    2.4206    1.4248 C   0  0  0  0  0  0  0  0  0  0  0  0
    4.4696    1.0052    0.8930 S   0  0  0  0  0  0  0  0  0  0  0  0
    5.5111   -0.4073    1.4979 C   0  0  1  0  0  0  0  0  0  0  0  0
    5.2401   -0.6218    2.9934 C   0  0  0  0  0  0  0  0  0  0  0  0
    3.8991   -0.9626    3.2513 O   0  0  0  0  0  0  0  0  0  0  0  0
    5.1814   -1.6640    0.6464 C   0  0  1  0  0  0  0  0  0  0  0  0
    5.5317   -1.5178   -0.8395 C   0  0  0  0  0  0  0  0  0  0  0  0
    5.8078   -2.8598    1.2214 N   0  0  0  0  0  0  0  0  0  0  0  0
    7.1409   -3.0599    1.3176 C   0  0  0  0  0  0  0  0  0  0  0  0
    8.0070   -2.2775    0.9496 O   0  0  0  0  0  0  0  0  0  0  0  0
    7.5586   -4.3956    1.9440 C   0  0  2  0  0  0  0  0  0  0  0  0
    8.4523   -5.1851    0.9910 C   0  0  0  0  0  0  0  0  0  0  0  0
    8.8770   -6.3913    1.6003 O   0  0  0  0  0  0  0  0  0  0  0  0
    7.8915   -7.0911    2.2359 C   0  0  0  0  0  0  0  0  0  0  0  0
    8.1162   -8.4322    2.5646 C   0  0  0  0  0  0  0  0  0  0  0  0
    7.1273   -9.1734    3.2128 C   0  0  0  0  0  0  0  0  0  0  0  0
    5.9012   -8.5785    3.5337 C   0  0  0  0  0  0  0  0  0  0  0  0
    5.6737   -7.2374    3.2197 C   0  0  0  0  0  0  0  0  0  0  0  0
    6.6642   -6.4901    2.5771 C   0  0  0  0  0  0  0  0  0  0  0  0
    6.4169   -5.1685    2.2936 O   0  0  0  0  0  0  0  0  0  0  0  0
    4.9374    3.3273    1.1326 H   0  0  0  0  0  0  0  0  0  0  0  0
    6.4621    2.4148    0.9168 H   0  0  0  0  0  0  0  0  0  0  0  0
    5.6349    2.4360    2.5145 H   0  0  0  0  0  0  0  0  0  0  0  0
    6.5679   -0.1404    1.3426 H   0  0  0  0  0  0  0  0  0  0  0  0
    5.5522    0.2834    3.5523 H   0  0  0  0  0  0  0  0  0  0  0  0
    5.8590   -1.4514    3.3686 H   0  0  0  0  0  0  0  0  0  0  0  0
    3.3626   -0.2495    2.8667 H   0  0  0  0  0  0  0  0  0  0  0  0
    4.0990   -1.8396    0.7463 H   0  0  0  0  0  0  0  0  0  0  0  0
    6.6144   -1.3782   -0.9666 H   0  0  0  0  0  0  0  0  0  0  0  0
    5.0105   -0.6558   -1.2774 H   0  0  0  0  0  0  0  0  0  0  0  0
    5.2297   -2.4247   -1.3858 H   0  0  0  0  0  0  0  0  0  0  0  0
    5.2143   -3.5838    1.6127 H   0  0  0  0  0  0  0  0  0  0  0  0
    8.1391   -4.1603    2.8562 H   0  0  0  0  0  0  0  0  0  0  0  0
    9.3460   -4.5992    0.7440 H   0  0  0  0  0  0  0  0  0  0  0  0
    7.8944   -5.4017    0.0603 H   0  0  0  0  0  0  0  0  0  0  0  0
    9.0784   -8.8716    2.2931 H   0  0  0  0  0  0  0  0  0  0  0  0
    7.3133  -10.2204    3.4628 H   0  0  0  0  0  0  0  0  0  0  0  0
    5.1222   -9.1560    4.0364 H   0  0  0  0  0  0  0  0  0  0  0  0
    4.7332   -6.7425    3.4718 H   0  0  0  0  0  0  0  0  0  0  0  0
  1  2  1  0
  1 21  1  0
  1 22  1  0
  1 23  1  0
  2  3  1  0
  3  4  1  0
  3  6  1  0
  3 24  1  1
  4  5  1  0
  4 25  1  0
  4 26  1  0
  5 27  1  0
  6  7  1  0
  6  8  1  0
  6 28  1  6
  7 29  1  0
  7 30  1  0
  7 31  1  0
  8  9  1  0
  8 32  1  0
  9 10  2  0
  9 11  1  0
 11 12  1  0
 11 20  1  0
 11 33  1  1
 12 13  1  0
 12 34  1  0
 12 35  1  0
 13 14  1  0
 14 15  1  0
 14 19  2  0
 15 16  2  0
 15 36  1  0
 16 17  1  0
 16 37  1  0
 17 18  2  0
 17 38  1  0
 18 19  1  0
 18 39  1  0
 19 20  1  0
M  END

