
     RDKit          3D

 48 51  0  0  0  0  0  0  0  0999 V2000
    1.3361   -1.2111   -0.7071 O   0  0  0  0  0  0  0  0  0  0  0  0
    1.7980   -0.9005    0.3806 C   0  0  0  0  0  0  0  0  0  0  0  0
    1.1854   -1.2491    1.5564 N   0  0  0  0  0  0  0  0  0  0  0  0
    0.0226   -2.0869    1.6002 C   0  0  1  0  0  0  0  0  0  0  0  0
   -0.9981   -1.8260    2.6769 C   0  0  0  0  0  0  0  0  0  0  0  0
   -1.3187   -1.5076    1.2394 C   0  0  0  0  0  0  0  0  0  0  0  0
    3.1096   -0.1250    0.5441 C   0  0  1  0  0  0  0  0  0  0  0  0
    4.3245   -1.0685    0.3479 C   0  0  0  0  0  0  0  0  0  0  0  0
    4.5627   -1.4158   -1.1294 C   0  0  0  0  0  0  0  0  0  0  0  0
    4.6964   -0.2300   -1.9931 N   0  0  0  0  0  0  0  0  0  0  0  0
    5.9885    0.4758   -1.8672 C   0  0  0  0  0  0  0  0  0  0  0  0
    7.1581   -0.3253   -2.4140 C   0  0  0  0  0  0  0  0  0  0  0  0
    6.9770   -1.0558   -3.5956 C   0  0  0  0  0  0  0  0  0  0  0  0
    5.7859   -1.1425   -4.2110 O   0  0  0  0  0  0  0  0  0  0  0  0
    8.0650   -1.7498   -4.1964 C   0  0  0  0  0  0  0  0  0  0  0  0
    9.3128   -1.7156   -3.6283 C   0  0  0  0  0  0  0  0  0  0  0  0
    9.5509   -0.9930   -2.4253 C   0  0  0  0  0  0  0  0  0  0  0  0
   10.8420   -0.9572   -1.8333 C   0  0  0  0  0  0  0  0  0  0  0  0
   11.0813   -0.2481   -0.6747 C   0  0  0  0  0  0  0  0  0  0  0  0
   10.0187    0.4594   -0.0654 C   0  0  0  0  0  0  0  0  0  0  0  0
    8.7518    0.4442   -0.6151 C   0  0  0  0  0  0  0  0  0  0  0  0
    8.4593   -0.2829   -1.8092 C   0  0  0  0  0  0  0  0  0  0  0  0
    3.5136    0.6367   -1.8750 C   0  0  0  0  0  0  0  0  0  0  0  0
    3.2063    1.0697   -0.4315 C   0  0  0  0  0  0  0  0  0  0  0  0
    1.6628   -1.0513    2.4282 H   0  0  0  0  0  0  0  0  0  0  0  0
    0.1963   -3.1312    1.3115 H   0  0  0  0  0  0  0  0  0  0  0  0
   -0.8142   -0.9859    3.3539 H   0  0  0  0  0  0  0  0  0  0  0  0
   -1.4744   -2.6889    3.1499 H   0  0  0  0  0  0  0  0  0  0  0  0
   -1.3403   -0.4569    0.9406 H   0  0  0  0  0  0  0  0  0  0  0  0
   -2.0177   -2.1498    0.6976 H   0  0  0  0  0  0  0  0  0  0  0  0
    3.1431    0.2676    1.5748 H   0  0  0  0  0  0  0  0  0  0  0  0
    4.1862   -1.9978    0.9259 H   0  0  0  0  0  0  0  0  0  0  0  0
    5.2192   -0.5779    0.7673 H   0  0  0  0  0  0  0  0  0  0  0  0
    3.7156   -2.0082   -1.5087 H   0  0  0  0  0  0  0  0  0  0  0  0
    5.4700   -2.0301   -1.2324 H   0  0  0  0  0  0  0  0  0  0  0  0
    6.1857    0.7916   -0.8293 H   0  0  0  0  0  0  0  0  0  0  0  0
    5.8883    1.4092   -2.4516 H   0  0  0  0  0  0  0  0  0  0  0  0
    5.1077   -0.8012   -3.5575 H   0  0  0  0  0  0  0  0  0  0  0  0
    7.8631   -2.3034   -5.1158 H   0  0  0  0  0  0  0  0  0  0  0  0
   10.1450   -2.2499   -4.0952 H   0  0  0  0  0  0  0  0  0  0  0  0
   11.6516   -1.5074   -2.3215 H   0  0  0  0  0  0  0  0  0  0  0  0
   12.0798   -0.2287   -0.2311 H   0  0  0  0  0  0  0  0  0  0  0  0
   10.2013    1.0272    0.8511 H   0  0  0  0  0  0  0  0  0  0  0  0
    7.9638    1.0103   -0.1170 H   0  0  0  0  0  0  0  0  0  0  0  0
    2.6501    0.0813   -2.2669 H   0  0  0  0  0  0  0  0  0  0  0  0
    3.6647    1.5222   -2.5127 H   0  0  0  0  0  0  0  0  0  0  0  0
    2.2701    1.6514   -0.4183 H   0  0  0  0  0  0  0  0  0  0  0  0
    3.9981    1.7469   -0.0666 H   0  0  0  0  0  0  0  0  0  0  0  0
  1  2  2  0
  2  3  1  0
  2  7  1  0
  3  4  1  0
  3 25  1  0
  4  5  1  0
  4  6  1  0
  4 26  1  6
  5  6  1  0
  5 27  1  0
  5 28  1  0
  6 29  1  0
  6 30  1  0
  7  8  1  0
  7 24  1  0
  7 31  1  1
  8  9  1  0
  8 32  1  0
  8 33  1  0
  9 10  1  0
  9 34  1  0
  9 35  1  0
 10 11  1  0
 10 23  1  0
 11 12  1  0
 11 36  1  0
 11 37  1  0
 12 13  2  0
 12 22  1  0
 13 14  1  0
 13 15  1  0
 14 38  1  0
 15 16  2  0
 15 39  1  0
 16 17  1  0
 16 40  1  0
 17 18  1  0
 17 22  2  0
 18 19  2  0
 18 41  1  0
 19 20  1  0
 19 42  1  0
 20 21  2  0
 20 43  1  0
 21 22  1  0
 21 44  1  0
 23 24  1  0
 23 45  1  0
 23 46  1  0
 24 47  1  0
 24 48  1  0
M  END

