
     RDKit          3D

 52 53  0  0  0  0  0  0  0  0999 V2000
    2.6861   -6.2836    5.5863 C   0  0  0  0  0  0  0  0  0  0  0  0
    2.3270   -5.4504    4.3515 C   0  0  1  0  0  0  0  0  0  0  0  0
    0.8121   -5.4026    4.1253 C   0  0  0  0  0  0  0  0  0  0  0  0
    2.8915   -4.0184    4.4343 C   0  0  0  0  0  0  0  0  0  0  0  0
    4.3391   -3.9398    4.5418 N   0  0  0  0  0  0  0  0  0  0  0  0
    5.1522   -3.8750    3.4455 C   0  0  0  0  0  0  0  0  0  0  0  0
    4.7148   -3.8387    2.3054 O   0  0  0  0  0  0  0  0  0  0  0  0
    6.6528   -3.8743    3.7419 C   0  0  0  0  0  0  0  0  0  0  0  0
    7.4292   -3.0547    2.7111 C   0  0  0  0  0  0  0  0  0  0  0  0
    8.9619   -3.0866    2.8480 C   0  0  1  0  0  0  0  0  0  0  0  0
    9.5986   -4.4817    2.6672 C   0  0  0  0  0  0  0  0  0  0  0  0
    9.5212   -4.9722    1.2149 C   0  0  0  0  0  0  0  0  0  0  0  0
   10.0877   -3.9339    0.2415 C   0  0  0  0  0  0  0  0  0  0  0  0
    9.4464   -2.6385    0.4815 N   0  0  0  0  0  0  0  0  0  0  0  0
    9.4510   -1.5378   -0.7996 S   0  0  1  0  0  0  0  0  0  0  0  0
    9.0141   -0.2551   -0.2408 O   0  0  0  0  0  0  0  0  0  0  0  0
   10.7035   -1.6373   -1.5592 O   0  0  0  0  0  0  0  0  0  0  0  0
    8.1440   -2.1754   -1.8545 C   0  0  0  0  0  0  0  0  0  0  0  0
    6.8292   -2.2259   -1.3737 C   0  0  0  0  0  0  0  0  0  0  0  0
    5.8122   -2.6819   -2.2098 C   0  0  0  0  0  0  0  0  0  0  0  0
    6.1319   -3.0668   -3.5139 C   0  0  0  0  0  0  0  0  0  0  0  0
    5.1554   -3.5037   -4.3161 F   0  0  0  0  0  0  0  0  0  0  0  0
    7.4350   -3.0103   -4.0042 C   0  0  0  0  0  0  0  0  0  0  0  0
    8.4535   -2.5574   -3.1621 C   0  0  0  0  0  0  0  0  0  0  0  0
    9.6107   -2.1177    1.8431 C   0  0  0  0  0  0  0  0  0  0  0  0
    2.3153   -7.3168    5.4922 H   0  0  0  0  0  0  0  0  0  0  0  0
    2.2393   -5.8539    6.5005 H   0  0  0  0  0  0  0  0  0  0  0  0
    3.7765   -6.3386    5.7352 H   0  0  0  0  0  0  0  0  0  0  0  0
    2.7924   -5.9202    3.4666 H   0  0  0  0  0  0  0  0  0  0  0  0
    0.2969   -4.9216    4.9752 H   0  0  0  0  0  0  0  0  0  0  0  0
    0.3934   -6.4158    4.0164 H   0  0  0  0  0  0  0  0  0  0  0  0
    0.5571   -4.8354    3.2155 H   0  0  0  0  0  0  0  0  0  0  0  0
    2.4496   -3.4935    5.2996 H   0  0  0  0  0  0  0  0  0  0  0  0
    2.6067   -3.4662    3.5265 H   0  0  0  0  0  0  0  0  0  0  0  0
    4.7660   -3.9779    5.4585 H   0  0  0  0  0  0  0  0  0  0  0  0
    6.9748   -4.9308    3.7171 H   0  0  0  0  0  0  0  0  0  0  0  0
    6.8475   -3.5158    4.7678 H   0  0  0  0  0  0  0  0  0  0  0  0
    7.0996   -2.0033    2.7793 H   0  0  0  0  0  0  0  0  0  0  0  0
    7.1235   -3.3937    1.7111 H   0  0  0  0  0  0  0  0  0  0  0  0
    9.2257   -2.7187    3.8566 H   0  0  0  0  0  0  0  0  0  0  0  0
    9.1389   -5.2199    3.3442 H   0  0  0  0  0  0  0  0  0  0  0  0
   10.6601   -4.4169    2.9669 H   0  0  0  0  0  0  0  0  0  0  0  0
    8.4760   -5.1888    0.9388 H   0  0  0  0  0  0  0  0  0  0  0  0
   10.0818   -5.9148    1.1003 H   0  0  0  0  0  0  0  0  0  0  0  0
    9.9032   -4.2405   -0.7986 H   0  0  0  0  0  0  0  0  0  0  0  0
   11.1863   -3.8481    0.3620 H   0  0  0  0  0  0  0  0  0  0  0  0
    6.6000   -1.9164   -0.3528 H   0  0  0  0  0  0  0  0  0  0  0  0
    4.7782   -2.7454   -1.8662 H   0  0  0  0  0  0  0  0  0  0  0  0
    7.6361   -3.3180   -5.0320 H   0  0  0  0  0  0  0  0  0  0  0  0
    9.4866   -2.4937   -3.5076 H   0  0  0  0  0  0  0  0  0  0  0  0
    9.1462   -1.1248    1.8907 H   0  0  0  0  0  0  0  0  0  0  0  0
   10.6865   -1.9970    2.0843 H   0  0  0  0  0  0  0  0  0  0  0  0
  1  2  1  0
  1 26  1  0
  1 27  1  0
  1 28  1  0
  2  3  1  0
  2  4  1  0
  2 29  1  6
  3 30  1  0
  3 31  1  0
  3 32  1  0
  4  5  1  0
  4 33  1  0
  4 34  1  0
  5  6  1  0
  5 35  1  0
  6  7  2  0
  6  8  1  0
  8  9  1  0
  8 36  1  0
  8 37  1  0
  9 10  1  0
  9 38  1  0
  9 39  1  0
 10 11  1  0
 10 25  1  0
 10 40  1  1
 11 12  1  0
 11 41  1  0
 11 42  1  0
 12 13  1  0
 12 43  1  0
 12 44  1  0
 13 14  1  0
 13 45  1  0
 13 46  1  0
 14 15  1  0
 14 25  1  0
 15 16  2  0
 15 17  2  0
 15 18  1  6
 18 19  2  0
 18 24  1  0
 19 20  1  0
 19 47  1  0
 20 21  2  0
 20 48  1  0
 21 22  1  0
 21 23  1  0
 23 24  2  0
 23 49  1  0
 24 50  1  0
 25 51  1  0
 25 52  1  0
M  END

