
     RDKit          3D

107118  0  0  0  0  0  0  0  0999 V2000
   -2.5555    0.5601   -4.6997 C   0  0  0  0  0  0  0  0  0  0  0  0
   -2.2791   -0.0827   -6.0708 C   0  0  1  0  0  0  0  0  0  0  0  0
   -2.7604   -1.5517   -6.0231 C   0  0  0  0  0  0  0  0  0  0  0  0
   -3.0873    0.6896   -7.1395 C   0  0  0  0  0  0  0  0  0  0  0  0
   -0.7833   -0.0486   -6.4396 C   0  0  0  0  0  0  0  0  0  0  0  0
    0.1970    0.5115   -5.6028 C   0  0  0  0  0  0  0  0  0  0  0  0
    1.5473    0.5239   -5.9638 C   0  0  0  0  0  0  0  0  0  0  0  0
    1.9538   -0.0234   -7.1833 C   0  0  0  0  0  0  0  0  0  0  0  0
    3.3354   -0.0129   -7.5582 N   0  0  0  0  0  0  0  0  0  0  0  0
    4.2242   -1.0892   -7.5026 C   0  0  0  0  0  0  0  0  0  0  0  0
    3.9276   -2.4517   -7.0190 C   0  0  0  0  0  0  0  0  0  0  0  0
    4.7488   -3.4954   -7.4954 C   0  0  0  0  0  0  0  0  0  0  0  0
    4.5612   -4.8093   -7.0807 C   0  0  0  0  0  0  0  0  0  0  0  0
    3.5496   -5.1430   -6.1616 C   0  0  0  0  0  0  0  0  0  0  0  0
    3.3610   -6.5317   -5.6365 C   0  0  0  0  0  0  0  0  0  0  0  0
    3.5765   -6.7153   -4.2629 C   0  0  0  0  0  0  0  0  0  0  0  0
    3.5465   -7.9663   -3.6545 C   0  0  0  0  0  0  0  0  0  0  0  0
    4.1147   -7.9907   -2.2675 C   0  0  0  0  0  0  0  0  0  0  0  0
    3.5258   -7.2429   -1.2338 C   0  0  0  0  0  0  0  0  0  0  0  0
    4.1088   -7.1925    0.0366 C   0  0  0  0  0  0  0  0  0  0  0  0
    5.2986   -7.8791    0.2913 C   0  0  0  0  0  0  0  0  0  0  0  0
    5.9035   -8.6127   -0.7354 C   0  0  0  0  0  0  0  0  0  0  0  0
    5.3191   -8.6671   -2.0016 C   0  0  0  0  0  0  0  0  0  0  0  0
    3.1186   -9.0985   -4.4141 C   0  0  0  0  0  0  0  0  0  0  0  0
    2.9799  -10.4373   -3.8091 C   0  0  0  0  0  0  0  0  0  0  0  0
    2.8770  -10.6381   -2.4108 C   0  0  0  0  0  0  0  0  0  0  0  0
    2.8923  -11.9048   -1.8461 C   0  0  0  0  0  0  0  0  0  0  0  0
    3.0137  -13.0326   -2.6704 C   0  0  0  0  0  0  0  0  0  0  0  0
    3.0153  -12.8690   -4.0466 C   0  0  0  0  0  0  0  0  0  0  0  0
    2.9421  -11.5888   -4.6442 C   0  0  0  0  0  0  0  0  0  0  0  0
    2.6511  -11.4237   -6.0707 C   0  0  0  0  0  0  0  0  0  0  0  0
    2.4113  -12.5431   -6.9022 C   0  0  0  0  0  0  0  0  0  0  0  0
    1.8656  -12.4092   -8.1687 C   0  0  0  0  0  0  0  0  0  0  0  0
    1.4978  -11.1351   -8.6222 C   0  0  0  0  0  0  0  0  0  0  0  0
    1.7784  -10.0202   -7.8463 C   0  0  0  0  0  0  0  0  0  0  0  0
    2.4312  -10.1168   -6.5929 C   0  0  0  0  0  0  0  0  0  0  0  0
    2.8626   -8.9321   -5.8168 C   0  0  0  0  0  0  0  0  0  0  0  0
    3.0666   -7.6531   -6.4363 C   0  0  0  0  0  0  0  0  0  0  0  0
    3.0878   -7.4488   -7.9227 C   0  0  0  0  0  0  0  0  0  0  0  0
    4.0979   -8.0427   -8.6990 C   0  0  0  0  0  0  0  0  0  0  0  0
    4.1673   -7.8186  -10.0758 C   0  0  0  0  0  0  0  0  0  0  0  0
    3.2259   -6.9970  -10.7038 C   0  0  0  0  0  0  0  0  0  0  0  0
    2.2201   -6.3958   -9.9414 C   0  0  0  0  0  0  0  0  0  0  0  0
    2.1561   -6.6144   -8.5629 C   0  0  0  0  0  0  0  0  0  0  0  0
    2.7505   -4.1000   -5.6663 C   0  0  0  0  0  0  0  0  0  0  0  0
    2.9269   -2.7803   -6.0867 C   0  0  0  0  0  0  0  0  0  0  0  0
    5.4100   -0.7552   -7.9725 N   0  0  0  0  0  0  0  0  0  0  0  0
    5.3230    0.5539   -8.3446 C   0  0  0  0  0  0  0  0  0  0  0  0
    6.3716    1.3666   -8.8989 C   0  0  0  0  0  0  0  0  0  0  0  0
    7.6692    0.8513   -9.1084 C   0  0  0  0  0  0  0  0  0  0  0  0
    8.6669    1.6544   -9.6346 C   0  0  0  0  0  0  0  0  0  0  0  0
    8.3818    2.9940   -9.9610 C   0  0  0  0  0  0  0  0  0  0  0  0
    7.1100    3.5102   -9.7606 C   0  0  0  0  0  0  0  0  0  0  0  0
    6.0631    2.7188   -9.2264 C   0  0  0  0  0  0  0  0  0  0  0  0
    4.7027    3.2357   -9.0146 C   0  0  0  0  0  0  0  0  0  0  0  0
    4.3620    4.5646   -9.3604 C   0  0  0  0  0  0  0  0  0  0  0  0
    3.0827    5.0701   -9.1883 C   0  0  0  0  0  0  0  0  0  0  0  0
    2.0746    4.2488   -8.6586 C   0  0  0  0  0  0  0  0  0  0  0  0
    2.3647    2.9416   -8.3027 C   0  0  0  0  0  0  0  0  0  0  0  0
    3.6672    2.4050   -8.4588 C   0  0  0  0  0  0  0  0  0  0  0  0
    4.0425    1.0559   -8.1139 C   0  0  0  0  0  0  0  0  0  0  0  0
    0.9963   -0.5837   -8.0355 C   0  0  0  0  0  0  0  0  0  0  0  0
   -0.3470   -0.5947   -7.6622 C   0  0  0  0  0  0  0  0  0  0  0  0
   -3.6332    0.5135   -4.4783 H   0  0  0  0  0  0  0  0  0  0  0  0
   -2.2599    1.6206   -4.6744 H   0  0  0  0  0  0  0  0  0  0  0  0
   -2.0296    0.0372   -3.8856 H   0  0  0  0  0  0  0  0  0  0  0  0
   -3.8306   -1.5960   -5.7628 H   0  0  0  0  0  0  0  0  0  0  0  0
   -2.2026   -2.1267   -5.2670 H   0  0  0  0  0  0  0  0  0  0  0  0
   -2.6328   -2.0592   -6.9913 H   0  0  0  0  0  0  0  0  0  0  0  0
   -4.1616    0.6724   -6.8937 H   0  0  0  0  0  0  0  0  0  0  0  0
   -2.9691    0.2519   -8.1424 H   0  0  0  0  0  0  0  0  0  0  0  0
   -2.7677    1.7425   -7.1931 H   0  0  0  0  0  0  0  0  0  0  0  0
   -0.0815    0.9495   -4.6445 H   0  0  0  0  0  0  0  0  0  0  0  0
    2.2930    0.9632   -5.2975 H   0  0  0  0  0  0  0  0  0  0  0  0
    5.5456   -3.2470   -8.1973 H   0  0  0  0  0  0  0  0  0  0  0  0
    5.2146   -5.5906   -7.4720 H   0  0  0  0  0  0  0  0  0  0  0  0
    3.8966   -5.8562   -3.6704 H   0  0  0  0  0  0  0  0  0  0  0  0
    2.5933   -6.7059   -1.4262 H   0  0  0  0  0  0  0  0  0  0  0  0
    3.6299   -6.6120    0.8296 H   0  0  0  0  0  0  0  0  0  0  0  0
    5.7566   -7.8387    1.2828 H   0  0  0  0  0  0  0  0  0  0  0  0
    6.8414   -9.1428   -0.5498 H   0  0  0  0  0  0  0  0  0  0  0  0
    5.7984   -9.2401   -2.7989 H   0  0  0  0  0  0  0  0  0  0  0  0
    2.7707   -9.7829   -1.7507 H   0  0  0  0  0  0  0  0  0  0  0  0
    2.8122  -12.0157   -0.7620 H   0  0  0  0  0  0  0  0  0  0  0  0
    3.0631  -14.0352   -2.2382 H   0  0  0  0  0  0  0  0  0  0  0  0
    3.0371  -13.7591   -4.6746 H   0  0  0  0  0  0  0  0  0  0  0  0
    2.6190  -13.5461   -6.5309 H   0  0  0  0  0  0  0  0  0  0  0  0
    1.6837  -13.2942   -8.7836 H   0  0  0  0  0  0  0  0  0  0  0  0
    0.9931  -11.0117   -9.5835 H   0  0  0  0  0  0  0  0  0  0  0  0
    1.4698   -9.0493   -8.2187 H   0  0  0  0  0  0  0  0  0  0  0  0
    4.8340   -8.6892   -8.2149 H   0  0  0  0  0  0  0  0  0  0  0  0
    4.9623   -8.2878  -10.6613 H   0  0  0  0  0  0  0  0  0  0  0  0
    3.2789   -6.8226  -11.7815 H   0  0  0  0  0  0  0  0  0  0  0  0
    1.4820   -5.7481  -10.4218 H   0  0  0  0  0  0  0  0  0  0  0  0
    1.3693   -6.1380   -7.9736 H   0  0  0  0  0  0  0  0  0  0  0  0
    1.9681   -4.3254   -4.9370 H   0  0  0  0  0  0  0  0  0  0  0  0
    2.2867   -2.0096   -5.6617 H   0  0  0  0  0  0  0  0  0  0  0  0
    7.8575   -0.1900   -8.8407 H   0  0  0  0  0  0  0  0  0  0  0  0
    9.6709    1.2528   -9.7944 H   0  0  0  0  0  0  0  0  0  0  0  0
    9.1649    3.6345  -10.3746 H   0  0  0  0  0  0  0  0  0  0  0  0
    6.9284    4.5521  -10.0248 H   0  0  0  0  0  0  0  0  0  0  0  0
    5.1235    5.2202   -9.7825 H   0  0  0  0  0  0  0  0  0  0  0  0
    2.8627    6.1026   -9.4705 H   0  0  0  0  0  0  0  0  0  0  0  0
    1.0604    4.6347   -8.5277 H   0  0  0  0  0  0  0  0  0  0  0  0
    1.5701    2.3177   -7.9006 H   0  0  0  0  0  0  0  0  0  0  0  0
    1.3111   -1.0104   -8.9900 H   0  0  0  0  0  0  0  0  0  0  0  0
   -1.0703   -1.0409   -8.3482 H   0  0  0  0  0  0  0  0  0  0  0  0
  2  1  1  1
  1 64  1  0
  1 65  1  0
  1 66  1  0
  2  3  1  0
  2  4  1  0
  2  5  1  0
  3 67  1  0
  3 68  1  0
  3 69  1  0
  4 70  1  0
  4 71  1  0
  4 72  1  0
  5  6  2  0
  5 63  1  0
  6  7  1  0
  6 73  1  0
  7  8  2  0
  7 74  1  0
  8  9  1  0
  8 62  1  0
  9 10  1  0
  9 61  1  0
 10 11  1  0
 10 47  2  0
 11 12  2  0
 11 46  1  0
 12 13  1  0
 12 75  1  0
 13 14  2  0
 13 76  1  0
 14 15  1  0
 14 45  1  0
 15 16  2  0
 15 38  1  0
 16 17  1  0
 16 77  1  0
 17 18  1  0
 17 24  2  0
 18 19  2  0
 18 23  1  0
 19 20  1  0
 19 78  1  0
 20 21  2  0
 20 79  1  0
 21 22  1  0
 21 80  1  0
 22 23  2  0
 22 81  1  0
 23 82  1  0
 24 25  1  0
 24 37  1  0
 25 26  2  0
 25 30  1  0
 26 27  1  0
 26 83  1  0
 27 28  2  0
 27 84  1  0
 28 29  1  0
 28 85  1  0
 29 30  2  0
 29 86  1  0
 30 31  1  0
 31 32  1  0
 31 36  2  0
 32 33  2  0
 32 87  1  0
 33 34  1  0
 33 88  1  0
 34 35  2  0
 34 89  1  0
 35 36  1  0
 35 90  1  0
 36 37  1  0
 37 38  2  0
 38 39  1  0
 39 40  2  0
 39 44  1  0
 40 41  1  0
 40 91  1  0
 41 42  2  0
 41 92  1  0
 42 43  1  0
 42 93  1  0
 43 44  2  0
 43 94  1  0
 44 95  1  0
 45 46  2  0
 45 96  1  0
 46 97  1  0
 47 48  1  0
 48 49  2  0
 48 61  1  0
 49 50  1  0
 49 54  1  0
 50 51  2  0
 50 98  1  0
 51 52  1  0
 51 99  1  0
 52 53  2  0
 52100  1  0
 53 54  1  0
 53101  1  0
 54 55  2  0
 55 56  1  0
 55 60  1  0
 56 57  2  0
 56102  1  0
 57 58  1  0
 57103  1  0
 58 59  2  0
 58104  1  0
 59 60  1  0
 59105  1  0
 60 61  2  0
 62 63  2  0
 62106  1  0
 63107  1  0
M  END

