
     RDKit          3D

 34 34  0  0  0  0  0  0  0  0999 V2000
    2.2769    3.2601    0.5772 C   0  0  0  0  0  0  0  0  0  0  0  0
    2.1269    2.1990    1.6731 C   0  0  1  0  0  0  0  0  0  0  0  0
    0.6495    1.9213    1.9757 C   0  0  0  0  0  0  0  0  0  0  0  0
    2.8609    0.8809    1.3210 C   0  0  0  0  0  0  0  0  0  0  0  0
    4.3619    1.0032    1.1820 C   0  0  0  0  0  0  0  0  0  0  0  0
    5.1803    1.1012    2.3203 C   0  0  0  0  0  0  0  0  0  0  0  0
    6.5645    1.2330    2.2090 C   0  0  0  0  0  0  0  0  0  0  0  0
    7.1688    1.2691    0.9454 C   0  0  0  0  0  0  0  0  0  0  0  0
    8.6661    1.4510    0.8185 C   0  0  1  0  0  0  0  0  0  0  0  0
    9.2977    0.8539    1.8822 F   0  0  0  0  0  0  0  0  0  0  0  0
    9.1188    0.8026   -0.3048 F   0  0  0  0  0  0  0  0  0  0  0  0
    9.1207    2.9069    0.7472 C   0  0  0  0  0  0  0  0  0  0  0  0
   10.6499    3.0269    0.6189 C   0  0  0  0  0  0  0  0  0  0  0  0
   11.1010    4.4173    0.5523 C   0  0  0  0  0  0  0  0  0  0  0  0
   11.4403    5.5239    0.5011 N   0  0  0  0  0  0  0  0  0  0  0  0
    6.3687    1.1644   -0.1982 C   0  0  0  0  0  0  0  0  0  0  0  0
    4.9837    1.0336   -0.0761 C   0  0  0  0  0  0  0  0  0  0  0  0
    1.7745    4.1975    0.8654 H   0  0  0  0  0  0  0  0  0  0  0  0
    1.8215    2.9175   -0.3685 H   0  0  0  0  0  0  0  0  0  0  0  0
    3.3331    3.4953    0.3743 H   0  0  0  0  0  0  0  0  0  0  0  0
    2.5922    2.5962    2.5947 H   0  0  0  0  0  0  0  0  0  0  0  0
    0.1355    1.5083    1.0905 H   0  0  0  0  0  0  0  0  0  0  0  0
    0.1214    2.8441    2.2648 H   0  0  0  0  0  0  0  0  0  0  0  0
    0.5326    1.1955    2.7970 H   0  0  0  0  0  0  0  0  0  0  0  0
    2.4357    0.4778    0.3855 H   0  0  0  0  0  0  0  0  0  0  0  0
    2.6359    0.1410    2.1083 H   0  0  0  0  0  0  0  0  0  0  0  0
    4.7262    1.0615    3.3147 H   0  0  0  0  0  0  0  0  0  0  0  0
    7.1825    1.2895    3.1075 H   0  0  0  0  0  0  0  0  0  0  0  0
    8.7666    3.4228    1.6522 H   0  0  0  0  0  0  0  0  0  0  0  0
    8.6218    3.3811   -0.1113 H   0  0  0  0  0  0  0  0  0  0  0  0
   10.9924    2.4994   -0.2853 H   0  0  0  0  0  0  0  0  0  0  0  0
   11.1371    2.5369    1.4768 H   0  0  0  0  0  0  0  0  0  0  0  0
    6.8321    1.1693   -1.1868 H   0  0  0  0  0  0  0  0  0  0  0  0
    4.3733    0.9437   -0.9788 H   0  0  0  0  0  0  0  0  0  0  0  0
  1  2  1  0
  1 18  1  0
  1 19  1  0
  1 20  1  0
  2  3  1  0
  2  4  1  0
  2 21  1  1
  3 22  1  0
  3 23  1  0
  3 24  1  0
  4  5  1  0
  4 25  1  0
  4 26  1  0
  5  6  2  0
  5 17  1  0
  6  7  1  0
  6 27  1  0
  7  8  2  0
  7 28  1  0
  8  9  1  0
  8 16  1  0
  9 10  1  1
  9 11  1  0
  9 12  1  0
 12 13  1  0
 12 29  1  0
 12 30  1  0
 13 14  1  0
 13 31  1  0
 13 32  1  0
 14 15  3  0
 16 17  2  0
 16 33  1  0
 17 34  1  0
M  END

