
     RDKit          3D

 59 63  0  0  0  0  0  0  0  0999 V2000
    4.6336   -5.6121   -6.4683 Cl  0  0  0  0  0  0  0  0  0  0  0  0
    5.3291   -5.0397   -4.9751 C   0  0  0  0  0  0  0  0  0  0  0  0
    6.7193   -5.0002   -4.8552 C   0  0  0  0  0  0  0  0  0  0  0  0
    7.2898   -4.5548   -3.6636 C   0  0  0  0  0  0  0  0  0  0  0  0
    6.4791   -4.1506   -2.6043 C   0  0  0  0  0  0  0  0  0  0  0  0
    5.0786   -4.1651   -2.6980 C   0  0  0  0  0  0  0  0  0  0  0  0
    4.1923   -3.6657   -1.5583 C   0  0  2  0  0  0  0  0  0  0  0  0
    3.8459   -2.1850   -1.7414 C   0  0  0  0  0  0  0  0  0  0  0  0
    2.5065   -1.7756   -1.8200 C   0  0  0  0  0  0  0  0  0  0  0  0
    2.1706   -0.4268   -1.9767 C   0  0  0  0  0  0  0  0  0  0  0  0
    3.1748    0.5394   -2.0654 C   0  0  0  0  0  0  0  0  0  0  0  0
    4.5154    0.1445   -1.9980 C   0  0  0  0  0  0  0  0  0  0  0  0
    4.8448   -1.2029   -1.8385 C   0  0  0  0  0  0  0  0  0  0  0  0
    4.7638   -3.9607   -0.1446 C   0  0  1  0  0  0  0  0  0  0  0  0
    5.6563   -3.3301    0.0014 H   0  0  0  0  0  0  0  0  0  0  0  0
    3.7572   -3.5879    1.0017 C   0  0  2  0  0  0  0  0  0  0  0  0
    2.7564   -3.4119    0.5692 H   0  0  0  0  0  0  0  0  0  0  0  0
    4.1476   -2.3381    1.6339 N   0  0  0  0  0  0  0  0  0  0  0  0
    3.2001   -1.7352    2.5571 C   0  0  0  0  0  0  0  0  0  0  0  0
    3.6526   -0.3640    3.0220 C   0  0  0  0  0  0  0  0  0  0  0  0
    4.1656    0.5673    2.1037 C   0  0  0  0  0  0  0  0  0  0  0  0
    4.5561    1.8398    2.5268 C   0  0  0  0  0  0  0  0  0  0  0  0
    4.4411    2.2039    3.8733 C   0  0  0  0  0  0  0  0  0  0  0  0
    3.9349    1.2838    4.7946 C   0  0  0  0  0  0  0  0  0  0  0  0
    3.5474    0.0086    4.3695 C   0  0  0  0  0  0  0  0  0  0  0  0
    3.6386   -4.8304    1.9318 C   0  0  1  0  0  0  0  0  0  0  0  0
    3.0827   -6.0028    1.1021 C   0  0  0  0  0  0  0  0  0  0  0  0
    4.0941   -6.2993   -0.0467 C   0  0  0  0  0  0  0  0  0  0  0  0
    5.2160   -5.3543   -0.0137 N   0  0  0  0  0  0  0  0  0  0  0  0
    5.9450   -5.5162    1.2471 C   0  0  0  0  0  0  0  0  0  0  0  0
    5.0288   -5.2113    2.4726 C   0  0  0  0  0  0  0  0  0  0  0  0
    4.5134   -4.6247   -3.9057 C   0  0  0  0  0  0  0  0  0  0  0  0
    2.7743   -4.7001   -4.0975 Cl  0  0  0  0  0  0  0  0  0  0  0  0
    7.3347   -5.3244   -5.6956 H   0  0  0  0  0  0  0  0  0  0  0  0
    8.3771   -4.5307   -3.5600 H   0  0  0  0  0  0  0  0  0  0  0  0
    6.9458   -3.8273   -1.6740 H   0  0  0  0  0  0  0  0  0  0  0  0
    3.2414   -4.2085   -1.6377 H   0  0  0  0  0  0  0  0  0  0  0  0
    1.7124   -2.5253   -1.7697 H   0  0  0  0  0  0  0  0  0  0  0  0
    1.1193   -0.1332   -2.0361 H   0  0  0  0  0  0  0  0  0  0  0  0
    2.9162    1.5937   -2.1925 H   0  0  0  0  0  0  0  0  0  0  0  0
    5.3107    0.8908   -2.0743 H   0  0  0  0  0  0  0  0  0  0  0  0
    5.8976   -1.4917   -1.7978 H   0  0  0  0  0  0  0  0  0  0  0  0
    5.0738   -2.3970    2.0545 H   0  0  0  0  0  0  0  0  0  0  0  0
    2.9800   -2.3551    3.4528 H   0  0  0  0  0  0  0  0  0  0  0  0
    2.2384   -1.6359    2.0185 H   0  0  0  0  0  0  0  0  0  0  0  0
    4.2592    0.2782    1.0547 H   0  0  0  0  0  0  0  0  0  0  0  0
    4.9517    2.5546    1.7999 H   0  0  0  0  0  0  0  0  0  0  0  0
    4.7477    3.2003    4.2025 H   0  0  0  0  0  0  0  0  0  0  0  0
    3.8459    1.5557    5.8499 H   0  0  0  0  0  0  0  0  0  0  0  0
    3.1577   -0.7096    5.0974 H   0  0  0  0  0  0  0  0  0  0  0  0
    2.9536   -4.6041    2.7641 H   0  0  0  0  0  0  0  0  0  0  0  0
    2.0898   -5.7397    0.7000 H   0  0  0  0  0  0  0  0  0  0  0  0
    2.9381   -6.8866    1.7451 H   0  0  0  0  0  0  0  0  0  0  0  0
    3.6096   -6.2548   -1.0332 H   0  0  0  0  0  0  0  0  0  0  0  0
    4.5116   -7.3145    0.0432 H   0  0  0  0  0  0  0  0  0  0  0  0
    6.8211   -4.8473    1.2294 H   0  0  0  0  0  0  0  0  0  0  0  0
    6.3345   -6.5460    1.2879 H   0  0  0  0  0  0  0  0  0  0  0  0
    5.4393   -4.3935    3.0877 H   0  0  0  0  0  0  0  0  0  0  0  0
    4.9452   -6.0850    3.1395 H   0  0  0  0  0  0  0  0  0  0  0  0
  1  2  1  0
  2  3  2  0
  2 32  1  0
  3  4  1  0
  3 34  1  0
  4  5  2  0
  4 35  1  0
  5  6  1  0
  5 36  1  0
  6  7  1  0
  6 32  2  0
  7  8  1  0
  7 14  1  0
  7 37  1  1
  8  9  2  0
  8 13  1  0
  9 10  1  0
  9 38  1  0
 10 11  2  0
 10 39  1  0
 11 12  1  0
 11 40  1  0
 12 13  2  0
 12 41  1  0
 13 42  1  0
 14 15  1  1
 14 16  1  0
 14 29  1  0
 16 17  1  6
 16 18  1  0
 16 26  1  0
 18 19  1  0
 18 43  1  0
 19 20  1  0
 19 44  1  0
 19 45  1  0
 20 21  2  0
 20 25  1  0
 21 22  1  0
 21 46  1  0
 22 23  2  0
 22 47  1  0
 23 24  1  0
 23 48  1  0
 24 25  2  0
 24 49  1  0
 25 50  1  0
 26 27  1  0
 26 31  1  0
 26 51  1  1
 27 28  1  0
 27 52  1  0
 27 53  1  0
 28 29  1  0
 28 54  1  0
 28 55  1  0
 29 30  1  0
 30 31  1  0
 30 56  1  0
 30 57  1  0
 31 58  1  0
 31 59  1  0
 32 33  1  0
M  END

