
     RDKit          3D

 38 38  0  0  0  0  0  0  0  0999 V2000
    1.0278   -0.2435    0.6358 C   0  0  0  0  0  0  0  0  0  0  0  0
    2.3647   -0.2441    0.1930 O   0  0  0  0  0  0  0  0  0  0  0  0
    2.9753    0.9423   -0.0808 C   0  0  0  0  0  0  0  0  0  0  0  0
    2.3452    2.1855    0.0133 C   0  0  0  0  0  0  0  0  0  0  0  0
    3.0608    3.3634   -0.2702 C   0  0  0  0  0  0  0  0  0  0  0  0
    2.3897    4.7151   -0.1421 C   0  0  0  0  0  0  0  0  0  0  0  0
    2.5288    5.3748    1.2456 C   0  0  0  0  0  0  0  0  0  0  0  0
    3.9649    5.7134    1.6311 C   0  0  1  0  0  0  0  0  0  0  0  0
    4.5408    6.5055    0.6090 O   0  0  0  0  0  0  0  0  0  0  0  0
    4.0682    6.4615    2.9604 C   0  0  0  0  0  0  0  0  0  0  0  0
    5.4077    6.8749    3.1934 O   0  0  0  0  0  0  0  0  0  0  0  0
    4.4002    3.2679   -0.6395 C   0  0  0  0  0  0  0  0  0  0  0  0
    5.0510    2.0224   -0.7475 C   0  0  0  0  0  0  0  0  0  0  0  0
    6.3598    2.1111   -1.0949 O   0  0  0  0  0  0  0  0  0  0  0  0
    7.1887    0.9948   -1.3581 C   0  0  0  0  0  0  0  0  0  0  0  0
    4.3353    0.8398   -0.4732 C   0  0  0  0  0  0  0  0  0  0  0  0
    4.9442   -0.3904   -0.5114 O   0  0  0  0  0  0  0  0  0  0  0  0
    4.5381   -1.2768   -1.5428 C   0  0  0  0  0  0  0  0  0  0  0  0
    0.7566   -1.2931    0.8142 H   0  0  0  0  0  0  0  0  0  0  0  0
    0.3409    0.1796   -0.1196 H   0  0  0  0  0  0  0  0  0  0  0  0
    0.9076    0.3219    1.5775 H   0  0  0  0  0  0  0  0  0  0  0  0
    1.2966    2.2538    0.3035 H   0  0  0  0  0  0  0  0  0  0  0  0
    1.3156    4.6108   -0.3672 H   0  0  0  0  0  0  0  0  0  0  0  0
    2.8086    5.4070   -0.8878 H   0  0  0  0  0  0  0  0  0  0  0  0
    2.1004    4.7154    2.0208 H   0  0  0  0  0  0  0  0  0  0  0  0
    1.9379    6.3078    1.2476 H   0  0  0  0  0  0  0  0  0  0  0  0
    4.5344    4.7630    1.7382 H   0  0  0  0  0  0  0  0  0  0  0  0
    5.3252    6.9159    1.0069 H   0  0  0  0  0  0  0  0  0  0  0  0
    3.6744    5.8443    3.7907 H   0  0  0  0  0  0  0  0  0  0  0  0
    3.4696    7.3857    2.9107 H   0  0  0  0  0  0  0  0  0  0  0  0
    5.9320    6.0908    3.4073 H   0  0  0  0  0  0  0  0  0  0  0  0
    4.9843    4.1651   -0.8523 H   0  0  0  0  0  0  0  0  0  0  0  0
    8.1679    1.4155   -1.6295 H   0  0  0  0  0  0  0  0  0  0  0  0
    6.8178    0.3939   -2.2058 H   0  0  0  0  0  0  0  0  0  0  0  0
    7.2994    0.3390   -0.4824 H   0  0  0  0  0  0  0  0  0  0  0  0
    5.1537   -2.1826   -1.4422 H   0  0  0  0  0  0  0  0  0  0  0  0
    4.7103   -0.8370   -2.5432 H   0  0  0  0  0  0  0  0  0  0  0  0
    3.4760   -1.5507   -1.4491 H   0  0  0  0  0  0  0  0  0  0  0  0
  1  2  1  0
  1 19  1  0
  1 20  1  0
  1 21  1  0
  2  3  1  0
  3  4  2  0
  3 16  1  0
  4  5  1  0
  4 22  1  0
  5  6  1  0
  5 12  2  0
  6  7  1  0
  6 23  1  0
  6 24  1  0
  7  8  1  0
  7 25  1  0
  7 26  1  0
  8  9  1  0
  8 10  1  0
  8 27  1  1
  9 28  1  0
 10 11  1  0
 10 29  1  0
 10 30  1  0
 11 31  1  0
 12 13  1  0
 12 32  1  0
 13 14  1  0
 13 16  2  0
 14 15  1  0
 15 33  1  0
 15 34  1  0
 15 35  1  0
 16 17  1  0
 17 18  1  0
 18 36  1  0
 18 37  1  0
 18 38  1  0
M  END

