
     RDKit          3D

 47 49  0  0  0  0  0  0  0  0999 V2000
   10.6308   -1.2831   -2.1701 C   0  0  0  0  0  0  0  0  0  0  0  0
    9.2878   -0.7255   -1.7514 C   0  0  0  0  0  0  0  0  0  0  0  0
    9.2970   -0.6081   -0.3122 O   0  0  0  0  0  0  0  0  0  0  0  0
    8.1946   -0.2727    0.3381 C   0  0  0  0  0  0  0  0  0  0  0  0
    7.8929   -0.7169    1.5834 C   0  0  0  0  0  0  0  0  0  0  0  0
    8.7347   -1.6889    2.1955 C   0  0  0  0  0  0  0  0  0  0  0  0
    9.3805   -2.4918    2.7343 N   0  0  0  0  0  0  0  0  0  0  0  0
    6.7062   -0.1624    2.3710 C   0  0  1  0  0  0  0  0  0  0  0  0
    7.1709    0.6709    3.5717 C   0  0  0  0  0  0  0  0  0  0  0  0
    7.5622    2.0016    3.4181 C   0  0  0  0  0  0  0  0  0  0  0  0
    8.0186    2.7465    4.5083 C   0  0  0  0  0  0  0  0  0  0  0  0
    8.5019    4.4146    4.2783 Cl  0  0  0  0  0  0  0  0  0  0  0  0
    8.0860    2.1682    5.7742 C   0  0  0  0  0  0  0  0  0  0  0  0
    7.6964    0.8372    5.9468 C   0  0  0  0  0  0  0  0  0  0  0  0
    7.2414    0.0808    4.8558 C   0  0  0  0  0  0  0  0  0  0  0  0
    6.8475   -1.2154    4.9439 O   0  0  0  0  0  0  0  0  0  0  0  0
    6.9940   -1.9193    6.1732 C   0  0  0  0  0  0  0  0  0  0  0  0
    6.5812   -3.3565    5.9728 C   0  0  0  0  0  0  0  0  0  0  0  0
    7.2978   -4.1835    5.0919 C   0  0  0  0  0  0  0  0  0  0  0  0
    6.9150   -5.5152    4.9178 C   0  0  0  0  0  0  0  0  0  0  0  0
    5.8246   -6.0444    5.6165 C   0  0  0  0  0  0  0  0  0  0  0  0
    5.1269   -5.2114    6.4857 C   0  0  0  0  0  0  0  0  0  0  0  0
    4.0766   -5.7010    7.1632 F   0  0  0  0  0  0  0  0  0  0  0  0
    5.4843   -3.8771    6.6709 C   0  0  0  0  0  0  0  0  0  0  0  0
    5.7994    0.6034    1.4203 C   0  0  0  0  0  0  0  0  0  0  0  0
    4.5051    1.0070    1.8473 C   0  0  0  0  0  0  0  0  0  0  0  0
    3.4370    1.3540    2.1560 N   0  0  0  0  0  0  0  0  0  0  0  0
    6.1787    0.9375    0.1515 C   0  0  0  0  0  0  0  0  0  0  0  0
    5.4359    1.5916   -0.7802 N   0  0  0  0  0  0  0  0  0  0  0  0
    7.4002    0.5930   -0.3548 O   0  0  0  0  0  0  0  0  0  0  0  0
   10.6687   -1.3787   -3.2662 H   0  0  0  0  0  0  0  0  0  0  0  0
   10.8003   -2.2748   -1.7251 H   0  0  0  0  0  0  0  0  0  0  0  0
   11.4455   -0.6160   -1.8505 H   0  0  0  0  0  0  0  0  0  0  0  0
    8.4600   -1.3916   -2.0499 H   0  0  0  0  0  0  0  0  0  0  0  0
    9.1068    0.2666   -2.1938 H   0  0  0  0  0  0  0  0  0  0  0  0
    6.1479   -1.0168    2.7800 H   0  0  0  0  0  0  0  0  0  0  0  0
    7.5072    2.4727    2.4352 H   0  0  0  0  0  0  0  0  0  0  0  0
    8.4389    2.7532    6.6250 H   0  0  0  0  0  0  0  0  0  0  0  0
    7.7511    0.4001    6.9433 H   0  0  0  0  0  0  0  0  0  0  0  0
    6.3744   -1.4483    6.9566 H   0  0  0  0  0  0  0  0  0  0  0  0
    8.0499   -1.8661    6.4968 H   0  0  0  0  0  0  0  0  0  0  0  0
    8.1485   -3.7823    4.5356 H   0  0  0  0  0  0  0  0  0  0  0  0
    7.4751   -6.1539    4.2304 H   0  0  0  0  0  0  0  0  0  0  0  0
    5.5101   -7.0832    5.4991 H   0  0  0  0  0  0  0  0  0  0  0  0
    4.8981   -3.2623    7.3577 H   0  0  0  0  0  0  0  0  0  0  0  0
    4.5820    2.0444   -0.4760 H   0  0  0  0  0  0  0  0  0  0  0  0
    5.9181    1.9898   -1.5760 H   0  0  0  0  0  0  0  0  0  0  0  0
  1  2  1  0
  1 31  1  0
  1 32  1  0
  1 33  1  0
  2  3  1  0
  2 34  1  0
  2 35  1  0
  3  4  1  0
  4  5  2  0
  4 30  1  0
  5  6  1  0
  5  8  1  0
  6  7  3  0
  8  9  1  0
  8 25  1  0
  8 36  1  1
  9 10  2  0
  9 15  1  0
 10 11  1  0
 10 37  1  0
 11 12  1  0
 11 13  2  0
 13 14  1  0
 13 38  1  0
 14 15  2  0
 14 39  1  0
 15 16  1  0
 16 17  1  0
 17 18  1  0
 17 40  1  0
 17 41  1  0
 18 19  2  0
 18 24  1  0
 19 20  1  0
 19 42  1  0
 20 21  2  0
 20 43  1  0
 21 22  1  0
 21 44  1  0
 22 23  1  0
 22 24  2  0
 24 45  1  0
 25 26  1  0
 25 28  2  0
 26 27  3  0
 28 29  1  0
 28 30  1  0
 29 46  1  0
 29 47  1  0
M  END

