
     RDKit          3D

 32 34  0  0  0  0  0  0  0  0999 V2000
    1.1514   -0.2386    0.6905 C   0  0  0  0  0  0  0  0  0  0  0  0
    2.6104   -0.0667    0.4106 C   0  0  0  0  0  0  0  0  0  0  0  0
    3.3134    1.1176    0.2658 C   0  0  0  0  0  0  0  0  0  0  0  0
    4.6222    0.7551    0.0192 N   0  0  0  0  0  0  0  0  0  0  0  0
    5.7351    1.5248   -0.1998 C   0  0  0  0  0  0  0  0  0  0  0  0
    6.9361    0.9047   -0.4237 C   0  0  0  0  0  0  0  0  0  0  0  0
    7.0171   -0.5113   -0.4265 C   0  0  0  0  0  0  0  0  0  0  0  0
    5.9042   -1.3168   -0.2060 C   0  0  0  0  0  0  0  0  0  0  0  0
    6.0539   -2.7693   -0.2213 C   0  0  0  0  0  0  0  0  0  0  0  0
    5.0802   -3.6786    0.0132 C   0  0  0  0  0  0  0  0  0  0  0  0
    5.2245   -5.1421    0.0232 C   0  0  0  0  0  0  0  0  0  0  0  0
    4.4421   -5.9060    0.9307 C   0  0  0  0  0  0  0  0  0  0  0  0
    3.3692   -5.0932    2.0524 Cl  0  0  0  0  0  0  0  0  0  0  0  0
    4.4933   -7.2980    0.9997 C   0  0  0  0  0  0  0  0  0  0  0  0
    5.3395   -7.9969    0.1398 C   0  0  0  0  0  0  0  0  0  0  0  0
    6.1190   -7.2996   -0.7812 C   0  0  0  0  0  0  0  0  0  0  0  0
    6.0583   -5.9046   -0.8347 C   0  0  0  0  0  0  0  0  0  0  0  0
    7.0383   -5.1469   -2.0789 Cl  0  0  0  0  0  0  0  0  0  0  0  0
    4.6520   -0.6533    0.0262 C   0  0  0  0  0  0  0  0  0  0  0  0
    3.4413   -1.1400    0.2625 N   0  0  0  0  0  0  0  0  0  0  0  0
    0.6394    0.7304    0.7807 H   0  0  0  0  0  0  0  0  0  0  0  0
    1.0003   -0.8027    1.6252 H   0  0  0  0  0  0  0  0  0  0  0  0
    0.6677   -0.8163   -0.1139 H   0  0  0  0  0  0  0  0  0  0  0  0
    3.0044    2.1583    0.3146 H   0  0  0  0  0  0  0  0  0  0  0  0
    5.5957    2.6065   -0.1821 H   0  0  0  0  0  0  0  0  0  0  0  0
    7.8256    1.5115   -0.5990 H   0  0  0  0  0  0  0  0  0  0  0  0
    7.9834   -0.9882   -0.6069 H   0  0  0  0  0  0  0  0  0  0  0  0
    7.0709   -3.1059   -0.4327 H   0  0  0  0  0  0  0  0  0  0  0  0
    4.0900   -3.2987    0.2739 H   0  0  0  0  0  0  0  0  0  0  0  0
    3.8716   -7.8191    1.7287 H   0  0  0  0  0  0  0  0  0  0  0  0
    5.3879   -9.0873    0.1836 H   0  0  0  0  0  0  0  0  0  0  0  0
    6.7763   -7.8263   -1.4741 H   0  0  0  0  0  0  0  0  0  0  0  0
  1  2  1  0
  1 21  1  0
  1 22  1  0
  1 23  1  0
  2  3  2  0
  2 20  1  0
  3  4  1  0
  3 24  1  0
  4  5  1  0
  4 19  1  0
  5  6  2  0
  5 25  1  0
  6  7  1  0
  6 26  1  0
  7  8  2  0
  7 27  1  0
  8  9  1  0
  8 19  1  0
  9 10  2  0
  9 28  1  0
 10 11  1  0
 10 29  1  0
 11 12  2  0
 11 17  1  0
 12 13  1  0
 12 14  1  0
 14 15  2  0
 14 30  1  0
 15 16  1  0
 15 31  1  0
 16 17  2  0
 16 32  1  0
 17 18  1  0
 19 20  2  0
M  END

