
     RDKit          3D

 69 73  0  0  0  0  0  0  0  0999 V2000
    5.1587   -0.5556    8.3531 C   0  0  0  0  0  0  0  0  0  0  0  0
    6.2787    0.4525    8.2592 C   0  0  0  0  0  0  0  0  0  0  0  0
    6.4353    0.9387    7.0792 N   0  0  0  0  0  0  0  0  0  0  0  0
    7.4975    1.8511    7.0036 O   0  0  0  0  0  0  0  0  0  0  0  0
    7.7195    2.3017    5.7387 C   0  0  0  0  0  0  0  0  0  0  0  0
    7.1445    1.9677    4.7426 O   0  0  0  0  0  0  0  0  0  0  0  0
    8.7032    3.1982    5.8424 O   0  0  0  0  0  0  0  0  0  0  0  0
    9.1644    3.8001    4.6074 C   0  0  0  0  0  0  0  0  0  0  0  0
   10.2611    3.0042    3.9498 C   0  0  0  0  0  0  0  0  0  0  0  0
   11.6061    3.2595    4.2462 C   0  0  0  0  0  0  0  0  0  0  0  0
   12.6404    2.5257    3.6595 C   0  0  0  0  0  0  0  0  0  0  0  0
   12.3327    1.4966    2.7577 C   0  0  0  0  0  0  0  0  0  0  0  0
   13.2404    0.7344    2.0791 O   0  0  0  0  0  0  0  0  0  0  0  0
   14.5936    0.4563    2.5078 C   0  0  1  0  0  0  0  0  0  0  0  0
   14.5818    0.0984    4.0077 C   0  0  0  0  0  0  0  0  0  0  0  0
   13.7506   -0.9621    4.4116 C   0  0  0  0  0  0  0  0  0  0  0  0
   13.6561   -1.3305    5.7530 C   0  0  0  0  0  0  0  0  0  0  0  0
   14.3960   -0.6461    6.7238 C   0  0  0  0  0  0  0  0  0  0  0  0
   15.2195    0.4114    6.3370 C   0  0  0  0  0  0  0  0  0  0  0  0
   15.3077    0.7838    4.9898 C   0  0  0  0  0  0  0  0  0  0  0  0
   15.0089   -0.7664    1.6530 C   0  0  0  0  0  0  0  0  0  0  0  0
   14.5104   -0.9082    0.3488 C   0  0  0  0  0  0  0  0  0  0  0  0
   14.9205   -1.9716   -0.4584 C   0  0  0  0  0  0  0  0  0  0  0  0
   15.8418   -2.9084    0.0195 C   0  0  0  0  0  0  0  0  0  0  0  0
   16.3454   -2.7732    1.3150 C   0  0  0  0  0  0  0  0  0  0  0  0
   15.9298   -1.7124    2.1261 C   0  0  0  0  0  0  0  0  0  0  0  0
   15.5344    1.6132    2.1050 C   0  0  0  0  0  0  0  0  0  0  0  0
   15.0589    2.7126    1.3763 C   0  0  0  0  0  0  0  0  0  0  0  0
   15.9279    3.7248    0.9538 C   0  0  0  0  0  0  0  0  0  0  0  0
   17.2909    3.6535    1.2441 C   0  0  0  0  0  0  0  0  0  0  0  0
   17.7810    2.5515    1.9522 C   0  0  0  0  0  0  0  0  0  0  0  0
   16.9137    1.5409    2.3705 C   0  0  0  0  0  0  0  0  0  0  0  0
   10.9867    1.2292    2.4537 C   0  0  0  0  0  0  0  0  0  0  0  0
    9.9674    1.9748    3.0383 C   0  0  0  0  0  0  0  0  0  0  0  0
    7.0545    0.7731    9.4935 C   0  0  0  0  0  0  0  0  0  0  0  0
    7.3497   -0.2536   10.4108 C   0  0  0  0  0  0  0  0  0  0  0  0
    8.0475    0.0149   11.5899 C   0  0  0  0  0  0  0  0  0  0  0  0
    8.4426    1.3214   11.8881 C   0  0  0  0  0  0  0  0  0  0  0  0
    8.1398    2.3539   10.9953 C   0  0  0  0  0  0  0  0  0  0  0  0
    7.4602    2.0854    9.8064 C   0  0  0  0  0  0  0  0  0  0  0  0
    4.6355   -0.6144    7.3900 H   0  0  0  0  0  0  0  0  0  0  0  0
    4.4464   -0.2746    9.1453 H   0  0  0  0  0  0  0  0  0  0  0  0
    5.5451   -1.5577    8.6001 H   0  0  0  0  0  0  0  0  0  0  0  0
    9.5301    4.7894    4.9136 H   0  0  0  0  0  0  0  0  0  0  0  0
    8.3025    3.9209    3.9365 H   0  0  0  0  0  0  0  0  0  0  0  0
   11.8615    4.0579    4.9492 H   0  0  0  0  0  0  0  0  0  0  0  0
   13.6735    2.7653    3.9011 H   0  0  0  0  0  0  0  0  0  0  0  0
   13.1692   -1.5007    3.6605 H   0  0  0  0  0  0  0  0  0  0  0  0
   13.0009   -2.1558    6.0429 H   0  0  0  0  0  0  0  0  0  0  0  0
   14.3249   -0.9341    7.7758 H   0  0  0  0  0  0  0  0  0  0  0  0
   15.7957    0.9611    7.0857 H   0  0  0  0  0  0  0  0  0  0  0  0
   15.9455    1.6244    4.7151 H   0  0  0  0  0  0  0  0  0  0  0  0
   13.7914   -0.1821   -0.0306 H   0  0  0  0  0  0  0  0  0  0  0  0
   14.5161   -2.0676   -1.4695 H   0  0  0  0  0  0  0  0  0  0  0  0
   16.1623   -3.7402   -0.6131 H   0  0  0  0  0  0  0  0  0  0  0  0
   17.0614   -3.5012    1.7051 H   0  0  0  0  0  0  0  0  0  0  0  0
   16.3205   -1.6340    3.1423 H   0  0  0  0  0  0  0  0  0  0  0  0
   14.0007    2.7783    1.1259 H   0  0  0  0  0  0  0  0  0  0  0  0
   15.5302    4.5723    0.3894 H   0  0  0  0  0  0  0  0  0  0  0  0
   17.9696    4.4439    0.9137 H   0  0  0  0  0  0  0  0  0  0  0  0
   18.8484    2.4717    2.1742 H   0  0  0  0  0  0  0  0  0  0  0  0
   17.3235    0.6779    2.8981 H   0  0  0  0  0  0  0  0  0  0  0  0
   10.7648    0.4249    1.7495 H   0  0  0  0  0  0  0  0  0  0  0  0
    8.9250    1.7487    2.8031 H   0  0  0  0  0  0  0  0  0  0  0  0
    7.0449   -1.2798   10.1974 H   0  0  0  0  0  0  0  0  0  0  0  0
    8.2785   -0.8007   12.2798 H   0  0  0  0  0  0  0  0  0  0  0  0
    8.9825    1.5352   12.8142 H   0  0  0  0  0  0  0  0  0  0  0  0
    8.4391    3.3801   11.2233 H   0  0  0  0  0  0  0  0  0  0  0  0
    7.2391    2.8983    9.1168 H   0  0  0  0  0  0  0  0  0  0  0  0
  1  2  1  0
  1 41  1  0
  1 42  1  0
  1 43  1  0
  2  3  2  0
  2 35  1  0
  3  4  1  0
  4  5  1  0
  5  6  2  0
  5  7  1  0
  7  8  1  0
  8  9  1  0
  8 44  1  0
  8 45  1  0
  9 10  2  0
  9 34  1  0
 10 11  1  0
 10 46  1  0
 11 12  2  0
 11 47  1  0
 12 13  1  0
 12 33  1  0
 14 13  1  6
 14 15  1  0
 14 21  1  0
 14 27  1  0
 15 16  2  0
 15 20  1  0
 16 17  1  0
 16 48  1  0
 17 18  2  0
 17 49  1  0
 18 19  1  0
 18 50  1  0
 19 20  2  0
 19 51  1  0
 20 52  1  0
 21 22  2  0
 21 26  1  0
 22 23  1  0
 22 53  1  0
 23 24  2  0
 23 54  1  0
 24 25  1  0
 24 55  1  0
 25 26  2  0
 25 56  1  0
 26 57  1  0
 27 28  2  0
 27 32  1  0
 28 29  1  0
 28 58  1  0
 29 30  2  0
 29 59  1  0
 30 31  1  0
 30 60  1  0
 31 32  2  0
 31 61  1  0
 32 62  1  0
 33 34  2  0
 33 63  1  0
 34 64  1  0
 35 36  2  0
 35 40  1  0
 36 37  1  0
 36 65  1  0
 37 38  2  0
 37 66  1  0
 38 39  1  0
 38 67  1  0
 39 40  2  0
 39 68  1  0
 40 69  1  0
M  END

