
     RDKit          3D

 42 41  0  0  0  0  0  0  0  0999 V2000
    7.3335    1.1940   -2.7961 C   0  0  0  0  0  0  0  0  0  0  0  0
    6.8157    1.7953   -1.5201 C   0  0  0  0  0  0  0  0  0  0  0  0
    7.4607    1.3228   -0.2703 C   0  0  0  0  0  0  0  0  0  0  0  0
    8.3474    0.4998   -0.2263 O   0  0  0  0  0  0  0  0  0  0  0  0
    5.8369    2.7174   -1.3881 C   0  0  0  0  0  0  0  0  0  0  0  0
    5.0152    3.3704   -2.4573 C   0  0  0  0  0  0  0  0  0  0  0  0
    3.5096    3.1426   -2.2498 C   0  0  0  0  0  0  0  0  0  0  0  0
    2.5593    3.8006   -3.2322 C   0  0  0  0  0  0  0  0  0  0  0  0
    1.1086    3.5037   -2.9395 C   0  0  0  0  0  0  0  0  0  0  0  0
    2.9935    4.5717   -4.2463 C   0  0  0  0  0  0  0  0  0  0  0  0
    2.1576    5.2884   -5.2640 C   0  0  0  0  0  0  0  0  0  0  0  0
    2.3126    4.7248   -6.5894 O   0  0  0  0  0  0  0  0  0  0  0  0
    3.3943    5.1009   -7.2999 C   0  0  0  0  0  0  0  0  0  0  0  0
    4.2293    5.8636   -6.8733 O   0  0  0  0  0  0  0  0  0  0  0  0
    3.4200    4.4438   -8.6873 C   0  0  1  0  0  0  0  0  0  0  0  0
    2.1392    4.8383   -9.4533 C   0  0  0  0  0  0  0  0  0  0  0  0
    4.6641    4.9322   -9.4425 C   0  0  0  0  0  0  0  0  0  0  0  0
    3.4702    2.9112   -8.5067 C   0  0  0  0  0  0  0  0  0  0  0  0
    7.2855    0.0946   -2.7447 H   0  0  0  0  0  0  0  0  0  0  0  0
    8.3988    1.4437   -2.9312 H   0  0  0  0  0  0  0  0  0  0  0  0
    6.7813    1.5324   -3.6825 H   0  0  0  0  0  0  0  0  0  0  0  0
    7.0594    1.7921    0.6675 H   0  0  0  0  0  0  0  0  0  0  0  0
    5.6007    3.0346   -0.3622 H   0  0  0  0  0  0  0  0  0  0  0  0
    5.3160    3.0197   -3.4552 H   0  0  0  0  0  0  0  0  0  0  0  0
    5.2169    4.4573   -2.4330 H   0  0  0  0  0  0  0  0  0  0  0  0
    3.2291    3.4721   -1.2306 H   0  0  0  0  0  0  0  0  0  0  0  0
    3.3072    2.0550   -2.2536 H   0  0  0  0  0  0  0  0  0  0  0  0
    0.9382    2.4135   -2.9120 H   0  0  0  0  0  0  0  0  0  0  0  0
    0.4139    3.9315   -3.6734 H   0  0  0  0  0  0  0  0  0  0  0  0
    0.8260    3.8868   -1.9431 H   0  0  0  0  0  0  0  0  0  0  0  0
    4.0672    4.7262   -4.3793 H   0  0  0  0  0  0  0  0  0  0  0  0
    2.4499    6.3489   -5.3095 H   0  0  0  0  0  0  0  0  0  0  0  0
    1.0829    5.2202   -5.0597 H   0  0  0  0  0  0  0  0  0  0  0  0
    2.0707    5.9309   -9.5800 H   0  0  0  0  0  0  0  0  0  0  0  0
    1.2370    4.4965   -8.9260 H   0  0  0  0  0  0  0  0  0  0  0  0
    2.1477    4.3837  -10.4571 H   0  0  0  0  0  0  0  0  0  0  0  0
    4.6522    6.0252   -9.5662 H   0  0  0  0  0  0  0  0  0  0  0  0
    4.7045    4.4692  -10.4411 H   0  0  0  0  0  0  0  0  0  0  0  0
    5.5863    4.6737   -8.9015 H   0  0  0  0  0  0  0  0  0  0  0  0
    2.5902    2.5450   -7.9588 H   0  0  0  0  0  0  0  0  0  0  0  0
    4.3722    2.6045   -7.9528 H   0  0  0  0  0  0  0  0  0  0  0  0
    3.4968    2.4184   -9.4919 H   0  0  0  0  0  0  0  0  0  0  0  0
  1  2  1  0
  1 19  1  0
  1 20  1  0
  1 21  1  0
  2  3  1  0
  2  5  2  0
  3  4  2  0
  3 22  1  0
  5  6  1  0
  5 23  1  0
  6  7  1  0
  6 24  1  0
  6 25  1  0
  7  8  1  0
  7 26  1  0
  7 27  1  0
  8  9  1  0
  8 10  2  0
  9 28  1  0
  9 29  1  0
  9 30  1  0
 10 11  1  0
 10 31  1  0
 11 12  1  0
 11 32  1  0
 11 33  1  0
 12 13  1  0
 13 14  2  0
 15 13  1  1
 15 16  1  0
 15 17  1  0
 15 18  1  0
 16 34  1  0
 16 35  1  0
 16 36  1  0
 17 37  1  0
 17 38  1  0
 17 39  1  0
 18 40  1  0
 18 41  1  0
 18 42  1  0
M  END

