
     RDKit          3D

 45 48  0  0  0  0  0  0  0  0999 V2000
    2.5974   -3.2540    5.9461 Br  0  0  0  0  0  0  0  0  0  0  0  0
    4.4039   -3.0418    5.3645 C   0  0  0  0  0  0  0  0  0  0  0  0
    5.3421   -2.4757    6.2296 C   0  0  0  0  0  0  0  0  0  0  0  0
    6.6582   -2.3282    5.7772 C   0  0  0  0  0  0  0  0  0  0  0  0
    7.0279   -2.7404    4.4990 C   0  0  0  0  0  0  0  0  0  0  0  0
    6.0804   -3.3092    3.6229 C   0  0  0  0  0  0  0  0  0  0  0  0
    6.4728   -3.7321    2.2792 C   0  0  0  0  0  0  0  0  0  0  0  0
    7.5866   -3.4411    1.5005 C   0  0  0  0  0  0  0  0  0  0  0  0
    7.5048   -4.0462    0.2769 N   0  0  0  0  0  0  0  0  0  0  0  0
    6.3676   -4.7135    0.2886 C   0  0  0  0  0  0  0  0  0  0  0  0
    5.8414   -5.6115   -0.7947 C   0  0  0  0  0  0  0  0  0  0  0  0
    4.3830   -5.6968   -0.7457 N   0  0  0  0  0  0  0  0  0  0  0  0
    3.6920   -4.5209   -1.2910 C   0  0  0  0  0  0  0  0  0  0  0  0
    3.5967   -4.5416   -2.8200 C   0  0  0  0  0  0  0  0  0  0  0  0
    2.9501   -5.7813   -3.2367 N   0  0  0  0  0  0  0  0  0  0  0  0
    3.6631   -6.9652   -2.7751 C   0  0  0  0  0  0  0  0  0  0  0  0
    3.7936   -6.9575   -1.2390 C   0  0  2  0  0  0  0  0  0  0  0  0
    2.5080   -7.2683   -0.4702 C   0  0  0  0  0  0  0  0  0  0  0  0
    1.2184   -7.1649   -1.0063 C   0  0  0  0  0  0  0  0  0  0  0  0
    0.1187   -7.4861   -0.2002 C   0  0  0  0  0  0  0  0  0  0  0  0
    0.2162   -7.8906    1.0668 N   0  0  0  0  0  0  0  0  0  0  0  0
    1.4460   -7.9879    1.5818 C   0  0  0  0  0  0  0  0  0  0  0  0
    2.6062   -7.6910    0.8648 C   0  0  0  0  0  0  0  0  0  0  0  0
    5.7071   -4.5525    1.4692 N   0  0  0  0  0  0  0  0  0  0  0  0
    4.8101   -4.9822    1.6665 H   0  0  0  0  0  0  0  0  0  0  0  0
    4.7539   -3.4516    4.0772 C   0  0  0  0  0  0  0  0  0  0  0  0
    5.0522   -2.1594    7.2324 H   0  0  0  0  0  0  0  0  0  0  0  0
    7.4070   -1.8910    6.4425 H   0  0  0  0  0  0  0  0  0  0  0  0
    8.0654   -2.6358    4.1766 H   0  0  0  0  0  0  0  0  0  0  0  0
    8.4266   -2.7993    1.7633 H   0  0  0  0  0  0  0  0  0  0  0  0
    6.2469   -6.6277   -0.6439 H   0  0  0  0  0  0  0  0  0  0  0  0
    6.2635   -5.2560   -1.7548 H   0  0  0  0  0  0  0  0  0  0  0  0
    4.2120   -3.6127   -0.9495 H   0  0  0  0  0  0  0  0  0  0  0  0
    2.6709   -4.4925   -0.8752 H   0  0  0  0  0  0  0  0  0  0  0  0
    4.6129   -4.4198   -3.2593 H   0  0  0  0  0  0  0  0  0  0  0  0
    2.9947   -3.6839   -3.1615 H   0  0  0  0  0  0  0  0  0  0  0  0
    2.8252   -5.8075   -4.2462 H   0  0  0  0  0  0  0  0  0  0  0  0
    4.6917   -7.0351   -3.1969 H   0  0  0  0  0  0  0  0  0  0  0  0
    3.1229   -7.8686   -3.1008 H   0  0  0  0  0  0  0  0  0  0  0  0
    4.5043   -7.7566   -0.9739 H   0  0  0  0  0  0  0  0  0  0  0  0
    1.0734   -6.8116   -2.0277 H   0  0  0  0  0  0  0  0  0  0  0  0
   -0.8956   -7.4052   -0.6103 H   0  0  0  0  0  0  0  0  0  0  0  0
    1.5158   -8.3259    2.6230 H   0  0  0  0  0  0  0  0  0  0  0  0
    3.5844   -7.7970    1.3427 H   0  0  0  0  0  0  0  0  0  0  0  0
    3.9809   -3.8643    3.4273 H   0  0  0  0  0  0  0  0  0  0  0  0
  1  2  1  0
  2  3  2  0
  2 26  1  0
  3  4  1  0
  3 27  1  0
  4  5  2  0
  4 28  1  0
  5  6  1  0
  5 29  1  0
  6  7  1  0
  6 26  2  0
  7  8  2  0
  7 24  1  0
  8  9  1  0
  8 30  1  0
  9 10  2  0
 10 11  1  0
 10 24  1  0
 11 12  1  0
 11 31  1  0
 11 32  1  0
 12 13  1  0
 12 17  1  0
 13 14  1  0
 13 33  1  0
 13 34  1  0
 14 15  1  0
 14 35  1  0
 14 36  1  0
 15 16  1  0
 15 37  1  0
 16 17  1  0
 16 38  1  0
 16 39  1  0
 17 18  1  0
 17 40  1  6
 18 19  2  0
 18 23  1  0
 19 20  1  0
 19 41  1  0
 20 21  2  0
 20 42  1  0
 21 22  1  0
 22 23  2  0
 22 43  1  0
 23 44  1  0
 24 25  1  0
 26 45  1  0
M  END

