
     RDKit          3D

 75 80  0  0  0  0  0  0  0  0999 V2000
    0.9956    1.8164   -8.0436 C   0  0  0  0  0  0  0  0  0  0  0  0
    0.8764    2.9415   -7.1715 O   0  0  0  0  0  0  0  0  0  0  0  0
    1.9578    3.2414   -6.4306 C   0  0  0  0  0  0  0  0  0  0  0  0
    2.9937    2.6220   -6.4889 O   0  0  0  0  0  0  0  0  0  0  0  0
    1.6930    4.4232   -5.5209 C   0  0  0  0  0  0  0  0  0  0  0  0
    2.9599    4.9885   -4.8761 C   0  0  2  0  0  0  0  0  0  0  0  0
    3.6557    5.2721   -5.6871 H   0  0  0  0  0  0  0  0  0  0  0  0
    3.6733    4.0057   -3.9073 C   0  0  0  0  0  0  0  0  0  0  0  0
    4.1152    4.7732   -2.7689 O   0  0  0  0  0  0  0  0  0  0  0  0
    3.4617    5.9615   -2.7854 C   0  0  0  0  0  0  0  0  0  0  0  0
    3.5126    6.8887   -1.7439 C   0  0  0  0  0  0  0  0  0  0  0  0
    2.7918    8.0862   -1.9082 C   0  0  0  0  0  0  0  0  0  0  0  0
    2.7495    9.0826   -0.9847 O   0  0  0  0  0  0  0  0  0  0  0  0
    3.5149    8.9884    0.2213 C   0  0  2  0  0  0  0  0  0  0  0  0
    4.5229    8.6163   -0.0241 H   0  0  0  0  0  0  0  0  0  0  0  0
    2.8085    8.1443    1.3121 C   0  0  0  0  0  0  0  0  0  0  0  0
    1.9597    9.1380    2.1407 C   0  0  0  0  0  0  0  0  0  0  0  0
    2.6564   10.4563    1.9086 C   0  0  0  0  0  0  0  0  0  0  0  0
    2.4999   11.6647    2.6015 C   0  0  0  0  0  0  0  0  0  0  0  0
    1.6130   11.6620    3.6466 O   0  0  0  0  0  0  0  0  0  0  0  0
    1.2627   12.8457    4.2766 C   0  0  0  0  0  0  0  0  0  0  0  0
    0.3317   13.7077    3.6550 C   0  0  0  0  0  0  0  0  0  0  0  0
   -0.0913   14.8706    4.2908 C   0  0  0  0  0  0  0  0  0  0  0  0
    0.4293   15.1541    5.5631 C   0  0  0  0  0  0  0  0  0  0  0  0
    1.3683   14.2875    6.1996 C   0  0  0  0  0  0  0  0  0  0  0  0
    1.6747   14.8752    7.4731 C   0  0  0  0  0  0  0  0  0  0  0  0
    0.9383   16.0323    7.5613 C   0  0  0  0  0  0  0  0  0  0  0  0
    0.1771   16.2097    6.4212 N   0  0  0  0  0  0  0  0  0  0  0  0
   -0.6663   17.3595    6.1406 C   0  0  0  0  0  0  0  0  0  0  0  0
    0.0603   18.4670    5.3637 C   0  0  0  0  0  0  0  0  0  0  0  0
   -0.7699   19.7195    4.9952 C   0  0  1  0  0  0  0  0  0  0  0  0
   -1.9178   19.3840    4.0301 C   0  0  0  0  0  0  0  0  0  0  0  0
   -1.2982   20.4410    6.2377 C   0  0  0  0  0  0  0  0  0  0  0  0
    0.1095   20.6595    4.3754 O   0  0  0  0  0  0  0  0  0  0  0  0
    1.7843   13.1171    5.5348 C   0  0  0  0  0  0  0  0  0  0  0  0
    3.2603   12.7759    2.2113 C   0  0  0  0  0  0  0  0  0  0  0  0
    4.1561   12.6814    1.1369 C   0  0  0  0  0  0  0  0  0  0  0  0
    4.2926   11.4786    0.4510 C   0  0  0  0  0  0  0  0  0  0  0  0
    5.1545   11.3863   -0.5760 F   0  0  0  0  0  0  0  0  0  0  0  0
    3.5521   10.3652    0.8408 C   0  0  0  0  0  0  0  0  0  0  0  0
    2.0465    8.3165   -3.0819 C   0  0  0  0  0  0  0  0  0  0  0  0
    2.0216    7.3645   -4.1042 C   0  0  0  0  0  0  0  0  0  0  0  0
    2.7311    6.1732   -3.9579 C   0  0  0  0  0  0  0  0  0  0  0  0
    0.0291    1.7209   -8.5537 H   0  0  0  0  0  0  0  0  0  0  0  0
    1.2191    0.9012   -7.4746 H   0  0  0  0  0  0  0  0  0  0  0  0
    1.8005    1.9736   -8.7776 H   0  0  0  0  0  0  0  0  0  0  0  0
    0.9755    4.0959   -4.7468 H   0  0  0  0  0  0  0  0  0  0  0  0
    1.1632    5.1932   -6.1045 H   0  0  0  0  0  0  0  0  0  0  0  0
    4.5433    3.5073   -4.3514 H   0  0  0  0  0  0  0  0  0  0  0  0
    2.9754    3.2277   -3.5475 H   0  0  0  0  0  0  0  0  0  0  0  0
    4.0890    6.6589   -0.8497 H   0  0  0  0  0  0  0  0  0  0  0  0
    3.5792    7.6898    1.9560 H   0  0  0  0  0  0  0  0  0  0  0  0
    2.2207    7.3253    0.8741 H   0  0  0  0  0  0  0  0  0  0  0  0
    1.9071    8.8716    3.2076 H   0  0  0  0  0  0  0  0  0  0  0  0
    0.9174    9.1877    1.7795 H   0  0  0  0  0  0  0  0  0  0  0  0
   -0.0558   13.4404    2.6699 H   0  0  0  0  0  0  0  0  0  0  0  0
   -0.8138   15.5304    3.8059 H   0  0  0  0  0  0  0  0  0  0  0  0
    2.3492   14.4849    8.2321 H   0  0  0  0  0  0  0  0  0  0  0  0
    0.8861   16.7623    8.3681 H   0  0  0  0  0  0  0  0  0  0  0  0
   -1.0340   17.7429    7.1044 H   0  0  0  0  0  0  0  0  0  0  0  0
   -1.5503   17.0059    5.5870 H   0  0  0  0  0  0  0  0  0  0  0  0
    0.4629   18.0329    4.4308 H   0  0  0  0  0  0  0  0  0  0  0  0
    0.9303   18.8064    5.9490 H   0  0  0  0  0  0  0  0  0  0  0  0
   -2.6726   18.7240    4.4863 H   0  0  0  0  0  0  0  0  0  0  0  0
   -1.5348   18.8818    3.1250 H   0  0  0  0  0  0  0  0  0  0  0  0
   -2.4204   20.3112    3.7159 H   0  0  0  0  0  0  0  0  0  0  0  0
   -2.0485   19.8409    6.7744 H   0  0  0  0  0  0  0  0  0  0  0  0
   -1.7670   21.3905    5.9388 H   0  0  0  0  0  0  0  0  0  0  0  0
   -0.4714   20.6754    6.9258 H   0  0  0  0  0  0  0  0  0  0  0  0
    0.4707   20.2531    3.5759 H   0  0  0  0  0  0  0  0  0  0  0  0
    2.4947   12.4214    5.9858 H   0  0  0  0  0  0  0  0  0  0  0  0
    3.1607   13.7190    2.7500 H   0  0  0  0  0  0  0  0  0  0  0  0
    4.7549   13.5415    0.8304 H   0  0  0  0  0  0  0  0  0  0  0  0
    1.5025    9.2583   -3.1673 H   0  0  0  0  0  0  0  0  0  0  0  0
    1.4470    7.5671   -5.0126 H   0  0  0  0  0  0  0  0  0  0  0  0
  1  2  1  0
  1 44  1  0
  1 45  1  0
  1 46  1  0
  2  3  1  0
  3  4  2  0
  3  5  1  0
  5  6  1  0
  5 47  1  0
  5 48  1  0
  6  7  1  6
  6  8  1  0
  6 43  1  0
  8  9  1  0
  8 49  1  0
  8 50  1  0
  9 10  1  0
 10 11  2  0
 10 43  1  0
 11 12  1  0
 11 51  1  0
 12 13  1  0
 12 41  2  0
 13 14  1  0
 14 15  1  6
 14 16  1  0
 14 40  1  0
 16 17  1  0
 16 52  1  0
 16 53  1  0
 17 18  1  0
 17 54  1  0
 17 55  1  0
 18 19  1  0
 18 40  2  0
 19 20  1  0
 19 36  2  0
 20 21  1  0
 21 22  2  0
 21 35  1  0
 22 23  1  0
 22 56  1  0
 23 24  2  0
 23 57  1  0
 24 25  1  0
 24 28  1  0
 25 26  1  0
 25 35  2  0
 26 27  2  0
 26 58  1  0
 27 28  1  0
 27 59  1  0
 28 29  1  0
 29 30  1  0
 29 60  1  0
 29 61  1  0
 30 31  1  0
 30 62  1  0
 30 63  1  0
 31 32  1  0
 31 33  1  0
 31 34  1  6
 32 64  1  0
 32 65  1  0
 32 66  1  0
 33 67  1  0
 33 68  1  0
 33 69  1  0
 34 70  1  0
 35 71  1  0
 36 37  1  0
 36 72  1  0
 37 38  2  0
 37 73  1  0
 38 39  1  0
 38 40  1  0
 41 42  1  0
 41 74  1  0
 42 43  2  0
 42 75  1  0
M  END

