
     RDKit          3D

 43 46  0  0  0  0  0  0  0  0999 V2000
    1.1515   -0.1528   -0.6594 C   0  0  0  0  0  0  0  0  0  0  0  0
    2.6480   -0.1578   -0.5205 C   0  0  0  0  0  0  0  0  0  0  0  0
    3.4226    1.0404   -0.5464 C   0  0  0  0  0  0  0  0  0  0  0  0
    4.7754    0.8201   -0.3880 C   0  0  0  0  0  0  0  0  0  0  0  0
    5.8259    1.7255   -0.3465 N   0  0  0  0  0  0  0  0  0  0  0  0
    5.7140    3.1029   -0.4499 C   0  0  0  0  0  0  0  0  0  0  0  0
    4.6609    3.6951   -0.5992 O   0  0  0  0  0  0  0  0  0  0  0  0
    7.0054    3.8120   -0.3643 C   0  0  0  0  0  0  0  0  0  0  0  0
    7.2953    5.1505   -0.4228 C   0  0  0  0  0  0  0  0  0  0  0  0
    8.7134    5.2576   -0.2817 C   0  0  0  0  0  0  0  0  0  0  0  0
    9.1808    3.9784   -0.1482 C   0  0  0  0  0  0  0  0  0  0  0  0
    8.1561    3.0931   -0.1968 O   0  0  0  0  0  0  0  0  0  0  0  0
    5.1293   -0.8752   -0.1894 S   0  0  0  0  0  0  0  0  0  0  0  0
    3.4271   -1.2946   -0.3520 C   0  0  0  0  0  0  0  0  0  0  0  0
    2.9413   -2.6876   -0.2983 C   0  0  0  0  0  0  0  0  0  0  0  0
    1.7733   -2.9693   -0.1325 O   0  0  0  0  0  0  0  0  0  0  0  0
    3.9460   -3.6585   -0.4782 N   0  0  0  0  0  0  0  0  0  0  0  0
    3.7950   -5.0300   -0.3628 C   0  0  0  0  0  0  0  0  0  0  0  0
    2.8511   -5.6521    0.2599 N   0  0  0  0  0  0  0  0  0  0  0  0
    2.9994   -7.0223    0.1945 C   0  0  0  0  0  0  0  0  0  0  0  0
    1.9880   -7.8751    0.8509 C   0  0  0  0  0  0  0  0  0  0  0  0
    0.8511   -7.2791    1.4275 C   0  0  0  0  0  0  0  0  0  0  0  0
   -0.1280   -8.0520    2.0513 C   0  0  0  0  0  0  0  0  0  0  0  0
    0.0220   -9.4402    2.1065 C   0  0  0  0  0  0  0  0  0  0  0  0
   -1.2005  -10.4180    2.8879 Cl  0  0  0  0  0  0  0  0  0  0  0  0
    1.1436  -10.0570    1.5423 C   0  0  0  0  0  0  0  0  0  0  0  0
    2.1153   -9.2744    0.9214 C   0  0  0  0  0  0  0  0  0  0  0  0
    4.1108   -7.4473   -0.4976 C   0  0  0  0  0  0  0  0  0  0  0  0
    4.9996   -6.0917   -1.1160 S   0  0  0  0  0  0  0  0  0  0  0  0
    0.7988    0.8329   -0.9954 H   0  0  0  0  0  0  0  0  0  0  0  0
    0.6720   -0.3880    0.3041 H   0  0  0  0  0  0  0  0  0  0  0  0
    0.8067   -0.9246   -1.3617 H   0  0  0  0  0  0  0  0  0  0  0  0
    3.0092    2.0375   -0.6740 H   0  0  0  0  0  0  0  0  0  0  0  0
    6.7638    1.3572   -0.2260 H   0  0  0  0  0  0  0  0  0  0  0  0
    6.5666    5.9469   -0.5517 H   0  0  0  0  0  0  0  0  0  0  0  0
    9.3113    6.1663   -0.2791 H   0  0  0  0  0  0  0  0  0  0  0  0
   10.1740    3.5566   -0.0166 H   0  0  0  0  0  0  0  0  0  0  0  0
    4.8337   -3.3404   -0.8508 H   0  0  0  0  0  0  0  0  0  0  0  0
    0.7482   -6.1941    1.3734 H   0  0  0  0  0  0  0  0  0  0  0  0
   -1.0081   -7.5829    2.4945 H   0  0  0  0  0  0  0  0  0  0  0  0
    1.2504  -11.1417    1.5943 H   0  0  0  0  0  0  0  0  0  0  0  0
    2.9880   -9.7710    0.4916 H   0  0  0  0  0  0  0  0  0  0  0  0
    4.4562   -8.4608   -0.6852 H   0  0  0  0  0  0  0  0  0  0  0  0
  1  2  1  0
  1 30  1  0
  1 31  1  0
  1 32  1  0
  2  3  2  0
  2 14  1  0
  3  4  1  0
  3 33  1  0
  4  5  1  0
  4 13  2  0
  5  6  1  0
  5 34  1  0
  6  7  2  0
  6  8  1  0
  8  9  2  0
  8 12  1  0
  9 10  1  0
  9 35  1  0
 10 11  2  0
 10 36  1  0
 11 12  1  0
 11 37  1  0
 13 14  1  0
 14 15  2  0
 15 16  1  0
 15 17  1  0
 17 18  1  0
 17 38  1  0
 18 19  2  0
 18 29  1  0
 19 20  1  0
 20 21  1  0
 20 28  2  0
 21 22  2  0
 21 27  1  0
 22 23  1  0
 22 39  1  0
 23 24  2  0
 23 40  1  0
 24 25  1  0
 24 26  1  0
 26 27  2  0
 26 41  1  0
 27 42  1  0
 28 29  1  0
 28 43  1  0
M  CHG  2  13   1  16  -1
M  END

