
     RDKit          3D

 55 57  0  0  0  0  0  0  0  0999 V2000
    0.7906    1.5897    0.3422 C   0  0  0  0  0  0  0  0  0  0  0  0
    1.7521    0.4906   -0.0796 C   0  0  0  0  0  0  0  0  0  0  0  0
    2.7077    0.9581   -1.0467 O   0  0  0  0  0  0  0  0  0  0  0  0
    2.3367    0.9250   -2.3590 C   0  0  0  0  0  0  0  0  0  0  0  0
    1.2575    0.5187   -2.7309 O   0  0  0  0  0  0  0  0  0  0  0  0
    3.4110    1.4358   -3.2078 C   0  0  0  0  0  0  0  0  0  0  0  0
    4.6104    1.8696   -2.6595 N   0  0  0  0  0  0  0  0  0  0  0  0
    4.7954    1.8513   -1.6637 H   0  0  0  0  0  0  0  0  0  0  0  0
    5.4587    2.2989   -3.6181 C   0  0  0  0  0  0  0  0  0  0  0  0
    6.8198    2.8169   -3.2814 C   0  0  0  0  0  0  0  0  0  0  0  0
    4.7922    2.1417   -4.8501 C   0  0  0  0  0  0  0  0  0  0  0  0
    5.3094    2.4638   -6.1834 C   0  0  0  0  0  0  0  0  0  0  0  0
    4.7170    2.2784   -7.2276 O   0  0  0  0  0  0  0  0  0  0  0  0
    6.5526    3.0081   -6.1359 O   0  0  0  0  0  0  0  0  0  0  0  0
    7.1698    3.3347   -7.3958 C   0  0  0  0  0  0  0  0  0  0  0  0
    7.8848    2.1607   -8.0064 C   0  0  0  0  0  0  0  0  0  0  0  0
    7.2995    1.2016   -8.8008 C   0  0  0  0  0  0  0  0  0  0  0  0
    8.4671    0.0248   -9.2651 S   0  0  0  0  0  0  0  0  0  0  0  0
    9.6905    0.9078   -8.3338 C   0  0  0  0  0  0  0  0  0  0  0  0
   11.0753    0.4028   -8.2706 C   0  0  0  0  0  0  0  0  0  0  0  0
   11.3167   -0.9859   -8.2667 C   0  0  0  0  0  0  0  0  0  0  0  0
   12.6132   -1.4936   -8.2347 C   0  0  0  0  0  0  0  0  0  0  0  0
   13.7028   -0.6215   -8.1825 C   0  0  0  0  0  0  0  0  0  0  0  0
   13.4924    0.7598   -8.1769 C   0  0  0  0  0  0  0  0  0  0  0  0
   14.5758    1.5957   -8.1673 O   0  0  0  0  0  0  0  0  0  0  0  0
   14.7734    2.3622   -6.9837 C   0  0  0  0  0  0  0  0  0  0  0  0
   12.1815    1.2841   -8.2355 C   0  0  0  0  0  0  0  0  0  0  0  0
   12.0020    2.6352   -8.2502 O   0  0  0  0  0  0  0  0  0  0  0  0
   12.2945    3.2895   -9.4795 C   0  0  0  0  0  0  0  0  0  0  0  0
    9.2210    1.9786   -7.7587 N   0  0  0  0  0  0  0  0  0  0  0  0
    3.4925    1.5929   -4.5898 C   0  0  0  0  0  0  0  0  0  0  0  0
    2.4368    1.2555   -5.5959 C   0  0  0  0  0  0  0  0  0  0  0  0
    0.1230    1.2197    1.1371 H   0  0  0  0  0  0  0  0  0  0  0  0
    0.1679    1.9080   -0.5066 H   0  0  0  0  0  0  0  0  0  0  0  0
    1.3355    2.4646    0.7306 H   0  0  0  0  0  0  0  0  0  0  0  0
    1.2059   -0.3643   -0.5045 H   0  0  0  0  0  0  0  0  0  0  0  0
    2.3581    0.1423    0.7700 H   0  0  0  0  0  0  0  0  0  0  0  0
    7.0134    2.7324   -2.2010 H   0  0  0  0  0  0  0  0  0  0  0  0
    6.9259    3.8724   -3.5752 H   0  0  0  0  0  0  0  0  0  0  0  0
    7.5995    2.2654   -3.8266 H   0  0  0  0  0  0  0  0  0  0  0  0
    7.9041    4.1149   -7.1605 H   0  0  0  0  0  0  0  0  0  0  0  0
    6.4021    3.7236   -8.0774 H   0  0  0  0  0  0  0  0  0  0  0  0
    6.2542    1.1398   -9.0975 H   0  0  0  0  0  0  0  0  0  0  0  0
   10.4662   -1.6712   -8.2756 H   0  0  0  0  0  0  0  0  0  0  0  0
   12.7760   -2.5739   -8.2325 H   0  0  0  0  0  0  0  0  0  0  0  0
   14.7312   -0.9871   -8.1449 H   0  0  0  0  0  0  0  0  0  0  0  0
   15.6757    2.9679   -7.1472 H   0  0  0  0  0  0  0  0  0  0  0  0
   14.9380    1.7039   -6.1118 H   0  0  0  0  0  0  0  0  0  0  0  0
   13.9173    3.0250   -6.7805 H   0  0  0  0  0  0  0  0  0  0  0  0
   12.1031    4.3597   -9.3207 H   0  0  0  0  0  0  0  0  0  0  0  0
   11.6354    2.9255  -10.2873 H   0  0  0  0  0  0  0  0  0  0  0  0
   13.3469    3.1444   -9.7750 H   0  0  0  0  0  0  0  0  0  0  0  0
    2.8116    0.5118   -6.3164 H   0  0  0  0  0  0  0  0  0  0  0  0
    2.1722    2.1409   -6.1945 H   0  0  0  0  0  0  0  0  0  0  0  0
    1.5406    0.8649   -5.0995 H   0  0  0  0  0  0  0  0  0  0  0  0
  1  2  1  0
  1 33  1  0
  1 34  1  0
  1 35  1  0
  2  3  1  0
  2 36  1  0
  2 37  1  0
  3  4  1  0
  4  5  2  0
  4  6  1  0
  6  7  1  0
  6 31  2  0
  7  8  1  0
  7  9  1  0
  9 10  1  0
  9 11  2  0
 10 38  1  0
 10 39  1  0
 10 40  1  0
 11 12  1  0
 11 31  1  0
 12 13  2  0
 12 14  1  0
 14 15  1  0
 15 16  1  0
 15 41  1  0
 15 42  1  0
 16 17  2  0
 16 30  1  0
 17 18  1  0
 17 43  1  0
 18 19  1  0
 19 20  1  0
 19 30  2  0
 20 21  2  0
 20 27  1  0
 21 22  1  0
 21 44  1  0
 22 23  2  0
 22 45  1  0
 23 24  1  0
 23 46  1  0
 24 25  1  0
 24 27  2  0
 25 26  1  0
 26 47  1  0
 26 48  1  0
 26 49  1  0
 27 28  1  0
 28 29  1  0
 29 50  1  0
 29 51  1  0
 29 52  1  0
 31 32  1  0
 32 53  1  0
 32 54  1  0
 32 55  1  0
M  END

