
     RDKit          3D

 34 35  0  0  0  0  0  0  0  0999 V2000
    0.8916   -0.4298   -1.1649 C   0  0  0  0  0  0  0  0  0  0  0  0
    2.2835   -0.3318   -1.2996 O   0  0  0  0  0  0  0  0  0  0  0  0
    2.9695   -1.5112   -0.9837 C   0  0  0  0  0  0  0  0  0  0  0  0
    4.4613   -1.3301   -1.1469 C   0  0  0  0  0  0  0  0  0  0  0  0
    5.0112   -0.1086   -1.5563 C   0  0  0  0  0  0  0  0  0  0  0  0
    6.3922    0.0341   -1.6940 C   0  0  0  0  0  0  0  0  0  0  0  0
    7.2566   -1.0408   -1.4422 C   0  0  0  0  0  0  0  0  0  0  0  0
    8.7339   -0.7960   -1.6088 C   0  0  0  0  0  0  0  0  0  0  0  0
    9.1938    0.3357   -1.6262 O   0  0  0  0  0  0  0  0  0  0  0  0
    9.4981   -1.9309   -1.7503 N   0  0  0  0  0  0  0  0  0  0  0  0
   10.8910   -2.0406   -1.8771 C   0  0  0  0  0  0  0  0  0  0  0  0
   11.7893   -0.9634   -1.8757 C   0  0  0  0  0  0  0  0  0  0  0  0
   13.1638   -1.1946   -2.0028 C   0  0  0  0  0  0  0  0  0  0  0  0
   13.6590   -2.4921   -2.1340 C   0  0  0  0  0  0  0  0  0  0  0  0
   12.7711   -3.5745   -2.1375 C   0  0  0  0  0  0  0  0  0  0  0  0
   11.4013   -3.3546   -2.0090 C   0  0  0  0  0  0  0  0  0  0  0  0
   10.4754   -4.3635   -2.0018 O   0  0  0  0  0  0  0  0  0  0  0  0
    6.7037   -2.2624   -1.0195 C   0  0  0  0  0  0  0  0  0  0  0  0
    5.3244   -2.4025   -0.8746 C   0  0  0  0  0  0  0  0  0  0  0  0
    0.4585    0.5438   -1.4358 H   0  0  0  0  0  0  0  0  0  0  0  0
    0.5911   -0.6732   -0.1253 H   0  0  0  0  0  0  0  0  0  0  0  0
    0.4634   -1.2052   -1.8326 H   0  0  0  0  0  0  0  0  0  0  0  0
    2.6280   -2.3489   -1.6314 H   0  0  0  0  0  0  0  0  0  0  0  0
    2.7501   -1.8248    0.0609 H   0  0  0  0  0  0  0  0  0  0  0  0
    4.3421    0.7273   -1.7621 H   0  0  0  0  0  0  0  0  0  0  0  0
    6.8307    0.9860   -1.9995 H   0  0  0  0  0  0  0  0  0  0  0  0
    9.0113   -2.8163   -1.8228 H   0  0  0  0  0  0  0  0  0  0  0  0
   11.3901    0.0433   -1.7777 H   0  0  0  0  0  0  0  0  0  0  0  0
   13.8490   -0.3437   -1.9998 H   0  0  0  0  0  0  0  0  0  0  0  0
   14.7318   -2.6717   -2.2346 H   0  0  0  0  0  0  0  0  0  0  0  0
   13.1425   -4.5994   -2.2386 H   0  0  0  0  0  0  0  0  0  0  0  0
   10.9168   -5.2151   -2.1120 H   0  0  0  0  0  0  0  0  0  0  0  0
    7.3453   -3.1106   -0.7661 H   0  0  0  0  0  0  0  0  0  0  0  0
    4.9146   -3.3591   -0.5359 H   0  0  0  0  0  0  0  0  0  0  0  0
  1  2  1  0
  1 20  1  0
  1 21  1  0
  1 22  1  0
  2  3  1  0
  3  4  1  0
  3 23  1  0
  3 24  1  0
  4  5  2  0
  4 19  1  0
  5  6  1  0
  5 25  1  0
  6  7  2  0
  6 26  1  0
  7  8  1  0
  7 18  1  0
  8  9  2  0
  8 10  1  0
 10 11  1  0
 10 27  1  0
 11 12  2  0
 11 16  1  0
 12 13  1  0
 12 28  1  0
 13 14  2  0
 13 29  1  0
 14 15  1  0
 14 30  1  0
 15 16  2  0
 15 31  1  0
 16 17  1  0
 17 32  1  0
 18 19  2  0
 18 33  1  0
 19 34  1  0
M  END

