
     RDKit          3D

 45 47  0  0  0  0  0  0  0  0999 V2000
    1.1304   -2.3438    2.6530 O   0  0  0  0  0  0  0  0  0  0  0  0
    0.4528   -1.3853    2.3148 C   0  0  0  0  0  0  0  0  0  0  0  0
   -1.0721   -1.5525    2.2168 C   0  0  0  0  0  0  0  0  0  0  0  0
   -1.4225   -2.8671    2.4907 O   0  0  0  0  0  0  0  0  0  0  0  0
    0.9254   -0.1416    2.0150 N   0  0  0  0  0  0  0  0  0  0  0  0
    2.2527    0.3454    2.0236 C   0  0  0  0  0  0  0  0  0  0  0  0
    3.3572   -0.4576    2.3569 C   0  0  0  0  0  0  0  0  0  0  0  0
    4.6236    0.1290    2.3335 C   0  0  0  0  0  0  0  0  0  0  0  0
    4.8235    1.4675    1.9964 C   0  0  0  0  0  0  0  0  0  0  0  0
    3.7193    2.2775    1.6517 C   0  0  0  0  0  0  0  0  0  0  0  0
    3.8528    3.5989    1.2699 N   0  0  0  0  0  0  0  0  0  0  0  0
    5.0774    4.3647    1.3271 C   0  0  2  0  0  0  0  0  0  0  0  0
    5.8768    3.7408    0.8933 H   0  0  0  0  0  0  0  0  0  0  0  0
    5.5437    4.8511    2.7430 C   0  0  0  0  0  0  0  0  0  0  0  0
    6.0000    6.3188    2.5625 C   0  0  0  0  0  0  0  0  0  0  0  0
    6.1298    6.5268    1.0328 C   0  0  2  0  0  0  0  0  0  0  0  0
    7.0788    6.0646    0.7076 H   0  0  0  0  0  0  0  0  0  0  0  0
    6.1436    7.9683    0.5646 C   0  0  0  0  0  0  0  0  0  0  0  0
    7.2619    8.4899   -0.1040 C   0  0  0  0  0  0  0  0  0  0  0  0
    7.2925    9.8185   -0.5395 C   0  0  0  0  0  0  0  0  0  0  0  0
    6.1978   10.6558   -0.3126 C   0  0  0  0  0  0  0  0  0  0  0  0
    5.0754   10.1526    0.3535 C   0  0  0  0  0  0  0  0  0  0  0  0
    5.0508    8.8251    0.7867 C   0  0  0  0  0  0  0  0  0  0  0  0
    4.9874    5.6499    0.4884 C   0  0  0  0  0  0  0  0  0  0  0  0
    2.4370    1.6903    1.6765 C   0  0  0  0  0  0  0  0  0  0  0  0
   -1.4008   -1.2472    1.2016 H   0  0  0  0  0  0  0  0  0  0  0  0
   -1.5426   -0.8403    2.9289 H   0  0  0  0  0  0  0  0  0  0  0  0
   -0.5809   -3.3046    2.7244 H   0  0  0  0  0  0  0  0  0  0  0  0
    0.2241    0.5399    1.7451 H   0  0  0  0  0  0  0  0  0  0  0  0
    3.2138   -1.5003    2.6255 H   0  0  0  0  0  0  0  0  0  0  0  0
    5.4909   -0.4827    2.5967 H   0  0  0  0  0  0  0  0  0  0  0  0
    5.8321    1.8807    2.0081 H   0  0  0  0  0  0  0  0  0  0  0  0
    2.9968    4.1402    1.2446 H   0  0  0  0  0  0  0  0  0  0  0  0
    6.3534    4.2136    3.1295 H   0  0  0  0  0  0  0  0  0  0  0  0
    4.7123    4.7689    3.4599 H   0  0  0  0  0  0  0  0  0  0  0  0
    6.9367    6.5535    3.0906 H   0  0  0  0  0  0  0  0  0  0  0  0
    5.2370    7.0097    2.9559 H   0  0  0  0  0  0  0  0  0  0  0  0
    8.1245    7.8423   -0.2871 H   0  0  0  0  0  0  0  0  0  0  0  0
    8.1763   10.1992   -1.0583 H   0  0  0  0  0  0  0  0  0  0  0  0
    6.2178   11.6946   -0.6516 H   0  0  0  0  0  0  0  0  0  0  0  0
    4.2129   10.7989    0.5373 H   0  0  0  0  0  0  0  0  0  0  0  0
    4.1632    8.4539    1.3070 H   0  0  0  0  0  0  0  0  0  0  0  0
    5.0555    5.4598   -0.5933 H   0  0  0  0  0  0  0  0  0  0  0  0
    4.0177    6.1474    0.6760 H   0  0  0  0  0  0  0  0  0  0  0  0
    1.5691    2.3022    1.4078 H   0  0  0  0  0  0  0  0  0  0  0  0
  1  2  2  0
  2  3  1  0
  2  5  1  0
  3  4  1  0
  3 26  1  0
  3 27  1  0
  4 28  1  0
  5  6  1  0
  5 29  1  0
  6  7  2  0
  6 25  1  0
  7  8  1  0
  7 30  1  0
  8  9  2  0
  8 31  1  0
  9 10  1  0
  9 32  1  0
 10 11  1  0
 10 25  2  0
 11 12  1  0
 11 33  1  0
 12 13  1  6
 12 14  1  0
 12 24  1  0
 14 15  1  0
 14 34  1  0
 14 35  1  0
 15 16  1  0
 15 36  1  0
 15 37  1  0
 16 17  1  6
 16 18  1  0
 16 24  1  0
 18 19  2  0
 18 23  1  0
 19 20  1  0
 19 38  1  0
 20 21  2  0
 20 39  1  0
 21 22  1  0
 21 40  1  0
 22 23  2  0
 22 41  1  0
 23 42  1  0
 24 43  1  0
 24 44  1  0
 25 45  1  0
M  END

