
     RDKit          3D

 28 27  0  0  0  0  0  0  0  0999 V2000
    4.9448    3.2950    1.5223 C   0  0  0  0  0  0  0  0  0  0  0  0
    4.4812    3.3591    0.0769 C   0  0  0  0  0  0  0  0  0  0  0  0
    5.5040    2.9263   -0.8441 O   0  0  0  0  0  0  0  0  0  0  0  0
    5.6027    1.6035   -1.0931 C   0  0  0  0  0  0  0  0  0  0  0  0
    4.8869    0.7772   -0.5847 O   0  0  0  0  0  0  0  0  0  0  0  0
    6.7004    1.3410   -2.1083 C   0  0  1  0  0  0  0  0  0  0  0  0
    6.6176    2.1615   -2.8431 H   0  0  0  0  0  0  0  0  0  0  0  0
    8.1605    1.5102   -1.6014 C   0  0  0  0  0  0  0  0  0  0  0  0
    8.3975    2.0224   -0.2018 C   0  0  0  0  0  0  0  0  0  0  0  0
    9.0665    1.2758   -2.3663 O   0  0  0  0  0  0  0  0  0  0  0  0
    6.5558    0.0837   -3.0125 C   0  0  2  0  0  0  0  0  0  0  0  0
    7.4947    0.0887   -3.5839 H   0  0  0  0  0  0  0  0  0  0  0  0
    5.4712    0.1675   -3.9841 N   0  0  0  0  0  0  0  0  0  0  0  0
    5.6091    1.3700   -4.7273 O   0  0  0  0  0  0  0  0  0  0  0  0
    6.5078   -1.3445   -2.3821 C   0  0  1  0  0  0  0  0  0  0  0  0
    7.4998   -1.4290   -0.8822 Cl  0  0  0  0  0  0  0  0  0  0  0  0
    4.8480   -1.9166   -2.0042 Cl  0  0  0  0  0  0  0  0  0  0  0  0
    7.2117   -2.4991   -3.5801 Cl  0  0  0  0  0  0  0  0  0  0  0  0
    4.1565    3.6925    2.1815 H   0  0  0  0  0  0  0  0  0  0  0  0
    5.8533    3.8976    1.6782 H   0  0  0  0  0  0  0  0  0  0  0  0
    5.1478    2.2571    1.8247 H   0  0  0  0  0  0  0  0  0  0  0  0
    4.2579    4.3921   -0.2263 H   0  0  0  0  0  0  0  0  0  0  0  0
    3.5862    2.7382   -0.0748 H   0  0  0  0  0  0  0  0  0  0  0  0
    7.8689    1.3934    0.5315 H   0  0  0  0  0  0  0  0  0  0  0  0
    7.9936    3.0420   -0.1070 H   0  0  0  0  0  0  0  0  0  0  0  0
    9.4750    2.0235    0.0060 H   0  0  0  0  0  0  0  0  0  0  0  0
    4.5750    0.2483   -3.4995 H   0  0  0  0  0  0  0  0  0  0  0  0
    5.7949    1.0598   -5.6248 H   0  0  0  0  0  0  0  0  0  0  0  0
  1  2  1  0
  1 19  1  0
  1 20  1  0
  1 21  1  0
  2  3  1  0
  2 22  1  0
  2 23  1  0
  3  4  1  0
  4  5  2  0
  4  6  1  0
  6  7  1  6
  6  8  1  0
  6 11  1  0
  8  9  1  0
  8 10  2  0
  9 24  1  0
  9 25  1  0
  9 26  1  0
 11 12  1  6
 11 13  1  0
 11 15  1  0
 13 14  1  0
 13 27  1  0
 14 28  1  0
 15 16  1  1
 15 17  1  0
 15 18  1  0
M  END

