
     RDKit          3D

 40 43  0  0  0  0  0  0  0  0999 V2000
    0.9673   -0.0476    0.3833 N   0  0  0  0  0  0  0  0  0  0  0  0
    2.3731    0.0323    0.0102 C   0  0  2  0  0  0  0  0  0  0  0  0
    2.4993    0.4859   -1.3888 N   0  0  0  0  0  0  0  0  0  0  0  0
    2.9950   -1.3751    0.2507 C   0  0  0  0  0  0  0  0  0  0  0  0
    4.5342   -1.4300    0.1981 C   0  0  0  0  0  0  0  0  0  0  0  0
    5.0434   -0.4089    1.2115 C   0  0  2  0  0  0  0  0  0  0  0  0
    4.6049   -0.6687    2.1963 H   0  0  0  0  0  0  0  0  0  0  0  0
    4.5524    0.9815    0.8106 C   0  0  1  0  0  0  0  0  0  0  0  0
    4.8588    1.1549   -0.2445 H   0  0  0  0  0  0  0  0  0  0  0  0
    3.0480    1.0981    0.9212 C   0  0  0  0  0  0  0  0  0  0  0  0
    5.3146    1.8441    1.6352 O   0  0  0  0  0  0  0  0  0  0  0  0
    6.6266    1.3337    1.5718 C   0  0  0  0  0  0  0  0  0  0  0  0
    6.4637   -0.1228    1.3755 N   0  0  0  0  0  0  0  0  0  0  0  0
    7.4054   -1.0000    1.8303 C   0  0  0  0  0  0  0  0  0  0  0  0
    8.6106   -0.4890    2.1408 N   0  0  0  0  0  0  0  0  0  0  0  0
    9.5412   -1.3422    2.5719 C   0  0  0  0  0  0  0  0  0  0  0  0
    9.2990   -2.7053    2.6953 C   0  0  0  0  0  0  0  0  0  0  0  0
    8.0025   -3.1317    2.3500 C   0  0  0  0  0  0  0  0  0  0  0  0
    7.0615   -2.3019    1.9291 N   0  0  0  0  0  0  0  0  0  0  0  0
    7.7154   -4.4885    2.4482 N   0  0  0  0  0  0  0  0  0  0  0  0
    8.5416   -5.3907    3.0872 C   0  0  0  0  0  0  0  0  0  0  0  0
    8.2787   -6.5667    3.1974 O   0  0  0  0  0  0  0  0  0  0  0  0
    9.7846   -4.7602    3.7210 C   0  0  0  0  0  0  0  0  0  0  0  0
   10.2634   -3.6031    3.0549 O   0  0  0  0  0  0  0  0  0  0  0  0
    0.5072   -0.7889   -0.1489 H   0  0  0  0  0  0  0  0  0  0  0  0
    0.5083    0.8218    0.1048 H   0  0  0  0  0  0  0  0  0  0  0  0
    2.1399   -0.2346   -2.0180 H   0  0  0  0  0  0  0  0  0  0  0  0
    3.4714    0.6364   -1.6596 H   0  0  0  0  0  0  0  0  0  0  0  0
    2.5664   -2.0728   -0.4904 H   0  0  0  0  0  0  0  0  0  0  0  0
    2.6582   -1.7265    1.2400 H   0  0  0  0  0  0  0  0  0  0  0  0
    4.9081   -1.1838   -0.8112 H   0  0  0  0  0  0  0  0  0  0  0  0
    4.8912   -2.4391    0.4421 H   0  0  0  0  0  0  0  0  0  0  0  0
    2.7031    2.0986    0.6179 H   0  0  0  0  0  0  0  0  0  0  0  0
    2.7325    0.9231    1.9603 H   0  0  0  0  0  0  0  0  0  0  0  0
    7.1615    1.5593    2.5057 H   0  0  0  0  0  0  0  0  0  0  0  0
    7.1913    1.7736    0.7254 H   0  0  0  0  0  0  0  0  0  0  0  0
   10.5316   -0.9429    2.8189 H   0  0  0  0  0  0  0  0  0  0  0  0
    6.8179   -4.8206    2.1036 H   0  0  0  0  0  0  0  0  0  0  0  0
   10.5873   -5.5081    3.7098 H   0  0  0  0  0  0  0  0  0  0  0  0
    9.5383   -4.5334    4.7789 H   0  0  0  0  0  0  0  0  0  0  0  0
  2  1  1  1
  1 25  1  0
  1 26  1  0
  2  3  1  0
  2  4  1  0
  2 10  1  0
  3 27  1  0
  3 28  1  0
  4  5  1  0
  4 29  1  0
  4 30  1  0
  5  6  1  0
  5 31  1  0
  5 32  1  0
  6  7  1  1
  6  8  1  0
  6 13  1  0
  8  9  1  6
  8 10  1  0
  8 11  1  0
 10 33  1  0
 10 34  1  0
 11 12  1  0
 12 13  1  0
 12 35  1  0
 12 36  1  0
 13 14  1  0
 14 15  2  0
 14 19  1  0
 15 16  1  0
 16 17  2  0
 16 37  1  0
 17 18  1  0
 17 24  1  0
 18 19  2  0
 18 20  1  0
 20 21  1  0
 20 38  1  0
 21 22  2  0
 21 23  1  0
 23 24  1  0
 23 39  1  0
 23 40  1  0
M  END

