
     RDKit          3D

 56 59  0  0  0  0  0  0  0  0999 V2000
    2.7929    1.3524    0.4600 C   0  0  0  0  0  0  0  0  0  0  0  0
    2.5461   -0.0142    0.2178 O   0  0  0  0  0  0  0  0  0  0  0  0
    3.2440   -0.6585   -0.7552 C   0  0  0  0  0  0  0  0  0  0  0  0
    4.2234   -0.0521   -1.5483 C   0  0  0  0  0  0  0  0  0  0  0  0
    4.8837   -0.8047   -2.5245 C   0  0  0  0  0  0  0  0  0  0  0  0
    4.5693   -2.1483   -2.6950 C   0  0  0  0  0  0  0  0  0  0  0  0
    5.5013   -3.1232   -4.0595 Br  0  0  0  0  0  0  0  0  0  0  0  0
    3.5945   -2.7828   -1.8996 C   0  0  0  0  0  0  0  0  0  0  0  0
    2.9162   -2.0221   -0.9351 C   0  0  0  0  0  0  0  0  0  0  0  0
    1.8407   -2.6487   -0.0794 C   0  0  0  0  0  0  0  0  0  0  0  0
    1.3570   -3.9751   -0.6554 C   0  0  0  0  0  0  0  0  0  0  0  0
    2.4968   -4.8144   -0.9912 N   0  0  0  0  0  0  0  0  0  0  0  0
    2.1753   -6.2181   -1.2069 C   0  0  0  0  0  0  0  0  0  0  0  0
    1.9037   -6.9853    0.0931 C   0  0  0  0  0  0  0  0  0  0  0  0
    1.5318   -8.4598   -0.1058 C   0  0  0  0  0  0  0  0  0  0  0  0
    2.6623   -9.3252   -0.6474 C   0  0  0  0  0  0  0  0  0  0  0  0
    2.2008  -10.6649   -0.6893 O   0  0  0  0  0  0  0  0  0  0  0  0
    3.0172  -11.6528   -1.1334 C   0  0  0  0  0  0  0  0  0  0  0  0
    2.4705  -12.9478   -1.1576 C   0  0  0  0  0  0  0  0  0  0  0  0
    3.2479  -14.0160   -1.5965 C   0  0  0  0  0  0  0  0  0  0  0  0
    4.5718  -13.8434   -2.0182 C   0  0  0  0  0  0  0  0  0  0  0  0
    5.1023  -12.5409   -2.0015 C   0  0  0  0  0  0  0  0  0  0  0  0
    4.3359  -11.4482   -1.5631 C   0  0  0  0  0  0  0  0  0  0  0  0
    6.4259  -12.3422   -2.4238 N   0  0  0  0  0  0  0  0  0  0  0  0
    7.1831  -13.2332   -3.1612 C   0  0  0  0  0  0  0  0  0  0  0  0
    8.3157  -12.9657   -3.5096 O   0  0  0  0  0  0  0  0  0  0  0  0
    6.4607  -14.5228   -3.5223 C   0  0  0  0  0  0  0  0  0  0  0  0
    5.4798  -14.9765   -2.4355 C   0  0  0  0  0  0  0  0  0  0  0  0
    3.2617   -4.2479   -2.0889 C   0  0  0  0  0  0  0  0  0  0  0  0
    2.1192    1.6530    1.2737 H   0  0  0  0  0  0  0  0  0  0  0  0
    2.5793    1.9728   -0.4290 H   0  0  0  0  0  0  0  0  0  0  0  0
    3.8366    1.5317    0.7755 H   0  0  0  0  0  0  0  0  0  0  0  0
    4.4836    0.9986   -1.4225 H   0  0  0  0  0  0  0  0  0  0  0  0
    5.6464   -0.3386   -3.1501 H   0  0  0  0  0  0  0  0  0  0  0  0
    1.0005   -1.9450    0.0299 H   0  0  0  0  0  0  0  0  0  0  0  0
    2.2357   -2.8127    0.9390 H   0  0  0  0  0  0  0  0  0  0  0  0
    0.7113   -3.7915   -1.5475 H   0  0  0  0  0  0  0  0  0  0  0  0
    0.7275   -4.4879    0.0861 H   0  0  0  0  0  0  0  0  0  0  0  0
    3.0368   -6.6743   -1.7214 H   0  0  0  0  0  0  0  0  0  0  0  0
    1.3094   -6.3411   -1.9007 H   0  0  0  0  0  0  0  0  0  0  0  0
    1.0806   -6.4990    0.6412 H   0  0  0  0  0  0  0  0  0  0  0  0
    2.7925   -6.8957    0.7418 H   0  0  0  0  0  0  0  0  0  0  0  0
    0.6652   -8.5497   -0.7837 H   0  0  0  0  0  0  0  0  0  0  0  0
    1.2154   -8.8925    0.8574 H   0  0  0  0  0  0  0  0  0  0  0  0
    3.5520   -9.2471    0.0076 H   0  0  0  0  0  0  0  0  0  0  0  0
    2.9685   -9.0032   -1.6603 H   0  0  0  0  0  0  0  0  0  0  0  0
    1.4398  -13.0860   -0.8275 H   0  0  0  0  0  0  0  0  0  0  0  0
    2.8169  -15.0215   -1.6059 H   0  0  0  0  0  0  0  0  0  0  0  0
    4.7808  -10.4530   -1.5714 H   0  0  0  0  0  0  0  0  0  0  0  0
    6.8680  -11.4429   -2.2582 H   0  0  0  0  0  0  0  0  0  0  0  0
    7.2281  -15.2773   -3.7429 H   0  0  0  0  0  0  0  0  0  0  0  0
    5.9160  -14.3271   -4.4645 H   0  0  0  0  0  0  0  0  0  0  0  0
    6.0538  -15.3313   -1.5577 H   0  0  0  0  0  0  0  0  0  0  0  0
    4.8895  -15.8374   -2.7854 H   0  0  0  0  0  0  0  0  0  0  0  0
    2.7315   -4.3579   -3.0673 H   0  0  0  0  0  0  0  0  0  0  0  0
    4.2008   -4.8137   -2.1986 H   0  0  0  0  0  0  0  0  0  0  0  0
  1  2  1  0
  1 30  1  0
  1 31  1  0
  1 32  1  0
  2  3  1  0
  3  4  2  0
  3  9  1  0
  4  5  1  0
  4 33  1  0
  5  6  2  0
  5 34  1  0
  6  7  1  0
  6  8  1  0
  8  9  2  0
  8 29  1  0
  9 10  1  0
 10 11  1  0
 10 35  1  0
 10 36  1  0
 11 12  1  0
 11 37  1  0
 11 38  1  0
 12 13  1  0
 12 29  1  0
 13 14  1  0
 13 39  1  0
 13 40  1  0
 14 15  1  0
 14 41  1  0
 14 42  1  0
 15 16  1  0
 15 43  1  0
 15 44  1  0
 16 17  1  0
 16 45  1  0
 16 46  1  0
 17 18  1  0
 18 19  2  0
 18 23  1  0
 19 20  1  0
 19 47  1  0
 20 21  2  0
 20 48  1  0
 21 22  1  0
 21 28  1  0
 22 23  2  0
 22 24  1  0
 23 49  1  0
 24 25  1  0
 24 50  1  0
 25 26  2  0
 25 27  1  0
 27 28  1  0
 27 51  1  0
 27 52  1  0
 28 53  1  0
 28 54  1  0
 29 55  1  0
 29 56  1  0
M  END

