
     RDKit          3D

 62 65  0  0  0  0  0  0  0  0999 V2000
    3.9532   -0.7387    0.6359 O   0  0  0  0  0  0  0  0  0  0  0  0
    3.7816   -0.0786   -0.3834 C   0  0  0  0  0  0  0  0  0  0  0  0
    4.0435    1.2715   -0.3858 N   0  0  0  0  0  0  0  0  0  0  0  0
    4.4075    1.8950    0.8892 C   0  0  0  0  0  0  0  0  0  0  0  0
    3.1823    2.4064    1.6633 C   0  0  0  0  0  0  0  0  0  0  0  0
    3.4690    3.1856    2.9726 C   0  0  1  0  0  0  0  0  0  0  0  0
    4.2641    2.3316    3.9611 C   0  0  0  0  0  0  0  0  0  0  0  0
    5.6687    2.2978    3.9577 C   0  0  0  0  0  0  0  0  0  0  0  0
    6.3694    1.4663    4.8352 C   0  0  0  0  0  0  0  0  0  0  0  0
    5.6791    0.6514    5.7376 C   0  0  0  0  0  0  0  0  0  0  0  0
    4.2824    0.6770    5.7550 C   0  0  0  0  0  0  0  0  0  0  0  0
    3.5858    1.5100    4.8747 C   0  0  0  0  0  0  0  0  0  0  0  0
    4.0339    4.6004    2.7936 C   0  0  0  0  0  0  0  0  0  0  0  0
    4.1235    5.2423    1.5488 C   0  0  0  0  0  0  0  0  0  0  0  0
    4.5838    6.5606    1.4415 C   0  0  0  0  0  0  0  0  0  0  0  0
    4.9605    7.2714    2.5812 C   0  0  0  0  0  0  0  0  0  0  0  0
    4.8687    6.6509    3.8318 C   0  0  0  0  0  0  0  0  0  0  0  0
    4.4131    5.3359    3.9328 C   0  0  0  0  0  0  0  0  0  0  0  0
    4.0022    2.1275   -1.5669 C   0  0  0  0  0  0  0  0  0  0  0  0
    4.1871    1.3162   -2.8373 C   0  0  0  0  0  0  0  0  0  0  0  0
    3.1577    0.1943   -2.8714 C   0  0  0  0  0  0  0  0  0  0  0  0
    3.2917   -0.7877   -1.6756 C   0  0  1  0  0  0  0  0  0  0  0  0
    4.3540   -1.8891   -1.9793 C   0  0  0  0  0  0  0  0  0  0  0  0
    3.9598   -2.8516   -3.1074 C   0  0  0  0  0  0  0  0  0  0  0  0
    2.5680   -3.4552   -2.8908 C   0  0  0  0  0  0  0  0  0  0  0  0
    1.5245   -2.3605   -2.6348 C   0  0  0  0  0  0  0  0  0  0  0  0
    1.8839   -1.4588   -1.4319 C   0  0  1  0  0  0  0  0  0  0  0  0
    1.1387   -0.6440   -1.4011 H   0  0  0  0  0  0  0  0  0  0  0  0
    1.6932   -2.2261   -0.0993 C   0  0  0  0  0  0  0  0  0  0  0  0
    0.3911   -2.7868   -0.0037 O   0  0  0  0  0  0  0  0  0  0  0  0
    4.9318    1.1423    1.4905 H   0  0  0  0  0  0  0  0  0  0  0  0
    5.1119    2.7138    0.6753 H   0  0  0  0  0  0  0  0  0  0  0  0
    2.5705    1.5287    1.9243 H   0  0  0  0  0  0  0  0  0  0  0  0
    2.5568    3.0316    1.0041 H   0  0  0  0  0  0  0  0  0  0  0  0
    2.4757    3.3311    3.4339 H   0  0  0  0  0  0  0  0  0  0  0  0
    6.2229    2.9384    3.2675 H   0  0  0  0  0  0  0  0  0  0  0  0
    7.4625    1.4562    4.8142 H   0  0  0  0  0  0  0  0  0  0  0  0
    6.2275    0.0020    6.4247 H   0  0  0  0  0  0  0  0  0  0  0  0
    3.7301    0.0477    6.4579 H   0  0  0  0  0  0  0  0  0  0  0  0
    2.4918    1.5225    4.8972 H   0  0  0  0  0  0  0  0  0  0  0  0
    3.8243    4.7218    0.6382 H   0  0  0  0  0  0  0  0  0  0  0  0
    4.6443    7.0312    0.4564 H   0  0  0  0  0  0  0  0  0  0  0  0
    5.3200    8.3003    2.4986 H   0  0  0  0  0  0  0  0  0  0  0  0
    5.1535    7.1953    4.7361 H   0  0  0  0  0  0  0  0  0  0  0  0
    4.3499    4.8661    4.9174 H   0  0  0  0  0  0  0  0  0  0  0  0
    4.8023    2.8803   -1.4681 H   0  0  0  0  0  0  0  0  0  0  0  0
    3.0475    2.6890   -1.6170 H   0  0  0  0  0  0  0  0  0  0  0  0
    5.2127    0.9096   -2.8709 H   0  0  0  0  0  0  0  0  0  0  0  0
    4.0750    1.9750   -3.7137 H   0  0  0  0  0  0  0  0  0  0  0  0
    3.2256   -0.3514   -3.8229 H   0  0  0  0  0  0  0  0  0  0  0  0
    2.1520    0.6503   -2.8559 H   0  0  0  0  0  0  0  0  0  0  0  0
    4.5222   -2.4538   -1.0500 H   0  0  0  0  0  0  0  0  0  0  0  0
    5.3186   -1.4089   -2.2189 H   0  0  0  0  0  0  0  0  0  0  0  0
    4.7183   -3.6491   -3.1823 H   0  0  0  0  0  0  0  0  0  0  0  0
    3.9795   -2.3298   -4.0808 H   0  0  0  0  0  0  0  0  0  0  0  0
    2.6026   -4.1511   -2.0330 H   0  0  0  0  0  0  0  0  0  0  0  0
    2.2746   -4.0632   -3.7633 H   0  0  0  0  0  0  0  0  0  0  0  0
    0.5301   -2.7991   -2.4563 H   0  0  0  0  0  0  0  0  0  0  0  0
    1.4112   -1.7469   -3.5438 H   0  0  0  0  0  0  0  0  0  0  0  0
    2.4726   -2.9947    0.0435 H   0  0  0  0  0  0  0  0  0  0  0  0
    1.7936   -1.5376    0.7463 H   0  0  0  0  0  0  0  0  0  0  0  0
    0.3765   -3.6187   -0.4910 H   0  0  0  0  0  0  0  0  0  0  0  0
  1  2  2  0
  2  3  1  0
 22  2  1  1
  3  4  1  0
  3 19  1  0
  4  5  1  0
  4 31  1  0
  4 32  1  0
  5  6  1  0
  5 33  1  0
  5 34  1  0
  6  7  1  0
  6 13  1  0
  6 35  1  1
  7  8  2  0
  7 12  1  0
  8  9  1  0
  8 36  1  0
  9 10  2  0
  9 37  1  0
 10 11  1  0
 10 38  1  0
 11 12  2  0
 11 39  1  0
 12 40  1  0
 13 14  2  0
 13 18  1  0
 14 15  1  0
 14 41  1  0
 15 16  2  0
 15 42  1  0
 16 17  1  0
 16 43  1  0
 17 18  2  0
 17 44  1  0
 18 45  1  0
 19 20  1  0
 19 46  1  0
 19 47  1  0
 20 21  1  0
 20 48  1  0
 20 49  1  0
 21 22  1  0
 21 50  1  0
 21 51  1  0
 22 23  1  0
 22 27  1  0
 23 24  1  0
 23 52  1  0
 23 53  1  0
 24 25  1  0
 24 54  1  0
 24 55  1  0
 25 26  1  0
 25 56  1  0
 25 57  1  0
 26 27  1  0
 26 58  1  0
 26 59  1  0
 27 28  1  1
 27 29  1  0
 29 30  1  0
 29 60  1  0
 29 61  1  0
 30 62  1  0
M  END

