
     RDKit          3D

 53 53  0  0  0  0  0  0  0  0999 V2000
    5.0775    5.7818    0.8563 C   0  0  0  0  0  0  0  0  0  0  0  0
    4.4324    4.5137    0.7131 O   0  0  0  0  0  0  0  0  0  0  0  0
    5.1609    3.4327    1.0211 C   0  0  0  0  0  0  0  0  0  0  0  0
    6.2519    3.4846    1.5423 O   0  0  0  0  0  0  0  0  0  0  0  0
    4.4931    2.1396    0.5788 C   0  0  1  0  0  0  0  0  0  0  0  0
    2.9698    2.1356    0.7340 C   0  0  0  0  0  0  0  0  0  0  0  0
    4.8925    1.8497   -0.8949 C   0  0  0  0  0  0  0  0  0  0  0  0
    6.3328    1.7734   -1.1094 N   0  0  0  0  0  0  0  0  0  0  0  0
    6.9870    0.4932   -0.8430 C   0  0  0  0  0  0  0  0  0  0  0  0
    6.7006   -0.5964   -1.8870 C   0  0  0  0  0  0  0  0  0  0  0  0
    7.2228   -0.2871   -3.2903 C   0  0  0  0  0  0  0  0  0  0  0  0
    6.8910   -1.2914   -4.2260 O   0  0  0  0  0  0  0  0  0  0  0  0
    6.9774    2.9275   -1.5040 C   0  0  0  0  0  0  0  0  0  0  0  0
    6.3561    3.9336   -1.8236 O   0  0  0  0  0  0  0  0  0  0  0  0
    8.4854    2.9492   -1.5020 C   0  0  0  0  0  0  0  0  0  0  0  0
    9.1849    3.1749   -2.6915 C   0  0  0  0  0  0  0  0  0  0  0  0
   10.5779    3.2979   -2.6872 C   0  0  0  0  0  0  0  0  0  0  0  0
   11.3173    3.2291   -1.4953 C   0  0  0  0  0  0  0  0  0  0  0  0
   12.8514    3.3711   -1.4507 C   0  0  1  0  0  0  0  0  0  0  0  0
   13.4588    3.5754   -2.8504 C   0  0  0  0  0  0  0  0  0  0  0  0
   13.2284    4.5907   -0.5778 C   0  0  0  0  0  0  0  0  0  0  0  0
   13.4678    2.0915   -0.8391 C   0  0  0  0  0  0  0  0  0  0  0  0
   10.5936    3.0319   -0.3032 C   0  0  0  0  0  0  0  0  0  0  0  0
    9.2063    2.8911   -0.2986 C   0  0  0  0  0  0  0  0  0  0  0  0
    4.3098    6.5392    0.6549 H   0  0  0  0  0  0  0  0  0  0  0  0
    5.8931    5.8615    0.1221 H   0  0  0  0  0  0  0  0  0  0  0  0
    5.4840    5.9042    1.8707 H   0  0  0  0  0  0  0  0  0  0  0  0
    4.9348    1.3575    1.2168 H   0  0  0  0  0  0  0  0  0  0  0  0
    2.5079    2.9122    0.1072 H   0  0  0  0  0  0  0  0  0  0  0  0
    2.6725    2.3243    1.7768 H   0  0  0  0  0  0  0  0  0  0  0  0
    2.5556    1.1587    0.4369 H   0  0  0  0  0  0  0  0  0  0  0  0
    4.4952    2.6447   -1.5398 H   0  0  0  0  0  0  0  0  0  0  0  0
    4.4290    0.8983   -1.1980 H   0  0  0  0  0  0  0  0  0  0  0  0
    6.6744    0.1341    0.1528 H   0  0  0  0  0  0  0  0  0  0  0  0
    8.0691    0.6613   -0.7819 H   0  0  0  0  0  0  0  0  0  0  0  0
    5.6198   -0.8062   -1.9583 H   0  0  0  0  0  0  0  0  0  0  0  0
    7.1681   -1.5312   -1.5247 H   0  0  0  0  0  0  0  0  0  0  0  0
    8.3166   -0.1030   -3.2521 H   0  0  0  0  0  0  0  0  0  0  0  0
    6.7624    0.6414   -3.6637 H   0  0  0  0  0  0  0  0  0  0  0  0
    7.3323   -2.1086   -3.9597 H   0  0  0  0  0  0  0  0  0  0  0  0
    8.6359    3.2603   -3.6326 H   0  0  0  0  0  0  0  0  0  0  0  0
   11.0825    3.4604   -3.6397 H   0  0  0  0  0  0  0  0  0  0  0  0
   13.0842    4.4923   -3.3316 H   0  0  0  0  0  0  0  0  0  0  0  0
   13.2466    2.7265   -3.5192 H   0  0  0  0  0  0  0  0  0  0  0  0
   14.5535    3.6680   -2.7715 H   0  0  0  0  0  0  0  0  0  0  0  0
   12.8041    5.5189   -0.9924 H   0  0  0  0  0  0  0  0  0  0  0  0
   14.3239    4.7072   -0.5320 H   0  0  0  0  0  0  0  0  0  0  0  0
   12.8611    4.4873    0.4545 H   0  0  0  0  0  0  0  0  0  0  0  0
   13.2199    1.2051   -1.4448 H   0  0  0  0  0  0  0  0  0  0  0  0
   13.1063    1.9095    0.1844 H   0  0  0  0  0  0  0  0  0  0  0  0
   14.5661    2.1765   -0.7944 H   0  0  0  0  0  0  0  0  0  0  0  0
   11.1203    2.9927    0.6533 H   0  0  0  0  0  0  0  0  0  0  0  0
    8.6675    2.7644    0.6441 H   0  0  0  0  0  0  0  0  0  0  0  0
  1  2  1  0
  1 25  1  0
  1 26  1  0
  1 27  1  0
  2  3  1  0
  3  4  2  0
  3  5  1  0
  5  6  1  0
  5  7  1  0
  5 28  1  1
  6 29  1  0
  6 30  1  0
  6 31  1  0
  7  8  1  0
  7 32  1  0
  7 33  1  0
  8  9  1  0
  8 13  1  0
  9 10  1  0
  9 34  1  0
  9 35  1  0
 10 11  1  0
 10 36  1  0
 10 37  1  0
 11 12  1  0
 11 38  1  0
 11 39  1  0
 12 40  1  0
 13 14  2  0
 13 15  1  0
 15 16  2  0
 15 24  1  0
 16 17  1  0
 16 41  1  0
 17 18  2  0
 17 42  1  0
 18 19  1  0
 18 23  1  0
 19 20  1  6
 19 21  1  0
 19 22  1  0
 20 43  1  0
 20 44  1  0
 20 45  1  0
 21 46  1  0
 21 47  1  0
 21 48  1  0
 22 49  1  0
 22 50  1  0
 22 51  1  0
 23 24  2  0
 23 52  1  0
 24 53  1  0
M  END

