
     RDKit          3D

 47 47  0  0  0  0  0  0  0  0999 V2000
    2.6677    1.0743    0.9427 C   0  0  0  0  0  0  0  0  0  0  0  0
    2.5120   -0.2460    0.2063 C   0  0  0  0  0  0  0  0  0  0  0  0
    3.2015   -1.3155    0.8783 O   0  0  0  0  0  0  0  0  0  0  0  0
    4.5082   -1.4917    0.5958 C   0  0  0  0  0  0  0  0  0  0  0  0
    5.1233   -0.8073   -0.1861 O   0  0  0  0  0  0  0  0  0  0  0  0
    5.0785   -2.6562    1.3797 C   0  0  0  0  0  0  0  0  0  0  0  0
    6.5707   -2.8789    1.1465 C   0  0  0  0  0  0  0  0  0  0  0  0
    7.1297   -4.0720    1.9259 C   0  0  0  0  0  0  0  0  0  0  0  0
    8.6281   -4.2952    1.7067 C   0  0  0  0  0  0  0  0  0  0  0  0
    9.1755   -5.4962    2.4850 C   0  0  0  0  0  0  0  0  0  0  0  0
   10.5934   -5.7165    2.2804 N   0  0  0  0  0  0  0  0  0  0  0  0
   11.5004   -5.6858    3.3197 C   0  0  0  0  0  0  0  0  0  0  0  0
   11.1826   -5.4562    4.4785 O   0  0  0  0  0  0  0  0  0  0  0  0
   12.8046   -5.9547    2.9489 N   0  0  0  0  0  0  0  0  0  0  0  0
   13.8812   -5.8356    3.9139 C   0  0  0  0  0  0  0  0  0  0  0  0
   14.3210   -4.3842    4.1936 C   0  0  0  0  0  0  0  0  0  0  0  0
   15.5078   -4.3233    5.1247 C   0  0  0  0  0  0  0  0  0  0  0  0
   15.3979   -3.8272    6.4341 C   0  0  0  0  0  0  0  0  0  0  0  0
   16.5277   -3.8144    7.2537 C   0  0  0  0  0  0  0  0  0  0  0  0
   17.7331   -4.3012    6.7453 C   0  0  0  0  0  0  0  0  0  0  0  0
   17.7443   -4.7822    5.4319 C   0  0  0  0  0  0  0  0  0  0  0  0
   16.6692   -4.7952    4.6432 N   0  0  0  0  0  0  0  0  0  0  0  0
    2.0644    1.8534    0.4493 H   0  0  0  0  0  0  0  0  0  0  0  0
    3.7178    1.4021    0.9378 H   0  0  0  0  0  0  0  0  0  0  0  0
    2.3279    0.9858    1.9865 H   0  0  0  0  0  0  0  0  0  0  0  0
    2.8909   -0.1674   -0.8236 H   0  0  0  0  0  0  0  0  0  0  0  0
    1.4597   -0.5649    0.1785 H   0  0  0  0  0  0  0  0  0  0  0  0
    4.4908   -3.5522    1.1114 H   0  0  0  0  0  0  0  0  0  0  0  0
    4.8570   -2.4797    2.4469 H   0  0  0  0  0  0  0  0  0  0  0  0
    7.1199   -1.9619    1.4196 H   0  0  0  0  0  0  0  0  0  0  0  0
    6.7499   -3.0163    0.0667 H   0  0  0  0  0  0  0  0  0  0  0  0
    6.5764   -4.9872    1.6424 H   0  0  0  0  0  0  0  0  0  0  0  0
    6.9383   -3.9306    3.0058 H   0  0  0  0  0  0  0  0  0  0  0  0
    9.1908   -3.3936    2.0056 H   0  0  0  0  0  0  0  0  0  0  0  0
    8.8236   -4.4345    0.6267 H   0  0  0  0  0  0  0  0  0  0  0  0
    8.6049   -6.4057    2.2151 H   0  0  0  0  0  0  0  0  0  0  0  0
    9.0439   -5.3452    3.5664 H   0  0  0  0  0  0  0  0  0  0  0  0
   10.8992   -6.0437    1.3721 H   0  0  0  0  0  0  0  0  0  0  0  0
   13.0520   -5.8761    1.9691 H   0  0  0  0  0  0  0  0  0  0  0  0
   14.7471   -6.4090    3.5491 H   0  0  0  0  0  0  0  0  0  0  0  0
   13.5417   -6.2984    4.8518 H   0  0  0  0  0  0  0  0  0  0  0  0
   13.4684   -3.8307    4.6132 H   0  0  0  0  0  0  0  0  0  0  0  0
   14.6039   -3.9105    3.2378 H   0  0  0  0  0  0  0  0  0  0  0  0
   14.4370   -3.4563    6.7982 H   0  0  0  0  0  0  0  0  0  0  0  0
   16.4668   -3.4296    8.2754 H   0  0  0  0  0  0  0  0  0  0  0  0
   18.6445   -4.3108    7.3474 H   0  0  0  0  0  0  0  0  0  0  0  0
   18.6725   -5.1745    4.9980 H   0  0  0  0  0  0  0  0  0  0  0  0
  1  2  1  0
  1 23  1  0
  1 24  1  0
  1 25  1  0
  2  3  1  0
  2 26  1  0
  2 27  1  0
  3  4  1  0
  4  5  2  0
  4  6  1  0
  6  7  1  0
  6 28  1  0
  6 29  1  0
  7  8  1  0
  7 30  1  0
  7 31  1  0
  8  9  1  0
  8 32  1  0
  8 33  1  0
  9 10  1  0
  9 34  1  0
  9 35  1  0
 10 11  1  0
 10 36  1  0
 10 37  1  0
 11 12  1  0
 11 38  1  0
 12 13  2  0
 12 14  1  0
 14 15  1  0
 14 39  1  0
 15 16  1  0
 15 40  1  0
 15 41  1  0
 16 17  1  0
 16 42  1  0
 16 43  1  0
 17 18  2  0
 17 22  1  0
 18 19  1  0
 18 44  1  0
 19 20  2  0
 19 45  1  0
 20 21  1  0
 20 46  1  0
 21 22  2  0
 21 47  1  0
M  END

