
     RDKit          3D

 50 52  0  0  0  0  0  0  0  0999 V2000
    0.8676    0.0332    0.1654 C   0  0  0  0  0  0  0  0  0  0  0  0
    2.3445    0.1559   -0.1236 C   0  0  0  0  0  0  0  0  0  0  0  0
    2.9809    1.4000   -0.1656 C   0  0  0  0  0  0  0  0  0  0  0  0
    4.3518    1.4871   -0.4369 C   0  0  0  0  0  0  0  0  0  0  0  0
    5.1210    0.3496   -0.6827 C   0  0  0  0  0  0  0  0  0  0  0  0
    6.6040    0.4323   -0.9847 C   0  0  0  0  0  0  0  0  0  0  0  0
    7.4593   -0.0434    0.0933 N   0  0  0  0  0  0  0  0  0  0  0  0
    7.8425    0.8129    1.1028 C   0  0  0  0  0  0  0  0  0  0  0  0
    7.6588    2.0219    1.0624 O   0  0  0  0  0  0  0  0  0  0  0  0
    8.4601    0.1770    2.1723 N   0  0  0  0  0  0  0  0  0  0  0  0
    9.1653    0.9834    3.1645 C   0  0  1  0  0  0  0  0  0  0  0  0
    8.2252    1.7792    4.0899 C   0  0  0  0  0  0  0  0  0  0  0  0
    7.8264    0.9676    5.3186 C   0  0  0  0  0  0  0  0  0  0  0  0
    9.0753    0.6160    6.1207 C   0  0  0  0  0  0  0  0  0  0  0  0
   10.0778    0.0002    5.2560 N   0  0  0  0  0  0  0  0  0  0  0  0
   10.1011    0.0029    3.8962 C   0  0  0  0  0  0  0  0  0  0  0  0
   10.8296   -0.7424    3.2552 O   0  0  0  0  0  0  0  0  0  0  0  0
    4.4801   -0.9082   -0.6256 C   0  0  0  0  0  0  0  0  0  0  0  0
    5.2957   -1.9895   -0.8411 O   0  0  0  0  0  0  0  0  0  0  0  0
    4.7564   -3.2832   -1.0425 C   0  0  1  0  0  0  0  0  0  0  0  0
    5.7865   -4.1824   -1.7277 C   0  0  0  0  0  0  0  0  0  0  0  0
    5.2956   -5.5740   -1.3368 C   0  0  0  0  0  0  0  0  0  0  0  0
    4.7107   -5.4336   -0.0433 O   0  0  0  0  0  0  0  0  0  0  0  0
    4.4773   -4.0688    0.2565 C   0  0  0  0  0  0  0  0  0  0  0  0
    3.1125   -1.0013   -0.3523 C   0  0  0  0  0  0  0  0  0  0  0  0
    0.4144    1.0143    0.3694 H   0  0  0  0  0  0  0  0  0  0  0  0
    0.6805   -0.6127    1.0396 H   0  0  0  0  0  0  0  0  0  0  0  0
    0.3280   -0.4151   -0.6861 H   0  0  0  0  0  0  0  0  0  0  0  0
    2.4055    2.3107    0.0194 H   0  0  0  0  0  0  0  0  0  0  0  0
    4.8431    2.4634   -0.4546 H   0  0  0  0  0  0  0  0  0  0  0  0
    6.8811    1.4762   -1.1774 H   0  0  0  0  0  0  0  0  0  0  0  0
    6.8333   -0.1576   -1.8859 H   0  0  0  0  0  0  0  0  0  0  0  0
    7.3898   -1.0317    0.3097 H   0  0  0  0  0  0  0  0  0  0  0  0
    8.9813   -0.6658    1.9365 H   0  0  0  0  0  0  0  0  0  0  0  0
    9.8343    1.7003    2.6510 H   0  0  0  0  0  0  0  0  0  0  0  0
    7.3586    2.1123    3.5049 H   0  0  0  0  0  0  0  0  0  0  0  0
    8.7485    2.6953    4.4152 H   0  0  0  0  0  0  0  0  0  0  0  0
    7.3131    0.0423    5.0037 H   0  0  0  0  0  0  0  0  0  0  0  0
    7.1262    1.5290    5.9573 H   0  0  0  0  0  0  0  0  0  0  0  0
    8.8378   -0.0896    6.9342 H   0  0  0  0  0  0  0  0  0  0  0  0
    9.4826    1.5282    6.5981 H   0  0  0  0  0  0  0  0  0  0  0  0
   10.7501   -0.6383    5.6717 H   0  0  0  0  0  0  0  0  0  0  0  0
    3.8434   -3.2113   -1.6598 H   0  0  0  0  0  0  0  0  0  0  0  0
    6.7764   -3.9727   -1.2909 H   0  0  0  0  0  0  0  0  0  0  0  0
    5.8470   -4.0222   -2.8139 H   0  0  0  0  0  0  0  0  0  0  0  0
    6.1051   -6.3202   -1.2873 H   0  0  0  0  0  0  0  0  0  0  0  0
    4.5387   -5.9486   -2.0542 H   0  0  0  0  0  0  0  0  0  0  0  0
    5.1681   -3.7115    1.0452 H   0  0  0  0  0  0  0  0  0  0  0  0
    3.4465   -3.9483    0.6298 H   0  0  0  0  0  0  0  0  0  0  0  0
    2.6236   -1.9753   -0.2988 H   0  0  0  0  0  0  0  0  0  0  0  0
  1  2  1  0
  1 26  1  0
  1 27  1  0
  1 28  1  0
  2  3  2  0
  2 25  1  0
  3  4  1  0
  3 29  1  0
  4  5  2  0
  4 30  1  0
  5  6  1  0
  5 18  1  0
  6  7  1  0
  6 31  1  0
  6 32  1  0
  7  8  1  0
  7 33  1  0
  8  9  2  0
  8 10  1  0
 10 11  1  0
 10 34  1  0
 11 12  1  0
 11 16  1  0
 11 35  1  6
 12 13  1  0
 12 36  1  0
 12 37  1  0
 13 14  1  0
 13 38  1  0
 13 39  1  0
 14 15  1  0
 14 40  1  0
 14 41  1  0
 15 16  1  0
 15 42  1  0
 16 17  2  0
 18 19  1  0
 18 25  2  0
 19 20  1  0
 20 21  1  0
 20 24  1  0
 20 43  1  6
 21 22  1  0
 21 44  1  0
 21 45  1  0
 22 23  1  0
 22 46  1  0
 22 47  1  0
 23 24  1  0
 24 48  1  0
 24 49  1  0
 25 50  1  0
M  END

