
     RDKit          3D

 28 29  0  0  0  0  0  0  0  0999 V2000
    0.8768   -0.0885    0.2335 C   0  0  0  0  0  0  0  0  0  0  0  0
    2.3228    0.0354    0.1009 N   0  0  0  0  0  0  0  0  0  0  0  0
    2.8799   -0.5575   -1.1050 C   0  0  1  0  0  0  0  0  0  0  0  0
    2.3731    0.1543   -2.3590 C   0  0  0  0  0  0  0  0  0  0  0  0
    2.2462    1.5517   -2.3974 C   0  0  0  0  0  0  0  0  0  0  0  0
    1.8207    2.1959   -3.5593 C   0  0  0  0  0  0  0  0  0  0  0  0
    1.5182    1.4479   -4.6949 C   0  0  0  0  0  0  0  0  0  0  0  0
    1.1075    2.0676   -5.8026 F   0  0  0  0  0  0  0  0  0  0  0  0
    1.6336    0.0538   -4.6746 C   0  0  0  0  0  0  0  0  0  0  0  0
    1.2387   -0.8627   -6.0989 Cl  0  0  0  0  0  0  0  0  0  0  0  0
    2.0592   -0.5846   -3.5063 C   0  0  0  0  0  0  0  0  0  0  0  0
    4.4319   -0.5263   -1.0652 C   0  0  1  0  0  0  0  0  0  0  0  0
    5.0361   -1.2522   -2.1656 C   0  0  0  0  0  0  0  0  0  0  0  0
    5.5141   -1.8495   -3.0378 N   0  0  0  0  0  0  0  0  0  0  0  0
    5.1768    0.7020   -0.5692 C   0  0  0  0  0  0  0  0  0  0  0  0
    5.2292   -0.5602    0.2361 C   0  0  0  0  0  0  0  0  0  0  0  0
    0.5688    0.3029    1.2149 H   0  0  0  0  0  0  0  0  0  0  0  0
    0.5048   -1.1319    0.1456 H   0  0  0  0  0  0  0  0  0  0  0  0
    0.3657    0.5084   -0.5363 H   0  0  0  0  0  0  0  0  0  0  0  0
    2.7591   -0.3921    0.9140 H   0  0  0  0  0  0  0  0  0  0  0  0
    2.5964   -1.6288   -1.2045 H   0  0  0  0  0  0  0  0  0  0  0  0
    2.4655    2.1339   -1.5011 H   0  0  0  0  0  0  0  0  0  0  0  0
    1.7119    3.2815   -3.6063 H   0  0  0  0  0  0  0  0  0  0  0  0
    2.1472   -1.6726   -3.5094 H   0  0  0  0  0  0  0  0  0  0  0  0
    4.5457    1.5073   -0.1884 H   0  0  0  0  0  0  0  0  0  0  0  0
    6.0660    1.0185   -1.1194 H   0  0  0  0  0  0  0  0  0  0  0  0
    4.6846   -0.5947    1.1828 H   0  0  0  0  0  0  0  0  0  0  0  0
    6.1481   -1.1515    0.2331 H   0  0  0  0  0  0  0  0  0  0  0  0
  1  2  1  0
  1 17  1  0
  1 18  1  0
  1 19  1  0
  2  3  1  0
  2 20  1  0
  3  4  1  0
  3 12  1  0
  3 21  1  6
  4  5  2  0
  4 11  1  0
  5  6  1  0
  5 22  1  0
  6  7  2  0
  6 23  1  0
  7  8  1  0
  7  9  1  0
  9 10  1  0
  9 11  2  0
 11 24  1  0
 12 13  1  6
 12 15  1  0
 12 16  1  0
 13 14  3  0
 15 16  1  0
 15 25  1  0
 15 26  1  0
 16 27  1  0
 16 28  1  0
M  END

