
     RDKit          3D

 57 58  0  0  0  0  0  0  0  0999 V2000
    2.0441    1.2284   -1.4304 C   0  0  0  0  0  0  0  0  0  0  0  0
    2.6828    0.3070    0.0216 S   0  0  0  0  0  0  0  0  0  0  0  0
    2.9520    1.6724    1.2047 C   0  0  0  0  0  0  0  0  0  0  0  0
    2.0585    2.2302    1.9388 N   0  0  0  0  0  0  0  0  0  0  0  0
    0.6741    1.9807    1.8270 C   0  0  0  0  0  0  0  0  0  0  0  0
    0.0419    2.0330    0.7831 O   0  0  0  0  0  0  0  0  0  0  0  0
    0.1050    1.7510    3.0450 N   0  0  0  0  0  0  0  0  0  0  0  0
   -1.3157    1.5273    3.2310 C   0  0  0  0  0  0  0  0  0  0  0  0
   -2.0389    2.6561    3.9971 C   0  0  1  0  0  0  0  0  0  0  0  0
   -1.9073    4.0374    3.3240 C   0  0  0  0  0  0  0  0  0  0  0  0
   -2.7363    4.1615    2.0371 C   0  0  0  0  0  0  0  0  0  0  0  0
   -4.2105    3.8134    2.2845 C   0  0  0  0  0  0  0  0  0  0  0  0
   -4.3649    2.4294    2.9298 C   0  0  0  0  0  0  0  0  0  0  0  0
   -3.5269    2.3067    4.2124 C   0  0  0  0  0  0  0  0  0  0  0  0
    4.2784    1.9984    1.3037 N   0  0  0  0  0  0  0  0  0  0  0  0
    4.9648    2.9586    2.1111 C   0  0  0  0  0  0  0  0  0  0  0  0
    6.1725    3.0536    1.9897 O   0  0  0  0  0  0  0  0  0  0  0  0
    4.1886    3.6779    2.9514 N   0  0  0  0  0  0  0  0  0  0  0  0
    4.7530    4.7166    3.7967 C   0  0  0  0  0  0  0  0  0  0  0  0
    4.8957    6.0882    3.1012 C   0  0  1  0  0  0  0  0  0  0  0  0
    3.5562    6.6533    2.5861 C   0  0  0  0  0  0  0  0  0  0  0  0
    2.6479    7.1785    3.7081 C   0  0  0  0  0  0  0  0  0  0  0  0
    3.3735    8.2085    4.5841 C   0  0  0  0  0  0  0  0  0  0  0  0
    4.6877    7.6450    5.1408 C   0  0  0  0  0  0  0  0  0  0  0  0
    5.5938    7.1137    4.0188 C   0  0  0  0  0  0  0  0  0  0  0  0
    1.8497    0.4597   -2.1920 H   0  0  0  0  0  0  0  0  0  0  0  0
    2.7983    1.9314   -1.8107 H   0  0  0  0  0  0  0  0  0  0  0  0
    1.1149    1.7392   -1.1515 H   0  0  0  0  0  0  0  0  0  0  0  0
    0.7188    1.7560    3.8509 H   0  0  0  0  0  0  0  0  0  0  0  0
   -1.4656    0.5777    3.7753 H   0  0  0  0  0  0  0  0  0  0  0  0
   -1.7373    1.3921    2.2262 H   0  0  0  0  0  0  0  0  0  0  0  0
   -1.5609    2.7185    4.9932 H   0  0  0  0  0  0  0  0  0  0  0  0
   -0.8464    4.2570    3.1199 H   0  0  0  0  0  0  0  0  0  0  0  0
   -2.2462    4.8030    4.0456 H   0  0  0  0  0  0  0  0  0  0  0  0
   -2.3150    3.4984    1.2619 H   0  0  0  0  0  0  0  0  0  0  0  0
   -2.6497    5.1867    1.6392 H   0  0  0  0  0  0  0  0  0  0  0  0
   -4.7808    3.8607    1.3415 H   0  0  0  0  0  0  0  0  0  0  0  0
   -4.6552    4.5739    2.9539 H   0  0  0  0  0  0  0  0  0  0  0  0
   -4.0611    1.6533    2.2048 H   0  0  0  0  0  0  0  0  0  0  0  0
   -5.4253    2.2295    3.1593 H   0  0  0  0  0  0  0  0  0  0  0  0
   -3.6212    1.2912    4.6359 H   0  0  0  0  0  0  0  0  0  0  0  0
   -3.9384    2.9948    4.9723 H   0  0  0  0  0  0  0  0  0  0  0  0
    4.9133    1.4848    0.7010 H   0  0  0  0  0  0  0  0  0  0  0  0
    3.1848    3.4909    2.9192 H   0  0  0  0  0  0  0  0  0  0  0  0
    5.7505    4.3833    4.1213 H   0  0  0  0  0  0  0  0  0  0  0  0
    4.1226    4.7886    4.6967 H   0  0  0  0  0  0  0  0  0  0  0  0
    5.5516    5.9110    2.2321 H   0  0  0  0  0  0  0  0  0  0  0  0
    3.0305    5.8897    1.9884 H   0  0  0  0  0  0  0  0  0  0  0  0
    3.7751    7.4841    1.8913 H   0  0  0  0  0  0  0  0  0  0  0  0
    2.3049    6.3398    4.3422 H   0  0  0  0  0  0  0  0  0  0  0  0
    1.7346    7.6192    3.2740 H   0  0  0  0  0  0  0  0  0  0  0  0
    2.7196    8.5451    5.4065 H   0  0  0  0  0  0  0  0  0  0  0  0
    3.5941    9.1061    3.9764 H   0  0  0  0  0  0  0  0  0  0  0  0
    4.4617    6.8372    5.8607 H   0  0  0  0  0  0  0  0  0  0  0  0
    5.2226    8.4190    5.7167 H   0  0  0  0  0  0  0  0  0  0  0  0
    6.5138    6.6757    4.4431 H   0  0  0  0  0  0  0  0  0  0  0  0
    5.9206    7.9667    3.3974 H   0  0  0  0  0  0  0  0  0  0  0  0
  1  2  1  0
  1 26  1  0
  1 27  1  0
  1 28  1  0
  2  3  2  0
  3  4  1  0
  3 15  1  0
  4  5  2  0
  5  6  1  0
  5  7  1  0
  7  8  1  0
  7 29  1  0
  8  9  1  0
  8 30  1  0
  8 31  1  0
  9 10  1  0
  9 14  1  0
  9 32  1  1
 10 11  1  0
 10 33  1  0
 10 34  1  0
 11 12  1  0
 11 35  1  0
 11 36  1  0
 12 13  1  0
 12 37  1  0
 12 38  1  0
 13 14  1  0
 13 39  1  0
 13 40  1  0
 14 41  1  0
 14 42  1  0
 15 16  1  0
 15 43  1  0
 16 17  2  0
 16 18  1  0
 18 19  1  0
 18 44  1  0
 19 20  1  0
 19 45  1  0
 19 46  1  0
 20 21  1  0
 20 25  1  0
 20 47  1  6
 21 22  1  0
 21 48  1  0
 21 49  1  0
 22 23  1  0
 22 50  1  0
 22 51  1  0
 23 24  1  0
 23 52  1  0
 23 53  1  0
 24 25  1  0
 24 54  1  0
 24 55  1  0
 25 56  1  0
 25 57  1  0
M  CHG  2   2   1   6  -1
M  END

