
     RDKit          3D

 47 49  0  0  0  0  0  0  0  0999 V2000
    0.1186   -0.5176   -0.2777 C   0  0  0  0  0  0  0  0  0  0  0  0
    1.5498   -0.3209   -0.1473 N   0  0  0  0  0  0  0  0  0  0  0  0
    2.3634   -1.5077   -0.4062 C   0  0  0  0  0  0  0  0  0  0  0  0
    2.6001   -1.7538   -1.9079 C   0  0  0  0  0  0  0  0  0  0  0  0
    3.1734   -0.5915   -2.5954 N   0  0  0  0  0  0  0  0  0  0  0  0
    4.6084   -0.3244   -2.4571 C   0  0  1  0  0  0  0  0  0  0  0  0
    5.4585   -1.6205   -2.4899 C   0  0  0  0  0  0  0  0  0  0  0  0
    6.8368   -1.3586   -2.4054 O   0  0  0  0  0  0  0  0  0  0  0  0
    5.0881    0.5998   -3.5771 C   0  0  0  0  0  0  0  0  0  0  0  0
    4.6188    0.4399   -4.8912 C   0  0  0  0  0  0  0  0  0  0  0  0
    5.1315    1.2319   -5.9209 C   0  0  0  0  0  0  0  0  0  0  0  0
    6.1104    2.1945   -5.6623 C   0  0  0  0  0  0  0  0  0  0  0  0
    6.5798    2.3568   -4.3550 C   0  0  0  0  0  0  0  0  0  0  0  0
    7.5892    3.2682   -4.1633 O   0  0  0  0  0  0  0  0  0  0  0  0
    7.6711    4.0390   -3.0277 C   0  0  0  0  0  0  0  0  0  0  0  0
    8.9495    4.2771   -2.5106 C   0  0  0  0  0  0  0  0  0  0  0  0
    9.1025    5.1137   -1.4028 C   0  0  0  0  0  0  0  0  0  0  0  0
    7.9869    5.7082   -0.8044 C   0  0  0  0  0  0  0  0  0  0  0  0
    6.7134    5.4655   -1.3294 C   0  0  0  0  0  0  0  0  0  0  0  0
    6.5471    4.6369   -2.4422 C   0  0  0  0  0  0  0  0  0  0  0  0
    6.0758    1.5612   -3.3159 C   0  0  0  0  0  0  0  0  0  0  0  0
    2.3256    0.5844   -2.3547 C   0  0  0  0  0  0  0  0  0  0  0  0
    2.0827    0.8424   -0.8552 C   0  0  0  0  0  0  0  0  0  0  0  0
   -0.2027   -1.3400    0.3827 H   0  0  0  0  0  0  0  0  0  0  0  0
   -0.2472   -0.7577   -1.3014 H   0  0  0  0  0  0  0  0  0  0  0  0
   -0.4100    0.3927    0.0500 H   0  0  0  0  0  0  0  0  0  0  0  0
    1.8799   -2.3845    0.0566 H   0  0  0  0  0  0  0  0  0  0  0  0
    3.3383   -1.3787    0.1011 H   0  0  0  0  0  0  0  0  0  0  0  0
    1.6322   -1.9721   -2.3947 H   0  0  0  0  0  0  0  0  0  0  0  0
    3.2215   -2.6461   -2.0662 H   0  0  0  0  0  0  0  0  0  0  0  0
    4.8656    0.1697   -1.4959 H   0  0  0  0  0  0  0  0  0  0  0  0
    5.1928   -2.2000   -3.3977 H   0  0  0  0  0  0  0  0  0  0  0  0
    5.2242   -2.2462   -1.6161 H   0  0  0  0  0  0  0  0  0  0  0  0
    7.0913   -0.8221   -3.1692 H   0  0  0  0  0  0  0  0  0  0  0  0
    3.8406   -0.3007   -5.0841 H   0  0  0  0  0  0  0  0  0  0  0  0
    4.7608    1.1045   -6.9416 H   0  0  0  0  0  0  0  0  0  0  0  0
    6.5207    2.8257   -6.4528 H   0  0  0  0  0  0  0  0  0  0  0  0
    9.8069    3.8026   -2.9918 H   0  0  0  0  0  0  0  0  0  0  0  0
   10.1028    5.2977   -1.0023 H   0  0  0  0  0  0  0  0  0  0  0  0
    8.1088    6.3588    0.0646 H   0  0  0  0  0  0  0  0  0  0  0  0
    5.8359    5.9325   -0.8744 H   0  0  0  0  0  0  0  0  0  0  0  0
    5.5545    4.4577   -2.8596 H   0  0  0  0  0  0  0  0  0  0  0  0
    6.4554    1.6918   -2.3005 H   0  0  0  0  0  0  0  0  0  0  0  0
    1.3584    0.4166   -2.8624 H   0  0  0  0  0  0  0  0  0  0  0  0
    2.7807    1.4670   -2.8299 H   0  0  0  0  0  0  0  0  0  0  0  0
    1.3949    1.6939   -0.7200 H   0  0  0  0  0  0  0  0  0  0  0  0
    3.0367    1.1302   -0.3756 H   0  0  0  0  0  0  0  0  0  0  0  0
  1  2  1  0
  1 24  1  0
  1 25  1  0
  1 26  1  0
  2  3  1  0
  2 23  1  0
  3  4  1  0
  3 27  1  0
  3 28  1  0
  4  5  1  0
  4 29  1  0
  4 30  1  0
  5  6  1  0
  5 22  1  0
  6  7  1  0
  6  9  1  0
  6 31  1  1
  7  8  1  0
  7 32  1  0
  7 33  1  0
  8 34  1  0
  9 10  2  0
  9 21  1  0
 10 11  1  0
 10 35  1  0
 11 12  2  0
 11 36  1  0
 12 13  1  0
 12 37  1  0
 13 14  1  0
 13 21  2  0
 14 15  1  0
 15 16  2  0
 15 20  1  0
 16 17  1  0
 16 38  1  0
 17 18  2  0
 17 39  1  0
 18 19  1  0
 18 40  1  0
 19 20  2  0
 19 41  1  0
 20 42  1  0
 21 43  1  0
 22 23  1  0
 22 44  1  0
 22 45  1  0
 23 46  1  0
 23 47  1  0
M  END

