
     RDKit          3D

 35 38  0  0  0  0  0  0  0  0999 V2000
    1.0583    0.0737    0.1767 O   0  0  0  0  0  0  0  0  0  0  0  0
    2.2791    0.0620    0.2781 C   0  0  0  0  0  0  0  0  0  0  0  0
    2.9404   -1.0046    0.8095 N   0  0  0  0  0  0  0  0  0  0  0  0
    2.2199   -2.1654    1.2643 C   0  0  0  0  0  0  0  0  0  0  0  0
    3.1907   -3.1837    1.7802 C   0  0  0  0  0  0  0  0  0  0  0  0
    4.4885   -3.0269    1.8003 N   0  0  0  0  0  0  0  0  0  0  0  0
    4.9944   -4.1906    2.3476 C   0  0  0  0  0  0  0  0  0  0  0  0
    6.2761   -4.4796    2.5628 N   0  0  0  0  0  0  0  0  0  0  0  0
    6.5355   -5.6657    3.1030 C   0  0  0  0  0  0  0  0  0  0  0  0
    5.5331   -6.6017    3.4465 C   0  0  0  0  0  0  0  0  0  0  0  0
    6.0463   -8.2665    4.2143 Br  0  0  0  0  0  0  0  0  0  0  0  0
    4.1820   -6.3234    3.2313 C   0  0  0  0  0  0  0  0  0  0  0  0
    3.9258   -5.0765    2.6648 C   0  0  0  0  0  0  0  0  0  0  0  0
    2.7838   -4.4005    2.2878 N   0  0  0  0  0  0  0  0  0  0  0  0
    1.8279   -4.7254    2.3688 H   0  0  0  0  0  0  0  0  0  0  0  0
    3.1462    1.2033   -0.1613 C   0  0  1  0  0  0  0  0  0  0  0  0
    2.6824    2.0208   -1.3522 C   0  0  0  0  0  0  0  0  0  0  0  0
    2.5918    2.6059    0.0217 C   0  0  2  0  0  0  0  0  0  0  0  0
    3.4447    3.7637    0.4596 C   0  0  1  0  0  0  0  0  0  0  0  0
    4.1613    3.7632    1.7877 C   0  0  0  0  0  0  0  0  0  0  0  0
    4.9519    3.7215    0.5037 C   0  0  0  0  0  0  0  0  0  0  0  0
    3.9529   -1.0390    0.8925 H   0  0  0  0  0  0  0  0  0  0  0  0
    1.6111   -2.5985    0.4469 H   0  0  0  0  0  0  0  0  0  0  0  0
    1.4937   -1.8961    2.0556 H   0  0  0  0  0  0  0  0  0  0  0  0
    7.5851   -5.9178    3.2860 H   0  0  0  0  0  0  0  0  0  0  0  0
    3.4002   -7.0386    3.4924 H   0  0  0  0  0  0  0  0  0  0  0  0
    4.2242    1.0598   -0.0471 H   0  0  0  0  0  0  0  0  0  0  0  0
    1.7555    1.6947   -1.8305 H   0  0  0  0  0  0  0  0  0  0  0  0
    3.4613    2.3953   -2.0226 H   0  0  0  0  0  0  0  0  0  0  0  0
    1.5802    2.6081    0.4435 H   0  0  0  0  0  0  0  0  0  0  0  0
    3.0200    4.7294    0.1590 H   0  0  0  0  0  0  0  0  0  0  0  0
    4.1167    2.8457    2.3826 H   0  0  0  0  0  0  0  0  0  0  0  0
    4.1695    4.6823    2.3807 H   0  0  0  0  0  0  0  0  0  0  0  0
    5.4662    2.7900    0.2498 H   0  0  0  0  0  0  0  0  0  0  0  0
    5.4963    4.6191    0.1968 H   0  0  0  0  0  0  0  0  0  0  0  0
  1  2  2  0
  2  3  1  0
  2 16  1  0
  3  4  1  0
  3 22  1  0
  4  5  1  0
  4 23  1  0
  4 24  1  0
  5  6  2  0
  5 14  1  0
  6  7  1  0
  7  8  2  0
  7 13  1  0
  8  9  1  0
  9 10  2  0
  9 25  1  0
 10 11  1  0
 10 12  1  0
 12 13  2  0
 12 26  1  0
 13 14  1  0
 14 15  1  0
 16 17  1  0
 16 18  1  0
 16 27  1  6
 17 18  1  0
 17 28  1  0
 17 29  1  0
 18 19  1  0
 18 30  1  1
 19 20  1  0
 19 21  1  0
 19 31  1  6
 20 21  1  0
 20 32  1  0
 20 33  1  0
 21 34  1  0
 21 35  1  0
M  END

