
     RDKit          3D

 41 42  0  0  0  0  0  0  0  0999 V2000
    1.5555    0.5102    2.4165 C   0  0  0  0  0  0  0  0  0  0  0  0
    2.0312   -0.0562    1.0886 C   0  0  0  0  0  0  0  0  0  0  0  0
    2.9390   -1.1527    1.2677 O   0  0  0  0  0  0  0  0  0  0  0  0
    4.2495   -0.8391    1.4494 C   0  0  0  0  0  0  0  0  0  0  0  0
    4.6868    0.2918    1.4472 O   0  0  0  0  0  0  0  0  0  0  0  0
    4.9584   -1.9946    1.6244 N   0  0  0  0  0  0  0  0  0  0  0  0
    6.3443   -2.1507    1.8419 C   0  0  0  0  0  0  0  0  0  0  0  0
    7.2501   -1.0821    1.9013 C   0  0  0  0  0  0  0  0  0  0  0  0
    8.6094   -1.3161    2.1261 C   0  0  0  0  0  0  0  0  0  0  0  0
    9.1184   -2.6198    2.2853 C   0  0  0  0  0  0  0  0  0  0  0  0
   10.4710   -2.8869    2.4661 N   0  0  0  0  0  0  0  0  0  0  0  0
   11.4366   -1.8530    2.7799 C   0  0  0  0  0  0  0  0  0  0  0  0
   12.8415   -2.4119    2.8701 C   0  0  0  0  0  0  0  0  0  0  0  0
   13.3457   -3.2581    1.8713 C   0  0  0  0  0  0  0  0  0  0  0  0
   14.6501   -3.7526    1.9433 C   0  0  0  0  0  0  0  0  0  0  0  0
   15.4986   -3.4183    3.0100 C   0  0  0  0  0  0  0  0  0  0  0  0
   16.9128   -3.9409    3.0878 C   0  0  0  0  0  0  0  0  0  0  0  0
   14.9889   -2.5724    4.0079 C   0  0  0  0  0  0  0  0  0  0  0  0
   13.6838   -2.0808    3.9413 C   0  0  0  0  0  0  0  0  0  0  0  0
    8.1952   -3.6862    2.2276 C   0  0  0  0  0  0  0  0  0  0  0  0
    6.8419   -3.4550    2.0126 C   0  0  0  0  0  0  0  0  0  0  0  0
    0.8043    1.2976    2.2424 H   0  0  0  0  0  0  0  0  0  0  0  0
    2.3951    0.9555    2.9707 H   0  0  0  0  0  0  0  0  0  0  0  0
    1.0948   -0.2738    3.0379 H   0  0  0  0  0  0  0  0  0  0  0  0
    2.5232    0.7219    0.4860 H   0  0  0  0  0  0  0  0  0  0  0  0
    1.1940   -0.4776    0.5125 H   0  0  0  0  0  0  0  0  0  0  0  0
    4.4053   -2.8428    1.5901 H   0  0  0  0  0  0  0  0  0  0  0  0
    6.8834   -0.0650    1.7782 H   0  0  0  0  0  0  0  0  0  0  0  0
    9.2771   -0.4552    2.1758 H   0  0  0  0  0  0  0  0  0  0  0  0
   10.6745   -3.7872    2.8861 H   0  0  0  0  0  0  0  0  0  0  0  0
   11.1925   -1.3166    3.7208 H   0  0  0  0  0  0  0  0  0  0  0  0
   11.4042   -1.0901    1.9800 H   0  0  0  0  0  0  0  0  0  0  0  0
   12.7040   -3.5338    1.0305 H   0  0  0  0  0  0  0  0  0  0  0  0
   15.0184   -4.4109    1.1510 H   0  0  0  0  0  0  0  0  0  0  0  0
   17.1252   -4.6565    2.2799 H   0  0  0  0  0  0  0  0  0  0  0  0
   17.1018   -4.4492    4.0478 H   0  0  0  0  0  0  0  0  0  0  0  0
   17.6470   -3.1209    3.0096 H   0  0  0  0  0  0  0  0  0  0  0  0
   15.6224   -2.2981    4.8568 H   0  0  0  0  0  0  0  0  0  0  0  0
   13.3116   -1.4295    4.7376 H   0  0  0  0  0  0  0  0  0  0  0  0
    8.5518   -4.7134    2.3473 H   0  0  0  0  0  0  0  0  0  0  0  0
    6.1550   -4.3063    1.9745 H   0  0  0  0  0  0  0  0  0  0  0  0
  1  2  1  0
  1 22  1  0
  1 23  1  0
  1 24  1  0
  2  3  1  0
  2 25  1  0
  2 26  1  0
  3  4  1  0
  4  5  2  0
  4  6  1  0
  6  7  1  0
  6 27  1  0
  7  8  2  0
  7 21  1  0
  8  9  1  0
  8 28  1  0
  9 10  2  0
  9 29  1  0
 10 11  1  0
 10 20  1  0
 11 12  1  0
 11 30  1  0
 12 13  1  0
 12 31  1  0
 12 32  1  0
 13 14  2  0
 13 19  1  0
 14 15  1  0
 14 33  1  0
 15 16  2  0
 15 34  1  0
 16 17  1  0
 16 18  1  0
 17 35  1  0
 17 36  1  0
 17 37  1  0
 18 19  2  0
 18 38  1  0
 19 39  1  0
 20 21  2  0
 20 40  1  0
 21 41  1  0
M  END

