
     RDKit          3D

 38 39  0  0  0  0  0  0  0  0999 V2000
    1.0758   -0.4086    0.6161 C   0  0  0  0  0  0  0  0  0  0  0  0
    2.5361   -0.2093    0.2911 C   0  0  0  0  0  0  0  0  0  0  0  0
    3.0804    1.0634    0.0844 C   0  0  0  0  0  0  0  0  0  0  0  0
    4.4340    1.2439   -0.2058 C   0  0  0  0  0  0  0  0  0  0  0  0
    5.2874    0.1330   -0.2977 C   0  0  0  0  0  0  0  0  0  0  0  0
    6.6612    0.2537   -0.5881 N   0  0  0  0  0  0  0  0  0  0  0  0
    7.4095    1.3866   -0.8274 C   0  0  0  0  0  0  0  0  0  0  0  0
    6.9639    2.5237   -0.8208 O   0  0  0  0  0  0  0  0  0  0  0  0
    8.8490    1.0919   -1.1019 C   0  0  0  0  0  0  0  0  0  0  0  0
    9.7032    2.1022   -1.3527 C   0  0  0  0  0  0  0  0  0  0  0  0
   11.1369    2.0180   -1.6417 C   0  0  0  0  0  0  0  0  0  0  0  0
   11.8499    3.2139   -1.8698 C   0  0  0  0  0  0  0  0  0  0  0  0
   13.2143    3.2030   -2.1491 C   0  0  0  0  0  0  0  0  0  0  0  0
   13.8757    1.9765   -2.2015 C   0  0  0  0  0  0  0  0  0  0  0  0
   15.3223    1.9507   -2.4968 N   0  0  0  0  0  0  0  0  0  0  0  0
   15.8787    3.0207   -2.6841 O   0  0  0  0  0  0  0  0  0  0  0  0
   15.8701    0.8603   -2.5349 O   0  0  0  0  0  0  0  0  0  0  0  0
   13.2059    0.7693   -1.9820 C   0  0  0  0  0  0  0  0  0  0  0  0
   11.8444    0.7970   -1.7042 C   0  0  0  0  0  0  0  0  0  0  0  0
    4.7664   -1.1710   -0.0950 C   0  0  0  0  0  0  0  0  0  0  0  0
    5.6538   -2.3898   -0.1883 C   0  0  0  0  0  0  0  0  0  0  0  0
    3.4058   -1.3071    0.1934 C   0  0  0  0  0  0  0  0  0  0  0  0
    0.5166    0.5366    0.5529 H   0  0  0  0  0  0  0  0  0  0  0  0
    0.9410   -0.8075    1.6363 H   0  0  0  0  0  0  0  0  0  0  0  0
    0.6022   -1.1269   -0.0737 H   0  0  0  0  0  0  0  0  0  0  0  0
    2.4352    1.9440    0.1498 H   0  0  0  0  0  0  0  0  0  0  0  0
    4.8440    2.2381   -0.3650 H   0  0  0  0  0  0  0  0  0  0  0  0
    7.1698   -0.6197   -0.6285 H   0  0  0  0  0  0  0  0  0  0  0  0
    9.1812    0.0488   -1.0925 H   0  0  0  0  0  0  0  0  0  0  0  0
    9.2664    3.1067   -1.3366 H   0  0  0  0  0  0  0  0  0  0  0  0
   11.3176    4.1670   -1.8254 H   0  0  0  0  0  0  0  0  0  0  0  0
   13.7742    4.1208   -2.3264 H   0  0  0  0  0  0  0  0  0  0  0  0
   13.7637   -0.1653   -2.0333 H   0  0  0  0  0  0  0  0  0  0  0  0
   11.3230   -0.1466   -1.5336 H   0  0  0  0  0  0  0  0  0  0  0  0
    6.1148   -2.4939   -1.1875 H   0  0  0  0  0  0  0  0  0  0  0  0
    5.0803   -3.3085   -0.0022 H   0  0  0  0  0  0  0  0  0  0  0  0
    6.4741   -2.3657    0.5521 H   0  0  0  0  0  0  0  0  0  0  0  0
    3.0081   -2.3153    0.3480 H   0  0  0  0  0  0  0  0  0  0  0  0
  1  2  1  0
  1 23  1  0
  1 24  1  0
  1 25  1  0
  2  3  2  0
  2 22  1  0
  3  4  1  0
  3 26  1  0
  4  5  2  0
  4 27  1  0
  5  6  1  0
  5 20  1  0
  6  7  1  0
  6 28  1  0
  7  8  2  0
  7  9  1  0
  9 10  2  0
  9 29  1  0
 10 11  1  0
 10 30  1  0
 11 12  2  0
 11 19  1  0
 12 13  1  0
 12 31  1  0
 13 14  2  0
 13 32  1  0
 14 15  1  0
 14 18  1  0
 15 16  2  0
 15 17  1  0
 18 19  2  0
 18 33  1  0
 19 34  1  0
 20 21  1  0
 20 22  2  0
 21 35  1  0
 21 36  1  0
 21 37  1  0
 22 38  1  0
M  CHG  2  15   1  17  -1
M  END

