
     RDKit          3D

117122  0  0  0  0  0  0  0  0999 V2000
   -3.0622    0.0786    7.5691 C   0  0  0  0  0  0  0  0  0  0  0  0
   -2.0866    1.2512    7.7758 C   0  0  1  0  0  0  0  0  0  0  0  0
   -2.6646    2.4927    7.0573 C   0  0  0  0  0  0  0  0  0  0  0  0
   -1.9884    1.5361    9.2927 C   0  0  0  0  0  0  0  0  0  0  0  0
   -0.6827    0.9444    7.2203 C   0  0  0  0  0  0  0  0  0  0  0  0
   -0.3495   -0.2717    6.6022 C   0  0  0  0  0  0  0  0  0  0  0  0
    0.9312   -0.5178    6.1005 C   0  0  0  0  0  0  0  0  0  0  0  0
    1.9430    0.4456    6.2162 C   0  0  0  0  0  0  0  0  0  0  0  0
    3.2510    0.2066    5.7057 N   0  0  0  0  0  0  0  0  0  0  0  0
    3.8780    1.2256    4.9315 C   0  0  0  0  0  0  0  0  0  0  0  0
    5.2010    1.6159    5.1809 C   0  0  0  0  0  0  0  0  0  0  0  0
    5.8055    2.6171    4.4162 C   0  0  0  0  0  0  0  0  0  0  0  0
    5.1172    3.2830    3.3891 C   0  0  0  0  0  0  0  0  0  0  0  0
    5.7515    4.3964    2.5336 C   0  0  1  0  0  0  0  0  0  0  0  0
    7.2086    4.6822    2.9394 C   0  0  0  0  0  0  0  0  0  0  0  0
    5.7386    3.9722    1.0465 C   0  0  0  0  0  0  0  0  0  0  0  0
    4.9384    5.7011    2.7018 C   0  0  0  0  0  0  0  0  0  0  0  0
    3.7854    2.8864    3.1611 C   0  0  0  0  0  0  0  0  0  0  0  0
    3.1758    1.8782    3.9045 C   0  0  0  0  0  0  0  0  0  0  0  0
    3.9132   -1.0071    5.9657 C   0  0  0  0  0  0  0  0  0  0  0  0
    4.8133   -1.5558    5.0260 C   0  0  0  0  0  0  0  0  0  0  0  0
    5.4741   -2.7525    5.2876 C   0  0  0  0  0  0  0  0  0  0  0  0
    5.2340   -3.4334    6.4855 C   0  0  0  0  0  0  0  0  0  0  0  0
    6.1034   -4.9680    6.8302 S   0  0  1  0  0  0  0  0  0  0  0  0
    7.3075   -4.9812    5.9828 O   0  0  0  0  0  0  0  0  0  0  0  0
    6.1856   -5.1008    8.2944 O   0  0  0  0  0  0  0  0  0  0  0  0
    5.0278   -6.2814    6.2410 C   0  0  0  0  0  0  0  0  0  0  0  0
    5.1311   -6.7262    4.9187 C   0  0  0  0  0  0  0  0  0  0  0  0
    4.3087   -7.7536    4.4667 C   0  0  0  0  0  0  0  0  0  0  0  0
    3.3799   -8.3706    5.3338 C   0  0  0  0  0  0  0  0  0  0  0  0
    2.5542   -9.4147    4.8793 N   0  0  0  0  0  0  0  0  0  0  0  0
    3.0098  -10.3168    3.8742 C   0  0  0  0  0  0  0  0  0  0  0  0
    4.2768  -10.9110    3.9529 C   0  0  0  0  0  0  0  0  0  0  0  0
    4.7126  -11.7952    2.9625 C   0  0  0  0  0  0  0  0  0  0  0  0
    3.9033  -12.1392    1.8677 C   0  0  0  0  0  0  0  0  0  0  0  0
    4.3501  -13.1164    0.7635 C   0  0  1  0  0  0  0  0  0  0  0  0
    5.7689  -13.6609    1.0087 C   0  0  0  0  0  0  0  0  0  0  0  0
    3.3749  -14.3155    0.7118 C   0  0  0  0  0  0  0  0  0  0  0  0
    4.3410  -12.3887   -0.6011 C   0  0  0  0  0  0  0  0  0  0  0  0
    2.6292  -11.5420    1.8116 C   0  0  0  0  0  0  0  0  0  0  0  0
    2.1884  -10.6462    2.7832 C   0  0  0  0  0  0  0  0  0  0  0  0
    1.2495   -9.6000    5.4198 C   0  0  0  0  0  0  0  0  0  0  0  0
    0.3675   -8.5214    5.5749 C   0  0  0  0  0  0  0  0  0  0  0  0
   -0.9110   -8.7152    6.1043 C   0  0  0  0  0  0  0  0  0  0  0  0
   -1.3722   -9.9866    6.4822 C   0  0  0  0  0  0  0  0  0  0  0  0
   -2.7782  -10.2360    7.0608 C   0  0  1  0  0  0  0  0  0  0  0  0
   -3.5984   -8.9384    7.1747 C   0  0  0  0  0  0  0  0  0  0  0  0
   -3.5467  -11.2141    6.1420 C   0  0  0  0  0  0  0  0  0  0  0  0
   -2.6510  -10.8523    8.4736 C   0  0  0  0  0  0  0  0  0  0  0  0
   -0.4775  -11.0599    6.3079 C   0  0  0  0  0  0  0  0  0  0  0  0
    0.8058  -10.8786    5.7970 C   0  0  0  0  0  0  0  0  0  0  0  0
    3.3083   -7.9215    6.6709 C   0  0  0  0  0  0  0  0  0  0  0  0
    4.1238   -6.8870    7.1199 C   0  0  0  0  0  0  0  0  0  0  0  0
    4.3564   -2.9007    7.4359 C   0  0  0  0  0  0  0  0  0  0  0  0
    3.7023   -1.7000    7.1784 C   0  0  0  0  0  0  0  0  0  0  0  0
    1.6282    1.6664    6.8364 C   0  0  0  0  0  0  0  0  0  0  0  0
    0.3428    1.9046    7.3175 C   0  0  0  0  0  0  0  0  0  0  0  0
   -4.0506    0.3389    7.9796 H   0  0  0  0  0  0  0  0  0  0  0  0
   -2.7221   -0.8347    8.0822 H   0  0  0  0  0  0  0  0  0  0  0  0
   -3.2001   -0.1587    6.5025 H   0  0  0  0  0  0  0  0  0  0  0  0
   -3.6689    2.7303    7.4456 H   0  0  0  0  0  0  0  0  0  0  0  0
   -2.7516    2.3168    5.9733 H   0  0  0  0  0  0  0  0  0  0  0  0
   -2.0331    3.3824    7.2021 H   0  0  0  0  0  0  0  0  0  0  0  0
   -2.9842    1.7636    9.7077 H   0  0  0  0  0  0  0  0  0  0  0  0
   -1.3344    2.3948    9.5083 H   0  0  0  0  0  0  0  0  0  0  0  0
   -1.5855    0.6646    9.8329 H   0  0  0  0  0  0  0  0  0  0  0  0
   -1.0998   -1.0544    6.4875 H   0  0  0  0  0  0  0  0  0  0  0  0
    1.1477   -1.4707    5.6130 H   0  0  0  0  0  0  0  0  0  0  0  0
    5.7650    1.1308    5.9803 H   0  0  0  0  0  0  0  0  0  0  0  0
    6.8370    2.8818    4.6495 H   0  0  0  0  0  0  0  0  0  0  0  0
    7.8514    3.7965    2.8164 H   0  0  0  0  0  0  0  0  0  0  0  0
    7.2861    5.0189    3.9852 H   0  0  0  0  0  0  0  0  0  0  0  0
    7.6227    5.4811    2.3043 H   0  0  0  0  0  0  0  0  0  0  0  0
    6.3167    3.0467    0.8948 H   0  0  0  0  0  0  0  0  0  0  0  0
    6.1852    4.7596    0.4171 H   0  0  0  0  0  0  0  0  0  0  0  0
    4.7167    3.7925    0.6789 H   0  0  0  0  0  0  0  0  0  0  0  0
    4.9345    6.0312    3.7528 H   0  0  0  0  0  0  0  0  0  0  0  0
    3.8913    5.5765    2.3862 H   0  0  0  0  0  0  0  0  0  0  0  0
    5.3759    6.5092    2.0926 H   0  0  0  0  0  0  0  0  0  0  0  0
    3.2022    3.3665    2.3717 H   0  0  0  0  0  0  0  0  0  0  0  0
    2.1442    1.5905    3.6916 H   0  0  0  0  0  0  0  0  0  0  0  0
    4.9962   -1.0333    4.0863 H   0  0  0  0  0  0  0  0  0  0  0  0
    6.1839   -3.1628    4.5670 H   0  0  0  0  0  0  0  0  0  0  0  0
    5.8611   -6.2674    4.2491 H   0  0  0  0  0  0  0  0  0  0  0  0
    4.3853   -8.0897    3.4319 H   0  0  0  0  0  0  0  0  0  0  0  0
    4.9301  -10.6788    4.7965 H   0  0  0  0  0  0  0  0  0  0  0  0
    5.7072  -12.2287    3.0699 H   0  0  0  0  0  0  0  0  0  0  0  0
    5.8377  -14.2181    1.9561 H   0  0  0  0  0  0  0  0  0  0  0  0
    6.5206  -12.8564    1.0292 H   0  0  0  0  0  0  0  0  0  0  0  0
    6.0480  -14.3526    0.1983 H   0  0  0  0  0  0  0  0  0  0  0  0
    3.3639  -14.8572    1.6711 H   0  0  0  0  0  0  0  0  0  0  0  0
    3.6774  -15.0247   -0.0763 H   0  0  0  0  0  0  0  0  0  0  0  0
    2.3435  -13.9979    0.4952 H   0  0  0  0  0  0  0  0  0  0  0  0
    5.0336  -11.5320   -0.5964 H   0  0  0  0  0  0  0  0  0  0  0  0
    3.3404  -12.0086   -0.8579 H   0  0  0  0  0  0  0  0  0  0  0  0
    4.6533  -13.0747   -1.4059 H   0  0  0  0  0  0  0  0  0  0  0  0
    1.9580  -11.7692    0.9800 H   0  0  0  0  0  0  0  0  0  0  0  0
    1.1975  -10.1951    2.7009 H   0  0  0  0  0  0  0  0  0  0  0  0
    0.6847   -7.5192    5.2792 H   0  0  0  0  0  0  0  0  0  0  0  0
   -1.5571   -7.8429    6.2056 H   0  0  0  0  0  0  0  0  0  0  0  0
   -3.7527   -8.4616    6.1939 H   0  0  0  0  0  0  0  0  0  0  0  0
   -3.1173   -8.2047    7.8405 H   0  0  0  0  0  0  0  0  0  0  0  0
   -4.5926   -9.1612    7.5930 H   0  0  0  0  0  0  0  0  0  0  0  0
   -3.6579  -10.7985    5.1278 H   0  0  0  0  0  0  0  0  0  0  0  0
   -4.5552  -11.4084    6.5431 H   0  0  0  0  0  0  0  0  0  0  0  0
   -3.0324  -12.1831    6.0517 H   0  0  0  0  0  0  0  0  0  0  0  0
   -2.1121  -10.1734    9.1535 H   0  0  0  0  0  0  0  0  0  0  0  0
   -2.1081  -11.8096    8.4573 H   0  0  0  0  0  0  0  0  0  0  0  0
   -3.6487  -11.0427    8.9024 H   0  0  0  0  0  0  0  0  0  0  0  0
   -0.7798  -12.0715    6.5890 H   0  0  0  0  0  0  0  0  0  0  0  0
    1.4750  -11.7341    5.6864 H   0  0  0  0  0  0  0  0  0  0  0  0
    2.6176   -8.4034    7.3641 H   0  0  0  0  0  0  0  0  0  0  0  0
    4.0884   -6.5657    8.1625 H   0  0  0  0  0  0  0  0  0  0  0  0
    4.2156   -3.4139    8.3891 H   0  0  0  0  0  0  0  0  0  0  0  0
    3.0323   -1.2787    7.9289 H   0  0  0  0  0  0  0  0  0  0  0  0
    2.4000    2.4318    6.9391 H   0  0  0  0  0  0  0  0  0  0  0  0
    0.1431    2.8677    7.7934 H   0  0  0  0  0  0  0  0  0  0  0  0
  2  1  1  1
  1 58  1  0
  1 59  1  0
  1 60  1  0
  2  3  1  0
  2  4  1  0
  2  5  1  0
  3 61  1  0
  3 62  1  0
  3 63  1  0
  4 64  1  0
  4 65  1  0
  4 66  1  0
  5  6  2  0
  5 57  1  0
  6  7  1  0
  6 67  1  0
  7  8  2  0
  7 68  1  0
  8  9  1  0
  8 56  1  0
  9 10  1  0
  9 20  1  0
 10 11  2  0
 10 19  1  0
 11 12  1  0
 11 69  1  0
 12 13  2  0
 12 70  1  0
 13 14  1  0
 13 18  1  0
 14 15  1  1
 14 16  1  0
 14 17  1  0
 15 71  1  0
 15 72  1  0
 15 73  1  0
 16 74  1  0
 16 75  1  0
 16 76  1  0
 17 77  1  0
 17 78  1  0
 17 79  1  0
 18 19  2  0
 18 80  1  0
 19 81  1  0
 20 21  2  0
 20 55  1  0
 21 22  1  0
 21 82  1  0
 22 23  2  0
 22 83  1  0
 24 23  1  1
 23 54  1  0
 24 25  2  0
 24 26  2  0
 24 27  1  0
 27 28  2  0
 27 53  1  0
 28 29  1  0
 28 84  1  0
 29 30  2  0
 29 85  1  0
 30 31  1  0
 30 52  1  0
 31 32  1  0
 31 42  1  0
 32 33  2  0
 32 41  1  0
 33 34  1  0
 33 86  1  0
 34 35  2  0
 34 87  1  0
 35 36  1  0
 35 40  1  0
 36 37  1  1
 36 38  1  0
 36 39  1  0
 37 88  1  0
 37 89  1  0
 37 90  1  0
 38 91  1  0
 38 92  1  0
 38 93  1  0
 39 94  1  0
 39 95  1  0
 39 96  1  0
 40 41  2  0
 40 97  1  0
 41 98  1  0
 42 43  2  0
 42 51  1  0
 43 44  1  0
 43 99  1  0
 44 45  2  0
 44100  1  0
 45 46  1  0
 45 50  1  0
 46 47  1  1
 46 48  1  0
 46 49  1  0
 47101  1  0
 47102  1  0
 47103  1  0
 48104  1  0
 48105  1  0
 48106  1  0
 49107  1  0
 49108  1  0
 49109  1  0
 50 51  2  0
 50110  1  0
 51111  1  0
 52 53  2  0
 52112  1  0
 53113  1  0
 54 55  2  0
 54114  1  0
 55115  1  0
 56 57  2  0
 56116  1  0
 57117  1  0
M  END

