
     RDKit          3D

 39 40  0  0  0  0  0  0  0  0999 V2000
    1.1648   -0.1294    0.0674 C   0  0  0  0  0  0  0  0  0  0  0  0
    2.6582   -0.0805    0.0975 C   0  0  0  0  0  0  0  0  0  0  0  0
    3.5878    1.3832   -0.0437 S   0  0  0  0  0  0  0  0  0  0  0  0
    5.0720    0.4592    0.0953 C   0  0  0  0  0  0  0  0  0  0  0  0
    6.4005    1.0817    0.0584 C   0  0  0  0  0  0  0  0  0  0  0  0
    6.5779    2.4692   -0.0964 C   0  0  0  0  0  0  0  0  0  0  0  0
    7.8518    3.0334   -0.1281 C   0  0  0  0  0  0  0  0  0  0  0  0
    8.9729    2.2066   -0.0041 C   0  0  0  0  0  0  0  0  0  0  0  0
   10.5734    2.9068   -0.0431 Cl  0  0  0  0  0  0  0  0  0  0  0  0
    8.8231    0.8240    0.1507 C   0  0  0  0  0  0  0  0  0  0  0  0
    7.5458    0.2704    0.1811 C   0  0  0  0  0  0  0  0  0  0  0  0
    4.8678   -0.8285    0.2335 N   0  0  0  0  0  0  0  0  0  0  0  0
    3.5439   -1.1346    0.2353 C   0  0  0  0  0  0  0  0  0  0  0  0
    3.1156   -2.4056    0.3636 O   0  0  0  0  0  0  0  0  0  0  0  0
    4.0909   -3.4339    0.5276 C   0  0  0  0  0  0  0  0  0  0  0  0
    3.3545   -4.7576    0.6523 C   0  0  0  0  0  0  0  0  0  0  0  0
    4.3185   -5.9403    0.7765 C   0  0  0  0  0  0  0  0  0  0  0  0
    3.6615   -7.2078    1.0619 N   0  0  0  0  0  0  0  0  0  0  0  0
    2.8482   -7.7041   -0.0315 C   0  0  0  0  0  0  0  0  0  0  0  0
    4.5909   -8.2131    1.5385 C   0  0  0  0  0  0  0  0  0  0  0  0
    0.7109    0.4676    0.8765 H   0  0  0  0  0  0  0  0  0  0  0  0
    0.8404   -1.1721    0.1927 H   0  0  0  0  0  0  0  0  0  0  0  0
    0.7534    0.2420   -0.8868 H   0  0  0  0  0  0  0  0  0  0  0  0
    5.7097    3.1261   -0.1946 H   0  0  0  0  0  0  0  0  0  0  0  0
    7.9812    4.1100   -0.2485 H   0  0  0  0  0  0  0  0  0  0  0  0
    9.7069    0.1910    0.2462 H   0  0  0  0  0  0  0  0  0  0  0  0
    7.4128   -0.8057    0.3011 H   0  0  0  0  0  0  0  0  0  0  0  0
    4.7038   -3.2267    1.4227 H   0  0  0  0  0  0  0  0  0  0  0  0
    4.7788   -3.4355   -0.3364 H   0  0  0  0  0  0  0  0  0  0  0  0
    2.7008   -4.8695   -0.2278 H   0  0  0  0  0  0  0  0  0  0  0  0
    2.6985   -4.7350    1.5380 H   0  0  0  0  0  0  0  0  0  0  0  0
    5.0149   -5.7368    1.6081 H   0  0  0  0  0  0  0  0  0  0  0  0
    4.9512   -6.0032   -0.1431 H   0  0  0  0  0  0  0  0  0  0  0  0
    2.0735   -6.9747   -0.3098 H   0  0  0  0  0  0  0  0  0  0  0  0
    2.3333   -8.6283    0.2752 H   0  0  0  0  0  0  0  0  0  0  0  0
    3.4405   -7.9366   -0.9487 H   0  0  0  0  0  0  0  0  0  0  0  0
    5.1290   -7.8456    2.4269 H   0  0  0  0  0  0  0  0  0  0  0  0
    5.3541   -8.5087    0.7797 H   0  0  0  0  0  0  0  0  0  0  0  0
    4.0447   -9.1247    1.8297 H   0  0  0  0  0  0  0  0  0  0  0  0
  1  2  1  0
  1 21  1  0
  1 22  1  0
  1 23  1  0
  2  3  1  0
  2 13  2  0
  3  4  1  0
  4  5  1  0
  4 12  2  0
  5  6  2  0
  5 11  1  0
  6  7  1  0
  6 24  1  0
  7  8  2  0
  7 25  1  0
  8  9  1  0
  8 10  1  0
 10 11  2  0
 10 26  1  0
 11 27  1  0
 12 13  1  0
 13 14  1  0
 14 15  1  0
 15 16  1  0
 15 28  1  0
 15 29  1  0
 16 17  1  0
 16 30  1  0
 16 31  1  0
 17 18  1  0
 17 32  1  0
 17 33  1  0
 18 19  1  0
 18 20  1  0
 19 34  1  0
 19 35  1  0
 19 36  1  0
 20 37  1  0
 20 38  1  0
 20 39  1  0
M  END

