
     RDKit          3D

 36 36  0  0  0  0  0  0  0  0999 V2000
    2.8572    0.6971   -1.0737 O   0  0  0  0  0  0  0  0  0  0  0  0
    2.4317   -0.0801   -0.2338 C   0  0  0  0  0  0  0  0  0  0  0  0
    1.1888   -0.6341   -0.2121 N   0  0  0  0  0  0  0  0  0  0  0  0
    0.1253   -0.4622   -1.1070 C   0  0  0  0  0  0  0  0  0  0  0  0
    0.2074    0.3487   -2.2569 C   0  0  0  0  0  0  0  0  0  0  0  0
   -0.8968    0.4669   -3.1046 C   0  0  0  0  0  0  0  0  0  0  0  0
   -2.0921   -0.2029   -2.8396 C   0  0  0  0  0  0  0  0  0  0  0  0
   -2.1494   -0.9986   -1.6956 C   0  0  0  0  0  0  0  0  0  0  0  0
   -3.4032   -1.7225   -1.3839 N   0  0  0  0  0  0  0  0  0  0  0  0
   -4.3373   -1.5867   -2.1560 O   0  0  0  0  0  0  0  0  0  0  0  0
   -3.4229   -2.4085   -0.3748 O   0  0  0  0  0  0  0  0  0  0  0  0
   -1.0713   -1.1423   -0.8283 C   0  0  0  0  0  0  0  0  0  0  0  0
    3.2269   -0.5697    1.0100 C   0  0  0  0  0  0  0  0  0  0  0  0
    2.5986   -1.2058    1.8653 O   0  0  0  0  0  0  0  0  0  0  0  0
    4.5336   -0.2591    1.1360 N   0  0  0  0  0  0  0  0  0  0  0  0
    5.3924    0.3320    0.1013 C   0  0  0  0  0  0  0  0  0  0  0  0
    5.5404    1.8433    0.2042 C   0  0  0  0  0  0  0  0  0  0  0  0
    6.2135    2.1602    1.4081 O   0  0  0  0  0  0  0  0  0  0  0  0
    5.1823   -0.6287    2.4066 C   0  0  0  0  0  0  0  0  0  0  0  0
    5.7146   -2.0629    2.4288 C   0  0  0  0  0  0  0  0  0  0  0  0
    4.7521   -3.0333    2.1078 O   0  0  0  0  0  0  0  0  0  0  0  0
    1.0392   -1.2144    0.6152 H   0  0  0  0  0  0  0  0  0  0  0  0
    1.1352    0.8752   -2.4687 H   0  0  0  0  0  0  0  0  0  0  0  0
   -0.8187    1.0985   -3.9925 H   0  0  0  0  0  0  0  0  0  0  0  0
   -2.9642   -0.1242   -3.4870 H   0  0  0  0  0  0  0  0  0  0  0  0
   -1.1784   -1.7803    0.0495 H   0  0  0  0  0  0  0  0  0  0  0  0
    5.0073    0.0816   -0.8914 H   0  0  0  0  0  0  0  0  0  0  0  0
    6.3865   -0.1312    0.2065 H   0  0  0  0  0  0  0  0  0  0  0  0
    4.5374    2.3033    0.1522 H   0  0  0  0  0  0  0  0  0  0  0  0
    6.1090    2.1864   -0.6844 H   0  0  0  0  0  0  0  0  0  0  0  0
    6.1786    3.1149    1.5433 H   0  0  0  0  0  0  0  0  0  0  0  0
    4.4388   -0.4985    3.2070 H   0  0  0  0  0  0  0  0  0  0  0  0
    5.9942    0.0891    2.5821 H   0  0  0  0  0  0  0  0  0  0  0  0
    6.1570   -2.2251    3.4356 H   0  0  0  0  0  0  0  0  0  0  0  0
    6.5450   -2.1695    1.7065 H   0  0  0  0  0  0  0  0  0  0  0  0
    3.8820   -2.6985    2.3783 H   0  0  0  0  0  0  0  0  0  0  0  0
  1  2  2  0
  2  3  1  0
  2 13  1  0
  3  4  1  0
  3 22  1  0
  4  5  2  0
  4 12  1  0
  5  6  1  0
  5 23  1  0
  6  7  2  0
  6 24  1  0
  7  8  1  0
  7 25  1  0
  8  9  1  0
  8 12  2  0
  9 10  2  0
  9 11  1  0
 12 26  1  0
 13 14  2  0
 13 15  1  0
 15 16  1  0
 15 19  1  0
 16 17  1  0
 16 27  1  0
 16 28  1  0
 17 18  1  0
 17 29  1  0
 17 30  1  0
 18 31  1  0
 19 20  1  0
 19 32  1  0
 19 33  1  0
 20 21  1  0
 20 34  1  0
 20 35  1  0
 21 36  1  0
M  CHG  2   9   1  11  -1
M  END

