
     RDKit          3D

 46 49  0  0  0  0  0  0  0  0999 V2000
    1.8818   -7.1479   -2.9411 O   0  0  0  0  0  0  0  0  0  0  0  0
    2.5907   -7.1691   -1.9652 C   0  0  0  0  0  0  0  0  0  0  0  0
    2.5747   -8.2308   -1.1156 O   0  0  0  0  0  0  0  0  0  0  0  0
    3.4414   -6.1535   -1.6046 N   0  0  0  0  0  0  0  0  0  0  0  0
    3.6483   -5.0066   -2.4728 C   0  0  2  0  0  0  0  0  0  0  0  0
    2.6728   -4.7752   -2.9292 H   0  0  0  0  0  0  0  0  0  0  0  0
    4.6570   -5.2684   -3.6044 C   0  0  0  0  0  0  0  0  0  0  0  0
    4.8982   -3.9834   -4.4110 C   0  0  0  0  0  0  0  0  0  0  0  0
    5.3365   -2.8623   -3.5818 N   0  0  0  0  0  0  0  0  0  0  0  0
    6.7573   -2.7924   -3.2761 C   0  0  0  0  0  0  0  0  0  0  0  0
    7.4601   -1.5040   -3.7706 C   0  0  2  0  0  0  0  0  0  0  0  0
    8.5423   -1.6710   -3.6524 H   0  0  0  0  0  0  0  0  0  0  0  0
    7.0993   -0.2263   -3.0186 C   0  0  0  0  0  0  0  0  0  0  0  0
    5.7676    0.2182   -3.2895 O   0  0  0  0  0  0  0  0  0  0  0  0
    5.4680    0.2785   -4.6030 C   0  0  0  0  0  0  0  0  0  0  0  0
    4.4116    1.0654   -5.0553 C   0  0  0  0  0  0  0  0  0  0  0  0
    3.6841    1.7592   -4.1769 F   0  0  0  0  0  0  0  0  0  0  0  0
    4.1177    1.1410   -6.4251 C   0  0  0  0  0  0  0  0  0  0  0  0
    4.8181    0.4950   -7.3434 N   0  0  0  0  0  0  0  0  0  0  0  0
    5.8393   -0.2853   -6.9420 C   0  0  0  0  0  0  0  0  0  0  0  0
    6.6298   -1.0009   -7.9124 C   0  0  0  0  0  0  0  0  0  0  0  0
    7.6595   -1.7968   -7.5270 C   0  0  0  0  0  0  0  0  0  0  0  0
    8.0117   -2.0009   -6.1206 C   0  0  0  0  0  0  0  0  0  0  0  0
    8.9005   -2.7429   -5.7242 O   0  0  0  0  0  0  0  0  0  0  0  0
    7.2265   -1.2797   -5.2015 N   0  0  0  0  0  0  0  0  0  0  0  0
    6.1900   -0.4466   -5.5783 C   0  0  0  0  0  0  0  0  0  0  0  0
    4.3952   -2.5883   -2.5075 C   0  0  0  0  0  0  0  0  0  0  0  0
    4.0698   -3.8035   -1.6195 C   0  0  2  0  0  0  0  0  0  0  0  0
    3.2296   -3.5442   -0.9457 H   0  0  0  0  0  0  0  0  0  0  0  0
    5.1971   -4.2282   -0.8464 O   0  0  0  0  0  0  0  0  0  0  0  0
    3.1187   -8.0651   -0.3336 H   0  0  0  0  0  0  0  0  0  0  0  0
    4.1614   -6.2875   -0.9017 H   0  0  0  0  0  0  0  0  0  0  0  0
    4.2649   -6.0670   -4.2538 H   0  0  0  0  0  0  0  0  0  0  0  0
    5.6076   -5.6234   -3.1714 H   0  0  0  0  0  0  0  0  0  0  0  0
    3.9594   -3.6918   -4.9178 H   0  0  0  0  0  0  0  0  0  0  0  0
    5.6378   -4.1564   -5.2067 H   0  0  0  0  0  0  0  0  0  0  0  0
    7.2817   -3.6300   -3.7603 H   0  0  0  0  0  0  0  0  0  0  0  0
    6.9571   -2.8985   -2.1954 H   0  0  0  0  0  0  0  0  0  0  0  0
    7.8044    0.5808   -3.2871 H   0  0  0  0  0  0  0  0  0  0  0  0
    7.1548   -0.3861   -1.9335 H   0  0  0  0  0  0  0  0  0  0  0  0
    3.2817    1.7722   -6.7470 H   0  0  0  0  0  0  0  0  0  0  0  0
    6.3626   -0.8709   -8.9638 H   0  0  0  0  0  0  0  0  0  0  0  0
    8.2729   -2.3454   -8.2435 H   0  0  0  0  0  0  0  0  0  0  0  0
    3.4442   -2.2300   -2.9455 H   0  0  0  0  0  0  0  0  0  0  0  0
    4.7673   -1.7579   -1.8879 H   0  0  0  0  0  0  0  0  0  0  0  0
    5.3564   -3.5778   -0.1510 H   0  0  0  0  0  0  0  0  0  0  0  0
  1  2  2  0
  2  3  1  0
  2  4  1  0
  3 31  1  0
  4  5  1  0
  4 32  1  0
  5  6  1  6
  5  7  1  0
  5 28  1  0
  7  8  1  0
  7 33  1  0
  7 34  1  0
  8  9  1  0
  8 35  1  0
  8 36  1  0
  9 10  1  0
  9 27  1  0
 10 11  1  0
 10 37  1  0
 10 38  1  0
 11 12  1  6
 11 13  1  0
 11 25  1  0
 13 14  1  0
 13 39  1  0
 13 40  1  0
 14 15  1  0
 15 16  2  0
 15 26  1  0
 16 17  1  0
 16 18  1  0
 18 19  2  0
 18 41  1  0
 19 20  1  0
 20 21  1  0
 20 26  2  0
 21 22  2  0
 21 42  1  0
 22 23  1  0
 22 43  1  0
 23 24  2  0
 23 25  1  0
 25 26  1  0
 27 28  1  0
 27 44  1  0
 27 45  1  0
 28 29  1  1
 28 30  1  0
 30 46  1  0
M  END

