
     RDKit          3D

 43 44  0  0  0  0  0  0  0  0999 V2000
    0.2534    3.4514   -2.1303 C   0  0  0  0  0  0  0  0  0  0  0  0
    1.7251    3.6751   -2.4771 C   0  0  0  0  0  0  0  0  0  0  0  0
    2.6483    3.6265   -1.2602 C   0  0  0  0  0  0  0  0  0  0  0  0
    4.0414    3.7996   -1.6349 N   0  0  0  0  0  0  0  0  0  0  0  0
    4.9834    3.7492   -0.5310 C   0  0  0  0  0  0  0  0  0  0  0  0
    6.4224    3.8661   -0.9917 C   0  0  0  0  0  0  0  0  0  0  0  0
    7.3807    4.5357   -0.2227 C   0  0  0  0  0  0  0  0  0  0  0  0
    8.7196    4.6056   -0.6261 C   0  0  0  0  0  0  0  0  0  0  0  0
    9.1249    4.0108   -1.8233 C   0  0  0  0  0  0  0  0  0  0  0  0
   10.4026    4.0072   -2.3130 O   0  0  0  0  0  0  0  0  0  0  0  0
   11.3745    4.7587   -1.7140 C   0  0  0  0  0  0  0  0  0  0  0  0
   11.5652    6.1607   -1.7670 C   0  0  0  0  0  0  0  0  0  0  0  0
   12.6828    6.5040   -1.1308 N   0  0  0  0  0  0  0  0  0  0  0  0
   13.2135    5.3599   -0.6790 N   0  0  0  0  0  0  0  0  0  0  0  0
   14.4612    5.3930    0.0750 C   0  0  0  0  0  0  0  0  0  0  0  0
   14.3327    6.1068    1.4237 C   0  0  0  0  0  0  0  0  0  0  0  0
   13.3871    5.4205    2.4088 C   0  0  0  0  0  0  0  0  0  0  0  0
   12.4595    4.2720   -1.0003 C   0  0  0  0  0  0  0  0  0  0  0  0
    8.1580    3.3449   -2.5977 C   0  0  0  0  0  0  0  0  0  0  0  0
    8.5398    2.7746   -3.7479 F   0  0  0  0  0  0  0  0  0  0  0  0
    6.8334    3.2686   -2.1952 C   0  0  0  0  0  0  0  0  0  0  0  0
   -0.3819    3.4982   -3.0286 H   0  0  0  0  0  0  0  0  0  0  0  0
   -0.1161    4.2126   -1.4227 H   0  0  0  0  0  0  0  0  0  0  0  0
    0.0963    2.4641   -1.6644 H   0  0  0  0  0  0  0  0  0  0  0  0
    1.8411    4.6550   -2.9770 H   0  0  0  0  0  0  0  0  0  0  0  0
    2.0691    2.9199   -3.2041 H   0  0  0  0  0  0  0  0  0  0  0  0
    2.5476    2.6433   -0.7639 H   0  0  0  0  0  0  0  0  0  0  0  0
    2.3062    4.3776   -0.5090 H   0  0  0  0  0  0  0  0  0  0  0  0
    4.1622    4.6714   -2.1514 H   0  0  0  0  0  0  0  0  0  0  0  0
    4.8435    2.7761   -0.0212 H   0  0  0  0  0  0  0  0  0  0  0  0
    4.7933    4.5202    0.2501 H   0  0  0  0  0  0  0  0  0  0  0  0
    7.0839    5.0164    0.7135 H   0  0  0  0  0  0  0  0  0  0  0  0
    9.4538    5.1318   -0.0145 H   0  0  0  0  0  0  0  0  0  0  0  0
   10.9387    6.9132   -2.2445 H   0  0  0  0  0  0  0  0  0  0  0  0
   15.2176    5.8959   -0.5482 H   0  0  0  0  0  0  0  0  0  0  0  0
   14.7816    4.3483    0.2120 H   0  0  0  0  0  0  0  0  0  0  0  0
   13.9993    7.1395    1.2313 H   0  0  0  0  0  0  0  0  0  0  0  0
   15.3455    6.1786    1.8571 H   0  0  0  0  0  0  0  0  0  0  0  0
   12.3626    5.3612    2.0078 H   0  0  0  0  0  0  0  0  0  0  0  0
   13.3379    5.9738    3.3596 H   0  0  0  0  0  0  0  0  0  0  0  0
   13.7168    4.3930    2.6386 H   0  0  0  0  0  0  0  0  0  0  0  0
   12.7384    3.2572   -0.7277 H   0  0  0  0  0  0  0  0  0  0  0  0
    6.1105    2.7518   -2.8285 H   0  0  0  0  0  0  0  0  0  0  0  0
  1  2  1  0
  1 22  1  0
  1 23  1  0
  1 24  1  0
  2  3  1  0
  2 25  1  0
  2 26  1  0
  3  4  1  0
  3 27  1  0
  3 28  1  0
  4  5  1  0
  4 29  1  0
  5  6  1  0
  5 30  1  0
  5 31  1  0
  6  7  2  0
  6 21  1  0
  7  8  1  0
  7 32  1  0
  8  9  2  0
  8 33  1  0
  9 10  1  0
  9 19  1  0
 10 11  1  0
 11 12  1  0
 11 18  2  0
 12 13  2  0
 12 34  1  0
 13 14  1  0
 14 15  1  0
 14 18  1  0
 15 16  1  0
 15 35  1  0
 15 36  1  0
 16 17  1  0
 16 37  1  0
 16 38  1  0
 17 39  1  0
 17 40  1  0
 17 41  1  0
 18 42  1  0
 19 20  1  0
 19 21  2  0
 21 43  1  0
M  END

