
     RDKit          3D

 42 44  0  0  0  0  0  0  0  0999 V2000
    1.6610    1.4003    0.5271 O   0  0  0  0  0  0  0  0  0  0  0  0
    2.7323    0.8360    0.4029 C   0  0  0  0  0  0  0  0  0  0  0  0
    3.4466    0.1708    1.5703 C   0  0  0  0  0  0  0  0  0  0  0  0
    2.5223   -0.0449    2.7532 C   0  0  0  0  0  0  0  0  0  0  0  0
    1.6758   -1.1433    2.4433 O   0  0  0  0  0  0  0  0  0  0  0  0
    0.6971   -1.5024    3.3053 C   0  0  0  0  0  0  0  0  0  0  0  0
   -0.1127   -2.5865    2.9150 C   0  0  0  0  0  0  0  0  0  0  0  0
   -1.1376   -3.0246    3.7483 C   0  0  0  0  0  0  0  0  0  0  0  0
   -1.3851   -2.4060    4.9811 C   0  0  0  0  0  0  0  0  0  0  0  0
   -0.5724   -1.3385    5.3431 C   0  0  0  0  0  0  0  0  0  0  0  0
   -0.7834   -0.7237    6.5186 F   0  0  0  0  0  0  0  0  0  0  0  0
    0.4650   -0.8691    4.5363 C   0  0  0  0  0  0  0  0  0  0  0  0
    3.3398    0.8109   -0.8419 N   0  0  0  0  0  0  0  0  0  0  0  0
    4.5621    0.3138   -1.2932 C   0  0  0  0  0  0  0  0  0  0  0  0
    4.9801    0.3124   -2.6526 C   0  0  0  0  0  0  0  0  0  0  0  0
    6.2445   -0.2465   -2.6133 C   0  0  0  0  0  0  0  0  0  0  0  0
    6.5161   -0.5355   -1.3165 N   0  0  0  0  0  0  0  0  0  0  0  0
    7.6961   -1.1863   -0.7808 C   0  0  0  0  0  0  0  0  0  0  0  0
    7.6371   -2.7065   -0.7490 C   0  0  0  0  0  0  0  0  0  0  0  0
    6.4405   -3.4047   -0.5302 C   0  0  0  0  0  0  0  0  0  0  0  0
    6.4820   -4.7989   -0.4869 C   0  0  0  0  0  0  0  0  0  0  0  0
    7.7092   -5.4443   -0.6557 C   0  0  0  0  0  0  0  0  0  0  0  0
    8.8449   -4.6565   -0.8629 C   0  0  0  0  0  0  0  0  0  0  0  0
    8.8126   -3.3227   -0.9131 N   0  0  0  0  0  0  0  0  0  0  0  0
    5.4955   -0.2001   -0.4951 N   0  0  0  0  0  0  0  0  0  0  0  0
    4.2959    0.8117    1.8611 H   0  0  0  0  0  0  0  0  0  0  0  0
    3.8999   -0.7795    1.2582 H   0  0  0  0  0  0  0  0  0  0  0  0
    1.9196    0.8603    2.9339 H   0  0  0  0  0  0  0  0  0  0  0  0
    3.1122   -0.2701    3.6606 H   0  0  0  0  0  0  0  0  0  0  0  0
    0.0848   -3.0604    1.9522 H   0  0  0  0  0  0  0  0  0  0  0  0
   -1.7617   -3.8655    3.4352 H   0  0  0  0  0  0  0  0  0  0  0  0
   -2.1832   -2.7328    5.6489 H   0  0  0  0  0  0  0  0  0  0  0  0
    1.0563   -0.0251    4.8874 H   0  0  0  0  0  0  0  0  0  0  0  0
    2.7737    1.2788   -1.5432 H   0  0  0  0  0  0  0  0  0  0  0  0
    4.4386    0.6761   -3.5225 H   0  0  0  0  0  0  0  0  0  0  0  0
    6.9606   -0.4535   -3.4060 H   0  0  0  0  0  0  0  0  0  0  0  0
    7.8421   -0.7949    0.2384 H   0  0  0  0  0  0  0  0  0  0  0  0
    8.5729   -0.8951   -1.3754 H   0  0  0  0  0  0  0  0  0  0  0  0
    5.5046   -2.8605   -0.3932 H   0  0  0  0  0  0  0  0  0  0  0  0
    5.5672   -5.3735   -0.3198 H   0  0  0  0  0  0  0  0  0  0  0  0
    7.7880   -6.5334   -0.6292 H   0  0  0  0  0  0  0  0  0  0  0  0
    9.8263   -5.1259   -1.0006 H   0  0  0  0  0  0  0  0  0  0  0  0
  1  2  2  0
  2  3  1  0
  2 13  1  0
  3  4  1  0
  3 26  1  0
  3 27  1  0
  4  5  1  0
  4 28  1  0
  4 29  1  0
  5  6  1  0
  6  7  2  0
  6 12  1  0
  7  8  1  0
  7 30  1  0
  8  9  2  0
  8 31  1  0
  9 10  1  0
  9 32  1  0
 10 11  1  0
 10 12  2  0
 12 33  1  0
 13 14  1  0
 13 34  1  0
 14 15  1  0
 14 25  2  0
 15 16  2  0
 15 35  1  0
 16 17  1  0
 16 36  1  0
 17 18  1  0
 17 25  1  0
 18 19  1  0
 18 37  1  0
 18 38  1  0
 19 20  2  0
 19 24  1  0
 20 21  1  0
 20 39  1  0
 21 22  2  0
 21 40  1  0
 22 23  1  0
 22 41  1  0
 23 24  2  0
 23 42  1  0
M  END

