
     RDKit          3D

 61 65  0  0  0  0  0  0  0  0999 V2000
    1.4799    0.9247   -0.6327 C   0  0  0  0  0  0  0  0  0  0  0  0
    2.2963   -0.1560   -0.1203 N   0  0  0  0  0  0  0  0  0  0  0  0
    2.1137   -1.4997   -0.6291 C   0  0  0  0  0  0  0  0  0  0  0  0
    3.2216    0.0894    0.8754 C   0  0  0  0  0  0  0  0  0  0  0  0
    3.4134    1.3883    1.4093 C   0  0  0  0  0  0  0  0  0  0  0  0
    4.3516    1.6184    2.4093 C   0  0  0  0  0  0  0  0  0  0  0  0
    5.1550    0.5919    2.9457 C   0  0  0  0  0  0  0  0  0  0  0  0
    6.1210    0.9046    3.9956 C   0  0  0  0  0  0  0  0  0  0  0  0
    6.9667    0.0522    4.6216 C   0  0  0  0  0  0  0  0  0  0  0  0
    7.9307    0.3808    5.6725 C   0  0  0  0  0  0  0  0  0  0  0  0
    8.1192    1.6817    6.1899 C   0  0  0  0  0  0  0  0  0  0  0  0
    9.0483    1.9343    7.1921 C   0  0  0  0  0  0  0  0  0  0  0  0
    9.8488    0.9060    7.7315 C   0  0  0  0  0  0  0  0  0  0  0  0
   10.8419    1.1818    8.7989 C   0  0  0  0  0  0  0  0  0  0  0  0
   10.6624    2.2273    9.7189 C   0  0  0  0  0  0  0  0  0  0  0  0
   11.6260    2.4543   10.7122 C   0  0  0  0  0  0  0  0  0  0  0  0
   11.4373    3.5634   11.6961 C   0  0  0  0  0  0  0  0  0  0  0  0
   12.3859    3.7994   12.7065 C   0  0  0  0  0  0  0  0  0  0  0  0
   12.1693    4.8450   13.6018 C   0  0  0  0  0  0  0  0  0  0  0  0
   11.0175    5.6242   13.4673 C   0  0  0  0  0  0  0  0  0  0  0  0
   10.1321    5.3118   12.4303 C   0  0  0  0  0  0  0  0  0  0  0  0
   10.3324    4.3150   11.5708 N   0  0  0  0  0  0  0  0  0  0  0  0
   12.7292    1.7048   10.8280 N   0  0  0  0  0  0  0  0  0  0  0  0
   12.9187    0.7021    9.9614 C   0  0  0  0  0  0  0  0  0  0  0  0
   14.1613   -0.1149   10.1106 C   0  0  0  0  0  0  0  0  0  0  0  0
   15.0942    0.1704   11.1229 C   0  0  0  0  0  0  0  0  0  0  0  0
   16.2385   -0.6182   11.2251 C   0  0  0  0  0  0  0  0  0  0  0  0
   16.4223   -1.6656   10.3190 C   0  0  0  0  0  0  0  0  0  0  0  0
   15.4383   -1.8713    9.3462 C   0  0  0  0  0  0  0  0  0  0  0  0
   14.3423   -1.1225    9.2427 N   0  0  0  0  0  0  0  0  0  0  0  0
   12.0064    0.4093    8.9375 C   0  0  0  0  0  0  0  0  0  0  0  0
    9.6675   -0.3909    7.2168 C   0  0  0  0  0  0  0  0  0  0  0  0
    8.7319   -0.6447    6.2177 C   0  0  0  0  0  0  0  0  0  0  0  0
    4.9575   -0.6995    2.4112 C   0  0  0  0  0  0  0  0  0  0  0  0
    4.0266   -0.9507    1.4130 C   0  0  0  0  0  0  0  0  0  0  0  0
    0.8164    0.5407   -1.4180 H   0  0  0  0  0  0  0  0  0  0  0  0
    2.0903    1.7334   -1.0756 H   0  0  0  0  0  0  0  0  0  0  0  0
    0.8457    1.3802    0.1511 H   0  0  0  0  0  0  0  0  0  0  0  0
    1.3474   -1.4911   -1.4147 H   0  0  0  0  0  0  0  0  0  0  0  0
    1.7826   -2.2055    0.1559 H   0  0  0  0  0  0  0  0  0  0  0  0
    3.0414   -1.9077   -1.0712 H   0  0  0  0  0  0  0  0  0  0  0  0
    2.8259    2.2290    1.0424 H   0  0  0  0  0  0  0  0  0  0  0  0
    4.4682    2.6363    2.7933 H   0  0  0  0  0  0  0  0  0  0  0  0
    6.1377    1.9605    4.2875 H   0  0  0  0  0  0  0  0  0  0  0  0
    6.9543   -1.0047    4.3352 H   0  0  0  0  0  0  0  0  0  0  0  0
    7.5325    2.5149    5.7974 H   0  0  0  0  0  0  0  0  0  0  0  0
    9.1740    2.9585    7.5494 H   0  0  0  0  0  0  0  0  0  0  0  0
    9.7816    2.8675    9.7054 H   0  0  0  0  0  0  0  0  0  0  0  0
   13.2660    3.1602   12.7655 H   0  0  0  0  0  0  0  0  0  0  0  0
   12.8912    5.0501   14.3969 H   0  0  0  0  0  0  0  0  0  0  0  0
   10.8058    6.4536   14.1459 H   0  0  0  0  0  0  0  0  0  0  0  0
    9.2165    5.8996   12.2915 H   0  0  0  0  0  0  0  0  0  0  0  0
   14.9008    0.9999   11.8020 H   0  0  0  0  0  0  0  0  0  0  0  0
   16.9800   -0.4178   12.0032 H   0  0  0  0  0  0  0  0  0  0  0  0
   17.3037   -2.3095   10.3606 H   0  0  0  0  0  0  0  0  0  0  0  0
   15.5458   -2.6830    8.6164 H   0  0  0  0  0  0  0  0  0  0  0  0
   12.2443   -0.4088    8.2593 H   0  0  0  0  0  0  0  0  0  0  0  0
   10.2513   -1.2208    7.6206 H   0  0  0  0  0  0  0  0  0  0  0  0
    8.6087   -1.6665    5.8480 H   0  0  0  0  0  0  0  0  0  0  0  0
    5.5487   -1.5384    2.7857 H   0  0  0  0  0  0  0  0  0  0  0  0
    3.9235   -1.9709    1.0454 H   0  0  0  0  0  0  0  0  0  0  0  0
  1  2  1  0
  1 36  1  0
  1 37  1  0
  1 38  1  0
  2  3  1  0
  2  4  1  0
  3 39  1  0
  3 40  1  0
  3 41  1  0
  4  5  2  0
  4 35  1  0
  5  6  1  0
  5 42  1  0
  6  7  2  0
  6 43  1  0
  7  8  1  0
  7 34  1  0
  8  9  2  0
  8 44  1  0
  9 10  1  0
  9 45  1  0
 10 11  2  0
 10 33  1  0
 11 12  1  0
 11 46  1  0
 12 13  2  0
 12 47  1  0
 13 14  1  0
 13 32  1  0
 14 15  2  0
 14 31  1  0
 15 16  1  0
 15 48  1  0
 16 17  1  0
 16 23  2  0
 17 18  2  0
 17 22  1  0
 18 19  1  0
 18 49  1  0
 19 20  2  0
 19 50  1  0
 20 21  1  0
 20 51  1  0
 21 22  2  0
 21 52  1  0
 23 24  1  0
 24 25  1  0
 24 31  2  0
 25 26  2  0
 25 30  1  0
 26 27  1  0
 26 53  1  0
 27 28  2  0
 27 54  1  0
 28 29  1  0
 28 55  1  0
 29 30  2  0
 29 56  1  0
 31 57  1  0
 32 33  2  0
 32 58  1  0
 33 59  1  0
 34 35  2  0
 34 60  1  0
 35 61  1  0
M  END

