
     RDKit          3D

 32 33  0  0  0  0  0  0  0  0999 V2000
    0.9109    0.4658   -0.6024 Br  0  0  0  0  0  0  0  0  0  0  0  0
    2.8422    0.8579   -0.6832 C   0  0  0  0  0  0  0  0  0  0  0  0
    3.6380   -0.4031   -1.0133 C   0  0  0  0  0  0  0  0  0  0  0  0
    5.0657   -0.1326   -1.1547 N   0  0  0  0  0  0  0  0  0  0  0  0
    5.8574   -0.1535   -0.0162 C   0  0  0  0  0  0  0  0  0  0  0  0
    7.2777   -0.1798   -0.0566 C   0  0  0  0  0  0  0  0  0  0  0  0
    7.9793   -0.1774    1.1428 C   0  0  0  0  0  0  0  0  0  0  0  0
    7.2887   -0.1671    2.3606 C   0  0  0  0  0  0  0  0  0  0  0  0
    5.8960   -0.1682    2.2974 C   0  0  0  0  0  0  0  0  0  0  0  0
    5.2037   -0.1565    1.1585 N   0  0  0  0  0  0  0  0  0  0  0  0
    5.6438   -0.0385   -2.4907 C   0  0  1  0  0  0  0  0  0  0  0  0
    5.8707   -1.3889   -3.2212 C   0  0  0  0  0  0  0  0  0  0  0  0
    5.9159   -1.0432   -4.7334 C   0  0  0  0  0  0  0  0  0  0  0  0
    5.5926    0.4713   -4.8311 C   0  0  0  0  0  0  0  0  0  0  0  0
    4.8640    0.8013   -3.5218 C   0  0  0  0  0  0  0  0  0  0  0  0
    3.1227    1.2432    0.3031 H   0  0  0  0  0  0  0  0  0  0  0  0
    2.9594    1.6390   -1.4439 H   0  0  0  0  0  0  0  0  0  0  0  0
    3.2639   -0.8475   -1.9471 H   0  0  0  0  0  0  0  0  0  0  0  0
    3.4837   -1.1356   -0.2096 H   0  0  0  0  0  0  0  0  0  0  0  0
    7.8233   -0.2255   -0.9978 H   0  0  0  0  0  0  0  0  0  0  0  0
    9.0725   -0.1979    1.1253 H   0  0  0  0  0  0  0  0  0  0  0  0
    7.8094   -0.1678    3.3197 H   0  0  0  0  0  0  0  0  0  0  0  0
    5.3010   -0.1743    3.2191 H   0  0  0  0  0  0  0  0  0  0  0  0
    6.6165    0.4624   -2.3802 H   0  0  0  0  0  0  0  0  0  0  0  0
    5.0286   -2.0637   -2.9980 H   0  0  0  0  0  0  0  0  0  0  0  0
    6.7803   -1.8954   -2.8637 H   0  0  0  0  0  0  0  0  0  0  0  0
    5.1692   -1.6351   -5.2853 H   0  0  0  0  0  0  0  0  0  0  0  0
    6.8917   -1.2755   -5.1865 H   0  0  0  0  0  0  0  0  0  0  0  0
    5.0035    0.7266   -5.7248 H   0  0  0  0  0  0  0  0  0  0  0  0
    6.5265    1.0557   -4.8877 H   0  0  0  0  0  0  0  0  0  0  0  0
    3.8139    0.4704   -3.5835 H   0  0  0  0  0  0  0  0  0  0  0  0
    4.8617    1.8754   -3.2784 H   0  0  0  0  0  0  0  0  0  0  0  0
  1  2  1  0
  2  3  1  0
  2 16  1  0
  2 17  1  0
  3  4  1  0
  3 18  1  0
  3 19  1  0
  4  5  1  0
  4 11  1  0
  5  6  2  0
  5 10  1  0
  6  7  1  0
  6 20  1  0
  7  8  2  0
  7 21  1  0
  8  9  1  0
  8 22  1  0
  9 10  2  0
  9 23  1  0
 11 12  1  0
 11 15  1  0
 11 24  1  1
 12 13  1  0
 12 25  1  0
 12 26  1  0
 13 14  1  0
 13 27  1  0
 13 28  1  0
 14 15  1  0
 14 29  1  0
 14 30  1  0
 15 31  1  0
 15 32  1  0
M  END

