
     RDKit          3D

 99107  0  0  0  0  0  0  0  0999 V2000
    1.3485   -1.5394   -1.5644 C   0  0  0  0  0  0  0  0  0  0  0  0
    2.5188   -0.9339   -0.7881 C   0  0  0  0  0  0  0  0  0  0  0  0
    3.0940   -1.8732    0.2781 C   0  0  0  0  0  0  0  0  0  0  0  0
    4.2643   -1.2556    1.0478 C   0  0  0  0  0  0  0  0  0  0  0  0
    4.9147   -2.1360    2.1542 C   0  0  2  0  0  0  0  0  0  0  0  0
    6.0725   -1.3232    2.8021 C   0  0  0  0  0  0  0  0  0  0  0  0
    6.8493   -2.0119    3.9273 C   0  0  0  0  0  0  0  0  0  0  0  0
    7.9695   -1.1378    4.5025 C   0  0  0  0  0  0  0  0  0  0  0  0
    8.7526   -1.8152    5.6281 C   0  0  0  0  0  0  0  0  0  0  0  0
    5.3979   -3.4792    1.6035 C   0  0  0  0  0  0  0  0  0  0  0  0
    6.3465   -3.7231    0.6182 C   0  0  0  0  0  0  0  0  0  0  0  0
    6.6484   -5.0484    0.2309 C   0  0  0  0  0  0  0  0  0  0  0  0
    7.6566   -5.3203   -0.8220 C   0  0  0  0  0  0  0  0  0  0  0  0
    8.7886   -4.4934   -0.9800 C   0  0  0  0  0  0  0  0  0  0  0  0
    9.7303   -4.7529   -1.9671 C   0  0  0  0  0  0  0  0  0  0  0  0
    9.5922   -5.8499   -2.8512 C   0  0  0  0  0  0  0  0  0  0  0  0
   10.6303   -6.0335   -3.8478 C   0  0  0  0  0  0  0  0  0  0  0  0
   10.8484   -6.9355   -4.8480 C   0  0  0  0  0  0  0  0  0  0  0  0
   10.1047   -8.1296   -5.3459 C   0  0  0  0  0  0  0  0  0  0  0  0
    9.0580   -8.6165   -4.9537 O   0  0  0  0  0  0  0  0  0  0  0  0
   10.9106   -8.6742   -6.4863 C   0  0  0  0  0  0  0  0  0  0  0  0
   10.6418   -9.7850   -7.2857 C   0  0  0  0  0  0  0  0  0  0  0  0
   11.5543  -10.0974   -8.2994 C   0  0  0  0  0  0  0  0  0  0  0  0
   12.7052   -9.3149   -8.5039 C   0  0  0  0  0  0  0  0  0  0  0  0
   12.9703   -8.2014   -7.6991 C   0  0  0  0  0  0  0  0  0  0  0  0
   12.0575   -7.8949   -6.6905 C   0  0  0  0  0  0  0  0  0  0  0  0
   12.0819   -6.7829   -5.6936 C   0  0  0  0  0  0  0  0  0  0  0  0
   12.9340   -5.9233   -5.5897 O   0  0  0  0  0  0  0  0  0  0  0  0
    8.4565   -6.6794   -2.6950 C   0  0  0  0  0  0  0  0  0  0  0  0
    7.5195   -6.4144   -1.7035 C   0  0  0  0  0  0  0  0  0  0  0  0
    5.9686   -6.1081    0.8702 C   0  0  0  0  0  0  0  0  0  0  0  0
    5.0190   -5.8715    1.8643 C   0  0  0  0  0  0  0  0  0  0  0  0
    4.7304   -4.5528    2.2324 C   0  0  0  0  0  0  0  0  0  0  0  0
    3.7947   -4.0050    3.2186 C   0  0  0  0  0  0  0  0  0  0  0  0
    2.9034   -4.6326    4.0959 C   0  0  0  0  0  0  0  0  0  0  0  0
    2.1127   -3.8497    4.9374 C   0  0  0  0  0  0  0  0  0  0  0  0
    2.1943   -2.4401    4.9277 C   0  0  0  0  0  0  0  0  0  0  0  0
    1.3477   -1.6244    5.8315 C   0  0  0  0  0  0  0  0  0  0  0  0
    1.8143   -0.4058    6.3703 C   0  0  0  0  0  0  0  0  0  0  0  0
    1.0322    0.3688    7.2184 C   0  0  0  0  0  0  0  0  0  0  0  0
   -0.2740   -0.0458    7.5703 C   0  0  0  0  0  0  0  0  0  0  0  0
   -1.1746    0.6826    8.4439 C   0  0  0  0  0  0  0  0  0  0  0  0
   -1.0941    1.8529    9.1406 C   0  0  0  0  0  0  0  0  0  0  0  0
   -0.0354    2.8925    9.2999 C   0  0  0  0  0  0  0  0  0  0  0  0
    1.0823    2.9489    8.8162 O   0  0  0  0  0  0  0  0  0  0  0  0
   -0.6084    3.9306   10.2169 C   0  0  0  0  0  0  0  0  0  0  0  0
   -0.0134    5.1053   10.6765 C   0  0  0  0  0  0  0  0  0  0  0  0
   -0.7574    5.9231   11.5341 C   0  0  0  0  0  0  0  0  0  0  0  0
   -2.0634    5.5698   11.9192 C   0  0  0  0  0  0  0  0  0  0  0  0
   -2.6558    4.3901   11.4553 C   0  0  0  0  0  0  0  0  0  0  0  0
   -1.9096    3.5791   10.6010 C   0  0  0  0  0  0  0  0  0  0  0  0
   -2.2793    2.2817    9.9598 C   0  0  0  0  0  0  0  0  0  0  0  0
   -3.3342    1.6910   10.0786 O   0  0  0  0  0  0  0  0  0  0  0  0
   -0.7428   -1.2673    7.0297 C   0  0  0  0  0  0  0  0  0  0  0  0
    0.0454   -2.0368    6.1841 C   0  0  0  0  0  0  0  0  0  0  0  0
    3.1025   -1.8239    4.0373 C   0  0  0  0  0  0  0  0  0  0  0  0
    3.8896   -2.5965    3.1924 C   0  0  0  0  0  0  0  0  0  0  0  0
    0.9595   -0.8398   -2.3215 H   0  0  0  0  0  0  0  0  0  0  0  0
    0.5140   -1.8002   -0.8921 H   0  0  0  0  0  0  0  0  0  0  0  0
    1.6496   -2.4625   -2.0875 H   0  0  0  0  0  0  0  0  0  0  0  0
    2.1946    0.0077   -0.3082 H   0  0  0  0  0  0  0  0  0  0  0  0
    3.3206   -0.6488   -1.4938 H   0  0  0  0  0  0  0  0  0  0  0  0
    3.4192   -2.8115   -0.2041 H   0  0  0  0  0  0  0  0  0  0  0  0
    2.2920   -2.1545    0.9827 H   0  0  0  0  0  0  0  0  0  0  0  0
    3.9329   -0.3122    1.5176 H   0  0  0  0  0  0  0  0  0  0  0  0
    5.0575   -0.9688    0.3342 H   0  0  0  0  0  0  0  0  0  0  0  0
    5.6502   -0.3747    3.1798 H   0  0  0  0  0  0  0  0  0  0  0  0
    6.7744   -1.0352    1.9988 H   0  0  0  0  0  0  0  0  0  0  0  0
    7.2824   -2.9574    3.5565 H   0  0  0  0  0  0  0  0  0  0  0  0
    6.1567   -2.2930    4.7397 H   0  0  0  0  0  0  0  0  0  0  0  0
    7.5388   -0.1893    4.8725 H   0  0  0  0  0  0  0  0  0  0  0  0
    8.6636   -0.8530    3.6904 H   0  0  0  0  0  0  0  0  0  0  0  0
    8.0937   -2.0777    6.4726 H   0  0  0  0  0  0  0  0  0  0  0  0
    9.5487   -1.1612    6.0181 H   0  0  0  0  0  0  0  0  0  0  0  0
    9.2279   -2.7478    5.2805 H   0  0  0  0  0  0  0  0  0  0  0  0
    6.8432   -2.8894    0.1161 H   0  0  0  0  0  0  0  0  0  0  0  0
    8.9452   -3.6534   -0.3004 H   0  0  0  0  0  0  0  0  0  0  0  0
   10.6041   -4.1026   -2.0604 H   0  0  0  0  0  0  0  0  0  0  0  0
   11.4305   -5.2818   -3.7989 H   0  0  0  0  0  0  0  0  0  0  0  0
    9.7437  -10.3825   -7.1143 H   0  0  0  0  0  0  0  0  0  0  0  0
   11.3739  -10.9615   -8.9442 H   0  0  0  0  0  0  0  0  0  0  0  0
   13.3995   -9.5841   -9.3040 H   0  0  0  0  0  0  0  0  0  0  0  0
   13.8593   -7.5838   -7.8451 H   0  0  0  0  0  0  0  0  0  0  0  0
    8.3219   -7.5254   -3.3695 H   0  0  0  0  0  0  0  0  0  0  0  0
    6.6410   -7.0583   -1.6265 H   0  0  0  0  0  0  0  0  0  0  0  0
    6.2102   -7.1382    0.6007 H   0  0  0  0  0  0  0  0  0  0  0  0
    4.5166   -6.7123    2.3492 H   0  0  0  0  0  0  0  0  0  0  0  0
    2.8265   -5.7221    4.1336 H   0  0  0  0  0  0  0  0  0  0  0  0
    1.4362   -4.3417    5.6392 H   0  0  0  0  0  0  0  0  0  0  0  0
    2.8278   -0.0708    6.1403 H   0  0  0  0  0  0  0  0  0  0  0  0
    1.4204    1.3012    7.6291 H   0  0  0  0  0  0  0  0  0  0  0  0
   -2.1474    0.1919    8.5875 H   0  0  0  0  0  0  0  0  0  0  0  0
    1.0016    5.3657   10.3683 H   0  0  0  0  0  0  0  0  0  0  0  0
   -0.3211    6.8510   11.9128 H   0  0  0  0  0  0  0  0  0  0  0  0
   -2.6197    6.2291   12.5905 H   0  0  0  0  0  0  0  0  0  0  0  0
   -3.6687    4.1017   11.7451 H   0  0  0  0  0  0  0  0  0  0  0  0
   -1.7524   -1.6052    7.2782 H   0  0  0  0  0  0  0  0  0  0  0  0
   -0.3626   -2.9592    5.7662 H   0  0  0  0  0  0  0  0  0  0  0  0
    3.1612   -0.7336    3.9977 H   0  0  0  0  0  0  0  0  0  0  0  0
  1  2  1  0
  1 58  1  0
  1 59  1  0
  1 60  1  0
  2  3  1  0
  2 61  1  0
  2 62  1  0
  3  4  1  0
  3 63  1  0
  3 64  1  0
  5  4  1  6
  4 65  1  0
  4 66  1  0
  5  6  1  0
  5 10  1  0
  5 57  1  0
  6  7  1  0
  6 67  1  0
  6 68  1  0
  7  8  1  0
  7 69  1  0
  7 70  1  0
  8  9  1  0
  8 71  1  0
  8 72  1  0
  9 73  1  0
  9 74  1  0
  9 75  1  0
 10 11  2  0
 10 33  1  0
 11 12  1  0
 11 76  1  0
 12 13  1  0
 12 31  2  0
 13 14  2  0
 13 30  1  0
 14 15  1  0
 14 77  1  0
 15 16  2  0
 15 78  1  0
 16 17  1  0
 16 29  1  0
 17 18  2  0
 17 79  1  0
 18 19  1  0
 18 27  1  0
 19 20  2  0
 19 21  1  0
 21 22  1  0
 21 26  2  0
 22 23  2  0
 22 80  1  0
 23 24  1  0
 23 81  1  0
 24 25  2  0
 24 82  1  0
 25 26  1  0
 25 83  1  0
 26 27  1  0
 27 28  2  0
 29 30  2  0
 29 84  1  0
 30 85  1  0
 31 32  1  0
 31 86  1  0
 32 33  2  0
 32 87  1  0
 33 34  1  0
 34 35  2  0
 34 57  1  0
 35 36  1  0
 35 88  1  0
 36 37  2  0
 36 89  1  0
 37 38  1  0
 37 56  1  0
 38 39  2  0
 38 55  1  0
 39 40  1  0
 39 90  1  0
 40 41  2  0
 40 91  1  0
 41 42  1  0
 41 54  1  0
 42 43  2  0
 42 92  1  0
 43 44  1  0
 43 52  1  0
 44 45  2  0
 44 46  1  0
 46 47  1  0
 46 51  2  0
 47 48  2  0
 47 93  1  0
 48 49  1  0
 48 94  1  0
 49 50  2  0
 49 95  1  0
 50 51  1  0
 50 96  1  0
 51 52  1  0
 52 53  2  0
 54 55  2  0
 54 97  1  0
 55 98  1  0
 56 57  2  0
 56 99  1  0
M  END

