
     RDKit          3D

 28 29  0  0  0  0  0  0  0  0999 V2000
    2.3091    0.1692    1.9067 O   0  0  0  0  0  0  0  0  0  0  0  0
    1.9719   -0.3121    0.8555 C   0  0  0  0  0  0  0  0  0  0  0  0
    0.8032   -0.0467    0.2851 O   0  0  0  0  0  0  0  0  0  0  0  0
    2.8890   -1.2737    0.0519 C   0  0  1  0  0  0  0  0  0  0  0  0
    4.2666   -1.4579    0.7010 C   0  0  0  0  0  0  0  0  0  0  0  0
    4.6355   -2.9222    0.4423 C   0  0  2  0  0  0  0  0  0  0  0  0
    5.2435   -3.1394   -0.8136 O   0  0  0  0  0  0  0  0  0  0  0  0
    3.2733   -3.6271    0.5509 C   0  0  0  0  0  0  0  0  0  0  0  0
    2.3366   -2.6539   -0.0286 N   0  0  0  0  0  0  0  0  0  0  0  0
    1.2825   -2.8973   -0.8656 C   0  0  0  0  0  0  0  0  0  0  0  0
    0.7713   -1.9661   -1.5079 O   0  0  0  0  0  0  0  0  0  0  0  0
    0.7344   -4.2566   -1.0186 C   0  0  0  0  0  0  0  0  0  0  0  0
   -0.0791   -4.6756   -2.0680 C   0  0  0  0  0  0  0  0  0  0  0  0
   -0.4318   -6.0189   -1.8058 C   0  0  0  0  0  0  0  0  0  0  0  0
   -1.5011   -7.1302   -2.8872 Br  0  0  0  0  0  0  0  0  0  0  0  0
    0.1485   -6.3905   -0.6012 C   0  0  0  0  0  0  0  0  0  0  0  0
    0.8612   -5.3203   -0.1431 N   0  0  0  0  0  0  0  0  0  0  0  0
    1.3090   -5.2855    0.7629 H   0  0  0  0  0  0  0  0  0  0  0  0
    0.6917   -0.6023   -0.5310 H   0  0  0  0  0  0  0  0  0  0  0  0
    2.9491   -0.8735   -0.9758 H   0  0  0  0  0  0  0  0  0  0  0  0
    4.1759   -1.2542    1.7782 H   0  0  0  0  0  0  0  0  0  0  0  0
    5.0226   -0.7726    0.2938 H   0  0  0  0  0  0  0  0  0  0  0  0
    5.3439   -3.3133    1.1872 H   0  0  0  0  0  0  0  0  0  0  0  0
    4.7037   -2.7279   -1.5026 H   0  0  0  0  0  0  0  0  0  0  0  0
    3.0296   -3.8428    1.6086 H   0  0  0  0  0  0  0  0  0  0  0  0
    3.2837   -4.5638   -0.0208 H   0  0  0  0  0  0  0  0  0  0  0  0
   -0.3683   -4.0630   -2.9173 H   0  0  0  0  0  0  0  0  0  0  0  0
    0.0958   -7.3278   -0.0529 H   0  0  0  0  0  0  0  0  0  0  0  0
  1  2  2  0
  2  3  1  0
  2  4  1  0
  3 19  1  0
  4  5  1  0
  4  9  1  0
  4 20  1  6
  5  6  1  0
  5 21  1  0
  5 22  1  0
  6  7  1  0
  6  8  1  0
  6 23  1  1
  7 24  1  0
  8  9  1  0
  8 25  1  0
  8 26  1  0
  9 10  1  0
 10 11  2  0
 10 12  1  0
 12 13  2  0
 12 17  1  0
 13 14  1  0
 13 27  1  0
 14 15  1  0
 14 16  2  0
 16 17  1  0
 16 28  1  0
 17 18  1  0
M  END

