
     RDKit          3D

 40 41  0  0  0  0  0  0  0  0999 V2000
    1.3704    0.2625    1.0890 C   0  0  0  0  0  0  0  0  0  0  0  0
    2.6527    0.1300    0.2568 C   0  0  1  0  0  0  0  0  0  0  0  0
    2.6995   -1.1714   -0.5633 C   0  0  0  0  0  0  0  0  0  0  0  0
    4.0444   -1.4676   -1.2473 C   0  0  0  0  0  0  0  0  0  0  0  0
    4.4691   -0.4597   -2.3317 C   0  0  0  0  0  0  0  0  0  0  0  0
    5.1568    0.8299   -1.8502 C   0  0  0  0  0  0  0  0  0  0  0  0
    4.4872    1.5368   -0.6509 C   0  0  0  0  0  0  0  0  0  0  0  0
    3.0376    1.3144   -0.5484 N   0  0  0  0  0  0  0  0  0  0  0  0
    2.2769    2.0437   -1.4324 C   0  0  0  0  0  0  0  0  0  0  0  0
    2.7876    2.8822   -2.1600 O   0  0  0  0  0  0  0  0  0  0  0  0
    0.7558    1.8034   -1.4880 C   0  0  0  0  0  0  0  0  0  0  0  0
    0.0714    2.5545   -2.5911 C   0  0  0  0  0  0  0  0  0  0  0  0
   -0.8497    3.5710   -2.4696 C   0  0  0  0  0  0  0  0  0  0  0  0
   -1.3397    4.0460   -3.7192 C   0  0  0  0  0  0  0  0  0  0  0  0
   -0.7823    3.3716   -4.7787 C   0  0  0  0  0  0  0  0  0  0  0  0
   -1.0788    3.6969   -6.5004 S   0  0  1  0  0  0  0  0  0  0  0  0
    0.1650    4.6832   -7.0324 N   0  0  0  0  0  0  0  0  0  0  0  0
   -0.9092    2.4351   -7.2129 O   0  0  0  0  0  0  0  0  0  0  0  0
   -2.2885    4.5108   -6.5657 O   0  0  0  0  0  0  0  0  0  0  0  0
    0.3400    2.1510   -4.2619 S   0  0  0  0  0  0  0  0  0  0  0  0
    1.3926   -0.4910    1.8913 H   0  0  0  0  0  0  0  0  0  0  0  0
    0.4513    0.0872    0.5140 H   0  0  0  0  0  0  0  0  0  0  0  0
    1.3072    1.2533    1.5643 H   0  0  0  0  0  0  0  0  0  0  0  0
    3.4640    0.0592    0.9985 H   0  0  0  0  0  0  0  0  0  0  0  0
    1.9016   -1.1501   -1.3283 H   0  0  0  0  0  0  0  0  0  0  0  0
    2.4470   -2.0066    0.1132 H   0  0  0  0  0  0  0  0  0  0  0  0
    3.9654   -2.4659   -1.7092 H   0  0  0  0  0  0  0  0  0  0  0  0
    4.8391   -1.5577   -0.4829 H   0  0  0  0  0  0  0  0  0  0  0  0
    3.5816   -0.1969   -2.9345 H   0  0  0  0  0  0  0  0  0  0  0  0
    5.1570   -0.9594   -3.0340 H   0  0  0  0  0  0  0  0  0  0  0  0
    5.2023    1.5290   -2.6989 H   0  0  0  0  0  0  0  0  0  0  0  0
    6.2016    0.6096   -1.5690 H   0  0  0  0  0  0  0  0  0  0  0  0
    4.6676    2.6179   -0.7186 H   0  0  0  0  0  0  0  0  0  0  0  0
    4.9285    1.1854    0.2930 H   0  0  0  0  0  0  0  0  0  0  0  0
    0.3094    2.1216   -0.5348 H   0  0  0  0  0  0  0  0  0  0  0  0
    0.5527    0.7247   -1.5787 H   0  0  0  0  0  0  0  0  0  0  0  0
   -1.1712    3.9638   -1.5032 H   0  0  0  0  0  0  0  0  0  0  0  0
   -2.0777    4.8380   -3.8490 H   0  0  0  0  0  0  0  0  0  0  0  0
    1.0724    4.2198   -7.0255 H   0  0  0  0  0  0  0  0  0  0  0  0
    0.1761    5.5948   -6.5775 H   0  0  0  0  0  0  0  0  0  0  0  0
  1  2  1  0
  1 21  1  0
  1 22  1  0
  1 23  1  0
  2  3  1  0
  2  8  1  0
  2 24  1  1
  3  4  1  0
  3 25  1  0
  3 26  1  0
  4  5  1  0
  4 27  1  0
  4 28  1  0
  5  6  1  0
  5 29  1  0
  5 30  1  0
  6  7  1  0
  6 31  1  0
  6 32  1  0
  7  8  1  0
  7 33  1  0
  7 34  1  0
  8  9  1  0
  9 10  2  0
  9 11  1  0
 11 12  1  0
 11 35  1  0
 11 36  1  0
 12 13  2  0
 12 20  1  0
 13 14  1  0
 13 37  1  0
 14 15  2  0
 14 38  1  0
 15 16  1  0
 15 20  1  0
 16 17  1  6
 16 18  2  0
 16 19  2  0
 17 39  1  0
 17 40  1  0
M  END

