
     RDKit          3D

 49 52  0  0  0  0  0  0  0  0999 V2000
    3.5098    2.6666   -3.9247 C   0  0  0  0  0  0  0  0  0  0  0  0
    3.2193    2.9640   -2.4524 C   0  0  0  0  0  0  0  0  0  0  0  0
    3.7564    1.9358   -1.4479 C   0  0  1  0  0  0  0  0  0  0  0  0
    3.5406    2.3090   -0.4360 H   0  0  0  0  0  0  0  0  0  0  0  0
    3.2053    0.5267   -1.6113 C   0  0  0  0  0  0  0  0  0  0  0  0
    5.2004    1.8266   -1.5667 O   0  0  0  0  0  0  0  0  0  0  0  0
    5.9614    2.7105   -0.8961 C   0  0  0  0  0  0  0  0  0  0  0  0
    5.4746    3.5968   -0.2068 O   0  0  0  0  0  0  0  0  0  0  0  0
    7.4070    2.5160   -1.0809 C   0  0  0  0  0  0  0  0  0  0  0  0
    8.3068    3.4168   -0.5009 C   0  0  0  0  0  0  0  0  0  0  0  0
    7.9612    4.4997    0.2767 N   0  0  0  0  0  0  0  0  0  0  0  0
    8.8580    5.3770    0.8304 C   0  0  0  0  0  0  0  0  0  0  0  0
   10.0643    5.2940    0.6868 O   0  0  0  0  0  0  0  0  0  0  0  0
    8.2006    6.4580    1.6304 C   0  0  0  0  0  0  0  0  0  0  0  0
    6.8608    6.5478    1.7826 N   0  0  0  0  0  0  0  0  0  0  0  0
    6.7039    7.6213    2.5450 C   0  0  0  0  0  0  0  0  0  0  0  0
    5.5930    8.1990    3.0237 N   0  0  0  0  0  0  0  0  0  0  0  0
    5.7519    9.2740    3.7662 C   0  0  0  0  0  0  0  0  0  0  0  0
    7.0186    9.8469    4.0831 C   0  0  0  0  0  0  0  0  0  0  0  0
    8.1542    9.2525    3.5909 C   0  0  0  0  0  0  0  0  0  0  0  0
    7.9844    8.1431    2.8248 N   0  0  0  0  0  0  0  0  0  0  0  0
    8.9301    7.3987    2.2403 N   0  0  0  0  0  0  0  0  0  0  0  0
    9.9588    3.0253   -0.8781 S   0  0  0  0  0  0  0  0  0  0  0  0
    9.4489    1.6347   -1.8117 C   0  0  0  0  0  0  0  0  0  0  0  0
    8.0868    1.4770   -1.8303 C   0  0  0  0  0  0  0  0  0  0  0  0
    7.4468    0.3265   -2.5754 C   0  0  0  0  0  0  0  0  0  0  0  0
    8.4714   -0.7467   -2.9737 C   0  0  0  0  0  0  0  0  0  0  0  0
    9.7553   -0.1348   -3.5430 C   0  0  0  0  0  0  0  0  0  0  0  0
   10.4516    0.7431   -2.4929 C   0  0  0  0  0  0  0  0  0  0  0  0
    3.1394    3.4827   -4.5648 H   0  0  0  0  0  0  0  0  0  0  0  0
    3.0261    1.7374   -4.2665 H   0  0  0  0  0  0  0  0  0  0  0  0
    4.5916    2.5666   -4.1047 H   0  0  0  0  0  0  0  0  0  0  0  0
    2.1297    3.0417   -2.2888 H   0  0  0  0  0  0  0  0  0  0  0  0
    3.6370    3.9454   -2.1765 H   0  0  0  0  0  0  0  0  0  0  0  0
    2.1072    0.5395   -1.5295 H   0  0  0  0  0  0  0  0  0  0  0  0
    3.6005   -0.1357   -0.8263 H   0  0  0  0  0  0  0  0  0  0  0  0
    3.4738    0.0960   -2.5878 H   0  0  0  0  0  0  0  0  0  0  0  0
    6.9499    4.6164    0.4300 H   0  0  0  0  0  0  0  0  0  0  0  0
    4.8410    9.7434    4.1558 H   0  0  0  0  0  0  0  0  0  0  0  0
    7.0880   10.7400    4.7044 H   0  0  0  0  0  0  0  0  0  0  0  0
    9.1805    9.5849    3.7554 H   0  0  0  0  0  0  0  0  0  0  0  0
    6.9360    0.7166   -3.4746 H   0  0  0  0  0  0  0  0  0  0  0  0
    6.6479   -0.1179   -1.9647 H   0  0  0  0  0  0  0  0  0  0  0  0
    8.0166   -1.4372   -3.7027 H   0  0  0  0  0  0  0  0  0  0  0  0
    8.7283   -1.3546   -2.0871 H   0  0  0  0  0  0  0  0  0  0  0  0
    9.5075    0.4788   -4.4277 H   0  0  0  0  0  0  0  0  0  0  0  0
   10.4442   -0.9234   -3.8871 H   0  0  0  0  0  0  0  0  0  0  0  0
   11.2503    1.3444   -2.9600 H   0  0  0  0  0  0  0  0  0  0  0  0
   10.9559    0.1006   -1.7458 H   0  0  0  0  0  0  0  0  0  0  0  0
  1  2  1  0
  1 30  1  0
  1 31  1  0
  1 32  1  0
  2  3  1  0
  2 33  1  0
  2 34  1  0
  3  4  1  1
  3  5  1  0
  3  6  1  0
  5 35  1  0
  5 36  1  0
  5 37  1  0
  6  7  1  0
  7  8  2  0
  7  9  1  0
  9 10  2  0
  9 25  1  0
 10 11  1  0
 10 23  1  0
 11 12  1  0
 11 38  1  0
 12 13  2  0
 12 14  1  0
 14 15  1  0
 14 22  2  0
 15 16  2  0
 16 17  1  0
 16 21  1  0
 17 18  2  0
 18 19  1  0
 18 39  1  0
 19 20  2  0
 19 40  1  0
 20 21  1  0
 20 41  1  0
 21 22  1  0
 23 24  1  0
 24 25  2  0
 24 29  1  0
 25 26  1  0
 26 27  1  0
 26 42  1  0
 26 43  1  0
 27 28  1  0
 27 44  1  0
 27 45  1  0
 28 29  1  0
 28 46  1  0
 28 47  1  0
 29 48  1  0
 29 49  1  0
M  END

