
     RDKit          3D

 30 32  0  0  0  0  0  0  0  0999 V2000
    1.4246   -0.0718    2.0044 C   0  0  0  0  0  0  0  0  0  0  0  0
    2.5569    0.0011    1.0190 C   0  0  0  0  0  0  0  0  0  0  0  0
    3.5121    1.4560    0.9437 S   0  0  0  0  0  0  0  0  0  0  0  0
    4.5747    0.7890   -0.2522 C   0  0  0  0  0  0  0  0  0  0  0  0
    4.2265   -0.4935   -0.5619 C   0  0  0  0  0  0  0  0  0  0  0  0
    3.0582   -0.9501    0.1428 C   0  0  0  0  0  0  0  0  0  0  0  0
    2.6006   -2.3661   -0.0342 C   0  0  0  0  0  0  0  0  0  0  0  0
    3.4344   -3.2473   -0.1706 O   0  0  0  0  0  0  0  0  0  0  0  0
    1.1381   -2.6996   -0.0931 C   0  0  0  0  0  0  0  0  0  0  0  0
    0.1663   -1.7631   -0.4883 C   0  0  0  0  0  0  0  0  0  0  0  0
   -1.1793   -2.1304   -0.6060 C   0  0  0  0  0  0  0  0  0  0  0  0
   -1.5509   -3.4391   -0.3004 C   0  0  0  0  0  0  0  0  0  0  0  0
   -0.5860   -4.3829    0.0885 C   0  0  0  0  0  0  0  0  0  0  0  0
    0.7551   -4.0298    0.1744 C   0  0  0  0  0  0  0  0  0  0  0  0
   -1.2803   -5.7157    0.3130 C   0  0  0  0  0  0  0  0  0  0  0  0
   -2.7182   -5.3975    0.3741 N   0  0  0  0  0  0  0  0  0  0  0  0
   -2.9046   -4.1244   -0.3424 C   0  0  0  0  0  0  0  0  0  0  0  0
    1.7035    0.4011    2.9590 H   0  0  0  0  0  0  0  0  0  0  0  0
    1.1469   -1.1136    2.2102 H   0  0  0  0  0  0  0  0  0  0  0  0
    0.5220    0.4433    1.6346 H   0  0  0  0  0  0  0  0  0  0  0  0
    5.3974    1.3821   -0.6488 H   0  0  0  0  0  0  0  0  0  0  0  0
    4.7630   -1.1246   -1.2707 H   0  0  0  0  0  0  0  0  0  0  0  0
    0.4708   -0.7421   -0.7265 H   0  0  0  0  0  0  0  0  0  0  0  0
   -1.9207   -1.3953   -0.9316 H   0  0  0  0  0  0  0  0  0  0  0  0
    1.5312   -4.7496    0.4446 H   0  0  0  0  0  0  0  0  0  0  0  0
   -0.9509   -6.2398    1.2241 H   0  0  0  0  0  0  0  0  0  0  0  0
   -1.0707   -6.3968   -0.5349 H   0  0  0  0  0  0  0  0  0  0  0  0
   -2.9717   -5.2540    1.3500 H   0  0  0  0  0  0  0  0  0  0  0  0
   -3.7173   -3.5302    0.1055 H   0  0  0  0  0  0  0  0  0  0  0  0
   -3.1964   -4.3109   -1.3951 H   0  0  0  0  0  0  0  0  0  0  0  0
  1  2  1  0
  1 18  1  0
  1 19  1  0
  1 20  1  0
  2  3  2  0
  2  6  1  0
  3  4  1  0
  4  5  2  0
  4 21  1  0
  5  6  1  0
  5 22  1  0
  6  7  2  0
  7  8  1  0
  7  9  1  0
  9 10  2  0
  9 14  1  0
 10 11  1  0
 10 23  1  0
 11 12  2  0
 11 24  1  0
 12 13  1  0
 12 17  1  0
 13 14  2  0
 13 15  1  0
 14 25  1  0
 15 16  1  0
 15 26  1  0
 15 27  1  0
 16 17  1  0
 16 28  1  0
 17 29  1  0
 17 30  1  0
M  CHG  2   3   1   8  -1
M  END

