
     RDKit          3D

 43 45  0  0  0  0  0  0  0  0999 V2000
    3.2351    0.1029    2.5234 C   0  0  0  0  0  0  0  0  0  0  0  0
    2.7393   -0.1586    1.0932 C   0  0  1  0  0  0  0  0  0  0  0  0
    3.3125    0.8619    0.0974 C   0  0  0  0  0  0  0  0  0  0  0  0
    3.0549   -1.5846    0.6555 C   0  0  0  0  0  0  0  0  0  0  0  0
    2.1742   -2.3741    0.3419 O   0  0  0  0  0  0  0  0  0  0  0  0
    4.4093   -1.9007    0.6252 N   0  0  0  0  0  0  0  0  0  0  0  0
    4.7680   -3.1268    0.4207 C   0  0  0  0  0  0  0  0  0  0  0  0
    3.6504   -4.5246    0.1846 S   0  0  0  0  0  0  0  0  0  0  0  0
    5.0997   -5.6510    0.3558 C   0  0  1  0  0  0  0  0  0  0  0  0
    5.2562   -5.8054    1.4376 H   0  0  0  0  0  0  0  0  0  0  0  0
    5.1615   -6.9958   -0.3370 C   0  0  0  0  0  0  0  0  0  0  0  0
    6.9877   -7.3818   -0.2343 S   0  0  1  0  0  0  0  0  0  0  0  0
    7.2337   -8.2138    0.9480 O   0  0  0  0  0  0  0  0  0  0  0  0
    7.4840   -7.7593   -1.5607 O   0  0  0  0  0  0  0  0  0  0  0  0
    7.5238   -5.6320    0.1484 C   0  0  0  0  0  0  0  0  0  0  0  0
    6.2708   -4.8361   -0.1892 C   0  0  2  0  0  0  0  0  0  0  0  0
    6.1889   -4.7946   -1.2952 H   0  0  0  0  0  0  0  0  0  0  0  0
    6.0853   -3.5009    0.3545 N   0  0  0  0  0  0  0  0  0  0  0  0
    7.1645   -2.5091    0.3224 C   0  0  0  0  0  0  0  0  0  0  0  0
    7.6839   -2.2040   -1.0721 C   0  0  0  0  0  0  0  0  0  0  0  0
    6.8438   -1.6260   -2.0397 C   0  0  0  0  0  0  0  0  0  0  0  0
    7.3250   -1.3480   -3.3207 C   0  0  0  0  0  0  0  0  0  0  0  0
    8.6533   -1.6374   -3.6540 C   0  0  0  0  0  0  0  0  0  0  0  0
    9.4980   -2.2056   -2.6981 C   0  0  0  0  0  0  0  0  0  0  0  0
    9.0130   -2.4885   -1.4166 C   0  0  0  0  0  0  0  0  0  0  0  0
    2.9568    1.1194    2.8453 H   0  0  0  0  0  0  0  0  0  0  0  0
    4.3309    0.0123    2.5807 H   0  0  0  0  0  0  0  0  0  0  0  0
    2.7956   -0.6094    3.2397 H   0  0  0  0  0  0  0  0  0  0  0  0
    1.6399   -0.0952    1.0759 H   0  0  0  0  0  0  0  0  0  0  0  0
    4.4119    0.8085    0.0693 H   0  0  0  0  0  0  0  0  0  0  0  0
    3.0261    1.8848    0.3910 H   0  0  0  0  0  0  0  0  0  0  0  0
    2.9341    0.6864   -0.9222 H   0  0  0  0  0  0  0  0  0  0  0  0
    4.8991   -6.9612   -1.4034 H   0  0  0  0  0  0  0  0  0  0  0  0
    4.6402   -7.8141    0.1749 H   0  0  0  0  0  0  0  0  0  0  0  0
    8.3934   -5.4258   -0.4877 H   0  0  0  0  0  0  0  0  0  0  0  0
    7.7885   -5.6087    1.2143 H   0  0  0  0  0  0  0  0  0  0  0  0
    7.9889   -2.8760    0.9539 H   0  0  0  0  0  0  0  0  0  0  0  0
    6.7538   -1.6050    0.7913 H   0  0  0  0  0  0  0  0  0  0  0  0
    5.8102   -1.3845   -1.7798 H   0  0  0  0  0  0  0  0  0  0  0  0
    6.6612   -0.8970   -4.0627 H   0  0  0  0  0  0  0  0  0  0  0  0
    9.0279   -1.4177   -4.6569 H   0  0  0  0  0  0  0  0  0  0  0  0
   10.5373   -2.4326   -2.9485 H   0  0  0  0  0  0  0  0  0  0  0  0
    9.6819   -2.9299   -0.6714 H   0  0  0  0  0  0  0  0  0  0  0  0
  1  2  1  0
  1 26  1  0
  1 27  1  0
  1 28  1  0
  2  3  1  0
  2  4  1  0
  2 29  1  1
  3 30  1  0
  3 31  1  0
  3 32  1  0
  4  5  2  0
  4  6  1  0
  6  7  2  0
  7  8  1  0
  7 18  1  0
  8  9  1  0
  9 10  1  1
  9 11  1  0
  9 16  1  0
 12 11  1  6
 11 33  1  0
 11 34  1  0
 12 13  2  0
 12 14  2  0
 12 15  1  0
 15 16  1  0
 15 35  1  0
 15 36  1  0
 16 17  1  6
 16 18  1  0
 18 19  1  0
 19 20  1  0
 19 37  1  0
 19 38  1  0
 20 21  2  0
 20 25  1  0
 21 22  1  0
 21 39  1  0
 22 23  2  0
 22 40  1  0
 23 24  1  0
 23 41  1  0
 24 25  2  0
 24 42  1  0
 25 43  1  0
M  END

