
     RDKit          3D

 40 41  0  0  0  0  0  0  0  0999 V2000
    1.6476    0.6723    0.6496 C   0  0  0  0  0  0  0  0  0  0  0  0
    2.1623    0.6340   -0.7950 C   0  0  0  0  0  0  0  0  0  0  0  0
    2.7692   -0.6245   -1.2183 N   0  0  0  0  0  0  0  0  0  0  0  0
    1.9335   -1.6523   -1.6575 C   0  0  0  0  0  0  0  0  0  0  0  0
    0.5161   -1.5327   -1.6010 C   0  0  0  0  0  0  0  0  0  0  0  0
   -0.3067   -2.5532   -2.0703 C   0  0  0  0  0  0  0  0  0  0  0  0
    0.2119   -3.7334   -2.6067 C   0  0  0  0  0  0  0  0  0  0  0  0
    1.6038   -3.8699   -2.6618 C   0  0  0  0  0  0  0  0  0  0  0  0
    2.2062   -4.9840   -3.1646 O   0  0  0  0  0  0  0  0  0  0  0  0
    2.4480   -2.8569   -2.1957 C   0  0  0  0  0  0  0  0  0  0  0  0
    4.2328   -0.7931   -1.3573 C   0  0  1  0  0  0  0  0  0  0  0  0
    5.0475    0.5181   -1.4452 C   0  0  0  0  0  0  0  0  0  0  0  0
    5.4021    1.1941   -0.1103 C   0  0  0  0  0  0  0  0  0  0  0  0
    6.0314    0.2023    0.8743 C   0  0  0  0  0  0  0  0  0  0  0  0
    5.1406   -1.0337    1.0441 C   0  0  0  0  0  0  0  0  0  0  0  0
    4.8424   -1.7562   -0.2849 C   0  0  2  0  0  0  0  0  0  0  0  0
    6.0763   -2.4916   -0.8317 C   0  0  0  0  0  0  0  0  0  0  0  0
    1.1415    1.6321    0.8466 H   0  0  0  0  0  0  0  0  0  0  0  0
    2.4691    0.5712    1.3747 H   0  0  0  0  0  0  0  0  0  0  0  0
    0.9293   -0.1371    0.8472 H   0  0  0  0  0  0  0  0  0  0  0  0
    2.8897    1.4406   -0.9369 H   0  0  0  0  0  0  0  0  0  0  0  0
    1.3348    0.8781   -1.4824 H   0  0  0  0  0  0  0  0  0  0  0  0
    0.0447   -0.6450   -1.1871 H   0  0  0  0  0  0  0  0  0  0  0  0
   -1.3909   -2.4230   -2.0120 H   0  0  0  0  0  0  0  0  0  0  0  0
   -0.4447   -4.5307   -2.9666 H   0  0  0  0  0  0  0  0  0  0  0  0
    1.5260   -5.6049   -3.4554 H   0  0  0  0  0  0  0  0  0  0  0  0
    3.5134   -3.0538   -2.2729 H   0  0  0  0  0  0  0  0  0  0  0  0
    4.3785   -1.2765   -2.3370 H   0  0  0  0  0  0  0  0  0  0  0  0
    4.5548    1.2246   -2.1327 H   0  0  0  0  0  0  0  0  0  0  0  0
    5.9943    0.2495   -1.9432 H   0  0  0  0  0  0  0  0  0  0  0  0
    4.5066    1.6383    0.3555 H   0  0  0  0  0  0  0  0  0  0  0  0
    6.0901    2.0346   -0.3035 H   0  0  0  0  0  0  0  0  0  0  0  0
    6.1977    0.6888    1.8502 H   0  0  0  0  0  0  0  0  0  0  0  0
    7.0299   -0.0986    0.5103 H   0  0  0  0  0  0  0  0  0  0  0  0
    4.1864   -0.7267    1.5050 H   0  0  0  0  0  0  0  0  0  0  0  0
    5.6018   -1.7458    1.7497 H   0  0  0  0  0  0  0  0  0  0  0  0
    4.0800   -2.5226   -0.0757 H   0  0  0  0  0  0  0  0  0  0  0  0
    6.8961   -1.8073   -1.1023 H   0  0  0  0  0  0  0  0  0  0  0  0
    5.8274   -3.0738   -1.7340 H   0  0  0  0  0  0  0  0  0  0  0  0
    6.4729   -3.1972   -0.0841 H   0  0  0  0  0  0  0  0  0  0  0  0
  1  2  1  0
  1 18  1  0
  1 19  1  0
  1 20  1  0
  2  3  1  0
  2 21  1  0
  2 22  1  0
  3  4  1  0
  3 11  1  0
  4  5  2  0
  4 10  1  0
  5  6  1  0
  5 23  1  0
  6  7  2  0
  6 24  1  0
  7  8  1  0
  7 25  1  0
  8  9  1  0
  8 10  2  0
  9 26  1  0
 10 27  1  0
 11 12  1  0
 11 16  1  0
 11 28  1  6
 12 13  1  0
 12 29  1  0
 12 30  1  0
 13 14  1  0
 13 31  1  0
 13 32  1  0
 14 15  1  0
 14 33  1  0
 14 34  1  0
 15 16  1  0
 15 35  1  0
 15 36  1  0
 16 17  1  0
 16 37  1  1
 17 38  1  0
 17 39  1  0
 17 40  1  0
M  END

