
     RDKit          3D

 36 37  0  0  0  0  0  0  0  0999 V2000
    1.2043   -0.4681    1.4624 C   0  0  0  0  0  0  0  0  0  0  0  0
    2.6062   -0.3148    0.9243 C   0  0  0  0  0  0  0  0  0  0  0  0
    3.0630   -1.0774   -0.1612 C   0  0  0  0  0  0  0  0  0  0  0  0
    4.3695   -0.9514   -0.6375 C   0  0  0  0  0  0  0  0  0  0  0  0
    5.2714   -0.0540   -0.0492 C   0  0  0  0  0  0  0  0  0  0  0  0
    6.6876    0.1318   -0.6451 C   0  0  1  0  0  0  0  0  0  0  0  0
    6.5479    1.0161   -1.8968 C   0  0  0  0  0  0  0  0  0  0  0  0
    7.5317    0.8760    0.2582 O   0  0  0  0  0  0  0  0  0  0  0  0
    7.3669   -1.2488   -0.8199 C   0  0  0  0  0  0  0  0  0  0  0  0
    7.6306   -1.9166   -2.0355 C   0  0  0  0  0  0  0  0  0  0  0  0
    7.3608   -1.3846   -3.4301 C   0  0  0  0  0  0  0  0  0  0  0  0
    8.1830   -3.2133   -1.9839 C   0  0  0  0  0  0  0  0  0  0  0  0
    8.4456   -3.8040   -0.7563 C   0  0  0  0  0  0  0  0  0  0  0  0
    8.2229   -3.1954    0.4020 N   0  0  0  0  0  0  0  0  0  0  0  0
    7.7072   -1.9569    0.3877 C   0  0  0  0  0  0  0  0  0  0  0  0
    7.4820   -1.4218    1.6290 N   0  0  0  0  0  0  0  0  0  0  0  0
    4.8186    0.7088    1.0350 C   0  0  0  0  0  0  0  0  0  0  0  0
    3.5117    0.5812    1.5113 C   0  0  0  0  0  0  0  0  0  0  0  0
    0.5546   -1.0027    0.7534 H   0  0  0  0  0  0  0  0  0  0  0  0
    0.7435    0.5100    1.6750 H   0  0  0  0  0  0  0  0  0  0  0  0
    1.2002   -1.0382    2.4078 H   0  0  0  0  0  0  0  0  0  0  0  0
    2.3851   -1.7892   -0.6414 H   0  0  0  0  0  0  0  0  0  0  0  0
    4.6929   -1.5748   -1.4748 H   0  0  0  0  0  0  0  0  0  0  0  0
    6.1299    1.9850   -1.5746 H   0  0  0  0  0  0  0  0  0  0  0  0
    5.8515    0.6100   -2.6377 H   0  0  0  0  0  0  0  0  0  0  0  0
    7.5249    1.1992   -2.3643 H   0  0  0  0  0  0  0  0  0  0  0  0
    7.2546    1.8012    0.2324 H   0  0  0  0  0  0  0  0  0  0  0  0
    6.2982   -1.1565   -3.5994 H   0  0  0  0  0  0  0  0  0  0  0  0
    7.6504   -2.1403   -4.1730 H   0  0  0  0  0  0  0  0  0  0  0  0
    7.9307   -0.4720   -3.6540 H   0  0  0  0  0  0  0  0  0  0  0  0
    8.3959   -3.7520   -2.9093 H   0  0  0  0  0  0  0  0  0  0  0  0
    8.8614   -4.8183   -0.7059 H   0  0  0  0  0  0  0  0  0  0  0  0
    7.8781   -1.9687    2.3844 H   0  0  0  0  0  0  0  0  0  0  0  0
    7.5106   -0.4117    1.7075 H   0  0  0  0  0  0  0  0  0  0  0  0
    5.4979    1.4049    1.5315 H   0  0  0  0  0  0  0  0  0  0  0  0
    3.1924    1.1889    2.3636 H   0  0  0  0  0  0  0  0  0  0  0  0
  1  2  1  0
  1 19  1  0
  1 20  1  0
  1 21  1  0
  2  3  2  0
  2 18  1  0
  3  4  1  0
  3 22  1  0
  4  5  2  0
  4 23  1  0
  5  6  1  0
  5 17  1  0
  6  7  1  0
  6  8  1  1
  6  9  1  0
  7 24  1  0
  7 25  1  0
  7 26  1  0
  8 27  1  0
  9 10  2  0
  9 15  1  0
 10 11  1  0
 10 12  1  0
 11 28  1  0
 11 29  1  0
 11 30  1  0
 12 13  2  0
 12 31  1  0
 13 14  1  0
 13 32  1  0
 14 15  2  0
 15 16  1  0
 16 33  1  0
 16 34  1  0
 17 18  2  0
 17 35  1  0
 18 36  1  0
M  END

