
     RDKit          3D

 66 70  0  0  0  0  0  0  0  0999 V2000
    1.2761    0.1082    0.1776 C   0  0  0  0  0  0  0  0  0  0  0  0
    2.6996    0.4324    0.1130 N   0  0  0  0  0  0  0  0  0  0  0  0
    3.2789    0.7628    1.3223 C   0  0  0  0  0  0  0  0  0  0  0  0
    2.6776    0.6482    2.3826 O   0  0  0  0  0  0  0  0  0  0  0  0
    4.6827    1.3228    1.3592 C   0  0  0  0  0  0  0  0  0  0  0  0
    5.0629    2.4615    0.6325 C   0  0  0  0  0  0  0  0  0  0  0  0
    6.3333    3.0203    0.8044 C   0  0  0  0  0  0  0  0  0  0  0  0
    7.2387    2.4422    1.6984 C   0  0  0  0  0  0  0  0  0  0  0  0
    6.8599    1.3174    2.4399 C   0  0  0  0  0  0  0  0  0  0  0  0
    5.5844    0.7716    2.2850 C   0  0  0  0  0  0  0  0  0  0  0  0
    3.4946    0.2345   -1.1281 C   0  0  2  0  0  0  0  0  0  0  0  0
    4.0638    1.1612   -1.2807 H   0  0  0  0  0  0  0  0  0  0  0  0
    2.6377    0.0577   -2.3961 C   0  0  0  0  0  0  0  0  0  0  0  0
    2.1089   -1.3617   -2.6671 C   0  0  1  0  0  0  0  0  0  0  0  0
    1.4328   -1.3990   -3.9163 O   0  0  0  0  0  0  0  0  0  0  0  0
    3.2642   -2.3782   -2.6056 C   0  0  2  0  0  0  0  0  0  0  0  0
    2.9276   -3.8035   -3.1047 C   0  0  0  0  0  0  0  0  0  0  0  0
    4.1010   -4.6636   -3.2074 N   0  0  0  0  0  0  0  0  0  0  0  0
    4.8854   -4.5192   -4.4258 C   0  0  0  0  0  0  0  0  0  0  0  0
    5.7269   -5.7405   -4.7467 C   0  0  1  0  0  0  0  0  0  0  0  0
    6.7956   -5.6521   -5.8062 C   0  0  0  0  0  0  0  0  0  0  0  0
    7.1854   -5.8264   -4.3615 C   0  0  0  0  0  0  0  0  0  0  0  0
    4.8519   -4.6890   -1.9539 C   0  0  0  0  0  0  0  0  0  0  0  0
    5.2743   -3.2944   -1.4607 C   0  0  0  0  0  0  0  0  0  0  0  0
    4.0507   -2.3489   -1.2542 C   0  0  2  0  0  0  0  0  0  0  0  0
    3.2954   -2.8120    0.0181 C   0  0  0  0  0  0  0  0  0  0  0  0
    2.0010   -3.3639    0.0469 C   0  0  0  0  0  0  0  0  0  0  0  0
    1.4135   -3.7552    1.2557 C   0  0  0  0  0  0  0  0  0  0  0  0
    2.0826   -3.5997    2.4680 C   0  0  0  0  0  0  0  0  0  0  0  0
    3.3723   -3.0525    2.4585 C   0  0  0  0  0  0  0  0  0  0  0  0
    4.0993   -2.8508    3.5896 O   0  0  0  0  0  0  0  0  0  0  0  0
    3.9651   -2.6870    1.2466 C   0  0  0  0  0  0  0  0  0  0  0  0
    4.5574   -0.8923   -1.0700 C   0  0  0  0  0  0  0  0  0  0  0  0
    0.8596    0.5926    1.0679 H   0  0  0  0  0  0  0  0  0  0  0  0
    1.0947   -0.9731    0.2775 H   0  0  0  0  0  0  0  0  0  0  0  0
    0.7499    0.4812   -0.7103 H   0  0  0  0  0  0  0  0  0  0  0  0
    4.3532    2.9349   -0.0506 H   0  0  0  0  0  0  0  0  0  0  0  0
    6.6131    3.9152    0.2423 H   0  0  0  0  0  0  0  0  0  0  0  0
    8.2341    2.8751    1.8273 H   0  0  0  0  0  0  0  0  0  0  0  0
    7.5581    0.8715    3.1529 H   0  0  0  0  0  0  0  0  0  0  0  0
    5.2678   -0.0841    2.8861 H   0  0  0  0  0  0  0  0  0  0  0  0
    3.2988    0.3118   -3.2452 H   0  0  0  0  0  0  0  0  0  0  0  0
    1.8104    0.7810   -2.4372 H   0  0  0  0  0  0  0  0  0  0  0  0
    1.3339   -1.6199   -1.9328 H   0  0  0  0  0  0  0  0  0  0  0  0
    2.0628   -1.1457   -4.6061 H   0  0  0  0  0  0  0  0  0  0  0  0
    3.9997   -1.9960   -3.3430 H   0  0  0  0  0  0  0  0  0  0  0  0
    2.4467   -3.7265   -4.0903 H   0  0  0  0  0  0  0  0  0  0  0  0
    2.1968   -4.2949   -2.4447 H   0  0  0  0  0  0  0  0  0  0  0  0
    5.5528   -3.6242   -4.4364 H   0  0  0  0  0  0  0  0  0  0  0  0
    4.1686   -4.3675   -5.2510 H   0  0  0  0  0  0  0  0  0  0  0  0
    5.1571   -6.6753   -4.7026 H   0  0  0  0  0  0  0  0  0  0  0  0
    6.9762   -4.6763   -6.2690 H   0  0  0  0  0  0  0  0  0  0  0  0
    6.9211   -6.4971   -6.4889 H   0  0  0  0  0  0  0  0  0  0  0  0
    7.6315   -4.9673   -3.8499 H   0  0  0  0  0  0  0  0  0  0  0  0
    7.5837   -6.7929   -4.0394 H   0  0  0  0  0  0  0  0  0  0  0  0
    5.7361   -5.3305   -2.0772 H   0  0  0  0  0  0  0  0  0  0  0  0
    4.2226   -5.1696   -1.1842 H   0  0  0  0  0  0  0  0  0  0  0  0
    5.9513   -2.8332   -2.2011 H   0  0  0  0  0  0  0  0  0  0  0  0
    5.8516   -3.3862   -0.5274 H   0  0  0  0  0  0  0  0  0  0  0  0
    1.4239   -3.4915   -0.8650 H   0  0  0  0  0  0  0  0  0  0  0  0
    0.4069   -4.1813    1.2489 H   0  0  0  0  0  0  0  0  0  0  0  0
    1.6116   -3.8935    3.4109 H   0  0  0  0  0  0  0  0  0  0  0  0
    3.5520   -3.0336    4.3646 H   0  0  0  0  0  0  0  0  0  0  0  0
    4.9740   -2.2769    1.3017 H   0  0  0  0  0  0  0  0  0  0  0  0
    5.2603   -0.6854   -1.8961 H   0  0  0  0  0  0  0  0  0  0  0  0
    5.1512   -0.7946   -0.1528 H   0  0  0  0  0  0  0  0  0  0  0  0
  1  2  1  0
  1 34  1  0
  1 35  1  0
  1 36  1  0
  2  3  1  0
  2 11  1  0
  3  4  2  0
  3  5  1  0
  5  6  2  0
  5 10  1  0
  6  7  1  0
  6 37  1  0
  7  8  2  0
  7 38  1  0
  8  9  1  0
  8 39  1  0
  9 10  2  0
  9 40  1  0
 10 41  1  0
 11 12  1  6
 11 13  1  0
 11 33  1  0
 13 14  1  0
 13 42  1  0
 13 43  1  0
 14 15  1  0
 14 16  1  0
 14 44  1  1
 15 45  1  0
 16 17  1  0
 16 25  1  0
 16 46  1  6
 17 18  1  0
 17 47  1  0
 17 48  1  0
 18 19  1  0
 18 23  1  0
 19 20  1  0
 19 49  1  0
 19 50  1  0
 20 21  1  0
 20 22  1  0
 20 51  1  6
 21 22  1  0
 21 52  1  0
 21 53  1  0
 22 54  1  0
 22 55  1  0
 23 24  1  0
 23 56  1  0
 23 57  1  0
 24 25  1  0
 24 58  1  0
 24 59  1  0
 25 26  1  1
 25 33  1  0
 26 27  2  0
 26 32  1  0
 27 28  1  0
 27 60  1  0
 28 29  2  0
 28 61  1  0
 29 30  1  0
 29 62  1  0
 30 31  1  0
 30 32  2  0
 31 63  1  0
 32 64  1  0
 33 65  1  0
 33 66  1  0
M  END

