
     RDKit          3D

 48 53  0  0  0  0  0  0  0  0999 V2000
    1.0589    0.0483    0.3845 O   0  0  0  0  0  0  0  0  0  0  0  0
    2.2492    0.0495    0.2297 C   0  0  0  0  0  0  0  0  0  0  0  0
    3.1266    0.6840   -0.8291 C   0  0  1  0  0  0  0  0  0  0  0  0
    3.3312   -0.1881   -1.4771 H   0  0  0  0  0  0  0  0  0  0  0  0
    2.9060    1.8680   -1.8134 C   0  0  1  0  0  0  0  0  0  0  0  0
    3.4032    3.1799   -1.2215 C   0  0  0  0  0  0  0  0  0  0  0  0
    2.6648    4.3571   -1.1310 C   0  0  0  0  0  0  0  0  0  0  0  0
    3.2738    5.5268   -0.6537 C   0  0  0  0  0  0  0  0  0  0  0  0
    4.6158    5.5096   -0.2743 C   0  0  0  0  0  0  0  0  0  0  0  0
    5.3629    4.3237   -0.3543 C   0  0  0  0  0  0  0  0  0  0  0  0
    4.7627    3.1570   -0.8266 C   0  0  0  0  0  0  0  0  0  0  0  0
    5.4145    1.7557   -0.9191 C   0  0  2  0  0  0  0  0  0  0  0  0
    6.8510    1.7008   -0.3808 C   0  0  0  0  0  0  0  0  0  0  0  0
    7.4309    0.4264   -0.4524 O   0  0  0  0  0  0  0  0  0  0  0  0
    5.2475    1.3600   -2.3979 C   0  0  0  0  0  0  0  0  0  0  0  0
    6.2649    0.9450   -3.2579 C   0  0  0  0  0  0  0  0  0  0  0  0
    5.9777    0.7096   -4.6109 C   0  0  0  0  0  0  0  0  0  0  0  0
    4.6819    0.8770   -5.1013 C   0  0  0  0  0  0  0  0  0  0  0  0
    3.6487    1.2688   -4.2374 C   0  0  0  0  0  0  0  0  0  0  0  0
    3.9307    1.5087   -2.8952 C   0  0  0  0  0  0  0  0  0  0  0  0
    4.3977    0.9539   -0.0327 C   0  0  2  0  0  0  0  0  0  0  0  0
    4.1298    1.6547    0.7801 H   0  0  0  0  0  0  0  0  0  0  0  0
    4.5250   -0.3397    0.7454 C   0  0  0  0  0  0  0  0  0  0  0  0
    5.5112   -0.9141    1.1547 O   0  0  0  0  0  0  0  0  0  0  0  0
    3.1881   -0.7099    1.0175 N   0  0  0  0  0  0  0  0  0  0  0  0
    2.8067   -1.7133    1.9590 C   0  0  0  0  0  0  0  0  0  0  0  0
    1.7568   -2.5942    1.6606 C   0  0  0  0  0  0  0  0  0  0  0  0
    1.3748   -3.5692    2.5820 C   0  0  0  0  0  0  0  0  0  0  0  0
    2.0579   -3.6648    3.7921 C   0  0  0  0  0  0  0  0  0  0  0  0
    1.6972   -4.6050    4.6753 F   0  0  0  0  0  0  0  0  0  0  0  0
    3.1078   -2.8043    4.1045 C   0  0  0  0  0  0  0  0  0  0  0  0
    3.4767   -1.8210    3.1866 C   0  0  0  0  0  0  0  0  0  0  0  0
    1.8795    1.9287   -2.1980 H   0  0  0  0  0  0  0  0  0  0  0  0
    1.6159    4.3690   -1.4398 H   0  0  0  0  0  0  0  0  0  0  0  0
    2.6967    6.4524   -0.5858 H   0  0  0  0  0  0  0  0  0  0  0  0
    5.0927    6.4230    0.0901 H   0  0  0  0  0  0  0  0  0  0  0  0
    6.4098    4.3306   -0.0456 H   0  0  0  0  0  0  0  0  0  0  0  0
    6.8519    2.0961    0.6556 H   0  0  0  0  0  0  0  0  0  0  0  0
    7.4830    2.3782   -0.9776 H   0  0  0  0  0  0  0  0  0  0  0  0
    6.9615   -0.1623    0.1677 H   0  0  0  0  0  0  0  0  0  0  0  0
    7.2717    0.7817   -2.8722 H   0  0  0  0  0  0  0  0  0  0  0  0
    6.7780    0.3893   -5.2829 H   0  0  0  0  0  0  0  0  0  0  0  0
    4.4673    0.6945   -6.1574 H   0  0  0  0  0  0  0  0  0  0  0  0
    2.6282    1.3838   -4.6134 H   0  0  0  0  0  0  0  0  0  0  0  0
    1.2252   -2.5117    0.7129 H   0  0  0  0  0  0  0  0  0  0  0  0
    0.5561   -4.2594    2.3707 H   0  0  0  0  0  0  0  0  0  0  0  0
    3.6221   -2.9084    5.0616 H   0  0  0  0  0  0  0  0  0  0  0  0
    4.2991   -1.1459    3.4225 H   0  0  0  0  0  0  0  0  0  0  0  0
  1  2  2  0
  2  3  1  0
  2 25  1  0
  3  4  1  6
  3  5  1  0
  3 21  1  0
  5  6  1  0
  5 20  1  0
  5 33  1  6
  6  7  1  0
  6 11  2  0
  7  8  2  0
  7 34  1  0
  8  9  1  0
  8 35  1  0
  9 10  2  0
  9 36  1  0
 10 11  1  0
 10 37  1  0
 11 12  1  0
 12 13  1  1
 12 15  1  0
 12 21  1  0
 13 14  1  0
 13 38  1  0
 13 39  1  0
 14 40  1  0
 15 16  2  0
 15 20  1  0
 16 17  1  0
 16 41  1  0
 17 18  2  0
 17 42  1  0
 18 19  1  0
 18 43  1  0
 19 20  2  0
 19 44  1  0
 21 22  1  1
 21 23  1  0
 23 24  2  0
 23 25  1  0
 25 26  1  0
 26 27  2  0
 26 32  1  0
 27 28  1  0
 27 45  1  0
 28 29  2  0
 28 46  1  0
 29 30  1  0
 29 31  1  0
 31 32  2  0
 31 47  1  0
 32 48  1  0
M  END

