
     RDKit          3D

 57 63  0  0  0  0  0  0  0  0999 V2000
   -1.3642   -0.7072   -0.3219 C   0  0  0  0  0  0  0  0  0  0  0  0
   -0.4702   -1.1707   -1.2919 C   0  0  0  0  0  0  0  0  0  0  0  0
    0.8659   -0.7706   -1.2647 C   0  0  0  0  0  0  0  0  0  0  0  0
    1.3319    0.1166   -0.2739 C   0  0  0  0  0  0  0  0  0  0  0  0
    2.7626    0.5069   -0.2714 C   0  0  0  0  0  0  0  0  0  0  0  0
    3.3167    1.7086    0.0691 C   0  0  0  0  0  0  0  0  0  0  0  0
    2.4835    2.8874    0.4574 C   0  0  0  0  0  0  0  0  0  0  0  0
    2.5139    3.3909    1.7707 C   0  0  0  0  0  0  0  0  0  0  0  0
    1.7450    4.5016    2.1288 C   0  0  0  0  0  0  0  0  0  0  0  0
    0.9360    5.1321    1.1780 C   0  0  0  0  0  0  0  0  0  0  0  0
    0.9046    4.6467   -0.1325 C   0  0  0  0  0  0  0  0  0  0  0  0
    1.6740    3.5363   -0.4900 C   0  0  0  0  0  0  0  0  0  0  0  0
    4.7764    1.8616   -0.0149 C   0  0  0  0  0  0  0  0  0  0  0  0
    5.4434    3.0674    0.2757 C   0  0  0  0  0  0  0  0  0  0  0  0
    6.8319    3.1593    0.1636 C   0  0  0  0  0  0  0  0  0  0  0  0
    7.5898    2.0612   -0.2474 C   0  0  0  0  0  0  0  0  0  0  0  0
    6.9574    0.8503   -0.5533 C   0  0  0  0  0  0  0  0  0  0  0  0
    7.7315   -0.3214   -1.0363 C   0  0  0  0  0  0  0  0  0  0  0  0
    7.0071   -1.6329   -1.2105 C   0  0  0  0  0  0  0  0  0  0  0  0
    5.5590   -1.6178   -1.1532 C   0  0  0  0  0  0  0  0  0  0  0  0
    4.8932   -0.4926   -0.7785 C   0  0  0  0  0  0  0  0  0  0  0  0
    5.5535    0.7562   -0.4371 C   0  0  0  0  0  0  0  0  0  0  0  0
    3.5329   -0.5405   -0.6998 O   0  0  0  0  0  0  0  0  0  0  0  0
    7.6486   -2.7348   -1.4102 N   0  0  0  0  0  0  0  0  0  0  0  0
    9.1051   -2.6659   -1.3383 C   0  0  1  0  0  0  0  0  0  0  0  0
    9.7385   -3.8880   -2.0191 C   0  0  0  0  0  0  0  0  0  0  0  0
    9.6339   -3.8146   -3.5457 C   0  0  0  0  0  0  0  0  0  0  0  0
   10.2583   -2.5191   -4.0789 C   0  0  0  0  0  0  0  0  0  0  0  0
    9.6002   -1.2868   -3.4467 C   0  0  0  0  0  0  0  0  0  0  0  0
    9.6532   -1.3448   -1.9032 C   0  0  1  0  0  0  0  0  0  0  0  0
    8.9651   -0.1792   -1.3588 N   0  0  0  0  0  0  0  0  0  0  0  0
    0.4257    0.5663    0.7044 C   0  0  0  0  0  0  0  0  0  0  0  0
   -0.9083    0.1567    0.6782 C   0  0  0  0  0  0  0  0  0  0  0  0
   -2.4100   -1.0243   -0.3405 H   0  0  0  0  0  0  0  0  0  0  0  0
   -0.8142   -1.8518   -2.0744 H   0  0  0  0  0  0  0  0  0  0  0  0
    1.5619   -1.1440   -2.0170 H   0  0  0  0  0  0  0  0  0  0  0  0
    3.1401    2.8988    2.5195 H   0  0  0  0  0  0  0  0  0  0  0  0
    1.7761    4.8743    3.1560 H   0  0  0  0  0  0  0  0  0  0  0  0
    0.3340    6.0004    1.4576 H   0  0  0  0  0  0  0  0  0  0  0  0
    0.2787    5.1360   -0.8832 H   0  0  0  0  0  0  0  0  0  0  0  0
    1.6474    3.1609   -1.5157 H   0  0  0  0  0  0  0  0  0  0  0  0
    4.8676    3.9391    0.5873 H   0  0  0  0  0  0  0  0  0  0  0  0
    7.3279    4.1051    0.3958 H   0  0  0  0  0  0  0  0  0  0  0  0
    8.6744    2.1181   -0.3506 H   0  0  0  0  0  0  0  0  0  0  0  0
    5.0217   -2.5436   -1.3593 H   0  0  0  0  0  0  0  0  0  0  0  0
    9.3673   -2.7042   -0.2597 H   0  0  0  0  0  0  0  0  0  0  0  0
    9.2410   -4.7928   -1.6349 H   0  0  0  0  0  0  0  0  0  0  0  0
   10.8016   -3.9495   -1.7239 H   0  0  0  0  0  0  0  0  0  0  0  0
    8.5675   -3.8525   -3.8307 H   0  0  0  0  0  0  0  0  0  0  0  0
   10.1166   -4.6935   -4.0046 H   0  0  0  0  0  0  0  0  0  0  0  0
   10.1681   -2.4672   -5.1769 H   0  0  0  0  0  0  0  0  0  0  0  0
   11.3416   -2.5137   -3.8553 H   0  0  0  0  0  0  0  0  0  0  0  0
    8.5451   -1.2322   -3.7658 H   0  0  0  0  0  0  0  0  0  0  0  0
   10.0802   -0.3542   -3.7843 H   0  0  0  0  0  0  0  0  0  0  0  0
   10.7146   -1.2607   -1.6095 H   0  0  0  0  0  0  0  0  0  0  0  0
    0.7676    1.2259    1.5011 H   0  0  0  0  0  0  0  0  0  0  0  0
   -1.5945    0.5110    1.4515 H   0  0  0  0  0  0  0  0  0  0  0  0
  1  2  2  0
  1 33  1  0
  1 34  1  0
  2  3  1  0
  2 35  1  0
  3  4  2  0
  3 36  1  0
  4  5  1  0
  4 32  1  0
  5  6  2  0
  5 23  1  0
  6  7  1  0
  6 13  1  0
  7  8  2  0
  7 12  1  0
  8  9  1  0
  8 37  1  0
  9 10  2  0
  9 38  1  0
 10 11  1  0
 10 39  1  0
 11 12  2  0
 11 40  1  0
 12 41  1  0
 13 14  2  0
 13 22  1  0
 14 15  1  0
 14 42  1  0
 15 16  2  0
 15 43  1  0
 16 17  1  0
 16 44  1  0
 17 18  1  0
 17 22  2  0
 18 19  1  0
 18 31  2  0
 19 20  1  0
 19 24  2  0
 20 21  2  0
 20 45  1  0
 21 22  1  0
 21 23  1  0
 24 25  1  0
 25 26  1  0
 25 30  1  0
 25 46  1  1
 26 27  1  0
 26 47  1  0
 26 48  1  0
 27 28  1  0
 27 49  1  0
 27 50  1  0
 28 29  1  0
 28 51  1  0
 28 52  1  0
 29 30  1  0
 29 53  1  0
 29 54  1  0
 30 31  1  0
 30 55  1  6
 32 33  2  0
 32 56  1  0
 33 57  1  0
M  END

