
     RDKit          3D

 41 42  0  0  0  0  0  0  0  0999 V2000
    0.7970    0.1008    0.3639 O   0  0  0  0  0  0  0  0  0  0  0  0
    1.9355   -0.0524   -0.0506 C   0  0  0  0  0  0  0  0  0  0  0  0
    2.2053   -0.7350   -1.4045 C   0  0  0  0  0  0  0  0  0  0  0  0
    0.7220   -0.9157   -2.4497 S   0  0  0  0  0  0  0  0  0  0  0  0
    0.2081    0.8444   -2.5963 C   0  0  0  0  0  0  0  0  0  0  0  0
    1.3133    1.6891   -3.2083 C   0  0  0  0  0  0  0  0  0  0  0  0
    2.1647    2.2197   -2.4979 O   0  0  0  0  0  0  0  0  0  0  0  0
    1.3627    1.7922   -4.5662 N   0  0  0  0  0  0  0  0  0  0  0  0
    2.4435    2.5543   -5.2088 C   0  0  0  0  0  0  0  0  0  0  0  0
    2.0930    2.4808   -6.7008 C   0  0  0  0  0  0  0  0  0  0  0  0
    1.3275    1.1524   -6.8294 C   0  0  1  0  0  0  0  0  0  0  0  0
    0.6942    1.1189   -7.7283 H   0  0  0  0  0  0  0  0  0  0  0  0
    2.1874    0.0343   -6.9228 O   0  0  0  0  0  0  0  0  0  0  0  0
    0.4878    1.1329   -5.5424 C   0  0  0  0  0  0  0  0  0  0  0  0
    3.0340    0.3709    0.6528 N   0  0  0  0  0  0  0  0  0  0  0  0
    4.4192    0.3450    0.1886 C   0  0  0  0  0  0  0  0  0  0  0  0
    4.9044    1.7581   -0.1660 C   0  0  0  0  0  0  0  0  0  0  0  0
    4.7080    2.7088    1.0236 C   0  0  0  0  0  0  0  0  0  0  0  0
    3.2633    2.6559    1.5406 C   0  0  0  0  0  0  0  0  0  0  0  0
    2.8299    1.2132    1.8333 C   0  0  0  0  0  0  0  0  0  0  0  0
    2.5625   -1.7654   -1.2416 H   0  0  0  0  0  0  0  0  0  0  0  0
    2.9809   -0.1992   -1.9654 H   0  0  0  0  0  0  0  0  0  0  0  0
   -0.0143    1.2197   -1.5896 H   0  0  0  0  0  0  0  0  0  0  0  0
   -0.7141    0.8270   -3.1931 H   0  0  0  0  0  0  0  0  0  0  0  0
    3.4221    2.0943   -4.9810 H   0  0  0  0  0  0  0  0  0  0  0  0
    2.4858    3.5800   -4.8120 H   0  0  0  0  0  0  0  0  0  0  0  0
    2.9741    2.5029   -7.3572 H   0  0  0  0  0  0  0  0  0  0  0  0
    1.4336    3.3184   -6.9821 H   0  0  0  0  0  0  0  0  0  0  0  0
    2.6517   -0.0739   -6.0812 H   0  0  0  0  0  0  0  0  0  0  0  0
    0.2562    0.0988   -5.2495 H   0  0  0  0  0  0  0  0  0  0  0  0
   -0.4620    1.6833   -5.6789 H   0  0  0  0  0  0  0  0  0  0  0  0
    4.5273   -0.3389   -0.6611 H   0  0  0  0  0  0  0  0  0  0  0  0
    5.0437   -0.0697    1.0029 H   0  0  0  0  0  0  0  0  0  0  0  0
    4.3262    2.1186   -1.0335 H   0  0  0  0  0  0  0  0  0  0  0  0
    5.9666    1.7197   -0.4625 H   0  0  0  0  0  0  0  0  0  0  0  0
    4.9777    3.7392    0.7387 H   0  0  0  0  0  0  0  0  0  0  0  0
    5.3982    2.4200    1.8389 H   0  0  0  0  0  0  0  0  0  0  0  0
    2.5832    3.0768    0.7805 H   0  0  0  0  0  0  0  0  0  0  0  0
    3.1530    3.2669    2.4525 H   0  0  0  0  0  0  0  0  0  0  0  0
    1.7694    1.1550    2.1044 H   0  0  0  0  0  0  0  0  0  0  0  0
    3.4247    0.7984    2.6686 H   0  0  0  0  0  0  0  0  0  0  0  0
  1  2  2  0
  2  3  1  0
  2 15  1  0
  3  4  1  0
  3 21  1  0
  3 22  1  0
  4  5  1  0
  5  6  1  0
  5 23  1  0
  5 24  1  0
  6  7  2  0
  6  8  1  0
  8  9  1  0
  8 14  1  0
  9 10  1  0
  9 25  1  0
  9 26  1  0
 10 11  1  0
 10 27  1  0
 10 28  1  0
 11 12  1  6
 11 13  1  0
 11 14  1  0
 13 29  1  0
 14 30  1  0
 14 31  1  0
 15 16  1  0
 15 20  1  0
 16 17  1  0
 16 32  1  0
 16 33  1  0
 17 18  1  0
 17 34  1  0
 17 35  1  0
 18 19  1  0
 18 36  1  0
 18 37  1  0
 19 20  1  0
 19 38  1  0
 19 39  1  0
 20 40  1  0
 20 41  1  0
M  END

