
     RDKit          3D

 39 41  0  0  0  0  0  0  0  0999 V2000
    0.9869   -0.0597    0.2023 C   0  0  0  0  0  0  0  0  0  0  0  0
    2.4857   -0.1165    0.0714 C   0  0  0  0  0  0  0  0  0  0  0  0
    3.1824    0.9275   -0.4128 C   0  0  0  0  0  0  0  0  0  0  0  0
    4.6830    0.9343   -0.5483 C   0  0  0  0  0  0  0  0  0  0  0  0
    5.3178   -0.4258   -0.1989 C   0  0  2  0  0  0  0  0  0  0  0  0
    5.0505   -1.4844   -1.2994 C   0  0  0  0  0  0  0  0  0  0  0  0
    3.6412   -2.0497   -0.9883 C   0  0  1  0  0  0  0  0  0  0  0  0
    3.4188   -3.5704   -0.8611 C   0  0  2  0  0  0  0  0  0  0  0  0
    3.2478   -4.2983   -2.1931 C   0  0  0  0  0  0  0  0  0  0  0  0
    2.1939   -3.6368    0.0702 C   0  0  0  0  0  0  0  0  0  0  0  0
    2.4203   -2.5285    1.1197 C   0  0  0  0  0  0  0  0  0  0  0  0
    3.2393   -1.4188    0.4012 C   0  0  2  0  0  0  0  0  0  0  0  0
    4.6305   -1.0398    1.0581 C   0  0  1  0  0  0  0  0  0  0  0  0
    5.4535   -2.2462    1.5589 C   0  0  0  0  0  0  0  0  0  0  0  0
    4.5126   -0.0841    2.2588 C   0  0  0  0  0  0  0  0  0  0  0  0
    0.5912    0.8837   -0.2018 H   0  0  0  0  0  0  0  0  0  0  0  0
    0.6636   -0.1347    1.2550 H   0  0  0  0  0  0  0  0  0  0  0  0
    0.4948   -0.8899   -0.3343 H   0  0  0  0  0  0  0  0  0  0  0  0
    2.6510    1.8427   -0.6990 H   0  0  0  0  0  0  0  0  0  0  0  0
    5.1016    1.7257    0.1032 H   0  0  0  0  0  0  0  0  0  0  0  0
    4.9744    1.2290   -1.5738 H   0  0  0  0  0  0  0  0  0  0  0  0
    6.4000   -0.2832   -0.0376 H   0  0  0  0  0  0  0  0  0  0  0  0
    5.8098   -2.2818   -1.2615 H   0  0  0  0  0  0  0  0  0  0  0  0
    5.1143   -1.0437   -2.3064 H   0  0  0  0  0  0  0  0  0  0  0  0
    2.9267   -1.6952   -1.7490 H   0  0  0  0  0  0  0  0  0  0  0  0
    4.2762   -4.0222   -0.3324 H   0  0  0  0  0  0  0  0  0  0  0  0
    2.3984   -3.8849   -2.7639 H   0  0  0  0  0  0  0  0  0  0  0  0
    3.0584   -5.3742   -2.0450 H   0  0  0  0  0  0  0  0  0  0  0  0
    4.1480   -4.2045   -2.8226 H   0  0  0  0  0  0  0  0  0  0  0  0
    2.0487   -4.6333    0.5194 H   0  0  0  0  0  0  0  0  0  0  0  0
    1.2850   -3.4191   -0.5201 H   0  0  0  0  0  0  0  0  0  0  0  0
    2.9929   -2.9334    1.9663 H   0  0  0  0  0  0  0  0  0  0  0  0
    1.4738   -2.1679    1.5438 H   0  0  0  0  0  0  0  0  0  0  0  0
    5.6002   -3.0322    0.8084 H   0  0  0  0  0  0  0  0  0  0  0  0
    4.9968   -2.7136    2.4447 H   0  0  0  0  0  0  0  0  0  0  0  0
    6.4541   -1.8979    1.8633 H   0  0  0  0  0  0  0  0  0  0  0  0
    3.9493    0.8301    2.0359 H   0  0  0  0  0  0  0  0  0  0  0  0
    5.5138    0.2091    2.6165 H   0  0  0  0  0  0  0  0  0  0  0  0
    4.0054   -0.5884    3.0985 H   0  0  0  0  0  0  0  0  0  0  0  0
  1  2  1  0
  1 16  1  0
  1 17  1  0
  1 18  1  0
  2  3  2  0
 12  2  1  6
  3  4  1  0
  3 19  1  0
  4  5  1  0
  4 20  1  0
  4 21  1  0
  5  6  1  0
  5 13  1  0
  5 22  1  1
  6  7  1  0
  6 23  1  0
  6 24  1  0
  7  8  1  0
  7 12  1  0
  7 25  1  6
  8  9  1  0
  8 10  1  0
  8 26  1  1
  9 27  1  0
  9 28  1  0
  9 29  1  0
 10 11  1  0
 10 30  1  0
 10 31  1  0
 11 12  1  0
 11 32  1  0
 11 33  1  0
 12 13  1  0
 13 14  1  1
 13 15  1  0
 14 34  1  0
 14 35  1  0
 14 36  1  0
 15 37  1  0
 15 38  1  0
 15 39  1  0
M  END

