
     RDKit          3D

 36 37  0  0  0  0  0  0  0  0999 V2000
    4.9815   -4.2332    0.9821 O   0  0  0  0  0  0  0  0  0  0  0  0
    3.9971   -4.2057    0.2891 C   0  0  0  0  0  0  0  0  0  0  0  0
    3.8443   -4.9935   -0.7687 O   0  0  0  0  0  0  0  0  0  0  0  0
    2.7886   -3.2806    0.6058 C   0  0  1  0  0  0  0  0  0  0  0  0
    1.9015   -3.9346    0.6831 H   0  0  0  0  0  0  0  0  0  0  0  0
    3.0086   -2.4397    1.8727 C   0  0  0  0  0  0  0  0  0  0  0  0
    2.3683   -1.0815    1.5622 C   0  0  0  0  0  0  0  0  0  0  0  0
    2.6409   -0.9033    0.0678 C   0  0  0  0  0  0  0  0  0  0  0  0
    2.5082   -2.2757   -0.4549 N   0  0  0  0  0  0  0  0  0  0  0  0
    1.9775   -2.6574   -1.6322 C   0  0  0  0  0  0  0  0  0  0  0  0
    1.7854   -3.8463   -1.9181 O   0  0  0  0  0  0  0  0  0  0  0  0
    1.5438   -1.5962   -2.6421 C   0  0  0  0  0  0  0  0  0  0  0  0
    2.5684   -0.6415   -2.8274 O   0  0  0  0  0  0  0  0  0  0  0  0
    2.4227    0.3296   -3.7655 C   0  0  0  0  0  0  0  0  0  0  0  0
    1.2979    0.4543   -4.5916 C   0  0  0  0  0  0  0  0  0  0  0  0
    1.2329    1.4871   -5.5331 C   0  0  0  0  0  0  0  0  0  0  0  0
    2.2780    2.4002   -5.6622 C   0  0  0  0  0  0  0  0  0  0  0  0
    3.3997    2.2765   -4.8373 C   0  0  0  0  0  0  0  0  0  0  0  0
    3.4854    1.2539   -3.8906 C   0  0  0  0  0  0  0  0  0  0  0  0
    4.7010    1.1385   -3.0012 C   0  0  1  0  0  0  0  0  0  0  0  0
    5.3130   -0.0483   -3.1214 F   0  0  0  0  0  0  0  0  0  0  0  0
    5.6115    2.0863   -3.2847 F   0  0  0  0  0  0  0  0  0  0  0  0
    4.3800    1.2882   -1.6960 F   0  0  0  0  0  0  0  0  0  0  0  0
    2.9981   -4.7734   -1.2401 H   0  0  0  0  0  0  0  0  0  0  0  0
    4.0911   -2.3425    2.0395 H   0  0  0  0  0  0  0  0  0  0  0  0
    2.5850   -2.9280    2.7615 H   0  0  0  0  0  0  0  0  0  0  0  0
    2.7881   -0.2614    2.1627 H   0  0  0  0  0  0  0  0  0  0  0  0
    1.2806   -1.1087    1.7438 H   0  0  0  0  0  0  0  0  0  0  0  0
    3.6555   -0.5205   -0.1224 H   0  0  0  0  0  0  0  0  0  0  0  0
    1.9381   -0.2226   -0.4282 H   0  0  0  0  0  0  0  0  0  0  0  0
    0.6101   -1.1106   -2.2949 H   0  0  0  0  0  0  0  0  0  0  0  0
    1.3255   -2.1414   -3.5729 H   0  0  0  0  0  0  0  0  0  0  0  0
    0.4699   -0.2494   -4.5118 H   0  0  0  0  0  0  0  0  0  0  0  0
    0.3492    1.5695   -6.1707 H   0  0  0  0  0  0  0  0  0  0  0  0
    2.2259    3.2045   -6.3986 H   0  0  0  0  0  0  0  0  0  0  0  0
    4.2270    2.9818   -4.9248 H   0  0  0  0  0  0  0  0  0  0  0  0
  1  2  2  0
  2  3  1  0
  2  4  1  0
  3 24  1  0
  4  5  1  1
  4  6  1  0
  4  9  1  0
  6  7  1  0
  6 25  1  0
  6 26  1  0
  7  8  1  0
  7 27  1  0
  7 28  1  0
  8  9  1  0
  8 29  1  0
  8 30  1  0
  9 10  1  0
 10 11  2  0
 10 12  1  0
 12 13  1  0
 12 31  1  0
 12 32  1  0
 13 14  1  0
 14 15  2  0
 14 19  1  0
 15 16  1  0
 15 33  1  0
 16 17  2  0
 16 34  1  0
 17 18  1  0
 17 35  1  0
 18 19  2  0
 18 36  1  0
 19 20  1  0
 20 21  1  1
 20 22  1  0
 20 23  1  0
M  END

