
     RDKit          3D

 29 28  0  0  0  0  0  0  0  0999 V2000
    0.9639    0.4386   -0.1317 C   0  0  0  0  0  0  0  0  0  0  0  0
    2.4073    0.0026    0.1147 C   0  0  0  0  0  0  0  0  0  0  0  0
    2.9361    0.4161    1.4118 N   0  0  0  0  0  0  0  0  0  0  0  0
    2.2908   -0.2552    2.5261 C   0  0  0  0  0  0  0  0  0  0  0  0
    4.3912    0.3517    1.4839 C   0  0  0  0  0  0  0  0  0  0  0  0
    4.9736    1.3457    2.4938 C   0  0  0  0  0  0  0  0  0  0  0  0
    6.8031    1.2278    2.4829 S   0  0  0  0  0  0  0  0  0  0  0  0
    7.2616    2.6546    3.5660 C   0  0  1  0  0  0  0  0  0  0  0  0
    6.9073    2.4177    5.0343 C   0  0  0  0  0  0  0  0  0  0  0  0
    8.7566    2.9149    3.3689 C   0  0  0  0  0  0  0  0  0  0  0  0
    0.6683    0.2014   -1.1661 H   0  0  0  0  0  0  0  0  0  0  0  0
    0.8597    1.5245    0.0207 H   0  0  0  0  0  0  0  0  0  0  0  0
    0.2489   -0.0693    0.5341 H   0  0  0  0  0  0  0  0  0  0  0  0
    3.0451    0.4580   -0.6601 H   0  0  0  0  0  0  0  0  0  0  0  0
    2.4894   -1.1020   -0.0279 H   0  0  0  0  0  0  0  0  0  0  0  0
    1.2083   -0.0615    2.5267 H   0  0  0  0  0  0  0  0  0  0  0  0
    2.6828    0.1192    3.4830 H   0  0  0  0  0  0  0  0  0  0  0  0
    2.4393   -1.3607    2.5103 H   0  0  0  0  0  0  0  0  0  0  0  0
    4.7986    0.5997    0.4914 H   0  0  0  0  0  0  0  0  0  0  0  0
    4.7544   -0.6748    1.7217 H   0  0  0  0  0  0  0  0  0  0  0  0
    4.5975    1.1417    3.5081 H   0  0  0  0  0  0  0  0  0  0  0  0
    4.6654    2.3663    2.2151 H   0  0  0  0  0  0  0  0  0  0  0  0
    6.6958    3.5236    3.1880 H   0  0  0  0  0  0  0  0  0  0  0  0
    7.4452    1.5404    5.4280 H   0  0  0  0  0  0  0  0  0  0  0  0
    5.8294    2.2463    5.1763 H   0  0  0  0  0  0  0  0  0  0  0  0
    7.1852    3.2954    5.6435 H   0  0  0  0  0  0  0  0  0  0  0  0
    9.3545    2.0441    3.6854 H   0  0  0  0  0  0  0  0  0  0  0  0
    9.0763    3.7787    3.9746 H   0  0  0  0  0  0  0  0  0  0  0  0
    8.9922    3.1252    2.3147 H   0  0  0  0  0  0  0  0  0  0  0  0
  1  2  1  0
  1 11  1  0
  1 12  1  0
  1 13  1  0
  2  3  1  0
  2 14  1  0
  2 15  1  0
  3  4  1  0
  3  5  1  0
  4 16  1  0
  4 17  1  0
  4 18  1  0
  5  6  1  0
  5 19  1  0
  5 20  1  0
  6  7  1  0
  6 21  1  0
  6 22  1  0
  7  8  1  0
  8  9  1  0
  8 10  1  0
  8 23  1  6
  9 24  1  0
  9 25  1  0
  9 26  1  0
 10 27  1  0
 10 28  1  0
 10 29  1  0
M  END

