
     RDKit          3D

 49 50  0  0  0  0  0  0  0  0999 V2000
    7.5019   -6.0225   -1.2952 C   0  0  0  0  0  0  0  0  0  0  0  0
    7.5855   -4.5909   -0.8064 C   0  0  0  0  0  0  0  0  0  0  0  0
    6.2892   -3.9989   -0.9502 O   0  0  0  0  0  0  0  0  0  0  0  0
    6.1284   -2.7064   -0.5675 C   0  0  0  0  0  0  0  0  0  0  0  0
    7.1420   -2.0256   -0.0820 N   0  0  0  0  0  0  0  0  0  0  0  0
    6.9415   -0.7489    0.2865 C   0  0  0  0  0  0  0  0  0  0  0  0
    5.7045   -0.1279    0.1732 C   0  0  0  0  0  0  0  0  0  0  0  0
    4.6178   -0.8512   -0.3440 C   0  0  0  0  0  0  0  0  0  0  0  0
    4.8165   -2.1768   -0.7310 C   0  0  0  0  0  0  0  0  0  0  0  0
    3.8538   -3.0391   -1.2679 N   0  0  0  0  0  0  0  0  0  0  0  0
    2.5150   -2.7709   -1.4972 C   0  0  0  0  0  0  0  0  0  0  0  0
    1.9811   -1.6991   -1.2540 O   0  0  0  0  0  0  0  0  0  0  0  0
    1.8266   -3.8408   -2.0339 N   0  0  0  0  0  0  0  0  0  0  0  0
    0.4421   -3.7054   -2.4612 C   0  0  1  0  0  0  0  0  0  0  0  0
    0.3599   -3.1145   -3.8933 C   0  0  0  0  0  0  0  0  0  0  0  0
    0.9905   -3.8836   -4.9578 N   0  0  0  0  0  0  0  0  0  0  0  0
    2.3450   -4.0290   -5.1900 C   0  0  0  0  0  0  0  0  0  0  0  0
    2.4487   -4.8576   -6.2874 C   0  0  0  0  0  0  0  0  0  0  0  0
    1.2042   -5.2164   -6.7355 N   0  0  0  0  0  0  0  0  0  0  0  0
    0.3591   -4.6172   -5.9272 C   0  0  0  0  0  0  0  0  0  0  0  0
   -0.3823   -4.9978   -2.1398 C   0  0  1  0  0  0  0  0  0  0  0  0
   -0.4420   -5.1453   -0.6051 C   0  0  0  0  0  0  0  0  0  0  0  0
   -1.8213   -4.8440   -2.6681 C   0  0  0  0  0  0  0  0  0  0  0  0
    0.2438   -6.2762   -2.7353 C   0  0  0  0  0  0  0  0  0  0  0  0
    8.4845   -6.5101   -1.1997 H   0  0  0  0  0  0  0  0  0  0  0  0
    7.2006   -6.0630   -2.3538 H   0  0  0  0  0  0  0  0  0  0  0  0
    6.7736   -6.6008   -0.7052 H   0  0  0  0  0  0  0  0  0  0  0  0
    8.3182   -4.0015   -1.3819 H   0  0  0  0  0  0  0  0  0  0  0  0
    7.8944   -4.5339    0.2504 H   0  0  0  0  0  0  0  0  0  0  0  0
    7.8099   -0.2145    0.6860 H   0  0  0  0  0  0  0  0  0  0  0  0
    5.5755    0.9112    0.4832 H   0  0  0  0  0  0  0  0  0  0  0  0
    3.6287   -0.4102   -0.4487 H   0  0  0  0  0  0  0  0  0  0  0  0
    4.2060   -3.9743   -1.4429 H   0  0  0  0  0  0  0  0  0  0  0  0
    2.3462   -4.6382   -2.3808 H   0  0  0  0  0  0  0  0  0  0  0  0
    0.0262   -2.9048   -1.8303 H   0  0  0  0  0  0  0  0  0  0  0  0
    0.8382   -2.1238   -3.8517 H   0  0  0  0  0  0  0  0  0  0  0  0
   -0.6881   -2.9502   -4.1773 H   0  0  0  0  0  0  0  0  0  0  0  0
    3.0914   -3.5173   -4.5883 H   0  0  0  0  0  0  0  0  0  0  0  0
    3.3585   -5.2011   -6.7795 H   0  0  0  0  0  0  0  0  0  0  0  0
   -0.7288   -4.6643   -5.9915 H   0  0  0  0  0  0  0  0  0  0  0  0
   -0.9509   -4.2855   -0.1400 H   0  0  0  0  0  0  0  0  0  0  0  0
    0.5659   -5.2133   -0.1694 H   0  0  0  0  0  0  0  0  0  0  0  0
   -0.9954   -6.0562   -0.3261 H   0  0  0  0  0  0  0  0  0  0  0  0
   -2.2796   -3.9017   -2.3241 H   0  0  0  0  0  0  0  0  0  0  0  0
   -2.4492   -5.6703   -2.2993 H   0  0  0  0  0  0  0  0  0  0  0  0
   -1.8715   -4.8681   -3.7671 H   0  0  0  0  0  0  0  0  0  0  0  0
    1.2442   -6.4776   -2.3181 H   0  0  0  0  0  0  0  0  0  0  0  0
    0.3302   -6.2389   -3.8306 H   0  0  0  0  0  0  0  0  0  0  0  0
   -0.3793   -7.1490   -2.4822 H   0  0  0  0  0  0  0  0  0  0  0  0
  1  2  1  0
  1 25  1  0
  1 26  1  0
  1 27  1  0
  2  3  1  0
  2 28  1  0
  2 29  1  0
  3  4  1  0
  4  5  2  0
  4  9  1  0
  5  6  1  0
  6  7  2  0
  6 30  1  0
  7  8  1  0
  7 31  1  0
  8  9  2  0
  8 32  1  0
  9 10  1  0
 10 11  1  0
 10 33  1  0
 11 12  2  0
 11 13  1  0
 13 14  1  0
 13 34  1  0
 14 15  1  0
 14 21  1  0
 14 35  1  1
 15 16  1  0
 15 36  1  0
 15 37  1  0
 16 17  1  0
 16 20  1  0
 17 18  2  0
 17 38  1  0
 18 19  1  0
 18 39  1  0
 19 20  2  0
 20 40  1  0
 21 22  1  1
 21 23  1  0
 21 24  1  0
 22 41  1  0
 22 42  1  0
 22 43  1  0
 23 44  1  0
 23 45  1  0
 23 46  1  0
 24 47  1  0
 24 48  1  0
 24 49  1  0
M  END

