
     RDKit          3D

 44 47  0  0  0  0  0  0  0  0999 V2000
    1.3100   -0.7911   -0.9428 C   0  0  0  0  0  0  0  0  0  0  0  0
    2.8398   -0.8664   -0.7914 C   0  0  1  0  0  0  0  0  0  0  0  0
    3.4396   -1.3759   -2.1260 C   0  0  0  0  0  0  0  0  0  0  0  0
    3.9264   -2.4614   -2.2798 O   0  0  0  0  0  0  0  0  0  0  0  0
    3.3506   -0.5206   -3.1690 O   0  0  0  0  0  0  0  0  0  0  0  0
    3.4858    0.4774   -0.3597 C   0  0  0  0  0  0  0  0  0  0  0  0
    4.8270    0.0682    0.2526 C   0  0  0  0  0  0  0  0  0  0  0  0
    4.5366   -1.2456    0.8245 N   0  0  0  0  0  0  0  0  0  0  0  0
    5.4057   -1.8011    1.7281 C   0  0  0  0  0  0  0  0  0  0  0  0
    6.4248   -1.2392    2.0955 O   0  0  0  0  0  0  0  0  0  0  0  0
    5.0153   -3.0416    2.2434 N   0  0  0  0  0  0  0  0  0  0  0  0
    5.8640   -3.8344    3.0199 C   0  0  0  0  0  0  0  0  0  0  0  0
    6.3729   -5.1179    2.7931 C   0  0  0  0  0  0  0  0  0  0  0  0
    6.2232   -5.9546    1.6103 C   0  0  0  0  0  0  0  0  0  0  0  0
    6.6333   -7.2663    1.4801 C   0  0  0  0  0  0  0  0  0  0  0  0
    6.3553   -7.8166    0.1963 C   0  0  0  0  0  0  0  0  0  0  0  0
    5.7366   -6.9252   -0.6448 C   0  0  0  0  0  0  0  0  0  0  0  0
    5.4974   -5.3914    0.1195 S   0  0  0  0  0  0  0  0  0  0  0  0
    7.0579   -5.5682    3.8844 N   0  0  0  0  0  0  0  0  0  0  0  0
    7.0089   -4.5924    4.7787 C   0  0  0  0  0  0  0  0  0  0  0  0
    7.5665   -4.5023    6.0788 C   0  0  0  0  0  0  0  0  0  0  0  0
    7.3691   -3.3626    6.8248 C   0  0  0  0  0  0  0  0  0  0  0  0
    6.6168   -2.2750    6.2915 C   0  0  0  0  0  0  0  0  0  0  0  0
    6.0819   -2.3513    5.0327 C   0  0  0  0  0  0  0  0  0  0  0  0
    6.2687   -3.4941    4.2967 N   0  0  0  0  0  0  0  0  0  0  0  0
    3.2752   -1.8088    0.3498 C   0  0  0  0  0  0  0  0  0  0  0  0
    1.0098   -0.0948   -1.7420 H   0  0  0  0  0  0  0  0  0  0  0  0
    0.8490   -0.4411   -0.0062 H   0  0  0  0  0  0  0  0  0  0  0  0
    0.8869   -1.7778   -1.1879 H   0  0  0  0  0  0  0  0  0  0  0  0
    2.9428    0.3142   -2.8994 H   0  0  0  0  0  0  0  0  0  0  0  0
    2.8418    0.9466    0.4022 H   0  0  0  0  0  0  0  0  0  0  0  0
    3.6028    1.2077   -1.1757 H   0  0  0  0  0  0  0  0  0  0  0  0
    5.1865    0.7606    1.0276 H   0  0  0  0  0  0  0  0  0  0  0  0
    5.6227   -0.0011   -0.5117 H   0  0  0  0  0  0  0  0  0  0  0  0
    4.2198   -3.5155    1.8293 H   0  0  0  0  0  0  0  0  0  0  0  0
    7.1201   -7.7939    2.3000 H   0  0  0  0  0  0  0  0  0  0  0  0
    6.6074   -8.8374   -0.0959 H   0  0  0  0  0  0  0  0  0  0  0  0
    5.4173   -7.0721   -1.6754 H   0  0  0  0  0  0  0  0  0  0  0  0
    8.1408   -5.3539    6.4455 H   0  0  0  0  0  0  0  0  0  0  0  0
    7.7956   -3.2818    7.8269 H   0  0  0  0  0  0  0  0  0  0  0  0
    6.4680   -1.3643    6.8735 H   0  0  0  0  0  0  0  0  0  0  0  0
    5.5323   -1.5462    4.5494 H   0  0  0  0  0  0  0  0  0  0  0  0
    2.5101   -1.8151    1.1497 H   0  0  0  0  0  0  0  0  0  0  0  0
    3.3981   -2.8321   -0.0366 H   0  0  0  0  0  0  0  0  0  0  0  0
  1  2  1  0
  1 27  1  0
  1 28  1  0
  1 29  1  0
  2  3  1  6
  2  6  1  0
  2 26  1  0
  3  4  2  0
  3  5  1  0
  5 30  1  0
  6  7  1  0
  6 31  1  0
  6 32  1  0
  7  8  1  0
  7 33  1  0
  7 34  1  0
  8  9  1  0
  8 26  1  0
  9 10  2  0
  9 11  1  0
 11 12  1  0
 11 35  1  0
 12 13  2  0
 12 25  1  0
 13 14  1  0
 13 19  1  0
 14 15  2  0
 14 18  1  0
 15 16  1  0
 15 36  1  0
 16 17  2  0
 16 37  1  0
 17 18  1  0
 17 38  1  0
 19 20  2  0
 20 21  1  0
 20 25  1  0
 21 22  2  0
 21 39  1  0
 22 23  1  0
 22 40  1  0
 23 24  2  0
 23 41  1  0
 24 25  1  0
 24 42  1  0
 26 43  1  0
 26 44  1  0
M  END

