
     RDKit          3D

 51 54  0  0  0  0  0  0  0  0999 V2000
    3.0801   -0.1507    1.2762 O   0  0  0  0  0  0  0  0  0  0  0  0
    2.4528   -0.1215    0.2249 C   0  0  0  0  0  0  0  0  0  0  0  0
    1.2899    0.5748    0.0979 N   0  0  0  0  0  0  0  0  0  0  0  0
    0.7185    1.3032    1.2264 C   0  0  0  0  0  0  0  0  0  0  0  0
    1.1486    2.7580    1.3239 C   0  0  0  0  0  0  0  0  0  0  0  0
    0.2119    3.7904    1.4518 C   0  0  0  0  0  0  0  0  0  0  0  0
    0.6620    5.1116    1.5597 C   0  0  0  0  0  0  0  0  0  0  0  0
    1.9500    5.4578    1.5463 N   0  0  0  0  0  0  0  0  0  0  0  0
    2.8451    4.4706    1.4347 C   0  0  0  0  0  0  0  0  0  0  0  0
    2.5047    3.1206    1.3258 C   0  0  0  0  0  0  0  0  0  0  0  0
    3.0197   -0.8269   -1.0253 C   0  0  1  0  0  0  0  0  0  0  0  0
    3.7782   -2.1039   -0.6174 C   0  0  0  0  0  0  0  0  0  0  0  0
    2.8058   -3.2209   -0.2194 C   0  0  0  0  0  0  0  0  0  0  0  0
    1.7570   -3.4815   -1.3072 C   0  0  0  0  0  0  0  0  0  0  0  0
    1.1145   -2.2366   -1.7182 N   0  0  0  0  0  0  0  0  0  0  0  0
   -0.2223   -2.1069   -1.8655 C   0  0  0  0  0  0  0  0  0  0  0  0
   -0.8315   -0.9938   -2.2190 N   0  0  0  0  0  0  0  0  0  0  0  0
   -2.1828   -1.2108   -2.2934 C   0  0  0  0  0  0  0  0  0  0  0  0
   -3.1052   -0.0822   -2.6798 C   0  0  0  0  0  0  0  0  0  0  0  0
   -3.2008    0.9950   -1.6148 C   0  0  0  0  0  0  0  0  0  0  0  0
   -2.7946    2.3110   -1.8745 C   0  0  0  0  0  0  0  0  0  0  0  0
   -2.8718    3.3009   -0.8902 C   0  0  0  0  0  0  0  0  0  0  0  0
   -3.3603    2.9564    0.3657 C   0  0  0  0  0  0  0  0  0  0  0  0
   -3.4042    3.8931    1.3309 F   0  0  0  0  0  0  0  0  0  0  0  0
   -3.7792    1.6602    0.6598 C   0  0  0  0  0  0  0  0  0  0  0  0
   -3.6971    0.6863   -0.3371 C   0  0  0  0  0  0  0  0  0  0  0  0
   -2.6747   -2.3934   -2.0133 N   0  0  0  0  0  0  0  0  0  0  0  0
   -1.3865   -3.4170   -1.6240 S   0  0  0  0  0  0  0  0  0  0  0  0
    2.0161   -1.1628   -2.1333 C   0  0  0  0  0  0  0  0  0  0  0  0
    0.7428    0.5234   -0.7556 H   0  0  0  0  0  0  0  0  0  0  0  0
    1.0362    0.7786    2.1414 H   0  0  0  0  0  0  0  0  0  0  0  0
   -0.3775    1.2433    1.1595 H   0  0  0  0  0  0  0  0  0  0  0  0
   -0.8600    3.5844    1.4736 H   0  0  0  0  0  0  0  0  0  0  0  0
   -0.0653    5.9268    1.6587 H   0  0  0  0  0  0  0  0  0  0  0  0
    3.9011    4.7673    1.4376 H   0  0  0  0  0  0  0  0  0  0  0  0
    3.2819    2.3562    1.2663 H   0  0  0  0  0  0  0  0  0  0  0  0
    3.7465   -0.1068   -1.4433 H   0  0  0  0  0  0  0  0  0  0  0  0
    4.4517   -1.8718    0.2183 H   0  0  0  0  0  0  0  0  0  0  0  0
    4.3994   -2.4329   -1.4689 H   0  0  0  0  0  0  0  0  0  0  0  0
    2.2947   -2.9426    0.7172 H   0  0  0  0  0  0  0  0  0  0  0  0
    3.3535   -4.1561   -0.0190 H   0  0  0  0  0  0  0  0  0  0  0  0
    0.9895   -4.1783   -0.9391 H   0  0  0  0  0  0  0  0  0  0  0  0
    2.2319   -3.9557   -2.1892 H   0  0  0  0  0  0  0  0  0  0  0  0
   -4.0961   -0.5183   -2.8743 H   0  0  0  0  0  0  0  0  0  0  0  0
   -2.7397    0.3616   -3.6185 H   0  0  0  0  0  0  0  0  0  0  0  0
   -2.4067    2.5713   -2.8630 H   0  0  0  0  0  0  0  0  0  0  0  0
   -2.5528    4.3271   -1.0820 H   0  0  0  0  0  0  0  0  0  0  0  0
   -4.1603    1.4316    1.6571 H   0  0  0  0  0  0  0  0  0  0  0  0
   -4.0174   -0.3362   -0.1188 H   0  0  0  0  0  0  0  0  0  0  0  0
    1.4090   -0.3068   -2.4491 H   0  0  0  0  0  0  0  0  0  0  0  0
    2.5788   -1.4961   -3.0266 H   0  0  0  0  0  0  0  0  0  0  0  0
  1  2  2  0
  2  3  1  0
  2 11  1  0
  3  4  1  0
  3 30  1  0
  4  5  1  0
  4 31  1  0
  4 32  1  0
  5  6  2  0
  5 10  1  0
  6  7  1  0
  6 33  1  0
  7  8  2  0
  7 34  1  0
  8  9  1  0
  9 10  2  0
  9 35  1  0
 10 36  1  0
 11 12  1  0
 11 29  1  0
 11 37  1  6
 12 13  1  0
 12 38  1  0
 12 39  1  0
 13 14  1  0
 13 40  1  0
 13 41  1  0
 14 15  1  0
 14 42  1  0
 14 43  1  0
 15 16  1  0
 15 29  1  0
 16 17  2  0
 16 28  1  0
 17 18  1  0
 18 19  1  0
 18 27  2  0
 19 20  1  0
 19 44  1  0
 19 45  1  0
 20 21  2  0
 20 26  1  0
 21 22  1  0
 21 46  1  0
 22 23  2  0
 22 47  1  0
 23 24  1  0
 23 25  1  0
 25 26  2  0
 25 48  1  0
 26 49  1  0
 27 28  1  0
 29 50  1  0
 29 51  1  0
M  END

