
     RDKit          3D

 54 57  0  0  0  0  0  0  0  0999 V2000
    1.0130   -0.1839   -0.0528 C   0  0  0  0  0  0  0  0  0  0  0  0
    2.4993    0.0692   -0.0842 C   0  0  0  0  0  0  0  0  0  0  0  0
    3.1367    1.2690    0.0358 C   0  0  0  0  0  0  0  0  0  0  0  0
    2.4651    2.5619    0.2945 C   0  0  0  0  0  0  0  0  0  0  0  0
    3.0336    3.5296    0.7487 O   0  0  0  0  0  0  0  0  0  0  0  0
    1.1531    2.5920   -0.0642 O   0  0  0  0  0  0  0  0  0  0  0  0
    0.4694    3.8398    0.0784 C   0  0  0  0  0  0  0  0  0  0  0  0
    0.6794    4.7853   -1.0890 C   0  0  0  0  0  0  0  0  0  0  0  0
    1.3521    4.4008   -2.2548 C   0  0  0  0  0  0  0  0  0  0  0  0
    1.5288    5.3075   -3.3059 C   0  0  0  0  0  0  0  0  0  0  0  0
    1.0166    6.6034   -3.2100 C   0  0  0  0  0  0  0  0  0  0  0  0
    0.3317    6.9913   -2.0531 C   0  0  0  0  0  0  0  0  0  0  0  0
    0.1703    6.0901   -0.9992 C   0  0  0  0  0  0  0  0  0  0  0  0
    4.6537    1.3895   -0.1208 C   0  0  2  0  0  0  0  0  0  0  0  0
    4.9815    2.0656   -1.4574 C   0  0  0  0  0  0  0  0  0  0  0  0
    5.5274    3.3552   -1.4937 C   0  0  0  0  0  0  0  0  0  0  0  0
    5.7534    4.0038   -2.7092 C   0  0  0  0  0  0  0  0  0  0  0  0
    5.4387    3.3642   -3.9128 C   0  0  0  0  0  0  0  0  0  0  0  0
    5.5917    4.0823   -5.2266 C   0  0  1  0  0  0  0  0  0  0  0  0
    6.4793    5.0880   -5.1616 F   0  0  0  0  0  0  0  0  0  0  0  0
    5.9889    3.2543   -6.2113 F   0  0  0  0  0  0  0  0  0  0  0  0
    4.4192    4.6240   -5.6360 F   0  0  0  0  0  0  0  0  0  0  0  0
    4.9144    2.0651   -3.8931 C   0  0  0  0  0  0  0  0  0  0  0  0
    4.6887    1.4279   -2.6741 C   0  0  0  0  0  0  0  0  0  0  0  0
    5.3319    0.0423    0.0307 C   0  0  0  0  0  0  0  0  0  0  0  0
    4.6313   -1.1200   -0.0911 C   0  0  0  0  0  0  0  0  0  0  0  0
    5.2636   -2.4856   -0.0060 C   0  0  0  0  0  0  0  0  0  0  0  0
    6.7631   -2.4293   -0.3070 C   0  0  0  0  0  0  0  0  0  0  0  0
    7.4390   -1.3320    0.5159 C   0  0  0  0  0  0  0  0  0  0  0  0
    6.7698    0.0307    0.3497 C   0  0  0  0  0  0  0  0  0  0  0  0
    7.3947    1.0665    0.5131 O   0  0  0  0  0  0  0  0  0  0  0  0
    3.2610   -1.0852   -0.2452 N   0  0  0  0  0  0  0  0  0  0  0  0
    0.5187    0.4120    0.7225 H   0  0  0  0  0  0  0  0  0  0  0  0
    0.8045   -1.2485    0.1383 H   0  0  0  0  0  0  0  0  0  0  0  0
    0.5456    0.0958   -1.0099 H   0  0  0  0  0  0  0  0  0  0  0  0
    0.7852    4.3278    1.0129 H   0  0  0  0  0  0  0  0  0  0  0  0
   -0.5950    3.5692    0.1641 H   0  0  0  0  0  0  0  0  0  0  0  0
    1.7547    3.3901   -2.3405 H   0  0  0  0  0  0  0  0  0  0  0  0
    2.0850    5.0008   -4.1951 H   0  0  0  0  0  0  0  0  0  0  0  0
    1.1562    7.3120   -4.0303 H   0  0  0  0  0  0  0  0  0  0  0  0
   -0.0690    8.0048   -1.9666 H   0  0  0  0  0  0  0  0  0  0  0  0
   -0.3521    6.4077   -0.0912 H   0  0  0  0  0  0  0  0  0  0  0  0
    5.0354    2.0552    0.6658 H   0  0  0  0  0  0  0  0  0  0  0  0
    5.7659    3.8598   -0.5558 H   0  0  0  0  0  0  0  0  0  0  0  0
    6.1722    5.0115   -2.7227 H   0  0  0  0  0  0  0  0  0  0  0  0
    4.6831    1.5569   -4.8317 H   0  0  0  0  0  0  0  0  0  0  0  0
    4.2720    0.4175   -2.6693 H   0  0  0  0  0  0  0  0  0  0  0  0
    4.7500   -3.1720   -0.7026 H   0  0  0  0  0  0  0  0  0  0  0  0
    5.0931   -2.8946    1.0087 H   0  0  0  0  0  0  0  0  0  0  0  0
    6.9068   -2.2227   -1.3815 H   0  0  0  0  0  0  0  0  0  0  0  0
    7.2249   -3.4087   -0.1067 H   0  0  0  0  0  0  0  0  0  0  0  0
    8.5031   -1.2145    0.2630 H   0  0  0  0  0  0  0  0  0  0  0  0
    7.3984   -1.5844    1.5926 H   0  0  0  0  0  0  0  0  0  0  0  0
    2.7674   -1.9661   -0.3137 H   0  0  0  0  0  0  0  0  0  0  0  0
  1  2  1  0
  1 33  1  0
  1 34  1  0
  1 35  1  0
  2  3  2  0
  2 32  1  0
  3  4  1  0
  3 14  1  0
  4  5  2  0
  4  6  1  0
  6  7  1  0
  7  8  1  0
  7 36  1  0
  7 37  1  0
  8  9  2  0
  8 13  1  0
  9 10  1  0
  9 38  1  0
 10 11  2  0
 10 39  1  0
 11 12  1  0
 11 40  1  0
 12 13  2  0
 12 41  1  0
 13 42  1  0
 14 15  1  0
 14 25  1  0
 14 43  1  1
 15 16  2  0
 15 24  1  0
 16 17  1  0
 16 44  1  0
 17 18  2  0
 17 45  1  0
 18 19  1  0
 18 23  1  0
 19 20  1  1
 19 21  1  0
 19 22  1  0
 23 24  2  0
 23 46  1  0
 24 47  1  0
 25 26  2  0
 25 30  1  0
 26 27  1  0
 26 32  1  0
 27 28  1  0
 27 48  1  0
 27 49  1  0
 28 29  1  0
 28 50  1  0
 28 51  1  0
 29 30  1  0
 29 52  1  0
 29 53  1  0
 30 31  2  0
 32 54  1  0
M  END

