
     RDKit          3D

 70 72  0  0  0  0  0  0  0  0999 V2000
    8.9697    3.6969    5.3632 C   0  0  0  0  0  0  0  0  0  0  0  0
    9.1769    2.8934    6.6457 C   0  0  0  0  0  0  0  0  0  0  0  0
    9.6004    1.4334    6.4215 C   0  0  1  0  0  0  0  0  0  0  0  0
    9.9957    0.7283    7.7219 C   0  0  0  0  0  0  0  0  0  0  0  0
    8.5238    0.7121    5.7111 N   0  0  0  0  0  0  0  0  0  0  0  0
    8.8664   -0.6007    4.7315 S   0  0  1  0  0  0  0  0  0  0  0  0
   10.3104   -0.8485    4.7656 O   0  0  0  0  0  0  0  0  0  0  0  0
    7.8962   -1.6487    5.0492 O   0  0  0  0  0  0  0  0  0  0  0  0
    8.5055   -0.0345    3.0555 C   0  0  0  0  0  0  0  0  0  0  0  0
    9.5383   -0.0527    2.1220 C   0  0  0  0  0  0  0  0  0  0  0  0
    9.2495    0.2612    0.7948 C   0  0  0  0  0  0  0  0  0  0  0  0
   10.3413    0.2534   -0.1982 N   0  0  0  0  0  0  0  0  0  0  0  0
   11.4628   -0.0089    0.2018 O   0  0  0  0  0  0  0  0  0  0  0  0
   10.0487    0.5143   -1.3541 O   0  0  0  0  0  0  0  0  0  0  0  0
    7.9543    0.5738    0.3803 C   0  0  0  0  0  0  0  0  0  0  0  0
    6.9244    0.5912    1.3173 C   0  0  0  0  0  0  0  0  0  0  0  0
    7.1943    0.2960    2.6605 C   0  0  0  0  0  0  0  0  0  0  0  0
    6.2425    0.3653    3.6356 O   0  0  0  0  0  0  0  0  0  0  0  0
    4.9354    0.1021    3.3377 C   0  0  0  0  0  0  0  0  0  0  0  0
    4.3671   -1.0791    2.8877 C   0  0  0  0  0  0  0  0  0  0  0  0
    5.0732   -2.3623    2.5751 C   0  0  0  0  0  0  0  0  0  0  0  0
    2.9853   -0.7501    2.8472 C   0  0  0  0  0  0  0  0  0  0  0  0
    1.8557   -1.6384    2.4440 C   0  0  0  0  0  0  0  0  0  0  0  0
    2.0347   -2.7989    2.0897 O   0  0  0  0  0  0  0  0  0  0  0  0
    0.6284   -1.0501    2.5026 N   0  0  0  0  0  0  0  0  0  0  0  0
   -0.5945   -1.7672    2.1836 C   0  0  0  0  0  0  0  0  0  0  0  0
   -1.2860   -2.3774    3.3877 C   0  0  0  0  0  0  0  0  0  0  0  0
   -0.7286   -3.4677    4.0740 C   0  0  0  0  0  0  0  0  0  0  0  0
   -1.3992   -3.9814    5.1828 C   0  0  0  0  0  0  0  0  0  0  0  0
   -2.6074   -3.3889    5.5701 C   0  0  0  0  0  0  0  0  0  0  0  0
   -3.1524   -2.3549    4.9276 N   0  0  0  0  0  0  0  0  0  0  0  0
   -2.5019   -1.8702    3.8668 C   0  0  0  0  0  0  0  0  0  0  0  0
    2.7580    0.5016    3.2552 N   0  0  0  0  0  0  0  0  0  0  0  0
    3.9486    1.0305    3.5520 N   0  0  0  0  0  0  0  0  0  0  0  0
    4.0657    2.4135    4.1114 C   0  0  1  0  0  0  0  0  0  0  0  0
    4.6655    2.3239    5.5266 C   0  0  0  0  0  0  0  0  0  0  0  0
    4.9579    3.2591    3.1853 C   0  0  0  0  0  0  0  0  0  0  0  0
    2.6651    3.0348    4.1802 C   0  0  0  0  0  0  0  0  0  0  0  0
    8.6624    4.7305    5.5868 H   0  0  0  0  0  0  0  0  0  0  0  0
    8.1940    3.2418    4.7285 H   0  0  0  0  0  0  0  0  0  0  0  0
    9.8979    3.7468    4.7702 H   0  0  0  0  0  0  0  0  0  0  0  0
    8.2561    2.9074    7.2580 H   0  0  0  0  0  0  0  0  0  0  0  0
    9.9541    3.3736    7.2644 H   0  0  0  0  0  0  0  0  0  0  0  0
   10.4668    1.4211    5.7418 H   0  0  0  0  0  0  0  0  0  0  0  0
    9.1472    0.6947    8.4269 H   0  0  0  0  0  0  0  0  0  0  0  0
   10.8239    1.2579    8.2186 H   0  0  0  0  0  0  0  0  0  0  0  0
   10.3218   -0.3015    7.5167 H   0  0  0  0  0  0  0  0  0  0  0  0
    7.6927    0.5001    6.2630 H   0  0  0  0  0  0  0  0  0  0  0  0
   10.5503   -0.3216    2.4237 H   0  0  0  0  0  0  0  0  0  0  0  0
    7.7724    0.8052   -0.6690 H   0  0  0  0  0  0  0  0  0  0  0  0
    5.9052    0.8337    1.0137 H   0  0  0  0  0  0  0  0  0  0  0  0
    5.9989   -2.4484    3.1642 H   0  0  0  0  0  0  0  0  0  0  0  0
    5.3364   -2.4297    1.5056 H   0  0  0  0  0  0  0  0  0  0  0  0
    4.4182   -3.2152    2.7923 H   0  0  0  0  0  0  0  0  0  0  0  0
    0.5832   -0.1119    2.8865 H   0  0  0  0  0  0  0  0  0  0  0  0
   -0.3174   -2.5614    1.4748 H   0  0  0  0  0  0  0  0  0  0  0  0
   -1.2843   -1.0794    1.6690 H   0  0  0  0  0  0  0  0  0  0  0  0
    0.2163   -3.8977    3.7305 H   0  0  0  0  0  0  0  0  0  0  0  0
   -0.9981   -4.8314    5.7402 H   0  0  0  0  0  0  0  0  0  0  0  0
   -3.1569   -3.7720    6.4387 H   0  0  0  0  0  0  0  0  0  0  0  0
   -2.9745   -1.0220    3.3530 H   0  0  0  0  0  0  0  0  0  0  0  0
    5.6777    1.8972    5.5071 H   0  0  0  0  0  0  0  0  0  0  0  0
    4.0314    1.7009    6.1758 H   0  0  0  0  0  0  0  0  0  0  0  0
    4.7263    3.3301    5.9687 H   0  0  0  0  0  0  0  0  0  0  0  0
    5.9846    2.8713    3.1344 H   0  0  0  0  0  0  0  0  0  0  0  0
    5.0105    4.2910    3.5641 H   0  0  0  0  0  0  0  0  0  0  0  0
    4.5415    3.2920    2.1667 H   0  0  0  0  0  0  0  0  0  0  0  0
    1.9978    2.4552    4.8316 H   0  0  0  0  0  0  0  0  0  0  0  0
    2.2005    3.0942    3.1866 H   0  0  0  0  0  0  0  0  0  0  0  0
    2.7568    4.0532    4.5869 H   0  0  0  0  0  0  0  0  0  0  0  0
  1  2  1  0
  1 39  1  0
  1 40  1  0
  1 41  1  0
  2  3  1  0
  2 42  1  0
  2 43  1  0
  3  4  1  0
  3  5  1  0
  3 44  1  6
  4 45  1  0
  4 46  1  0
  4 47  1  0
  6  5  1  1
  5 48  1  0
  6  7  2  0
  6  8  2  0
  6  9  1  0
  9 10  2  0
  9 17  1  0
 10 11  1  0
 10 49  1  0
 11 12  1  0
 11 15  2  0
 12 13  1  0
 12 14  1  0
 15 16  1  0
 15 50  1  0
 16 17  2  0
 16 51  1  0
 17 18  1  0
 18 19  2  0
 19 20  1  0
 19 34  1  0
 20 21  1  0
 20 22  2  0
 21 52  1  0
 21 53  1  0
 21 54  1  0
 22 23  1  0
 22 33  1  0
 23 24  2  0
 23 25  1  0
 25 26  1  0
 25 55  1  0
 26 27  1  0
 26 56  1  0
 26 57  1  0
 27 28  2  0
 27 32  1  0
 28 29  1  0
 28 58  1  0
 29 30  2  0
 29 59  1  0
 30 31  1  0
 30 60  1  0
 31 32  2  0
 32 61  1  0
 33 34  2  0
 34 35  1  0
 35 36  1  1
 35 37  1  0
 35 38  1  0
 36 62  1  0
 36 63  1  0
 36 64  1  0
 37 65  1  0
 37 66  1  0
 37 67  1  0
 38 68  1  0
 38 69  1  0
 38 70  1  0
M  CHG  4  13  -1  14  -1  18   1  34   1
M  END

