
     RDKit          3D

 32 34  0  0  0  0  0  0  0  0999 V2000
    0.8567   -0.0689   -0.4499 C   0  0  0  0  0  0  0  0  0  0  0  0
    2.3416   -0.0362   -0.1955 C   0  0  0  0  0  0  0  0  0  0  0  0
    3.0657   -1.2712   -0.1141 C   0  0  0  0  0  0  0  0  0  0  0  0
    4.4204   -1.3370    0.1144 C   0  0  0  0  0  0  0  0  0  0  0  0
    5.1244   -2.6677    0.1891 C   0  0  0  0  0  0  0  0  0  0  0  0
    5.1626   -0.1066    0.2824 C   0  0  0  0  0  0  0  0  0  0  0  0
    6.5467   -0.0857    0.5185 C   0  0  0  0  0  0  0  0  0  0  0  0
    7.2500    1.1196    0.6791 C   0  0  0  0  0  0  0  0  0  0  0  0
    8.6558    1.1973    0.9206 C   0  0  0  0  0  0  0  0  0  0  0  0
    9.2732    2.4198    1.0671 C   0  0  0  0  0  0  0  0  0  0  0  0
   10.7491    2.5615    1.3228 C   0  0  0  0  0  0  0  0  0  0  0  0
    8.5755    3.6028    0.9889 N   0  0  0  0  0  0  0  0  0  0  0  0
    7.2898    3.5665    0.7692 C   0  0  0  0  0  0  0  0  0  0  0  0
    6.5311    2.3614    0.5992 C   0  0  0  0  0  0  0  0  0  0  0  0
    5.1506    2.3513    0.3641 C   0  0  0  0  0  0  0  0  0  0  0  0
    4.4450    1.1494    0.2030 C   0  0  0  0  0  0  0  0  0  0  0  0
    3.0340    1.1392   -0.0376 C   0  0  0  0  0  0  0  0  0  0  0  0
    0.3293   -0.6303    0.3403 H   0  0  0  0  0  0  0  0  0  0  0  0
    0.6270   -0.5736   -1.4041 H   0  0  0  0  0  0  0  0  0  0  0  0
    0.4283    0.9431   -0.4902 H   0  0  0  0  0  0  0  0  0  0  0  0
    2.5078   -2.2046   -0.2407 H   0  0  0  0  0  0  0  0  0  0  0  0
    4.4179   -3.4969    0.0410 H   0  0  0  0  0  0  0  0  0  0  0  0
    5.6152   -2.8143    1.1661 H   0  0  0  0  0  0  0  0  0  0  0  0
    5.9117   -2.7554   -0.5787 H   0  0  0  0  0  0  0  0  0  0  0  0
    7.1037   -1.0222    0.5813 H   0  0  0  0  0  0  0  0  0  0  0  0
    9.2378    0.2743    0.9880 H   0  0  0  0  0  0  0  0  0  0  0  0
   11.2561    1.5874    1.3754 H   0  0  0  0  0  0  0  0  0  0  0  0
   10.9214    3.1037    2.2672 H   0  0  0  0  0  0  0  0  0  0  0  0
   11.2172    3.1637    0.5266 H   0  0  0  0  0  0  0  0  0  0  0  0
    6.7613    4.5290    0.7124 H   0  0  0  0  0  0  0  0  0  0  0  0
    4.6102    3.3010    0.3045 H   0  0  0  0  0  0  0  0  0  0  0  0
    2.5113    2.0984   -0.0941 H   0  0  0  0  0  0  0  0  0  0  0  0
  1  2  1  0
  1 18  1  0
  1 19  1  0
  1 20  1  0
  2  3  2  0
  2 17  1  0
  3  4  1  0
  3 21  1  0
  4  5  1  0
  4  6  2  0
  5 22  1  0
  5 23  1  0
  5 24  1  0
  6  7  1  0
  6 16  1  0
  7  8  2  0
  7 25  1  0
  8  9  1  0
  8 14  1  0
  9 10  2  0
  9 26  1  0
 10 11  1  0
 10 12  1  0
 11 27  1  0
 11 28  1  0
 11 29  1  0
 12 13  2  0
 13 14  1  0
 13 30  1  0
 14 15  2  0
 15 16  1  0
 15 31  1  0
 16 17  2  0
 17 32  1  0
M  END

