
     RDKit          3D

 47 48  0  0  0  0  0  0  0  0999 V2000
    7.5871    0.4253    3.0659 C   0  0  0  0  0  0  0  0  0  0  0  0
    7.1538    1.4163    1.9853 C   0  0  0  0  0  0  0  0  0  0  0  0
    7.5022    0.9908    0.5434 C   0  0  0  0  0  0  0  0  0  0  0  0
    6.8093   -0.2721    0.0840 C   0  0  0  0  0  0  0  0  0  0  0  0
    5.4874   -0.2504   -0.3514 C   0  0  0  0  0  0  0  0  0  0  0  0
    4.9164   -1.4827   -0.7369 C   0  0  0  0  0  0  0  0  0  0  0  0
    3.6255   -1.5876   -1.1577 N   0  0  0  0  0  0  0  0  0  0  0  0
    5.6339   -2.6142   -0.6888 N   0  0  0  0  0  0  0  0  0  0  0  0
    6.8969   -2.5337   -0.2621 C   0  0  0  0  0  0  0  0  0  0  0  0
    7.7158   -3.8448   -0.3139 C   0  0  1  0  0  0  0  0  0  0  0  0
    8.9775   -3.6862    0.3138 O   0  0  0  0  0  0  0  0  0  0  0  0
    9.0464   -3.5219    1.7172 C   0  0  0  0  0  0  0  0  0  0  0  0
   10.3944   -2.9063    2.0487 C   0  0  0  0  0  0  0  0  0  0  0  0
    6.8964   -4.9949    0.3142 C   0  0  0  0  0  0  0  0  0  0  0  0
    7.4759   -6.4112    0.1849 C   0  0  0  0  0  0  0  0  0  0  0  0
    7.3511   -7.0115   -1.2257 C   0  0  0  0  0  0  0  0  0  0  0  0
    8.4565   -6.6269   -2.2287 C   0  0  0  0  0  0  0  0  0  0  0  0
    9.0444   -5.2117   -2.0952 C   0  0  0  0  0  0  0  0  0  0  0  0
    8.0551   -4.0705   -1.8150 C   0  0  0  0  0  0  0  0  0  0  0  0
    7.5155   -1.4186    0.1278 N   0  0  0  0  0  0  0  0  0  0  0  0
    7.3362    0.8033    4.0701 H   0  0  0  0  0  0  0  0  0  0  0  0
    8.6747    0.2489    3.0341 H   0  0  0  0  0  0  0  0  0  0  0  0
    7.0946   -0.5521    2.9437 H   0  0  0  0  0  0  0  0  0  0  0  0
    7.6292    2.3949    2.1733 H   0  0  0  0  0  0  0  0  0  0  0  0
    6.0652    1.5910    2.0567 H   0  0  0  0  0  0  0  0  0  0  0  0
    8.5873    0.8252    0.4575 H   0  0  0  0  0  0  0  0  0  0  0  0
    7.2350    1.8148   -0.1392 H   0  0  0  0  0  0  0  0  0  0  0  0
    4.9168    0.6803   -0.3953 H   0  0  0  0  0  0  0  0  0  0  0  0
    3.0751   -0.7647   -1.3558 H   0  0  0  0  0  0  0  0  0  0  0  0
    3.3201   -2.4805   -1.5228 H   0  0  0  0  0  0  0  0  0  0  0  0
    8.9366   -4.4984    2.2303 H   0  0  0  0  0  0  0  0  0  0  0  0
    8.2380   -2.8637    2.0792 H   0  0  0  0  0  0  0  0  0  0  0  0
   11.2139   -3.5406    1.6750 H   0  0  0  0  0  0  0  0  0  0  0  0
   10.5133   -2.7918    3.1382 H   0  0  0  0  0  0  0  0  0  0  0  0
   10.4809   -1.9175    1.5738 H   0  0  0  0  0  0  0  0  0  0  0  0
    5.8933   -4.9694   -0.1360 H   0  0  0  0  0  0  0  0  0  0  0  0
    6.7458   -4.7587    1.3808 H   0  0  0  0  0  0  0  0  0  0  0  0
    6.9211   -7.0555    0.8880 H   0  0  0  0  0  0  0  0  0  0  0  0
    8.5263   -6.4318    0.5236 H   0  0  0  0  0  0  0  0  0  0  0  0
    6.3660   -6.7181   -1.6301 H   0  0  0  0  0  0  0  0  0  0  0  0
    7.3197   -8.1122   -1.1543 H   0  0  0  0  0  0  0  0  0  0  0  0
    8.0575   -6.7673   -3.2492 H   0  0  0  0  0  0  0  0  0  0  0  0
    9.2918   -7.3439   -2.1401 H   0  0  0  0  0  0  0  0  0  0  0  0
    9.5872   -4.9809   -3.0276 H   0  0  0  0  0  0  0  0  0  0  0  0
    9.8037   -5.1885   -1.2996 H   0  0  0  0  0  0  0  0  0  0  0  0
    7.1128   -4.1976   -2.3719 H   0  0  0  0  0  0  0  0  0  0  0  0
    8.5055   -3.1273   -2.1641 H   0  0  0  0  0  0  0  0  0  0  0  0
  1  2  1  0
  1 21  1  0
  1 22  1  0
  1 23  1  0
  2  3  1  0
  2 24  1  0
  2 25  1  0
  3  4  1  0
  3 26  1  0
  3 27  1  0
  4  5  2  0
  4 20  1  0
  5  6  1  0
  5 28  1  0
  6  7  1  0
  6  8  2  0
  7 29  1  0
  7 30  1  0
  8  9  1  0
  9 10  1  0
  9 20  2  0
 10 11  1  1
 10 14  1  0
 10 19  1  0
 11 12  1  0
 12 13  1  0
 12 31  1  0
 12 32  1  0
 13 33  1  0
 13 34  1  0
 13 35  1  0
 14 15  1  0
 14 36  1  0
 14 37  1  0
 15 16  1  0
 15 38  1  0
 15 39  1  0
 16 17  1  0
 16 40  1  0
 16 41  1  0
 17 18  1  0
 17 42  1  0
 17 43  1  0
 18 19  1  0
 18 44  1  0
 18 45  1  0
 19 46  1  0
 19 47  1  0
M  END

