
     RDKit          3D

 52 55  0  0  0  0  0  0  0  0999 V2000
    0.5051    0.7151   -1.1338 C   0  0  0  0  0  0  0  0  0  0  0  0
    2.0018    0.5127   -0.9044 C   0  0  0  0  0  0  0  0  0  0  0  0
    2.8408    1.4239   -1.6796 N   0  0  0  0  0  0  0  0  0  0  0  0
    3.0779    2.7512   -1.3998 C   0  0  0  0  0  0  0  0  0  0  0  0
    2.4606    3.2653   -0.3353 O   0  0  0  0  0  0  0  0  0  0  0  0
    2.5984    4.5640    0.1492 C   0  0  0  0  0  0  0  0  0  0  0  0
    3.3865    5.5487   -0.4491 C   0  0  0  0  0  0  0  0  0  0  0  0
    3.4316    6.8220    0.1500 C   0  0  0  0  0  0  0  0  0  0  0  0
    2.7156    7.0837    1.3071 C   0  0  0  0  0  0  0  0  0  0  0  0
    1.9237    6.0689    1.8892 C   0  0  0  0  0  0  0  0  0  0  0  0
    1.8573    4.7980    1.3193 C   0  0  0  0  0  0  0  0  0  0  0  0
    1.2678    6.5530    3.0153 N   0  0  0  0  0  0  0  0  0  0  0  0
    1.9156    7.8021    3.4367 C   0  0  0  0  0  0  0  0  0  0  0  0
    2.5406    8.3443    2.1286 C   0  0  0  0  0  0  0  0  0  0  0  0
    3.9082    3.2821   -2.2575 N   0  0  0  0  0  0  0  0  0  0  0  0
    4.2445    2.2840   -3.1392 N   0  0  0  0  0  0  0  0  0  0  0  0
    3.6151    1.1920   -2.7950 C   0  0  0  0  0  0  0  0  0  0  0  0
    3.7363   -0.1081   -3.5519 C   0  0  1  0  0  0  0  0  0  0  0  0
    3.8980   -0.9243   -2.8273 H   0  0  0  0  0  0  0  0  0  0  0  0
    2.4909   -0.4242   -4.3963 C   0  0  0  0  0  0  0  0  0  0  0  0
    4.9319   -0.0063   -4.3956 N   0  0  0  0  0  0  0  0  0  0  0  0
    6.1619   -1.1359   -4.2797 S   0  0  1  0  0  0  0  0  0  0  0  0
    7.4150   -0.3978   -4.4310 O   0  0  0  0  0  0  0  0  0  0  0  0
    5.8984   -2.0161   -3.1341 O   0  0  0  0  0  0  0  0  0  0  0  0
    5.9659   -2.1450   -5.7589 C   0  0  0  0  0  0  0  0  0  0  0  0
    6.4310   -1.6609   -6.9848 C   0  0  0  0  0  0  0  0  0  0  0  0
    6.2760   -2.4476   -8.1228 C   0  0  0  0  0  0  0  0  0  0  0  0
    5.6701   -3.7107   -8.0416 C   0  0  0  0  0  0  0  0  0  0  0  0
    5.4941   -4.7215   -9.6362 Br  0  0  0  0  0  0  0  0  0  0  0  0
    5.2220   -4.1916   -6.7995 C   0  0  0  0  0  0  0  0  0  0  0  0
    4.4106   -5.8969   -6.6067 Br  0  0  0  0  0  0  0  0  0  0  0  0
    5.3765   -3.4027   -5.6527 C   0  0  0  0  0  0  0  0  0  0  0  0
   -0.0668    0.0037   -0.5178 H   0  0  0  0  0  0  0  0  0  0  0  0
    0.2319    0.5529   -2.1877 H   0  0  0  0  0  0  0  0  0  0  0  0
    0.2018    1.7338   -0.8515 H   0  0  0  0  0  0  0  0  0  0  0  0
    2.3077   -0.5118   -1.1617 H   0  0  0  0  0  0  0  0  0  0  0  0
    2.2462    0.6632    0.1582 H   0  0  0  0  0  0  0  0  0  0  0  0
    3.9496    5.3225   -1.3514 H   0  0  0  0  0  0  0  0  0  0  0  0
    4.0470    7.6006   -0.3095 H   0  0  0  0  0  0  0  0  0  0  0  0
    1.2593    3.9933    1.7505 H   0  0  0  0  0  0  0  0  0  0  0  0
    1.0016    5.8921    3.7368 H   0  0  0  0  0  0  0  0  0  0  0  0
    2.7090    7.6112    4.1877 H   0  0  0  0  0  0  0  0  0  0  0  0
    1.1895    8.4978    3.8849 H   0  0  0  0  0  0  0  0  0  0  0  0
    3.4760    8.8953    2.3087 H   0  0  0  0  0  0  0  0  0  0  0  0
    1.8435    9.0379    1.6239 H   0  0  0  0  0  0  0  0  0  0  0  0
    1.5920   -0.5245   -3.7685 H   0  0  0  0  0  0  0  0  0  0  0  0
    2.6360   -1.3712   -4.9373 H   0  0  0  0  0  0  0  0  0  0  0  0
    2.3176    0.3744   -5.1331 H   0  0  0  0  0  0  0  0  0  0  0  0
    5.3139    0.9453   -4.4344 H   0  0  0  0  0  0  0  0  0  0  0  0
    6.9182   -0.6863   -7.0426 H   0  0  0  0  0  0  0  0  0  0  0  0
    6.6311   -2.0904   -9.0907 H   0  0  0  0  0  0  0  0  0  0  0  0
    5.0530   -3.7710   -4.6788 H   0  0  0  0  0  0  0  0  0  0  0  0
  1  2  1  0
  1 33  1  0
  1 34  1  0
  1 35  1  0
  2  3  1  0
  2 36  1  0
  2 37  1  0
  3  4  1  0
  3 17  1  0
  4  5  1  0
  4 15  2  0
  5  6  1  0
  6  7  2  0
  6 11  1  0
  7  8  1  0
  7 38  1  0
  8  9  2  0
  8 39  1  0
  9 10  1  0
  9 14  1  0
 10 11  2  0
 10 12  1  0
 11 40  1  0
 12 13  1  0
 12 41  1  0
 13 14  1  0
 13 42  1  0
 13 43  1  0
 14 44  1  0
 14 45  1  0
 15 16  1  0
 16 17  2  0
 17 18  1  0
 18 19  1  1
 18 20  1  0
 18 21  1  0
 20 46  1  0
 20 47  1  0
 20 48  1  0
 22 21  1  6
 21 49  1  0
 22 23  2  0
 22 24  2  0
 22 25  1  0
 25 26  2  0
 25 32  1  0
 26 27  1  0
 26 50  1  0
 27 28  2  0
 27 51  1  0
 28 29  1  0
 28 30  1  0
 30 31  1  0
 30 32  2  0
 32 52  1  0
M  END

