
     RDKit          3D

 38 39  0  0  0  0  0  0  0  0999 V2000
    1.1563    2.7340    1.3225 C   0  0  0  0  0  0  0  0  0  0  0  0
    2.5806    2.7570    0.7676 C   0  0  0  0  0  0  0  0  0  0  0  0
    3.2184    1.3582    0.6702 C   0  0  0  0  0  0  0  0  0  0  0  0
    4.6189    1.3564    0.1314 C   0  0  0  0  0  0  0  0  0  0  0  0
    5.6784    1.3251    0.9454 N   0  0  0  0  0  0  0  0  0  0  0  0
    6.7561    1.3367    0.1602 N   0  0  0  0  0  0  0  0  0  0  0  0
    8.0822    1.3381    0.7314 C   0  0  0  0  0  0  0  0  0  0  0  0
    6.4236    1.4214   -1.1776 C   0  0  0  0  0  0  0  0  0  0  0  0
    7.3977    1.4459   -2.1812 N   0  0  0  0  0  0  0  0  0  0  0  0
    7.3685    0.5819   -3.2849 C   0  0  0  0  0  0  0  0  0  0  0  0
    6.5818   -0.5413   -3.5001 C   0  0  0  0  0  0  0  0  0  0  0  0
    6.9851   -1.0634   -4.7000 N   0  0  0  0  0  0  0  0  0  0  0  0
    6.3988   -2.1791   -5.4075 C   0  0  0  0  0  0  0  0  0  0  0  0
    7.9562   -0.3447   -5.2693 N   0  0  0  0  0  0  0  0  0  0  0  0
    8.2158    0.6591   -4.4293 C   0  0  0  0  0  0  0  0  0  0  0  0
    9.2823    1.6702   -4.7144 C   0  0  0  0  0  0  0  0  0  0  0  0
    5.0298    1.4288   -1.2285 C   0  0  0  0  0  0  0  0  0  0  0  0
    4.2108    1.4047   -2.3661 N   0  0  0  0  0  0  0  0  0  0  0  0
    0.7286    3.7475    1.3851 H   0  0  0  0  0  0  0  0  0  0  0  0
    1.1307    2.2983    2.3354 H   0  0  0  0  0  0  0  0  0  0  0  0
    0.4867    2.1279    0.6888 H   0  0  0  0  0  0  0  0  0  0  0  0
    3.2234    3.3909    1.4021 H   0  0  0  0  0  0  0  0  0  0  0  0
    2.5826    3.2347   -0.2297 H   0  0  0  0  0  0  0  0  0  0  0  0
    2.5818    0.7120    0.0379 H   0  0  0  0  0  0  0  0  0  0  0  0
    3.2372    0.8992    1.6720 H   0  0  0  0  0  0  0  0  0  0  0  0
    8.1016    0.6512    1.5886 H   0  0  0  0  0  0  0  0  0  0  0  0
    8.3764    2.3433    1.0814 H   0  0  0  0  0  0  0  0  0  0  0  0
    8.7973    1.0025   -0.0316 H   0  0  0  0  0  0  0  0  0  0  0  0
    7.8484    2.3387   -2.3573 H   0  0  0  0  0  0  0  0  0  0  0  0
    5.7819   -0.9799   -2.9101 H   0  0  0  0  0  0  0  0  0  0  0  0
    6.0386   -2.9288   -4.6884 H   0  0  0  0  0  0  0  0  0  0  0  0
    7.1710   -2.6297   -6.0446 H   0  0  0  0  0  0  0  0  0  0  0  0
    5.5542   -1.8625   -6.0441 H   0  0  0  0  0  0  0  0  0  0  0  0
    9.7590    1.4406   -5.6776 H   0  0  0  0  0  0  0  0  0  0  0  0
   10.0660    1.6725   -3.9364 H   0  0  0  0  0  0  0  0  0  0  0  0
    8.8779    2.6968   -4.7741 H   0  0  0  0  0  0  0  0  0  0  0  0
    4.6797    1.7260   -3.2084 H   0  0  0  0  0  0  0  0  0  0  0  0
    3.3340    1.9032   -2.2437 H   0  0  0  0  0  0  0  0  0  0  0  0
  1  2  1  0
  1 19  1  0
  1 20  1  0
  1 21  1  0
  2  3  1  0
  2 22  1  0
  2 23  1  0
  3  4  1  0
  3 24  1  0
  3 25  1  0
  4  5  2  0
  4 17  1  0
  5  6  1  0
  6  7  1  0
  6  8  1  0
  7 26  1  0
  7 27  1  0
  7 28  1  0
  8  9  1  0
  8 17  2  0
  9 10  1  0
  9 29  1  0
 10 11  2  0
 10 15  1  0
 11 12  1  0
 11 30  1  0
 12 13  1  0
 12 14  1  0
 13 31  1  0
 13 32  1  0
 13 33  1  0
 14 15  2  0
 15 16  1  0
 16 34  1  0
 16 35  1  0
 16 36  1  0
 17 18  1  0
 18 37  1  0
 18 38  1  0
M  END

