
     RDKit          3D

 25 25  0  0  0  0  0  0  0  0999 V2000
    0.8766    0.3719   -0.4406 N   0  0  0  0  0  0  0  0  0  0  0  0
    2.3309    0.3561   -0.5665 C   0  0  0  0  0  0  0  0  0  0  0  0
    2.9436    1.4330    0.3654 C   0  0  1  0  0  0  0  0  0  0  0  0
    2.5447    1.2926    1.7646 N   0  0  0  0  0  0  0  0  0  0  0  0
    4.4540    1.5074    0.2193 C   0  0  0  0  0  0  0  0  0  0  0  0
    5.0779    2.6180   -0.3636 C   0  0  0  0  0  0  0  0  0  0  0  0
    6.4672    2.6897   -0.5244 C   0  0  0  0  0  0  0  0  0  0  0  0
    7.0965    3.9287   -1.1136 C   0  0  1  0  0  0  0  0  0  0  0  0
    8.2602    3.6204   -1.7509 F   0  0  0  0  0  0  0  0  0  0  0  0
    6.2614    4.5094   -2.0199 F   0  0  0  0  0  0  0  0  0  0  0  0
    7.2700    1.6271   -0.0951 C   0  0  0  0  0  0  0  0  0  0  0  0
    6.6795    0.5064    0.4897 C   0  0  0  0  0  0  0  0  0  0  0  0
    5.2965    0.4671    0.6327 C   0  0  0  0  0  0  0  0  0  0  0  0
    4.7514   -0.6316    1.1998 F   0  0  0  0  0  0  0  0  0  0  0  0
    0.4649   -0.4776   -0.8235 H   0  0  0  0  0  0  0  0  0  0  0  0
    0.4762    1.1500   -0.9660 H   0  0  0  0  0  0  0  0  0  0  0  0
    2.7020    0.5150   -1.6012 H   0  0  0  0  0  0  0  0  0  0  0  0
    2.6960   -0.6322   -0.2440 H   0  0  0  0  0  0  0  0  0  0  0  0
    2.5498    2.4056    0.0157 H   0  0  0  0  0  0  0  0  0  0  0  0
    2.9704    0.4482    2.1501 H   0  0  0  0  0  0  0  0  0  0  0  0
    1.5375    1.1121    1.7637 H   0  0  0  0  0  0  0  0  0  0  0  0
    4.4582    3.4492   -0.7068 H   0  0  0  0  0  0  0  0  0  0  0  0
    7.3337    4.6936   -0.3505 H   0  0  0  0  0  0  0  0  0  0  0  0
    8.3526    1.6709   -0.2259 H   0  0  0  0  0  0  0  0  0  0  0  0
    7.2724   -0.3433    0.8331 H   0  0  0  0  0  0  0  0  0  0  0  0
  1  2  1  0
  1 15  1  0
  1 16  1  0
  2  3  1  0
  2 17  1  0
  2 18  1  0
  3  4  1  0
  3  5  1  0
  3 19  1  6
  4 20  1  0
  4 21  1  0
  5  6  2  0
  5 13  1  0
  6  7  1  0
  6 22  1  0
  7  8  1  0
  7 11  2  0
  8  9  1  0
  8 10  1  0
  8 23  1  1
 11 12  1  0
 11 24  1  0
 12 13  2  0
 12 25  1  0
 13 14  1  0
M  END

