
     RDKit          3D

 40 41  0  0  0  0  0  0  0  0999 V2000
    2.1387   -0.9098    0.9869 N   0  0  0  0  0  0  0  0  0  0  0  0
    2.9842   -0.7619    0.2029 C   0  0  0  0  0  0  0  0  0  0  0  0
    4.0653   -0.5707   -0.7163 C   0  0  0  0  0  0  0  0  0  0  0  0
    4.9731    0.4700   -0.4283 C   0  0  0  0  0  0  0  0  0  0  0  0
    6.1011    0.6617   -1.2099 C   0  0  0  0  0  0  0  0  0  0  0  0
    7.2441    1.9759   -0.8161 S   0  0  1  0  0  0  0  0  0  0  0  0
    6.8907    3.1555   -1.9767 N   0  0  0  0  0  0  0  0  0  0  0  0
    6.8845    2.4833    0.5101 O   0  0  0  0  0  0  0  0  0  0  0  0
    8.5953    1.5131   -1.1398 O   0  0  0  0  0  0  0  0  0  0  0  0
    6.3684   -0.1998   -2.2869 C   0  0  0  0  0  0  0  0  0  0  0  0
    5.4795   -1.2135   -2.5875 C   0  0  0  0  0  0  0  0  0  0  0  0
    4.2926   -1.4305   -1.8345 C   0  0  0  0  0  0  0  0  0  0  0  0
    3.4740   -2.4581   -2.2209 N   0  0  0  0  0  0  0  0  0  0  0  0
    2.0631   -2.6745   -1.9447 C   0  0  0  0  0  0  0  0  0  0  0  0
    1.8024   -3.7896   -0.9290 C   0  0  0  0  0  0  0  0  0  0  0  0
    0.4168   -4.0655   -1.0023 O   0  0  0  0  0  0  0  0  0  0  0  0
   -0.1480   -4.9944   -0.1981 C   0  0  0  0  0  0  0  0  0  0  0  0
    0.5499   -5.7127    0.7825 C   0  0  0  0  0  0  0  0  0  0  0  0
   -0.1214   -6.6548    1.5686 C   0  0  0  0  0  0  0  0  0  0  0  0
   -1.4834   -6.8938    1.3889 C   0  0  0  0  0  0  0  0  0  0  0  0
   -2.1790   -6.1802    0.4085 C   0  0  0  0  0  0  0  0  0  0  0  0
   -1.5286   -5.2355   -0.3872 C   0  0  0  0  0  0  0  0  0  0  0  0
   -2.2855   -4.4751   -1.4502 C   0  0  1  0  0  0  0  0  0  0  0  0
   -1.7815   -4.6911   -2.6807 F   0  0  0  0  0  0  0  0  0  0  0  0
   -3.5807   -4.8434   -1.4904 F   0  0  0  0  0  0  0  0  0  0  0  0
   -2.2623   -3.1479   -1.2420 F   0  0  0  0  0  0  0  0  0  0  0  0
    4.7969    1.1135    0.4350 H   0  0  0  0  0  0  0  0  0  0  0  0
    6.3119    3.8944   -1.5763 H   0  0  0  0  0  0  0  0  0  0  0  0
    7.7698    3.5254   -2.3410 H   0  0  0  0  0  0  0  0  0  0  0  0
    7.2751   -0.0645   -2.8795 H   0  0  0  0  0  0  0  0  0  0  0  0
    5.6825   -1.8719   -3.4366 H   0  0  0  0  0  0  0  0  0  0  0  0
    3.8418   -3.0052   -2.9900 H   0  0  0  0  0  0  0  0  0  0  0  0
    1.5625   -2.9570   -2.8851 H   0  0  0  0  0  0  0  0  0  0  0  0
    1.5866   -1.7462   -1.6041 H   0  0  0  0  0  0  0  0  0  0  0  0
    2.0875   -3.4680    0.0864 H   0  0  0  0  0  0  0  0  0  0  0  0
    2.3920   -4.6886   -1.1916 H   0  0  0  0  0  0  0  0  0  0  0  0
    1.6135   -5.5377    0.9426 H   0  0  0  0  0  0  0  0  0  0  0  0
    0.4363   -7.2039    2.3315 H   0  0  0  0  0  0  0  0  0  0  0  0
   -2.0048   -7.6290    2.0050 H   0  0  0  0  0  0  0  0  0  0  0  0
   -3.2442   -6.3551    0.2525 H   0  0  0  0  0  0  0  0  0  0  0  0
  1  2  3  0
  2  3  1  0
  3  4  2  0
  3 12  1  0
  4  5  1  0
  4 27  1  0
  5  6  1  0
  5 10  2  0
  6  7  1  6
  6  8  2  0
  6  9  2  0
  7 28  1  0
  7 29  1  0
 10 11  1  0
 10 30  1  0
 11 12  2  0
 11 31  1  0
 12 13  1  0
 13 14  1  0
 13 32  1  0
 14 15  1  0
 14 33  1  0
 14 34  1  0
 15 16  1  0
 15 35  1  0
 15 36  1  0
 16 17  1  0
 17 18  2  0
 17 22  1  0
 18 19  1  0
 18 37  1  0
 19 20  2  0
 19 38  1  0
 20 21  1  0
 20 39  1  0
 21 22  2  0
 21 40  1  0
 22 23  1  0
 23 24  1  6
 23 25  1  0
 23 26  1  0
M  END

