
     RDKit          3D

 57 59  0  0  0  0  0  0  0  0999 V2000
    0.1510    1.0466    1.4080 C   0  0  0  0  0  0  0  0  0  0  0  0
   -0.5533   -0.0400    0.8570 O   0  0  0  0  0  0  0  0  0  0  0  0
   -0.5284   -0.2299   -0.4895 C   0  0  0  0  0  0  0  0  0  0  0  0
   -1.2416   -1.3375   -0.9789 C   0  0  0  0  0  0  0  0  0  0  0  0
   -1.2863   -1.6237   -2.3371 C   0  0  0  0  0  0  0  0  0  0  0  0
   -0.6079   -0.8009   -3.2640 C   0  0  0  0  0  0  0  0  0  0  0  0
   -0.6430   -1.0560   -4.6569 N   0  0  0  0  0  0  0  0  0  0  0  0
   -0.1285   -0.0819   -5.6199 C   0  0  0  0  0  0  0  0  0  0  0  0
   -0.6235   -0.5922   -6.9866 C   0  0  1  0  0  0  0  0  0  0  0  0
   -1.6259   -0.1814   -7.1881 H   0  0  0  0  0  0  0  0  0  0  0  0
    0.3378   -0.2301   -8.1188 C   0  0  0  0  0  0  0  0  0  0  0  0
    1.5444   -0.4139   -8.0200 O   0  0  0  0  0  0  0  0  0  0  0  0
   -0.2405    0.2753   -9.2368 N   0  0  0  0  0  0  0  0  0  0  0  0
    0.5232    0.6734  -10.4005 C   0  0  1  0  0  0  0  0  0  0  0  0
    1.4229    1.2152  -10.0591 H   0  0  0  0  0  0  0  0  0  0  0  0
    0.9782   -0.5307  -11.2446 C   0  0  0  0  0  0  0  0  0  0  0  0
   -0.3721    1.6286  -11.2114 C   0  0  0  0  0  0  0  0  0  0  0  0
   -1.5749    1.7102  -10.9936 O   0  0  0  0  0  0  0  0  0  0  0  0
    0.2549    2.3377  -12.1815 N   0  0  0  0  0  0  0  0  0  0  0  0
   -0.4594    3.2752  -13.0615 C   0  0  2  0  0  0  0  0  0  0  0  0
   -1.2660    3.7010  -12.4462 H   0  0  0  0  0  0  0  0  0  0  0  0
   -1.1154    2.5481  -14.2440 C   0  0  0  0  0  0  0  0  0  0  0  0
    0.4794    4.4004  -13.4716 C   0  0  0  0  0  0  0  0  0  0  0  0
    0.3266    5.6833  -12.9247 C   0  0  0  0  0  0  0  0  0  0  0  0
    1.1931    6.7220  -13.2773 C   0  0  0  0  0  0  0  0  0  0  0  0
    2.2339    6.4906  -14.1809 C   0  0  0  0  0  0  0  0  0  0  0  0
    2.3994    5.2162  -14.7317 C   0  0  0  0  0  0  0  0  0  0  0  0
    1.5270    4.1817  -14.3822 C   0  0  0  0  0  0  0  0  0  0  0  0
   -0.7331   -2.1070   -6.7565 C   0  0  0  0  0  0  0  0  0  0  0  0
   -1.0113   -2.2481   -5.2632 C   0  0  0  0  0  0  0  0  0  0  0  0
   -1.4501   -3.2401   -4.7186 O   0  0  0  0  0  0  0  0  0  0  0  0
    0.1074    0.3011   -2.7701 C   0  0  0  0  0  0  0  0  0  0  0  0
    0.1485    0.5894   -1.4003 C   0  0  0  0  0  0  0  0  0  0  0  0
   -0.0042    1.0046    2.4948 H   0  0  0  0  0  0  0  0  0  0  0  0
   -0.2241    2.0166    1.0323 H   0  0  0  0  0  0  0  0  0  0  0  0
    1.2354    0.9848    1.2007 H   0  0  0  0  0  0  0  0  0  0  0  0
   -1.7652   -1.9732   -0.2617 H   0  0  0  0  0  0  0  0  0  0  0  0
   -1.8325   -2.4920   -2.6968 H   0  0  0  0  0  0  0  0  0  0  0  0
    0.9748   -0.0490   -5.6094 H   0  0  0  0  0  0  0  0  0  0  0  0
   -0.5089    0.9258   -5.3916 H   0  0  0  0  0  0  0  0  0  0  0  0
   -1.2359    0.4827   -9.2886 H   0  0  0  0  0  0  0  0  0  0  0  0
    1.5950   -1.1936  -10.6218 H   0  0  0  0  0  0  0  0  0  0  0  0
    1.5799   -0.2108  -12.1095 H   0  0  0  0  0  0  0  0  0  0  0  0
    0.1070   -1.0928  -11.6153 H   0  0  0  0  0  0  0  0  0  0  0  0
    1.2606    2.2607  -12.2816 H   0  0  0  0  0  0  0  0  0  0  0  0
   -1.6715    3.2610  -14.8723 H   0  0  0  0  0  0  0  0  0  0  0  0
   -1.8215    1.7930  -13.8682 H   0  0  0  0  0  0  0  0  0  0  0  0
   -0.3698    2.0413  -14.8766 H   0  0  0  0  0  0  0  0  0  0  0  0
   -0.4832    5.8699  -12.2138 H   0  0  0  0  0  0  0  0  0  0  0  0
    1.0547    7.7154  -12.8430 H   0  0  0  0  0  0  0  0  0  0  0  0
    2.9129    7.3011  -14.4573 H   0  0  0  0  0  0  0  0  0  0  0  0
    3.2084    5.0273  -15.4421 H   0  0  0  0  0  0  0  0  0  0  0  0
    1.6638    3.1949  -14.8336 H   0  0  0  0  0  0  0  0  0  0  0  0
    0.2298   -2.6033   -6.9679 H   0  0  0  0  0  0  0  0  0  0  0  0
   -1.5128   -2.6094   -7.3451 H   0  0  0  0  0  0  0  0  0  0  0  0
    0.6596    0.9534   -3.4467 H   0  0  0  0  0  0  0  0  0  0  0  0
    0.7189    1.4560   -1.0653 H   0  0  0  0  0  0  0  0  0  0  0  0
  1  2  1  0
  1 34  1  0
  1 35  1  0
  1 36  1  0
  2  3  1  0
  3  4  2  0
  3 33  1  0
  4  5  1  0
  4 37  1  0
  5  6  2  0
  5 38  1  0
  6  7  1  0
  6 32  1  0
  7  8  1  0
  7 30  1  0
  8  9  1  0
  8 39  1  0
  8 40  1  0
  9 10  1  6
  9 11  1  0
  9 29  1  0
 11 12  2  0
 11 13  1  0
 13 14  1  0
 13 41  1  0
 14 15  1  1
 14 16  1  0
 14 17  1  0
 16 42  1  0
 16 43  1  0
 16 44  1  0
 17 18  2  0
 17 19  1  0
 19 20  1  0
 19 45  1  0
 20 21  1  1
 20 22  1  0
 20 23  1  0
 22 46  1  0
 22 47  1  0
 22 48  1  0
 23 24  2  0
 23 28  1  0
 24 25  1  0
 24 49  1  0
 25 26  2  0
 25 50  1  0
 26 27  1  0
 26 51  1  0
 27 28  2  0
 27 52  1  0
 28 53  1  0
 29 30  1  0
 29 54  1  0
 29 55  1  0
 30 31  2  0
 32 33  2  0
 32 56  1  0
 33 57  1  0
M  END

