
     RDKit          3D

 40 42  0  0  0  0  0  0  0  0999 V2000
    1.7825    0.4201   -1.5308 C   0  0  0  0  0  0  0  0  0  0  0  0
    2.6440   -0.0077   -0.5014 O   0  0  0  0  0  0  0  0  0  0  0  0
    3.2648   -1.2135   -0.6144 C   0  0  0  0  0  0  0  0  0  0  0  0
    3.1357   -2.0753   -1.7109 C   0  0  0  0  0  0  0  0  0  0  0  0
    3.7928   -3.3110   -1.7296 C   0  0  0  0  0  0  0  0  0  0  0  0
    4.5967   -3.7182   -0.6596 C   0  0  0  0  0  0  0  0  0  0  0  0
    5.2889   -5.0628   -0.6550 C   0  0  0  0  0  0  0  0  0  0  0  0
    4.3901   -6.2208   -0.2257 C   0  0  1  0  0  0  0  0  0  0  0  0
    3.4056   -6.4351   -1.2384 O   0  0  0  0  0  0  0  0  0  0  0  0
    2.5960   -7.5226   -1.0607 C   0  0  0  0  0  0  0  0  0  0  0  0
    1.2768   -7.5112   -1.5038 C   0  0  0  0  0  0  0  0  0  0  0  0
    0.4801   -8.6550   -1.3810 C   0  0  0  0  0  0  0  0  0  0  0  0
    1.0044   -9.8155   -0.7959 C   0  0  0  0  0  0  0  0  0  0  0  0
    0.2799  -10.9561   -0.6409 O   0  0  0  0  0  0  0  0  0  0  0  0
    2.3297   -9.8300   -0.3384 C   0  0  0  0  0  0  0  0  0  0  0  0
    3.1248   -8.6909   -0.4785 C   0  0  0  0  0  0  0  0  0  0  0  0
    4.4679   -8.6570   -0.0829 N   0  0  0  0  0  0  0  0  0  0  0  0
    5.1977   -7.5013    0.0519 C   0  0  0  0  0  0  0  0  0  0  0  0
    6.3581   -7.4962    0.4109 O   0  0  0  0  0  0  0  0  0  0  0  0
    4.7317   -2.8424    0.4303 C   0  0  0  0  0  0  0  0  0  0  0  0
    4.0857   -1.6066    0.4713 C   0  0  0  0  0  0  0  0  0  0  0  0
    4.2182   -0.8345    1.5906 O   0  0  0  0  0  0  0  0  0  0  0  0
    4.8693    0.4187    1.4496 C   0  0  0  0  0  0  0  0  0  0  0  0
    1.3856    1.3965   -1.2216 H   0  0  0  0  0  0  0  0  0  0  0  0
    0.9390   -0.2786   -1.6766 H   0  0  0  0  0  0  0  0  0  0  0  0
    2.3138    0.5387   -2.4928 H   0  0  0  0  0  0  0  0  0  0  0  0
    2.5129   -1.7931   -2.5603 H   0  0  0  0  0  0  0  0  0  0  0  0
    3.6669   -3.9693   -2.5918 H   0  0  0  0  0  0  0  0  0  0  0  0
    6.1466   -5.0569    0.0319 H   0  0  0  0  0  0  0  0  0  0  0  0
    5.6830   -5.3029   -1.6562 H   0  0  0  0  0  0  0  0  0  0  0  0
    3.8779   -5.9588    0.7243 H   0  0  0  0  0  0  0  0  0  0  0  0
    0.8847   -6.5982   -1.9559 H   0  0  0  0  0  0  0  0  0  0  0  0
   -0.5547   -8.6403   -1.7355 H   0  0  0  0  0  0  0  0  0  0  0  0
   -0.6119  -10.8195   -0.9856 H   0  0  0  0  0  0  0  0  0  0  0  0
    2.7256  -10.7404    0.1162 H   0  0  0  0  0  0  0  0  0  0  0  0
    4.9424   -9.5179    0.1734 H   0  0  0  0  0  0  0  0  0  0  0  0
    5.3528   -3.1073    1.2900 H   0  0  0  0  0  0  0  0  0  0  0  0
    4.9392    0.8520    2.4576 H   0  0  0  0  0  0  0  0  0  0  0  0
    4.3050    1.1050    0.7991 H   0  0  0  0  0  0  0  0  0  0  0  0
    5.8909    0.2939    1.0453 H   0  0  0  0  0  0  0  0  0  0  0  0
  1  2  1  0
  1 24  1  0
  1 25  1  0
  1 26  1  0
  2  3  1  0
  3  4  2  0
  3 21  1  0
  4  5  1  0
  4 27  1  0
  5  6  2  0
  5 28  1  0
  6  7  1  0
  6 20  1  0
  7  8  1  0
  7 29  1  0
  7 30  1  0
  8  9  1  0
  8 18  1  0
  8 31  1  1
  9 10  1  0
 10 11  2  0
 10 16  1  0
 11 12  1  0
 11 32  1  0
 12 13  2  0
 12 33  1  0
 13 14  1  0
 13 15  1  0
 14 34  1  0
 15 16  2  0
 15 35  1  0
 16 17  1  0
 17 18  1  0
 17 36  1  0
 18 19  2  0
 20 21  2  0
 20 37  1  0
 21 22  1  0
 22 23  1  0
 23 38  1  0
 23 39  1  0
 23 40  1  0
M  END

