
     RDKit          3D

 64 68  0  0  0  0  0  0  0  0999 V2000
    0.4849   -0.8656    2.2754 C   0  0  0  0  0  0  0  0  0  0  0  0
    1.7089   -0.8494    1.4160 C   0  0  0  0  0  0  0  0  0  0  0  0
    2.1042    0.0749    0.4671 C   0  0  0  0  0  0  0  0  0  0  0  0
    3.3397   -0.3674   -0.0729 C   0  0  0  0  0  0  0  0  0  0  0  0
    3.6893   -1.5477    0.5623 C   0  0  0  0  0  0  0  0  0  0  0  0
    4.9696   -2.3015    0.3098 C   0  0  1  0  0  0  0  0  0  0  0  0
    6.1548   -2.0556    1.3154 C   0  0  1  0  0  0  0  0  0  0  0  0
    6.1492   -0.7386    2.0666 C   0  0  0  0  0  0  0  0  0  0  0  0
    6.7601    0.3838    1.4854 C   0  0  0  0  0  0  0  0  0  0  0  0
    6.7371    1.5977    2.1702 C   0  0  0  0  0  0  0  0  0  0  0  0
    6.1177    1.6508    3.4206 C   0  0  0  0  0  0  0  0  0  0  0  0
    5.5511    0.4775    3.9235 C   0  0  0  0  0  0  0  0  0  0  0  0
    5.5636   -0.6858    3.2670 N   0  0  0  0  0  0  0  0  0  0  0  0
    6.0474   -3.2371    2.1373 N   0  0  0  0  0  0  0  0  0  0  0  0
    5.4867   -4.2934    1.4785 C   0  0  0  0  0  0  0  0  0  0  0  0
    5.5205   -5.8556    2.0441 S   0  0  0  0  0  0  0  0  0  0  0  0
    4.9001   -3.7812    0.3308 N   0  0  0  0  0  0  0  0  0  0  0  0
    4.3614   -4.5121   -0.7585 C   0  0  0  0  0  0  0  0  0  0  0  0
    4.8923   -5.7502   -1.1602 C   0  0  0  0  0  0  0  0  0  0  0  0
    4.3748   -6.4317   -2.2574 C   0  0  0  0  0  0  0  0  0  0  0  0
    3.3122   -5.9034   -3.0151 C   0  0  0  0  0  0  0  0  0  0  0  0
    2.7516   -6.5450   -4.1276 N   0  0  0  0  0  0  0  0  0  0  0  0
    3.1124   -7.7382   -4.7143 C   0  0  0  0  0  0  0  0  0  0  0  0
    4.0321   -8.4389   -4.3299 O   0  0  0  0  0  0  0  0  0  0  0  0
    2.2455   -8.1434   -5.9140 C   0  0  1  0  0  0  0  0  0  0  0  0
    3.1385   -8.3360   -7.1476 C   0  0  0  0  0  0  0  0  0  0  0  0
    1.4746   -9.4267   -5.5668 C   0  0  0  0  0  0  0  0  0  0  0  0
    2.8037   -4.6530   -2.6113 C   0  0  0  0  0  0  0  0  0  0  0  0
    1.4776   -3.9199   -3.5122 Cl  0  0  0  0  0  0  0  0  0  0  0  0
    3.3057   -3.9680   -1.5075 C   0  0  0  0  0  0  0  0  0  0  0  0
    2.6812   -1.8415    1.4791 N   0  0  0  0  0  0  0  0  0  0  0  0
    2.5311   -3.0017    2.3079 C   0  0  0  0  0  0  0  0  0  0  0  0
    3.1704   -3.1038    3.5465 C   0  0  0  0  0  0  0  0  0  0  0  0
    2.9131   -4.2327    4.3252 C   0  0  0  0  0  0  0  0  0  0  0  0
    2.0218   -5.1954    3.8432 C   0  0  0  0  0  0  0  0  0  0  0  0
    1.4034   -5.0972    2.6641 N   0  0  0  0  0  0  0  0  0  0  0  0
    1.6603   -4.0287    1.9129 C   0  0  0  0  0  0  0  0  0  0  0  0
   -0.0936    0.0526    2.1013 H   0  0  0  0  0  0  0  0  0  0  0  0
    0.7330   -0.9135    3.3488 H   0  0  0  0  0  0  0  0  0  0  0  0
   -0.1730   -1.7239    2.0606 H   0  0  0  0  0  0  0  0  0  0  0  0
    1.5499    0.9708    0.1933 H   0  0  0  0  0  0  0  0  0  0  0  0
    3.9263    0.1201   -0.8504 H   0  0  0  0  0  0  0  0  0  0  0  0
    5.2974   -1.9797   -0.6896 H   0  0  0  0  0  0  0  0  0  0  0  0
    7.0890   -2.0861    0.7186 H   0  0  0  0  0  0  0  0  0  0  0  0
    7.2495    0.3010    0.5118 H   0  0  0  0  0  0  0  0  0  0  0  0
    7.2017    2.4874    1.7378 H   0  0  0  0  0  0  0  0  0  0  0  0
    6.0782    2.5765    3.9986 H   0  0  0  0  0  0  0  0  0  0  0  0
    5.0640    0.4766    4.9055 H   0  0  0  0  0  0  0  0  0  0  0  0
    6.6169   -3.4094    2.9555 H   0  0  0  0  0  0  0  0  0  0  0  0
    5.7135   -6.1921   -0.6004 H   0  0  0  0  0  0  0  0  0  0  0  0
    4.7937   -7.3891   -2.5588 H   0  0  0  0  0  0  0  0  0  0  0  0
    1.9743   -6.0477   -4.5490 H   0  0  0  0  0  0  0  0  0  0  0  0
    1.5171   -7.3400   -6.1244 H   0  0  0  0  0  0  0  0  0  0  0  0
    3.9091   -9.0934   -6.9387 H   0  0  0  0  0  0  0  0  0  0  0  0
    3.6495   -7.4008   -7.4273 H   0  0  0  0  0  0  0  0  0  0  0  0
    2.5422   -8.6708   -8.0111 H   0  0  0  0  0  0  0  0  0  0  0  0
    2.1798  -10.2318   -5.3095 H   0  0  0  0  0  0  0  0  0  0  0  0
    0.8642   -9.7566   -6.4222 H   0  0  0  0  0  0  0  0  0  0  0  0
    0.8034   -9.2752   -4.7064 H   0  0  0  0  0  0  0  0  0  0  0  0
    2.8659   -3.0074   -1.2452 H   0  0  0  0  0  0  0  0  0  0  0  0
    3.8675   -2.3236    3.8592 H   0  0  0  0  0  0  0  0  0  0  0  0
    3.3997   -4.3677    5.2937 H   0  0  0  0  0  0  0  0  0  0  0  0
    1.7998   -6.0886    4.4388 H   0  0  0  0  0  0  0  0  0  0  0  0
    1.1528   -3.9620    0.9432 H   0  0  0  0  0  0  0  0  0  0  0  0
  1  2  1  0
  1 38  1  0
  1 39  1  0
  1 40  1  0
  2  3  2  0
  2 31  1  0
  3  4  1  0
  3 41  1  0
  4  5  2  0
  4 42  1  0
  5  6  1  0
  5 31  1  0
  6  7  1  0
  6 17  1  0
  6 43  1  6
  7  8  1  0
  7 14  1  0
  7 44  1  6
  8  9  2  0
  8 13  1  0
  9 10  1  0
  9 45  1  0
 10 11  2  0
 10 46  1  0
 11 12  1  0
 11 47  1  0
 12 13  2  0
 12 48  1  0
 14 15  1  0
 14 49  1  0
 15 16  2  0
 15 17  1  0
 17 18  1  0
 18 19  2  0
 18 30  1  0
 19 20  1  0
 19 50  1  0
 20 21  2  0
 20 51  1  0
 21 22  1  0
 21 28  1  0
 22 23  1  0
 22 52  1  0
 23 24  2  0
 23 25  1  0
 25 26  1  0
 25 27  1  0
 25 53  1  6
 26 54  1  0
 26 55  1  0
 26 56  1  0
 27 57  1  0
 27 58  1  0
 27 59  1  0
 28 29  1  0
 28 30  2  0
 30 60  1  0
 31 32  1  0
 32 33  2  0
 32 37  1  0
 33 34  1  0
 33 61  1  0
 34 35  2  0
 34 62  1  0
 35 36  1  0
 35 63  1  0
 36 37  2  0
 37 64  1  0
M  END

