
     RDKit          3D

 55 58  0  0  0  0  0  0  0  0999 V2000
    1.2591    0.2974    0.2523 C   0  0  0  0  0  0  0  0  0  0  0  0
    2.7740    0.0034    0.1611 C   0  0  2  0  0  0  0  0  0  0  0  0
    3.4137    0.2388    1.5790 C   0  0  0  0  0  0  0  0  0  0  0  0
    4.0513    1.6315    1.8098 C   0  0  0  0  0  0  0  0  0  0  0  0
    3.3268    2.7293    1.0624 C   0  0  0  0  0  0  0  0  0  0  0  0
    2.8708    3.7193    1.5901 O   0  0  0  0  0  0  0  0  0  0  0  0
    3.2225    2.4705   -0.4328 C   0  0  0  0  0  0  0  0  0  0  0  0
    3.4648    1.0027   -0.8300 C   0  0  2  0  0  0  0  0  0  0  0  0
    4.5497    0.8051   -0.7443 H   0  0  0  0  0  0  0  0  0  0  0  0
    3.1014    0.7727   -2.2992 C   0  0  0  0  0  0  0  0  0  0  0  0
    3.3961   -0.6579   -2.7318 C   0  0  0  0  0  0  0  0  0  0  0  0
    2.6864   -1.6851   -1.8409 C   0  0  2  0  0  0  0  0  0  0  0  0
    1.5988   -1.5352   -1.9719 H   0  0  0  0  0  0  0  0  0  0  0  0
    3.0396   -1.4728   -0.3330 C   0  0  2  0  0  0  0  0  0  0  0  0
    4.1323   -1.6282   -0.2484 H   0  0  0  0  0  0  0  0  0  0  0  0
    2.3877   -2.5877    0.5393 C   0  0  2  0  0  0  0  0  0  0  0  0
    1.2908   -2.4516    0.5113 H   0  0  0  0  0  0  0  0  0  0  0  0
    2.8282   -2.5843    1.8925 O   0  0  0  0  0  0  0  0  0  0  0  0
    2.7043   -4.0048    0.0376 C   0  0  0  0  0  0  0  0  0  0  0  0
    2.3280   -4.2113   -1.4308 C   0  0  1  0  0  0  0  0  0  0  0  0
    0.7925   -4.1858   -1.5946 C   0  0  0  0  0  0  0  0  0  0  0  0
    3.0425   -3.1163   -2.2561 C   0  0  1  0  0  0  0  0  0  0  0  0
    4.1156   -3.2479   -2.0339 H   0  0  0  0  0  0  0  0  0  0  0  0
    2.8511   -3.5708   -3.7133 C   0  0  0  0  0  0  0  0  0  0  0  0
    2.8872   -5.1223   -3.6275 C   0  0  0  0  0  0  0  0  0  0  0  0
    2.9141   -5.5001   -2.1189 C   0  0  2  0  0  0  0  0  0  0  0  0
    2.1960   -6.8131   -1.8023 C   0  0  0  0  0  0  0  0  0  0  0  0
    4.3003   -5.6496   -1.7908 O   0  0  0  0  0  0  0  0  0  0  0  0
    1.0625    1.3075    0.6427 H   0  0  0  0  0  0  0  0  0  0  0  0
    0.7589   -0.4015    0.9406 H   0  0  0  0  0  0  0  0  0  0  0  0
    0.7507    0.2168   -0.7199 H   0  0  0  0  0  0  0  0  0  0  0  0
    4.1757   -0.5260    1.7776 H   0  0  0  0  0  0  0  0  0  0  0  0
    2.6346    0.1044    2.3489 H   0  0  0  0  0  0  0  0  0  0  0  0
    5.0891    1.6216    1.4314 H   0  0  0  0  0  0  0  0  0  0  0  0
    4.0917    1.8833    2.8789 H   0  0  0  0  0  0  0  0  0  0  0  0
    3.9717    3.1167   -0.9262 H   0  0  0  0  0  0  0  0  0  0  0  0
    2.2430    2.8409   -0.7755 H   0  0  0  0  0  0  0  0  0  0  0  0
    3.6609    1.4883   -2.9263 H   0  0  0  0  0  0  0  0  0  0  0  0
    2.0329    1.0008   -2.4612 H   0  0  0  0  0  0  0  0  0  0  0  0
    4.4863   -0.8399   -2.6910 H   0  0  0  0  0  0  0  0  0  0  0  0
    3.0970   -0.8048   -3.7822 H   0  0  0  0  0  0  0  0  0  0  0  0
    2.4248   -1.8428    2.3566 H   0  0  0  0  0  0  0  0  0  0  0  0
    2.1874   -4.7135    0.7068 H   0  0  0  0  0  0  0  0  0  0  0  0
    3.7873   -4.1573    0.1749 H   0  0  0  0  0  0  0  0  0  0  0  0
    0.3644   -3.2039   -1.3477 H   0  0  0  0  0  0  0  0  0  0  0  0
    0.3193   -4.9187   -0.9228 H   0  0  0  0  0  0  0  0  0  0  0  0
    0.4723   -4.4249   -2.6194 H   0  0  0  0  0  0  0  0  0  0  0  0
    3.6323   -3.1769   -4.3799 H   0  0  0  0  0  0  0  0  0  0  0  0
    1.8855   -3.2184   -4.1134 H   0  0  0  0  0  0  0  0  0  0  0  0
    3.7873   -5.5443   -4.0964 H   0  0  0  0  0  0  0  0  0  0  0  0
    2.0185   -5.5756   -4.1280 H   0  0  0  0  0  0  0  0  0  0  0  0
    2.2207   -7.0262   -0.7192 H   0  0  0  0  0  0  0  0  0  0  0  0
    2.7064   -7.6403   -2.3196 H   0  0  0  0  0  0  0  0  0  0  0  0
    1.1433   -6.8093   -2.1178 H   0  0  0  0  0  0  0  0  0  0  0  0
    4.3638   -5.9389   -0.8709 H   0  0  0  0  0  0  0  0  0  0  0  0
  2  1  1  1
  1 29  1  0
  1 30  1  0
  1 31  1  0
  2  3  1  0
  2  8  1  0
  2 14  1  0
  3  4  1  0
  3 32  1  0
  3 33  1  0
  4  5  1  0
  4 34  1  0
  4 35  1  0
  5  6  2  0
  5  7  1  0
  7  8  1  0
  7 36  1  0
  7 37  1  0
  8  9  1  6
  8 10  1  0
 10 11  1  0
 10 38  1  0
 10 39  1  0
 11 12  1  0
 11 40  1  0
 11 41  1  0
 12 13  1  1
 12 14  1  0
 12 22  1  0
 14 15  1  6
 14 16  1  0
 16 17  1  1
 16 18  1  0
 16 19  1  0
 18 42  1  0
 19 20  1  0
 19 43  1  0
 19 44  1  0
 20 21  1  1
 20 22  1  0
 20 26  1  0
 21 45  1  0
 21 46  1  0
 21 47  1  0
 22 23  1  1
 22 24  1  0
 24 25  1  0
 24 48  1  0
 24 49  1  0
 25 26  1  0
 25 50  1  0
 25 51  1  0
 26 27  1  0
 26 28  1  1
 27 52  1  0
 27 53  1  0
 27 54  1  0
 28 55  1  0
M  END

