
     RDKit          3D

 73 76  0  0  0  0  0  0  0  0999 V2000
    7.6570   -4.2257    2.9764 C   0  0  0  0  0  0  0  0  0  0  0  0
    9.1603   -4.4137    2.7520 C   0  0  1  0  0  0  0  0  0  0  0  0
    9.5840   -4.0447    1.3270 C   0  0  0  0  0  0  0  0  0  0  0  0
    9.9681   -3.6214    3.7812 C   0  0  0  0  0  0  0  0  0  0  0  0
    9.5378   -5.8038    3.0457 O   0  0  0  0  0  0  0  0  0  0  0  0
    9.0565   -6.8412    2.3427 C   0  0  0  0  0  0  0  0  0  0  0  0
    8.2521   -6.7785    1.4237 O   0  0  0  0  0  0  0  0  0  0  0  0
    9.5917   -8.0110    2.7912 N   0  0  0  0  0  0  0  0  0  0  0  0
    9.2009   -9.3006    2.2480 C   0  0  0  0  0  0  0  0  0  0  0  0
    9.9356   -9.6912    0.9502 C   0  0  0  0  0  0  0  0  0  0  0  0
   10.6862  -10.6533    0.9065 O   0  0  0  0  0  0  0  0  0  0  0  0
    9.6651   -8.8773   -0.1070 N   0  0  0  0  0  0  0  0  0  0  0  0
   10.2788   -9.0501   -1.4121 C   0  0  0  0  0  0  0  0  0  0  0  0
   11.3045   -7.9781   -1.7474 C   0  0  0  0  0  0  0  0  0  0  0  0
   11.1250   -7.2926   -2.8043 N   0  0  0  0  0  0  0  0  0  0  0  0
   12.0740   -6.2724   -3.2049 C   0  0  0  0  0  0  0  0  0  0  0  0
   13.2253   -5.9793   -2.2698 C   0  0  0  0  0  0  0  0  0  0  0  0
   14.1446   -4.8435   -2.6532 C   0  0  0  0  0  0  0  0  0  0  0  0
   14.9934   -5.1044   -3.8903 C   0  0  0  0  0  0  0  0  0  0  0  0
   15.7309   -6.2933   -4.0195 C   0  0  0  0  0  0  0  0  0  0  0  0
   16.5224   -6.4974   -5.1545 C   0  0  0  0  0  0  0  0  0  0  0  0
   17.3248   -7.7541   -5.4097 C   0  0  0  0  0  0  0  0  0  0  0  0
   17.6640   -8.0680   -6.5394 O   0  0  0  0  0  0  0  0  0  0  0  0
   17.6307   -8.4939   -4.3023 N   0  0  0  0  0  0  0  0  0  0  0  0
   18.3106   -9.7732   -4.3623 C   0  0  0  0  0  0  0  0  0  0  0  0
   17.5382  -10.8753   -3.6580 C   0  0  0  0  0  0  0  0  0  0  0  0
   16.1449  -10.8953   -3.6217 C   0  0  0  0  0  0  0  0  0  0  0  0
   15.4734  -11.9316   -2.9546 C   0  0  0  0  0  0  0  0  0  0  0  0
   14.0898  -12.2394   -2.7193 C   0  0  0  0  0  0  0  0  0  0  0  0
   12.7467  -11.3035   -3.2828 Cl  0  0  0  0  0  0  0  0  0  0  0  0
   14.0304  -13.3957   -1.9808 C   0  0  0  0  0  0  0  0  0  0  0  0
   15.3216  -13.8330   -1.7413 N   0  0  0  0  0  0  0  0  0  0  0  0
   15.5621  -14.6604   -1.2126 H   0  0  0  0  0  0  0  0  0  0  0  0
   16.2188  -12.9647   -2.3185 C   0  0  0  0  0  0  0  0  0  0  0  0
   17.6207  -12.9729   -2.3472 C   0  0  0  0  0  0  0  0  0  0  0  0
   18.2361  -11.9263   -3.0167 C   0  0  0  0  0  0  0  0  0  0  0  0
   19.5842  -11.9048   -3.0562 F   0  0  0  0  0  0  0  0  0  0  0  0
   16.5299   -5.4978   -6.1359 C   0  0  0  0  0  0  0  0  0  0  0  0
   15.7705   -4.3488   -5.9180 C   0  0  0  0  0  0  0  0  0  0  0  0
   15.0213   -4.1508   -4.8280 N   0  0  0  0  0  0  0  0  0  0  0  0
   13.3895   -6.7072   -1.1562 C   0  0  0  0  0  0  0  0  0  0  0  0
   12.4729   -7.8375   -0.7909 C   0  0  0  0  0  0  0  0  0  0  0  0
    7.3952   -3.1625    2.8599 H   0  0  0  0  0  0  0  0  0  0  0  0
    7.3796   -4.5352    3.9962 H   0  0  0  0  0  0  0  0  0  0  0  0
    7.0737   -4.8133    2.2561 H   0  0  0  0  0  0  0  0  0  0  0  0
    9.4135   -2.9701    1.1577 H   0  0  0  0  0  0  0  0  0  0  0  0
    9.0115   -4.6115    0.5821 H   0  0  0  0  0  0  0  0  0  0  0  0
   10.6567   -4.2459    1.1794 H   0  0  0  0  0  0  0  0  0  0  0  0
    9.7693   -2.5445    3.6732 H   0  0  0  0  0  0  0  0  0  0  0  0
   11.0466   -3.7924    3.6434 H   0  0  0  0  0  0  0  0  0  0  0  0
    9.6978   -3.9255    4.8037 H   0  0  0  0  0  0  0  0  0  0  0  0
   10.3018   -7.9613    3.5113 H   0  0  0  0  0  0  0  0  0  0  0  0
    8.1149   -9.2885    2.0611 H   0  0  0  0  0  0  0  0  0  0  0  0
    9.4255  -10.0818    2.9848 H   0  0  0  0  0  0  0  0  0  0  0  0
    9.0269   -8.0959    0.0474 H   0  0  0  0  0  0  0  0  0  0  0  0
    9.5145   -9.0355   -2.2033 H   0  0  0  0  0  0  0  0  0  0  0  0
   10.7694  -10.0360   -1.4047 H   0  0  0  0  0  0  0  0  0  0  0  0
   11.5054   -5.3399   -3.3897 H   0  0  0  0  0  0  0  0  0  0  0  0
   12.4594   -6.5473   -4.2065 H   0  0  0  0  0  0  0  0  0  0  0  0
   14.8155   -4.6191   -1.8054 H   0  0  0  0  0  0  0  0  0  0  0  0
   13.5685   -3.9271   -2.8590 H   0  0  0  0  0  0  0  0  0  0  0  0
   15.6397   -7.0514   -3.2380 H   0  0  0  0  0  0  0  0  0  0  0  0
   17.3910   -8.1296   -3.3888 H   0  0  0  0  0  0  0  0  0  0  0  0
   19.3213   -9.6997   -3.9292 H   0  0  0  0  0  0  0  0  0  0  0  0
   18.4429   -9.9989   -5.4325 H   0  0  0  0  0  0  0  0  0  0  0  0
   15.5734  -10.1017   -4.1068 H   0  0  0  0  0  0  0  0  0  0  0  0
   13.1640  -13.9330   -1.6036 H   0  0  0  0  0  0  0  0  0  0  0  0
   18.2266  -13.7462   -1.8723 H   0  0  0  0  0  0  0  0  0  0  0  0
   17.1157   -5.6391   -7.0454 H   0  0  0  0  0  0  0  0  0  0  0  0
   15.7611   -3.5466   -6.6653 H   0  0  0  0  0  0  0  0  0  0  0  0
   14.2165   -6.4831   -0.4723 H   0  0  0  0  0  0  0  0  0  0  0  0
   12.0851   -7.7147    0.2370 H   0  0  0  0  0  0  0  0  0  0  0  0
   13.0154   -8.8025   -0.7642 H   0  0  0  0  0  0  0  0  0  0  0  0
  1  2  1  0
  1 43  1  0
  1 44  1  0
  1 45  1  0
  2  3  1  0
  2  4  1  0
  2  5  1  1
  3 46  1  0
  3 47  1  0
  3 48  1  0
  4 49  1  0
  4 50  1  0
  4 51  1  0
  5  6  1  0
  6  7  2  0
  6  8  1  0
  8  9  1  0
  8 52  1  0
  9 10  1  0
  9 53  1  0
  9 54  1  0
 10 11  2  0
 10 12  1  0
 12 13  1  0
 12 55  1  0
 13 14  1  0
 13 56  1  0
 13 57  1  0
 14 15  2  0
 14 42  1  0
 15 16  1  0
 16 17  1  0
 16 58  1  0
 16 59  1  0
 17 18  1  0
 17 41  2  0
 18 19  1  0
 18 60  1  0
 18 61  1  0
 19 20  2  0
 19 40  1  0
 20 21  1  0
 20 62  1  0
 21 22  1  0
 21 38  2  0
 22 23  2  0
 22 24  1  0
 24 25  1  0
 24 63  1  0
 25 26  1  0
 25 64  1  0
 25 65  1  0
 26 27  2  0
 26 36  1  0
 27 28  1  0
 27 66  1  0
 28 29  1  0
 28 34  2  0
 29 30  1  0
 29 31  2  0
 31 32  1  0
 31 67  1  0
 32 33  1  0
 32 34  1  0
 34 35  1  0
 35 36  2  0
 35 68  1  0
 36 37  1  0
 38 39  1  0
 38 69  1  0
 39 40  2  0
 39 70  1  0
 41 42  1  0
 41 71  1  0
 42 72  1  0
 42 73  1  0
M  END

