
     RDKit          3D

 36 37  0  0  0  0  0  0  0  0999 V2000
    2.4689    2.5796   -2.8363 O   0  0  0  0  0  0  0  0  0  0  0  0
    2.2194    1.9450   -1.8271 C   0  0  0  0  0  0  0  0  0  0  0  0
    0.7746    1.8860   -1.3210 C   0  0  0  0  0  0  0  0  0  0  0  0
    0.6697    1.1338   -0.1321 O   0  0  0  0  0  0  0  0  0  0  0  0
   -0.6252    1.0040    0.3736 C   0  0  0  0  0  0  0  0  0  0  0  0
   -0.5658    0.1851    1.6515 C   0  0  1  0  0  0  0  0  0  0  0  0
    0.1894    0.7780    2.5853 F   0  0  0  0  0  0  0  0  0  0  0  0
   -1.8056    0.0421    2.1480 F   0  0  0  0  0  0  0  0  0  0  0  0
   -0.0626   -1.0370    1.4330 F   0  0  0  0  0  0  0  0  0  0  0  0
    3.1040    1.2481   -1.0612 N   0  0  0  0  0  0  0  0  0  0  0  0
    4.4932    1.0855   -1.2366 C   0  0  0  0  0  0  0  0  0  0  0  0
    5.2127    1.6491   -2.3051 C   0  0  0  0  0  0  0  0  0  0  0  0
    6.5869    1.4513   -2.4179 C   0  0  0  0  0  0  0  0  0  0  0  0
    7.2921    0.6801   -1.4715 C   0  0  0  0  0  0  0  0  0  0  0  0
    8.6847    0.4809   -1.5534 N   0  0  0  0  0  0  0  0  0  0  0  0
    9.4268   -0.2536   -0.5351 C   0  0  0  0  0  0  0  0  0  0  0  0
   10.8912   -0.0574   -0.9654 C   0  0  0  0  0  0  0  0  0  0  0  0
   10.7393    0.1888   -2.3846 N   0  0  0  0  0  0  0  0  0  0  0  0
    9.4845    0.6931   -2.6859 C   0  0  0  0  0  0  0  0  0  0  0  0
    9.1627    1.2079   -3.7357 O   0  0  0  0  0  0  0  0  0  0  0  0
    6.5653    0.1153   -0.4061 C   0  0  0  0  0  0  0  0  0  0  0  0
    5.1911    0.3190   -0.2926 C   0  0  0  0  0  0  0  0  0  0  0  0
    0.1585    1.4499   -2.1314 H   0  0  0  0  0  0  0  0  0  0  0  0
    0.4329    2.9286   -1.1729 H   0  0  0  0  0  0  0  0  0  0  0  0
   -1.2995    0.4818   -0.3326 H   0  0  0  0  0  0  0  0  0  0  0  0
   -1.0780    1.9837    0.6205 H   0  0  0  0  0  0  0  0  0  0  0  0
    2.6919    0.7856   -0.2559 H   0  0  0  0  0  0  0  0  0  0  0  0
    4.6843    2.2468   -3.0449 H   0  0  0  0  0  0  0  0  0  0  0  0
    7.1284    1.8875   -3.2540 H   0  0  0  0  0  0  0  0  0  0  0  0
    9.1472   -1.3243   -0.5361 H   0  0  0  0  0  0  0  0  0  0  0  0
    9.2345    0.1454    0.4722 H   0  0  0  0  0  0  0  0  0  0  0  0
   11.5031   -0.9482   -0.7557 H   0  0  0  0  0  0  0  0  0  0  0  0
   11.3462    0.8024   -0.4362 H   0  0  0  0  0  0  0  0  0  0  0  0
   11.5080    0.5122   -2.9600 H   0  0  0  0  0  0  0  0  0  0  0  0
    7.0607   -0.4956    0.3486 H   0  0  0  0  0  0  0  0  0  0  0  0
    4.6533   -0.1321    0.5466 H   0  0  0  0  0  0  0  0  0  0  0  0
  1  2  2  0
  2  3  1  0
  2 10  1  0
  3  4  1  0
  3 23  1  0
  3 24  1  0
  4  5  1  0
  5  6  1  0
  5 25  1  0
  5 26  1  0
  6  7  1  1
  6  8  1  0
  6  9  1  0
 10 11  1  0
 10 27  1  0
 11 12  2  0
 11 22  1  0
 12 13  1  0
 12 28  1  0
 13 14  2  0
 13 29  1  0
 14 15  1  0
 14 21  1  0
 15 16  1  0
 15 19  1  0
 16 17  1  0
 16 30  1  0
 16 31  1  0
 17 18  1  0
 17 32  1  0
 17 33  1  0
 18 19  1  0
 18 34  1  0
 19 20  2  0
 21 22  2  0
 21 35  1  0
 22 36  1  0
M  END

