
     RDKit          3D

 38 38  0  0  0  0  0  0  0  0999 V2000
    3.1915   -1.2303    1.1830 C   0  0  0  0  0  0  0  0  0  0  0  0
    4.4324   -1.7651    0.4670 C   0  0  0  0  0  0  0  0  0  0  0  0
    4.7124   -1.0545   -0.8621 C   0  0  0  0  0  0  0  0  0  0  0  0
    5.9492   -1.6041   -1.5596 C   0  0  0  0  0  0  0  0  0  0  0  0
    6.1611   -0.9836   -2.8499 O   0  0  0  0  0  0  0  0  0  0  0  0
    6.8440    0.1534   -2.8975 C   0  0  0  0  0  0  0  0  0  0  0  0
    7.2898    0.6991   -1.8989 O   0  0  0  0  0  0  0  0  0  0  0  0
    7.0514    0.7279   -4.3011 C   0  0  1  0  0  0  0  0  0  0  0  0
    8.5830    0.9887   -4.5139 C   0  0  0  0  0  0  0  0  0  0  0  0
    9.1149    0.8181   -5.5784 O   0  0  0  0  0  0  0  0  0  0  0  0
    9.2390    1.4954   -3.4690 O   0  0  0  0  0  0  0  0  0  0  0  0
    6.5083   -0.1509   -5.4452 C   0  0  0  0  0  0  0  0  0  0  0  0
    4.9783   -0.1577   -5.5669 C   0  0  0  0  0  0  0  0  0  0  0  0
    4.3893    1.2554   -5.6146 C   0  0  0  0  0  0  0  0  0  0  0  0
    4.8399    2.1007   -4.4194 C   0  0  2  0  0  0  0  0  0  0  0  0
    4.2242    3.4219   -4.4756 N   0  0  0  0  0  0  0  0  0  0  0  0
    6.3795    2.1418   -4.3505 C   0  0  0  0  0  0  0  0  0  0  0  0
    3.0188   -1.7579    2.1341 H   0  0  0  0  0  0  0  0  0  0  0  0
    2.2872   -1.3532    0.5642 H   0  0  0  0  0  0  0  0  0  0  0  0
    3.2928   -0.1563    1.4108 H   0  0  0  0  0  0  0  0  0  0  0  0
    4.3152   -2.8490    0.2856 H   0  0  0  0  0  0  0  0  0  0  0  0
    5.3120   -1.6625    1.1276 H   0  0  0  0  0  0  0  0  0  0  0  0
    4.8525    0.0248   -0.6835 H   0  0  0  0  0  0  0  0  0  0  0  0
    3.8435   -1.1606   -1.5351 H   0  0  0  0  0  0  0  0  0  0  0  0
    5.8372   -2.6737   -1.7875 H   0  0  0  0  0  0  0  0  0  0  0  0
    6.8491   -1.4562   -0.9453 H   0  0  0  0  0  0  0  0  0  0  0  0
    8.6610    1.4603   -2.6715 H   0  0  0  0  0  0  0  0  0  0  0  0
    6.8911   -1.1768   -5.3369 H   0  0  0  0  0  0  0  0  0  0  0  0
    6.9524    0.2433   -6.3710 H   0  0  0  0  0  0  0  0  0  0  0  0
    4.5363   -0.7086   -4.7216 H   0  0  0  0  0  0  0  0  0  0  0  0
    4.6971   -0.7121   -6.4774 H   0  0  0  0  0  0  0  0  0  0  0  0
    3.2885    1.2271   -5.6401 H   0  0  0  0  0  0  0  0  0  0  0  0
    4.7133    1.7641   -6.5430 H   0  0  0  0  0  0  0  0  0  0  0  0
    4.4642    1.6139   -3.4988 H   0  0  0  0  0  0  0  0  0  0  0  0
    4.5389    3.9216   -5.3097 H   0  0  0  0  0  0  0  0  0  0  0  0
    4.5118    3.9893   -3.6774 H   0  0  0  0  0  0  0  0  0  0  0  0
    6.7051    2.7348   -3.4815 H   0  0  0  0  0  0  0  0  0  0  0  0
    6.7541    2.6560   -5.2527 H   0  0  0  0  0  0  0  0  0  0  0  0
  1  2  1  0
  1 18  1  0
  1 19  1  0
  1 20  1  0
  2  3  1  0
  2 21  1  0
  2 22  1  0
  3  4  1  0
  3 23  1  0
  3 24  1  0
  4  5  1  0
  4 25  1  0
  4 26  1  0
  5  6  1  0
  6  7  2  0
  8  6  1  1
  8  9  1  0
  8 12  1  0
  8 17  1  0
  9 10  2  0
  9 11  1  0
 11 27  1  0
 12 13  1  0
 12 28  1  0
 12 29  1  0
 13 14  1  0
 13 30  1  0
 13 31  1  0
 14 15  1  0
 14 32  1  0
 14 33  1  0
 15 16  1  0
 15 17  1  0
 15 34  1  1
 16 35  1  0
 16 36  1  0
 17 37  1  0
 17 38  1  0
M  END

