
     RDKit          3D

 38 38  0  0  0  0  0  0  0  0999 V2000
    1.4392    0.8935   -1.0266 C   0  0  0  0  0  0  0  0  0  0  0  0
    2.1458   -0.0504   -0.2529 O   0  0  0  0  0  0  0  0  0  0  0  0
    2.7967    0.3602    0.8686 C   0  0  0  0  0  0  0  0  0  0  0  0
    2.8272    1.6912    1.3002 C   0  0  0  0  0  0  0  0  0  0  0  0
    3.5312    2.0194    2.4652 C   0  0  0  0  0  0  0  0  0  0  0  0
    3.5334    3.4574    2.8816 C   0  0  0  0  0  0  0  0  0  0  0  0
    2.9638    4.3312    2.2622 O   0  0  0  0  0  0  0  0  0  0  0  0
    4.2351    3.6566    4.0111 O   0  0  0  0  0  0  0  0  0  0  0  0
    4.3882    4.9816    4.6240 C   0  0  1  0  0  0  0  0  0  0  0  0
    3.0180    5.5296    5.0369 C   0  0  0  0  0  0  0  0  0  0  0  0
    5.2479    4.6913    5.8559 C   0  0  0  0  0  0  0  0  0  0  0  0
    5.1215    5.9229    3.6622 C   0  0  0  0  0  0  0  0  0  0  0  0
    4.2012    1.0316    3.1971 C   0  0  0  0  0  0  0  0  0  0  0  0
    4.1636   -0.2981    2.7527 C   0  0  0  0  0  0  0  0  0  0  0  0
    4.7950   -1.3158    3.4009 O   0  0  0  0  0  0  0  0  0  0  0  0
    5.4948   -1.0500    4.5942 C   0  0  0  0  0  0  0  0  0  0  0  0
    3.4551   -0.6596    1.5881 C   0  0  0  0  0  0  0  0  0  0  0  0
    3.4043   -2.0830    1.1043 C   0  0  0  0  0  0  0  0  0  0  0  0
    0.9944    0.3398   -1.8646 H   0  0  0  0  0  0  0  0  0  0  0  0
    2.1056    1.6773   -1.4286 H   0  0  0  0  0  0  0  0  0  0  0  0
    0.6329    1.3789   -0.4483 H   0  0  0  0  0  0  0  0  0  0  0  0
    2.3246    2.4927    0.7623 H   0  0  0  0  0  0  0  0  0  0  0  0
    2.4977    4.8093    5.6875 H   0  0  0  0  0  0  0  0  0  0  0  0
    2.3903    5.7319    4.1602 H   0  0  0  0  0  0  0  0  0  0  0  0
    3.1496    6.4659    5.6017 H   0  0  0  0  0  0  0  0  0  0  0  0
    4.7388    3.9815    6.5257 H   0  0  0  0  0  0  0  0  0  0  0  0
    5.4407    5.6199    6.4144 H   0  0  0  0  0  0  0  0  0  0  0  0
    6.2144    4.2557    5.5601 H   0  0  0  0  0  0  0  0  0  0  0  0
    4.5175    6.1284    2.7697 H   0  0  0  0  0  0  0  0  0  0  0  0
    6.0796    5.4796    3.3484 H   0  0  0  0  0  0  0  0  0  0  0  0
    5.3369    6.8758    4.1707 H   0  0  0  0  0  0  0  0  0  0  0  0
    4.7414    1.3176    4.0957 H   0  0  0  0  0  0  0  0  0  0  0  0
    5.8981   -2.0114    4.9405 H   0  0  0  0  0  0  0  0  0  0  0  0
    4.8338   -0.6361    5.3769 H   0  0  0  0  0  0  0  0  0  0  0  0
    6.3335   -0.3487    4.4330 H   0  0  0  0  0  0  0  0  0  0  0  0
    3.7103   -2.7781    1.8954 H   0  0  0  0  0  0  0  0  0  0  0  0
    4.0761   -2.2317    0.2406 H   0  0  0  0  0  0  0  0  0  0  0  0
    2.3917   -2.3398    0.7599 H   0  0  0  0  0  0  0  0  0  0  0  0
  1  2  1  0
  1 19  1  0
  1 20  1  0
  1 21  1  0
  2  3  1  0
  3  4  2  0
  3 17  1  0
  4  5  1  0
  4 22  1  0
  5  6  1  0
  5 13  2  0
  6  7  2  0
  6  8  1  0
  9  8  1  6
  9 10  1  0
  9 11  1  0
  9 12  1  0
 10 23  1  0
 10 24  1  0
 10 25  1  0
 11 26  1  0
 11 27  1  0
 11 28  1  0
 12 29  1  0
 12 30  1  0
 12 31  1  0
 13 14  1  0
 13 32  1  0
 14 15  1  0
 14 17  2  0
 15 16  1  0
 16 33  1  0
 16 34  1  0
 16 35  1  0
 17 18  1  0
 18 36  1  0
 18 37  1  0
 18 38  1  0
M  END

