
     RDKit          3D

 46 47  0  0  0  0  0  0  0  0999 V2000
    6.0824   -6.1516   -0.2383 C   0  0  0  0  0  0  0  0  0  0  0  0
    6.2437   -4.8686    0.3756 O   0  0  0  0  0  0  0  0  0  0  0  0
    6.3373   -3.8160   -0.4496 C   0  0  0  0  0  0  0  0  0  0  0  0
    6.4084   -3.9156   -1.6528 O   0  0  0  0  0  0  0  0  0  0  0  0
    6.4202   -2.5001    0.2750 C   0  0  0  0  0  0  0  0  0  0  0  0
    7.2856   -1.5591   -0.3080 C   0  0  0  0  0  0  0  0  0  0  0  0
    7.4811   -0.3057    0.2675 C   0  0  0  0  0  0  0  0  0  0  0  0
    6.7864    0.0311    1.4320 C   0  0  0  0  0  0  0  0  0  0  0  0
    5.8974   -0.8795    2.0028 C   0  0  0  0  0  0  0  0  0  0  0  0
    5.6976   -2.1533    1.4431 C   0  0  0  0  0  0  0  0  0  0  0  0
    4.6683   -3.0758    2.0646 C   0  0  1  0  0  0  0  0  0  0  0  0
    4.8542   -3.3752    3.5441 C   0  0  0  0  0  0  0  0  0  0  0  0
    4.5424   -2.4197    4.4163 N   0  0  0  0  0  0  0  0  0  0  0  0
    4.6847   -2.7106    5.7129 C   0  0  0  0  0  0  0  0  0  0  0  0
    4.3407   -1.8026    6.6281 O   0  0  0  0  0  0  0  0  0  0  0  0
    3.8107   -0.5555    6.1794 C   0  0  0  0  0  0  0  0  0  0  0  0
    5.1794   -3.9442    6.1488 C   0  0  0  0  0  0  0  0  0  0  0  0
    5.4945   -4.8581    5.1379 C   0  0  0  0  0  0  0  0  0  0  0  0
    5.9789   -6.0508    5.4943 O   0  0  0  0  0  0  0  0  0  0  0  0
    6.2775   -6.9939    4.4685 C   0  0  0  0  0  0  0  0  0  0  0  0
    5.3208   -4.5845    3.8403 N   0  0  0  0  0  0  0  0  0  0  0  0
    2.9454   -2.4290    1.8295 S   0  0  1  0  0  0  0  0  0  0  0  0
    2.0371   -3.3977    2.4314 O   0  0  0  0  0  0  0  0  0  0  0  0
    2.8267   -0.9966    2.1098 O   0  0  0  0  0  0  0  0  0  0  0  0
    2.7694   -2.4665    0.1260 N   0  0  0  0  0  0  0  0  0  0  0  0
    2.7344   -3.6249   -0.6577 C   0  0  0  0  0  0  0  0  0  0  0  0
    2.2316   -3.4276   -1.9121 N   0  0  0  0  0  0  0  0  0  0  0  0
    3.1576   -4.6937   -0.2576 O   0  0  0  0  0  0  0  0  0  0  0  0
    6.1299   -6.8822    0.5783 H   0  0  0  0  0  0  0  0  0  0  0  0
    6.8827   -6.3342   -0.9700 H   0  0  0  0  0  0  0  0  0  0  0  0
    5.1039   -6.2019   -0.7359 H   0  0  0  0  0  0  0  0  0  0  0  0
    7.8079   -1.8400   -1.2243 H   0  0  0  0  0  0  0  0  0  0  0  0
    8.1710    0.4060   -0.1926 H   0  0  0  0  0  0  0  0  0  0  0  0
    6.9261    1.0120    1.8934 H   0  0  0  0  0  0  0  0  0  0  0  0
    5.3278   -0.6080    2.8910 H   0  0  0  0  0  0  0  0  0  0  0  0
    4.6186   -4.0344    1.5412 H   0  0  0  0  0  0  0  0  0  0  0  0
    3.4677   -0.0364    7.0834 H   0  0  0  0  0  0  0  0  0  0  0  0
    2.9790   -0.7028    5.4756 H   0  0  0  0  0  0  0  0  0  0  0  0
    4.5872    0.0430    5.6774 H   0  0  0  0  0  0  0  0  0  0  0  0
    5.3009   -4.1812    7.2045 H   0  0  0  0  0  0  0  0  0  0  0  0
    6.6758   -7.8772    4.9841 H   0  0  0  0  0  0  0  0  0  0  0  0
    7.0229   -6.5940    3.7646 H   0  0  0  0  0  0  0  0  0  0  0  0
    5.3731   -7.2616    3.9008 H   0  0  0  0  0  0  0  0  0  0  0  0
    2.6005   -1.5418   -0.2596 H   0  0  0  0  0  0  0  0  0  0  0  0
    1.6707   -2.6211   -2.1520 H   0  0  0  0  0  0  0  0  0  0  0  0
    2.1803   -4.2415   -2.5120 H   0  0  0  0  0  0  0  0  0  0  0  0
  1  2  1  0
  1 29  1  0
  1 30  1  0
  1 31  1  0
  2  3  1  0
  3  4  2  0
  3  5  1  0
  5  6  2  0
  5 10  1  0
  6  7  1  0
  6 32  1  0
  7  8  2  0
  7 33  1  0
  8  9  1  0
  8 34  1  0
  9 10  2  0
  9 35  1  0
 10 11  1  0
 11 12  1  0
 11 22  1  0
 11 36  1  6
 12 13  2  0
 12 21  1  0
 13 14  1  0
 14 15  1  0
 14 17  2  0
 15 16  1  0
 16 37  1  0
 16 38  1  0
 16 39  1  0
 17 18  1  0
 17 40  1  0
 18 19  1  0
 18 21  2  0
 19 20  1  0
 20 41  1  0
 20 42  1  0
 20 43  1  0
 22 23  2  0
 22 24  2  0
 22 25  1  6
 25 26  1  0
 25 44  1  0
 26 27  1  0
 26 28  2  0
 27 45  1  0
 27 46  1  0
M  END

