
     RDKit          3D

 38 39  0  0  0  0  0  0  0  0999 V2000
    3.4742    1.7585   -0.8178 C   0  0  0  0  0  0  0  0  0  0  0  0
    2.8229    1.3518    0.5164 C   0  0  1  0  0  0  0  0  0  0  0  0
    3.1326    2.3881    1.6121 C   0  0  0  0  0  0  0  0  0  0  0  0
    1.3031    1.2193    0.3366 C   0  0  0  0  0  0  0  0  0  0  0  0
    3.3008    0.0090    0.9306 N   0  0  0  0  0  0  0  0  0  0  0  0
    4.5754   -0.3536    1.2004 C   0  0  0  0  0  0  0  0  0  0  0  0
    5.6212    0.4299    1.1357 N   0  0  0  0  0  0  0  0  0  0  0  0
    6.7726   -0.2357    1.4635 C   0  0  0  0  0  0  0  0  0  0  0  0
    7.9476    0.4229    1.4397 N   0  0  0  0  0  0  0  0  0  0  0  0
    6.6350   -1.5906    1.8035 C   0  0  0  0  0  0  0  0  0  0  0  0
    7.7378   -2.4417    2.2002 C   0  0  0  0  0  0  0  0  0  0  0  0
    8.8969   -2.0110    2.2508 O   0  0  0  0  0  0  0  0  0  0  0  0
    7.4225   -3.7569    2.5200 N   0  0  0  0  0  0  0  0  0  0  0  0
    8.2647   -4.7969    2.9331 C   0  0  0  0  0  0  0  0  0  0  0  0
    9.6583   -4.6609    3.0958 C   0  0  0  0  0  0  0  0  0  0  0  0
   10.4114   -5.7606    3.5124 C   0  0  0  0  0  0  0  0  0  0  0  0
    9.8262   -7.0022    3.7760 C   0  0  0  0  0  0  0  0  0  0  0  0
    8.4485   -7.1131    3.6086 C   0  0  0  0  0  0  0  0  0  0  0  0
    7.8486   -8.2906    3.8521 F   0  0  0  0  0  0  0  0  0  0  0  0
    7.6629   -6.0441    3.1959 C   0  0  0  0  0  0  0  0  0  0  0  0
    4.9165   -2.0247    1.6814 S   0  0  0  0  0  0  0  0  0  0  0  0
    3.0970    2.7426   -1.1378 H   0  0  0  0  0  0  0  0  0  0  0  0
    3.2375    1.0258   -1.6053 H   0  0  0  0  0  0  0  0  0  0  0  0
    4.5658    1.8184   -0.7143 H   0  0  0  0  0  0  0  0  0  0  0  0
    2.7515    3.3780    1.3156 H   0  0  0  0  0  0  0  0  0  0  0  0
    4.2155    2.4648    1.7779 H   0  0  0  0  0  0  0  0  0  0  0  0
    2.6529    2.1047    2.5623 H   0  0  0  0  0  0  0  0  0  0  0  0
    0.8728    2.1826    0.0267 H   0  0  0  0  0  0  0  0  0  0  0  0
    0.8146    0.9205    1.2789 H   0  0  0  0  0  0  0  0  0  0  0  0
    1.0571    0.4752   -0.4388 H   0  0  0  0  0  0  0  0  0  0  0  0
    2.5952   -0.7074    1.0450 H   0  0  0  0  0  0  0  0  0  0  0  0
    7.9567    1.4134    1.2442 H   0  0  0  0  0  0  0  0  0  0  0  0
    8.7725   -0.1009    1.7252 H   0  0  0  0  0  0  0  0  0  0  0  0
    6.4450   -4.0127    2.4495 H   0  0  0  0  0  0  0  0  0  0  0  0
   10.1225   -3.6998    2.8935 H   0  0  0  0  0  0  0  0  0  0  0  0
   11.4912   -5.6429    3.6349 H   0  0  0  0  0  0  0  0  0  0  0  0
   10.4066   -7.8666    4.1018 H   0  0  0  0  0  0  0  0  0  0  0  0
    6.5865   -6.1939    3.0829 H   0  0  0  0  0  0  0  0  0  0  0  0
  1  2  1  0
  1 22  1  0
  1 23  1  0
  1 24  1  0
  2  3  1  0
  2  4  1  0
  2  5  1  1
  3 25  1  0
  3 26  1  0
  3 27  1  0
  4 28  1  0
  4 29  1  0
  4 30  1  0
  5  6  1  0
  5 31  1  0
  6  7  2  0
  6 21  1  0
  7  8  1  0
  8  9  1  0
  8 10  2  0
  9 32  1  0
  9 33  1  0
 10 11  1  0
 10 21  1  0
 11 12  2  0
 11 13  1  0
 13 14  1  0
 13 34  1  0
 14 15  2  0
 14 20  1  0
 15 16  1  0
 15 35  1  0
 16 17  2  0
 16 36  1  0
 17 18  1  0
 17 37  1  0
 18 19  1  0
 18 20  2  0
 20 38  1  0
M  END

