
     RDKit          3D

 39 40  0  0  0  0  0  0  0  0999 V2000
    0.1323   -1.9496   -5.1334 C   0  0  0  0  0  0  0  0  0  0  0  0
    0.0234   -3.3034   -4.4690 C   0  0  0  0  0  0  0  0  0  0  0  0
   -0.4961   -3.4820   -3.2409 C   0  0  0  0  0  0  0  0  0  0  0  0
   -0.6812   -2.4155   -2.2057 C   0  0  0  0  0  0  0  0  0  0  0  0
    0.4455   -2.5324   -1.1161 C   0  0  0  0  0  0  0  0  0  0  0  0
    1.8510   -2.6077   -1.6900 C   0  0  0  0  0  0  0  0  0  0  0  0
    2.7301   -1.4349   -1.5104 C   0  0  0  0  0  0  0  0  0  0  0  0
    3.9198   -1.3791   -1.7452 O   0  0  0  0  0  0  0  0  0  0  0  0
    2.2078   -3.7470   -2.3408 C   0  0  0  0  0  0  0  0  0  0  0  0
    3.3565   -4.2038   -3.1579 C   0  0  1  0  0  0  0  0  0  0  0  0
    3.8632   -5.0133   -2.6110 H   0  0  0  0  0  0  0  0  0  0  0  0
    3.2111   -4.6013   -4.6378 C   0  0  1  0  0  0  0  0  0  0  0  0
    3.6371   -5.5915   -4.8333 H   0  0  0  0  0  0  0  0  0  0  0  0
    2.0949   -4.2632   -5.6365 C   0  0  0  0  0  0  0  0  0  0  0  0
    0.5919   -4.4689   -5.2614 C   0  0  1  0  0  0  0  0  0  0  0  0
    0.0491   -4.4989   -6.2320 H   0  0  0  0  0  0  0  0  0  0  0  0
    0.3834   -5.6775   -4.5566 O   0  0  0  0  0  0  0  0  0  0  0  0
    4.2463   -3.5616   -4.1891 C   0  0  2  0  0  0  0  0  0  0  0  0
    5.7064   -3.9873   -4.1747 C   0  0  0  0  0  0  0  0  0  0  0  0
    4.0686   -2.1208   -4.6314 C   0  0  0  0  0  0  0  0  0  0  0  0
   -0.6664   -1.2723   -4.8009 H   0  0  0  0  0  0  0  0  0  0  0  0
    0.0489   -2.0402   -6.2290 H   0  0  0  0  0  0  0  0  0  0  0  0
    1.0921   -1.4463   -4.9280 H   0  0  0  0  0  0  0  0  0  0  0  0
   -0.5940   -4.5132   -2.8906 H   0  0  0  0  0  0  0  0  0  0  0  0
   -1.6518   -2.5085   -1.6880 H   0  0  0  0  0  0  0  0  0  0  0  0
   -0.6478   -1.4099   -2.6516 H   0  0  0  0  0  0  0  0  0  0  0  0
    0.2456   -3.4371   -0.5176 H   0  0  0  0  0  0  0  0  0  0  0  0
    0.3536   -1.6794   -0.4230 H   0  0  0  0  0  0  0  0  0  0  0  0
    2.2088   -0.5463   -1.0605 H   0  0  0  0  0  0  0  0  0  0  0  0
    1.4975   -4.5737   -2.2427 H   0  0  0  0  0  0  0  0  0  0  0  0
    2.2846   -4.8994   -6.5191 H   0  0  0  0  0  0  0  0  0  0  0  0
    2.2077   -3.2359   -6.0120 H   0  0  0  0  0  0  0  0  0  0  0  0
    0.7704   -6.3972   -5.0704 H   0  0  0  0  0  0  0  0  0  0  0  0
    5.8201   -5.0531   -3.9189 H   0  0  0  0  0  0  0  0  0  0  0  0
    6.2697   -3.3993   -3.4313 H   0  0  0  0  0  0  0  0  0  0  0  0
    6.1744   -3.8262   -5.1608 H   0  0  0  0  0  0  0  0  0  0  0  0
    3.0440   -1.7551   -4.4919 H   0  0  0  0  0  0  0  0  0  0  0  0
    4.3294   -2.0136   -5.6990 H   0  0  0  0  0  0  0  0  0  0  0  0
    4.7237   -1.4624   -4.0463 H   0  0  0  0  0  0  0  0  0  0  0  0
  1  2  1  0
  1 21  1  0
  1 22  1  0
  1 23  1  0
  2  3  2  0
  2 15  1  0
  3  4  1  0
  3 24  1  0
  4  5  1  0
  4 25  1  0
  4 26  1  0
  5  6  1  0
  5 27  1  0
  5 28  1  0
  6  7  1  0
  6  9  2  0
  7  8  2  0
  7 29  1  0
  9 10  1  0
  9 30  1  0
 10 11  1  1
 10 12  1  0
 10 18  1  0
 12 13  1  1
 12 14  1  0
 12 18  1  0
 14 15  1  0
 14 31  1  0
 14 32  1  0
 15 16  1  6
 15 17  1  0
 17 33  1  0
 18 19  1  1
 18 20  1  0
 19 34  1  0
 19 35  1  0
 19 36  1  0
 20 37  1  0
 20 38  1  0
 20 39  1  0
M  END

