
     RDKit          3D

 53 56  0  0  0  0  0  0  0  0999 V2000
    3.7738    0.0149    0.7516 C   0  0  0  0  0  0  0  0  0  0  0  0
    2.9319   -0.1622   -0.5154 C   0  0  2  0  0  0  0  0  0  0  0  0
    1.8909    0.0881   -0.2576 H   0  0  0  0  0  0  0  0  0  0  0  0
    2.8873   -1.5709   -0.9282 N   0  0  0  0  0  0  0  0  0  0  0  0
    1.9903   -2.4828   -0.4853 C   0  0  0  0  0  0  0  0  0  0  0  0
    0.7531   -2.1425    0.6019 S   0  0  0  0  0  0  0  0  0  0  0  0
    2.1239   -3.7676   -0.9649 N   0  0  0  0  0  0  0  0  0  0  0  0
    3.0253   -4.3104   -1.9077 C   0  0  0  0  0  0  0  0  0  0  0  0
    3.3464   -3.6593   -3.1147 C   0  0  0  0  0  0  0  0  0  0  0  0
    4.2284   -4.2553   -4.0172 C   0  0  0  0  0  0  0  0  0  0  0  0
    4.7762   -5.5140   -3.7634 C   0  0  0  0  0  0  0  0  0  0  0  0
    4.4207   -6.1902   -2.5773 C   0  0  0  0  0  0  0  0  0  0  0  0
    3.5695   -5.5795   -1.6549 C   0  0  0  0  0  0  0  0  0  0  0  0
    4.9062   -7.4332   -2.2924 O   0  0  0  0  0  0  0  0  0  0  0  0
    5.4976   -8.1060   -3.3952 C   0  0  0  0  0  0  0  0  0  0  0  0
    6.3927   -7.1569   -4.1739 C   0  0  0  0  0  0  0  0  0  0  0  0
    5.6350   -6.0658   -4.6731 O   0  0  0  0  0  0  0  0  0  0  0  0
    3.3546    0.6895   -1.7065 C   0  0  0  0  0  0  0  0  0  0  0  0
    2.4751    0.8463   -2.7885 C   0  0  0  0  0  0  0  0  0  0  0  0
    2.8096    1.6043   -3.9095 C   0  0  0  0  0  0  0  0  0  0  0  0
    4.0675    2.2420   -4.0113 C   0  0  0  0  0  0  0  0  0  0  0  0
    4.4428    2.9732   -5.1490 N   0  0  0  0  0  0  0  0  0  0  0  0
    5.1992    4.2138   -4.9809 C   0  0  0  0  0  0  0  0  0  0  0  0
    5.8805    4.6110   -6.2865 C   0  0  0  0  0  0  0  0  0  0  0  0
    4.9534    4.7063   -7.3459 O   0  0  0  0  0  0  0  0  0  0  0  0
    4.2880    3.4786   -7.5432 C   0  0  0  0  0  0  0  0  0  0  0  0
    3.5397    3.0243   -6.2905 C   0  0  0  0  0  0  0  0  0  0  0  0
    4.9487    2.0881   -2.9190 C   0  0  0  0  0  0  0  0  0  0  0  0
    4.5965    1.3333   -1.8002 C   0  0  0  0  0  0  0  0  0  0  0  0
    4.8140   -0.3181    0.6045 H   0  0  0  0  0  0  0  0  0  0  0  0
    3.3306   -0.5829    1.5610 H   0  0  0  0  0  0  0  0  0  0  0  0
    3.7892    1.0692    1.0685 H   0  0  0  0  0  0  0  0  0  0  0  0
    3.6651   -1.8975   -1.4942 H   0  0  0  0  0  0  0  0  0  0  0  0
    1.5130   -4.4162   -0.4801 H   0  0  0  0  0  0  0  0  0  0  0  0
    2.8910   -2.7002   -3.3627 H   0  0  0  0  0  0  0  0  0  0  0  0
    4.4967   -3.7563   -4.9507 H   0  0  0  0  0  0  0  0  0  0  0  0
    3.3359   -6.1170   -0.7336 H   0  0  0  0  0  0  0  0  0  0  0  0
    4.7087   -8.5071   -4.0587 H   0  0  0  0  0  0  0  0  0  0  0  0
    6.0728   -8.9485   -2.9843 H   0  0  0  0  0  0  0  0  0  0  0  0
    6.8428   -7.6599   -5.0422 H   0  0  0  0  0  0  0  0  0  0  0  0
    7.2051   -6.7869   -3.5201 H   0  0  0  0  0  0  0  0  0  0  0  0
    1.4884    0.3750   -2.7467 H   0  0  0  0  0  0  0  0  0  0  0  0
    2.0688    1.7117   -4.7011 H   0  0  0  0  0  0  0  0  0  0  0  0
    5.9665    4.0931   -4.2059 H   0  0  0  0  0  0  0  0  0  0  0  0
    4.5277    5.0381   -4.6570 H   0  0  0  0  0  0  0  0  0  0  0  0
    6.6681    3.8678   -6.5309 H   0  0  0  0  0  0  0  0  0  0  0  0
    6.3556    5.5982   -6.1803 H   0  0  0  0  0  0  0  0  0  0  0  0
    5.0142    2.6922   -7.8370 H   0  0  0  0  0  0  0  0  0  0  0  0
    3.5792    3.6222   -8.3729 H   0  0  0  0  0  0  0  0  0  0  0  0
    3.1293    2.0216   -6.4800 H   0  0  0  0  0  0  0  0  0  0  0  0
    2.6829    3.7085   -6.1055 H   0  0  0  0  0  0  0  0  0  0  0  0
    5.9388    2.5449   -2.9452 H   0  0  0  0  0  0  0  0  0  0  0  0
    5.3210    1.2487   -0.9877 H   0  0  0  0  0  0  0  0  0  0  0  0
  1  2  1  0
  1 30  1  0
  1 31  1  0
  1 32  1  0
  2  3  1  1
  2  4  1  0
  2 18  1  0
  4  5  1  0
  4 33  1  0
  5  6  2  0
  5  7  1  0
  7  8  1  0
  7 34  1  0
  8  9  2  0
  8 13  1  0
  9 10  1  0
  9 35  1  0
 10 11  2  0
 10 36  1  0
 11 12  1  0
 11 17  1  0
 12 13  2  0
 12 14  1  0
 13 37  1  0
 14 15  1  0
 15 16  1  0
 15 38  1  0
 15 39  1  0
 16 17  1  0
 16 40  1  0
 16 41  1  0
 18 19  2  0
 18 29  1  0
 19 20  1  0
 19 42  1  0
 20 21  2  0
 20 43  1  0
 21 22  1  0
 21 28  1  0
 22 23  1  0
 22 27  1  0
 23 24  1  0
 23 44  1  0
 23 45  1  0
 24 25  1  0
 24 46  1  0
 24 47  1  0
 25 26  1  0
 26 27  1  0
 26 48  1  0
 26 49  1  0
 27 50  1  0
 27 51  1  0
 28 29  2  0
 28 52  1  0
 29 53  1  0
M  END

