
     RDKit          3D

 38 39  0  0  0  0  0  0  0  0999 V2000
    1.4742   -1.0700    1.2716 C   0  0  0  0  0  0  0  0  0  0  0  0
    2.6988   -0.4994    0.5804 C   0  0  0  0  0  0  0  0  0  0  0  0
    3.2392   -1.4927   -0.2695 O   0  0  0  0  0  0  0  0  0  0  0  0
    4.3091   -1.0732   -1.0955 C   0  0  1  0  0  0  0  0  0  0  0  0
    5.6539   -0.9662   -0.3443 C   0  0  0  0  0  0  0  0  0  0  0  0
    6.0226   -2.1875    0.4986 C   0  0  0  0  0  0  0  0  0  0  0  0
    4.3488   -2.0180   -2.2681 C   0  0  0  0  0  0  0  0  0  0  0  0
    4.1542   -1.5793   -3.4854 N   0  0  0  0  0  0  0  0  0  0  0  0
    4.2560   -2.7254   -4.2672 O   0  0  0  0  0  0  0  0  0  0  0  0
    4.4975   -3.7504   -3.4350 C   0  0  0  0  0  0  0  0  0  0  0  0
    4.5940   -5.1322   -4.0171 C   0  0  1  0  0  0  0  0  0  0  0  0
    5.4190   -5.1651   -5.3217 C   0  0  0  0  0  0  0  0  0  0  0  0
    6.9214   -4.9526   -5.0673 C   0  0  0  0  0  0  0  0  0  0  0  0
    7.4711   -5.8952   -4.0024 C   0  0  0  0  0  0  0  0  0  0  0  0
    8.4992   -6.5155   -4.1556 O   0  0  0  0  0  0  0  0  0  0  0  0
    6.6433   -5.9797   -2.7279 C   0  0  0  0  0  0  0  0  0  0  0  0
    5.1368   -6.1494   -2.9970 C   0  0  0  0  0  0  0  0  0  0  0  0
    4.5723   -3.3747   -2.1927 N   0  0  0  0  0  0  0  0  0  0  0  0
    1.0229   -0.3188    1.9385 H   0  0  0  0  0  0  0  0  0  0  0  0
    1.7438   -1.9520    1.8726 H   0  0  0  0  0  0  0  0  0  0  0  0
    0.7215   -1.3789    0.5300 H   0  0  0  0  0  0  0  0  0  0  0  0
    3.4441   -0.1731    1.3330 H   0  0  0  0  0  0  0  0  0  0  0  0
    2.4276    0.3985   -0.0130 H   0  0  0  0  0  0  0  0  0  0  0  0
    4.0800   -0.0811   -1.5306 H   0  0  0  0  0  0  0  0  0  0  0  0
    5.6090   -0.0716    0.3004 H   0  0  0  0  0  0  0  0  0  0  0  0
    6.4390   -0.7524   -1.0903 H   0  0  0  0  0  0  0  0  0  0  0  0
    5.2434   -2.3954    1.2471 H   0  0  0  0  0  0  0  0  0  0  0  0
    6.9722   -2.0181    1.0304 H   0  0  0  0  0  0  0  0  0  0  0  0
    6.1261   -3.0905   -0.1197 H   0  0  0  0  0  0  0  0  0  0  0  0
    3.5559   -5.4163   -4.2701 H   0  0  0  0  0  0  0  0  0  0  0  0
    5.0435   -4.4122   -6.0308 H   0  0  0  0  0  0  0  0  0  0  0  0
    5.2638   -6.1498   -5.7929 H   0  0  0  0  0  0  0  0  0  0  0  0
    7.0923   -3.9188   -4.7122 H   0  0  0  0  0  0  0  0  0  0  0  0
    7.5130   -5.0841   -5.9847 H   0  0  0  0  0  0  0  0  0  0  0  0
    6.8039   -5.0393   -2.1704 H   0  0  0  0  0  0  0  0  0  0  0  0
    7.0402   -6.7996   -2.1120 H   0  0  0  0  0  0  0  0  0  0  0  0
    4.5794   -6.0703   -2.0522 H   0  0  0  0  0  0  0  0  0  0  0  0
    4.9501   -7.1586   -3.4003 H   0  0  0  0  0  0  0  0  0  0  0  0
  1  2  1  0
  1 19  1  0
  1 20  1  0
  1 21  1  0
  2  3  1  0
  2 22  1  0
  2 23  1  0
  3  4  1  0
  4  5  1  0
  4  7  1  0
  4 24  1  6
  5  6  1  0
  5 25  1  0
  5 26  1  0
  6 27  1  0
  6 28  1  0
  6 29  1  0
  7  8  2  0
  7 18  1  0
  8  9  1  0
  9 10  1  0
 10 11  1  0
 10 18  2  0
 11 12  1  0
 11 17  1  0
 11 30  1  6
 12 13  1  0
 12 31  1  0
 12 32  1  0
 13 14  1  0
 13 33  1  0
 13 34  1  0
 14 15  2  0
 14 16  1  0
 16 17  1  0
 16 35  1  0
 16 36  1  0
 17 37  1  0
 17 38  1  0
M  END

