
     RDKit          3D

120130  0  0  0  0  0  0  0  0999 V2000
   16.5059   -6.8193    9.4795 F   0  0  0  0  0  0  0  0  0  0  0  0
   15.4720   -7.4178   10.0963 C   0  0  1  0  0  0  0  0  0  0  0  0
   15.9643   -8.4497   10.8049 F   0  0  0  0  0  0  0  0  0  0  0  0
   14.9789   -6.5328   10.9835 F   0  0  0  0  0  0  0  0  0  0  0  0
   14.4177   -7.8653    9.1142 C   0  0  0  0  0  0  0  0  0  0  0  0
   14.1839   -7.1260    7.9489 C   0  0  0  0  0  0  0  0  0  0  0  0
   13.1751   -7.5029    7.0645 C   0  0  0  0  0  0  0  0  0  0  0  0
   12.3817   -8.6396    7.3179 C   0  0  0  0  0  0  0  0  0  0  0  0
   11.3362   -9.1127    6.3703 C   0  0  0  0  0  0  0  0  0  0  0  0
   11.1872  -10.4564    6.1207 C   0  0  0  0  0  0  0  0  0  0  0  0
   10.1176  -11.0338    5.3232 C   0  0  0  0  0  0  0  0  0  0  0  0
   10.1665  -12.2911    4.7920 C   0  0  0  0  0  0  0  0  0  0  0  0
   11.3950  -13.1595    5.0220 C   0  0  0  0  0  0  0  0  0  0  0  0
   11.2620  -14.6267    4.5635 C   0  0  1  0  0  0  0  0  0  0  0  0
   12.3865  -15.4886    5.1223 C   0  0  0  0  0  0  0  0  0  0  0  0
   12.2493  -16.2765    6.2774 C   0  0  0  0  0  0  0  0  0  0  0  0
   13.3227  -17.0309    6.7570 C   0  0  0  0  0  0  0  0  0  0  0  0
   14.5551  -17.0069    6.0970 C   0  0  0  0  0  0  0  0  0  0  0  0
   15.6974  -17.8612    6.5872 C   0  0  1  0  0  0  0  0  0  0  0  0
   15.6830  -19.0827    6.0187 F   0  0  0  0  0  0  0  0  0  0  0  0
   16.8911  -17.3116    6.2995 F   0  0  0  0  0  0  0  0  0  0  0  0
   15.6472  -18.0486    7.9176 F   0  0  0  0  0  0  0  0  0  0  0  0
   14.7075  -16.2245    4.9466 C   0  0  0  0  0  0  0  0  0  0  0  0
   13.6308  -15.4794    4.4680 C   0  0  0  0  0  0  0  0  0  0  0  0
    9.8267  -15.1240    4.7843 C   0  0  1  0  0  0  0  0  0  0  0  0
    9.3784  -15.0241    6.1794 N   0  0  0  0  0  0  0  0  0  0  0  0
    7.9831  -15.3651    6.4103 C   0  0  2  0  0  0  0  0  0  0  0  0
    7.8473  -16.8966    6.6046 C   0  0  1  0  0  0  0  0  0  0  0  0
    8.1963  -17.5832    5.4836 F   0  0  0  0  0  0  0  0  0  0  0  0
    8.6897  -17.2820    7.5957 F   0  0  0  0  0  0  0  0  0  0  0  0
    6.4126  -17.3653    7.0006 C   0  0  1  0  0  0  0  0  0  0  0  0
    5.8589  -16.4526    7.8335 F   0  0  0  0  0  0  0  0  0  0  0  0
    5.6482  -17.4677    5.8993 F   0  0  0  0  0  0  0  0  0  0  0  0
    6.3558  -18.7424    7.7285 C   0  0  1  0  0  0  0  0  0  0  0  0
    7.0597  -19.6531    7.0563 F   0  0  0  0  0  0  0  0  0  0  0  0
    6.8321  -18.6452    8.9670 F   0  0  0  0  0  0  0  0  0  0  0  0
    5.0863  -19.1442    7.7932 F   0  0  0  0  0  0  0  0  0  0  0  0
    7.0140  -14.8707    5.4413 N   0  0  0  0  0  0  0  0  0  0  0  0
    7.4379  -14.8832    4.0338 C   0  0  1  0  0  0  0  0  0  0  0  0
    6.5162  -14.1030    3.0792 C   0  0  1  0  0  0  0  0  0  0  0  0
    5.1164  -14.6505    2.8354 C   0  0  0  0  0  0  0  0  0  0  0  0
    4.3253  -15.2321    3.8400 C   0  0  0  0  0  0  0  0  0  0  0  0
    3.0318  -15.6793    3.5622 C   0  0  0  0  0  0  0  0  0  0  0  0
    2.4979  -15.5463    2.2766 C   0  0  0  0  0  0  0  0  0  0  0  0
    1.1199  -16.0754    1.9675 C   0  0  1  0  0  0  0  0  0  0  0  0
    0.3095  -16.0161    3.0389 F   0  0  0  0  0  0  0  0  0  0  0  0
    0.5308  -15.3850    0.9745 F   0  0  0  0  0  0  0  0  0  0  0  0
    1.1588  -17.3645    1.5773 F   0  0  0  0  0  0  0  0  0  0  0  0
    3.2716  -14.9660    1.2655 C   0  0  0  0  0  0  0  0  0  0  0  0
    4.5652  -14.5289    1.5476 C   0  0  0  0  0  0  0  0  0  0  0  0
    6.4874  -12.5830    3.4075 C   0  0  0  0  0  0  0  0  0  0  0  0
    7.6996  -12.0695    4.2045 C   0  0  1  0  0  0  0  0  0  0  0  0
    9.0401  -12.8002    3.8860 C   0  0  2  0  0  0  0  0  0  0  0  0
    8.8868  -14.3686    3.8277 C   0  0  1  0  0  0  0  0  0  0  0  0
    7.8948  -10.5762    4.1571 C   0  0  0  0  0  0  0  0  0  0  0  0
    7.1335   -9.6748    3.4927 C   0  0  0  0  0  0  0  0  0  0  0  0
    7.3109   -8.2233    3.6112 C   0  0  0  0  0  0  0  0  0  0  0  0
    6.2371   -7.3473    3.0781 C   0  0  0  0  0  0  0  0  0  0  0  0
    6.5194   -6.1569    2.3791 C   0  0  0  0  0  0  0  0  0  0  0  0
    5.4929   -5.3683    1.8657 C   0  0  0  0  0  0  0  0  0  0  0  0
    4.1560   -5.7461    2.0408 C   0  0  0  0  0  0  0  0  0  0  0  0
    3.0502   -4.9167    1.4373 C   0  0  1  0  0  0  0  0  0  0  0  0
    3.3640   -3.6104    1.4067 F   0  0  0  0  0  0  0  0  0  0  0  0
    2.7929   -5.2870    0.1666 F   0  0  0  0  0  0  0  0  0  0  0  0
    1.8990   -5.0428    2.1209 F   0  0  0  0  0  0  0  0  0  0  0  0
    3.8558   -6.9224    2.7349 C   0  0  0  0  0  0  0  0  0  0  0  0
    4.8863   -7.7142    3.2400 C   0  0  0  0  0  0  0  0  0  0  0  0
    8.4550   -7.7526    4.2181 C   0  0  0  0  0  0  0  0  0  0  0  0
    8.6846   -6.4139    4.4205 N   0  0  0  0  0  0  0  0  0  0  0  0
    9.7101   -6.0662    5.1249 C   0  0  0  0  0  0  0  0  0  0  0  0
   10.0115   -4.5892    5.3596 C   0  0  1  0  0  0  0  0  0  0  0  0
    9.6796   -4.2745    6.6351 F   0  0  0  0  0  0  0  0  0  0  0  0
   11.3500   -4.3856    5.2237 F   0  0  0  0  0  0  0  0  0  0  0  0
    9.3122   -3.5328    4.4506 C   0  0  1  0  0  0  0  0  0  0  0  0
    7.9822   -3.7117    4.4546 F   0  0  0  0  0  0  0  0  0  0  0  0
    9.5726   -2.3184    4.9820 F   0  0  0  0  0  0  0  0  0  0  0  0
    9.8066   -3.4708    2.9732 C   0  0  1  0  0  0  0  0  0  0  0  0
    9.8577   -4.6885    2.4145 F   0  0  0  0  0  0  0  0  0  0  0  0
    8.9654   -2.7210    2.2619 F   0  0  0  0  0  0  0  0  0  0  0  0
   11.0211   -2.9335    2.9078 F   0  0  0  0  0  0  0  0  0  0  0  0
   10.5661   -6.8883    5.8358 N   0  0  0  0  0  0  0  0  0  0  0  0
   10.4806   -8.1654    5.6425 C   0  0  0  0  0  0  0  0  0  0  0  0
    9.5398   -8.7426    4.6009 C   0  0  1  0  0  0  0  0  0  0  0  0
    8.9717  -10.0765    5.0798 C   0  0  2  0  0  0  0  0  0  0  0  0
   12.6272   -9.3668    8.4993 C   0  0  0  0  0  0  0  0  0  0  0  0
   13.6324   -8.9893    9.3881 C   0  0  0  0  0  0  0  0  0  0  0  0
   14.7981   -6.2510    7.7283 H   0  0  0  0  0  0  0  0  0  0  0  0
   12.9986   -6.9047    6.1727 H   0  0  0  0  0  0  0  0  0  0  0  0
   11.9229  -11.1315    6.5614 H   0  0  0  0  0  0  0  0  0  0  0  0
   11.6499  -13.1509    6.0955 H   0  0  0  0  0  0  0  0  0  0  0  0
   12.2718  -12.7097    4.5258 H   0  0  0  0  0  0  0  0  0  0  0  0
   11.3885  -14.6380    3.4674 H   0  0  0  0  0  0  0  0  0  0  0  0
   11.2926  -16.3015    6.8004 H   0  0  0  0  0  0  0  0  0  0  0  0
   13.2000  -17.6384    7.6557 H   0  0  0  0  0  0  0  0  0  0  0  0
   15.6673  -16.1994    4.4272 H   0  0  0  0  0  0  0  0  0  0  0  0
   13.7606  -14.8806    3.5615 H   0  0  0  0  0  0  0  0  0  0  0  0
    9.7935  -16.1883    4.5080 H   0  0  0  0  0  0  0  0  0  0  0  0
    9.5768  -14.1080    6.5741 H   0  0  0  0  0  0  0  0  0  0  0  0
    7.7055  -14.9552    7.3913 H   0  0  0  0  0  0  0  0  0  0  0  0
    6.6655  -13.9631    5.7307 H   0  0  0  0  0  0  0  0  0  0  0  0
    7.4312  -15.9369    3.7098 H   0  0  0  0  0  0  0  0  0  0  0  0
    7.0352  -14.1964    2.1109 H   0  0  0  0  0  0  0  0  0  0  0  0
    4.7315  -15.3575    4.8426 H   0  0  0  0  0  0  0  0  0  0  0  0
    2.4331  -16.1324    4.3547 H   0  0  0  0  0  0  0  0  0  0  0  0
    2.8616  -14.8562    0.2598 H   0  0  0  0  0  0  0  0  0  0  0  0
    5.1617  -14.0846    0.7453 H   0  0  0  0  0  0  0  0  0  0  0  0
    5.5733  -12.3360    3.9709 H   0  0  0  0  0  0  0  0  0  0  0  0
    6.4029  -12.0392    2.4547 H   0  0  0  0  0  0  0  0  0  0  0  0
    7.5147  -12.2803    5.2759 H   0  0  0  0  0  0  0  0  0  0  0  0
    9.3266  -12.4889    2.8623 H   0  0  0  0  0  0  0  0  0  0  0  0
    9.1671  -14.6800    2.8085 H   0  0  0  0  0  0  0  0  0  0  0  0
    6.3074  -10.0139    2.8670 H   0  0  0  0  0  0  0  0  0  0  0  0
    7.5533   -5.8500    2.2357 H   0  0  0  0  0  0  0  0  0  0  0  0
    5.7336   -4.4472    1.3315 H   0  0  0  0  0  0  0  0  0  0  0  0
    2.8154   -7.2142    2.8886 H   0  0  0  0  0  0  0  0  0  0  0  0
    4.6327   -8.6203    3.7946 H   0  0  0  0  0  0  0  0  0  0  0  0
   10.1486   -8.9495    3.6899 H   0  0  0  0  0  0  0  0  0  0  0  0
    8.4878   -9.8939    6.0672 H   0  0  0  0  0  0  0  0  0  0  0  0
   12.0050  -10.2318    8.7393 H   0  0  0  0  0  0  0  0  0  0  0  0
   13.8049   -9.5674   10.2977 H   0  0  0  0  0  0  0  0  0  0  0  0
  2  1  1  6
  2  3  1  0
  2  4  1  0
  2  5  1  0
  5  6  2  0
  5 86  1  0
  6  7  1  0
  6 87  1  0
  7  8  2  0
  7 88  1  0
  8  9  1  0
  8 85  1  0
  9 10  2  0
  9 82  1  0
 10 11  1  0
 10 89  1  0
 11 12  2  0
 11 84  1  0
 12 13  1  0
 12 53  1  0
 13 14  1  0
 13 90  1  0
 13 91  1  0
 14 15  1  0
 14 25  1  0
 14 92  1  6
 15 16  2  0
 15 24  1  0
 16 17  1  0
 16 93  1  0
 17 18  2  0
 17 94  1  0
 18 19  1  0
 18 23  1  0
 19 20  1  6
 19 21  1  0
 19 22  1  0
 23 24  2  0
 23 95  1  0
 24 96  1  0
 25 26  1  0
 25 54  1  0
 25 97  1  6
 26 27  1  0
 26 98  1  0
 27 28  1  0
 27 38  1  0
 27 99  1  1
 28 29  1  6
 28 30  1  0
 28 31  1  0
 31 32  1  1
 31 33  1  0
 31 34  1  0
 34 35  1  6
 34 36  1  0
 34 37  1  0
 38 39  1  0
 38100  1  0
 39 40  1  0
 39 54  1  0
 39101  1  6
 40 41  1  0
 40 51  1  0
 40102  1  6
 41 42  2  0
 41 50  1  0
 42 43  1  0
 42103  1  0
 43 44  2  0
 43104  1  0
 44 45  1  0
 44 49  1  0
 45 46  1  1
 45 47  1  0
 45 48  1  0
 49 50  2  0
 49105  1  0
 50106  1  0
 51 52  1  0
 51107  1  0
 51108  1  0
 52 53  1  0
 52 55  1  0
 52109  1  1
 53 54  1  0
 53110  1  6
 54111  1  6
 55 56  2  0
 55 84  1  0
 56 57  1  0
 56112  1  0
 57 58  1  0
 57 68  2  0
 58 59  2  0
 58 67  1  0
 59 60  1  0
 59113  1  0
 60 61  2  0
 60114  1  0
 61 62  1  0
 61 66  1  0
 62 63  1  6
 62 64  1  0
 62 65  1  0
 66 67  2  0
 66115  1  0
 67116  1  0
 68 69  1  0
 68 83  1  0
 69 70  2  0
 70 71  1  0
 70 81  1  0
 71 72  1  1
 71 73  1  0
 71 74  1  0
 74 75  1  6
 74 76  1  0
 74 77  1  0
 77 78  1  6
 77 79  1  0
 77 80  1  0
 81 82  2  0
 82 83  1  0
 83 84  1  0
 83117  1  6
 84118  1  1
 85 86  2  0
 85119  1  0
 86120  1  0
M  END

