
     RDKit          3D

 37 38  0  0  0  0  0  0  0  0999 V2000
    5.4933    0.4467   -1.4793 C   0  0  0  0  0  0  0  0  0  0  0  0
    4.6693    0.6476   -0.2214 C   0  0  0  0  0  0  0  0  0  0  0  0
    5.1388   -0.2264    0.7858 O   0  0  0  0  0  0  0  0  0  0  0  0
    4.4243   -0.1290    2.0114 C   0  0  0  0  0  0  0  0  0  0  0  0
    4.9777   -1.0834    3.0362 C   0  0  0  0  0  0  0  0  0  0  0  0
    5.4085   -0.6161    4.2795 C   0  0  0  0  0  0  0  0  0  0  0  0
    5.8447   -1.4875    5.2835 C   0  0  0  0  0  0  0  0  0  0  0  0
    5.8548   -2.8578    5.0230 C   0  0  0  0  0  0  0  0  0  0  0  0
    5.4453   -3.3533    3.7823 C   0  0  0  0  0  0  0  0  0  0  0  0
    5.0038   -2.4817    2.7663 C   0  0  0  0  0  0  0  0  0  0  0  0
    4.5839   -2.9166    1.5143 N   0  0  0  0  0  0  0  0  0  0  0  0
    4.6125   -4.3155    1.1015 C   0  0  1  0  0  0  0  0  0  0  0  0
    3.4315   -5.1112    1.6927 C   0  0  0  0  0  0  0  0  0  0  0  0
    4.6203   -4.3985   -0.4042 C   0  0  0  0  0  0  0  0  0  0  0  0
    3.4649   -3.4955   -1.3600 S   0  0  0  0  0  0  0  0  0  0  0  0
    4.0717   -4.1503   -2.8432 C   0  0  0  0  0  0  0  0  0  0  0  0
    5.0995   -5.0271   -2.6301 C   0  0  0  0  0  0  0  0  0  0  0  0
    5.4027   -5.1622   -1.2382 C   0  0  0  0  0  0  0  0  0  0  0  0
    6.7816   -6.3224   -0.6362 Br  0  0  0  0  0  0  0  0  0  0  0  0
    5.1696    1.1457   -2.2664 H   0  0  0  0  0  0  0  0  0  0  0  0
    5.3804   -0.5801   -1.8603 H   0  0  0  0  0  0  0  0  0  0  0  0
    6.5603    0.6229   -1.2736 H   0  0  0  0  0  0  0  0  0  0  0  0
    3.5941    0.4576   -0.4234 H   0  0  0  0  0  0  0  0  0  0  0  0
    4.7456    1.6976    0.1301 H   0  0  0  0  0  0  0  0  0  0  0  0
    3.3528   -0.3588    1.8234 H   0  0  0  0  0  0  0  0  0  0  0  0
    4.4739    0.9077    2.3965 H   0  0  0  0  0  0  0  0  0  0  0  0
    5.3910    0.4616    4.4684 H   0  0  0  0  0  0  0  0  0  0  0  0
    6.1707   -1.0993    6.2509 H   0  0  0  0  0  0  0  0  0  0  0  0
    6.1943   -3.5597    5.7898 H   0  0  0  0  0  0  0  0  0  0  0  0
    5.4818   -4.4284    3.6057 H   0  0  0  0  0  0  0  0  0  0  0  0
    4.7886   -2.2382    0.7834 H   0  0  0  0  0  0  0  0  0  0  0  0
    5.5526   -4.7977    1.4307 H   0  0  0  0  0  0  0  0  0  0  0  0
    2.4776   -4.7112    1.3167 H   0  0  0  0  0  0  0  0  0  0  0  0
    3.4205   -5.0410    2.7902 H   0  0  0  0  0  0  0  0  0  0  0  0
    3.5041   -6.1731    1.4122 H   0  0  0  0  0  0  0  0  0  0  0  0
    3.6361   -3.8457   -3.7939 H   0  0  0  0  0  0  0  0  0  0  0  0
    5.6333   -5.5583   -3.4178 H   0  0  0  0  0  0  0  0  0  0  0  0
  1  2  1  0
  1 20  1  0
  1 21  1  0
  1 22  1  0
  2  3  1  0
  2 23  1  0
  2 24  1  0
  3  4  1  0
  4  5  1  0
  4 25  1  0
  4 26  1  0
  5  6  2  0
  5 10  1  0
  6  7  1  0
  6 27  1  0
  7  8  2  0
  7 28  1  0
  8  9  1  0
  8 29  1  0
  9 10  2  0
  9 30  1  0
 10 11  1  0
 11 12  1  0
 11 31  1  0
 12 13  1  0
 12 14  1  0
 12 32  1  1
 13 33  1  0
 13 34  1  0
 13 35  1  0
 14 15  1  0
 14 18  2  0
 15 16  1  0
 16 17  2  0
 16 36  1  0
 17 18  1  0
 17 37  1  0
 18 19  1  0
M  END

