
     RDKit          3D

 49 51  0  0  0  0  0  0  0  0999 V2000
    5.8165   -3.2080   -2.6327 C   0  0  0  0  0  0  0  0  0  0  0  0
    4.5965   -3.2941   -1.9218 O   0  0  0  0  0  0  0  0  0  0  0  0
    4.2869   -4.4345   -1.2575 C   0  0  0  0  0  0  0  0  0  0  0  0
    5.0377   -5.6173   -1.3243 C   0  0  0  0  0  0  0  0  0  0  0  0
    4.6265   -6.7583   -0.6270 C   0  0  0  0  0  0  0  0  0  0  0  0
    3.4611   -6.7207    0.1301 C   0  0  0  0  0  0  0  0  0  0  0  0
    3.0677   -7.8184    0.7918 F   0  0  0  0  0  0  0  0  0  0  0  0
    2.6953   -5.5604    0.2159 C   0  0  0  0  0  0  0  0  0  0  0  0
    3.1117   -4.4236   -0.4744 C   0  0  0  0  0  0  0  0  0  0  0  0
    2.1514   -2.9055   -0.2670 S   0  0  1  0  0  0  0  0  0  0  0  0
    0.9053   -3.2952    0.3970 O   0  0  0  0  0  0  0  0  0  0  0  0
    3.0390   -1.8925    0.2928 O   0  0  0  0  0  0  0  0  0  0  0  0
    1.7472   -2.3829   -1.7980 N   0  0  0  0  0  0  0  0  0  0  0  0
    0.7856   -3.1228   -2.6103 C   0  0  0  0  0  0  0  0  0  0  0  0
    0.0148   -2.1561   -3.5224 C   0  0  0  0  0  0  0  0  0  0  0  0
   -0.9503   -2.8210   -4.3715 N   0  0  0  0  0  0  0  0  0  0  0  0
   -0.6338   -3.4193   -5.5605 C   0  0  0  0  0  0  0  0  0  0  0  0
   -1.6121   -4.0707   -6.3342 C   0  0  0  0  0  0  0  0  0  0  0  0
   -1.1868   -4.6476   -7.5472 C   0  0  0  0  0  0  0  0  0  0  0  0
   -2.0342   -5.3129   -8.3787 N   0  0  0  0  0  0  0  0  0  0  0  0
   -3.4481   -5.5344   -8.0998 C   0  0  0  0  0  0  0  0  0  0  0  0
   -3.8918   -6.4934   -9.2150 C   0  0  0  0  0  0  0  0  0  0  0  0
   -2.9485   -6.1452  -10.3756 C   0  0  0  0  0  0  0  0  0  0  0  0
   -1.6161   -5.8604   -9.6723 C   0  0  0  0  0  0  0  0  0  0  0  0
    0.1067   -4.5588   -7.9461 N   0  0  0  0  0  0  0  0  0  0  0  0
    0.9294   -3.9132   -7.1337 C   0  0  0  0  0  0  0  0  0  0  0  0
    0.6521   -3.3439   -5.9626 N   0  0  0  0  0  0  0  0  0  0  0  0
    5.8739   -2.1851   -3.0264 H   0  0  0  0  0  0  0  0  0  0  0  0
    5.8486   -3.9205   -3.4756 H   0  0  0  0  0  0  0  0  0  0  0  0
    6.6812   -3.3874   -1.9711 H   0  0  0  0  0  0  0  0  0  0  0  0
    5.9482   -5.6631   -1.9213 H   0  0  0  0  0  0  0  0  0  0  0  0
    5.2061   -7.6823   -0.6729 H   0  0  0  0  0  0  0  0  0  0  0  0
    1.7832   -5.5306    0.8136 H   0  0  0  0  0  0  0  0  0  0  0  0
    2.5838   -2.0533   -2.2784 H   0  0  0  0  0  0  0  0  0  0  0  0
    0.0869   -3.6228   -1.9239 H   0  0  0  0  0  0  0  0  0  0  0  0
    1.2724   -3.8941   -3.2334 H   0  0  0  0  0  0  0  0  0  0  0  0
    0.7285   -1.6191   -4.1644 H   0  0  0  0  0  0  0  0  0  0  0  0
   -0.5056   -1.4120   -2.8996 H   0  0  0  0  0  0  0  0  0  0  0  0
   -1.8930   -2.9396   -4.0257 H   0  0  0  0  0  0  0  0  0  0  0  0
   -2.6501   -4.1114   -6.0037 H   0  0  0  0  0  0  0  0  0  0  0  0
   -4.0148   -4.5824   -8.1326 H   0  0  0  0  0  0  0  0  0  0  0  0
   -3.5978   -5.9647   -7.0942 H   0  0  0  0  0  0  0  0  0  0  0  0
   -4.9575   -6.3842   -9.4648 H   0  0  0  0  0  0  0  0  0  0  0  0
   -3.7304   -7.5369   -8.8969 H   0  0  0  0  0  0  0  0  0  0  0  0
   -3.3033   -5.2377  -10.8928 H   0  0  0  0  0  0  0  0  0  0  0  0
   -2.8685   -6.9456  -11.1262 H   0  0  0  0  0  0  0  0  0  0  0  0
   -0.9743   -5.1459  -10.2067 H   0  0  0  0  0  0  0  0  0  0  0  0
   -1.0198   -6.7820   -9.5352 H   0  0  0  0  0  0  0  0  0  0  0  0
    1.9749   -3.8424   -7.4647 H   0  0  0  0  0  0  0  0  0  0  0  0
  1  2  1  0
  1 28  1  0
  1 29  1  0
  1 30  1  0
  2  3  1  0
  3  4  2  0
  3  9  1  0
  4  5  1  0
  4 31  1  0
  5  6  2  0
  5 32  1  0
  6  7  1  0
  6  8  1  0
  8  9  2  0
  8 33  1  0
  9 10  1  0
 10 11  2  0
 10 12  2  0
 10 13  1  6
 13 14  1  0
 13 34  1  0
 14 15  1  0
 14 35  1  0
 14 36  1  0
 15 16  1  0
 15 37  1  0
 15 38  1  0
 16 17  1  0
 16 39  1  0
 17 18  2  0
 17 27  1  0
 18 19  1  0
 18 40  1  0
 19 20  1  0
 19 25  2  0
 20 21  1  0
 20 24  1  0
 21 22  1  0
 21 41  1  0
 21 42  1  0
 22 23  1  0
 22 43  1  0
 22 44  1  0
 23 24  1  0
 23 45  1  0
 23 46  1  0
 24 47  1  0
 24 48  1  0
 25 26  1  0
 26 27  2  0
 26 49  1  0
M  END

