
     RDKit          3D

 36 38  0  0  0  0  0  0  0  0999 V2000
    5.3350    0.6542   -0.3641 O   0  0  0  0  0  0  0  0  0  0  0  0
    4.5870   -0.4196    0.1559 C   0  0  0  0  0  0  0  0  0  0  0  0
    3.7650   -1.0505   -0.9416 C   0  0  0  0  0  0  0  0  0  0  0  0
    3.7923   -0.5810   -2.2478 C   0  0  0  0  0  0  0  0  0  0  0  0
    3.0121   -1.1917   -3.2539 C   0  0  0  0  0  0  0  0  0  0  0  0
    2.9764   -0.7854   -4.6001 N   0  0  0  0  0  0  0  0  0  0  0  0
    3.7048    0.1985   -4.8879 N   0  0  0  0  0  0  0  0  0  0  0  0
    3.6986    0.6343   -6.2206 C   0  0  0  0  0  0  0  0  0  0  0  0
    4.5282    1.7403   -6.4941 C   0  0  0  0  0  0  0  0  0  0  0  0
    4.6391    2.2924   -7.7628 C   0  0  0  0  0  0  0  0  0  0  0  0
    3.9073    1.7593   -8.8446 C   0  0  0  0  0  0  0  0  0  0  0  0
    4.0047    2.3143  -10.1983 C   0  0  0  0  0  0  0  0  0  0  0  0
    3.6054    1.7493  -11.3963 C   0  0  0  0  0  0  0  0  0  0  0  0
    3.8544    2.5757  -12.5277 C   0  0  0  0  0  0  0  0  0  0  0  0
    4.4408    3.7706  -12.1904 C   0  0  0  0  0  0  0  0  0  0  0  0
    4.6926    3.8988  -10.4869 S   0  0  0  0  0  0  0  0  0  0  0  0
    3.0689    0.6562   -8.5863 C   0  0  0  0  0  0  0  0  0  0  0  0
    2.9695    0.1069   -7.3154 C   0  0  0  0  0  0  0  0  0  0  0  0
    2.1493   -0.9328   -7.1639 F   0  0  0  0  0  0  0  0  0  0  0  0
    2.1995   -2.2879   -2.9264 C   0  0  0  0  0  0  0  0  0  0  0  0
    2.1626   -2.7691   -1.6193 C   0  0  0  0  0  0  0  0  0  0  0  0
    2.9397   -2.1561   -0.6294 C   0  0  0  0  0  0  0  0  0  0  0  0
    2.9477   -2.5777    0.6625 O   0  0  0  0  0  0  0  0  0  0  0  0
    5.8484    1.0419    0.3538 H   0  0  0  0  0  0  0  0  0  0  0  0
    3.9031   -0.0952    0.9678 H   0  0  0  0  0  0  0  0  0  0  0  0
    5.2365   -1.2002    0.6042 H   0  0  0  0  0  0  0  0  0  0  0  0
    4.4231    0.2692   -2.5014 H   0  0  0  0  0  0  0  0  0  0  0  0
    5.0933    2.1448   -5.6522 H   0  0  0  0  0  0  0  0  0  0  0  0
    5.3116    3.1379   -7.9222 H   0  0  0  0  0  0  0  0  0  0  0  0
    3.1622    0.7554  -11.4659 H   0  0  0  0  0  0  0  0  0  0  0  0
    3.6117    2.2931  -13.5532 H   0  0  0  0  0  0  0  0  0  0  0  0
    4.7373    4.5867  -12.8479 H   0  0  0  0  0  0  0  0  0  0  0  0
    2.4584    0.2093   -9.3720 H   0  0  0  0  0  0  0  0  0  0  0  0
    1.6046   -2.7457   -3.7190 H   0  0  0  0  0  0  0  0  0  0  0  0
    1.5301   -3.6238   -1.3590 H   0  0  0  0  0  0  0  0  0  0  0  0
    2.3522   -3.3321    0.7642 H   0  0  0  0  0  0  0  0  0  0  0  0
  1  2  1  0
  1 24  1  0
  2  3  1  0
  2 25  1  0
  2 26  1  0
  3  4  2  0
  3 22  1  0
  4  5  1  0
  4 27  1  0
  5  6  1  0
  5 20  2  0
  6  7  2  0
  7  8  1  0
  8  9  2  0
  8 18  1  0
  9 10  1  0
  9 28  1  0
 10 11  2  0
 10 29  1  0
 11 12  1  0
 11 17  1  0
 12 13  2  0
 12 16  1  0
 13 14  1  0
 13 30  1  0
 14 15  2  0
 14 31  1  0
 15 16  1  0
 15 32  1  0
 17 18  2  0
 17 33  1  0
 18 19  1  0
 20 21  1  0
 20 34  1  0
 21 22  2  0
 21 35  1  0
 22 23  1  0
 23 36  1  0
M  END

