
     RDKit          3D

 41 42  0  0  0  0  0  0  0  0999 V2000
    0.6767   -0.7935   -0.7534 C   0  0  0  0  0  0  0  0  0  0  0  0
    2.0554   -0.4578   -0.4552 N   0  0  0  0  0  0  0  0  0  0  0  0
    2.6518    0.7136   -1.0983 C   0  0  1  0  0  0  0  0  0  0  0  0
    2.4597    0.7519   -2.6339 C   0  0  0  0  0  0  0  0  0  0  0  0
    3.3455    1.7602   -3.3830 C   0  0  0  0  0  0  0  0  0  0  0  0
    2.7677    3.1801   -3.5120 C   0  0  0  0  0  0  0  0  0  0  0  0
    2.0297    3.7070   -2.2691 C   0  0  0  0  0  0  0  0  0  0  0  0
    2.6639    3.3360   -0.9201 C   0  0  0  0  0  0  0  0  0  0  0  0
    2.2103    1.9862   -0.3401 C   0  0  2  0  0  0  0  0  0  0  0  0
    2.7474    1.8520    0.9737 O   0  0  0  0  0  0  0  0  0  0  0  0
    2.0580    2.2430    2.0774 C   0  0  0  0  0  0  0  0  0  0  0  0
    2.6266    1.8828    3.3156 C   0  0  0  0  0  0  0  0  0  0  0  0
    2.0168    2.2367    4.5099 C   0  0  0  0  0  0  0  0  0  0  0  0
    0.8120    2.9643    4.5121 C   0  0  0  0  0  0  0  0  0  0  0  0
    0.2892    3.2621    5.7363 O   0  0  0  0  0  0  0  0  0  0  0  0
   -0.9130    3.9870    5.8035 C   0  0  0  0  0  0  0  0  0  0  0  0
    0.2427    3.3280    3.2883 C   0  0  0  0  0  0  0  0  0  0  0  0
    0.8641    2.9733    2.0789 C   0  0  0  0  0  0  0  0  0  0  0  0
    0.3731   -1.6541   -0.1360 H   0  0  0  0  0  0  0  0  0  0  0  0
    0.4577   -1.0516   -1.8126 H   0  0  0  0  0  0  0  0  0  0  0  0
    0.0069    0.0382   -0.4781 H   0  0  0  0  0  0  0  0  0  0  0  0
    2.6567   -1.2681   -0.5744 H   0  0  0  0  0  0  0  0  0  0  0  0
    3.7373    0.6346   -0.9121 H   0  0  0  0  0  0  0  0  0  0  0  0
    1.3984    0.9128   -2.8930 H   0  0  0  0  0  0  0  0  0  0  0  0
    2.6988   -0.2648   -2.9901 H   0  0  0  0  0  0  0  0  0  0  0  0
    3.5530    1.3802   -4.3971 H   0  0  0  0  0  0  0  0  0  0  0  0
    4.3290    1.8010   -2.8823 H   0  0  0  0  0  0  0  0  0  0  0  0
    2.0738    3.2175   -4.3700 H   0  0  0  0  0  0  0  0  0  0  0  0
    3.5923    3.8684   -3.7668 H   0  0  0  0  0  0  0  0  0  0  0  0
    0.9847    3.3486   -2.2761 H   0  0  0  0  0  0  0  0  0  0  0  0
    1.9568    4.8041   -2.3482 H   0  0  0  0  0  0  0  0  0  0  0  0
    2.3964    4.0991   -0.1722 H   0  0  0  0  0  0  0  0  0  0  0  0
    3.7657    3.3518   -0.9791 H   0  0  0  0  0  0  0  0  0  0  0  0
    1.1069    1.9838   -0.2920 H   0  0  0  0  0  0  0  0  0  0  0  0
    3.5570    1.3113    3.3068 H   0  0  0  0  0  0  0  0  0  0  0  0
    2.4543    1.9551    5.4701 H   0  0  0  0  0  0  0  0  0  0  0  0
   -1.1488    4.1116    6.8695 H   0  0  0  0  0  0  0  0  0  0  0  0
   -1.7488    3.4517    5.3149 H   0  0  0  0  0  0  0  0  0  0  0  0
   -0.8212    4.9877    5.3409 H   0  0  0  0  0  0  0  0  0  0  0  0
   -0.6869    3.8967    3.2478 H   0  0  0  0  0  0  0  0  0  0  0  0
    0.3957    3.2880    1.1459 H   0  0  0  0  0  0  0  0  0  0  0  0
  1  2  1  0
  1 19  1  0
  1 20  1  0
  1 21  1  0
  2  3  1  0
  2 22  1  0
  3  4  1  0
  3  9  1  0
  3 23  1  6
  4  5  1  0
  4 24  1  0
  4 25  1  0
  5  6  1  0
  5 26  1  0
  5 27  1  0
  6  7  1  0
  6 28  1  0
  6 29  1  0
  7  8  1  0
  7 30  1  0
  7 31  1  0
  8  9  1  0
  8 32  1  0
  8 33  1  0
  9 10  1  0
  9 34  1  1
 10 11  1  0
 11 12  2  0
 11 18  1  0
 12 13  1  0
 12 35  1  0
 13 14  2  0
 13 36  1  0
 14 15  1  0
 14 17  1  0
 15 16  1  0
 16 37  1  0
 16 38  1  0
 16 39  1  0
 17 18  2  0
 17 40  1  0
 18 41  1  0
M  END

