
     RDKit          3D

 52 54  0  0  0  0  0  0  0  0999 V2000
    1.0855   -0.3849    1.1291 C   0  0  0  0  0  0  0  0  0  0  0  0
    2.5288   -0.4675    0.7320 C   0  0  0  0  0  0  0  0  0  0  0  0
    3.2696    0.5707    0.3054 C   0  0  0  0  0  0  0  0  0  0  0  0
    4.6831    0.5719   -0.1002 C   0  0  0  0  0  0  0  0  0  0  0  0
    5.2765    1.7693   -0.5138 C   0  0  0  0  0  0  0  0  0  0  0  0
    6.6206    1.8200   -0.9098 C   0  0  0  0  0  0  0  0  0  0  0  0
    7.4075    0.6680   -0.9030 C   0  0  0  0  0  0  0  0  0  0  0  0
    8.7099    0.6074   -1.2651 O   0  0  0  0  0  0  0  0  0  0  0  0
    9.3586    1.7768   -1.7160 C   0  0  0  0  0  0  0  0  0  0  0  0
   10.7803    1.3933   -2.1361 C   0  0  1  0  0  0  0  0  0  0  0  0
   10.7999    0.5767   -3.2822 O   0  0  0  0  0  0  0  0  0  0  0  0
   11.6820    2.6277   -2.2916 C   0  0  0  0  0  0  0  0  0  0  0  0
   11.1658    3.6153   -3.2473 N   0  0  0  0  0  0  0  0  0  0  0  0
   11.0408    3.1651   -4.5179 N   0  0  0  0  0  0  0  0  0  0  0  0
   10.6168    3.9464   -5.4669 C   0  0  0  0  0  0  0  0  0  0  0  0
   10.5112    3.3519   -6.8448 C   0  0  0  0  0  0  0  0  0  0  0  0
   10.2610    5.3336   -5.2062 C   0  0  0  0  0  0  0  0  0  0  0  0
    9.8116    6.2230   -6.2068 C   0  0  0  0  0  0  0  0  0  0  0  0
    9.4857    7.5343   -5.8818 C   0  0  0  0  0  0  0  0  0  0  0  0
    9.5982    7.9915   -4.5562 C   0  0  0  0  0  0  0  0  0  0  0  0
   10.0376    7.1296   -3.5589 C   0  0  0  0  0  0  0  0  0  0  0  0
   10.3706    5.8023   -3.8772 C   0  0  0  0  0  0  0  0  0  0  0  0
   10.8372    4.9013   -2.8057 C   0  0  0  0  0  0  0  0  0  0  0  0
   10.9371    5.2236   -1.6308 O   0  0  0  0  0  0  0  0  0  0  0  0
    6.8221   -0.5622   -0.4808 C   0  0  0  0  0  0  0  0  0  0  0  0
    7.6514   -1.6342   -0.4950 O   0  0  0  0  0  0  0  0  0  0  0  0
    7.1527   -2.8909   -0.1079 C   0  0  0  0  0  0  0  0  0  0  0  0
    5.4866   -0.5941   -0.0920 C   0  0  0  0  0  0  0  0  0  0  0  0
    0.9358   -0.7073    2.1755 H   0  0  0  0  0  0  0  0  0  0  0  0
    0.4577   -1.0511    0.5098 H   0  0  0  0  0  0  0  0  0  0  0  0
    0.6929    0.6392    1.0305 H   0  0  0  0  0  0  0  0  0  0  0  0
    2.9868   -1.4616    0.8062 H   0  0  0  0  0  0  0  0  0  0  0  0
    2.7812    1.5516    0.2437 H   0  0  0  0  0  0  0  0  0  0  0  0
    4.6834    2.6875   -0.5286 H   0  0  0  0  0  0  0  0  0  0  0  0
    7.0474    2.7732   -1.2217 H   0  0  0  0  0  0  0  0  0  0  0  0
    9.3866    2.5401   -0.9145 H   0  0  0  0  0  0  0  0  0  0  0  0
    8.8185    2.2108   -2.5785 H   0  0  0  0  0  0  0  0  0  0  0  0
   11.2018    0.7922   -1.3110 H   0  0  0  0  0  0  0  0  0  0  0  0
   10.7911    1.1724   -4.0506 H   0  0  0  0  0  0  0  0  0  0  0  0
   12.6704    2.2920   -2.6424 H   0  0  0  0  0  0  0  0  0  0  0  0
   11.7997    3.1573   -1.3391 H   0  0  0  0  0  0  0  0  0  0  0  0
   10.8352    2.3035   -6.8230 H   0  0  0  0  0  0  0  0  0  0  0  0
   11.1433    3.8970   -7.5651 H   0  0  0  0  0  0  0  0  0  0  0  0
    9.4759    3.3928   -7.2218 H   0  0  0  0  0  0  0  0  0  0  0  0
    9.7182    5.8816   -7.2389 H   0  0  0  0  0  0  0  0  0  0  0  0
    9.1386    8.2149   -6.6632 H   0  0  0  0  0  0  0  0  0  0  0  0
    9.3391    9.0247   -4.3130 H   0  0  0  0  0  0  0  0  0  0  0  0
   10.1360    7.4500   -2.5202 H   0  0  0  0  0  0  0  0  0  0  0  0
    7.9852   -3.6010   -0.2035 H   0  0  0  0  0  0  0  0  0  0  0  0
    6.3224   -3.2244   -0.7575 H   0  0  0  0  0  0  0  0  0  0  0  0
    6.8007   -2.8918    0.9405 H   0  0  0  0  0  0  0  0  0  0  0  0
    5.0481   -1.5386    0.2269 H   0  0  0  0  0  0  0  0  0  0  0  0
  1  2  1  0
  1 29  1  0
  1 30  1  0
  1 31  1  0
  2  3  2  0
  2 32  1  0
  3  4  1  0
  3 33  1  0
  4  5  2  0
  4 28  1  0
  5  6  1  0
  5 34  1  0
  6  7  2  0
  6 35  1  0
  7  8  1  0
  7 25  1  0
  8  9  1  0
  9 10  1  0
  9 36  1  0
  9 37  1  0
 10 11  1  0
 10 12  1  0
 10 38  1  1
 11 39  1  0
 12 13  1  0
 12 40  1  0
 12 41  1  0
 13 14  1  0
 13 23  1  0
 14 15  2  0
 15 16  1  0
 15 17  1  0
 16 42  1  0
 16 43  1  0
 16 44  1  0
 17 18  2  0
 17 22  1  0
 18 19  1  0
 18 45  1  0
 19 20  2  0
 19 46  1  0
 20 21  1  0
 20 47  1  0
 21 22  2  0
 21 48  1  0
 22 23  1  0
 23 24  2  0
 25 26  1  0
 25 28  2  0
 26 27  1  0
 27 49  1  0
 27 50  1  0
 27 51  1  0
 28 52  1  0
M  END

