
     RDKit          3D

 59 61  0  0  0  0  0  0  0  0999 V2000
    4.5876   -5.0634   -3.0153 C   0  0  0  0  0  0  0  0  0  0  0  0
    3.5712   -4.0902   -3.1023 O   0  0  0  0  0  0  0  0  0  0  0  0
    2.3001   -4.4701   -3.4058 C   0  0  0  0  0  0  0  0  0  0  0  0
    1.9162   -5.7860   -3.6909 C   0  0  0  0  0  0  0  0  0  0  0  0
    0.5785   -6.0689   -3.9969 C   0  0  0  0  0  0  0  0  0  0  0  0
   -0.3696   -5.0491   -4.0203 C   0  0  0  0  0  0  0  0  0  0  0  0
    0.0242   -3.7345   -3.7334 C   0  0  0  0  0  0  0  0  0  0  0  0
    1.3485   -3.4230   -3.4236 C   0  0  0  0  0  0  0  0  0  0  0  0
    1.8273   -2.0188   -3.0905 C   0  0  0  0  0  0  0  0  0  0  0  0
    0.7837   -0.9997   -3.0596 N   0  0  0  0  0  0  0  0  0  0  0  0
    0.0966   -0.7928   -1.7844 C   0  0  0  0  0  0  0  0  0  0  0  0
    0.9825   -0.0695   -0.7548 C   0  0  0  0  0  0  0  0  0  0  0  0
    1.8214   -0.7288   -0.1466 O   0  0  0  0  0  0  0  0  0  0  0  0
    0.8160    1.2718   -0.5457 N   0  0  0  0  0  0  0  0  0  0  0  0
   -0.0718    2.1788   -1.2722 C   0  0  0  0  0  0  0  0  0  0  0  0
   -1.0481    2.8680   -0.3109 C   0  0  0  0  0  0  0  0  0  0  0  0
   -0.3322    3.5898    0.8507 C   0  0  2  0  0  0  0  0  0  0  0  0
    0.3075    4.9270    0.3932 C   0  0  0  0  0  0  0  0  0  0  0  0
    0.8656    5.7731    1.5178 C   0  0  0  0  0  0  0  0  0  0  0  0
    2.2479    5.8747    1.7416 C   0  0  0  0  0  0  0  0  0  0  0  0
    2.7558    6.6450    2.7929 C   0  0  0  0  0  0  0  0  0  0  0  0
    1.8858    7.3322    3.6430 C   0  0  0  0  0  0  0  0  0  0  0  0
    0.5059    7.2450    3.4311 C   0  0  0  0  0  0  0  0  0  0  0  0
    0.0044    6.4746    2.3795 C   0  0  0  0  0  0  0  0  0  0  0  0
    0.6689    2.6205    1.5137 C   0  0  0  0  0  0  0  0  0  0  0  0
    1.5947    1.9278    0.5058 C   0  0  0  0  0  0  0  0  0  0  0  0
    0.3888   -0.2622   -4.1520 C   0  0  0  0  0  0  0  0  0  0  0  0
    1.1034   -0.5295   -5.4671 C   0  0  0  0  0  0  0  0  0  0  0  0
   -0.4983    0.5800   -4.0779 O   0  0  0  0  0  0  0  0  0  0  0  0
    5.5078   -4.5312   -2.7394 H   0  0  0  0  0  0  0  0  0  0  0  0
    4.7470   -5.5784   -3.9799 H   0  0  0  0  0  0  0  0  0  0  0  0
    4.3654   -5.8193   -2.2411 H   0  0  0  0  0  0  0  0  0  0  0  0
    2.6472   -6.5946   -3.6773 H   0  0  0  0  0  0  0  0  0  0  0  0
    0.2869   -7.0990   -4.2174 H   0  0  0  0  0  0  0  0  0  0  0  0
   -1.4130   -5.2674   -4.2585 H   0  0  0  0  0  0  0  0  0  0  0  0
   -0.7175   -2.9325   -3.7494 H   0  0  0  0  0  0  0  0  0  0  0  0
    2.6213   -1.7258   -3.7927 H   0  0  0  0  0  0  0  0  0  0  0  0
    2.3122   -2.0273   -2.1024 H   0  0  0  0  0  0  0  0  0  0  0  0
   -0.1151   -1.7743   -1.3345 H   0  0  0  0  0  0  0  0  0  0  0  0
   -0.8510   -0.2865   -1.9910 H   0  0  0  0  0  0  0  0  0  0  0  0
   -0.5940    1.6516   -2.0782 H   0  0  0  0  0  0  0  0  0  0  0  0
    0.5550    2.9369   -1.7789 H   0  0  0  0  0  0  0  0  0  0  0  0
   -1.7256    2.1017    0.1045 H   0  0  0  0  0  0  0  0  0  0  0  0
   -1.6767    3.5762   -0.8768 H   0  0  0  0  0  0  0  0  0  0  0  0
   -1.0944    3.8510    1.6053 H   0  0  0  0  0  0  0  0  0  0  0  0
   -0.4689    5.5044   -0.1378 H   0  0  0  0  0  0  0  0  0  0  0  0
    1.1034    4.7386   -0.3451 H   0  0  0  0  0  0  0  0  0  0  0  0
    2.9389    5.3464    1.0780 H   0  0  0  0  0  0  0  0  0  0  0  0
    3.8365    6.7097    2.9453 H   0  0  0  0  0  0  0  0  0  0  0  0
    2.2800    7.9365    4.4640 H   0  0  0  0  0  0  0  0  0  0  0  0
   -0.1836    7.7849    4.0858 H   0  0  0  0  0  0  0  0  0  0  0  0
   -1.0768    6.4220    2.2188 H   0  0  0  0  0  0  0  0  0  0  0  0
    0.1038    1.8403    2.0520 H   0  0  0  0  0  0  0  0  0  0  0  0
    1.2760    3.1470    2.2676 H   0  0  0  0  0  0  0  0  0  0  0  0
    2.2102    1.1607    0.9902 H   0  0  0  0  0  0  0  0  0  0  0  0
    2.2819    2.6585    0.0388 H   0  0  0  0  0  0  0  0  0  0  0  0
    1.1027   -1.5970   -5.7327 H   0  0  0  0  0  0  0  0  0  0  0  0
    2.1529   -0.1966   -5.4196 H   0  0  0  0  0  0  0  0  0  0  0  0
    0.5869    0.0447   -6.2454 H   0  0  0  0  0  0  0  0  0  0  0  0
  1  2  1  0
  1 30  1  0
  1 31  1  0
  1 32  1  0
  2  3  1  0
  3  4  2  0
  3  8  1  0
  4  5  1  0
  4 33  1  0
  5  6  2  0
  5 34  1  0
  6  7  1  0
  6 35  1  0
  7  8  2  0
  7 36  1  0
  8  9  1  0
  9 10  1  0
  9 37  1  0
  9 38  1  0
 10 11  1  0
 10 27  1  0
 11 12  1  0
 11 39  1  0
 11 40  1  0
 12 13  2  0
 12 14  1  0
 14 15  1  0
 14 26  1  0
 15 16  1  0
 15 41  1  0
 15 42  1  0
 16 17  1  0
 16 43  1  0
 16 44  1  0
 17 18  1  0
 17 25  1  0
 17 45  1  1
 18 19  1  0
 18 46  1  0
 18 47  1  0
 19 20  2  0
 19 24  1  0
 20 21  1  0
 20 48  1  0
 21 22  2  0
 21 49  1  0
 22 23  1  0
 22 50  1  0
 23 24  2  0
 23 51  1  0
 24 52  1  0
 25 26  1  0
 25 53  1  0
 25 54  1  0
 26 55  1  0
 26 56  1  0
 27 28  1  0
 27 29  2  0
 28 57  1  0
 28 58  1  0
 28 59  1  0
M  END

