
     RDKit          3D

 61 62  0  0  0  0  0  0  0  0999 V2000
    3.4123   -6.3196    3.3129 C   0  0  0  0  0  0  0  0  0  0  0  0
    3.6858   -5.3079    2.1990 C   0  0  0  0  0  0  0  0  0  0  0  0
    4.2268   -3.9699    2.7118 C   0  0  0  0  0  0  0  0  0  0  0  0
    4.4813   -2.9605    1.5821 C   0  0  0  0  0  0  0  0  0  0  0  0
    5.0289   -1.6744    2.0047 N   0  0  0  0  0  0  0  0  0  0  0  0
    4.1197   -0.5331    1.9114 C   0  0  0  0  0  0  0  0  0  0  0  0
    3.0239   -0.4835    2.9902 C   0  0  0  0  0  0  0  0  0  0  0  0
    3.5086   -0.2406    4.4271 C   0  0  0  0  0  0  0  0  0  0  0  0
    3.9024    1.2083    4.7264 C   0  0  0  0  0  0  0  0  0  0  0  0
    6.3793   -1.5456    2.2882 C   0  0  0  0  0  0  0  0  0  0  0  0
    6.9525   -0.3268    2.7423 C   0  0  0  0  0  0  0  0  0  0  0  0
    8.3090   -0.2134    3.0131 C   0  0  0  0  0  0  0  0  0  0  0  0
    9.1904   -1.2960    2.8499 C   0  0  0  0  0  0  0  0  0  0  0  0
   10.6487   -1.1650    3.0679 C   0  0  0  0  0  0  0  0  0  0  0  0
   11.3137   -0.6114    4.1330 C   0  0  0  0  0  0  0  0  0  0  0  0
   10.7531   -0.2063    5.4321 C   0  0  0  0  0  0  0  0  0  0  0  0
   11.4073    0.3946    6.2670 O   0  0  0  0  0  0  0  0  0  0  0  0
    9.4755   -0.5820    5.6488 O   0  0  0  0  0  0  0  0  0  0  0  0
    8.8823   -0.2249    6.9062 C   0  0  0  0  0  0  0  0  0  0  0  0
    9.1835   -1.2524    7.9855 C   0  0  0  0  0  0  0  0  0  0  0  0
   12.8146   -0.3898    4.0073 C   0  0  2  0  0  0  0  0  0  0  0  0
   13.1658    1.0171    3.4970 C   0  0  0  0  0  0  0  0  0  0  0  0
   13.3824   -1.4417    3.1549 N   0  0  0  0  0  0  0  0  0  0  0  0
   12.7642   -1.9427    2.0663 C   0  0  0  0  0  0  0  0  0  0  0  0
   13.5072   -2.8437    0.8747 S   0  0  0  0  0  0  0  0  0  0  0  0
   11.4086   -1.6723    2.0188 N   0  0  0  0  0  0  0  0  0  0  0  0
    8.6351   -2.5042    2.3954 C   0  0  0  0  0  0  0  0  0  0  0  0
    7.2749   -2.6368    2.1343 C   0  0  0  0  0  0  0  0  0  0  0  0
    3.0275   -7.2697    2.9098 H   0  0  0  0  0  0  0  0  0  0  0  0
    2.6670   -5.9354    4.0292 H   0  0  0  0  0  0  0  0  0  0  0  0
    4.3293   -6.5461    3.8820 H   0  0  0  0  0  0  0  0  0  0  0  0
    2.7574   -5.1317    1.6249 H   0  0  0  0  0  0  0  0  0  0  0  0
    4.4041   -5.7397    1.4780 H   0  0  0  0  0  0  0  0  0  0  0  0
    5.1606   -4.1394    3.2744 H   0  0  0  0  0  0  0  0  0  0  0  0
    3.5157   -3.5314    3.4330 H   0  0  0  0  0  0  0  0  0  0  0  0
    3.5301   -2.7579    1.0648 H   0  0  0  0  0  0  0  0  0  0  0  0
    5.1378   -3.4166    0.8189 H   0  0  0  0  0  0  0  0  0  0  0  0
    3.6288   -0.5682    0.9211 H   0  0  0  0  0  0  0  0  0  0  0  0
    4.7009    0.3971    1.9147 H   0  0  0  0  0  0  0  0  0  0  0  0
    2.4532   -1.4269    2.9501 H   0  0  0  0  0  0  0  0  0  0  0  0
    2.3066    0.3073    2.7037 H   0  0  0  0  0  0  0  0  0  0  0  0
    4.3557   -0.9151    4.6430 H   0  0  0  0  0  0  0  0  0  0  0  0
    2.7054   -0.5380    5.1231 H   0  0  0  0  0  0  0  0  0  0  0  0
    4.7166    1.5650    4.0748 H   0  0  0  0  0  0  0  0  0  0  0  0
    4.2485    1.3215    5.7660 H   0  0  0  0  0  0  0  0  0  0  0  0
    3.0477    1.8909    4.5847 H   0  0  0  0  0  0  0  0  0  0  0  0
    6.3309    0.5532    2.8940 H   0  0  0  0  0  0  0  0  0  0  0  0
    8.6989    0.7485    3.3507 H   0  0  0  0  0  0  0  0  0  0  0  0
    7.8030   -0.1724    6.6990 H   0  0  0  0  0  0  0  0  0  0  0  0
    9.2413    0.7710    7.2055 H   0  0  0  0  0  0  0  0  0  0  0  0
    8.8657   -2.2583    7.6698 H   0  0  0  0  0  0  0  0  0  0  0  0
    8.6441   -0.9946    8.9114 H   0  0  0  0  0  0  0  0  0  0  0  0
   10.2598   -1.2745    8.2109 H   0  0  0  0  0  0  0  0  0  0  0  0
   13.2557   -0.5081    5.0071 H   0  0  0  0  0  0  0  0  0  0  0  0
   12.7258    1.1989    2.5037 H   0  0  0  0  0  0  0  0  0  0  0  0
   14.2586    1.1457    3.4210 H   0  0  0  0  0  0  0  0  0  0  0  0
   12.7787    1.7690    4.2004 H   0  0  0  0  0  0  0  0  0  0  0  0
   14.3794   -1.6222    3.1979 H   0  0  0  0  0  0  0  0  0  0  0  0
   10.9357   -2.0151    1.1905 H   0  0  0  0  0  0  0  0  0  0  0  0
    9.2761   -3.3806    2.2648 H   0  0  0  0  0  0  0  0  0  0  0  0
    6.9130   -3.6091    1.8060 H   0  0  0  0  0  0  0  0  0  0  0  0
  1  2  1  0
  1 29  1  0
  1 30  1  0
  1 31  1  0
  2  3  1  0
  2 32  1  0
  2 33  1  0
  3  4  1  0
  3 34  1  0
  3 35  1  0
  4  5  1  0
  4 36  1  0
  4 37  1  0
  5  6  1  0
  5 10  1  0
  6  7  1  0
  6 38  1  0
  6 39  1  0
  7  8  1  0
  7 40  1  0
  7 41  1  0
  8  9  1  0
  8 42  1  0
  8 43  1  0
  9 44  1  0
  9 45  1  0
  9 46  1  0
 10 11  2  0
 10 28  1  0
 11 12  1  0
 11 47  1  0
 12 13  2  0
 12 48  1  0
 13 14  1  0
 13 27  1  0
 14 15  2  0
 14 26  1  0
 15 16  1  0
 15 21  1  0
 16 17  2  0
 16 18  1  0
 18 19  1  0
 19 20  1  0
 19 49  1  0
 19 50  1  0
 20 51  1  0
 20 52  1  0
 20 53  1  0
 21 22  1  0
 21 23  1  0
 21 54  1  1
 22 55  1  0
 22 56  1  0
 22 57  1  0
 23 24  1  0
 23 58  1  0
 24 25  2  0
 24 26  1  0
 26 59  1  0
 27 28  2  0
 27 60  1  0
 28 61  1  0
M  END

