
     RDKit          3D

 35 35  0  0  0  0  0  0  0  0999 V2000
    1.0283    0.1819    0.6145 N   0  0  0  0  0  0  0  0  0  0  0  0
    2.3777   -0.0004    0.3969 C   0  0  0  0  0  0  0  0  0  0  0  0
    2.9450   -1.2858    0.2753 C   0  0  0  0  0  0  0  0  0  0  0  0
    4.2958   -1.4852    0.0072 C   0  0  0  0  0  0  0  0  0  0  0  0
    5.1502   -0.3801   -0.1529 C   0  0  0  0  0  0  0  0  0  0  0  0
    6.5248   -0.5035   -0.4272 N   0  0  0  0  0  0  0  0  0  0  0  0
    7.2724   -1.6189   -0.5819 C   0  0  0  0  0  0  0  0  0  0  0  0
    6.9077   -2.7864   -0.5126 O   0  0  0  0  0  0  0  0  0  0  0  0
    8.7449   -1.2510   -0.8751 C   0  0  0  0  0  0  0  0  0  0  0  0
    9.1218   -0.0862   -0.9234 O   0  0  0  0  0  0  0  0  0  0  0  0
    9.5102   -2.3427   -1.0622 N   0  0  0  0  0  0  0  0  0  0  0  0
   10.9330   -2.2769   -1.3530 C   0  0  0  0  0  0  0  0  0  0  0  0
   11.8258   -2.2431   -0.1054 C   0  0  0  0  0  0  0  0  0  0  0  0
   11.7135   -3.5015    0.7633 C   0  0  0  0  0  0  0  0  0  0  0  0
   12.5577   -3.4675    1.9451 N   0  0  0  0  0  0  0  0  0  0  0  0
   13.7771   -4.0737    1.9975 C   0  0  0  0  0  0  0  0  0  0  0  0
   14.2711   -4.7306    1.1053 O   0  0  0  0  0  0  0  0  0  0  0  0
    4.6145    0.9111   -0.0332 C   0  0  0  0  0  0  0  0  0  0  0  0
    3.2612    1.0904    0.2365 C   0  0  0  0  0  0  0  0  0  0  0  0
    2.6306    2.7239    0.3933 Cl  0  0  0  0  0  0  0  0  0  0  0  0
    0.5172   -0.5936    1.0167 H   0  0  0  0  0  0  0  0  0  0  0  0
    0.7404    1.0982    0.9374 H   0  0  0  0  0  0  0  0  0  0  0  0
    2.2932   -2.1562    0.3913 H   0  0  0  0  0  0  0  0  0  0  0  0
    4.7011   -2.4911   -0.0810 H   0  0  0  0  0  0  0  0  0  0  0  0
    7.0737    0.3502   -0.5322 H   0  0  0  0  0  0  0  0  0  0  0  0
    9.0185   -3.2299   -0.9848 H   0  0  0  0  0  0  0  0  0  0  0  0
   11.1071   -1.3656   -1.9445 H   0  0  0  0  0  0  0  0  0  0  0  0
   11.1929   -3.1417   -1.9850 H   0  0  0  0  0  0  0  0  0  0  0  0
   11.5723   -1.3480    0.4881 H   0  0  0  0  0  0  0  0  0  0  0  0
   12.8732   -2.1261   -0.4301 H   0  0  0  0  0  0  0  0  0  0  0  0
   12.0213   -4.3852    0.1837 H   0  0  0  0  0  0  0  0  0  0  0  0
   10.6674   -3.6538    1.0781 H   0  0  0  0  0  0  0  0  0  0  0  0
   12.2727   -2.9035    2.7381 H   0  0  0  0  0  0  0  0  0  0  0  0
   14.2844   -3.9069    2.9802 H   0  0  0  0  0  0  0  0  0  0  0  0
    5.2513    1.7909   -0.1467 H   0  0  0  0  0  0  0  0  0  0  0  0
  1  2  1  0
  1 21  1  0
  1 22  1  0
  2  3  2  0
  2 19  1  0
  3  4  1  0
  3 23  1  0
  4  5  2  0
  4 24  1  0
  5  6  1  0
  5 18  1  0
  6  7  1  0
  6 25  1  0
  7  8  2  0
  7  9  1  0
  9 10  2  0
  9 11  1  0
 11 12  1  0
 11 26  1  0
 12 13  1  0
 12 27  1  0
 12 28  1  0
 13 14  1  0
 13 29  1  0
 13 30  1  0
 14 15  1  0
 14 31  1  0
 14 32  1  0
 15 16  1  0
 15 33  1  0
 16 17  2  0
 16 34  1  0
 18 19  2  0
 18 35  1  0
 19 20  1  0
M  END

