
     RDKit          3D

 21 22  0  0  0  0  0  0  0  0999 V2000
    0.9342    0.0396   -0.0337 N   0  0  0  0  0  0  0  0  0  0  0  0
    0.5376    0.4862   -0.8731 H   0  0  0  0  0  0  0  0  0  0  0  0
    0.5974    0.5735    0.7802 H   0  0  0  0  0  0  0  0  0  0  0  0
    0.5443   -0.9088    0.0308 H   0  0  0  0  0  0  0  0  0  0  0  0
    2.4278   -0.0145   -0.0812 C   0  0  0  0  0  0  0  0  0  0  0  0
    3.0271   -1.2852   -0.0934 C   0  0  0  0  0  0  0  0  0  0  0  0
    4.4256   -1.3027   -0.1448 C   0  0  0  0  0  0  0  0  0  0  0  0
    5.1896   -0.1302   -0.1837 C   0  0  0  0  0  0  0  0  0  0  0  0
    6.6231   -0.1490   -0.2365 C   0  0  0  0  0  0  0  0  0  0  0  0
    7.3498    1.0048   -0.2725 C   0  0  0  0  0  0  0  0  0  0  0  0
    6.7419    2.3529   -0.2616 C   0  0  0  0  0  0  0  0  0  0  0  0
    7.4397    3.3769   -0.2969 O   0  0  0  0  0  0  0  0  0  0  0  0
    5.2952    2.3509   -0.2079 C   0  0  0  0  0  0  0  0  0  0  0  0
    4.5417    1.1839   -0.1703 C   0  0  0  0  0  0  0  0  0  0  0  0
    3.1063    1.1820   -0.1167 C   0  0  0  0  0  0  0  0  0  0  0  0
    2.4394   -2.2069   -0.0634 H   0  0  0  0  0  0  0  0  0  0  0  0
    4.9449   -2.2656   -0.1571 H   0  0  0  0  0  0  0  0  0  0  0  0
    7.1267   -1.1221   -0.2469 H   0  0  0  0  0  0  0  0  0  0  0  0
    8.4430    0.9805   -0.3124 H   0  0  0  0  0  0  0  0  0  0  0  0
    4.8016    3.3273   -0.1978 H   0  0  0  0  0  0  0  0  0  0  0  0
    2.5750    2.1398   -0.1059 H   0  0  0  0  0  0  0  0  0  0  0  0
  1  2  1  0
  1  3  1  0
  1  4  1  0
  1  5  1  0
  5  6  2  0
  5 15  1  0
  6  7  1  0
  6 16  1  0
  7  8  2  0
  7 17  1  0
  8  9  1  0
  8 14  1  0
  9 10  2  0
  9 18  1  0
 10 11  1  0
 10 19  1  0
 11 12  1  0
 11 13  2  0
 13 14  1  0
 13 20  1  0
 14 15  2  0
 15 21  1  0
M  CHG  2   1   1  12  -1
M  END

