
     RDKit          3D

 49 50  0  0  0  0  0  0  0  0999 V2000
    1.6278   -0.5243   -0.0904 C   0  0  0  0  0  0  0  0  0  0  0  0
    2.5586    0.6129   -0.4771 C   0  0  0  0  0  0  0  0  0  0  0  0
    3.2362    1.1594    0.6698 O   0  0  0  0  0  0  0  0  0  0  0  0
    4.3750    0.5585    1.0698 C   0  0  0  0  0  0  0  0  0  0  0  0
    4.8522   -0.3964    0.5035 O   0  0  0  0  0  0  0  0  0  0  0  0
    4.9412    1.2036    2.3345 C   0  0  1  0  0  0  0  0  0  0  0  0
    6.3516    0.6774    2.6472 C   0  0  0  0  0  0  0  0  0  0  0  0
    7.4068    1.2712    1.7056 C   0  0  0  0  0  0  0  0  0  0  0  0
    7.3634    2.8048    1.6909 C   0  0  0  0  0  0  0  0  0  0  0  0
    5.9590    3.3412    1.3449 C   0  0  2  0  0  0  0  0  0  0  0  0
    5.8316    4.7983    1.3478 N   0  0  0  0  0  0  0  0  0  0  0  0
    6.5922    5.5178    0.3357 C   0  0  0  0  0  0  0  0  0  0  0  0
    6.3683    7.0348    0.4210 C   0  0  0  0  0  0  0  0  0  0  0  0
    7.2981    7.7617    0.7450 O   0  0  0  0  0  0  0  0  0  0  0  0
    5.1197    7.5253    0.1324 N   0  0  0  0  0  0  0  0  0  0  0  0
    4.8870    8.9675    0.1868 C   0  0  0  0  0  0  0  0  0  0  0  0
    4.3863    9.4929   -1.1637 C   0  0  0  0  0  0  0  0  0  0  0  0
    3.1584    8.7087   -1.6452 C   0  0  0  0  0  0  0  0  0  0  0  0
    3.4342    7.1994   -1.6383 C   0  0  0  0  0  0  0  0  0  0  0  0
    3.9576    6.7402   -0.2714 C   0  0  0  0  0  0  0  0  0  0  0  0
    4.9117    2.7451    2.2974 C   0  0  0  0  0  0  0  0  0  0  0  0
    1.0665   -0.8666   -0.9747 H   0  0  0  0  0  0  0  0  0  0  0  0
    0.9030   -0.1986    0.6720 H   0  0  0  0  0  0  0  0  0  0  0  0
    2.1980   -1.3788    0.3030 H   0  0  0  0  0  0  0  0  0  0  0  0
    1.9992    1.4599   -0.9005 H   0  0  0  0  0  0  0  0  0  0  0  0
    3.3089    0.2752   -1.2072 H   0  0  0  0  0  0  0  0  0  0  0  0
    4.2485    0.8772    3.1325 H   0  0  0  0  0  0  0  0  0  0  0  0
    6.3610   -0.4208    2.5861 H   0  0  0  0  0  0  0  0  0  0  0  0
    6.5949    0.9486    3.6895 H   0  0  0  0  0  0  0  0  0  0  0  0
    7.2337    0.8861    0.6862 H   0  0  0  0  0  0  0  0  0  0  0  0
    8.4109    0.9234    1.9999 H   0  0  0  0  0  0  0  0  0  0  0  0
    8.1090    3.1968    0.9802 H   0  0  0  0  0  0  0  0  0  0  0  0
    7.6452    3.1961    2.6877 H   0  0  0  0  0  0  0  0  0  0  0  0
    5.7123    3.0105    0.3168 H   0  0  0  0  0  0  0  0  0  0  0  0
    6.0574    5.1640    2.2736 H   0  0  0  0  0  0  0  0  0  0  0  0
    6.2918    5.1430   -0.6594 H   0  0  0  0  0  0  0  0  0  0  0  0
    7.6887    5.3993    0.4101 H   0  0  0  0  0  0  0  0  0  0  0  0
    5.8293    9.4420    0.4856 H   0  0  0  0  0  0  0  0  0  0  0  0
    4.1330    9.1786    0.9705 H   0  0  0  0  0  0  0  0  0  0  0  0
    5.2006    9.4017   -1.9041 H   0  0  0  0  0  0  0  0  0  0  0  0
    4.1528   10.5672   -1.0761 H   0  0  0  0  0  0  0  0  0  0  0  0
    2.8534    9.0425   -2.6508 H   0  0  0  0  0  0  0  0  0  0  0  0
    2.3052    8.9220   -0.9742 H   0  0  0  0  0  0  0  0  0  0  0  0
    4.1864    6.9548   -2.4097 H   0  0  0  0  0  0  0  0  0  0  0  0
    2.5204    6.6345   -1.8893 H   0  0  0  0  0  0  0  0  0  0  0  0
    4.2049    5.6745   -0.2591 H   0  0  0  0  0  0  0  0  0  0  0  0
    3.1617    6.8756    0.4877 H   0  0  0  0  0  0  0  0  0  0  0  0
    3.9133    3.1081    2.0188 H   0  0  0  0  0  0  0  0  0  0  0  0
    5.1167    3.1163    3.3182 H   0  0  0  0  0  0  0  0  0  0  0  0
  1  2  1  0
  1 22  1  0
  1 23  1  0
  1 24  1  0
  2  3  1  0
  2 25  1  0
  2 26  1  0
  3  4  1  0
  4  5  2  0
  4  6  1  0
  6  7  1  0
  6 21  1  0
  6 27  1  1
  7  8  1  0
  7 28  1  0
  7 29  1  0
  8  9  1  0
  8 30  1  0
  8 31  1  0
  9 10  1  0
  9 32  1  0
  9 33  1  0
 10 11  1  0
 10 21  1  0
 10 34  1  6
 11 12  1  0
 11 35  1  0
 12 13  1  0
 12 36  1  0
 12 37  1  0
 13 14  2  0
 13 15  1  0
 15 16  1  0
 15 20  1  0
 16 17  1  0
 16 38  1  0
 16 39  1  0
 17 18  1  0
 17 40  1  0
 17 41  1  0
 18 19  1  0
 18 42  1  0
 18 43  1  0
 19 20  1  0
 19 44  1  0
 19 45  1  0
 20 46  1  0
 20 47  1  0
 21 48  1  0
 21 49  1  0
M  END

