
     RDKit          3D

 38 39  0  0  0  0  0  0  0  0999 V2000
    1.7674    0.7515   -0.9975 C   0  0  0  0  0  0  0  0  0  0  0  0
    2.3341    0.5920    0.4136 C   0  0  0  0  0  0  0  0  0  0  0  0
    3.3883    1.5408    0.7208 N   0  0  0  0  0  0  0  0  0  0  0  0
    4.6874    1.1908    0.9013 C   0  0  0  0  0  0  0  0  0  0  0  0
    5.1094    0.0460    0.8249 O   0  0  0  0  0  0  0  0  0  0  0  0
    5.6165    2.3687    1.2864 C   0  0  1  0  0  0  0  0  0  0  0  0
    7.0797    2.0594    0.9132 C   0  0  0  0  0  0  0  0  0  0  0  0
    7.3479    2.1637   -0.5157 N   0  0  0  0  0  0  0  0  0  0  0  0
    6.8868    3.4310   -1.0682 C   0  0  0  0  0  0  0  0  0  0  0  0
    5.4214    3.7374   -0.7180 C   0  0  0  0  0  0  0  0  0  0  0  0
    5.1290    3.6423    0.7224 N   0  0  0  0  0  0  0  0  0  0  0  0
    5.5066    4.8324    1.4909 C   0  0  0  0  0  0  0  0  0  0  0  0
    4.7907    4.9079    2.8241 C   0  0  0  0  0  0  0  0  0  0  0  0
    3.3970    5.0741    2.8533 C   0  0  0  0  0  0  0  0  0  0  0  0
    2.6581    5.1546    3.9590 N   0  0  0  0  0  0  0  0  0  0  0  0
    3.2822    5.0712    5.1191 C   0  0  0  0  0  0  0  0  0  0  0  0
    2.3088    5.1768    6.5689 Cl  0  0  0  0  0  0  0  0  0  0  0  0
    4.6644    4.9063    5.2547 C   0  0  0  0  0  0  0  0  0  0  0  0
    5.4151    4.8228    4.0803 C   0  0  0  0  0  0  0  0  0  0  0  0
    7.1429    4.6016    4.2263 Cl  0  0  0  0  0  0  0  0  0  0  0  0
    0.9600    0.0228   -1.1742 H   0  0  0  0  0  0  0  0  0  0  0  0
    2.5483    0.5876   -1.7567 H   0  0  0  0  0  0  0  0  0  0  0  0
    1.3465    1.7592   -1.1524 H   0  0  0  0  0  0  0  0  0  0  0  0
    2.7722   -0.4084    0.5415 H   0  0  0  0  0  0  0  0  0  0  0  0
    1.5245    0.6947    1.1582 H   0  0  0  0  0  0  0  0  0  0  0  0
    3.1970    2.5386    0.7611 H   0  0  0  0  0  0  0  0  0  0  0  0
    5.5403    2.4381    2.3857 H   0  0  0  0  0  0  0  0  0  0  0  0
    7.3260    1.0453    1.2558 H   0  0  0  0  0  0  0  0  0  0  0  0
    7.7416    2.7619    1.4496 H   0  0  0  0  0  0  0  0  0  0  0  0
    6.9128    1.3790   -1.0013 H   0  0  0  0  0  0  0  0  0  0  0  0
    7.0165    3.4240   -2.1635 H   0  0  0  0  0  0  0  0  0  0  0  0
    7.5399    4.2362   -0.6822 H   0  0  0  0  0  0  0  0  0  0  0  0
    4.7742    3.0098   -1.2405 H   0  0  0  0  0  0  0  0  0  0  0  0
    5.1269    4.7395   -1.0726 H   0  0  0  0  0  0  0  0  0  0  0  0
    5.2063    5.7090    0.8935 H   0  0  0  0  0  0  0  0  0  0  0  0
    6.5946    4.9273    1.6580 H   0  0  0  0  0  0  0  0  0  0  0  0
    2.8577    5.1496    1.9017 H   0  0  0  0  0  0  0  0  0  0  0  0
    5.1358    4.8407    6.2343 H   0  0  0  0  0  0  0  0  0  0  0  0
  1  2  1  0
  1 21  1  0
  1 22  1  0
  1 23  1  0
  2  3  1  0
  2 24  1  0
  2 25  1  0
  3  4  1  0
  3 26  1  0
  4  5  2  0
  4  6  1  0
  6  7  1  0
  6 11  1  0
  6 27  1  1
  7  8  1  0
  7 28  1  0
  7 29  1  0
  8  9  1  0
  8 30  1  0
  9 10  1  0
  9 31  1  0
  9 32  1  0
 10 11  1  0
 10 33  1  0
 10 34  1  0
 11 12  1  0
 12 13  1  0
 12 35  1  0
 12 36  1  0
 13 14  2  0
 13 19  1  0
 14 15  1  0
 14 37  1  0
 15 16  2  0
 16 17  1  0
 16 18  1  0
 18 19  2  0
 18 38  1  0
 19 20  1  0
M  END

