
     RDKit          3D

 44 45  0  0  0  0  0  0  0  0999 V2000
    1.0899    0.4022    0.4100 C   0  0  0  0  0  0  0  0  0  0  0  0
    2.5548    0.1917    0.1203 C   0  0  0  0  0  0  0  0  0  0  0  0
    3.4359    1.2693   -0.0331 C   0  0  0  0  0  0  0  0  0  0  0  0
    4.7859    1.0406   -0.2872 C   0  0  0  0  0  0  0  0  0  0  0  0
    5.3142   -0.2589   -0.4046 C   0  0  0  0  0  0  0  0  0  0  0  0
    6.7751   -0.4486   -0.6869 C   0  0  0  0  0  0  0  0  0  0  0  0
    7.2566   -1.5534   -0.8742 O   0  0  0  0  0  0  0  0  0  0  0  0
    7.6795    0.7819   -0.7443 C   0  0  0  0  0  0  0  0  0  0  0  0
    9.1495    0.4350   -0.9590 C   0  0  0  0  0  0  0  0  0  0  0  0
    9.9410    1.6440   -1.1296 N   0  0  0  0  0  0  0  0  0  0  0  0
   11.3753    1.4407   -1.3494 C   0  0  1  0  0  0  0  0  0  0  0  0
   11.6603    0.9391   -2.7804 C   0  0  0  0  0  0  0  0  0  0  0  0
   11.3302    1.9925   -3.8457 C   0  0  0  0  0  0  0  0  0  0  0  0
   12.0707    3.3105   -3.5817 C   0  0  0  0  0  0  0  0  0  0  0  0
   11.8030    3.8304   -2.1629 C   0  0  0  0  0  0  0  0  0  0  0  0
   12.1263    2.7629   -1.1078 C   0  0  0  0  0  0  0  0  0  0  0  0
    4.4312   -1.3678   -0.2560 C   0  0  0  0  0  0  0  0  0  0  0  0
    4.8693   -2.8076   -0.3621 C   0  0  0  0  0  0  0  0  0  0  0  0
    3.0798   -1.1042    0.0043 C   0  0  0  0  0  0  0  0  0  0  0  0
    0.8154    1.4662    0.3648 H   0  0  0  0  0  0  0  0  0  0  0  0
    0.8275    0.0294    1.4148 H   0  0  0  0  0  0  0  0  0  0  0  0
    0.4576   -0.1445   -0.3087 H   0  0  0  0  0  0  0  0  0  0  0  0
    3.0646    2.2946    0.0461 H   0  0  0  0  0  0  0  0  0  0  0  0
    5.4418    1.9038   -0.4035 H   0  0  0  0  0  0  0  0  0  0  0  0
    7.5528    1.3658    0.1855 H   0  0  0  0  0  0  0  0  0  0  0  0
    7.3436    1.4478   -1.5581 H   0  0  0  0  0  0  0  0  0  0  0  0
    9.2334   -0.1913   -1.8597 H   0  0  0  0  0  0  0  0  0  0  0  0
    9.5053   -0.2063   -0.1228 H   0  0  0  0  0  0  0  0  0  0  0  0
    9.8154    2.2451   -0.3151 H   0  0  0  0  0  0  0  0  0  0  0  0
   11.7770    0.6831   -0.6385 H   0  0  0  0  0  0  0  0  0  0  0  0
   11.1063    0.0066   -2.9761 H   0  0  0  0  0  0  0  0  0  0  0  0
   12.7311    0.6728   -2.8387 H   0  0  0  0  0  0  0  0  0  0  0  0
   10.2430    2.1783   -3.8383 H   0  0  0  0  0  0  0  0  0  0  0  0
   11.5815    1.6062   -4.8481 H   0  0  0  0  0  0  0  0  0  0  0  0
   11.7818    4.0702   -4.3279 H   0  0  0  0  0  0  0  0  0  0  0  0
   13.1579    3.1489   -3.7094 H   0  0  0  0  0  0  0  0  0  0  0  0
   10.7413    4.1172   -2.0759 H   0  0  0  0  0  0  0  0  0  0  0  0
   12.3948    4.7413   -1.9688 H   0  0  0  0  0  0  0  0  0  0  0  0
   11.8999    3.1383   -0.0930 H   0  0  0  0  0  0  0  0  0  0  0  0
   13.2098    2.5503   -1.1193 H   0  0  0  0  0  0  0  0  0  0  0  0
    5.2916   -3.0299   -1.3531 H   0  0  0  0  0  0  0  0  0  0  0  0
    4.0171   -3.4787   -0.1774 H   0  0  0  0  0  0  0  0  0  0  0  0
    5.6713   -3.0433    0.3529 H   0  0  0  0  0  0  0  0  0  0  0  0
    2.4023   -1.9559    0.1205 H   0  0  0  0  0  0  0  0  0  0  0  0
  1  2  1  0
  1 20  1  0
  1 21  1  0
  1 22  1  0
  2  3  2  0
  2 19  1  0
  3  4  1  0
  3 23  1  0
  4  5  2  0
  4 24  1  0
  5  6  1  0
  5 17  1  0
  6  7  2  0
  6  8  1  0
  8  9  1  0
  8 25  1  0
  8 26  1  0
  9 10  1  0
  9 27  1  0
  9 28  1  0
 10 11  1  0
 10 29  1  0
 11 12  1  0
 11 16  1  0
 11 30  1  1
 12 13  1  0
 12 31  1  0
 12 32  1  0
 13 14  1  0
 13 33  1  0
 13 34  1  0
 14 15  1  0
 14 35  1  0
 14 36  1  0
 15 16  1  0
 15 37  1  0
 15 38  1  0
 16 39  1  0
 16 40  1  0
 17 18  1  0
 17 19  2  0
 18 41  1  0
 18 42  1  0
 18 43  1  0
 19 44  1  0
M  END

