
     RDKit          3D

 48 50  0  0  0  0  0  0  0  0999 V2000
    2.1963    0.9152   -1.8045 C   0  0  0  0  0  0  0  0  0  0  0  0
    2.9647   -0.1211   -1.0589 C   0  0  0  0  0  0  0  0  0  0  0  0
    2.3856   -1.0878   -0.3928 N   0  0  0  0  0  0  0  0  0  0  0  0
    3.4570   -1.8094    0.1391 O   0  0  0  0  0  0  0  0  0  0  0  0
    4.5775   -1.2014   -0.2581 C   0  0  0  0  0  0  0  0  0  0  0  0
    5.9428   -1.7581    0.0798 C   0  0  1  0  0  0  0  0  0  0  0  0
    6.0269   -2.4617    1.4507 C   0  0  0  0  0  0  0  0  0  0  0  0
    5.5139   -3.9054    1.4395 C   0  0  0  0  0  0  0  0  0  0  0  0
    6.2006   -4.6978    0.3237 C   0  0  0  0  0  0  0  0  0  0  0  0
    6.0007   -4.0114   -1.0257 C   0  0  0  0  0  0  0  0  0  0  0  0
    6.4376   -2.6132   -0.9968 N   0  0  0  0  0  0  0  0  0  0  0  0
    7.1513   -2.1189   -2.0938 C   0  0  0  0  0  0  0  0  0  0  0  0
    7.7064   -2.8670   -2.8854 O   0  0  0  0  0  0  0  0  0  0  0  0
    7.2104   -0.7409   -2.2021 N   0  0  0  0  0  0  0  0  0  0  0  0
    7.9054   -0.1542   -3.3572 C   0  0  1  0  0  0  0  0  0  0  0  0
    7.4670    1.3071   -3.5375 C   0  0  0  0  0  0  0  0  0  0  0  0
    7.9968    2.2429   -2.4396 C   0  0  0  0  0  0  0  0  0  0  0  0
    9.5224    2.1427   -2.2712 C   0  0  2  0  0  0  0  0  0  0  0  0
   10.2558    2.8333   -3.4306 C   0  0  0  0  0  0  0  0  0  0  0  0
    9.7188    3.4818   -4.2878 O   0  0  0  0  0  0  0  0  0  0  0  0
   11.6038    2.7057   -3.4289 O   0  0  0  0  0  0  0  0  0  0  0  0
    9.9462    0.6688   -2.0705 C   0  0  0  0  0  0  0  0  0  0  0  0
    9.4350   -0.2390   -3.1936 C   0  0  0  0  0  0  0  0  0  0  0  0
    4.3425   -0.1548   -0.9967 N   0  0  0  0  0  0  0  0  0  0  0  0
    1.1183    0.7350   -1.7049 H   0  0  0  0  0  0  0  0  0  0  0  0
    2.4707    0.8987   -2.8707 H   0  0  0  0  0  0  0  0  0  0  0  0
    2.4353    1.9179   -1.4175 H   0  0  0  0  0  0  0  0  0  0  0  0
    6.5968   -0.8768    0.1164 H   0  0  0  0  0  0  0  0  0  0  0  0
    5.4942   -1.8542    2.1997 H   0  0  0  0  0  0  0  0  0  0  0  0
    7.0913   -2.4633    1.7388 H   0  0  0  0  0  0  0  0  0  0  0  0
    4.4219   -3.9157    1.2866 H   0  0  0  0  0  0  0  0  0  0  0  0
    5.7010   -4.3683    2.4221 H   0  0  0  0  0  0  0  0  0  0  0  0
    5.8017   -5.7240    0.2702 H   0  0  0  0  0  0  0  0  0  0  0  0
    7.2819   -4.7808    0.5321 H   0  0  0  0  0  0  0  0  0  0  0  0
    4.9298   -4.0646   -1.3082 H   0  0  0  0  0  0  0  0  0  0  0  0
    6.5776   -4.5013   -1.8192 H   0  0  0  0  0  0  0  0  0  0  0  0
    6.3846   -0.2298   -1.8921 H   0  0  0  0  0  0  0  0  0  0  0  0
    7.6330   -0.7317   -4.2569 H   0  0  0  0  0  0  0  0  0  0  0  0
    6.3659    1.3653   -3.5833 H   0  0  0  0  0  0  0  0  0  0  0  0
    7.8383    1.6593   -4.5119 H   0  0  0  0  0  0  0  0  0  0  0  0
    7.5267    1.9965   -1.4728 H   0  0  0  0  0  0  0  0  0  0  0  0
    7.7212    3.2808   -2.6766 H   0  0  0  0  0  0  0  0  0  0  0  0
    9.8185    2.7135   -1.3701 H   0  0  0  0  0  0  0  0  0  0  0  0
   11.8888    2.1527   -2.6876 H   0  0  0  0  0  0  0  0  0  0  0  0
    9.5323    0.3247   -1.1087 H   0  0  0  0  0  0  0  0  0  0  0  0
   11.0420    0.5666   -1.9692 H   0  0  0  0  0  0  0  0  0  0  0  0
    9.7187   -1.2857   -3.0120 H   0  0  0  0  0  0  0  0  0  0  0  0
    9.8994    0.0508   -4.1528 H   0  0  0  0  0  0  0  0  0  0  0  0
  1  2  1  0
  1 25  1  0
  1 26  1  0
  1 27  1  0
  2  3  2  0
  2 24  1  0
  3  4  1  0
  4  5  1  0
  5  6  1  0
  5 24  2  0
  6  7  1  0
  6 11  1  0
  6 28  1  1
  7  8  1  0
  7 29  1  0
  7 30  1  0
  8  9  1  0
  8 31  1  0
  8 32  1  0
  9 10  1  0
  9 33  1  0
  9 34  1  0
 10 11  1  0
 10 35  1  0
 10 36  1  0
 11 12  1  0
 12 13  2  0
 12 14  1  0
 14 15  1  0
 14 37  1  0
 15 16  1  0
 15 23  1  0
 15 38  1  6
 16 17  1  0
 16 39  1  0
 16 40  1  0
 17 18  1  0
 17 41  1  0
 17 42  1  0
 18 19  1  0
 18 22  1  0
 18 43  1  1
 19 20  2  0
 19 21  1  0
 21 44  1  0
 22 23  1  0
 22 45  1  0
 22 46  1  0
 23 47  1  0
 23 48  1  0
M  END

