
     RDKit          3D

 58 60  0  0  0  0  0  0  0  0999 V2000
    3.0193   -0.5366   -1.2742 O   0  0  0  0  0  0  0  0  0  0  0  0
    2.3815    0.2261   -0.5623 C   0  0  0  0  0  0  0  0  0  0  0  0
    1.0714    0.0035   -0.2351 N   0  0  0  0  0  0  0  0  0  0  0  0
    0.3611   -1.1801   -0.6630 C   0  0  0  0  0  0  0  0  0  0  0  0
   -0.2579   -1.9033    0.5432 C   0  0  1  0  0  0  0  0  0  0  0  0
   -1.0505   -0.9919    1.2930 O   0  0  0  0  0  0  0  0  0  0  0  0
   -1.0208   -3.1724    0.1788 C   0  0  0  0  0  0  0  0  0  0  0  0
   -0.5675   -4.0428   -0.8290 C   0  0  0  0  0  0  0  0  0  0  0  0
   -1.2605   -5.2146   -1.1290 C   0  0  0  0  0  0  0  0  0  0  0  0
   -2.4179   -5.5151   -0.4108 C   0  0  0  0  0  0  0  0  0  0  0  0
   -3.1604   -6.7538   -0.7274 N   0  0  0  0  0  0  0  0  0  0  0  0
   -2.7161   -7.4660   -1.6130 O   0  0  0  0  0  0  0  0  0  0  0  0
   -4.1704   -6.9849   -0.0830 O   0  0  0  0  0  0  0  0  0  0  0  0
   -2.8904   -4.6790    0.5994 C   0  0  0  0  0  0  0  0  0  0  0  0
   -2.1846   -3.5117    0.8895 C   0  0  0  0  0  0  0  0  0  0  0  0
    3.0067    1.4739    0.0086 C   0  0  0  0  0  0  0  0  0  0  0  0
    2.2712    2.5578    0.5154 C   0  0  0  0  0  0  0  0  0  0  0  0
    2.9229    3.6819    1.0191 C   0  0  0  0  0  0  0  0  0  0  0  0
    4.3235    3.7560    1.0160 C   0  0  0  0  0  0  0  0  0  0  0  0
    4.9468    5.0052    1.5874 C   0  0  0  0  0  0  0  0  0  0  0  0
    4.3071    5.7709    2.2946 O   0  0  0  0  0  0  0  0  0  0  0  0
    6.2536    5.2325    1.2595 N   0  0  0  0  0  0  0  0  0  0  0  0
    6.9926    6.3698    1.7566 C   0  0  0  0  0  0  0  0  0  0  0  0
    8.4211    5.9461    2.1251 C   0  0  1  0  0  0  0  0  0  0  0  0
    9.0261    5.2890    1.0184 O   0  0  0  0  0  0  0  0  0  0  0  0
    9.2853    7.0790    2.6688 C   0  0  0  0  0  0  0  0  0  0  0  0
    8.7525    8.0878    3.4912 C   0  0  0  0  0  0  0  0  0  0  0  0
    9.5651    9.0977    4.0048 C   0  0  0  0  0  0  0  0  0  0  0  0
   10.9239    9.0936    3.6901 C   0  0  0  0  0  0  0  0  0  0  0  0
   11.7905   10.1643    4.2278 N   0  0  0  0  0  0  0  0  0  0  0  0
   11.2674   11.0108    4.9337 O   0  0  0  0  0  0  0  0  0  0  0  0
   12.9736   10.1329    3.9309 O   0  0  0  0  0  0  0  0  0  0  0  0
   11.4860    8.1049    2.8841 C   0  0  0  0  0  0  0  0  0  0  0  0
   10.6605    7.1006    2.3799 C   0  0  0  0  0  0  0  0  0  0  0  0
    5.0592    2.6722    0.5088 C   0  0  0  0  0  0  0  0  0  0  0  0
    4.4074    1.5482    0.0050 C   0  0  0  0  0  0  0  0  0  0  0  0
    0.6253    0.5591    0.4854 H   0  0  0  0  0  0  0  0  0  0  0  0
    1.0854   -1.8115   -1.1946 H   0  0  0  0  0  0  0  0  0  0  0  0
   -0.4439   -0.9241   -1.3800 H   0  0  0  0  0  0  0  0  0  0  0  0
    0.5640   -2.1800    1.2273 H   0  0  0  0  0  0  0  0  0  0  0  0
   -1.8346   -0.7726    0.7671 H   0  0  0  0  0  0  0  0  0  0  0  0
    0.3407   -3.8152   -1.3896 H   0  0  0  0  0  0  0  0  0  0  0  0
   -0.9224   -5.8974   -1.9081 H   0  0  0  0  0  0  0  0  0  0  0  0
   -3.7940   -4.9546    1.1428 H   0  0  0  0  0  0  0  0  0  0  0  0
   -2.5308   -2.8539    1.6880 H   0  0  0  0  0  0  0  0  0  0  0  0
    1.1787    2.5471    0.4999 H   0  0  0  0  0  0  0  0  0  0  0  0
    2.3629    4.5273    1.4224 H   0  0  0  0  0  0  0  0  0  0  0  0
    6.7442    4.6187    0.6208 H   0  0  0  0  0  0  0  0  0  0  0  0
    6.4381    6.7665    2.6174 H   0  0  0  0  0  0  0  0  0  0  0  0
    7.0401    7.1825    1.0036 H   0  0  0  0  0  0  0  0  0  0  0  0
    8.3493    5.1639    2.9018 H   0  0  0  0  0  0  0  0  0  0  0  0
    9.1910    5.9506    0.3294 H   0  0  0  0  0  0  0  0  0  0  0  0
    7.6911    8.0925    3.7448 H   0  0  0  0  0  0  0  0  0  0  0  0
    9.1660    9.8870    4.6413 H   0  0  0  0  0  0  0  0  0  0  0  0
   12.5539    8.1336    2.6688 H   0  0  0  0  0  0  0  0  0  0  0  0
   11.0856    6.3107    1.7589 H   0  0  0  0  0  0  0  0  0  0  0  0
    6.1520    2.6804    0.5238 H   0  0  0  0  0  0  0  0  0  0  0  0
    4.9680    0.7032   -0.3984 H   0  0  0  0  0  0  0  0  0  0  0  0
  1  2  2  0
  2  3  1  0
  2 16  1  0
  3  4  1  0
  3 37  1  0
  4  5  1  0
  4 38  1  0
  4 39  1  0
  5  6  1  0
  5  7  1  0
  5 40  1  1
  6 41  1  0
  7  8  2  0
  7 15  1  0
  8  9  1  0
  8 42  1  0
  9 10  2  0
  9 43  1  0
 10 11  1  0
 10 14  1  0
 11 12  2  0
 11 13  1  0
 14 15  2  0
 14 44  1  0
 15 45  1  0
 16 17  2  0
 16 36  1  0
 17 18  1  0
 17 46  1  0
 18 19  2  0
 18 47  1  0
 19 20  1  0
 19 35  1  0
 20 21  2  0
 20 22  1  0
 22 23  1  0
 22 48  1  0
 23 24  1  0
 23 49  1  0
 23 50  1  0
 24 25  1  0
 24 26  1  0
 24 51  1  1
 25 52  1  0
 26 27  2  0
 26 34  1  0
 27 28  1  0
 27 53  1  0
 28 29  2  0
 28 54  1  0
 29 30  1  0
 29 33  1  0
 30 31  2  0
 30 32  1  0
 33 34  2  0
 33 55  1  0
 34 56  1  0
 35 36  2  0
 35 57  1  0
 36 58  1  0
M  CHG  4  11   1  13  -1  30   1  32  -1
M  END

