
     RDKit          3D

 36 36  0  0  0  0  0  0  0  0999 V2000
    0.8975    1.7200    1.2405 C   0  0  0  0  0  0  0  0  0  0  0  0
    2.3901    1.8577    1.0718 C   0  0  0  0  0  0  0  0  0  0  0  0
    2.8176    3.0590    0.2744 C   0  0  0  0  0  0  0  0  0  0  0  0
    3.2046    0.9238    1.6247 C   0  0  0  0  0  0  0  0  0  0  0  0
    4.6684    0.8120    1.6243 C   0  0  0  0  0  0  0  0  0  0  0  0
    5.4356    1.7737    1.0749 N   0  0  0  0  0  0  0  0  0  0  0  0
    6.7518    1.6175    1.1163 C   0  0  0  0  0  0  0  0  0  0  0  0
    7.4169    0.5941    1.6431 N   0  0  0  0  0  0  0  0  0  0  0  0
    6.6918   -0.3915    2.1930 C   0  0  0  0  0  0  0  0  0  0  0  0
    7.4980   -1.5460    2.7746 C   0  0  1  0  0  0  0  0  0  0  0  0
    8.3716   -2.1930    1.6868 C   0  0  0  0  0  0  0  0  0  0  0  0
    8.3542   -1.0534    3.9550 C   0  0  0  0  0  0  0  0  0  0  0  0
    5.2823   -0.3301    2.2235 C   0  0  0  0  0  0  0  0  0  0  0  0
    4.4613   -1.3367    2.8183 N   0  0  0  0  0  0  0  0  0  0  0  0
    4.2154   -2.5557    2.0709 C   0  0  0  0  0  0  0  0  0  0  0  0
    4.5317   -1.5142    4.2130 N   0  0  0  0  0  0  0  0  0  0  0  0
    0.4779    2.6136    1.7366 H   0  0  0  0  0  0  0  0  0  0  0  0
    0.6192    0.8340    1.8289 H   0  0  0  0  0  0  0  0  0  0  0  0
    0.3988    1.6551    0.2567 H   0  0  0  0  0  0  0  0  0  0  0  0
    2.4512    3.9805    0.7623 H   0  0  0  0  0  0  0  0  0  0  0  0
    2.3435    3.0347   -0.7234 H   0  0  0  0  0  0  0  0  0  0  0  0
    3.9043    3.1186    0.1658 H   0  0  0  0  0  0  0  0  0  0  0  0
    2.7265    0.1036    2.1636 H   0  0  0  0  0  0  0  0  0  0  0  0
    7.3552    2.4171    0.6669 H   0  0  0  0  0  0  0  0  0  0  0  0
    6.8000   -2.3116    3.1436 H   0  0  0  0  0  0  0  0  0  0  0  0
    9.0609   -1.4494    1.2598 H   0  0  0  0  0  0  0  0  0  0  0  0
    7.7578   -2.5972    0.8662 H   0  0  0  0  0  0  0  0  0  0  0  0
    8.9636   -3.0209    2.1088 H   0  0  0  0  0  0  0  0  0  0  0  0
    9.0437   -0.2643    3.6187 H   0  0  0  0  0  0  0  0  0  0  0  0
    8.9460   -1.8800    4.3794 H   0  0  0  0  0  0  0  0  0  0  0  0
    7.7312   -0.6315    4.7611 H   0  0  0  0  0  0  0  0  0  0  0  0
    3.9258   -2.2996    1.0393 H   0  0  0  0  0  0  0  0  0  0  0  0
    3.3836   -3.0984    2.5436 H   0  0  0  0  0  0  0  0  0  0  0  0
    5.0854   -3.2448    2.0172 H   0  0  0  0  0  0  0  0  0  0  0  0
    4.1014   -0.7127    4.6751 H   0  0  0  0  0  0  0  0  0  0  0  0
    5.4954   -1.5858    4.5536 H   0  0  0  0  0  0  0  0  0  0  0  0
  1  2  1  0
  1 17  1  0
  1 18  1  0
  1 19  1  0
  2  3  1  0
  2  4  2  0
  3 20  1  0
  3 21  1  0
  3 22  1  0
  4  5  1  0
  4 23  1  0
  5  6  2  0
  5 13  1  0
  6  7  1  0
  7  8  2  0
  7 24  1  0
  8  9  1  0
  9 10  1  0
  9 13  2  0
 10 11  1  0
 10 12  1  0
 10 25  1  1
 11 26  1  0
 11 27  1  0
 11 28  1  0
 12 29  1  0
 12 30  1  0
 12 31  1  0
 13 14  1  0
 14 15  1  0
 14 16  1  0
 15 32  1  0
 15 33  1  0
 15 34  1  0
 16 35  1  0
 16 36  1  0
M  END

