
     RDKit          3D

 43 44  0  0  0  0  0  0  0  0999 V2000
    5.7227   -2.9562    0.6388 C   0  0  0  0  0  0  0  0  0  0  0  0
    4.5594   -3.7473    0.4071 O   0  0  0  0  0  0  0  0  0  0  0  0
    3.8706   -4.1333    1.5383 C   0  0  0  0  0  0  0  0  0  0  0  0
    4.2607   -5.2759    2.2328 C   0  0  0  0  0  0  0  0  0  0  0  0
    3.5148   -5.6717    3.3483 C   0  0  0  0  0  0  0  0  0  0  0  0
    2.4122   -4.9314    3.7546 C   0  0  0  0  0  0  0  0  0  0  0  0
    2.0144   -3.7734    3.0561 C   0  0  0  0  0  0  0  0  0  0  0  0
    0.9123   -3.1745    3.5681 O   0  0  0  0  0  0  0  0  0  0  0  0
    0.5081   -1.8674    3.2006 C   0  0  0  0  0  0  0  0  0  0  0  0
    2.7441   -3.3700    1.9159 C   0  0  0  0  0  0  0  0  0  0  0  0
    2.4970   -2.1288    1.0767 C   0  0  0  0  0  0  0  0  0  0  0  0
    3.0286   -1.0649    1.3707 O   0  0  0  0  0  0  0  0  0  0  0  0
    1.6917   -2.2682   -0.0249 N   0  0  0  0  0  0  0  0  0  0  0  0
    1.5735   -1.1565   -0.9629 C   0  0  0  0  0  0  0  0  0  0  0  0
    2.3142   -1.4572   -2.2780 C   0  0  2  0  0  0  0  0  0  0  0  0
    2.1500   -0.3158   -3.2830 C   0  0  0  0  0  0  0  0  0  0  0  0
    1.8419   -2.8023   -2.8557 C   0  0  0  0  0  0  0  0  0  0  0  0
    1.9135   -3.9421   -1.8126 C   0  0  2  0  0  0  0  0  0  0  0  0
    1.3415   -5.2394   -2.3732 C   0  0  0  0  0  0  0  0  0  0  0  0
    0.3146   -5.7430   -2.0059 O   0  0  0  0  0  0  0  0  0  0  0  0
    2.0636   -5.8097   -3.3669 O   0  0  0  0  0  0  0  0  0  0  0  0
    1.1756   -3.5347   -0.5271 C   0  0  0  0  0  0  0  0  0  0  0  0
    6.1693   -2.7490   -0.3440 H   0  0  0  0  0  0  0  0  0  0  0  0
    6.4573   -3.4992    1.2592 H   0  0  0  0  0  0  0  0  0  0  0  0
    5.4576   -2.0056    1.1304 H   0  0  0  0  0  0  0  0  0  0  0  0
    5.1279   -5.8426    1.8892 H   0  0  0  0  0  0  0  0  0  0  0  0
    3.7989   -6.5678    3.9055 H   0  0  0  0  0  0  0  0  0  0  0  0
    1.8202   -5.2196    4.6250 H   0  0  0  0  0  0  0  0  0  0  0  0
   -0.2854   -1.5866    3.9065 H   0  0  0  0  0  0  0  0  0  0  0  0
    0.0963   -1.8398    2.1786 H   0  0  0  0  0  0  0  0  0  0  0  0
    1.3379   -1.1480    3.2713 H   0  0  0  0  0  0  0  0  0  0  0  0
    1.9838   -0.2628   -0.4771 H   0  0  0  0  0  0  0  0  0  0  0  0
    0.5017   -0.9808   -1.1735 H   0  0  0  0  0  0  0  0  0  0  0  0
    3.3856   -1.5542   -2.0250 H   0  0  0  0  0  0  0  0  0  0  0  0
    1.0900   -0.1722   -3.5537 H   0  0  0  0  0  0  0  0  0  0  0  0
    2.7054   -0.5189   -4.2127 H   0  0  0  0  0  0  0  0  0  0  0  0
    2.5221    0.6358   -2.8709 H   0  0  0  0  0  0  0  0  0  0  0  0
    2.4382   -3.0527   -3.7504 H   0  0  0  0  0  0  0  0  0  0  0  0
    0.7961   -2.7033   -3.2018 H   0  0  0  0  0  0  0  0  0  0  0  0
    2.9733   -4.1128   -1.5493 H   0  0  0  0  0  0  0  0  0  0  0  0
    2.8798   -5.3126   -3.5199 H   0  0  0  0  0  0  0  0  0  0  0  0
    1.2732   -4.3126    0.2378 H   0  0  0  0  0  0  0  0  0  0  0  0
    0.0992   -3.4314   -0.7463 H   0  0  0  0  0  0  0  0  0  0  0  0
  1  2  1  0
  1 23  1  0
  1 24  1  0
  1 25  1  0
  2  3  1  0
  3  4  2  0
  3 10  1  0
  4  5  1  0
  4 26  1  0
  5  6  2  0
  5 27  1  0
  6  7  1  0
  6 28  1  0
  7  8  1  0
  7 10  2  0
  8  9  1  0
  9 29  1  0
  9 30  1  0
  9 31  1  0
 10 11  1  0
 11 12  2  0
 11 13  1  0
 13 14  1  0
 13 22  1  0
 14 15  1  0
 14 32  1  0
 14 33  1  0
 15 16  1  0
 15 17  1  0
 15 34  1  1
 16 35  1  0
 16 36  1  0
 16 37  1  0
 17 18  1  0
 17 38  1  0
 17 39  1  0
 18 19  1  0
 18 22  1  0
 18 40  1  1
 19 20  2  0
 19 21  1  0
 21 41  1  0
 22 42  1  0
 22 43  1  0
M  END

