
     RDKit          3D

 62 65  0  0  0  0  0  0  0  0999 V2000
    3.9174    1.6741   -0.8660 C   0  0  0  0  0  0  0  0  0  0  0  0
    3.9132    1.2449    0.4752 O   0  0  0  0  0  0  0  0  0  0  0  0
    4.2565   -0.0337    0.7737 C   0  0  0  0  0  0  0  0  0  0  0  0
    4.2389   -0.3763    2.1342 C   0  0  0  0  0  0  0  0  0  0  0  0
    4.5819   -1.6687    2.5174 C   0  0  0  0  0  0  0  0  0  0  0  0
    4.9451   -2.6256    1.5725 C   0  0  0  0  0  0  0  0  0  0  0  0
    5.2861   -3.9682    1.9611 N   0  0  0  0  0  0  0  0  0  0  0  0
    4.2139   -4.9104    1.9658 C   0  0  0  0  0  0  0  0  0  0  0  0
    3.0969   -4.5157    1.6924 O   0  0  0  0  0  0  0  0  0  0  0  0
    4.5542   -6.2991    2.3170 C   0  0  0  0  0  0  0  0  0  0  0  0
    3.6724   -7.3546    2.4171 C   0  0  0  0  0  0  0  0  0  0  0  0
    2.2666   -7.5525    2.2643 C   0  0  0  0  0  0  0  0  0  0  0  0
    1.1848   -6.6615    1.9170 C   0  0  0  0  0  0  0  0  0  0  0  0
    0.0208   -7.3796    1.9145 C   0  0  0  0  0  0  0  0  0  0  0  0
   -1.3789   -6.9549    1.6112 C   0  0  0  0  0  0  0  0  0  0  0  0
    0.3395   -8.7079    2.2540 N   0  0  0  0  0  0  0  0  0  0  0  0
   -0.6157   -9.7673    2.3815 C   0  0  0  0  0  0  0  0  0  0  0  0
   -0.9175  -10.5465    1.2604 C   0  0  0  0  0  0  0  0  0  0  0  0
   -1.8455  -11.5934    1.3431 C   0  0  0  0  0  0  0  0  0  0  0  0
   -2.1933  -12.4853    0.1818 C   0  0  0  0  0  0  0  0  0  0  0  0
   -2.7130  -13.5603    0.3193 O   0  0  0  0  0  0  0  0  0  0  0  0
   -1.8954  -12.0209   -1.0522 O   0  0  0  0  0  0  0  0  0  0  0  0
   -2.4517  -11.8571    2.5796 C   0  0  0  0  0  0  0  0  0  0  0  0
   -2.1577  -11.0711    3.6910 C   0  0  0  0  0  0  0  0  0  0  0  0
   -1.2380  -10.0109    3.6235 C   0  0  0  0  0  0  0  0  0  0  0  0
   -0.9202   -9.1737    4.8350 C   0  0  0  0  0  0  0  0  0  0  0  0
    1.6865   -8.8287    2.4660 C   0  0  0  0  0  0  0  0  0  0  0  0
    2.3025  -10.1420    2.8239 C   0  0  0  0  0  0  0  0  0  0  0  0
    5.9662   -6.6519    2.5976 C   0  0  0  0  0  0  0  0  0  0  0  0
    6.3718   -7.7647    2.8880 O   0  0  0  0  0  0  0  0  0  0  0  0
    6.8625   -5.5932    2.5102 N   0  0  0  0  0  0  0  0  0  0  0  0
    6.6143   -4.2763    2.2024 C   0  0  0  0  0  0  0  0  0  0  0  0
    7.8616   -3.1837    2.1512 S   0  0  0  0  0  0  0  0  0  0  0  0
    4.9541   -2.2895    0.2074 C   0  0  0  0  0  0  0  0  0  0  0  0
    5.3034   -3.2787   -0.6472 O   0  0  0  0  0  0  0  0  0  0  0  0
    5.3788   -3.0161   -2.0297 C   0  0  0  0  0  0  0  0  0  0  0  0
    4.6127   -0.9886   -0.1933 C   0  0  0  0  0  0  0  0  0  0  0  0
    3.6171    2.7307   -0.8580 H   0  0  0  0  0  0  0  0  0  0  0  0
    3.1989    1.1055   -1.4843 H   0  0  0  0  0  0  0  0  0  0  0  0
    4.9208    1.5931   -1.3224 H   0  0  0  0  0  0  0  0  0  0  0  0
    3.9584    0.3832    2.8649 H   0  0  0  0  0  0  0  0  0  0  0  0
    4.5778   -1.9476    3.5729 H   0  0  0  0  0  0  0  0  0  0  0  0
    4.2150   -8.2657    2.6904 H   0  0  0  0  0  0  0  0  0  0  0  0
    1.2992   -5.6071    1.6940 H   0  0  0  0  0  0  0  0  0  0  0  0
   -1.3904   -5.8804    1.3832 H   0  0  0  0  0  0  0  0  0  0  0  0
   -2.0663   -7.1284    2.4567 H   0  0  0  0  0  0  0  0  0  0  0  0
   -1.7999   -7.4893    0.7424 H   0  0  0  0  0  0  0  0  0  0  0  0
   -0.3820  -10.3255    0.3329 H   0  0  0  0  0  0  0  0  0  0  0  0
   -1.6181  -11.0952   -1.0166 H   0  0  0  0  0  0  0  0  0  0  0  0
   -3.1564  -12.6880    2.6458 H   0  0  0  0  0  0  0  0  0  0  0  0
   -2.6493  -11.2831    4.6439 H   0  0  0  0  0  0  0  0  0  0  0  0
   -1.5405   -9.4690    5.6923 H   0  0  0  0  0  0  0  0  0  0  0  0
   -1.0845   -8.1019    4.6415 H   0  0  0  0  0  0  0  0  0  0  0  0
    0.1373   -9.2767    5.1289 H   0  0  0  0  0  0  0  0  0  0  0  0
    2.1613  -10.8874    2.0233 H   0  0  0  0  0  0  0  0  0  0  0  0
    1.8551  -10.5684    3.7370 H   0  0  0  0  0  0  0  0  0  0  0  0
    3.3806  -10.0401    2.9973 H   0  0  0  0  0  0  0  0  0  0  0  0
    7.8362   -5.8175    2.6963 H   0  0  0  0  0  0  0  0  0  0  0  0
    5.6926   -3.9533   -2.5084 H   0  0  0  0  0  0  0  0  0  0  0  0
    6.1233   -2.2324   -2.2571 H   0  0  0  0  0  0  0  0  0  0  0  0
    4.4002   -2.7140   -2.4444 H   0  0  0  0  0  0  0  0  0  0  0  0
    4.6245   -0.7268   -1.2480 H   0  0  0  0  0  0  0  0  0  0  0  0
  1  2  1  0
  1 38  1  0
  1 39  1  0
  1 40  1  0
  2  3  1  0
  3  4  2  0
  3 37  1  0
  4  5  1  0
  4 41  1  0
  5  6  2  0
  5 42  1  0
  6  7  1  0
  6 34  1  0
  7  8  1  0
  7 32  1  0
  8  9  2  0
  8 10  1  0
 10 11  2  0
 10 29  1  0
 11 12  1  0
 11 43  1  0
 12 13  1  0
 12 27  2  0
 13 14  2  0
 13 44  1  0
 14 15  1  0
 14 16  1  0
 15 45  1  0
 15 46  1  0
 15 47  1  0
 16 17  1  0
 16 27  1  0
 17 18  2  0
 17 25  1  0
 18 19  1  0
 18 48  1  0
 19 20  1  0
 19 23  2  0
 20 21  2  0
 20 22  1  0
 22 49  1  0
 23 24  1  0
 23 50  1  0
 24 25  2  0
 24 51  1  0
 25 26  1  0
 26 52  1  0
 26 53  1  0
 26 54  1  0
 27 28  1  0
 28 55  1  0
 28 56  1  0
 28 57  1  0
 29 30  2  0
 29 31  1  0
 31 32  1  0
 31 58  1  0
 32 33  2  0
 34 35  1  0
 34 37  2  0
 35 36  1  0
 36 59  1  0
 36 60  1  0
 36 61  1  0
 37 62  1  0
M  END

