
     RDKit          3D

 56 60  0  0  0  0  0  0  0  0999 V2000
    0.7783    1.8098   -0.4814 O   0  0  0  0  0  0  0  0  0  0  0  0
    1.9442    1.4515   -0.3253 C   0  0  0  0  0  0  0  0  0  0  0  0
    2.8630    1.5326   -1.3299 N   0  0  0  0  0  0  0  0  0  0  0  0
    2.5302    2.0258   -2.6607 C   0  0  1  0  0  0  0  0  0  0  0  0
    3.6081    2.9913   -3.2066 C   0  0  2  0  0  0  0  0  0  0  0  0
    3.0931    3.6125   -4.5207 C   0  0  0  0  0  0  0  0  0  0  0  0
    2.8398    2.5012   -5.5581 C   0  0  2  0  0  0  0  0  0  0  0  0
    1.7886    1.5186   -5.0059 C   0  0  0  0  0  0  0  0  0  0  0  0
    2.3006    0.8925   -3.6936 C   0  0  1  0  0  0  0  0  0  0  0  0
    3.6213    0.1459   -3.9641 C   0  0  0  0  0  0  0  0  0  0  0  0
    4.6833    1.1187   -4.5169 C   0  0  1  0  0  0  0  0  0  0  0  0
    5.9309    0.4720   -4.7103 O   0  0  0  0  0  0  0  0  0  0  0  0
    4.1576    1.7462   -5.8236 C   0  0  0  0  0  0  0  0  0  0  0  0
    4.9217    2.2346   -3.4878 C   0  0  0  0  0  0  0  0  0  0  0  0
    2.3919    0.8774    1.0022 C   0  0  1  0  0  0  0  0  0  0  0  0
    1.3561    1.0657    2.1059 C   0  0  0  0  0  0  0  0  0  0  0  0
    0.0772    0.4068    1.8561 N   0  0  0  0  0  0  0  0  0  0  0  0
   -0.2056   -1.1617    2.3248 S   0  0  1  0  0  0  0  0  0  0  0  0
   -0.7328   -1.9056    1.1784 O   0  0  0  0  0  0  0  0  0  0  0  0
    0.9604   -1.6398    3.0780 O   0  0  0  0  0  0  0  0  0  0  0  0
   -1.5625   -1.0183    3.4986 C   0  0  0  0  0  0  0  0  0  0  0  0
   -2.7474   -1.7212    3.2655 C   0  0  0  0  0  0  0  0  0  0  0  0
   -3.7920   -1.6563    4.1915 C   0  0  0  0  0  0  0  0  0  0  0  0
   -3.6493   -0.8885    5.3511 C   0  0  0  0  0  0  0  0  0  0  0  0
   -2.4671   -0.1812    5.5916 C   0  0  0  0  0  0  0  0  0  0  0  0
   -1.4324   -0.2559    4.6647 C   0  0  0  0  0  0  0  0  0  0  0  0
   -0.3063    0.4295    4.8911 F   0  0  0  0  0  0  0  0  0  0  0  0
    3.2210   -0.3998    1.0018 C   0  0  0  0  0  0  0  0  0  0  0  0
    3.8526    0.8927    1.4152 C   0  0  0  0  0  0  0  0  0  0  0  0
    3.8122    1.2304   -1.1538 H   0  0  0  0  0  0  0  0  0  0  0  0
    1.5837    2.5701   -2.5328 H   0  0  0  0  0  0  0  0  0  0  0  0
    3.7853    3.7841   -2.4612 H   0  0  0  0  0  0  0  0  0  0  0  0
    3.8333    4.3335   -4.9074 H   0  0  0  0  0  0  0  0  0  0  0  0
    2.1642    4.1768   -4.3332 H   0  0  0  0  0  0  0  0  0  0  0  0
    2.4742    2.9483   -6.4977 H   0  0  0  0  0  0  0  0  0  0  0  0
    1.5826    0.7251   -5.7446 H   0  0  0  0  0  0  0  0  0  0  0  0
    0.8343    2.0422   -4.8276 H   0  0  0  0  0  0  0  0  0  0  0  0
    1.5473    0.1973   -3.2894 H   0  0  0  0  0  0  0  0  0  0  0  0
    3.4522   -0.6682   -4.6919 H   0  0  0  0  0  0  0  0  0  0  0  0
    4.0113   -0.3293   -3.0483 H   0  0  0  0  0  0  0  0  0  0  0  0
    5.8056   -0.2367   -5.3564 H   0  0  0  0  0  0  0  0  0  0  0  0
    3.9982    0.9499   -6.5738 H   0  0  0  0  0  0  0  0  0  0  0  0
    4.9275    2.4234   -6.2296 H   0  0  0  0  0  0  0  0  0  0  0  0
    5.6901    2.9232   -3.8755 H   0  0  0  0  0  0  0  0  0  0  0  0
    5.3490    1.7867   -2.5734 H   0  0  0  0  0  0  0  0  0  0  0  0
    1.1511    2.1406    2.2320 H   0  0  0  0  0  0  0  0  0  0  0  0
    1.7518    0.6887    3.0575 H   0  0  0  0  0  0  0  0  0  0  0  0
   -0.3191    0.6264    0.9399 H   0  0  0  0  0  0  0  0  0  0  0  0
   -2.8278   -2.3103    2.3503 H   0  0  0  0  0  0  0  0  0  0  0  0
   -4.7169   -2.2066    4.0060 H   0  0  0  0  0  0  0  0  0  0  0  0
   -4.4637   -0.8345    6.0776 H   0  0  0  0  0  0  0  0  0  0  0  0
   -2.3305    0.4291    6.4864 H   0  0  0  0  0  0  0  0  0  0  0  0
    3.4867   -0.8262    0.0302 H   0  0  0  0  0  0  0  0  0  0  0  0
    2.9681   -1.1378    1.7673 H   0  0  0  0  0  0  0  0  0  0  0  0
    4.5831    1.3750    0.7587 H   0  0  0  0  0  0  0  0  0  0  0  0
    4.0583    1.0523    2.4778 H   0  0  0  0  0  0  0  0  0  0  0  0
  1  2  2  0
  2  3  1  0
 15  2  1  6
  3  4  1  0
  3 30  1  0
  4  5  1  0
  4  9  1  0
  4 31  1  1
  5  6  1  0
  5 14  1  0
  5 32  1  1
  6  7  1  0
  6 33  1  0
  6 34  1  0
  7  8  1  0
  7 13  1  0
  7 35  1  6
  8  9  1  0
  8 36  1  0
  8 37  1  0
  9 10  1  0
  9 38  1  1
 10 11  1  0
 10 39  1  0
 10 40  1  0
 11 12  1  6
 11 13  1  0
 11 14  1  0
 12 41  1  0
 13 42  1  0
 13 43  1  0
 14 44  1  0
 14 45  1  0
 15 16  1  0
 15 28  1  0
 15 29  1  0
 16 17  1  0
 16 46  1  0
 16 47  1  0
 18 17  1  6
 17 48  1  0
 18 19  2  0
 18 20  2  0
 18 21  1  0
 21 22  2  0
 21 26  1  0
 22 23  1  0
 22 49  1  0
 23 24  2  0
 23 50  1  0
 24 25  1  0
 24 51  1  0
 25 26  2  0
 25 52  1  0
 26 27  1  0
 28 29  1  0
 28 53  1  0
 28 54  1  0
 29 55  1  0
 29 56  1  0
M  END

