
     RDKit          3D

 61 64  0  0  0  0  0  0  0  0999 V2000
    9.3498  -13.7498  -11.1453 O   0  0  0  0  0  0  0  0  0  0  0  0
    9.9110  -12.6873  -11.2159 C   0  0  0  0  0  0  0  0  0  0  0  0
   11.2471  -12.6383  -11.4375 O   0  0  0  0  0  0  0  0  0  0  0  0
    9.2064  -11.3705  -11.0781 C   0  0  0  0  0  0  0  0  0  0  0  0
    9.8653  -10.1608  -10.8033 C   0  0  0  0  0  0  0  0  0  0  0  0
    9.1509   -8.9721  -10.6702 C   0  0  0  0  0  0  0  0  0  0  0  0
    7.7480   -8.9413  -10.8102 C   0  0  0  0  0  0  0  0  0  0  0  0
    6.9895   -7.6764  -10.6775 C   0  0  0  0  0  0  0  0  0  0  0  0
    7.5419   -6.4387  -11.0555 C   0  0  0  0  0  0  0  0  0  0  0  0
    6.8362   -5.2431  -10.9421 C   0  0  0  0  0  0  0  0  0  0  0  0
    5.5215   -5.2272  -10.4238 C   0  0  0  0  0  0  0  0  0  0  0  0
    4.7909   -4.0712  -10.2713 N   0  0  0  0  0  0  0  0  0  0  0  0
    5.2291   -2.7339  -10.6086 C   0  0  0  0  0  0  0  0  0  0  0  0
    5.0962   -2.3560  -12.1047 C   0  0  1  0  0  0  0  0  0  0  0  0
    3.6389   -2.4182  -12.6104 C   0  0  0  0  0  0  0  0  0  0  0  0
    2.8024   -1.2115  -12.1470 C   0  0  0  0  0  0  0  0  0  0  0  0
    3.4064    0.0763  -12.4769 N   0  0  0  0  0  0  0  0  0  0  0  0
    3.2263    0.5589  -13.8317 C   0  0  0  0  0  0  0  0  0  0  0  0
    1.8127    1.0597  -14.1947 C   0  0  1  0  0  0  0  0  0  0  0  0
    1.2603    1.9954  -13.1244 C   0  0  1  0  0  0  0  0  0  0  0  0
    2.1547    2.9370  -12.7723 F   0  0  0  0  0  0  0  0  0  0  0  0
    0.1594    2.6531  -13.5623 F   0  0  0  0  0  0  0  0  0  0  0  0
    0.8852    1.3470  -12.0093 F   0  0  0  0  0  0  0  0  0  0  0  0
    1.7408    1.7045  -15.6167 C   0  0  0  0  0  0  0  0  0  0  0  0
    0.4780    0.8680  -15.9393 C   0  0  0  0  0  0  0  0  0  0  0  0
    0.7339    0.0267  -14.6642 C   0  0  0  0  0  0  0  0  0  0  0  0
    4.7581    0.1785  -11.9390 C   0  0  0  0  0  0  0  0  0  0  0  0
    5.6922   -0.9606  -12.3905 C   0  0  0  0  0  0  0  0  0  0  0  0
    4.9606   -6.4689  -10.0397 C   0  0  0  0  0  0  0  0  0  0  0  0
    5.6742   -7.6523  -10.1674 C   0  0  0  0  0  0  0  0  0  0  0  0
    7.0964  -10.1657  -11.0745 C   0  0  0  0  0  0  0  0  0  0  0  0
    7.8073  -11.3550  -11.1947 C   0  0  0  0  0  0  0  0  0  0  0  0
   11.5261  -11.7278  -11.6056 H   0  0  0  0  0  0  0  0  0  0  0  0
   10.9483  -10.1346  -10.6447 H   0  0  0  0  0  0  0  0  0  0  0  0
    9.6884   -8.0558  -10.4183 H   0  0  0  0  0  0  0  0  0  0  0  0
    8.5468   -6.4056  -11.4832 H   0  0  0  0  0  0  0  0  0  0  0  0
    7.3108   -4.3181  -11.2708 H   0  0  0  0  0  0  0  0  0  0  0  0
    3.8666   -4.1747   -9.8759 H   0  0  0  0  0  0  0  0  0  0  0  0
    6.2823   -2.6059  -10.3021 H   0  0  0  0  0  0  0  0  0  0  0  0
    4.6526   -2.0336   -9.9839 H   0  0  0  0  0  0  0  0  0  0  0  0
    5.6817   -3.1030  -12.6672 H   0  0  0  0  0  0  0  0  0  0  0  0
    3.1648   -3.3587  -12.2823 H   0  0  0  0  0  0  0  0  0  0  0  0
    3.6483   -2.4535  -13.7136 H   0  0  0  0  0  0  0  0  0  0  0  0
    2.6661   -1.2464  -11.0501 H   0  0  0  0  0  0  0  0  0  0  0  0
    1.7889   -1.2617  -12.5688 H   0  0  0  0  0  0  0  0  0  0  0  0
    3.5075   -0.1764  -14.6199 H   0  0  0  0  0  0  0  0  0  0  0  0
    3.9064    1.4160  -13.9635 H   0  0  0  0  0  0  0  0  0  0  0  0
    2.6132    1.4130  -16.2213 H   0  0  0  0  0  0  0  0  0  0  0  0
    1.6451    2.7992  -15.6525 H   0  0  0  0  0  0  0  0  0  0  0  0
    0.4852    0.3221  -16.8943 H   0  0  0  0  0  0  0  0  0  0  0  0
   -0.4469    1.4579  -15.8797 H   0  0  0  0  0  0  0  0  0  0  0  0
    1.1877   -0.9511  -14.8831 H   0  0  0  0  0  0  0  0  0  0  0  0
   -0.1194   -0.1305  -13.9883 H   0  0  0  0  0  0  0  0  0  0  0  0
    4.6846    0.1845  -10.8356 H   0  0  0  0  0  0  0  0  0  0  0  0
    5.1822    1.1556  -12.2197 H   0  0  0  0  0  0  0  0  0  0  0  0
    6.6772   -0.8536  -11.9023 H   0  0  0  0  0  0  0  0  0  0  0  0
    5.8756   -0.8667  -13.4751 H   0  0  0  0  0  0  0  0  0  0  0  0
    3.9491   -6.4912   -9.6232 H   0  0  0  0  0  0  0  0  0  0  0  0
    5.2062   -8.5813   -9.8338 H   0  0  0  0  0  0  0  0  0  0  0  0
    6.0130  -10.1799  -11.2100 H   0  0  0  0  0  0  0  0  0  0  0  0
    7.2949  -12.2978  -11.3953 H   0  0  0  0  0  0  0  0  0  0  0  0
  1  2  2  0
  2  3  1  0
  2  4  1  0
  3 33  1  0
  4  5  2  0
  4 32  1  0
  5  6  1  0
  5 34  1  0
  6  7  2  0
  6 35  1  0
  7  8  1  0
  7 31  1  0
  8  9  2  0
  8 30  1  0
  9 10  1  0
  9 36  1  0
 10 11  2  0
 10 37  1  0
 11 12  1  0
 11 29  1  0
 12 13  1  0
 12 38  1  0
 13 14  1  0
 13 39  1  0
 13 40  1  0
 14 15  1  0
 14 28  1  0
 14 41  1  6
 15 16  1  0
 15 42  1  0
 15 43  1  0
 16 17  1  0
 16 44  1  0
 16 45  1  0
 17 18  1  0
 17 27  1  0
 19 18  1  1
 18 46  1  0
 18 47  1  0
 19 20  1  0
 19 24  1  0
 19 26  1  0
 20 21  1  1
 20 22  1  0
 20 23  1  0
 24 25  1  0
 24 48  1  0
 24 49  1  0
 25 26  1  0
 25 50  1  0
 25 51  1  0
 26 52  1  0
 26 53  1  0
 27 28  1  0
 27 54  1  0
 27 55  1  0
 28 56  1  0
 28 57  1  0
 29 30  2  0
 29 58  1  0
 30 59  1  0
 31 32  2  0
 31 60  1  0
 32 61  1  0
M  END

