
     RDKit          3D

 33 34  0  0  0  0  0  0  0  0999 V2000
    2.8321   -0.2125   -1.5421 C   0  0  0  0  0  0  0  0  0  0  0  0
    2.6939    0.1359   -0.0592 C   0  0  0  0  0  0  0  0  0  0  0  0
    3.0984    1.5027    0.2945 N   0  0  0  0  0  0  0  0  0  0  0  0
    2.0857    2.5058    0.5620 C   0  0  0  0  0  0  0  0  0  0  0  0
    1.8217    3.5405   -0.5273 C   0  0  0  0  0  0  0  0  0  0  0  0
    2.4839    3.5499   -1.7616 C   0  0  0  0  0  0  0  0  0  0  0  0
    2.1586    4.5443   -2.6881 C   0  0  0  0  0  0  0  0  0  0  0  0
    1.1883    5.4890   -2.3534 C   0  0  0  0  0  0  0  0  0  0  0  0
    0.5861    5.3940   -1.0938 C   0  0  0  0  0  0  0  0  0  0  0  0
    0.8933    4.4502   -0.2043 N   0  0  0  0  0  0  0  0  0  0  0  0
    4.4337    1.7855    0.4563 C   0  0  0  0  0  0  0  0  0  0  0  0
    4.9184    3.0802    0.8238 C   0  0  0  0  0  0  0  0  0  0  0  0
    6.2089    3.3134    0.9842 N   0  0  0  0  0  0  0  0  0  0  0  0
    7.0684    2.3077    0.7759 C   0  0  0  0  0  0  0  0  0  0  0  0
    6.6105    1.0412    0.4018 C   0  0  0  0  0  0  0  0  0  0  0  0
    7.5579   -0.0903    0.1216 C   0  0  0  0  0  0  0  0  0  0  0  0
    7.7354   -0.3719   -1.6670 Cl  0  0  0  0  0  0  0  0  0  0  0  0
    5.3071    0.7907    0.2541 N   0  0  0  0  0  0  0  0  0  0  0  0
    2.5036   -1.2505   -1.7145 H   0  0  0  0  0  0  0  0  0  0  0  0
    3.8827   -0.1347   -1.8587 H   0  0  0  0  0  0  0  0  0  0  0  0
    2.2165    0.4458   -2.1750 H   0  0  0  0  0  0  0  0  0  0  0  0
    3.3016   -0.5657    0.5317 H   0  0  0  0  0  0  0  0  0  0  0  0
    1.6475    0.0188    0.2621 H   0  0  0  0  0  0  0  0  0  0  0  0
    2.3138    3.0551    1.4921 H   0  0  0  0  0  0  0  0  0  0  0  0
    1.1336    1.9908    0.7612 H   0  0  0  0  0  0  0  0  0  0  0  0
    3.2376    2.7956   -1.9896 H   0  0  0  0  0  0  0  0  0  0  0  0
    2.6606    4.5787   -3.6585 H   0  0  0  0  0  0  0  0  0  0  0  0
    0.9029    6.2838   -3.0460 H   0  0  0  0  0  0  0  0  0  0  0  0
   -0.1799    6.1188   -0.7922 H   0  0  0  0  0  0  0  0  0  0  0  0
    4.2399    3.9241    0.9738 H   0  0  0  0  0  0  0  0  0  0  0  0
    8.1359    2.5159    0.9013 H   0  0  0  0  0  0  0  0  0  0  0  0
    7.1737   -1.0275    0.5430 H   0  0  0  0  0  0  0  0  0  0  0  0
    8.5631    0.1131    0.5108 H   0  0  0  0  0  0  0  0  0  0  0  0
  1  2  1  0
  1 19  1  0
  1 20  1  0
  1 21  1  0
  2  3  1  0
  2 22  1  0
  2 23  1  0
  3  4  1  0
  3 11  1  0
  4  5  1  0
  4 24  1  0
  4 25  1  0
  5  6  2  0
  5 10  1  0
  6  7  1  0
  6 26  1  0
  7  8  2  0
  7 27  1  0
  8  9  1  0
  8 28  1  0
  9 10  2  0
  9 29  1  0
 11 12  2  0
 11 18  1  0
 12 13  1  0
 12 30  1  0
 13 14  2  0
 14 15  1  0
 14 31  1  0
 15 16  1  0
 15 18  2  0
 16 17  1  0
 16 32  1  0
 16 33  1  0
M  END

