
     RDKit          3D

 20 19  0  0  0  0  0  0  0  0999 V2000
    1.1222    0.6046   -2.1088 N   0  0  0  0  0  0  0  0  0  0  0  0
    2.4688    0.5848   -1.7407 N   0  0  0  0  0  0  0  0  0  0  0  0
    2.9573    1.2909   -0.6997 C   0  0  0  0  0  0  0  0  0  0  0  0
    2.2408    1.9744    0.0312 O   0  0  0  0  0  0  0  0  0  0  0  0
    4.4828    1.2087   -0.5177 C   0  0  1  0  0  0  0  0  0  0  0  0
    4.6436    1.0924    0.5717 H   0  0  0  0  0  0  0  0  0  0  0  0
    5.0218    0.0905   -1.2965 N   0  0  0  0  0  0  0  0  0  0  0  0
    5.1650    2.5243   -0.9632 C   0  0  0  0  0  0  0  0  0  0  0  0
    5.2357    3.6931    0.0342 C   0  0  0  0  0  0  0  0  0  0  0  0
    4.1682    3.8624    0.8513 N   0  0  0  0  0  0  0  0  0  0  0  0
    6.2200    4.4144    0.0483 O   0  0  0  0  0  0  0  0  0  0  0  0
    0.8235    1.5821   -2.1676 H   0  0  0  0  0  0  0  0  0  0  0  0
    0.5725    0.2078   -1.3422 H   0  0  0  0  0  0  0  0  0  0  0  0
    3.1318    0.0843   -2.3287 H   0  0  0  0  0  0  0  0  0  0  0  0
    4.8862   -0.7935   -0.8056 H   0  0  0  0  0  0  0  0  0  0  0  0
    6.0249    0.1993   -1.4361 H   0  0  0  0  0  0  0  0  0  0  0  0
    4.7064    2.8907   -1.8983 H   0  0  0  0  0  0  0  0  0  0  0  0
    6.2182    2.3145   -1.2022 H   0  0  0  0  0  0  0  0  0  0  0  0
    3.3255    3.2859    0.7684 H   0  0  0  0  0  0  0  0  0  0  0  0
    4.1944    4.6530    1.4850 H   0  0  0  0  0  0  0  0  0  0  0  0
  1  2  1  0
  1 12  1  0
  1 13  1  0
  2  3  1  0
  2 14  1  0
  3  4  2  0
  3  5  1  0
  5  6  1  1
  5  7  1  0
  5  8  1  0
  7 15  1  0
  7 16  1  0
  8  9  1  0
  8 17  1  0
  8 18  1  0
  9 10  1  0
  9 11  2  0
 10 19  1  0
 10 20  1  0
M  END

