
     RDKit          3D

103103  0  0  0  0  0  0  0  0999 V2000
    0.2124   -7.7693    5.0493 C   0  0  0  0  0  0  0  0  0  0  0  0
    1.7106   -7.7547    5.3560 C   0  0  0  0  0  0  0  0  0  0  0  0
    2.3444   -6.3638    5.2537 C   0  0  0  0  0  0  0  0  0  0  0  0
    3.8447   -6.3400    5.5594 C   0  0  0  0  0  0  0  0  0  0  0  0
    4.4771   -4.9491    5.4549 C   0  0  0  0  0  0  0  0  0  0  0  0
    5.9777   -4.9246    5.7607 C   0  0  0  0  0  0  0  0  0  0  0  0
    6.6074   -3.5330    5.6533 C   0  0  0  0  0  0  0  0  0  0  0  0
    8.1136   -3.5097    5.9476 C   0  0  0  0  0  0  0  0  0  0  0  0
    8.6833   -2.0809    5.8895 C   0  0  0  0  0  0  0  0  0  0  0  0
   10.2209   -1.8708    5.8736 C   0  0  1  0  0  0  0  0  0  0  0  0
   10.9031   -2.7848    4.8253 C   0  0  0  0  0  0  0  0  0  0  0  0
   10.3130   -2.7597    3.4101 C   0  0  0  0  0  0  0  0  0  0  0  0
   11.1590   -3.5606    2.4132 C   0  0  0  0  0  0  0  0  0  0  0  0
   10.5945   -3.5697    0.9897 C   0  0  0  0  0  0  0  0  0  0  0  0
   11.4414   -4.3638   -0.0091 C   0  0  0  0  0  0  0  0  0  0  0  0
   10.8767   -4.3731   -1.4327 C   0  0  0  0  0  0  0  0  0  0  0  0
   11.7229   -5.1672   -2.4320 C   0  0  0  0  0  0  0  0  0  0  0  0
   11.1585   -5.1764   -3.8562 C   0  0  0  0  0  0  0  0  0  0  0  0
   12.0093   -5.9716   -4.8475 C   0  0  0  0  0  0  0  0  0  0  0  0
   10.5412   -0.5084    5.4081 O   0  0  0  0  0  0  0  0  0  0  0  0
    9.6809    0.4882    5.0444 C   0  0  0  0  0  0  0  0  0  0  0  0
    8.7291    1.0559    5.9102 C   0  0  0  0  0  0  0  0  0  0  0  0
    7.9611    2.1448    5.4865 C   0  0  0  0  0  0  0  0  0  0  0  0
    8.1353    2.6966    4.2141 C   0  0  0  0  0  0  0  0  0  0  0  0
    9.0945    2.1454    3.3588 C   0  0  0  0  0  0  0  0  0  0  0  0
    9.8583    1.0498    3.7667 C   0  0  0  0  0  0  0  0  0  0  0  0
   10.9263   -1.9879    7.3017 C   0  0  1  0  0  0  0  0  0  0  0  0
   10.6115   -0.7716    8.2015 C   0  0  0  0  0  0  0  0  0  0  0  0
    9.2532   -0.7794    8.6360 O   0  0  0  0  0  0  0  0  0  0  0  0
   10.4960   -3.2381    8.1276 C   0  0  0  0  0  0  0  0  0  0  0  0
   10.7772   -4.4922    7.5389 O   0  0  0  0  0  0  0  0  0  0  0  0
   12.4806   -2.1323    7.1861 C   0  0  0  0  0  0  0  0  0  0  0  0
   13.1873   -1.2893    6.3076 O   0  0  0  0  0  0  0  0  0  0  0  0
   13.5148    0.0050    6.7636 C   0  0  0  0  0  0  0  0  0  0  0  0
   14.4995    0.6744    5.7923 C   0  0  1  0  0  0  0  0  0  0  0  0
   13.8522    0.7281    4.3888 C   0  0  0  0  0  0  0  0  0  0  0  0
   14.7165    1.2290    3.3673 O   0  0  0  0  0  0  0  0  0  0  0  0
   14.8004    2.0978    6.3139 C   0  0  0  0  0  0  0  0  0  0  0  0
   13.6523    2.8904    6.5566 O   0  0  0  0  0  0  0  0  0  0  0  0
   15.8188   -0.1350    5.7384 C   0  0  0  0  0  0  0  0  0  0  0  0
   16.8331    0.4771    4.9741 O   0  0  0  0  0  0  0  0  0  0  0  0
   -0.2090   -8.7839    5.1324 H   0  0  0  0  0  0  0  0  0  0  0  0
    0.0086   -7.4074    4.0274 H   0  0  0  0  0  0  0  0  0  0  0  0
   -0.3456   -7.1197    5.7445 H   0  0  0  0  0  0  0  0  0  0  0  0
    2.2348   -8.4432    4.6682 H   0  0  0  0  0  0  0  0  0  0  0  0
    1.8835   -8.1581    6.3705 H   0  0  0  0  0  0  0  0  0  0  0  0
    1.8207   -5.6738    5.9417 H   0  0  0  0  0  0  0  0  0  0  0  0
    2.1723   -5.9592    4.2386 H   0  0  0  0  0  0  0  0  0  0  0  0
    4.3679   -7.0308    4.8721 H   0  0  0  0  0  0  0  0  0  0  0  0
    4.0165   -6.7433    6.5749 H   0  0  0  0  0  0  0  0  0  0  0  0
    3.9545   -4.2578    6.1420 H   0  0  0  0  0  0  0  0  0  0  0  0
    4.3060   -4.5457    4.4395 H   0  0  0  0  0  0  0  0  0  0  0  0
    6.5007   -5.6169    5.0745 H   0  0  0  0  0  0  0  0  0  0  0  0
    6.1486   -5.3262    6.7772 H   0  0  0  0  0  0  0  0  0  0  0  0
    6.0919   -2.8423    6.3453 H   0  0  0  0  0  0  0  0  0  0  0  0
    6.4309   -3.1276    4.6402 H   0  0  0  0  0  0  0  0  0  0  0  0
    8.6191   -4.1706    5.2237 H   0  0  0  0  0  0  0  0  0  0  0  0
    8.2614   -3.9556    6.9453 H   0  0  0  0  0  0  0  0  0  0  0  0
    8.2442   -1.5067    6.7136 H   0  0  0  0  0  0  0  0  0  0  0  0
    8.3022   -1.6260    4.9619 H   0  0  0  0  0  0  0  0  0  0  0  0
   10.9203   -3.8173    5.2052 H   0  0  0  0  0  0  0  0  0  0  0  0
   11.9515   -2.4680    4.7581 H   0  0  0  0  0  0  0  0  0  0  0  0
   10.2358   -1.7173    3.0613 H   0  0  0  0  0  0  0  0  0  0  0  0
    9.2844   -3.1592    3.3982 H   0  0  0  0  0  0  0  0  0  0  0  0
   11.2602   -4.6020    2.7723 H   0  0  0  0  0  0  0  0  0  0  0  0
   12.1862   -3.1522    2.3967 H   0  0  0  0  0  0  0  0  0  0  0  0
   10.4903   -2.5280    0.6327 H   0  0  0  0  0  0  0  0  0  0  0  0
    9.5681   -3.9820    1.0061 H   0  0  0  0  0  0  0  0  0  0  0  0
   11.5460   -5.4051    0.3487 H   0  0  0  0  0  0  0  0  0  0  0  0
   12.4672   -3.9507   -0.0262 H   0  0  0  0  0  0  0  0  0  0  0  0
   10.7725   -3.3316   -1.7901 H   0  0  0  0  0  0  0  0  0  0  0  0
    9.8505   -4.7858   -1.4152 H   0  0  0  0  0  0  0  0  0  0  0  0
   11.8272   -6.2092   -2.0752 H   0  0  0  0  0  0  0  0  0  0  0  0
   12.7492   -4.7548   -2.4500 H   0  0  0  0  0  0  0  0  0  0  0  0
   11.0548   -4.1348   -4.2116 H   0  0  0  0  0  0  0  0  0  0  0  0
   10.1328   -5.5883   -3.8369 H   0  0  0  0  0  0  0  0  0  0  0  0
   13.0308   -5.5615   -4.9185 H   0  0  0  0  0  0  0  0  0  0  0  0
   11.5742   -5.9562   -5.8598 H   0  0  0  0  0  0  0  0  0  0  0  0
   12.1006   -7.0273   -4.5410 H   0  0  0  0  0  0  0  0  0  0  0  0
    8.5958    0.6455    6.9108 H   0  0  0  0  0  0  0  0  0  0  0  0
    7.2213    2.5719    6.1693 H   0  0  0  0  0  0  0  0  0  0  0  0
    7.5329    3.5500    3.8939 H   0  0  0  0  0  0  0  0  0  0  0  0
    9.2480    2.5671    2.3617 H   0  0  0  0  0  0  0  0  0  0  0  0
   10.6106    0.6141    3.1064 H   0  0  0  0  0  0  0  0  0  0  0  0
   10.8377    0.1597    7.6618 H   0  0  0  0  0  0  0  0  0  0  0  0
   11.2825   -0.8210    9.0800 H   0  0  0  0  0  0  0  0  0  0  0  0
    9.1397   -0.0705    9.2814 H   0  0  0  0  0  0  0  0  0  0  0  0
    9.4384   -3.1447    8.4114 H   0  0  0  0  0  0  0  0  0  0  0  0
   11.0668   -3.2117    9.0719 H   0  0  0  0  0  0  0  0  0  0  0  0
   10.0334   -4.7436    6.9785 H   0  0  0  0  0  0  0  0  0  0  0  0
   12.6887   -3.1570    6.8520 H   0  0  0  0  0  0  0  0  0  0  0  0
   12.9005   -2.0412    8.2085 H   0  0  0  0  0  0  0  0  0  0  0  0
   13.9822   -0.0527    7.7695 H   0  0  0  0  0  0  0  0  0  0  0  0
   12.6203    0.6418    6.8553 H   0  0  0  0  0  0  0  0  0  0  0  0
   12.9088    1.3067    4.4214 H   0  0  0  0  0  0  0  0  0  0  0  0
   13.5772   -0.2897    4.0833 H   0  0  0  0  0  0  0  0  0  0  0  0
   14.8233    2.1825    3.4817 H   0  0  0  0  0  0  0  0  0  0  0  0
   15.5092    2.5935    5.6241 H   0  0  0  0  0  0  0  0  0  0  0  0
   15.3243    2.0233    7.2807 H   0  0  0  0  0  0  0  0  0  0  0  0
   13.1680    3.0141    5.7303 H   0  0  0  0  0  0  0  0  0  0  0  0
   15.5856   -1.1557    5.3791 H   0  0  0  0  0  0  0  0  0  0  0  0
   16.2123   -0.2424    6.7647 H   0  0  0  0  0  0  0  0  0  0  0  0
   16.4429    0.6411    4.0996 H   0  0  0  0  0  0  0  0  0  0  0  0
  1  2  1  0
  1 42  1  0
  1 43  1  0
  1 44  1  0
  2  3  1  0
  2 45  1  0
  2 46  1  0
  3  4  1  0
  3 47  1  0
  3 48  1  0
  4  5  1  0
  4 49  1  0
  4 50  1  0
  5  6  1  0
  5 51  1  0
  5 52  1  0
  6  7  1  0
  6 53  1  0
  6 54  1  0
  7  8  1  0
  7 55  1  0
  7 56  1  0
  8  9  1  0
  8 57  1  0
  8 58  1  0
  9 10  1  0
  9 59  1  0
  9 60  1  0
 10 11  1  0
 10 20  1  6
 10 27  1  0
 11 12  1  0
 11 61  1  0
 11 62  1  0
 12 13  1  0
 12 63  1  0
 12 64  1  0
 13 14  1  0
 13 65  1  0
 13 66  1  0
 14 15  1  0
 14 67  1  0
 14 68  1  0
 15 16  1  0
 15 69  1  0
 15 70  1  0
 16 17  1  0
 16 71  1  0
 16 72  1  0
 17 18  1  0
 17 73  1  0
 17 74  1  0
 18 19  1  0
 18 75  1  0
 18 76  1  0
 19 77  1  0
 19 78  1  0
 19 79  1  0
 20 21  1  0
 21 22  2  0
 21 26  1  0
 22 23  1  0
 22 80  1  0
 23 24  2  0
 23 81  1  0
 24 25  1  0
 24 82  1  0
 25 26  2  0
 25 83  1  0
 26 84  1  0
 27 28  1  1
 27 30  1  0
 27 32  1  0
 28 29  1  0
 28 85  1  0
 28 86  1  0
 29 87  1  0
 30 31  1  0
 30 88  1  0
 30 89  1  0
 31 90  1  0
 32 33  1  0
 32 91  1  0
 32 92  1  0
 33 34  1  0
 35 34  1  1
 34 93  1  0
 34 94  1  0
 35 36  1  0
 35 38  1  0
 35 40  1  0
 36 37  1  0
 36 95  1  0
 36 96  1  0
 37 97  1  0
 38 39  1  0
 38 98  1  0
 38 99  1  0
 39100  1  0
 40 41  1  0
 40101  1  0
 40102  1  0
 41103  1  0
M  END

