
     RDKit          3D

 34 35  0  0  0  0  0  0  0  0999 V2000
    1.5141   -0.8215   -0.1835 C   0  0  0  0  0  0  0  0  0  0  0  0
    2.6408    0.2090   -0.0888 C   0  0  1  0  0  0  0  0  0  0  0  0
    3.0093    0.6537   -1.5209 C   0  0  0  0  0  0  0  0  0  0  0  0
    2.2191    1.3238   -2.1962 O   0  0  0  0  0  0  0  0  0  0  0  0
    4.2110    0.2423   -1.9628 N   0  0  0  0  0  0  0  0  0  0  0  0
    4.7141    0.3998   -3.3279 C   0  0  1  0  0  0  0  0  0  0  0  0
    5.0105    1.8978   -3.6578 C   0  0  0  0  0  0  0  0  0  0  0  0
    6.1035    2.2713   -3.9999 O   0  0  0  0  0  0  0  0  0  0  0  0
    3.9745    2.7238   -3.5604 O   0  0  0  0  0  0  0  0  0  0  0  0
    5.9770   -0.4453   -3.5510 C   0  0  0  0  0  0  0  0  0  0  0  0
    5.9505   -0.7252   -5.0655 C   0  0  0  0  0  0  0  0  0  0  0  0
    4.6289   -0.4207   -5.5161 O   0  0  0  0  0  0  0  0  0  0  0  0
    3.7860   -0.2114   -4.4126 C   0  0  0  0  0  0  0  0  0  0  0  0
    2.2983    1.4387    0.7795 C   0  0  0  0  0  0  0  0  0  0  0  0
    3.6496    1.7975    1.4064 C   0  0  0  0  0  0  0  0  0  0  0  0
    4.2631    0.4140    1.6191 C   0  0  0  0  0  0  0  0  0  0  0  0
    3.7931   -0.3894    0.5291 O   0  0  0  0  0  0  0  0  0  0  0  0
    0.6374   -0.3809   -0.6798 H   0  0  0  0  0  0  0  0  0  0  0  0
    1.2310   -1.1572    0.8252 H   0  0  0  0  0  0  0  0  0  0  0  0
    1.8418   -1.6992   -0.7611 H   0  0  0  0  0  0  0  0  0  0  0  0
    4.7592   -0.2788   -1.2816 H   0  0  0  0  0  0  0  0  0  0  0  0
    3.1741    2.2645   -3.1870 H   0  0  0  0  0  0  0  0  0  0  0  0
    5.8860   -1.3803   -2.9752 H   0  0  0  0  0  0  0  0  0  0  0  0
    6.8843    0.0879   -3.2395 H   0  0  0  0  0  0  0  0  0  0  0  0
    6.1976   -1.7787   -5.2884 H   0  0  0  0  0  0  0  0  0  0  0  0
    6.6535   -0.0784   -5.6119 H   0  0  0  0  0  0  0  0  0  0  0  0
    3.3563   -1.1556   -4.0150 H   0  0  0  0  0  0  0  0  0  0  0  0
    2.9577    0.4418   -4.7176 H   0  0  0  0  0  0  0  0  0  0  0  0
    1.5761    1.1442    1.5580 H   0  0  0  0  0  0  0  0  0  0  0  0
    1.8467    2.2417    0.1821 H   0  0  0  0  0  0  0  0  0  0  0  0
    3.5600    2.3727    2.3397 H   0  0  0  0  0  0  0  0  0  0  0  0
    4.2600    2.3889    0.7043 H   0  0  0  0  0  0  0  0  0  0  0  0
    3.9279   -0.0316    2.5744 H   0  0  0  0  0  0  0  0  0  0  0  0
    5.3644    0.4082    1.6103 H   0  0  0  0  0  0  0  0  0  0  0  0
  1  2  1  0
  1 18  1  0
  1 19  1  0
  1 20  1  0
  2  3  1  6
  2 14  1  0
  2 17  1  0
  3  4  2  0
  3  5  1  0
  5  6  1  0
  5 21  1  0
  6  7  1  6
  6 10  1  0
  6 13  1  0
  7  8  2  0
  7  9  1  0
  9 22  1  0
 10 11  1  0
 10 23  1  0
 10 24  1  0
 11 12  1  0
 11 25  1  0
 11 26  1  0
 12 13  1  0
 13 27  1  0
 13 28  1  0
 14 15  1  0
 14 29  1  0
 14 30  1  0
 15 16  1  0
 15 31  1  0
 15 32  1  0
 16 17  1  0
 16 33  1  0
 16 34  1  0
M  END

