
     RDKit          3D

 40 42  0  0  0  0  0  0  0  0999 V2000
    3.8453   -2.8401   -0.2959 C   0  0  0  0  0  0  0  0  0  0  0  0
    4.0334   -1.4328   -0.1081 O   0  0  0  0  0  0  0  0  0  0  0  0
    4.5810   -1.0572    1.0532 C   0  0  0  0  0  0  0  0  0  0  0  0
    4.8998   -1.8205    1.9315 O   0  0  0  0  0  0  0  0  0  0  0  0
    4.7722    0.4447    1.1050 C   0  0  0  0  0  0  0  0  0  0  0  0
    4.9455    0.9669    2.5187 C   0  0  1  0  0  0  0  0  0  0  0  0
    6.2306    0.4093    3.2187 C   0  0  0  0  0  0  0  0  0  0  0  0
    7.3178    0.6681    2.7808 O   0  0  0  0  0  0  0  0  0  0  0  0
    6.0176   -0.3048    4.3174 O   0  0  0  0  0  0  0  0  0  0  0  0
    5.0425    2.3981    2.4666 O   0  0  0  0  0  0  0  0  0  0  0  0
    4.3200    2.8650    3.5339 C   0  0  0  0  0  0  0  0  0  0  0  0
    3.5898    1.8153    4.0780 C   0  0  0  0  0  0  0  0  0  0  0  0
    2.7548    1.9417    5.2012 C   0  0  0  0  0  0  0  0  0  0  0  0
    2.1436    0.7341    5.8499 C   0  0  0  0  0  0  0  0  0  0  0  0
    0.9775    0.9296    6.7907 C   0  0  0  0  0  0  0  0  0  0  0  0
    2.6065   -0.3673    5.6228 O   0  0  0  0  0  0  0  0  0  0  0  0
    2.6776    3.2613    5.6728 C   0  0  0  0  0  0  0  0  0  0  0  0
    3.3937    4.3284    5.1152 C   0  0  0  0  0  0  0  0  0  0  0  0
    4.2685    4.1863    4.0212 C   0  0  0  0  0  0  0  0  0  0  0  0
    5.0570    5.3471    3.4795 C   0  0  0  0  0  0  0  0  0  0  0  0
    6.0621    5.0832    2.3785 C   0  0  0  0  0  0  0  0  0  0  0  0
    4.8824    6.4610    3.9278 O   0  0  0  0  0  0  0  0  0  0  0  0
    3.1103    5.4635    5.8087 O   0  0  0  0  0  0  0  0  0  0  0  0
    2.3284    5.0788    6.9282 C   0  0  0  0  0  0  0  0  0  0  0  0
    1.9424    3.7179    6.7298 O   0  0  0  0  0  0  0  0  0  0  0  0
    3.8073    0.6819    3.3334 O   0  0  0  0  0  0  0  0  0  0  0  0
    3.3994   -2.9562   -1.2908 H   0  0  0  0  0  0  0  0  0  0  0  0
    3.1753   -3.2473    0.4757 H   0  0  0  0  0  0  0  0  0  0  0  0
    4.8073   -3.3708   -0.2412 H   0  0  0  0  0  0  0  0  0  0  0  0
    3.9261    0.9575    0.6264 H   0  0  0  0  0  0  0  0  0  0  0  0
    5.6840    0.7035    0.5425 H   0  0  0  0  0  0  0  0  0  0  0  0
    5.0607   -0.4754    4.4228 H   0  0  0  0  0  0  0  0  0  0  0  0
    0.1896    1.5427    6.3257 H   0  0  0  0  0  0  0  0  0  0  0  0
    1.3054    1.4763    7.6888 H   0  0  0  0  0  0  0  0  0  0  0  0
    0.5836   -0.0541    7.0763 H   0  0  0  0  0  0  0  0  0  0  0  0
    6.7697    4.2879    2.6585 H   0  0  0  0  0  0  0  0  0  0  0  0
    6.5963    6.0181    2.1673 H   0  0  0  0  0  0  0  0  0  0  0  0
    5.5517    4.7308    1.4681 H   0  0  0  0  0  0  0  0  0  0  0  0
    1.4295    5.7125    6.9927 H   0  0  0  0  0  0  0  0  0  0  0  0
    2.9292    5.1625    7.8547 H   0  0  0  0  0  0  0  0  0  0  0  0
  1  2  1  0
  1 27  1  0
  1 28  1  0
  1 29  1  0
  2  3  1  0
  3  4  2  0
  3  5  1  0
  5  6  1  0
  5 30  1  0
  5 31  1  0
  6  7  1  1
  6 10  1  0
  6 26  1  0
  7  8  2  0
  7  9  1  0
  9 32  1  0
 10 11  1  0
 11 12  2  0
 11 19  1  0
 12 13  1  0
 12 26  1  0
 13 14  1  0
 13 17  2  0
 14 15  1  0
 14 16  2  0
 15 33  1  0
 15 34  1  0
 15 35  1  0
 17 18  1  0
 17 25  1  0
 18 19  2  0
 18 23  1  0
 19 20  1  0
 20 21  1  0
 20 22  2  0
 21 36  1  0
 21 37  1  0
 21 38  1  0
 23 24  1  0
 24 25  1  0
 24 39  1  0
 24 40  1  0
M  END

