
     RDKit          3D

 40 42  0  0  0  0  0  0  0  0999 V2000
    2.2226    1.5906    0.6613 C   0  0  0  0  0  0  0  0  0  0  0  0
    2.1097    0.2212    0.3393 O   0  0  0  0  0  0  0  0  0  0  0  0
    2.8330   -0.6872    1.0386 C   0  0  0  0  0  0  0  0  0  0  0  0
    3.7307   -0.3712    2.0659 C   0  0  0  0  0  0  0  0  0  0  0  0
    4.4088   -1.3832    2.7504 C   0  0  0  0  0  0  0  0  0  0  0  0
    4.2164   -2.7393    2.4362 C   0  0  0  0  0  0  0  0  0  0  0  0
    4.9438   -3.7569    3.1879 C   0  0  0  0  0  0  0  0  0  0  0  0
    4.8741   -5.1001    3.0317 C   0  0  0  0  0  0  0  0  0  0  0  0
    5.6434   -6.0216    3.8340 C   0  0  0  0  0  0  0  0  0  0  0  0
    6.4996   -5.7811    4.7949 N   0  0  0  0  0  0  0  0  0  0  0  0
    6.9320   -7.0139    5.2065 C   0  0  0  0  0  0  0  0  0  0  0  0
    6.3141   -7.9980    4.4681 C   0  0  0  0  0  0  0  0  0  0  0  0
    6.3659   -9.4529    4.4456 C   0  0  0  0  0  0  0  0  0  0  0  0
    7.2097  -10.1533    5.3322 C   0  0  0  0  0  0  0  0  0  0  0  0
    7.2607  -11.5459    5.3122 C   0  0  0  0  0  0  0  0  0  0  0  0
    6.4732  -12.2703    4.4096 C   0  0  0  0  0  0  0  0  0  0  0  0
    5.6331  -11.5853    3.5263 C   0  0  0  0  0  0  0  0  0  0  0  0
    5.5772  -10.1912    3.5410 C   0  0  0  0  0  0  0  0  0  0  0  0
    5.4876   -7.3531    3.5884 O   0  0  0  0  0  0  0  0  0  0  0  0
    3.3176   -3.0430    1.3885 C   0  0  0  0  0  0  0  0  0  0  0  0
    2.6347   -2.0531    0.6943 C   0  0  0  0  0  0  0  0  0  0  0  0
    1.7339   -2.4231   -0.2617 O   0  0  0  0  0  0  0  0  0  0  0  0
    2.0093   -2.0510   -1.6044 C   0  0  0  0  0  0  0  0  0  0  0  0
    1.5406    2.1267   -0.0120 H   0  0  0  0  0  0  0  0  0  0  0  0
    3.2498    1.9663    0.5053 H   0  0  0  0  0  0  0  0  0  0  0  0
    1.9252    1.7892    1.7062 H   0  0  0  0  0  0  0  0  0  0  0  0
    3.9010    0.6678    2.3482 H   0  0  0  0  0  0  0  0  0  0  0  0
    5.1005   -1.1122    3.5520 H   0  0  0  0  0  0  0  0  0  0  0  0
    5.6204   -3.3859    3.9649 H   0  0  0  0  0  0  0  0  0  0  0  0
    4.2253   -5.5622    2.2840 H   0  0  0  0  0  0  0  0  0  0  0  0
    7.6602   -7.1301    6.0072 H   0  0  0  0  0  0  0  0  0  0  0  0
    7.8304   -9.6019    6.0421 H   0  0  0  0  0  0  0  0  0  0  0  0
    7.9208  -12.0714    6.0070 H   0  0  0  0  0  0  0  0  0  0  0  0
    6.5150  -13.3621    4.3959 H   0  0  0  0  0  0  0  0  0  0  0  0
    5.0141  -12.1418    2.8178 H   0  0  0  0  0  0  0  0  0  0  0  0
    4.9201   -9.6604    2.8502 H   0  0  0  0  0  0  0  0  0  0  0  0
    3.1196   -4.0745    1.0919 H   0  0  0  0  0  0  0  0  0  0  0  0
    1.2140   -2.4923   -2.2214 H   0  0  0  0  0  0  0  0  0  0  0  0
    2.9833   -2.4546   -1.9372 H   0  0  0  0  0  0  0  0  0  0  0  0
    2.0057   -0.9579   -1.7376 H   0  0  0  0  0  0  0  0  0  0  0  0
  1  2  1  0
  1 24  1  0
  1 25  1  0
  1 26  1  0
  2  3  1  0
  3  4  2  0
  3 21  1  0
  4  5  1  0
  4 27  1  0
  5  6  2  0
  5 28  1  0
  6  7  1  0
  6 20  1  0
  7  8  2  0
  7 29  1  0
  8  9  1  0
  8 30  1  0
  9 10  2  0
  9 19  1  0
 10 11  1  0
 11 12  2  0
 11 31  1  0
 12 13  1  0
 12 19  1  0
 13 14  2  0
 13 18  1  0
 14 15  1  0
 14 32  1  0
 15 16  2  0
 15 33  1  0
 16 17  1  0
 16 34  1  0
 17 18  2  0
 17 35  1  0
 18 36  1  0
 20 21  2  0
 20 37  1  0
 21 22  1  0
 22 23  1  0
 23 38  1  0
 23 39  1  0
 23 40  1  0
M  END

