
     RDKit          3D

 32 34  0  0  0  0  0  0  0  0999 V2000
    0.8804   -0.6947   -0.1976 F   0  0  0  0  0  0  0  0  0  0  0  0
    2.1989   -0.5598   -0.2080 C   0  0  0  0  0  0  0  0  0  0  0  0
    2.6966    0.6516   -0.2867 N   0  0  0  0  0  0  0  0  0  0  0  0
    3.9977    0.8192   -0.2962 C   0  0  0  0  0  0  0  0  0  0  0  0
    4.4677    2.0556   -0.3760 F   0  0  0  0  0  0  0  0  0  0  0  0
    4.9013   -0.2445   -0.2263 C   0  0  0  0  0  0  0  0  0  0  0  0
    6.2082   -0.0240   -0.2412 F   0  0  0  0  0  0  0  0  0  0  0  0
    4.3980   -1.5574   -0.1428 C   0  0  0  0  0  0  0  0  0  0  0  0
    5.2561   -2.6865   -0.0766 C   0  0  0  0  0  0  0  0  0  0  0  0
    5.9626   -3.6761   -0.0280 C   0  0  0  0  0  0  0  0  0  0  0  0
    6.7267   -4.8833    0.0042 C   0  0  0  0  0  0  0  0  0  0  0  0
    7.9611   -4.8554    0.5282 N   0  0  0  0  0  0  0  0  0  0  0  0
    8.6358   -5.9985    0.5645 C   0  0  0  0  0  0  0  0  0  0  0  0
    8.0863   -7.1977    0.0824 C   0  0  0  0  0  0  0  0  0  0  0  0
    6.8705   -7.2461   -0.4493 N   0  0  0  0  0  0  0  0  0  0  0  0
    6.1749   -6.1006   -0.5053 C   0  0  0  0  0  0  0  0  0  0  0  0
    4.8726   -6.1112   -1.0935 C   0  0  0  0  0  0  0  0  0  0  0  0
    3.7633   -6.0494   -1.5899 C   0  0  0  0  0  0  0  0  0  0  0  0
    2.4721   -5.9341   -2.1688 C   0  0  0  0  0  0  0  0  0  0  0  0
    1.5749   -7.0191   -2.2079 C   0  0  0  0  0  0  0  0  0  0  0  0
    1.9178   -8.1951   -1.7016 F   0  0  0  0  0  0  0  0  0  0  0  0
    0.3168   -6.8312   -2.7866 C   0  0  0  0  0  0  0  0  0  0  0  0
   -0.5304   -7.8495   -2.8238 F   0  0  0  0  0  0  0  0  0  0  0  0
   -0.0691   -5.6867   -3.2986 N   0  0  0  0  0  0  0  0  0  0  0  0
    0.7461   -4.6589   -3.2782 C   0  0  0  0  0  0  0  0  0  0  0  0
    0.3272   -3.5179   -3.8065 F   0  0  0  0  0  0  0  0  0  0  0  0
    2.0286   -4.7196   -2.7291 C   0  0  0  0  0  0  0  0  0  0  0  0
    2.8206   -3.6533   -2.7445 F   0  0  0  0  0  0  0  0  0  0  0  0
    2.9966   -1.7034   -0.1323 C   0  0  0  0  0  0  0  0  0  0  0  0
    2.4432   -2.9076   -0.0415 F   0  0  0  0  0  0  0  0  0  0  0  0
    9.6452   -5.9746    0.9899 H   0  0  0  0  0  0  0  0  0  0  0  0
    8.6529   -8.1341    0.1304 H   0  0  0  0  0  0  0  0  0  0  0  0
  1  2  1  0
  2  3  2  0
  2 29  1  0
  3  4  1  0
  4  5  1  0
  4  6  2  0
  6  7  1  0
  6  8  1  0
  8  9  1  0
  8 29  2  0
  9 10  3  0
 10 11  1  0
 11 12  2  0
 11 16  1  0
 12 13  1  0
 13 14  2  0
 13 31  1  0
 14 15  1  0
 14 32  1  0
 15 16  2  0
 16 17  1  0
 17 18  3  0
 18 19  1  0
 19 20  2  0
 19 27  1  0
 20 21  1  0
 20 22  1  0
 22 23  1  0
 22 24  2  0
 24 25  1  0
 25 26  1  0
 25 27  2  0
 27 28  1  0
 29 30  1  0
M  END

