
     RDKit          3D

 96102  0  0  0  0  0  0  0  0999 V2000
    1.7792   -0.1391   -1.5211 C   0  0  0  0  0  0  0  0  0  0  0  0
    3.2077   -0.3837   -0.9808 C   0  0  1  0  0  0  0  0  0  0  0  0
    4.2117   -0.6377   -2.1316 C   0  0  0  0  0  0  0  0  0  0  0  0
    3.6736    0.7668   -0.0726 C   0  0  0  0  0  0  0  0  0  0  0  0
    3.8183    2.1353   -0.3873 C   0  0  0  0  0  0  0  0  0  0  0  0
    3.6337    2.7330   -1.6214 C   0  0  0  0  0  0  0  0  0  0  0  0
    3.7218    4.1374   -1.8977 C   0  0  0  0  0  0  0  0  0  0  0  0
    3.5145    4.5979   -3.2268 C   0  0  0  0  0  0  0  0  0  0  0  0
    3.5621    5.9464   -3.5337 C   0  0  0  0  0  0  0  0  0  0  0  0
    3.8113    6.9217   -2.5330 C   0  0  0  0  0  0  0  0  0  0  0  0
    3.8484    8.3614   -2.8512 C   0  0  0  0  0  0  0  0  0  0  0  0
    3.1964    8.8880   -3.9870 C   0  0  0  0  0  0  0  0  0  0  0  0
    3.2303   10.2482   -4.2745 C   0  0  0  0  0  0  0  0  0  0  0  0
    3.9041   11.1583   -3.4341 C   0  0  0  0  0  0  0  0  0  0  0  0
    3.9421   12.6126   -3.7642 C   0  0  0  0  0  0  0  0  0  0  0  0
    3.7333   13.5905   -2.8259 C   0  0  0  0  0  0  0  0  0  0  0  0
    4.0056   15.0353   -3.0950 C   0  0  0  0  0  0  0  0  0  0  0  0
    3.0595   16.0170   -2.7408 C   0  0  0  0  0  0  0  0  0  0  0  0
    3.3094   17.3712   -2.9703 C   0  0  0  0  0  0  0  0  0  0  0  0
    4.5222   17.7769   -3.5365 C   0  0  0  0  0  0  0  0  0  0  0  0
    5.4813   16.8159   -3.8711 C   0  0  0  0  0  0  0  0  0  0  0  0
    5.2249   15.4606   -3.6557 C   0  0  0  0  0  0  0  0  0  0  0  0
    3.2088   13.2921   -1.4584 C   0  0  0  0  0  0  0  0  0  0  0  0
    3.8437   13.8222   -0.3183 C   0  0  0  0  0  0  0  0  0  0  0  0
    3.3658   13.5419    0.9630 C   0  0  0  0  0  0  0  0  0  0  0  0
    2.2271   12.7474    1.1316 C   0  0  0  0  0  0  0  0  0  0  0  0
    1.5682   12.2401    0.0078 C   0  0  0  0  0  0  0  0  0  0  0  0
    2.0546   12.5081   -1.2732 C   0  0  0  0  0  0  0  0  0  0  0  0
    4.2139   12.9226   -5.2032 C   0  0  0  0  0  0  0  0  0  0  0  0
    5.2940   12.3174   -5.8743 C   0  0  0  0  0  0  0  0  0  0  0  0
    5.5454   12.5871   -7.2211 C   0  0  0  0  0  0  0  0  0  0  0  0
    4.7090   13.4528   -7.9333 C   0  0  0  0  0  0  0  0  0  0  0  0
    3.6203   14.0451   -7.2860 C   0  0  0  0  0  0  0  0  0  0  0  0
    3.3765   13.7840   -5.9360 C   0  0  0  0  0  0  0  0  0  0  0  0
    4.5708   10.6310   -2.3098 C   0  0  0  0  0  0  0  0  0  0  0  0
    4.5412    9.2712   -2.0225 C   0  0  0  0  0  0  0  0  0  0  0  0
    4.0207    6.4638   -1.2099 C   0  0  0  0  0  0  0  0  0  0  0  0
    3.9840    5.1164   -0.9022 C   0  0  0  0  0  0  0  0  0  0  0  0
    3.9206    0.2853    1.1637 N   0  0  0  0  0  0  0  0  0  0  0  0
    4.4039    1.0629    2.3141 C   0  0  0  0  0  0  0  0  0  0  0  0
    3.2852    1.6935    3.1765 C   0  0  0  0  0  0  0  0  0  0  0  0
    3.6829    3.0672    3.7480 C   0  0  0  0  0  0  0  0  0  0  0  0
    3.8591    4.1030    2.6504 C   0  0  0  0  0  0  0  0  0  0  0  0
    4.2976    5.8032    3.1963 S   0  0  1  0  0  0  0  0  0  0  0  0
    3.1439    6.2474    4.0121 O   0  0  0  0  0  0  0  0  0  0  0  0
    5.5746    5.6154    3.9270 O   0  0  0  0  0  0  0  0  0  0  0  0
    4.4396    6.5068    1.8809 O   0  0  0  0  0  0  0  0  0  0  0  0
    3.6369   -1.0969    1.2466 C   0  0  0  0  0  0  0  0  0  0  0  0
    3.7379   -1.9407    2.3526 C   0  0  0  0  0  0  0  0  0  0  0  0
    3.4029   -3.2871    2.1639 C   0  0  0  0  0  0  0  0  0  0  0  0
    2.9840   -3.7599    0.9143 C   0  0  0  0  0  0  0  0  0  0  0  0
    2.8864   -2.8910   -0.1830 C   0  0  0  0  0  0  0  0  0  0  0  0
    3.2143   -1.5511   -0.0075 C   0  0  0  0  0  0  0  0  0  0  0  0
    1.7450    0.7153   -2.2113 H   0  0  0  0  0  0  0  0  0  0  0  0
    1.0716    0.0536   -0.7010 H   0  0  0  0  0  0  0  0  0  0  0  0
    1.4338   -1.0311   -2.0654 H   0  0  0  0  0  0  0  0  0  0  0  0
    4.2392    0.1991   -2.8435 H   0  0  0  0  0  0  0  0  0  0  0  0
    3.9153   -1.5426   -2.6834 H   0  0  0  0  0  0  0  0  0  0  0  0
    5.2294   -0.7942   -1.7445 H   0  0  0  0  0  0  0  0  0  0  0  0
    4.0721    2.7935    0.4403 H   0  0  0  0  0  0  0  0  0  0  0  0
    3.3923    2.1072   -2.4844 H   0  0  0  0  0  0  0  0  0  0  0  0
    3.3215    3.8710   -4.0212 H   0  0  0  0  0  0  0  0  0  0  0  0
    3.4253    6.2567   -4.5707 H   0  0  0  0  0  0  0  0  0  0  0  0
    2.6244    8.2290   -4.6431 H   0  0  0  0  0  0  0  0  0  0  0  0
    2.7082   10.6216   -5.1582 H   0  0  0  0  0  0  0  0  0  0  0  0
    2.1148   15.7099   -2.2860 H   0  0  0  0  0  0  0  0  0  0  0  0
    2.5550   18.1146   -2.6996 H   0  0  0  0  0  0  0  0  0  0  0  0
    4.7222   18.8377   -3.7081 H   0  0  0  0  0  0  0  0  0  0  0  0
    6.4386   17.1233   -4.3002 H   0  0  0  0  0  0  0  0  0  0  0  0
    5.9816   14.7183   -3.9162 H   0  0  0  0  0  0  0  0  0  0  0  0
    4.7310   14.4481   -0.4412 H   0  0  0  0  0  0  0  0  0  0  0  0
    3.8861   13.9442    1.8359 H   0  0  0  0  0  0  0  0  0  0  0  0
    1.8543   12.5256    2.1345 H   0  0  0  0  0  0  0  0  0  0  0  0
    0.6711   11.6277    0.1299 H   0  0  0  0  0  0  0  0  0  0  0  0
    1.5342   12.1080   -2.1459 H   0  0  0  0  0  0  0  0  0  0  0  0
    5.9492   11.6345   -5.3277 H   0  0  0  0  0  0  0  0  0  0  0  0
    6.3983   12.1169   -7.7178 H   0  0  0  0  0  0  0  0  0  0  0  0
    4.9016   13.6602   -8.9890 H   0  0  0  0  0  0  0  0  0  0  0  0
    2.9537   14.7146   -7.8360 H   0  0  0  0  0  0  0  0  0  0  0  0
    2.5234   14.2499   -5.4388 H   0  0  0  0  0  0  0  0  0  0  0  0
    5.1281   11.3006   -1.6533 H   0  0  0  0  0  0  0  0  0  0  0  0
    5.0844    8.9071   -1.1490 H   0  0  0  0  0  0  0  0  0  0  0  0
    4.1833    7.1420   -0.3695 H   0  0  0  0  0  0  0  0  0  0  0  0
    4.1511    4.8706    0.1453 H   0  0  0  0  0  0  0  0  0  0  0  0
    5.0731    1.8379    1.9221 H   0  0  0  0  0  0  0  0  0  0  0  0
    5.0347    0.3895    2.9107 H   0  0  0  0  0  0  0  0  0  0  0  0
    3.0069    0.9965    3.9844 H   0  0  0  0  0  0  0  0  0  0  0  0
    2.3845    1.8163    2.5508 H   0  0  0  0  0  0  0  0  0  0  0  0
    4.6150    3.0024    4.3348 H   0  0  0  0  0  0  0  0  0  0  0  0
    2.9016    3.4169    4.4415 H   0  0  0  0  0  0  0  0  0  0  0  0
    2.9404    4.2080    2.0510 H   0  0  0  0  0  0  0  0  0  0  0  0
    4.7004    3.8476    1.9876 H   0  0  0  0  0  0  0  0  0  0  0  0
    4.0552   -1.5772    3.3306 H   0  0  0  0  0  0  0  0  0  0  0  0
    3.4684   -3.9760    3.0091 H   0  0  0  0  0  0  0  0  0  0  0  0
    2.7278   -4.8147    0.7936 H   0  0  0  0  0  0  0  0  0  0  0  0
    2.5561   -3.2682   -1.1542 H   0  0  0  0  0  0  0  0  0  0  0  0
  2  1  1  6
  1 54  1  0
  1 55  1  0
  1 56  1  0
  2  3  1  0
  2  4  1  0
  2 53  1  0
  3 57  1  0
  3 58  1  0
  3 59  1  0
  4  5  1  0
  4 39  2  0
  5  6  2  0
  5 60  1  0
  6  7  1  0
  6 61  1  0
  7  8  2  0
  7 38  1  0
  8  9  1  0
  8 62  1  0
  9 10  2  0
  9 63  1  0
 10 11  1  0
 10 37  1  0
 11 12  2  0
 11 36  1  0
 12 13  1  0
 12 64  1  0
 13 14  2  0
 13 65  1  0
 14 15  1  0
 14 35  1  0
 15 16  2  0
 15 29  1  0
 16 17  1  0
 16 23  1  0
 17 18  2  0
 17 22  1  0
 18 19  1  0
 18 66  1  0
 19 20  2  0
 19 67  1  0
 20 21  1  0
 20 68  1  0
 21 22  2  0
 21 69  1  0
 22 70  1  0
 23 24  2  0
 23 28  1  0
 24 25  1  0
 24 71  1  0
 25 26  2  0
 25 72  1  0
 26 27  1  0
 26 73  1  0
 27 28  2  0
 27 74  1  0
 28 75  1  0
 29 30  2  0
 29 34  1  0
 30 31  1  0
 30 76  1  0
 31 32  2  0
 31 77  1  0
 32 33  1  0
 32 78  1  0
 33 34  2  0
 33 79  1  0
 34 80  1  0
 35 36  2  0
 35 81  1  0
 36 82  1  0
 37 38  2  0
 37 83  1  0
 38 84  1  0
 39 40  1  0
 39 48  1  0
 40 41  1  0
 40 85  1  0
 40 86  1  0
 41 42  1  0
 41 87  1  0
 41 88  1  0
 42 43  1  0
 42 89  1  0
 42 90  1  0
 43 44  1  0
 43 91  1  0
 43 92  1  0
 44 45  2  0
 44 46  2  0
 44 47  1  6
 48 49  2  0
 48 53  1  0
 49 50  1  0
 49 93  1  0
 50 51  2  0
 50 94  1  0
 51 52  1  0
 51 95  1  0
 52 53  2  0
 52 96  1  0
M  CHG  2  39   1  47  -1
M  END

