
     RDKit          3D

 41 42  0  0  0  0  0  0  0  0999 V2000
    1.1905   -0.3857    0.9551 C   0  0  0  0  0  0  0  0  0  0  0  0
    2.4473   -0.1877    0.1615 C   0  0  0  0  0  0  0  0  0  0  0  0
    3.2733   -1.1722   -0.2692 C   0  0  0  0  0  0  0  0  0  0  0  0
    3.1523   -2.6596   -0.1091 C   0  0  0  0  0  0  0  0  0  0  0  0
    2.6060   -3.4116   -1.3272 C   0  0  0  0  0  0  0  0  0  0  0  0
    3.5536   -3.3753   -2.3975 O   0  0  0  0  0  0  0  0  0  0  0  0
    3.1855   -2.8636   -3.8937 P   0  0  1  0  0  0  0  0  0  0  0  0
    4.3051   -3.0713   -4.8322 O   0  0  0  0  0  0  0  0  0  0  0  0
    1.8101   -3.6309   -4.2780 O   0  0  0  0  0  0  0  0  0  0  0  0
    2.6010   -1.3840   -3.6635 O   0  0  0  0  0  0  0  0  0  0  0  0
    4.5896   -0.5024   -1.3033 S   0  0  0  0  0  0  0  0  0  0  0  0
    4.1759    1.1812   -0.7190 C   0  0  0  0  0  0  0  0  0  0  0  0
    2.7924    1.1122   -0.2666 N   0  0  0  0  0  0  0  0  0  0  0  0
    2.3095    2.3135    0.3859 C   0  0  0  0  0  0  0  0  0  0  0  0
    1.9728    3.4397   -0.5716 C   0  0  0  0  0  0  0  0  0  0  0  0
    1.7297    3.2459   -1.9265 C   0  0  0  0  0  0  0  0  0  0  0  0
    1.3991    4.2276   -2.7758 N   0  0  0  0  0  0  0  0  0  0  0  0
    1.3054    5.4548   -2.2554 C   0  0  0  0  0  0  0  0  0  0  0  0
    0.9522    6.5872   -3.1819 C   0  0  0  0  0  0  0  0  0  0  0  0
    1.5068    5.7655   -0.9696 N   0  0  0  0  0  0  0  0  0  0  0  0
    1.8264    4.7814   -0.1231 C   0  0  0  0  0  0  0  0  0  0  0  0
    1.9644    5.1300    1.1918 N   0  0  0  0  0  0  0  0  0  0  0  0
    0.9871   -1.4520    1.1103 H   0  0  0  0  0  0  0  0  0  0  0  0
    0.3231    0.0453    0.4271 H   0  0  0  0  0  0  0  0  0  0  0  0
    1.2423    0.0908    1.9489 H   0  0  0  0  0  0  0  0  0  0  0  0
    2.4907   -2.8831    0.7434 H   0  0  0  0  0  0  0  0  0  0  0  0
    4.1370   -3.0900    0.1427 H   0  0  0  0  0  0  0  0  0  0  0  0
    1.6411   -2.9833   -1.6430 H   0  0  0  0  0  0  0  0  0  0  0  0
    2.4402   -4.4703   -1.0650 H   0  0  0  0  0  0  0  0  0  0  0  0
    1.9827   -4.2431   -5.0083 H   0  0  0  0  0  0  0  0  0  0  0  0
    3.2334   -0.8532   -3.1265 H   0  0  0  0  0  0  0  0  0  0  0  0
    4.3091    1.9037   -1.5369 H   0  0  0  0  0  0  0  0  0  0  0  0
    4.8545    1.4661    0.1159 H   0  0  0  0  0  0  0  0  0  0  0  0
    3.0694    2.6691    1.1216 H   0  0  0  0  0  0  0  0  0  0  0  0
    1.4154    2.0673    0.9791 H   0  0  0  0  0  0  0  0  0  0  0  0
    1.8074    2.2354   -2.3441 H   0  0  0  0  0  0  0  0  0  0  0  0
    0.7469    6.2034   -4.1887 H   0  0  0  0  0  0  0  0  0  0  0  0
    1.7819    7.3116   -3.2296 H   0  0  0  0  0  0  0  0  0  0  0  0
    0.0743    7.1331   -2.8021 H   0  0  0  0  0  0  0  0  0  0  0  0
    1.9760    6.1231    1.3920 H   0  0  0  0  0  0  0  0  0  0  0  0
    2.4158    4.5123    1.8509 H   0  0  0  0  0  0  0  0  0  0  0  0
  1  2  1  0
  1 23  1  0
  1 24  1  0
  1 25  1  0
  2  3  2  0
  2 13  1  0
  3  4  1  0
  3 11  1  0
  4  5  1  0
  4 26  1  0
  4 27  1  0
  5  6  1  0
  5 28  1  0
  5 29  1  0
  7  6  1  1
  7  8  2  0
  7  9  1  0
  7 10  1  0
  9 30  1  0
 10 31  1  0
 11 12  1  0
 12 13  1  0
 12 32  1  0
 12 33  1  0
 13 14  1  0
 14 15  1  0
 14 34  1  0
 14 35  1  0
 15 16  2  0
 15 21  1  0
 16 17  1  0
 16 36  1  0
 17 18  2  0
 18 19  1  0
 18 20  1  0
 19 37  1  0
 19 38  1  0
 19 39  1  0
 20 21  2  0
 21 22  1  0
 22 40  1  0
 22 41  1  0
M  END

