
     RDKit          3D

 31 32  0  0  0  0  0  0  0  0999 V2000
    1.6739    1.0998   -2.6146 O   0  0  0  0  0  0  0  0  0  0  0  0
    2.4974    0.8454   -1.7483 C   0  0  0  0  0  0  0  0  0  0  0  0
    2.4273    1.3624   -0.4874 N   0  0  0  0  0  0  0  0  0  0  0  0
    1.3406    2.2584   -0.0799 C   0  0  1  0  0  0  0  0  0  0  0  0
    1.0908    2.1372    1.4323 C   0  0  0  0  0  0  0  0  0  0  0  0
    2.2123    2.7653    2.2753 C   0  0  0  0  0  0  0  0  0  0  0  0
    2.4799    4.2201    1.8653 C   0  0  0  0  0  0  0  0  0  0  0  0
    2.7588    4.3387    0.3604 C   0  0  0  0  0  0  0  0  0  0  0  0
    1.6279    3.7226   -0.4718 C   0  0  0  0  0  0  0  0  0  0  0  0
    3.6533   -0.0851   -2.0262 C   0  0  0  0  0  0  0  0  0  0  0  0
    3.5297   -0.9891   -3.0950 C   0  0  0  0  0  0  0  0  0  0  0  0
    4.4845   -1.8518   -3.4417 N   0  0  0  0  0  0  0  0  0  0  0  0
    5.6263   -1.8531   -2.7548 C   0  0  0  0  0  0  0  0  0  0  0  0
    5.8559   -0.9790   -1.6847 C   0  0  0  0  0  0  0  0  0  0  0  0
    7.3807   -1.0114   -0.8387 Cl  0  0  0  0  0  0  0  0  0  0  0  0
    4.8576   -0.0787   -1.3122 C   0  0  0  0  0  0  0  0  0  0  0  0
    3.0659    1.0213    0.2194 H   0  0  0  0  0  0  0  0  0  0  0  0
    0.4490    1.9243   -0.6326 H   0  0  0  0  0  0  0  0  0  0  0  0
    0.9373    1.0789    1.7034 H   0  0  0  0  0  0  0  0  0  0  0  0
    0.1429    2.6560    1.6560 H   0  0  0  0  0  0  0  0  0  0  0  0
    3.1458    2.1801    2.1660 H   0  0  0  0  0  0  0  0  0  0  0  0
    1.9521    2.7054    3.3450 H   0  0  0  0  0  0  0  0  0  0  0  0
    3.3198    4.6329    2.4487 H   0  0  0  0  0  0  0  0  0  0  0  0
    1.5951    4.8330    2.1191 H   0  0  0  0  0  0  0  0  0  0  0  0
    3.7083    3.8253    0.1219 H   0  0  0  0  0  0  0  0  0  0  0  0
    2.9040    5.3947    0.0786 H   0  0  0  0  0  0  0  0  0  0  0  0
    1.8511    3.7675   -1.5490 H   0  0  0  0  0  0  0  0  0  0  0  0
    0.6994    4.3017   -0.3192 H   0  0  0  0  0  0  0  0  0  0  0  0
    2.6046   -0.9903   -3.6792 H   0  0  0  0  0  0  0  0  0  0  0  0
    6.4033   -2.5646   -3.0547 H   0  0  0  0  0  0  0  0  0  0  0  0
    5.0452    0.6224   -0.4963 H   0  0  0  0  0  0  0  0  0  0  0  0
  1  2  2  0
  2  3  1  0
  2 10  1  0
  3  4  1  0
  3 17  1  0
  4  5  1  0
  4  9  1  0
  4 18  1  6
  5  6  1  0
  5 19  1  0
  5 20  1  0
  6  7  1  0
  6 21  1  0
  6 22  1  0
  7  8  1  0
  7 23  1  0
  7 24  1  0
  8  9  1  0
  8 25  1  0
  8 26  1  0
  9 27  1  0
  9 28  1  0
 10 11  2  0
 10 16  1  0
 11 12  1  0
 11 29  1  0
 12 13  2  0
 13 14  1  0
 13 30  1  0
 14 15  1  0
 14 16  2  0
 16 31  1  0
M  END

