
     RDKit          3D

 29 29  0  0  0  0  0  0  0  0999 V2000
    1.2309   -0.6252   -0.4139 C   0  0  0  0  0  0  0  0  0  0  0  0
    2.7105   -0.3674   -0.6737 C   0  0  1  0  0  0  0  0  0  0  0  0
    3.3742   -1.3803   -1.6037 C   0  0  0  0  0  0  0  0  0  0  0  0
    2.8534    1.3432   -1.4423 S   0  0  0  0  0  0  0  0  0  0  0  0
    1.9452    2.2651   -0.6435 O   0  0  0  0  0  0  0  0  0  0  0  0
    4.5876    1.7074   -0.8077 C   0  0  0  0  0  0  0  0  0  0  0  0
    5.2655    2.7661   -1.5977 C   0  0  0  0  0  0  0  0  0  0  0  0
    6.2447    2.6378   -2.5957 C   0  0  0  0  0  0  0  0  0  0  0  0
    6.8134    1.3647   -3.0794 C   0  0  0  0  0  0  0  0  0  0  0  0
    6.4373    0.2713   -2.7218 O   0  0  0  0  0  0  0  0  0  0  0  0
    7.8209    1.4590   -3.9757 O   0  0  0  0  0  0  0  0  0  0  0  0
    6.5142    3.9768   -2.9879 C   0  0  0  0  0  0  0  0  0  0  0  0
    5.7758    4.8401   -2.3098 N   0  0  0  0  0  0  0  0  0  0  0  0
    5.0211    4.0971   -1.4783 N   0  0  0  0  0  0  0  0  0  0  0  0
    4.1061    4.7596   -0.5573 C   0  0  0  0  0  0  0  0  0  0  0  0
    1.1098   -1.5717    0.1374 H   0  0  0  0  0  0  0  0  0  0  0  0
    0.6657   -0.7091   -1.3570 H   0  0  0  0  0  0  0  0  0  0  0  0
    0.7934    0.1898    0.1800 H   0  0  0  0  0  0  0  0  0  0  0  0
    3.2471   -0.2984    0.2877 H   0  0  0  0  0  0  0  0  0  0  0  0
    2.8129   -1.4690   -2.5479 H   0  0  0  0  0  0  0  0  0  0  0  0
    3.3852   -2.3738   -1.1267 H   0  0  0  0  0  0  0  0  0  0  0  0
    4.4132   -1.1157   -1.8552 H   0  0  0  0  0  0  0  0  0  0  0  0
    5.1757    0.7851   -0.8757 H   0  0  0  0  0  0  0  0  0  0  0  0
    4.4100    1.9920    0.2402 H   0  0  0  0  0  0  0  0  0  0  0  0
    8.0483    2.3835   -4.1454 H   0  0  0  0  0  0  0  0  0  0  0  0
    7.2040    4.3513   -3.7469 H   0  0  0  0  0  0  0  0  0  0  0  0
    3.8215    5.7173   -1.0091 H   0  0  0  0  0  0  0  0  0  0  0  0
    4.6010    4.9536    0.4083 H   0  0  0  0  0  0  0  0  0  0  0  0
    3.2141    4.1354   -0.4111 H   0  0  0  0  0  0  0  0  0  0  0  0
  1  2  1  0
  1 16  1  0
  1 17  1  0
  1 18  1  0
  2  3  1  0
  2  4  1  0
  2 19  1  1
  3 20  1  0
  3 21  1  0
  3 22  1  0
  4  5  1  1
  4  6  1  0
  6  7  1  0
  6 23  1  0
  6 24  1  0
  7  8  2  0
  7 14  1  0
  8  9  1  0
  8 12  1  0
  9 10  2  0
  9 11  1  0
 11 25  1  0
 12 13  2  0
 12 26  1  0
 13 14  1  0
 14 15  1  0
 15 27  1  0
 15 28  1  0
 15 29  1  0
M  CHG  2   4   1   5  -1
M  END

