
     RDKit          3D

 58 63  0  0  0  0  0  0  0  0999 V2000
    2.2046   -0.5199   -0.9163 C   0  0  0  0  0  0  0  0  0  0  0  0
    2.1906    0.0572    0.3688 O   0  0  0  0  0  0  0  0  0  0  0  0
    2.9316    1.1703    0.6058 C   0  0  0  0  0  0  0  0  0  0  0  0
    3.7357    1.8104   -0.3488 C   0  0  0  0  0  0  0  0  0  0  0  0
    4.4587    2.9557    0.0074 C   0  0  0  0  0  0  0  0  0  0  0  0
    4.4038    3.4890    1.3017 C   0  0  0  0  0  0  0  0  0  0  0  0
    5.1823    4.7150    1.6697 C   0  0  0  0  0  0  0  0  0  0  0  0
    4.6171    5.9952    1.4851 C   0  0  0  0  0  0  0  0  0  0  0  0
    3.2947    6.1665    0.9497 C   0  0  0  0  0  0  0  0  0  0  0  0
    2.7487    7.4115    0.7718 C   0  0  0  0  0  0  0  0  0  0  0  0
    3.4912    8.5781    1.1187 C   0  0  0  0  0  0  0  0  0  0  0  0
    4.7566    8.4640    1.6344 C   0  0  0  0  0  0  0  0  0  0  0  0
    5.3715    7.1822    1.8404 C   0  0  0  0  0  0  0  0  0  0  0  0
    6.6733    7.0614    2.3743 C   0  0  0  0  0  0  0  0  0  0  0  0
    7.4521    8.2870    2.7432 C   0  0  0  0  0  0  0  0  0  0  0  0
    7.3729    8.8370    4.0374 C   0  0  0  0  0  0  0  0  0  0  0  0
    8.0946    9.9747    4.3848 C   0  0  0  0  0  0  0  0  0  0  0  0
    8.9261   10.6037    3.4417 C   0  0  0  0  0  0  0  0  0  0  0  0
    9.5916   11.7070    3.8703 O   0  0  0  0  0  0  0  0  0  0  0  0
   10.4429   12.3888    2.9785 C   0  0  0  0  0  0  0  0  0  0  0  0
    9.0183   10.0702    2.1476 C   0  0  0  0  0  0  0  0  0  0  0  0
    8.2851    8.9246    1.8146 C   0  0  0  0  0  0  0  0  0  0  0  0
    7.2443    5.7775    2.5646 C   0  0  0  0  0  0  0  0  0  0  0  0
    8.5602    5.6259    3.1054 C   0  0  0  0  0  0  0  0  0  0  0  0
    9.0918    4.3716    3.2794 C   0  0  0  0  0  0  0  0  0  0  0  0
   10.6805    3.9632    3.9251 S   0  0  0  0  0  0  0  0  0  0  0  0
   10.3618    2.2300    3.7272 C   0  0  0  0  0  0  0  0  0  0  0  0
   11.4112    1.2415    4.1276 C   0  0  0  0  0  0  0  0  0  0  0  0
    9.1293    1.9874    3.2047 C   0  0  0  0  0  0  0  0  0  0  0  0
    8.3604    3.1807    2.9300 C   0  0  0  0  0  0  0  0  0  0  0  0
    7.0876    3.3056    2.4053 C   0  0  0  0  0  0  0  0  0  0  0  0
    6.4901    4.5865    2.2070 C   0  0  0  0  0  0  0  0  0  0  0  0
    3.5916    2.8320    2.2464 C   0  0  0  0  0  0  0  0  0  0  0  0
    2.8668    1.6933    1.9092 C   0  0  0  0  0  0  0  0  0  0  0  0
    1.5418   -1.3948   -0.8748 H   0  0  0  0  0  0  0  0  0  0  0  0
    3.2172   -0.8533   -1.2084 H   0  0  0  0  0  0  0  0  0  0  0  0
    1.8268    0.1774   -1.6862 H   0  0  0  0  0  0  0  0  0  0  0  0
    3.8088    1.4315   -1.3684 H   0  0  0  0  0  0  0  0  0  0  0  0
    5.0813    3.4449   -0.7463 H   0  0  0  0  0  0  0  0  0  0  0  0
    2.7222    5.2771    0.6838 H   0  0  0  0  0  0  0  0  0  0  0  0
    1.7398    7.5131    0.3635 H   0  0  0  0  0  0  0  0  0  0  0  0
    3.0471    9.5662    0.9727 H   0  0  0  0  0  0  0  0  0  0  0  0
    5.3200    9.3596    1.8994 H   0  0  0  0  0  0  0  0  0  0  0  0
    6.7310    8.3605    4.7829 H   0  0  0  0  0  0  0  0  0  0  0  0
    8.0329   10.4017    5.3880 H   0  0  0  0  0  0  0  0  0  0  0  0
   10.8679   13.2350    3.5351 H   0  0  0  0  0  0  0  0  0  0  0  0
    9.8950   12.7782    2.1010 H   0  0  0  0  0  0  0  0  0  0  0  0
   11.2684   11.7457    2.6225 H   0  0  0  0  0  0  0  0  0  0  0  0
    9.6534   10.5330    1.3919 H   0  0  0  0  0  0  0  0  0  0  0  0
    8.3660    8.5193    0.8025 H   0  0  0  0  0  0  0  0  0  0  0  0
    9.1284    6.5163    3.3749 H   0  0  0  0  0  0  0  0  0  0  0  0
   12.3456    1.3915    3.5606 H   0  0  0  0  0  0  0  0  0  0  0  0
   11.0600    0.2156    3.9437 H   0  0  0  0  0  0  0  0  0  0  0  0
   11.6640    1.3313    5.1977 H   0  0  0  0  0  0  0  0  0  0  0  0
    8.7562    0.9795    3.0121 H   0  0  0  0  0  0  0  0  0  0  0  0
    6.5241    2.4115    2.1361 H   0  0  0  0  0  0  0  0  0  0  0  0
    3.5293    3.2259    3.2641 H   0  0  0  0  0  0  0  0  0  0  0  0
    2.2360    1.1844    2.6411 H   0  0  0  0  0  0  0  0  0  0  0  0
  1  2  1  0
  1 35  1  0
  1 36  1  0
  1 37  1  0
  2  3  1  0
  3  4  2  0
  3 34  1  0
  4  5  1  0
  4 38  1  0
  5  6  2  0
  5 39  1  0
  6  7  1  0
  6 33  1  0
  7  8  1  0
  7 32  2  0
  8  9  2  0
  8 13  1  0
  9 10  1  0
  9 40  1  0
 10 11  2  0
 10 41  1  0
 11 12  1  0
 11 42  1  0
 12 13  2  0
 12 43  1  0
 13 14  1  0
 14 15  1  0
 14 23  2  0
 15 16  2  0
 15 22  1  0
 16 17  1  0
 16 44  1  0
 17 18  2  0
 17 45  1  0
 18 19  1  0
 18 21  1  0
 19 20  1  0
 20 46  1  0
 20 47  1  0
 20 48  1  0
 21 22  2  0
 21 49  1  0
 22 50  1  0
 23 24  1  0
 23 32  1  0
 24 25  2  0
 24 51  1  0
 25 26  1  0
 25 30  1  0
 26 27  1  0
 27 28  1  0
 27 29  2  0
 28 52  1  0
 28 53  1  0
 28 54  1  0
 29 30  1  0
 29 55  1  0
 30 31  2  0
 31 32  1  0
 31 56  1  0
 33 34  2  0
 33 57  1  0
 34 58  1  0
M  END

