
     RDKit          3D

 61 65  0  0  0  0  0  0  0  0999 V2000
    0.1915   -5.4285   -2.5136 C   0  0  0  0  0  0  0  0  0  0  0  0
    0.5968   -4.6891   -3.6286 C   0  0  0  0  0  0  0  0  0  0  0  0
    1.9562   -4.4556   -3.8593 C   0  0  0  0  0  0  0  0  0  0  0  0
    2.9344   -4.9546   -2.9845 C   0  0  0  0  0  0  0  0  0  0  0  0
    4.4053   -4.6738   -3.2147 C   0  0  0  0  0  0  0  0  0  0  0  0
    4.8829   -3.3823   -2.5360 C   0  0  0  0  0  0  0  0  0  0  0  0
    6.3054   -3.1658   -2.7463 N   0  0  0  0  0  0  0  0  0  0  0  0
    6.8851   -2.0201   -2.0579 C   0  0  0  0  0  0  0  0  0  0  0  0
    7.2629   -2.3200   -0.5927 C   0  0  2  0  0  0  0  0  0  0  0  0
    6.3416   -2.6040   -0.0606 H   0  0  0  0  0  0  0  0  0  0  0  0
    7.9350   -1.1061    0.0841 C   0  0  0  0  0  0  0  0  0  0  0  0
    9.4264   -1.3533   -0.1654 C   0  0  0  0  0  0  0  0  0  0  0  0
    9.5379   -2.7854    0.0173 N   0  0  0  0  0  0  0  0  0  0  0  0
   10.7999   -3.4260   -0.2701 C   0  0  0  0  0  0  0  0  0  0  0  0
   11.9102   -3.0806    0.7443 C   0  0  0  0  0  0  0  0  0  0  0  0
   13.1937   -3.8217    0.4997 C   0  0  0  0  0  0  0  0  0  0  0  0
   14.3643   -3.3086   -0.0182 C   0  0  0  0  0  0  0  0  0  0  0  0
   15.3278   -4.2945   -0.1089 N   0  0  0  0  0  0  0  0  0  0  0  0
   16.2736   -4.1628   -0.4399 H   0  0  0  0  0  0  0  0  0  0  0  0
   14.8012   -5.4789    0.3547 C   0  0  0  0  0  0  0  0  0  0  0  0
   15.3722   -6.7504    0.4793 C   0  0  0  0  0  0  0  0  0  0  0  0
   14.5864   -7.7727    1.0017 C   0  0  0  0  0  0  0  0  0  0  0  0
   13.2499   -7.5394    1.4054 C   0  0  0  0  0  0  0  0  0  0  0  0
   12.4802   -8.6138    1.9432 N   0  0  0  0  0  0  0  0  0  0  0  0
   12.9083   -9.8602    2.3393 C   0  0  0  0  0  0  0  0  0  0  0  0
   11.9119  -10.5798    2.7868 N   0  0  0  0  0  0  0  0  0  0  0  0
   10.7787   -9.8145    2.6922 N   0  0  0  0  0  0  0  0  0  0  0  0
   11.1277   -8.6572    2.1926 C   0  0  0  0  0  0  0  0  0  0  0  0
   12.6845   -6.2697    1.2798 C   0  0  0  0  0  0  0  0  0  0  0  0
   13.4563   -5.2213    0.7443 C   0  0  0  0  0  0  0  0  0  0  0  0
    8.3262   -3.4400   -0.4814 C   0  0  0  0  0  0  0  0  0  0  0  0
    2.5121   -5.6929   -1.8673 C   0  0  0  0  0  0  0  0  0  0  0  0
    1.1543   -5.9296   -1.6322 C   0  0  0  0  0  0  0  0  0  0  0  0
   -0.8702   -5.6187   -2.3352 H   0  0  0  0  0  0  0  0  0  0  0  0
   -0.1487   -4.2955   -4.3250 H   0  0  0  0  0  0  0  0  0  0  0  0
    2.2632   -3.8785   -4.7369 H   0  0  0  0  0  0  0  0  0  0  0  0
    4.6002   -4.6056   -4.2996 H   0  0  0  0  0  0  0  0  0  0  0  0
    5.0176   -5.5088   -2.8379 H   0  0  0  0  0  0  0  0  0  0  0  0
    4.6948   -3.4643   -1.4527 H   0  0  0  0  0  0  0  0  0  0  0  0
    4.2581   -2.5321   -2.8919 H   0  0  0  0  0  0  0  0  0  0  0  0
    6.5076   -3.1250   -3.7417 H   0  0  0  0  0  0  0  0  0  0  0  0
    6.2111   -1.1357   -2.0761 H   0  0  0  0  0  0  0  0  0  0  0  0
    7.7964   -1.7217   -2.6033 H   0  0  0  0  0  0  0  0  0  0  0  0
    7.7424   -1.1162    1.1683 H   0  0  0  0  0  0  0  0  0  0  0  0
    7.5804   -0.1415   -0.3127 H   0  0  0  0  0  0  0  0  0  0  0  0
   10.0699   -0.8008    0.5408 H   0  0  0  0  0  0  0  0  0  0  0  0
    9.7192   -1.0149   -1.1906 H   0  0  0  0  0  0  0  0  0  0  0  0
   11.1718   -3.1873   -1.2942 H   0  0  0  0  0  0  0  0  0  0  0  0
   10.6359   -4.5159   -0.2551 H   0  0  0  0  0  0  0  0  0  0  0  0
   11.5289   -3.2947    1.7579 H   0  0  0  0  0  0  0  0  0  0  0  0
   12.1092   -1.9974    0.7111 H   0  0  0  0  0  0  0  0  0  0  0  0
   14.5880   -2.2900   -0.3325 H   0  0  0  0  0  0  0  0  0  0  0  0
   16.4025   -6.9483    0.1758 H   0  0  0  0  0  0  0  0  0  0  0  0
   15.0232   -8.7679    1.0839 H   0  0  0  0  0  0  0  0  0  0  0  0
   13.9440  -10.1875    2.2984 H   0  0  0  0  0  0  0  0  0  0  0  0
   10.4459   -7.8363    1.9855 H   0  0  0  0  0  0  0  0  0  0  0  0
   11.6624   -6.0717    1.6031 H   0  0  0  0  0  0  0  0  0  0  0  0
    8.0128   -4.2488    0.2069 H   0  0  0  0  0  0  0  0  0  0  0  0
    8.4578   -3.9240   -1.4709 H   0  0  0  0  0  0  0  0  0  0  0  0
    3.2580   -6.0926   -1.1736 H   0  0  0  0  0  0  0  0  0  0  0  0
    0.8471   -6.5120   -0.7593 H   0  0  0  0  0  0  0  0  0  0  0  0
  1  2  2  0
  1 33  1  0
  1 34  1  0
  2  3  1  0
  2 35  1  0
  3  4  2  0
  3 36  1  0
  4  5  1  0
  4 32  1  0
  5  6  1  0
  5 37  1  0
  5 38  1  0
  6  7  1  0
  6 39  1  0
  6 40  1  0
  7  8  1  0
  7 41  1  0
  8  9  1  0
  8 42  1  0
  8 43  1  0
  9 10  1  1
  9 11  1  0
  9 31  1  0
 11 12  1  0
 11 44  1  0
 11 45  1  0
 12 13  1  0
 12 46  1  0
 12 47  1  0
 13 14  1  0
 13 31  1  0
 14 15  1  0
 14 48  1  0
 14 49  1  0
 15 16  1  0
 15 50  1  0
 15 51  1  0
 16 17  2  0
 16 30  1  0
 17 18  1  0
 17 52  1  0
 18 19  1  0
 18 20  1  0
 20 21  1  0
 20 30  2  0
 21 22  2  0
 21 53  1  0
 22 23  1  0
 22 54  1  0
 23 24  1  0
 23 29  2  0
 24 25  1  0
 24 28  1  0
 25 26  2  0
 25 55  1  0
 26 27  1  0
 27 28  2  0
 28 56  1  0
 29 30  1  0
 29 57  1  0
 31 58  1  0
 31 59  1  0
 32 33  2  0
 32 60  1  0
 33 61  1  0
M  END

