
     RDKit          3D

 56 59  0  0  0  0  0  0  0  0999 V2000
    1.3507    0.2725    2.1571 C   0  0  0  0  0  0  0  0  0  0  0  0
    2.4144   -0.8089    2.0210 C   0  0  1  0  0  0  0  0  0  0  0  0
    1.8288   -2.1768    1.6766 C   0  0  0  0  0  0  0  0  0  0  0  0
    3.3001   -0.3627    0.9828 O   0  0  0  0  0  0  0  0  0  0  0  0
    4.5718   -0.8079    0.8848 C   0  0  0  0  0  0  0  0  0  0  0  0
    5.1980   -1.6875    1.7842 C   0  0  0  0  0  0  0  0  0  0  0  0
    6.5258   -2.0639    1.5808 C   0  0  0  0  0  0  0  0  0  0  0  0
    7.2771   -1.5907    0.4861 C   0  0  0  0  0  0  0  0  0  0  0  0
    8.6572   -2.0140    0.2617 C   0  0  0  0  0  0  0  0  0  0  0  0
    9.3146   -3.1582    0.6403 C   0  0  0  0  0  0  0  0  0  0  0  0
    8.6832   -4.4971    1.5711 S   0  0  0  0  0  0  0  0  0  0  0  0
    9.6746   -5.9726    1.0146 C   0  0  0  0  0  0  0  0  0  0  0  0
    9.1071   -7.1896    1.6955 C   0  0  0  0  0  0  0  0  0  0  0  0
    8.0134   -7.8781    1.1455 C   0  0  0  0  0  0  0  0  0  0  0  0
    7.4834   -9.0011    1.7849 C   0  0  0  0  0  0  0  0  0  0  0  0
    8.0362   -9.4488    2.9891 C   0  0  0  0  0  0  0  0  0  0  0  0
    9.1210   -8.7676    3.5492 C   0  0  0  0  0  0  0  0  0  0  0  0
    9.6504   -7.6449    2.9074 C   0  0  0  0  0  0  0  0  0  0  0  0
   10.7541   -3.0550    0.2040 C   0  0  0  0  0  0  0  0  0  0  0  0
   11.6643   -3.8363    0.3796 O   0  0  0  0  0  0  0  0  0  0  0  0
   10.8726   -1.8444   -0.4694 N   0  0  0  0  0  0  0  0  0  0  0  0
   12.0925   -1.3710   -1.1078 C   0  0  0  0  0  0  0  0  0  0  0  0
   12.2383   -1.8374   -2.5449 C   0  0  0  0  0  0  0  0  0  0  0  0
   11.6900   -1.1034   -3.6049 C   0  0  0  0  0  0  0  0  0  0  0  0
   11.8385   -1.5863   -4.9087 C   0  0  0  0  0  0  0  0  0  0  0  0
   12.4785   -2.7196   -5.2089 N   0  0  0  0  0  0  0  0  0  0  0  0
   12.9967   -3.4204   -4.1971 C   0  0  0  0  0  0  0  0  0  0  0  0
   12.9055   -3.0286   -2.8578 C   0  0  0  0  0  0  0  0  0  0  0  0
    9.6546   -1.1603   -0.4856 C   0  0  0  0  0  0  0  0  0  0  0  0
    9.4929   -0.0846   -1.0190 O   0  0  0  0  0  0  0  0  0  0  0  0
    6.6334   -0.6896   -0.3992 C   0  0  0  0  0  0  0  0  0  0  0  0
    5.3131   -0.3152   -0.2077 C   0  0  0  0  0  0  0  0  0  0  0  0
    0.6361    0.0118    2.9528 H   0  0  0  0  0  0  0  0  0  0  0  0
    0.7957    0.3852    1.2125 H   0  0  0  0  0  0  0  0  0  0  0  0
    1.8115    1.2406    2.4031 H   0  0  0  0  0  0  0  0  0  0  0  0
    2.9789   -0.8710    2.9688 H   0  0  0  0  0  0  0  0  0  0  0  0
    1.2567   -2.1185    0.7373 H   0  0  0  0  0  0  0  0  0  0  0  0
    1.1510   -2.5163    2.4756 H   0  0  0  0  0  0  0  0  0  0  0  0
    2.6149   -2.9362    1.5515 H   0  0  0  0  0  0  0  0  0  0  0  0
    4.6681   -2.0808    2.6514 H   0  0  0  0  0  0  0  0  0  0  0  0
    6.9893   -2.7208    2.3173 H   0  0  0  0  0  0  0  0  0  0  0  0
   10.7247   -5.8010    1.2716 H   0  0  0  0  0  0  0  0  0  0  0  0
    9.5837   -6.0407   -0.0785 H   0  0  0  0  0  0  0  0  0  0  0  0
    7.5761   -7.5299    0.2054 H   0  0  0  0  0  0  0  0  0  0  0  0
    6.6364   -9.5302    1.3405 H   0  0  0  0  0  0  0  0  0  0  0  0
    7.6231  -10.3286    3.4890 H   0  0  0  0  0  0  0  0  0  0  0  0
    9.5593   -9.1131    4.4890 H   0  0  0  0  0  0  0  0  0  0  0  0
   10.5000   -7.1155    3.3475 H   0  0  0  0  0  0  0  0  0  0  0  0
   12.9358   -1.7340   -0.5038 H   0  0  0  0  0  0  0  0  0  0  0  0
   12.0699   -0.2731   -1.0659 H   0  0  0  0  0  0  0  0  0  0  0  0
   11.1487   -0.1734   -3.4144 H   0  0  0  0  0  0  0  0  0  0  0  0
   11.4186   -1.0236   -5.7512 H   0  0  0  0  0  0  0  0  0  0  0  0
   13.5180   -4.3486   -4.4611 H   0  0  0  0  0  0  0  0  0  0  0  0
   13.3407   -3.6456   -2.0678 H   0  0  0  0  0  0  0  0  0  0  0  0
    7.1862   -0.2838   -1.2451 H   0  0  0  0  0  0  0  0  0  0  0  0
    4.8182    0.3721   -0.8966 H   0  0  0  0  0  0  0  0  0  0  0  0
  1  2  1  0
  1 33  1  0
  1 34  1  0
  1 35  1  0
  2  3  1  0
  2  4  1  0
  2 36  1  1
  3 37  1  0
  3 38  1  0
  3 39  1  0
  4  5  1  0
  5  6  2  0
  5 32  1  0
  6  7  1  0
  6 40  1  0
  7  8  2  0
  7 41  1  0
  8  9  1  0
  8 31  1  0
  9 10  1  0
  9 29  2  0
 10 11  2  0
 10 19  1  0
 11 12  1  0
 12 13  1  0
 12 42  1  0
 12 43  1  0
 13 14  2  0
 13 18  1  0
 14 15  1  0
 14 44  1  0
 15 16  2  0
 15 45  1  0
 16 17  1  0
 16 46  1  0
 17 18  2  0
 17 47  1  0
 18 48  1  0
 19 20  2  0
 19 21  1  0
 21 22  1  0
 21 29  1  0
 22 23  1  0
 22 49  1  0
 22 50  1  0
 23 24  2  0
 23 28  1  0
 24 25  1  0
 24 51  1  0
 25 26  2  0
 25 52  1  0
 26 27  1  0
 27 28  2  0
 27 53  1  0
 28 54  1  0
 29 30  1  0
 31 32  2  0
 31 55  1  0
 32 56  1  0
M  CHG  2  11   1  30  -1
M  END

