
     RDKit          3D

 50 51  0  0  0  0  0  0  0  0999 V2000
    2.9992   -1.3363    0.1940 C   0  0  0  0  0  0  0  0  0  0  0  0
    2.2798   -0.3188   -0.6987 C   0  0  1  0  0  0  0  0  0  0  0  0
    1.7977   -0.9468   -2.0114 C   0  0  0  0  0  0  0  0  0  0  0  0
    1.1130    0.3278    0.0512 C   0  0  0  0  0  0  0  0  0  0  0  0
    3.1586    0.8171   -0.9769 O   0  0  0  0  0  0  0  0  0  0  0  0
    4.3321    0.6701   -1.6389 C   0  0  0  0  0  0  0  0  0  0  0  0
    4.7797   -0.3754   -2.0709 O   0  0  0  0  0  0  0  0  0  0  0  0
    4.9497    1.8812   -1.7502 N   0  0  0  0  0  0  0  0  0  0  0  0
    6.2472    2.0731   -2.3927 C   0  0  1  0  0  0  0  0  0  0  0  0
    6.1308    1.9334   -3.9169 C   0  0  0  0  0  0  0  0  0  0  0  0
    5.2425    2.9537   -4.4633 N   0  0  0  0  0  0  0  0  0  0  0  0
    6.9418    3.3863   -1.9372 C   0  0  0  0  0  0  0  0  0  0  0  0
    8.1834    2.5784   -1.4551 C   0  0  2  0  0  0  0  0  0  0  0  0
    9.4895    2.8120   -2.2115 C   0  0  0  0  0  0  0  0  0  0  0  0
   10.1351    4.1790   -1.9196 C   0  0  0  0  0  0  0  0  0  0  0  0
   11.4194    4.4145   -2.6843 C   0  0  0  0  0  0  0  0  0  0  0  0
   11.4032    5.0061   -3.9580 C   0  0  0  0  0  0  0  0  0  0  0  0
   12.5839    5.1897   -4.6831 C   0  0  0  0  0  0  0  0  0  0  0  0
   13.8087    4.7832   -4.1453 C   0  0  0  0  0  0  0  0  0  0  0  0
   13.8414    4.1939   -2.8779 C   0  0  0  0  0  0  0  0  0  0  0  0
   12.6576    4.0126   -2.1572 C   0  0  0  0  0  0  0  0  0  0  0  0
    7.4269    1.2593   -1.7810 C   0  0  0  0  0  0  0  0  0  0  0  0
    2.2989   -2.1331    0.4902 H   0  0  0  0  0  0  0  0  0  0  0  0
    3.3674   -0.8481    1.1101 H   0  0  0  0  0  0  0  0  0  0  0  0
    3.8491   -1.7893   -0.3320 H   0  0  0  0  0  0  0  0  0  0  0  0
    1.0524   -1.7293   -1.7991 H   0  0  0  0  0  0  0  0  0  0  0  0
    2.6338   -1.3945   -2.5633 H   0  0  0  0  0  0  0  0  0  0  0  0
    1.3192   -0.1846   -2.6468 H   0  0  0  0  0  0  0  0  0  0  0  0
    0.3651   -0.4321    0.3240 H   0  0  0  0  0  0  0  0  0  0  0  0
    0.6245    1.0895   -0.5754 H   0  0  0  0  0  0  0  0  0  0  0  0
    1.4676    0.8154    0.9721 H   0  0  0  0  0  0  0  0  0  0  0  0
    4.4809    2.6806   -1.3415 H   0  0  0  0  0  0  0  0  0  0  0  0
    5.8329    0.8879   -4.1341 H   0  0  0  0  0  0  0  0  0  0  0  0
    7.1336    2.0768   -4.3520 H   0  0  0  0  0  0  0  0  0  0  0  0
    4.2864    2.7752   -4.1536 H   0  0  0  0  0  0  0  0  0  0  0  0
    5.2236    2.9010   -5.4813 H   0  0  0  0  0  0  0  0  0  0  0  0
    6.4091    3.9056   -1.1260 H   0  0  0  0  0  0  0  0  0  0  0  0
    7.1039    4.1041   -2.7550 H   0  0  0  0  0  0  0  0  0  0  0  0
    8.3717    2.7019   -0.3755 H   0  0  0  0  0  0  0  0  0  0  0  0
    9.3141    2.7194   -3.2985 H   0  0  0  0  0  0  0  0  0  0  0  0
   10.2056    2.0111   -1.9536 H   0  0  0  0  0  0  0  0  0  0  0  0
   10.3315    4.2557   -0.8362 H   0  0  0  0  0  0  0  0  0  0  0  0
    9.4131    4.9775   -2.1615 H   0  0  0  0  0  0  0  0  0  0  0  0
   10.4501    5.3327   -4.3854 H   0  0  0  0  0  0  0  0  0  0  0  0
   12.5475    5.6564   -5.6712 H   0  0  0  0  0  0  0  0  0  0  0  0
   14.7336    4.9286   -4.7094 H   0  0  0  0  0  0  0  0  0  0  0  0
   14.7944    3.8770   -2.4457 H   0  0  0  0  0  0  0  0  0  0  0  0
   12.6946    3.5551   -1.1638 H   0  0  0  0  0  0  0  0  0  0  0  0
    7.1347    0.6765   -0.8983 H   0  0  0  0  0  0  0  0  0  0  0  0
    7.9300    0.5814   -2.4878 H   0  0  0  0  0  0  0  0  0  0  0  0
  1  2  1  0
  1 23  1  0
  1 24  1  0
  1 25  1  0
  2  3  1  0
  2  4  1  0
  2  5  1  6
  3 26  1  0
  3 27  1  0
  3 28  1  0
  4 29  1  0
  4 30  1  0
  4 31  1  0
  5  6  1  0
  6  7  2  0
  6  8  1  0
  9  8  1  1
  8 32  1  0
  9 10  1  0
  9 12  1  0
  9 22  1  0
 10 11  1  0
 10 33  1  0
 10 34  1  0
 11 35  1  0
 11 36  1  0
 12 13  1  0
 12 37  1  0
 12 38  1  0
 13 14  1  0
 13 22  1  0
 13 39  1  1
 14 15  1  0
 14 40  1  0
 14 41  1  0
 15 16  1  0
 15 42  1  0
 15 43  1  0
 16 17  2  0
 16 21  1  0
 17 18  1  0
 17 44  1  0
 18 19  2  0
 18 45  1  0
 19 20  1  0
 19 46  1  0
 20 21  2  0
 20 47  1  0
 21 48  1  0
 22 49  1  0
 22 50  1  0
M  END

