
     RDKit          3D

 39 40  0  0  0  0  0  0  0  0999 V2000
   -0.6819   -4.8602    0.9382 O   0  0  0  0  0  0  0  0  0  0  0  0
    0.1691   -4.5535    0.1414 C   0  0  0  0  0  0  0  0  0  0  0  0
    0.0439   -4.7722   -1.1647 O   0  0  0  0  0  0  0  0  0  0  0  0
    1.5030   -3.8844    0.5497 C   0  0  2  0  0  0  0  0  0  0  0  0
    2.3164   -4.4835    0.1099 H   0  0  0  0  0  0  0  0  0  0  0  0
    1.6581   -3.7167    2.0604 C   0  0  0  0  0  0  0  0  0  0  0  0
    1.2111   -2.2760    2.3268 C   0  0  1  0  0  0  0  0  0  0  0  0
    0.1097   -2.2404    2.3286 H   0  0  0  0  0  0  0  0  0  0  0  0
    1.6168   -1.7165    3.5468 O   0  0  0  0  0  0  0  0  0  0  0  0
    1.7279   -1.5206    1.0881 C   0  0  0  0  0  0  0  0  0  0  0  0
    1.5870   -2.4964    0.0061 N   0  0  0  0  0  0  0  0  0  0  0  0
    1.9771   -2.3652   -1.3078 C   0  0  0  0  0  0  0  0  0  0  0  0
    2.1321   -3.3822   -2.0089 O   0  0  0  0  0  0  0  0  0  0  0  0
    2.2095   -1.1267   -1.8432 N   0  0  0  0  0  0  0  0  0  0  0  0
    2.7292   -1.0749   -3.2217 C   0  0  0  0  0  0  0  0  0  0  0  0
    2.7720    0.4208   -3.5280 C   0  0  0  0  0  0  0  0  0  0  0  0
    1.5562    0.9697   -2.7626 C   0  0  2  0  0  0  0  0  0  0  0  0
    1.5295    2.4807   -2.5279 C   0  0  0  0  0  0  0  0  0  0  0  0
    1.4031    3.3140   -3.8048 C   0  0  0  0  0  0  0  0  0  0  0  0
    1.4125    4.7017   -3.5535 O   0  0  0  0  0  0  0  0  0  0  0  0
    1.5861    0.1479   -1.4586 C   0  0  0  0  0  0  0  0  0  0  0  0
    0.8419   -4.4165   -1.6392 H   0  0  0  0  0  0  0  0  0  0  0  0
    2.7200   -3.8227    2.3449 H   0  0  0  0  0  0  0  0  0  0  0  0
    1.0648   -4.4552    2.6134 H   0  0  0  0  0  0  0  0  0  0  0  0
    2.5685   -1.8572    3.6493 H   0  0  0  0  0  0  0  0  0  0  0  0
    2.7880   -1.2330    1.2411 H   0  0  0  0  0  0  0  0  0  0  0  0
    1.1518   -0.6039    0.9204 H   0  0  0  0  0  0  0  0  0  0  0  0
    2.0534   -1.6158   -3.9066 H   0  0  0  0  0  0  0  0  0  0  0  0
    3.7098   -1.5690   -3.2846 H   0  0  0  0  0  0  0  0  0  0  0  0
    2.7375    0.6211   -4.6088 H   0  0  0  0  0  0  0  0  0  0  0  0
    3.6985    0.8728   -3.1323 H   0  0  0  0  0  0  0  0  0  0  0  0
    0.6467    0.6803   -3.3213 H   0  0  0  0  0  0  0  0  0  0  0  0
    2.4432    2.7971   -1.9941 H   0  0  0  0  0  0  0  0  0  0  0  0
    0.6802    2.7289   -1.8630 H   0  0  0  0  0  0  0  0  0  0  0  0
    0.4965    3.0021   -4.3653 H   0  0  0  0  0  0  0  0  0  0  0  0
    2.2621    3.1218   -4.4680 H   0  0  0  0  0  0  0  0  0  0  0  0
    0.6314    4.9201   -3.0282 H   0  0  0  0  0  0  0  0  0  0  0  0
    0.5734   -0.0084   -1.0567 H   0  0  0  0  0  0  0  0  0  0  0  0
    2.1786    0.6773   -0.6908 H   0  0  0  0  0  0  0  0  0  0  0  0
  1  2  2  0
  2  3  1  0
  2  4  1  0
  3 22  1  0
  4  5  1  6
  4  6  1  0
  4 11  1  0
  6  7  1  0
  6 23  1  0
  6 24  1  0
  7  8  1  1
  7  9  1  0
  7 10  1  0
  9 25  1  0
 10 11  1  0
 10 26  1  0
 10 27  1  0
 11 12  1  0
 12 13  2  0
 12 14  1  0
 14 15  1  0
 14 21  1  0
 15 16  1  0
 15 28  1  0
 15 29  1  0
 16 17  1  0
 16 30  1  0
 16 31  1  0
 17 18  1  0
 17 21  1  0
 17 32  1  6
 18 19  1  0
 18 33  1  0
 18 34  1  0
 19 20  1  0
 19 35  1  0
 19 36  1  0
 20 37  1  0
 21 38  1  0
 21 39  1  0
M  END

