
     RDKit          3D

 43 44  0  0  0  0  0  0  0  0999 V2000
    1.2909    0.4356   -0.5412 C   0  0  0  0  0  0  0  0  0  0  0  0
    2.3020   -0.2070    0.2122 O   0  0  0  0  0  0  0  0  0  0  0  0
    3.0004    0.4844    1.1589 C   0  0  0  0  0  0  0  0  0  0  0  0
    2.7418    1.8357    1.4398 C   0  0  0  0  0  0  0  0  0  0  0  0
    3.4790    2.5248    2.3997 C   0  0  0  0  0  0  0  0  0  0  0  0
    4.4835    1.8674    3.1266 C   0  0  0  0  0  0  0  0  0  0  0  0
    5.2572    2.5747    4.0984 N   0  0  0  0  0  0  0  0  0  0  0  0
    6.6706    2.2357    4.2680 C   0  0  0  0  0  0  0  0  0  0  0  0
    4.4648    3.2226    5.4583 S   0  0  1  0  0  0  0  0  0  0  0  0
    4.0057    1.8015    6.4715 C   0  0  0  0  0  0  0  0  0  0  0  0
    5.4685    3.9871    6.1971 O   0  0  0  0  0  0  0  0  0  0  0  0
    3.2206    3.8414    5.0035 O   0  0  0  0  0  0  0  0  0  0  0  0
    4.7361    0.5213    2.8428 C   0  0  0  0  0  0  0  0  0  0  0  0
    4.0235   -0.1913    1.8684 C   0  0  0  0  0  0  0  0  0  0  0  0
    4.4523   -1.6360    1.7009 C   0  0  0  0  0  0  0  0  0  0  0  0
    5.3940   -2.0794    2.3545 O   0  0  0  0  0  0  0  0  0  0  0  0
    3.7507   -2.4055    0.8295 N   0  0  0  0  0  0  0  0  0  0  0  0
    4.0869   -3.8008    0.5934 C   0  0  0  0  0  0  0  0  0  0  0  0
    5.0474   -4.0040   -0.5671 C   0  0  0  0  0  0  0  0  0  0  0  0
    6.4160   -3.7143   -0.4252 C   0  0  0  0  0  0  0  0  0  0  0  0
    7.2562   -3.8974   -1.5225 C   0  0  0  0  0  0  0  0  0  0  0  0
    6.7080   -4.3628   -2.7214 C   0  0  0  0  0  0  0  0  0  0  0  0
    5.3359   -4.6212   -2.7622 C   0  0  0  0  0  0  0  0  0  0  0  0
    4.5226   -4.4471   -1.7161 N   0  0  0  0  0  0  0  0  0  0  0  0
    0.8916   -0.3205   -1.2297 H   0  0  0  0  0  0  0  0  0  0  0  0
    1.6957    1.2784   -1.1271 H   0  0  0  0  0  0  0  0  0  0  0  0
    0.4746    0.8019    0.1045 H   0  0  0  0  0  0  0  0  0  0  0  0
    1.9658    2.3727    0.8957 H   0  0  0  0  0  0  0  0  0  0  0  0
    3.2732    3.5751    2.6000 H   0  0  0  0  0  0  0  0  0  0  0  0
    7.1330    2.1790    3.2723 H   0  0  0  0  0  0  0  0  0  0  0  0
    6.8378    1.2708    4.7825 H   0  0  0  0  0  0  0  0  0  0  0  0
    7.1580    3.0317    4.8427 H   0  0  0  0  0  0  0  0  0  0  0  0
    4.9156    1.2722    6.7834 H   0  0  0  0  0  0  0  0  0  0  0  0
    3.3380    1.1505    5.8926 H   0  0  0  0  0  0  0  0  0  0  0  0
    3.4823    2.2091    7.3470 H   0  0  0  0  0  0  0  0  0  0  0  0
    5.5132   -0.0384    3.3643 H   0  0  0  0  0  0  0  0  0  0  0  0
    3.0357   -1.9576    0.2666 H   0  0  0  0  0  0  0  0  0  0  0  0
    3.1648   -4.3541    0.3659 H   0  0  0  0  0  0  0  0  0  0  0  0
    4.5279   -4.1933    1.5204 H   0  0  0  0  0  0  0  0  0  0  0  0
    6.7899   -3.3469    0.5329 H   0  0  0  0  0  0  0  0  0  0  0  0
    8.3256   -3.6838   -1.4439 H   0  0  0  0  0  0  0  0  0  0  0  0
    7.3283   -4.5245   -3.6061 H   0  0  0  0  0  0  0  0  0  0  0  0
    4.8708   -4.9884   -3.6852 H   0  0  0  0  0  0  0  0  0  0  0  0
  1  2  1  0
  1 25  1  0
  1 26  1  0
  1 27  1  0
  2  3  1  0
  3  4  2  0
  3 14  1  0
  4  5  1  0
  4 28  1  0
  5  6  2  0
  5 29  1  0
  6  7  1  0
  6 13  1  0
  7  8  1  0
  9  7  1  6
  8 30  1  0
  8 31  1  0
  8 32  1  0
  9 10  1  0
  9 11  2  0
  9 12  2  0
 10 33  1  0
 10 34  1  0
 10 35  1  0
 13 14  2  0
 13 36  1  0
 14 15  1  0
 15 16  2  0
 15 17  1  0
 17 18  1  0
 17 37  1  0
 18 19  1  0
 18 38  1  0
 18 39  1  0
 19 20  2  0
 19 24  1  0
 20 21  1  0
 20 40  1  0
 21 22  2  0
 21 41  1  0
 22 23  1  0
 22 42  1  0
 23 24  2  0
 23 43  1  0
M  END

