
     RDKit          3D

 24 25  0  0  0  0  0  0  0  0999 V2000
    2.5063   -1.6038    1.8769 O   0  0  0  0  0  0  0  0  0  0  0  0
    3.0783   -0.8131    1.1505 C   0  0  0  0  0  0  0  0  0  0  0  0
    3.8238    0.2582    1.5998 N   0  0  0  0  0  0  0  0  0  0  0  0
    4.3541    1.0960    0.7511 C   0  0  0  0  0  0  0  0  0  0  0  0
    4.2429    0.9902   -0.6637 C   0  0  0  0  0  0  0  0  0  0  0  0
    3.5446   -0.0905   -1.1311 C   0  0  0  0  0  0  0  0  0  0  0  0
    2.9905   -0.9817   -0.2729 N   0  0  0  0  0  0  0  0  0  0  0  0
    2.2403   -2.1465   -0.7778 C   0  0  0  0  0  0  0  0  0  0  0  0
    0.7756   -1.8595   -1.0439 C   0  0  0  0  0  0  0  0  0  0  0  0
   -0.1322   -1.6967    0.0165 C   0  0  0  0  0  0  0  0  0  0  0  0
   -1.4728   -1.4213   -0.2428 C   0  0  0  0  0  0  0  0  0  0  0  0
   -1.9376   -1.3073   -1.5593 C   0  0  0  0  0  0  0  0  0  0  0  0
   -3.6187   -0.9667   -1.8450 Cl  0  0  0  0  0  0  0  0  0  0  0  0
   -1.0385   -1.4739   -2.6243 C   0  0  0  0  0  0  0  0  0  0  0  0
   -1.5651   -1.3499   -4.2789 Cl  0  0  0  0  0  0  0  0  0  0  0  0
    0.3083   -1.7471   -2.3579 C   0  0  0  0  0  0  0  0  0  0  0  0
    4.9268    1.9310    1.1800 H   0  0  0  0  0  0  0  0  0  0  0  0
    4.6976    1.7129   -1.3401 H   0  0  0  0  0  0  0  0  0  0  0  0
    3.4021   -0.2892   -2.1966 H   0  0  0  0  0  0  0  0  0  0  0  0
    2.3415   -2.9257   -0.0117 H   0  0  0  0  0  0  0  0  0  0  0  0
    2.7335   -2.4881   -1.6990 H   0  0  0  0  0  0  0  0  0  0  0  0
    0.2254   -1.7843    1.0443 H   0  0  0  0  0  0  0  0  0  0  0  0
   -2.1827   -1.2945    0.5762 H   0  0  0  0  0  0  0  0  0  0  0  0
    0.9842   -1.8808   -3.2056 H   0  0  0  0  0  0  0  0  0  0  0  0
  1  2  2  0
  2  3  1  0
  2  7  1  0
  3  4  2  0
  4  5  1  0
  4 17  1  0
  5  6  2  0
  5 18  1  0
  6  7  1  0
  6 19  1  0
  7  8  1  0
  8  9  1  0
  8 20  1  0
  8 21  1  0
  9 10  2  0
  9 16  1  0
 10 11  1  0
 10 22  1  0
 11 12  2  0
 11 23  1  0
 12 13  1  0
 12 14  1  0
 14 15  1  0
 14 16  2  0
 16 24  1  0
M  END

