
     RDKit          3D

 55 57  0  0  0  0  0  0  0  0999 V2000
   -1.1522    2.6017    2.2334 C   0  0  0  0  0  0  0  0  0  0  0  0
    0.2238    2.0353    2.6250 C   0  0  1  0  0  0  0  0  0  0  0  0
    0.6048    0.8328    1.7441 C   0  0  0  0  0  0  0  0  0  0  0  0
    1.3035    3.1099    2.6205 C   0  0  0  0  0  0  0  0  0  0  0  0
    1.9722    3.4627    3.8024 C   0  0  0  0  0  0  0  0  0  0  0  0
    2.9618    4.4484    3.8111 C   0  0  0  0  0  0  0  0  0  0  0  0
    3.3138    5.1218    2.6327 C   0  0  0  0  0  0  0  0  0  0  0  0
    4.3858    6.1776    2.6352 C   0  0  0  0  0  0  0  0  0  0  0  0
    6.0235    5.3743    2.3019 S   0  0  0  0  0  0  0  0  0  0  0  0
    7.0568    6.7910    2.3421 C   0  0  0  0  0  0  0  0  0  0  0  0
    6.6637    8.0099    2.5694 N   0  0  0  0  0  0  0  0  0  0  0  0
    7.6778    8.9214    2.5359 N   0  0  0  0  0  0  0  0  0  0  0  0
    8.8422    8.3969    2.2873 C   0  0  0  0  0  0  0  0  0  0  0  0
   10.3524    9.2813    2.1704 S   0  0  0  0  0  0  0  0  0  0  0  0
    9.7201   10.9433    2.5633 C   0  0  0  0  0  0  0  0  0  0  0  0
    9.3448   11.1054    4.0490 C   0  0  0  0  0  0  0  0  0  0  0  0
    9.8406   10.3839    4.8966 O   0  0  0  0  0  0  0  0  0  0  0  0
    8.4807   12.1252    4.3612 N   0  0  0  0  0  0  0  0  0  0  0  0
    7.6787   12.9139    3.4266 C   0  0  0  0  0  0  0  0  0  0  0  0
    6.2144   12.4567    3.4533 C   0  0  0  0  0  0  0  0  0  0  0  0
    5.6536   12.4843    4.8813 C   0  0  0  0  0  0  0  0  0  0  0  0
    6.5602   11.7242    5.8624 C   0  0  2  0  0  0  0  0  0  0  0  0
    6.0924   11.9025    7.3090 C   0  0  0  0  0  0  0  0  0  0  0  0
    6.2438   10.8038    8.1035 N   0  0  0  0  0  0  0  0  0  0  0  0
    5.6519   12.9591    7.7273 O   0  0  0  0  0  0  0  0  0  0  0  0
    8.0173   12.2309    5.7413 C   0  0  0  0  0  0  0  0  0  0  0  0
    8.7959    6.6499    2.0601 S   0  0  0  0  0  0  0  0  0  0  0  0
    2.6516    4.7697    1.4456 C   0  0  0  0  0  0  0  0  0  0  0  0
    1.6641    3.7846    1.4413 C   0  0  0  0  0  0  0  0  0  0  0  0
   -1.9295    1.8237    2.3083 H   0  0  0  0  0  0  0  0  0  0  0  0
   -1.1539    2.9734    1.1955 H   0  0  0  0  0  0  0  0  0  0  0  0
   -1.4427    3.4381    2.8882 H   0  0  0  0  0  0  0  0  0  0  0  0
    0.1452    1.6698    3.6637 H   0  0  0  0  0  0  0  0  0  0  0  0
    0.6849    1.1200    0.6827 H   0  0  0  0  0  0  0  0  0  0  0  0
   -0.1579    0.0402    1.8160 H   0  0  0  0  0  0  0  0  0  0  0  0
    1.5723    0.4035    2.0479 H   0  0  0  0  0  0  0  0  0  0  0  0
    1.7122    2.9563    4.7365 H   0  0  0  0  0  0  0  0  0  0  0  0
    3.4660    4.7007    4.7483 H   0  0  0  0  0  0  0  0  0  0  0  0
    4.4637    6.6932    3.6016 H   0  0  0  0  0  0  0  0  0  0  0  0
    4.2292    6.9365    1.8571 H   0  0  0  0  0  0  0  0  0  0  0  0
    8.8890   11.1514    1.8820 H   0  0  0  0  0  0  0  0  0  0  0  0
   10.5529   11.6223    2.3181 H   0  0  0  0  0  0  0  0  0  0  0  0
    8.0963   12.8575    2.4148 H   0  0  0  0  0  0  0  0  0  0  0  0
    7.7462   13.9737    3.7347 H   0  0  0  0  0  0  0  0  0  0  0  0
    6.1620   11.4339    3.0433 H   0  0  0  0  0  0  0  0  0  0  0  0
    5.6138   13.1071    2.7955 H   0  0  0  0  0  0  0  0  0  0  0  0
    4.6367   12.0596    4.9010 H   0  0  0  0  0  0  0  0  0  0  0  0
    5.5626   13.5225    5.2422 H   0  0  0  0  0  0  0  0  0  0  0  0
    6.5645   10.6516    5.6020 H   0  0  0  0  0  0  0  0  0  0  0  0
    6.6488    9.9424    7.7624 H   0  0  0  0  0  0  0  0  0  0  0  0
    6.0229   10.8871    9.0892 H   0  0  0  0  0  0  0  0  0  0  0  0
    8.6952   11.6456    6.3727 H   0  0  0  0  0  0  0  0  0  0  0  0
    8.0588   13.2872    6.0588 H   0  0  0  0  0  0  0  0  0  0  0  0
    2.9125    5.2778    0.5127 H   0  0  0  0  0  0  0  0  0  0  0  0
    1.1655    3.5404    0.4994 H   0  0  0  0  0  0  0  0  0  0  0  0
  1  2  1  0
  1 30  1  0
  1 31  1  0
  1 32  1  0
  2  3  1  0
  2  4  1  0
  2 33  1  1
  3 34  1  0
  3 35  1  0
  3 36  1  0
  4  5  2  0
  4 29  1  0
  5  6  1  0
  5 37  1  0
  6  7  2  0
  6 38  1  0
  7  8  1  0
  7 28  1  0
  8  9  1  0
  8 39  1  0
  8 40  1  0
  9 10  1  0
 10 11  2  0
 10 27  1  0
 11 12  1  0
 12 13  2  0
 13 14  1  0
 13 27  1  0
 14 15  1  0
 15 16  1  0
 15 41  1  0
 15 42  1  0
 16 17  2  0
 16 18  1  0
 18 19  1  0
 18 26  1  0
 19 20  1  0
 19 43  1  0
 19 44  1  0
 20 21  1  0
 20 45  1  0
 20 46  1  0
 21 22  1  0
 21 47  1  0
 21 48  1  0
 22 23  1  0
 22 26  1  0
 22 49  1  6
 23 24  1  0
 23 25  2  0
 24 50  1  0
 24 51  1  0
 26 52  1  0
 26 53  1  0
 28 29  2  0
 28 54  1  0
 29 55  1  0
M  END

