
     RDKit          3D

 42 46  0  0  0  0  0  0  0  0999 V2000
    1.0524   -0.0210   -0.3896 N   0  0  0  0  0  0  0  0  0  0  0  0
    2.4150    0.0941   -0.2476 C   0  0  0  0  0  0  0  0  0  0  0  0
    3.2143   -1.0574   -0.0238 C   0  0  0  0  0  0  0  0  0  0  0  0
    4.5940   -0.9678    0.1620 C   0  0  0  0  0  0  0  0  0  0  0  0
    5.1837    0.2939    0.1223 C   0  0  0  0  0  0  0  0  0  0  0  0
    4.4053    1.4268   -0.0983 C   0  0  0  0  0  0  0  0  0  0  0  0
    3.0358    1.3679   -0.2851 C   0  0  0  0  0  0  0  0  0  0  0  0
    5.3126    2.6145   -0.0915 C   0  0  0  0  0  0  0  0  0  0  0  0
    4.9870    3.7714   -0.2559 O   0  0  0  0  0  0  0  0  0  0  0  0
    6.6157    2.1316    0.1418 N   0  0  0  0  0  0  0  0  0  0  0  0
    7.7938    3.0489    0.2147 C   0  0  1  0  0  0  0  0  0  0  0  0
    7.5825    4.0683    1.3655 C   0  0  0  0  0  0  0  0  0  0  0  0
    8.7598    5.0610    1.4240 C   0  0  1  0  0  0  0  0  0  0  0  0
    8.5766    5.7814    2.2395 H   0  0  0  0  0  0  0  0  0  0  0  0
   10.0675    4.2941    1.6872 C   0  0  0  0  0  0  0  0  0  0  0  0
   10.2951    3.2852    0.5472 C   0  0  1  0  0  0  0  0  0  0  0  0
   11.2181    2.7119    0.7377 H   0  0  0  0  0  0  0  0  0  0  0  0
    9.1174    2.2899    0.4815 C   0  0  0  0  0  0  0  0  0  0  0  0
   10.4200    4.0385   -0.7894 C   0  0  0  0  0  0  0  0  0  0  0  0
    9.1128    4.8051   -1.0569 C   0  0  1  0  0  0  0  0  0  0  0  0
    9.1831    5.3423   -2.0182 H   0  0  0  0  0  0  0  0  0  0  0  0
    7.9372    3.8113   -1.1290 C   0  0  0  0  0  0  0  0  0  0  0  0
    8.8629    5.8134    0.0823 C   0  0  0  0  0  0  0  0  0  0  0  0
    6.5988    0.7104    0.2787 C   0  0  0  0  0  0  0  0  0  0  0  0
    7.5476   -0.0119    0.4810 O   0  0  0  0  0  0  0  0  0  0  0  0
    0.6580   -0.9322   -0.5829 H   0  0  0  0  0  0  0  0  0  0  0  0
    0.5357    0.7642   -0.7638 H   0  0  0  0  0  0  0  0  0  0  0  0
    2.7270   -2.0361    0.0046 H   0  0  0  0  0  0  0  0  0  0  0  0
    5.1975   -1.8622    0.3327 H   0  0  0  0  0  0  0  0  0  0  0  0
    2.4555    2.2784   -0.4539 H   0  0  0  0  0  0  0  0  0  0  0  0
    7.4978    3.5176    2.3182 H   0  0  0  0  0  0  0  0  0  0  0  0
    6.6401    4.6108    1.2104 H   0  0  0  0  0  0  0  0  0  0  0  0
   10.0112    3.7676    2.6558 H   0  0  0  0  0  0  0  0  0  0  0  0
   10.9179    4.9950    1.7527 H   0  0  0  0  0  0  0  0  0  0  0  0
    9.0495    1.7262    1.4224 H   0  0  0  0  0  0  0  0  0  0  0  0
    9.2970    1.5484   -0.3093 H   0  0  0  0  0  0  0  0  0  0  0  0
   10.6187    3.3274   -1.6099 H   0  0  0  0  0  0  0  0  0  0  0  0
   11.2749    4.7363   -0.7565 H   0  0  0  0  0  0  0  0  0  0  0  0
    8.1032    3.0796   -1.9385 H   0  0  0  0  0  0  0  0  0  0  0  0
    7.0043    4.3471   -1.3513 H   0  0  0  0  0  0  0  0  0  0  0  0
    7.9348    6.3790   -0.1081 H   0  0  0  0  0  0  0  0  0  0  0  0
    9.6847    6.5494    0.1232 H   0  0  0  0  0  0  0  0  0  0  0  0
  1  2  1  0
  1 26  1  0
  1 27  1  0
  2  3  1  0
  2  7  2  0
  3  4  2  0
  3 28  1  0
  4  5  1  0
  4 29  1  0
  5  6  2  0
  5 24  1  0
  6  7  1  0
  6  8  1  0
  7 30  1  0
  8  9  2  0
  8 10  1  0
 11 10  1  6
 10 24  1  0
 11 12  1  0
 11 18  1  0
 11 22  1  0
 12 13  1  0
 12 31  1  0
 12 32  1  0
 13 14  1  1
 13 15  1  0
 13 23  1  0
 15 16  1  0
 15 33  1  0
 15 34  1  0
 16 17  1  1
 16 18  1  0
 16 19  1  0
 18 35  1  0
 18 36  1  0
 19 20  1  0
 19 37  1  0
 19 38  1  0
 20 21  1  6
 20 22  1  0
 20 23  1  0
 22 39  1  0
 22 40  1  0
 23 41  1  0
 23 42  1  0
 24 25  2  0
M  END

