
     RDKit          3D

 32 33  0  0  0  0  0  0  0  0999 V2000
    0.9058    0.1282   -0.0233 O   0  0  0  0  0  0  0  0  0  0  0  0
    2.0683   -0.2383   -0.0148 C   0  0  0  0  0  0  0  0  0  0  0  0
    2.9485   -0.1650    1.2294 C   0  0  0  0  0  0  0  0  0  0  0  0
    2.1221   -0.1390    2.5230 C   0  0  0  0  0  0  0  0  0  0  0  0
    2.9535    0.1038    3.7596 C   0  0  0  0  0  0  0  0  0  0  0  0
    2.9278    1.3172    4.4616 C   0  0  0  0  0  0  0  0  0  0  0  0
    3.7082    1.5326    5.6017 C   0  0  0  0  0  0  0  0  0  0  0  0
    4.5404    0.5082    6.0584 C   0  0  0  0  0  0  0  0  0  0  0  0
    5.6122    0.7772    7.6110 Br  0  0  0  0  0  0  0  0  0  0  0  0
    4.5987   -0.7183    5.3917 C   0  0  0  0  0  0  0  0  0  0  0  0
    3.8062   -0.8881    4.2607 C   0  0  0  0  0  0  0  0  0  0  0  0
    3.8637   -2.0690    3.6160 F   0  0  0  0  0  0  0  0  0  0  0  0
    2.7094   -0.7301   -1.1279 N   0  0  0  0  0  0  0  0  0  0  0  0
    2.2068   -0.8747   -2.4150 C   0  0  0  0  0  0  0  0  0  0  0  0
    0.9397   -0.5615   -2.8504 C   0  0  0  0  0  0  0  0  0  0  0  0
    0.5964   -0.7777   -4.2196 C   0  0  0  0  0  0  0  0  0  0  0  0
   -1.1501   -0.3453   -4.8299 Br  0  0  0  0  0  0  0  0  0  0  0  0
    1.5137   -1.2910   -5.0900 C   0  0  0  0  0  0  0  0  0  0  0  0
    2.7705   -1.5966   -4.6301 N   0  0  0  0  0  0  0  0  0  0  0  0
    3.4627   -1.9791   -5.2689 H   0  0  0  0  0  0  0  0  0  0  0  0
    3.2158   -1.4301   -3.3297 C   0  0  0  0  0  0  0  0  0  0  0  0
    4.3580   -1.7225   -2.9844 O   0  0  0  0  0  0  0  0  0  0  0  0
    3.5515    0.7581    1.1498 H   0  0  0  0  0  0  0  0  0  0  0  0
    3.6640   -1.0027    1.2402 H   0  0  0  0  0  0  0  0  0  0  0  0
    1.5849   -1.0969    2.6186 H   0  0  0  0  0  0  0  0  0  0  0  0
    1.3523    0.6400    2.4309 H   0  0  0  0  0  0  0  0  0  0  0  0
    2.2713    2.1164    4.1071 H   0  0  0  0  0  0  0  0  0  0  0  0
    3.6670    2.4858    6.1302 H   0  0  0  0  0  0  0  0  0  0  0  0
    5.2392   -1.5329    5.7305 H   0  0  0  0  0  0  0  0  0  0  0  0
    3.6792   -1.0392   -1.0592 H   0  0  0  0  0  0  0  0  0  0  0  0
    0.2154   -0.1552   -2.1472 H   0  0  0  0  0  0  0  0  0  0  0  0
    1.3118   -1.4788   -6.1441 H   0  0  0  0  0  0  0  0  0  0  0  0
  1  2  2  0
  2  3  1  0
  2 13  1  0
  3  4  1  0
  3 23  1  0
  3 24  1  0
  4  5  1  0
  4 25  1  0
  4 26  1  0
  5  6  2  0
  5 11  1  0
  6  7  1  0
  6 27  1  0
  7  8  2  0
  7 28  1  0
  8  9  1  0
  8 10  1  0
 10 11  2  0
 10 29  1  0
 11 12  1  0
 13 14  1  0
 13 30  1  0
 14 15  2  0
 14 21  1  0
 15 16  1  0
 15 31  1  0
 16 17  1  0
 16 18  2  0
 18 19  1  0
 18 32  1  0
 19 20  1  0
 19 21  1  0
 21 22  2  0
M  END

