
     RDKit          3D

 65 67  0  0  0  0  0  0  0  0999 V2000
    2.8523   -0.4303    1.5236 C   0  0  0  0  0  0  0  0  0  0  0  0
    3.3117   -0.5599    0.1992 O   0  0  0  0  0  0  0  0  0  0  0  0
    3.6022    0.5645   -0.5099 C   0  0  0  0  0  0  0  0  0  0  0  0
    3.4857    1.8682   -0.0264 C   0  0  0  0  0  0  0  0  0  0  0  0
    3.8235    2.9232   -0.8772 C   0  0  0  0  0  0  0  0  0  0  0  0
    4.2699    2.7418   -2.1955 C   0  0  0  0  0  0  0  0  0  0  0  0
    4.6095    3.9976   -2.9915 C   0  0  0  0  0  0  0  0  0  0  0  0
    3.6577    5.1951   -2.8370 C   0  0  1  0  0  0  0  0  0  0  0  0
    3.8322    5.9108   -1.6191 O   0  0  0  0  0  0  0  0  0  0  0  0
    3.7907    6.1834   -4.0147 C   0  0  0  0  0  0  0  0  0  0  0  0
    3.3647    5.6241   -5.2924 N   0  0  0  0  0  0  0  0  0  0  0  0
    1.9248    5.6481   -5.5369 C   0  0  0  0  0  0  0  0  0  0  0  0
    1.4189    7.0082   -6.0391 C   0  0  0  0  0  0  0  0  0  0  0  0
    2.1646    7.4045   -7.2470 N   0  0  0  0  0  0  0  0  0  0  0  0
    1.6703    8.5869   -7.9218 C   0  0  0  0  0  0  0  0  0  0  0  0
    1.4477    9.7781   -7.2155 C   0  0  0  0  0  0  0  0  0  0  0  0
    0.9879   10.9215   -7.8711 C   0  0  0  0  0  0  0  0  0  0  0  0
    0.7514   10.8881   -9.2487 C   0  0  0  0  0  0  0  0  0  0  0  0
    0.9728    9.7092   -9.9573 C   0  0  0  0  0  0  0  0  0  0  0  0
    1.4267    8.5471   -9.3138 C   0  0  0  0  0  0  0  0  0  0  0  0
    1.6016    7.3164  -10.1908 C   0  0  0  0  0  0  0  0  0  0  0  0
    1.4461    7.3681  -11.3869 O   0  0  0  0  0  0  0  0  0  0  0  0
    1.9206    6.1859   -9.5625 O   0  0  0  0  0  0  0  0  0  0  0  0
    3.6230    7.4326   -7.0061 C   0  0  0  0  0  0  0  0  0  0  0  0
    4.0868    6.0687   -6.4785 C   0  0  0  0  0  0  0  0  0  0  0  0
    4.3939    1.4055   -2.6914 C   0  0  0  0  0  0  0  0  0  0  0  0
    4.8741    1.0443   -4.1263 C   0  0  1  0  0  0  0  0  0  0  0  0
    6.2873    1.6165   -4.3982 C   0  0  0  0  0  0  0  0  0  0  0  0
    4.9909   -0.4827   -4.3325 C   0  0  0  0  0  0  0  0  0  0  0  0
    3.8552    1.5426   -5.1828 C   0  0  0  0  0  0  0  0  0  0  0  0
    4.0517    0.3605   -1.8225 C   0  0  0  0  0  0  0  0  0  0  0  0
    2.6797   -1.4484    1.8986 H   0  0  0  0  0  0  0  0  0  0  0  0
    1.9041    0.1355    1.5790 H   0  0  0  0  0  0  0  0  0  0  0  0
    3.5963    0.0669    2.1728 H   0  0  0  0  0  0  0  0  0  0  0  0
    3.1427    2.0816    0.9862 H   0  0  0  0  0  0  0  0  0  0  0  0
    3.7314    3.9433   -0.5011 H   0  0  0  0  0  0  0  0  0  0  0  0
    4.6511    3.7814   -4.0615 H   0  0  0  0  0  0  0  0  0  0  0  0
    5.6265    4.3514   -2.7216 H   0  0  0  0  0  0  0  0  0  0  0  0
    2.6197    4.8249   -2.8020 H   0  0  0  0  0  0  0  0  0  0  0  0
    4.7734    6.1155   -1.5266 H   0  0  0  0  0  0  0  0  0  0  0  0
    4.8533    6.4714   -4.1003 H   0  0  0  0  0  0  0  0  0  0  0  0
    3.2443    7.1032   -3.7228 H   0  0  0  0  0  0  0  0  0  0  0  0
    1.3855    5.3745   -4.6177 H   0  0  0  0  0  0  0  0  0  0  0  0
    1.6839    4.8781   -6.2912 H   0  0  0  0  0  0  0  0  0  0  0  0
    1.5224    7.7645   -5.2358 H   0  0  0  0  0  0  0  0  0  0  0  0
    0.3497    6.9450   -6.2936 H   0  0  0  0  0  0  0  0  0  0  0  0
    1.6398    9.8138   -6.1412 H   0  0  0  0  0  0  0  0  0  0  0  0
    0.8183   11.8403   -7.3038 H   0  0  0  0  0  0  0  0  0  0  0  0
    0.3932   11.7804   -9.7678 H   0  0  0  0  0  0  0  0  0  0  0  0
    0.7955    9.6477  -11.0326 H   0  0  0  0  0  0  0  0  0  0  0  0
    1.9901    6.3948   -8.5843 H   0  0  0  0  0  0  0  0  0  0  0  0
    3.8839    8.2389   -6.2897 H   0  0  0  0  0  0  0  0  0  0  0  0
    4.1284    7.6625   -7.9567 H   0  0  0  0  0  0  0  0  0  0  0  0
    5.1660    6.1015   -6.2636 H   0  0  0  0  0  0  0  0  0  0  0  0
    3.9378    5.3211   -7.2783 H   0  0  0  0  0  0  0  0  0  0  0  0
    7.0074    1.2300   -3.6592 H   0  0  0  0  0  0  0  0  0  0  0  0
    6.3321    2.7116   -4.3637 H   0  0  0  0  0  0  0  0  0  0  0  0
    6.6339    1.3057   -5.3976 H   0  0  0  0  0  0  0  0  0  0  0  0
    5.7064   -0.9430   -3.6342 H   0  0  0  0  0  0  0  0  0  0  0  0
    5.3507   -0.6825   -5.3538 H   0  0  0  0  0  0  0  0  0  0  0  0
    4.0234   -0.9949   -4.2222 H   0  0  0  0  0  0  0  0  0  0  0  0
    3.7118    2.6314   -5.1850 H   0  0  0  0  0  0  0  0  0  0  0  0
    2.8709    1.0793   -5.0095 H   0  0  0  0  0  0  0  0  0  0  0  0
    4.1878    1.2527   -6.1936 H   0  0  0  0  0  0  0  0  0  0  0  0
    4.1193   -0.6787   -2.1353 H   0  0  0  0  0  0  0  0  0  0  0  0
  1  2  1  0
  1 32  1  0
  1 33  1  0
  1 34  1  0
  2  3  1  0
  3  4  2  0
  3 31  1  0
  4  5  1  0
  4 35  1  0
  5  6  2  0
  5 36  1  0
  6  7  1  0
  6 26  1  0
  7  8  1  0
  7 37  1  0
  7 38  1  0
  8  9  1  0
  8 10  1  0
  8 39  1  1
  9 40  1  0
 10 11  1  0
 10 41  1  0
 10 42  1  0
 11 12  1  0
 11 25  1  0
 12 13  1  0
 12 43  1  0
 12 44  1  0
 13 14  1  0
 13 45  1  0
 13 46  1  0
 14 15  1  0
 14 24  1  0
 15 16  2  0
 15 20  1  0
 16 17  1  0
 16 47  1  0
 17 18  2  0
 17 48  1  0
 18 19  1  0
 18 49  1  0
 19 20  2  0
 19 50  1  0
 20 21  1  0
 21 22  2  0
 21 23  1  0
 23 51  1  0
 24 25  1  0
 24 52  1  0
 24 53  1  0
 25 54  1  0
 25 55  1  0
 26 27  1  0
 26 31  2  0
 27 28  1  6
 27 29  1  0
 27 30  1  0
 28 56  1  0
 28 57  1  0
 28 58  1  0
 29 59  1  0
 29 60  1  0
 29 61  1  0
 30 62  1  0
 30 63  1  0
 30 64  1  0
 31 65  1  0
M  END

