
     RDKit          3D

 46 48  0  0  0  0  0  0  0  0999 V2000
    7.0284    1.6365   -0.5722 C   0  0  0  0  0  0  0  0  0  0  0  0
    6.3331    0.3634   -0.5172 N   0  0  0  0  0  0  0  0  0  0  0  0
    7.0095   -0.7001    0.1992 C   0  0  0  0  0  0  0  0  0  0  0  0
    4.9787    0.3493   -0.8148 C   0  0  0  0  0  0  0  0  0  0  0  0
    4.3376    1.3898   -0.9050 O   0  0  0  0  0  0  0  0  0  0  0  0
    4.3772   -0.9073   -0.9836 N   0  0  0  0  0  0  0  0  0  0  0  0
    2.9588   -0.9162   -0.6110 C   0  0  0  0  0  0  0  0  0  0  0  0
    2.7414   -0.7736    0.8996 C   0  0  0  0  0  0  0  0  0  0  0  0
    1.3098   -0.7898    1.1869 N   0  0  0  0  0  0  0  0  0  0  0  0
    5.0170   -1.9798   -1.7960 C   0  0  1  0  0  0  0  0  0  0  0  0
    4.0416   -3.0748   -2.3101 C   0  0  1  0  0  0  0  0  0  0  0  0
    3.0914   -2.5488   -3.4097 C   0  0  0  0  0  0  0  0  0  0  0  0
    3.9115   -2.0233   -4.6012 C   0  0  2  0  0  0  0  0  0  0  0  0
    4.7566   -3.1699   -5.1898 C   0  0  0  0  0  0  0  0  0  0  0  0
    5.7055   -3.7205   -4.1070 C   0  0  2  0  0  0  0  0  0  0  0  0
    4.8836   -4.2261   -2.9064 C   0  0  0  0  0  0  0  0  0  0  0  0
    6.6345   -2.5914   -3.6292 C   0  0  0  0  0  0  0  0  0  0  0  0
    5.7983   -1.4410   -3.0321 C   0  0  1  0  0  0  0  0  0  0  0  0
    4.8320   -0.8939   -4.1013 C   0  0  0  0  0  0  0  0  0  0  0  0
    8.0423    1.4967   -0.9847 H   0  0  0  0  0  0  0  0  0  0  0  0
    7.1261    2.0961    0.4301 H   0  0  0  0  0  0  0  0  0  0  0  0
    6.4659    2.3302   -1.2074 H   0  0  0  0  0  0  0  0  0  0  0  0
    7.5498   -0.2780    1.0650 H   0  0  0  0  0  0  0  0  0  0  0  0
    7.7490   -1.2361   -0.4253 H   0  0  0  0  0  0  0  0  0  0  0  0
    6.2814   -1.4253    0.5825 H   0  0  0  0  0  0  0  0  0  0  0  0
    2.4917   -1.8551   -0.9160 H   0  0  0  0  0  0  0  0  0  0  0  0
    2.4284   -0.0980   -1.1281 H   0  0  0  0  0  0  0  0  0  0  0  0
    3.2673    0.1345    1.2583 H   0  0  0  0  0  0  0  0  0  0  0  0
    3.2093   -1.6361    1.4063 H   0  0  0  0  0  0  0  0  0  0  0  0
    0.8773    0.0690    0.8420 H   0  0  0  0  0  0  0  0  0  0  0  0
    1.1481   -0.7981    2.1936 H   0  0  0  0  0  0  0  0  0  0  0  0
    5.7489   -2.5112   -1.1621 H   0  0  0  0  0  0  0  0  0  0  0  0
    3.4601   -3.4790   -1.4663 H   0  0  0  0  0  0  0  0  0  0  0  0
    2.4388   -1.7497   -3.0296 H   0  0  0  0  0  0  0  0  0  0  0  0
    2.4274   -3.3690   -3.7337 H   0  0  0  0  0  0  0  0  0  0  0  0
    3.2281   -1.6319   -5.3740 H   0  0  0  0  0  0  0  0  0  0  0  0
    5.3399   -2.8096   -6.0553 H   0  0  0  0  0  0  0  0  0  0  0  0
    4.0974   -3.9733   -5.5625 H   0  0  0  0  0  0  0  0  0  0  0  0
    6.3044   -4.5496   -4.5215 H   0  0  0  0  0  0  0  0  0  0  0  0
    5.5534   -4.6484   -2.1376 H   0  0  0  0  0  0  0  0  0  0  0  0
    4.2096   -5.0409   -3.2215 H   0  0  0  0  0  0  0  0  0  0  0  0
    7.2377   -2.2103   -4.4711 H   0  0  0  0  0  0  0  0  0  0  0  0
    7.3471   -2.9755   -2.8783 H   0  0  0  0  0  0  0  0  0  0  0  0
    6.4786   -0.6412   -2.7093 H   0  0  0  0  0  0  0  0  0  0  0  0
    5.4137   -0.4744   -4.9404 H   0  0  0  0  0  0  0  0  0  0  0  0
    4.2339   -0.0662   -3.6855 H   0  0  0  0  0  0  0  0  0  0  0  0
  1  2  1  0
  1 20  1  0
  1 21  1  0
  1 22  1  0
  2  3  1  0
  2  4  1  0
  3 23  1  0
  3 24  1  0
  3 25  1  0
  4  5  2  0
  4  6  1  0
  6  7  1  0
  6 10  1  0
  7  8  1  0
  7 26  1  0
  7 27  1  0
  8  9  1  0
  8 28  1  0
  8 29  1  0
  9 30  1  0
  9 31  1  0
 10 11  1  0
 10 18  1  0
 10 32  1  1
 11 12  1  0
 11 16  1  0
 11 33  1  1
 12 13  1  0
 12 34  1  0
 12 35  1  0
 13 14  1  0
 13 19  1  0
 13 36  1  6
 14 15  1  0
 14 37  1  0
 14 38  1  0
 15 16  1  0
 15 17  1  0
 15 39  1  6
 16 40  1  0
 16 41  1  0
 17 18  1  0
 17 42  1  0
 17 43  1  0
 18 19  1  0
 18 44  1  1
 19 45  1  0
 19 46  1  0
M  END

