
     RDKit          3D

 40 41  0  0  0  0  0  0  0  0999 V2000
   10.9184    1.3237   -1.9388 C   0  0  0  0  0  0  0  0  0  0  0  0
    9.6576    0.9153   -1.1848 C   0  0  0  0  0  0  0  0  0  0  0  0
    8.2397    1.8554   -1.9035 S   0  0  0  0  0  0  0  0  0  0  0  0
    6.8104    1.2087   -1.1356 C   0  0  0  0  0  0  0  0  0  0  0  0
    5.5221    1.2437   -1.6051 C   0  0  0  0  0  0  0  0  0  0  0  0
    4.9748    1.7903   -2.8462 C   0  0  0  0  0  0  0  0  0  0  0  0
    3.7794    1.2775   -3.4093 C   0  0  0  0  0  0  0  0  0  0  0  0
    3.2773    1.7724   -4.6026 C   0  0  0  0  0  0  0  0  0  0  0  0
    3.9333    2.8138   -5.2879 C   0  0  0  0  0  0  0  0  0  0  0  0
    3.3456    3.2286   -6.4331 O   0  0  0  0  0  0  0  0  0  0  0  0
    3.9216    4.2538   -7.2553 C   0  0  1  0  0  0  0  0  0  0  0  0
    5.0397    3.6817   -8.1247 C   0  0  0  0  0  0  0  0  0  0  0  0
    2.7731    4.8292   -8.0735 C   0  0  0  0  0  0  0  0  0  0  0  0
    5.1097    3.3482   -4.7367 C   0  0  0  0  0  0  0  0  0  0  0  0
    5.6116    2.8400   -3.5377 C   0  0  0  0  0  0  0  0  0  0  0  0
    4.6549    0.5800   -0.5622 C   0  0  0  0  0  0  0  0  0  0  0  0
    3.4616    0.3757   -0.5836 O   0  0  0  0  0  0  0  0  0  0  0  0
    5.4934    0.2099    0.4942 N   0  0  0  0  0  0  0  0  0  0  0  0
    5.0539   -0.4569    1.7011 C   0  0  0  0  0  0  0  0  0  0  0  0
    6.8075    0.5714    0.2339 C   0  0  0  0  0  0  0  0  0  0  0  0
    7.7346    0.3858    0.9915 O   0  0  0  0  0  0  0  0  0  0  0  0
   11.7856    0.7819   -1.5294 H   0  0  0  0  0  0  0  0  0  0  0  0
   11.1186    2.4023   -1.8365 H   0  0  0  0  0  0  0  0  0  0  0  0
   10.8470    1.0899   -3.0128 H   0  0  0  0  0  0  0  0  0  0  0  0
    9.7247    1.1361   -0.1137 H   0  0  0  0  0  0  0  0  0  0  0  0
    9.4515   -0.1590   -1.2967 H   0  0  0  0  0  0  0  0  0  0  0  0
    3.2442    0.4817   -2.8934 H   0  0  0  0  0  0  0  0  0  0  0  0
    2.3602    1.3690   -5.0367 H   0  0  0  0  0  0  0  0  0  0  0  0
    4.3248    5.0498   -6.6035 H   0  0  0  0  0  0  0  0  0  0  0  0
    4.6415    2.8948   -8.7846 H   0  0  0  0  0  0  0  0  0  0  0  0
    5.8437    3.2423   -7.5159 H   0  0  0  0  0  0  0  0  0  0  0  0
    5.4803    4.4718   -8.7530 H   0  0  0  0  0  0  0  0  0  0  0  0
    2.3243    4.0475   -8.7063 H   0  0  0  0  0  0  0  0  0  0  0  0
    3.1322    5.6415   -8.7240 H   0  0  0  0  0  0  0  0  0  0  0  0
    1.9894    5.2291   -7.4131 H   0  0  0  0  0  0  0  0  0  0  0  0
    5.6422    4.1646   -5.2242 H   0  0  0  0  0  0  0  0  0  0  0  0
    6.5081    3.3013   -3.1224 H   0  0  0  0  0  0  0  0  0  0  0  0
    3.9669   -0.5911    1.6281 H   0  0  0  0  0  0  0  0  0  0  0  0
    5.2938    0.1460    2.5903 H   0  0  0  0  0  0  0  0  0  0  0  0
    5.5402   -1.4391    1.8076 H   0  0  0  0  0  0  0  0  0  0  0  0
  1  2  1  0
  1 22  1  0
  1 23  1  0
  1 24  1  0
  2  3  1  0
  2 25  1  0
  2 26  1  0
  3  4  2  0
  4  5  1  0
  4 20  1  0
  5  6  1  0
  5 16  2  0
  6  7  2  0
  6 15  1  0
  7  8  1  0
  7 27  1  0
  8  9  2  0
  8 28  1  0
  9 10  1  0
  9 14  1  0
 10 11  1  0
 11 12  1  0
 11 13  1  0
 11 29  1  1
 12 30  1  0
 12 31  1  0
 12 32  1  0
 13 33  1  0
 13 34  1  0
 13 35  1  0
 14 15  2  0
 14 36  1  0
 15 37  1  0
 16 17  1  0
 16 18  1  0
 18 19  1  0
 18 20  1  0
 19 38  1  0
 19 39  1  0
 19 40  1  0
 20 21  2  0
M  CHG  2   3   1  17  -1
M  END

