
     RDKit          3D

 31 32  0  0  0  0  0  0  0  0999 V2000
    2.3543   -0.6458    0.4456 C   0  0  0  0  0  0  0  0  0  0  0  0
    2.8350    0.7430    0.0128 C   0  0  0  0  0  0  0  0  0  0  0  0
    2.8663    0.9312   -1.4848 C   0  0  0  0  0  0  0  0  0  0  0  0
    2.2628    2.0045   -1.9921 N   0  0  0  0  0  0  0  0  0  0  0  0
    2.3421    2.1290   -3.3308 C   0  0  0  0  0  0  0  0  0  0  0  0
    1.7449    3.2010   -3.8945 N   0  0  0  0  0  0  0  0  0  0  0  0
    2.9765    1.2653   -4.1447 N   0  0  0  0  0  0  0  0  0  0  0  0
    3.5322    0.2228   -3.5296 C   0  0  0  0  0  0  0  0  0  0  0  0
    4.1983   -0.8220   -4.4248 C   0  0  1  0  0  0  0  0  0  0  0  0
    5.3230   -1.4289   -3.8410 O   0  0  0  0  0  0  0  0  0  0  0  0
    6.4146   -0.5741   -3.6174 C   0  0  0  0  0  0  0  0  0  0  0  0
    3.2029   -1.9186   -4.7504 C   0  0  1  0  0  0  0  0  0  0  0  0
    2.1918   -1.7247   -5.8502 C   0  0  0  0  0  0  0  0  0  0  0  0
    3.3347   -2.6906   -6.0358 C   0  0  0  0  0  0  0  0  0  0  0  0
    3.5114    0.0053   -2.2125 N   0  0  0  0  0  0  0  0  0  0  0  0
    2.4063   -0.7520    1.5403 H   0  0  0  0  0  0  0  0  0  0  0  0
    2.9765   -1.4282   -0.0125 H   0  0  0  0  0  0  0  0  0  0  0  0
    1.3102   -0.8197    0.1387 H   0  0  0  0  0  0  0  0  0  0  0  0
    3.8648    0.9011    0.3817 H   0  0  0  0  0  0  0  0  0  0  0  0
    2.2110    1.5404    0.4415 H   0  0  0  0  0  0  0  0  0  0  0  0
    1.2659    3.8675   -3.3052 H   0  0  0  0  0  0  0  0  0  0  0  0
    1.7861    3.3231   -4.8966 H   0  0  0  0  0  0  0  0  0  0  0  0
    4.4753   -0.2958   -5.3613 H   0  0  0  0  0  0  0  0  0  0  0  0
    7.2455   -1.1922   -3.2464 H   0  0  0  0  0  0  0  0  0  0  0  0
    6.1952    0.2017   -2.8597 H   0  0  0  0  0  0  0  0  0  0  0  0
    6.7418   -0.0690   -4.5495 H   0  0  0  0  0  0  0  0  0  0  0  0
    2.8848   -2.4721   -3.8608 H   0  0  0  0  0  0  0  0  0  0  0  0
    2.2164   -0.7796   -6.4001 H   0  0  0  0  0  0  0  0  0  0  0  0
    1.1862   -2.1264   -5.6985 H   0  0  0  0  0  0  0  0  0  0  0  0
    4.1442   -2.4079   -6.7154 H   0  0  0  0  0  0  0  0  0  0  0  0
    3.1238   -3.7633   -6.0143 H   0  0  0  0  0  0  0  0  0  0  0  0
  1  2  1  0
  1 16  1  0
  1 17  1  0
  1 18  1  0
  2  3  1  0
  2 19  1  0
  2 20  1  0
  3  4  2  0
  3 15  1  0
  4  5  1  0
  5  6  1  0
  5  7  2  0
  6 21  1  0
  6 22  1  0
  7  8  1  0
  8  9  1  0
  8 15  2  0
  9 10  1  0
  9 12  1  0
  9 23  1  6
 10 11  1  0
 11 24  1  0
 11 25  1  0
 11 26  1  0
 12 13  1  0
 12 14  1  0
 12 27  1  1
 13 14  1  0
 13 28  1  0
 13 29  1  0
 14 30  1  0
 14 31  1  0
M  END

