
     RDKit          3D

 34 34  0  0  0  0  0  0  0  0999 V2000
    5.3281   -1.5307   -0.6155 C   0  0  0  0  0  0  0  0  0  0  0  0
    4.0946   -0.6369   -0.4180 C   0  0  1  0  0  0  0  0  0  0  0  0
    3.5968   -0.0526   -1.7466 C   0  0  0  0  0  0  0  0  0  0  0  0
    2.9504   -1.3297    0.3486 C   0  0  1  0  0  0  0  0  0  0  0  0
    2.0681   -0.6641    0.3412 H   0  0  0  0  0  0  0  0  0  0  0  0
    2.5333   -2.5688   -0.3189 N   0  0  0  0  0  0  0  0  0  0  0  0
    1.3135   -3.1272   -0.1590 C   0  0  0  0  0  0  0  0  0  0  0  0
    0.5051   -2.7005    0.6711 O   0  0  0  0  0  0  0  0  0  0  0  0
    0.9625   -4.2947   -1.0740 C   0  0  0  0  0  0  0  0  0  0  0  0
    0.0255   -3.8786   -2.1954 C   0  0  0  0  0  0  0  0  0  0  0  0
   -1.2313   -3.3187   -1.9125 C   0  0  0  0  0  0  0  0  0  0  0  0
   -2.0855   -2.9416   -2.9460 C   0  0  0  0  0  0  0  0  0  0  0  0
   -1.7081   -3.1146   -4.2835 C   0  0  0  0  0  0  0  0  0  0  0  0
   -2.8007   -2.6362   -5.5488 Cl  0  0  0  0  0  0  0  0  0  0  0  0
   -0.4538   -3.6723   -4.5759 C   0  0  0  0  0  0  0  0  0  0  0  0
    0.0671   -3.9098   -6.2194 Cl  0  0  0  0  0  0  0  0  0  0  0  0
    0.4010   -4.0473   -3.5324 C   0  0  0  0  0  0  0  0  0  0  0  0
    3.2737   -1.5569    1.8511 C   0  0  0  0  0  0  0  0  0  0  0  0
    4.3306   -1.2637    2.3486 O   0  0  0  0  0  0  0  0  0  0  0  0
    2.2708   -2.0676    2.5626 O   0  0  0  0  0  0  0  0  0  0  0  0
    6.1504   -0.9456   -1.0555 H   0  0  0  0  0  0  0  0  0  0  0  0
    5.1382   -2.3653   -1.3154 H   0  0  0  0  0  0  0  0  0  0  0  0
    5.6781   -1.9411    0.3413 H   0  0  0  0  0  0  0  0  0  0  0  0
    4.4027    0.1941    0.2360 H   0  0  0  0  0  0  0  0  0  0  0  0
    3.2415   -0.8400   -2.4325 H   0  0  0  0  0  0  0  0  0  0  0  0
    4.4057    0.4899   -2.2604 H   0  0  0  0  0  0  0  0  0  0  0  0
    2.7641    0.6524   -1.5932 H   0  0  0  0  0  0  0  0  0  0  0  0
    3.1901   -2.9964   -0.9609 H   0  0  0  0  0  0  0  0  0  0  0  0
    0.4726   -5.0481   -0.4368 H   0  0  0  0  0  0  0  0  0  0  0  0
    1.8711   -4.7525   -1.4926 H   0  0  0  0  0  0  0  0  0  0  0  0
   -1.5316   -3.1673   -0.8739 H   0  0  0  0  0  0  0  0  0  0  0  0
   -3.0624   -2.5065   -2.7288 H   0  0  0  0  0  0  0  0  0  0  0  0
    1.3687   -4.4827   -3.7896 H   0  0  0  0  0  0  0  0  0  0  0  0
    1.4718   -2.2192    1.9949 H   0  0  0  0  0  0  0  0  0  0  0  0
  1  2  1  0
  1 21  1  0
  1 22  1  0
  1 23  1  0
  2  3  1  0
  2  4  1  0
  2 24  1  1
  3 25  1  0
  3 26  1  0
  3 27  1  0
  4  5  1  1
  4  6  1  0
  4 18  1  0
  6  7  1  0
  6 28  1  0
  7  8  2  0
  7  9  1  0
  9 10  1  0
  9 29  1  0
  9 30  1  0
 10 11  2  0
 10 17  1  0
 11 12  1  0
 11 31  1  0
 12 13  2  0
 12 32  1  0
 13 14  1  0
 13 15  1  0
 15 16  1  0
 15 17  2  0
 17 33  1  0
 18 19  2  0
 18 20  1  0
 20 34  1  0
M  END

