
     RDKit          3D

 68 69  0  0  0  0  0  0  0  0999 V2000
    1.7137   -1.9557    0.9990 C   0  0  0  0  0  0  0  0  0  0  0  0
    3.0609   -1.4644    0.7869 N   0  0  0  0  0  0  0  0  0  0  0  0
    3.7157   -1.7772   -0.3805 C   0  0  0  0  0  0  0  0  0  0  0  0
    3.2487   -2.5466   -1.2085 O   0  0  0  0  0  0  0  0  0  0  0  0
    4.9639   -1.1558   -0.5580 N   0  0  0  0  0  0  0  0  0  0  0  0
    5.7857   -1.6355   -1.6721 C   0  0  0  0  0  0  0  0  0  0  0  0
    6.9548   -2.3576   -0.9784 C   0  0  0  0  0  0  0  0  0  0  0  0
    6.5853   -3.3414   -0.6429 H   0  0  0  0  0  0  0  0  0  0  0  0
    8.4518   -2.5576   -2.0931 P   0  0  0  0  0  0  0  0  0  0  0  0
    7.7823   -3.7399   -3.3632 C   0  0  0  0  0  0  0  0  0  0  0  0
    7.5787   -5.1124   -3.1380 C   0  0  0  0  0  0  0  0  0  0  0  0
    7.0531   -5.9283   -4.1431 C   0  0  0  0  0  0  0  0  0  0  0  0
    6.7225   -5.3864   -5.3897 C   0  0  0  0  0  0  0  0  0  0  0  0
    6.9255   -4.0248   -5.6288 C   0  0  0  0  0  0  0  0  0  0  0  0
    7.4582   -3.2104   -4.6245 C   0  0  0  0  0  0  0  0  0  0  0  0
    9.5701   -3.6527   -1.0964 C   0  0  0  0  0  0  0  0  0  0  0  0
   10.9119   -3.7213   -1.5165 C   0  0  0  0  0  0  0  0  0  0  0  0
   11.8417   -4.5102   -0.8358 C   0  0  0  0  0  0  0  0  0  0  0  0
   11.4514   -5.2351    0.2948 C   0  0  0  0  0  0  0  0  0  0  0  0
   10.1263   -5.1682    0.7328 C   0  0  0  0  0  0  0  0  0  0  0  0
    9.1934   -4.3871    0.0417 C   0  0  0  0  0  0  0  0  0  0  0  0
    7.2184   -1.4403    0.2308 C   0  0  0  0  0  0  0  0  0  0  0  0
    5.8437   -0.7831    0.5708 C   0  0  1  0  0  0  0  0  0  0  0  0
    5.4328   -1.2291    1.4902 H   0  0  0  0  0  0  0  0  0  0  0  0
    6.0023    0.7356    0.7830 C   0  0  0  0  0  0  0  0  0  0  0  0
    4.4541    1.6390    1.3760 P   0  0  0  0  0  0  0  0  0  0  0  0
    5.1740    2.8630    2.5639 C   0  0  0  0  0  0  0  0  0  0  0  0
    6.2196    3.7434    2.2271 C   0  0  0  0  0  0  0  0  0  0  0  0
    6.7451    4.6197    3.1785 C   0  0  0  0  0  0  0  0  0  0  0  0
    6.2322    4.6336    4.4813 C   0  0  0  0  0  0  0  0  0  0  0  0
    5.1923    3.7682    4.8274 C   0  0  0  0  0  0  0  0  0  0  0  0
    4.6680    2.8881    3.8734 C   0  0  0  0  0  0  0  0  0  0  0  0
    3.9961    2.6927   -0.0738 C   0  0  0  0  0  0  0  0  0  0  0  0
    3.5320    4.0091    0.1002 C   0  0  0  0  0  0  0  0  0  0  0  0
    3.0822    4.7569   -0.9917 C   0  0  0  0  0  0  0  0  0  0  0  0
    3.0802    4.2024   -2.2748 C   0  0  0  0  0  0  0  0  0  0  0  0
    3.5261    2.8901   -2.4570 C   0  0  0  0  0  0  0  0  0  0  0  0
    3.9753    2.1387   -1.3674 C   0  0  0  0  0  0  0  0  0  0  0  0
    1.4624   -1.8807    2.0675 H   0  0  0  0  0  0  0  0  0  0  0  0
    1.6548   -3.0078    0.6902 H   0  0  0  0  0  0  0  0  0  0  0  0
    0.9556   -1.3975    0.4187 H   0  0  0  0  0  0  0  0  0  0  0  0
    3.3058   -0.5935    1.2561 H   0  0  0  0  0  0  0  0  0  0  0  0
    6.1553   -0.7816   -2.2701 H   0  0  0  0  0  0  0  0  0  0  0  0
    5.1803   -2.2823   -2.3165 H   0  0  0  0  0  0  0  0  0  0  0  0
    7.8377   -5.5515   -2.1717 H   0  0  0  0  0  0  0  0  0  0  0  0
    6.9003   -6.9938   -3.9518 H   0  0  0  0  0  0  0  0  0  0  0  0
    6.3109   -6.0265   -6.1744 H   0  0  0  0  0  0  0  0  0  0  0  0
    6.6752   -3.5948   -6.6022 H   0  0  0  0  0  0  0  0  0  0  0  0
    7.6297   -2.1482   -4.8220 H   0  0  0  0  0  0  0  0  0  0  0  0
   11.2302   -3.1434   -2.3893 H   0  0  0  0  0  0  0  0  0  0  0  0
   12.8773   -4.5517   -1.1838 H   0  0  0  0  0  0  0  0  0  0  0  0
   12.1790   -5.8464    0.8350 H   0  0  0  0  0  0  0  0  0  0  0  0
    9.8125   -5.7299    1.6168 H   0  0  0  0  0  0  0  0  0  0  0  0
    8.1622   -4.3604    0.4001 H   0  0  0  0  0  0  0  0  0  0  0  0
    7.9479   -0.6596   -0.0446 H   0  0  0  0  0  0  0  0  0  0  0  0
    7.6357   -1.9765    1.0954 H   0  0  0  0  0  0  0  0  0  0  0  0
    6.7607    0.8902    1.5677 H   0  0  0  0  0  0  0  0  0  0  0  0
    6.3907    1.2059   -0.1350 H   0  0  0  0  0  0  0  0  0  0  0  0
    6.6214    3.7497    1.2105 H   0  0  0  0  0  0  0  0  0  0  0  0
    7.5576    5.2973    2.9029 H   0  0  0  0  0  0  0  0  0  0  0  0
    6.6442    5.3213    5.2244 H   0  0  0  0  0  0  0  0  0  0  0  0
    4.7863    3.7754    5.8422 H   0  0  0  0  0  0  0  0  0  0  0  0
    3.8551    2.2100    4.1476 H   0  0  0  0  0  0  0  0  0  0  0  0
    3.5260    4.4605    1.0950 H   0  0  0  0  0  0  0  0  0  0  0  0
    2.7325    5.7811   -0.8364 H   0  0  0  0  0  0  0  0  0  0  0  0
    2.7294    4.7888   -3.1278 H   0  0  0  0  0  0  0  0  0  0  0  0
    3.5217    2.4423   -3.4543 H   0  0  0  0  0  0  0  0  0  0  0  0
    4.3016    1.1072   -1.5230 H   0  0  0  0  0  0  0  0  0  0  0  0
  1  2  1  0
  1 39  1  0
  1 40  1  0
  1 41  1  0
  2  3  1  0
  2 42  1  0
  3  4  1  0
  3  5  1  0
  5  6  1  0
  5 23  1  0
  6  7  1  0
  6 43  1  0
  6 44  1  0
  7  8  1  0
  7 22  1  0
  9 16  1  0
 10 11  1  0
 10 15  1  0
 11 12  1  0
 11 45  1  0
 12 13  1  0
 12 46  1  0
 13 14  1  0
 13 47  1  0
 14 15  1  0
 14 48  1  0
 15 49  1  0
 16 17  1  0
 16 21  1  0
 17 18  1  0
 17 50  1  0
 18 19  1  0
 18 51  1  0
 19 20  1  0
 19 52  1  0
 20 21  1  0
 20 53  1  0
 21 54  1  0
 22 23  1  0
 22 55  1  0
 22 56  1  0
 23 24  1  1
 23 25  1  0
 25 57  1  0
 25 58  1  0
 26 27  1  0
 26 33  1  0
 27 28  1  0
 27 32  1  0
 28 29  1  0
 28 59  1  0
 29 30  1  0
 29 60  1  0
 30 31  1  0
 30 61  1  0
 31 32  1  0
 31 62  1  0
 32 63  1  0
 33 34  1  0
 33 38  1  0
 34 35  1  0
 34 64  1  0
 35 36  1  0
 35 65  1  0
 36 37  1  0
 36 66  1  0
 37 38  1  0
 37 67  1  0
 38 68  1  0
M  CHG  8   3  -1   4  -1   7   1   9  -2  11   1  12   1  13   1  14   1
M  CHG  8  15  -1  16   1  17  -1  18   1  19  -1  20   1  21  -1  25   1
M  CHG  8  26  -1  27   1  28  -1  29   1  30  -1  31   1  32  -1  33   1
M  CHG  5  34  -1  35   1  36  -1  37   1  38  -1
M  END

