
     RDKit          3D

 54 58  0  0  0  0  0  0  0  0999 V2000
    2.8125   -0.1129   -1.6012 C   0  0  0  0  0  0  0  0  0  0  0  0
    2.3484   -0.5757   -0.3497 O   0  0  0  0  0  0  0  0  0  0  0  0
    3.2155   -0.7073    0.6779 C   0  0  0  0  0  0  0  0  0  0  0  0
    2.6802   -1.1932    1.8851 C   0  0  0  0  0  0  0  0  0  0  0  0
    3.4968   -1.3683    2.9970 C   0  0  0  0  0  0  0  0  0  0  0  0
    4.8704   -1.0506    2.9522 C   0  0  0  0  0  0  0  0  0  0  0  0
    5.7562   -1.3077    4.1284 C   0  0  0  0  0  0  0  0  0  0  0  0
    5.8841   -2.6182    4.5619 C   0  0  0  0  0  0  0  0  0  0  0  0
    6.7696   -2.9328    5.6337 C   0  0  0  0  0  0  0  0  0  0  0  0
    6.8909   -4.3277    6.1570 C   0  0  0  0  0  0  0  0  0  0  0  0
    7.9161   -4.6211    7.0778 C   0  0  0  0  0  0  0  0  0  0  0  0
    8.0688   -5.9043    7.5938 C   0  0  0  0  0  0  0  0  0  0  0  0
    7.1822   -6.9035    7.1868 C   0  0  0  0  0  0  0  0  0  0  0  0
    7.3357   -8.2697    7.7288 N   0  0  0  0  0  0  0  0  0  0  0  0
    8.2460   -8.4652    8.5174 O   0  0  0  0  0  0  0  0  0  0  0  0
    6.5417   -9.1184    7.3535 O   0  0  0  0  0  0  0  0  0  0  0  0
    6.1516   -6.6474    6.2828 C   0  0  0  0  0  0  0  0  0  0  0  0
    6.0125   -5.3583    5.7722 C   0  0  0  0  0  0  0  0  0  0  0  0
    7.5422   -2.0273    6.1964 N   0  0  0  0  0  0  0  0  0  0  0  0
    7.4847   -0.7271    5.7982 C   0  0  0  0  0  0  0  0  0  0  0  0
    8.3462    0.1079    6.3761 N   0  0  0  0  0  0  0  0  0  0  0  0
    8.3569    1.4092    6.1088 C   0  0  0  0  0  0  0  0  0  0  0  0
    9.5170    2.4906    6.6219 S   0  0  0  0  0  0  0  0  0  0  0  0
    7.2409    1.9264    5.3125 N   0  0  0  0  0  0  0  0  0  0  0  0
    7.0681    3.3571    5.2119 C   0  0  0  0  0  0  0  0  0  0  0  0
    7.6283    4.0542    4.1351 C   0  0  0  0  0  0  0  0  0  0  0  0
    7.4180    5.4300    4.0212 C   0  0  0  0  0  0  0  0  0  0  0  0
    6.6542    6.1066    4.9782 C   0  0  0  0  0  0  0  0  0  0  0  0
    6.0947    5.4036    6.0498 C   0  0  0  0  0  0  0  0  0  0  0  0
    6.2968    4.0265    6.1686 C   0  0  0  0  0  0  0  0  0  0  0  0
    6.3691    1.1137    4.6662 C   0  0  0  0  0  0  0  0  0  0  0  0
    5.3682    1.6777    3.9681 N   0  0  0  0  0  0  0  0  0  0  0  0
    6.5258   -0.3074    4.7999 C   0  0  0  0  0  0  0  0  0  0  0  0
    5.3919   -0.5674    1.7407 C   0  0  0  0  0  0  0  0  0  0  0  0
    4.5843   -0.3951    0.6129 C   0  0  0  0  0  0  0  0  0  0  0  0
    1.9414   -0.0965   -2.2692 H   0  0  0  0  0  0  0  0  0  0  0  0
    3.5785   -0.7846   -2.0274 H   0  0  0  0  0  0  0  0  0  0  0  0
    3.2295    0.9076   -1.5316 H   0  0  0  0  0  0  0  0  0  0  0  0
    1.6153   -1.4314    1.9209 H   0  0  0  0  0  0  0  0  0  0  0  0
    3.0654   -1.7504    3.9255 H   0  0  0  0  0  0  0  0  0  0  0  0
    5.3368   -3.4005    4.0387 H   0  0  0  0  0  0  0  0  0  0  0  0
    8.5843   -3.8115    7.3736 H   0  0  0  0  0  0  0  0  0  0  0  0
    8.8590   -6.1471    8.3037 H   0  0  0  0  0  0  0  0  0  0  0  0
    5.4780   -7.4546    5.9975 H   0  0  0  0  0  0  0  0  0  0  0  0
    5.1964   -5.1626    5.0759 H   0  0  0  0  0  0  0  0  0  0  0  0
    8.2445    3.5184    3.4107 H   0  0  0  0  0  0  0  0  0  0  0  0
    7.8643    5.9779    3.1878 H   0  0  0  0  0  0  0  0  0  0  0  0
    6.4976    7.1844    4.8902 H   0  0  0  0  0  0  0  0  0  0  0  0
    5.5018    5.9295    6.8019 H   0  0  0  0  0  0  0  0  0  0  0  0
    5.8770    3.4684    7.0079 H   0  0  0  0  0  0  0  0  0  0  0  0
    5.3005    2.6854    3.8971 H   0  0  0  0  0  0  0  0  0  0  0  0
    4.7152    1.0915    3.4649 H   0  0  0  0  0  0  0  0  0  0  0  0
    6.4570   -0.3319    1.6708 H   0  0  0  0  0  0  0  0  0  0  0  0
    5.0337   -0.0293   -0.3104 H   0  0  0  0  0  0  0  0  0  0  0  0
  1  2  1  0
  1 36  1  0
  1 37  1  0
  1 38  1  0
  2  3  1  0
  3  4  2  0
  3 35  1  0
  4  5  1  0
  4 39  1  0
  5  6  2  0
  5 40  1  0
  6  7  1  0
  6 34  1  0
  7  8  2  0
  7 33  1  0
  8  9  1  0
  8 41  1  0
  9 10  1  0
  9 19  2  0
 10 11  2  0
 10 18  1  0
 11 12  1  0
 11 42  1  0
 12 13  2  0
 12 43  1  0
 13 14  1  0
 13 17  1  0
 14 15  2  0
 14 16  1  0
 17 18  2  0
 17 44  1  0
 18 45  1  0
 19 20  1  0
 20 21  2  0
 20 33  1  0
 21 22  1  0
 22 23  2  0
 22 24  1  0
 24 25  1  0
 24 31  1  0
 25 26  2  0
 25 30  1  0
 26 27  1  0
 26 46  1  0
 27 28  2  0
 27 47  1  0
 28 29  1  0
 28 48  1  0
 29 30  2  0
 29 49  1  0
 30 50  1  0
 31 32  1  0
 31 33  2  0
 32 51  1  0
 32 52  1  0
 34 35  2  0
 34 53  1  0
 35 54  1  0
M  CHG  2  14   1  16  -1
M  END

