
     RDKit          3D

 44 45  0  0  0  0  0  0  0  0999 V2000
    2.7406   -0.3106    2.7013 C   0  0  0  0  0  0  0  0  0  0  0  0
    2.4365   -0.5767    1.2279 C   0  0  0  0  0  0  0  0  0  0  0  0
    3.1625   -1.7999    0.6448 C   0  0  1  0  0  0  0  0  0  0  0  0
    2.7536   -2.0852   -0.8040 C   0  0  0  0  0  0  0  0  0  0  0  0
    4.6179   -1.6411    0.7439 N   0  0  0  0  0  0  0  0  0  0  0  0
    5.1976   -0.5764    0.1774 N   0  0  0  0  0  0  0  0  0  0  0  0
    6.5022   -0.7003    0.4023 C   0  0  0  0  0  0  0  0  0  0  0  0
    6.7729   -1.8865    1.1326 C   0  0  0  0  0  0  0  0  0  0  0  0
    8.0000   -2.3956    1.5827 N   0  0  0  0  0  0  0  0  0  0  0  0
    9.2449   -1.8782    1.2613 C   0  0  0  0  0  0  0  0  0  0  0  0
    9.4031   -0.8992    0.5496 O   0  0  0  0  0  0  0  0  0  0  0  0
   10.2958   -2.5594    1.8434 N   0  0  0  0  0  0  0  0  0  0  0  0
   11.6788   -2.2073    1.5273 C   0  0  1  0  0  0  0  0  0  0  0  0
   12.6022   -2.6960    2.6542 C   0  0  0  0  0  0  0  0  0  0  0  0
   12.8708   -4.1802    2.5691 C   0  0  0  0  0  0  0  0  0  0  0  0
   12.6455   -4.9074    1.4644 C   0  0  0  0  0  0  0  0  0  0  0  0
   12.1090   -4.3236    0.1812 C   0  0  0  0  0  0  0  0  0  0  0  0
   12.1420   -2.7889    0.1776 C   0  0  0  0  0  0  0  0  0  0  0  0
    5.5283   -2.4846    1.3317 C   0  0  0  0  0  0  0  0  0  0  0  0
    5.1698   -3.7619    2.0224 C   0  0  0  0  0  0  0  0  0  0  0  0
    2.1787    0.5627    3.0680 H   0  0  0  0  0  0  0  0  0  0  0  0
    3.8111   -0.1044    2.8559 H   0  0  0  0  0  0  0  0  0  0  0  0
    2.4656   -1.1709    3.3355 H   0  0  0  0  0  0  0  0  0  0  0  0
    2.7105    0.3023    0.6226 H   0  0  0  0  0  0  0  0  0  0  0  0
    1.3530   -0.7354    1.0895 H   0  0  0  0  0  0  0  0  0  0  0  0
    2.9154   -2.6762    1.2651 H   0  0  0  0  0  0  0  0  0  0  0  0
    3.0340   -1.2391   -1.4487 H   0  0  0  0  0  0  0  0  0  0  0  0
    1.6656   -2.2394   -0.8766 H   0  0  0  0  0  0  0  0  0  0  0  0
    3.2571   -2.9867   -1.1863 H   0  0  0  0  0  0  0  0  0  0  0  0
    7.2174    0.0342    0.0448 H   0  0  0  0  0  0  0  0  0  0  0  0
    7.9562   -3.1143    2.2940 H   0  0  0  0  0  0  0  0  0  0  0  0
   10.1373   -3.4922    2.2087 H   0  0  0  0  0  0  0  0  0  0  0  0
   11.7053   -1.1103    1.4670 H   0  0  0  0  0  0  0  0  0  0  0  0
   12.1586   -2.4402    3.6318 H   0  0  0  0  0  0  0  0  0  0  0  0
   13.5589   -2.1434    2.6084 H   0  0  0  0  0  0  0  0  0  0  0  0
   13.2786   -4.6689    3.4611 H   0  0  0  0  0  0  0  0  0  0  0  0
   12.8536   -5.9834    1.4793 H   0  0  0  0  0  0  0  0  0  0  0  0
   11.0746   -4.6856    0.0199 H   0  0  0  0  0  0  0  0  0  0  0  0
   12.6812   -4.7201   -0.6757 H   0  0  0  0  0  0  0  0  0  0  0  0
   11.5154   -2.3810   -0.6295 H   0  0  0  0  0  0  0  0  0  0  0  0
   13.1735   -2.4423   -0.0088 H   0  0  0  0  0  0  0  0  0  0  0  0
    6.0799   -4.3289    2.2710 H   0  0  0  0  0  0  0  0  0  0  0  0
    4.5544   -4.4210    1.3877 H   0  0  0  0  0  0  0  0  0  0  0  0
    4.6173   -3.6007    2.9645 H   0  0  0  0  0  0  0  0  0  0  0  0
  1  2  1  0
  1 21  1  0
  1 22  1  0
  1 23  1  0
  2  3  1  0
  2 24  1  0
  2 25  1  0
  3  4  1  0
  3  5  1  0
  3 26  1  1
  4 27  1  0
  4 28  1  0
  4 29  1  0
  5  6  1  0
  5 19  1  0
  6  7  2  0
  7  8  1  0
  7 30  1  0
  8  9  1  0
  8 19  2  0
  9 10  1  0
  9 31  1  0
 10 11  2  0
 10 12  1  0
 12 13  1  0
 12 32  1  0
 13 14  1  0
 13 18  1  0
 13 33  1  6
 14 15  1  0
 14 34  1  0
 14 35  1  0
 15 16  2  0
 15 36  1  0
 16 17  1  0
 16 37  1  0
 17 18  1  0
 17 38  1  0
 17 39  1  0
 18 40  1  0
 18 41  1  0
 19 20  1  0
 20 42  1  0
 20 43  1  0
 20 44  1  0
M  END

