
     RDKit          3D

 62 65  0  0  0  0  0  0  0  0999 V2000
    4.6703   -1.5246   -0.6936 C   0  0  0  0  0  0  0  0  0  0  0  0
    3.9538   -0.2105   -1.0233 C   0  0  1  0  0  0  0  0  0  0  0  0
    4.5333    0.4648   -2.2711 C   0  0  0  0  0  0  0  0  0  0  0  0
    2.4499   -0.4429   -1.1854 C   0  0  0  0  0  0  0  0  0  0  0  0
    4.0212    0.7012    0.1210 O   0  0  0  0  0  0  0  0  0  0  0  0
    5.2004    1.1595    0.5982 C   0  0  0  0  0  0  0  0  0  0  0  0
    6.2930    0.8730    0.1431 O   0  0  0  0  0  0  0  0  0  0  0  0
    5.0161    1.9985    1.6684 N   0  0  0  0  0  0  0  0  0  0  0  0
    6.1799    2.5779    2.3304 C   0  0  0  0  0  0  0  0  0  0  0  0
    6.0777    4.1065    2.3741 C   0  0  0  0  0  0  0  0  0  0  0  0
    4.7385    4.6150    2.9693 C   0  0  2  0  0  0  0  0  0  0  0  0
    4.6902    4.5716    4.4663 C   0  0  0  0  0  0  0  0  0  0  0  0
    4.5795    5.5749    5.3888 C   0  0  0  0  0  0  0  0  0  0  0  0
    4.5866    4.9453    6.6865 C   0  0  0  0  0  0  0  0  0  0  0  0
    4.5085    5.3599    8.0236 C   0  0  0  0  0  0  0  0  0  0  0  0
    4.5546    4.3685    9.0209 C   0  0  0  0  0  0  0  0  0  0  0  0
    4.4714    4.6700   10.4806 C   0  0  0  0  0  0  0  0  0  0  0  0
    4.3081    3.6096   11.3966 C   0  0  0  0  0  0  0  0  0  0  0  0
    4.2340    3.8061   12.7688 C   0  0  0  0  0  0  0  0  0  0  0  0
    4.3122    5.1046   13.3069 C   0  0  0  0  0  0  0  0  0  0  0  0
    4.2111    5.2714   14.6985 N   0  0  0  0  0  0  0  0  0  0  0  0
    4.8179    6.5357   15.6384 S   0  0  1  0  0  0  0  0  0  0  0  0
    6.6074    6.4244   15.4642 C   0  0  0  0  0  0  0  0  0  0  0  0
    4.4050    7.8053   15.0470 O   0  0  0  0  0  0  0  0  0  0  0  0
    4.4641    6.1631   17.0045 O   0  0  0  0  0  0  0  0  0  0  0  0
    4.4701    6.1861   12.4292 C   0  0  0  0  0  0  0  0  0  0  0  0
    4.5535    5.9473   11.0604 C   0  0  0  0  0  0  0  0  0  0  0  0
    4.7202    7.0390   10.2877 F   0  0  0  0  0  0  0  0  0  0  0  0
    4.6614    3.0516    8.7183 N   0  0  0  0  0  0  0  0  0  0  0  0
    4.7353    2.6394    7.4600 C   0  0  0  0  0  0  0  0  0  0  0  0
    4.7034    3.5699    6.4256 C   0  0  0  0  0  0  0  0  0  0  0  0
    4.7669    3.3430    5.0829 O   0  0  0  0  0  0  0  0  0  0  0  0
    3.5545    3.8819    2.2873 C   0  0  0  0  0  0  0  0  0  0  0  0
    3.7240    2.3575    2.2434 C   0  0  0  0  0  0  0  0  0  0  0  0
    4.5193   -2.2455   -1.5124 H   0  0  0  0  0  0  0  0  0  0  0  0
    4.2573   -1.9642    0.2280 H   0  0  0  0  0  0  0  0  0  0  0  0
    5.7467   -1.3625   -0.5574 H   0  0  0  0  0  0  0  0  0  0  0  0
    4.3774   -0.1810   -3.1495 H   0  0  0  0  0  0  0  0  0  0  0  0
    5.6080    0.6515   -2.1541 H   0  0  0  0  0  0  0  0  0  0  0  0
    4.0237    1.4233   -2.4588 H   0  0  0  0  0  0  0  0  0  0  0  0
    2.2580   -1.1256   -2.0270 H   0  0  0  0  0  0  0  0  0  0  0  0
    1.9289    0.5066   -1.3820 H   0  0  0  0  0  0  0  0  0  0  0  0
    2.0253   -0.8878   -0.2725 H   0  0  0  0  0  0  0  0  0  0  0  0
    7.0709    2.2637    1.7736 H   0  0  0  0  0  0  0  0  0  0  0  0
    6.2585    2.1731    3.3550 H   0  0  0  0  0  0  0  0  0  0  0  0
    6.1555    4.4917    1.3432 H   0  0  0  0  0  0  0  0  0  0  0  0
    6.9274    4.5221    2.9395 H   0  0  0  0  0  0  0  0  0  0  0  0
    4.6511    5.6861    2.7277 H   0  0  0  0  0  0  0  0  0  0  0  0
    4.5029    6.6368    5.1660 H   0  0  0  0  0  0  0  0  0  0  0  0
    4.4099    6.4114    8.2791 H   0  0  0  0  0  0  0  0  0  0  0  0
    4.2530    2.6037   10.9802 H   0  0  0  0  0  0  0  0  0  0  0  0
    4.1129    2.9482   13.4355 H   0  0  0  0  0  0  0  0  0  0  0  0
    4.0288    4.4460   15.2622 H   0  0  0  0  0  0  0  0  0  0  0  0
    6.8721    6.5094   14.4020 H   0  0  0  0  0  0  0  0  0  0  0  0
    6.9440    5.4708   15.8904 H   0  0  0  0  0  0  0  0  0  0  0  0
    7.0200    7.2708   16.0301 H   0  0  0  0  0  0  0  0  0  0  0  0
    4.5051    7.2133   12.7893 H   0  0  0  0  0  0  0  0  0  0  0  0
    4.8207    1.5637    7.2678 H   0  0  0  0  0  0  0  0  0  0  0  0
    3.4817    4.2534    1.2509 H   0  0  0  0  0  0  0  0  0  0  0  0
    2.6076    4.1370    2.7903 H   0  0  0  0  0  0  0  0  0  0  0  0
    2.9301    1.9052    1.6407 H   0  0  0  0  0  0  0  0  0  0  0  0
    3.6501    1.9409    3.2638 H   0  0  0  0  0  0  0  0  0  0  0  0
  1  2  1  0
  1 35  1  0
  1 36  1  0
  1 37  1  0
  2  3  1  0
  2  4  1  0
  2  5  1  1
  3 38  1  0
  3 39  1  0
  3 40  1  0
  4 41  1  0
  4 42  1  0
  4 43  1  0
  5  6  1  0
  6  7  2  0
  6  8  1  0
  8  9  1  0
  8 34  1  0
  9 10  1  0
  9 44  1  0
  9 45  1  0
 10 11  1  0
 10 46  1  0
 10 47  1  0
 11 12  1  0
 11 33  1  0
 11 48  1  1
 12 13  2  0
 12 32  1  0
 13 14  1  0
 13 49  1  0
 14 15  2  0
 14 31  1  0
 15 16  1  0
 15 50  1  0
 16 17  1  0
 16 29  2  0
 17 18  2  0
 17 27  1  0
 18 19  1  0
 18 51  1  0
 19 20  2  0
 19 52  1  0
 20 21  1  0
 20 26  1  0
 22 21  1  6
 21 53  1  0
 22 23  1  0
 22 24  2  0
 22 25  2  0
 23 54  1  0
 23 55  1  0
 23 56  1  0
 26 27  2  0
 26 57  1  0
 27 28  1  0
 29 30  1  0
 30 31  2  0
 30 58  1  0
 31 32  1  0
 33 34  1  0
 33 59  1  0
 33 60  1  0
 34 61  1  0
 34 62  1  0
M  END

