
     RDKit          3D

 38 41  0  0  0  0  0  0  0  0999 V2000
    1.2780   -0.2094    1.6183 C   0  0  0  0  0  0  0  0  0  0  0  0
    2.5511   -0.0771    0.8220 C   0  0  0  0  0  0  0  0  0  0  0  0
    3.3500    1.4366    1.1583 S   0  0  0  0  0  0  0  0  0  0  0  0
    4.8345    1.3578    0.2251 C   0  0  0  0  0  0  0  0  0  0  0  0
    5.7137    2.4532    0.3380 C   0  0  0  0  0  0  0  0  0  0  0  0
    6.9060    2.4626   -0.3747 C   0  0  0  0  0  0  0  0  0  0  0  0
    7.2381    1.3827   -1.2104 C   0  0  0  0  0  0  0  0  0  0  0  0
    6.3691    0.3067   -1.3225 C   0  0  0  0  0  0  0  0  0  0  0  0
    5.1521    0.2701   -0.6101 C   0  0  0  0  0  0  0  0  0  0  0  0
    4.2817   -0.9282   -0.7956 C   0  0  0  0  0  0  0  0  0  0  0  0
    4.6194   -1.8086   -1.5835 O   0  0  0  0  0  0  0  0  0  0  0  0
    3.0214   -1.0409   -0.0271 C   0  0  0  0  0  0  0  0  0  0  0  0
    2.2835   -2.3375   -0.1737 C   0  0  0  0  0  0  0  0  0  0  0  0
    1.6883   -2.6562   -1.3633 C   0  0  0  0  0  0  0  0  0  0  0  0
    1.6829   -1.7502   -2.5680 C   0  0  0  0  0  0  0  0  0  0  0  0
    0.8764   -4.1622   -1.7041 S   0  0  0  0  0  0  0  0  0  0  0  0
    1.0723   -5.1005   -0.2337 C   0  0  0  0  0  0  0  0  0  0  0  0
    0.5366   -6.4038   -0.2368 C   0  0  0  0  0  0  0  0  0  0  0  0
    0.6495   -7.2033    0.8935 C   0  0  0  0  0  0  0  0  0  0  0  0
    1.2957   -6.7157    2.0422 C   0  0  0  0  0  0  0  0  0  0  0  0
    1.8196   -5.4308    2.0439 C   0  0  0  0  0  0  0  0  0  0  0  0
    1.7200   -4.5971    0.9102 C   0  0  0  0  0  0  0  0  0  0  0  0
    2.3123   -3.2305    1.0067 C   0  0  0  0  0  0  0  0  0  0  0  0
    2.8173   -2.8602    2.0640 O   0  0  0  0  0  0  0  0  0  0  0  0
    0.8820    0.7720    1.9196 H   0  0  0  0  0  0  0  0  0  0  0  0
    1.4794   -0.8036    2.5236 H   0  0  0  0  0  0  0  0  0  0  0  0
    0.5075   -0.7360    1.0374 H   0  0  0  0  0  0  0  0  0  0  0  0
    5.4533    3.2908    0.9903 H   0  0  0  0  0  0  0  0  0  0  0  0
    7.5845    3.3142   -0.2802 H   0  0  0  0  0  0  0  0  0  0  0  0
    8.1770    1.3912   -1.7690 H   0  0  0  0  0  0  0  0  0  0  0  0
    6.5922   -0.5485   -1.9626 H   0  0  0  0  0  0  0  0  0  0  0  0
    1.5864   -0.6982   -2.2642 H   0  0  0  0  0  0  0  0  0  0  0  0
    0.8609   -1.9941   -3.2577 H   0  0  0  0  0  0  0  0  0  0  0  0
    2.6392   -1.8575   -3.1039 H   0  0  0  0  0  0  0  0  0  0  0  0
    0.0361   -6.7808   -1.1325 H   0  0  0  0  0  0  0  0  0  0  0  0
    0.2341   -8.2142    0.8832 H   0  0  0  0  0  0  0  0  0  0  0  0
    1.3848   -7.3465    2.9298 H   0  0  0  0  0  0  0  0  0  0  0  0
    2.3265   -5.0175    2.9175 H   0  0  0  0  0  0  0  0  0  0  0  0
  1  2  1  0
  1 25  1  0
  1 26  1  0
  1 27  1  0
  2  3  2  0
  2 12  1  0
  3  4  1  0
  4  5  2  0
  4  9  1  0
  5  6  1  0
  5 28  1  0
  6  7  2  0
  6 29  1  0
  7  8  1  0
  7 30  1  0
  8  9  2  0
  8 31  1  0
  9 10  1  0
 10 11  1  0
 10 12  2  0
 12 13  1  0
 13 14  2  0
 13 23  1  0
 14 15  1  0
 14 16  1  0
 15 32  1  0
 15 33  1  0
 15 34  1  0
 16 17  2  0
 17 18  1  0
 17 22  1  0
 18 19  2  0
 18 35  1  0
 19 20  1  0
 19 36  1  0
 20 21  2  0
 20 37  1  0
 21 22  1  0
 21 38  1  0
 22 23  2  0
 23 24  1  0
M  CHG  4   3   1  11  -1  16   1  24  -1
M  END

