
     RDKit          3D

 37 36  0  0  0  0  0  0  0  0999 V2000
    3.9522    0.0682   -1.9483 C   0  0  0  0  0  0  0  0  0  0  0  0
    4.2824    1.3068   -1.1144 C   0  0  0  0  0  0  0  0  0  0  0  0
    5.3258    2.2167   -1.7685 C   0  0  0  0  0  0  0  0  0  0  0  0
    5.6622    3.4800   -0.9642 C   0  0  0  0  0  0  0  0  0  0  0  0
    6.2691    3.2045    0.3264 N   0  0  0  0  0  0  0  0  0  0  0  0
    5.6549    3.5063    1.4961 C   0  0  0  0  0  0  0  0  0  0  0  0
    4.5503    4.0340    1.5802 O   0  0  0  0  0  0  0  0  0  0  0  0
    6.3597    3.1833    2.7933 C   0  0  0  0  0  0  0  0  0  0  0  0
    7.5363    2.6255    3.1473 C   0  0  0  0  0  0  0  0  0  0  0  0
    8.6334    2.0928    2.3026 C   0  0  0  0  0  0  0  0  0  0  0  0
    8.6852    2.0655    1.0852 O   0  0  0  0  0  0  0  0  0  0  0  0
    9.6162    1.6148    3.0790 O   0  0  0  0  0  0  0  0  0  0  0  0
   10.7776    1.0565    2.4361 C   0  0  0  0  0  0  0  0  0  0  0  0
   11.8138    2.1254    2.1104 C   0  0  0  0  0  0  0  0  0  0  0  0
   13.0964    1.5329    1.5171 C   0  0  0  0  0  0  0  0  0  0  0  0
   14.1496    2.5909    1.1851 C   0  0  0  0  0  0  0  0  0  0  0  0
    3.2021   -0.5662   -1.4495 H   0  0  0  0  0  0  0  0  0  0  0  0
    4.8488   -0.5511   -2.1211 H   0  0  0  0  0  0  0  0  0  0  0  0
    3.5486    0.3437   -2.9374 H   0  0  0  0  0  0  0  0  0  0  0  0
    4.6483    0.9952   -0.1207 H   0  0  0  0  0  0  0  0  0  0  0  0
    3.3627    1.8880   -0.9253 H   0  0  0  0  0  0  0  0  0  0  0  0
    4.9672    2.5373   -2.7637 H   0  0  0  0  0  0  0  0  0  0  0  0
    6.2536    1.6430   -1.9532 H   0  0  0  0  0  0  0  0  0  0  0  0
    4.7520    4.0653   -0.7698 H   0  0  0  0  0  0  0  0  0  0  0  0
    6.3464    4.1152   -1.5550 H   0  0  0  0  0  0  0  0  0  0  0  0
    7.1929    2.7676    0.3648 H   0  0  0  0  0  0  0  0  0  0  0  0
    5.7142    3.4995    3.6185 H   0  0  0  0  0  0  0  0  0  0  0  0
    7.7448    2.5353    4.2167 H   0  0  0  0  0  0  0  0  0  0  0  0
   10.4628    0.5244    1.5260 H   0  0  0  0  0  0  0  0  0  0  0  0
   11.1735    0.3292    3.1600 H   0  0  0  0  0  0  0  0  0  0  0  0
   12.0480    2.6865    3.0321 H   0  0  0  0  0  0  0  0  0  0  0  0
   11.3732    2.8446    1.3996 H   0  0  0  0  0  0  0  0  0  0  0  0
   12.8466    0.9629    0.6040 H   0  0  0  0  0  0  0  0  0  0  0  0
   13.5225    0.7981    2.2246 H   0  0  0  0  0  0  0  0  0  0  0  0
   13.7664    3.3203    0.4523 H   0  0  0  0  0  0  0  0  0  0  0  0
   15.0568    2.1349    0.7585 H   0  0  0  0  0  0  0  0  0  0  0  0
   14.4501    3.1533    2.0847 H   0  0  0  0  0  0  0  0  0  0  0  0
  1  2  1  0
  1 17  1  0
  1 18  1  0
  1 19  1  0
  2  3  1  0
  2 20  1  0
  2 21  1  0
  3  4  1  0
  3 22  1  0
  3 23  1  0
  4  5  1  0
  4 24  1  0
  4 25  1  0
  5  6  1  0
  5 26  1  0
  6  7  2  0
  6  8  1  0
  8  9  2  0
  8 27  1  0
  9 10  1  0
  9 28  1  0
 10 11  2  0
 10 12  1  0
 12 13  1  0
 13 14  1  0
 13 29  1  0
 13 30  1  0
 14 15  1  0
 14 31  1  0
 14 32  1  0
 15 16  1  0
 15 33  1  0
 15 34  1  0
 16 35  1  0
 16 36  1  0
 16 37  1  0
M  END

