
     RDKit          3D

 62 62  0  0  0  0  0  0  0  0999 V2000
    1.1761   -0.1965    0.4432 N   0  0  0  0  0  0  0  0  0  0  0  0
    2.6139   -0.2383    0.2609 C   0  0  1  0  0  0  0  0  0  0  0  0
    3.4364    0.1533    1.5217 C   0  0  0  0  0  0  0  0  0  0  0  0
    4.9570    0.2808    1.3226 C   0  0  0  0  0  0  0  0  0  0  0  0
    5.2796    1.3613    0.2896 C   0  0  0  0  0  0  0  0  0  0  0  0
    4.8821    2.4917    0.4023 O   0  0  0  0  0  0  0  0  0  0  0  0
    5.9915    0.9878   -0.7893 O   0  0  0  0  0  0  0  0  0  0  0  0
    2.9872   -1.6534   -0.1804 C   0  0  0  0  0  0  0  0  0  0  0  0
    2.3796   -2.6390    0.2324 O   0  0  0  0  0  0  0  0  0  0  0  0
    4.0681   -1.7623   -0.9954 N   0  0  0  0  0  0  0  0  0  0  0  0
    4.7347   -3.0294   -1.2491 C   0  0  1  0  0  0  0  0  0  0  0  0
    4.0010   -3.8794   -2.3152 C   0  0  0  0  0  0  0  0  0  0  0  0
    2.8814   -4.5242   -1.7882 O   0  0  0  0  0  0  0  0  0  0  0  0
    6.2251   -2.7498   -1.5025 C   0  0  0  0  0  0  0  0  0  0  0  0
    6.7148   -1.6322   -1.2677 O   0  0  0  0  0  0  0  0  0  0  0  0
    6.9552   -3.7824   -1.9363 N   0  0  0  0  0  0  0  0  0  0  0  0
    8.3707   -3.7619   -2.2813 C   0  0  1  0  0  0  0  0  0  0  0  0
    9.3120   -3.4013   -1.1004 C   0  0  0  0  0  0  0  0  0  0  0  0
    9.4502   -2.0264   -0.9182 O   0  0  0  0  0  0  0  0  0  0  0  0
    8.6520   -5.1557   -2.8787 C   0  0  0  0  0  0  0  0  0  0  0  0
    7.8005   -6.0389   -2.8494 O   0  0  0  0  0  0  0  0  0  0  0  0
    9.8727   -5.3272   -3.4261 N   0  0  0  0  0  0  0  0  0  0  0  0
   10.3080   -6.5925   -3.9770 C   0  0  1  0  0  0  0  0  0  0  0  0
    9.6706   -6.9144   -5.3620 C   0  0  0  0  0  0  0  0  0  0  0  0
    9.9411   -5.8907   -6.4402 C   0  0  0  0  0  0  0  0  0  0  0  0
   11.1372   -5.8938   -7.1747 C   0  0  0  0  0  0  0  0  0  0  0  0
   11.3925   -4.9280   -8.1495 C   0  0  0  0  0  0  0  0  0  0  0  0
   10.4469   -3.9268   -8.4142 C   0  0  0  0  0  0  0  0  0  0  0  0
   10.6370   -2.9633   -9.3481 O   0  0  0  0  0  0  0  0  0  0  0  0
    9.2430   -3.9129   -7.6941 C   0  0  0  0  0  0  0  0  0  0  0  0
    9.0021   -4.8839   -6.7245 C   0  0  0  0  0  0  0  0  0  0  0  0
   11.8404   -6.5563   -4.0268 C   0  0  0  0  0  0  0  0  0  0  0  0
   12.4827   -5.5788   -3.7540 O   0  0  0  0  0  0  0  0  0  0  0  0
   12.4403   -7.6945   -4.4180 O   0  0  0  0  0  0  0  0  0  0  0  0
    0.8992    0.6422    0.9503 H   0  0  0  0  0  0  0  0  0  0  0  0
    0.8803   -1.0098    0.9846 H   0  0  0  0  0  0  0  0  0  0  0  0
    2.8862    0.4630   -0.5496 H   0  0  0  0  0  0  0  0  0  0  0  0
    3.2211   -0.5743    2.3220 H   0  0  0  0  0  0  0  0  0  0  0  0
    3.0604    1.1340    1.8551 H   0  0  0  0  0  0  0  0  0  0  0  0
    5.4187   -0.6822    1.0603 H   0  0  0  0  0  0  0  0  0  0  0  0
    5.4078    0.6072    2.2737 H   0  0  0  0  0  0  0  0  0  0  0  0
    6.2783    0.0502   -0.7690 H   0  0  0  0  0  0  0  0  0  0  0  0
    4.5200   -0.9196   -1.3345 H   0  0  0  0  0  0  0  0  0  0  0  0
    4.6916   -3.6267   -0.3179 H   0  0  0  0  0  0  0  0  0  0  0  0
    4.6697   -4.6606   -2.7161 H   0  0  0  0  0  0  0  0  0  0  0  0
    3.7550   -3.2072   -3.1652 H   0  0  0  0  0  0  0  0  0  0  0  0
    2.4881   -3.9629   -1.0910 H   0  0  0  0  0  0  0  0  0  0  0  0
    6.5341   -4.7028   -2.0827 H   0  0  0  0  0  0  0  0  0  0  0  0
    8.5562   -3.0042   -3.0643 H   0  0  0  0  0  0  0  0  0  0  0  0
   10.3174   -3.8015   -1.3100 H   0  0  0  0  0  0  0  0  0  0  0  0
    8.9393   -3.9338   -0.1992 H   0  0  0  0  0  0  0  0  0  0  0  0
    8.5555   -1.6408   -0.9140 H   0  0  0  0  0  0  0  0  0  0  0  0
   10.5749   -4.5901   -3.4169 H   0  0  0  0  0  0  0  0  0  0  0  0
   10.0026   -7.3986   -3.2845 H   0  0  0  0  0  0  0  0  0  0  0  0
    8.5898   -7.0110   -5.1851 H   0  0  0  0  0  0  0  0  0  0  0  0
   10.0160   -7.9135   -5.6826 H   0  0  0  0  0  0  0  0  0  0  0  0
   11.8899   -6.6654   -6.9904 H   0  0  0  0  0  0  0  0  0  0  0  0
   12.3320   -4.9529   -8.7104 H   0  0  0  0  0  0  0  0  0  0  0  0
   11.5008   -3.0781   -9.7659 H   0  0  0  0  0  0  0  0  0  0  0  0
    8.5083   -3.1361   -7.9149 H   0  0  0  0  0  0  0  0  0  0  0  0
    8.0528   -4.8670   -6.1812 H   0  0  0  0  0  0  0  0  0  0  0  0
   11.7917   -8.3948   -4.5826 H   0  0  0  0  0  0  0  0  0  0  0  0
  1  2  1  0
  1 35  1  0
  1 36  1  0
  2  3  1  0
  2  8  1  0
  2 37  1  6
  3  4  1  0
  3 38  1  0
  3 39  1  0
  4  5  1  0
  4 40  1  0
  4 41  1  0
  5  6  2  0
  5  7  1  0
  7 42  1  0
  8  9  2  0
  8 10  1  0
 10 11  1  0
 10 43  1  0
 11 12  1  0
 11 14  1  0
 11 44  1  1
 12 13  1  0
 12 45  1  0
 12 46  1  0
 13 47  1  0
 14 15  2  0
 14 16  1  0
 16 17  1  0
 16 48  1  0
 17 18  1  0
 17 20  1  0
 17 49  1  6
 18 19  1  0
 18 50  1  0
 18 51  1  0
 19 52  1  0
 20 21  2  0
 20 22  1  0
 22 23  1  0
 22 53  1  0
 23 24  1  0
 23 32  1  0
 23 54  1  1
 24 25  1  0
 24 55  1  0
 24 56  1  0
 25 26  2  0
 25 31  1  0
 26 27  1  0
 26 57  1  0
 27 28  2  0
 27 58  1  0
 28 29  1  0
 28 30  1  0
 29 59  1  0
 30 31  2  0
 30 60  1  0
 31 61  1  0
 32 33  2  0
 32 34  1  0
 34 62  1  0
M  END

