
     RDKit          3D

 47 49  0  0  0  0  0  0  0  0999 V2000
    3.1867    1.8521   -3.6805 C   0  0  0  0  0  0  0  0  0  0  0  0
    3.0411    0.5625   -3.0045 N   0  0  0  0  0  0  0  0  0  0  0  0
    3.1401   -0.6432   -3.7708 C   0  0  0  0  0  0  0  0  0  0  0  0
    2.2850   -1.7223   -3.4914 C   0  0  0  0  0  0  0  0  0  0  0  0
    2.3629   -2.8882   -4.2537 C   0  0  0  0  0  0  0  0  0  0  0  0
    3.2709   -2.9863   -5.3132 C   0  0  0  0  0  0  0  0  0  0  0  0
    4.1113   -1.9087   -5.6026 C   0  0  0  0  0  0  0  0  0  0  0  0
    4.0544   -0.7442   -4.8324 C   0  0  0  0  0  0  0  0  0  0  0  0
    3.4342    0.5296   -1.3531 S   0  0  1  0  0  0  0  0  0  0  0  0
    3.0301    1.8284   -0.8144 O   0  0  0  0  0  0  0  0  0  0  0  0
    2.9403   -0.7286   -0.8019 O   0  0  0  0  0  0  0  0  0  0  0  0
    5.2351    0.4712   -1.2769 C   0  0  0  0  0  0  0  0  0  0  0  0
    5.9523    1.6621   -1.1274 C   0  0  0  0  0  0  0  0  0  0  0  0
    7.3429    1.6086   -1.0893 C   0  0  0  0  0  0  0  0  0  0  0  0
    8.0045    0.3779   -1.1804 C   0  0  0  0  0  0  0  0  0  0  0  0
    9.7630    0.4578   -1.1544 Cl  0  0  0  0  0  0  0  0  0  0  0  0
    7.2951   -0.8342   -1.3086 C   0  0  0  0  0  0  0  0  0  0  0  0
    7.8347   -2.2527   -1.4320 C   0  0  0  0  0  0  0  0  0  0  0  0
    7.1648   -3.0975   -2.0001 O   0  0  0  0  0  0  0  0  0  0  0  0
    9.0358   -2.5129   -0.8247 N   0  0  0  0  0  0  0  0  0  0  0  0
    9.7376   -3.7309   -0.7582 C   0  0  0  0  0  0  0  0  0  0  0  0
    9.2567   -4.9421   -1.2886 C   0  0  0  0  0  0  0  0  0  0  0  0
   10.0163   -6.1064   -1.1440 C   0  0  0  0  0  0  0  0  0  0  0  0
   11.2456   -6.0956   -0.4874 C   0  0  0  0  0  0  0  0  0  0  0  0
   11.7444   -4.8873    0.0205 C   0  0  0  0  0  0  0  0  0  0  0  0
   13.0727   -4.9114    0.7269 C   0  0  0  0  0  0  0  0  0  0  0  0
   13.5478   -5.9062    1.2048 O   0  0  0  0  0  0  0  0  0  0  0  0
   13.7347   -3.7314    0.8022 O   0  0  0  0  0  0  0  0  0  0  0  0
   10.9857   -3.7174   -0.1088 C   0  0  0  0  0  0  0  0  0  0  0  0
    5.8916   -0.7534   -1.3668 C   0  0  0  0  0  0  0  0  0  0  0  0
    2.6182    1.8103   -4.6200 H   0  0  0  0  0  0  0  0  0  0  0  0
    4.2356    2.1122   -3.9174 H   0  0  0  0  0  0  0  0  0  0  0  0
    2.7616    2.6380   -3.0450 H   0  0  0  0  0  0  0  0  0  0  0  0
    1.5724   -1.6354   -2.6722 H   0  0  0  0  0  0  0  0  0  0  0  0
    1.6966   -3.7236   -4.0246 H   0  0  0  0  0  0  0  0  0  0  0  0
    3.3209   -3.8985   -5.9124 H   0  0  0  0  0  0  0  0  0  0  0  0
    4.8248   -1.9744   -6.4278 H   0  0  0  0  0  0  0  0  0  0  0  0
    4.7243    0.0870   -5.0602 H   0  0  0  0  0  0  0  0  0  0  0  0
    5.4234    2.6111   -1.0259 H   0  0  0  0  0  0  0  0  0  0  0  0
    7.9311    2.5213   -0.9839 H   0  0  0  0  0  0  0  0  0  0  0  0
    9.5086   -1.7218   -0.4026 H   0  0  0  0  0  0  0  0  0  0  0  0
    8.2960   -4.9555   -1.7968 H   0  0  0  0  0  0  0  0  0  0  0  0
    9.6284   -7.0424   -1.5535 H   0  0  0  0  0  0  0  0  0  0  0  0
   11.8361   -7.0039   -0.3580 H   0  0  0  0  0  0  0  0  0  0  0  0
   13.3141   -3.0743    0.2305 H   0  0  0  0  0  0  0  0  0  0  0  0
   11.3366   -2.7785    0.3317 H   0  0  0  0  0  0  0  0  0  0  0  0
    5.3304   -1.6822   -1.4760 H   0  0  0  0  0  0  0  0  0  0  0  0
  1  2  1  0
  1 31  1  0
  1 32  1  0
  1 33  1  0
  2  3  1  0
  9  2  1  6
  3  4  2  0
  3  8  1  0
  4  5  1  0
  4 34  1  0
  5  6  2  0
  5 35  1  0
  6  7  1  0
  6 36  1  0
  7  8  2  0
  7 37  1  0
  8 38  1  0
  9 10  2  0
  9 11  2  0
  9 12  1  0
 12 13  2  0
 12 30  1  0
 13 14  1  0
 13 39  1  0
 14 15  2  0
 14 40  1  0
 15 16  1  0
 15 17  1  0
 17 18  1  0
 17 30  2  0
 18 19  2  0
 18 20  1  0
 20 21  1  0
 20 41  1  0
 21 22  2  0
 21 29  1  0
 22 23  1  0
 22 42  1  0
 23 24  2  0
 23 43  1  0
 24 25  1  0
 24 44  1  0
 25 26  1  0
 25 29  2  0
 26 27  2  0
 26 28  1  0
 28 45  1  0
 29 46  1  0
 30 47  1  0
M  END

