
     RDKit          3D

 37 37  0  0  0  0  0  0  0  0999 V2000
    5.1537    2.5988    1.3153 C   0  0  0  0  0  0  0  0  0  0  0  0
    4.9221    1.3345    0.6514 N   0  0  0  0  0  0  0  0  0  0  0  0
    5.1377    1.3533   -0.7811 C   0  0  0  0  0  0  0  0  0  0  0  0
    4.6960    0.0151   -1.3811 C   0  0  1  0  0  0  0  0  0  0  0  0
    3.3083   -0.2318   -1.0842 O   0  0  0  0  0  0  0  0  0  0  0  0
    2.3538    0.4943   -1.8249 C   0  0  0  0  0  0  0  0  0  0  0  0
    5.0328   -0.2040   -2.8491 C   0  0  0  0  0  0  0  0  0  0  0  0
    5.3709    0.8579   -3.7046 C   0  0  0  0  0  0  0  0  0  0  0  0
    5.6752    0.6857   -5.0565 C   0  0  0  0  0  0  0  0  0  0  0  0
    6.0381    1.8369   -5.9568 C   0  0  0  0  0  0  0  0  0  0  0  0
    5.6318   -0.6261   -5.5726 C   0  0  0  0  0  0  0  0  0  0  0  0
    5.9321   -0.7499   -6.8945 O   0  0  0  0  0  0  0  0  0  0  0  0
    5.9233   -2.0244   -7.4943 C   0  0  0  0  0  0  0  0  0  0  0  0
    5.2949   -1.7010   -4.7409 C   0  0  0  0  0  0  0  0  0  0  0  0
    4.9958   -1.5105   -3.3827 C   0  0  0  0  0  0  0  0  0  0  0  0
    4.6544   -2.7059   -2.5228 C   0  0  0  0  0  0  0  0  0  0  0  0
    4.9171    2.5110    2.3876 H   0  0  0  0  0  0  0  0  0  0  0  0
    4.5652    3.4529    0.9061 H   0  0  0  0  0  0  0  0  0  0  0  0
    6.2186    2.8804    1.2387 H   0  0  0  0  0  0  0  0  0  0  0  0
    3.9806    0.9895    0.8345 H   0  0  0  0  0  0  0  0  0  0  0  0
    6.2127    1.4975   -0.9906 H   0  0  0  0  0  0  0  0  0  0  0  0
    4.6130    2.1986   -1.2843 H   0  0  0  0  0  0  0  0  0  0  0  0
    5.2057   -0.7575   -0.7853 H   0  0  0  0  0  0  0  0  0  0  0  0
    1.3639    0.1756   -1.4657 H   0  0  0  0  0  0  0  0  0  0  0  0
    2.4180    0.2896   -2.9091 H   0  0  0  0  0  0  0  0  0  0  0  0
    2.4362    1.5885   -1.6779 H   0  0  0  0  0  0  0  0  0  0  0  0
    5.4009    1.8762   -3.3103 H   0  0  0  0  0  0  0  0  0  0  0  0
    6.0220    2.7902   -5.4084 H   0  0  0  0  0  0  0  0  0  0  0  0
    5.3428    1.9141   -6.8091 H   0  0  0  0  0  0  0  0  0  0  0  0
    7.0425    1.7037   -6.3919 H   0  0  0  0  0  0  0  0  0  0  0  0
    6.1980   -1.8774   -8.5478 H   0  0  0  0  0  0  0  0  0  0  0  0
    4.9246   -2.4954   -7.4484 H   0  0  0  0  0  0  0  0  0  0  0  0
    6.6565   -2.7058   -7.0260 H   0  0  0  0  0  0  0  0  0  0  0  0
    5.2625   -2.7149   -5.1413 H   0  0  0  0  0  0  0  0  0  0  0  0
    4.5472   -3.6167   -3.1298 H   0  0  0  0  0  0  0  0  0  0  0  0
    3.7237   -2.5421   -1.9609 H   0  0  0  0  0  0  0  0  0  0  0  0
    5.4436   -2.8978   -1.7747 H   0  0  0  0  0  0  0  0  0  0  0  0
  1  2  1  0
  1 17  1  0
  1 18  1  0
  1 19  1  0
  2  3  1  0
  2 20  1  0
  3  4  1  0
  3 21  1  0
  3 22  1  0
  4  5  1  0
  4  7  1  0
  4 23  1  1
  5  6  1  0
  6 24  1  0
  6 25  1  0
  6 26  1  0
  7  8  2  0
  7 15  1  0
  8  9  1  0
  8 27  1  0
  9 10  1  0
  9 11  2  0
 10 28  1  0
 10 29  1  0
 10 30  1  0
 11 12  1  0
 11 14  1  0
 12 13  1  0
 13 31  1  0
 13 32  1  0
 13 33  1  0
 14 15  2  0
 14 34  1  0
 15 16  1  0
 16 35  1  0
 16 36  1  0
 16 37  1  0
M  END

