
     RDKit          3D

 33 34  0  0  0  0  0  0  0  0999 V2000
    1.3017    0.4466    0.0778 C   0  0  0  0  0  0  0  0  0  0  0  0
    2.7537    0.0101   -0.1655 C   0  0  1  0  0  0  0  0  0  0  0  0
    2.8001   -1.4722   -0.5341 C   0  0  0  0  0  0  0  0  0  0  0  0
    2.4814   -2.3130    0.2875 O   0  0  0  0  0  0  0  0  0  0  0  0
    3.2063   -1.7761   -1.7930 N   0  0  0  0  0  0  0  0  0  0  0  0
    3.4043   -0.8588   -2.9136 C   0  0  2  0  0  0  0  0  0  0  0  0
    2.1308   -0.7732   -3.7852 C   0  0  0  0  0  0  0  0  0  0  0  0
    4.5881   -1.3663   -3.7525 C   0  0  0  0  0  0  0  0  0  0  0  0
    3.7407    0.5671   -2.4303 C   0  0  0  0  0  0  0  0  0  0  0  0
    4.2206    1.3678   -3.2110 O   0  0  0  0  0  0  0  0  0  0  0  0
    3.4604    0.8863   -1.1196 N   0  0  0  0  0  0  0  0  0  0  0  0
    3.8015    2.1955   -0.6604 C   0  0  0  0  0  0  0  0  0  0  0  0
    3.2191    3.3537   -1.1912 C   0  0  0  0  0  0  0  0  0  0  0  0
    3.5775    4.6170   -0.7215 C   0  0  0  0  0  0  0  0  0  0  0  0
    4.5239    4.7321    0.2936 C   0  0  0  0  0  0  0  0  0  0  0  0
    4.8756    5.9278    0.7656 F   0  0  0  0  0  0  0  0  0  0  0  0
    5.1192    3.5938    0.8417 C   0  0  0  0  0  0  0  0  0  0  0  0
    6.0260    3.6995    1.8091 F   0  0  0  0  0  0  0  0  0  0  0  0
    4.7654    2.3357    0.3475 C   0  0  0  0  0  0  0  0  0  0  0  0
    5.3582    1.2595    0.8690 F   0  0  0  0  0  0  0  0  0  0  0  0
    0.8482   -0.2197    0.8249 H   0  0  0  0  0  0  0  0  0  0  0  0
    0.7075    0.3914   -0.8482 H   0  0  0  0  0  0  0  0  0  0  0  0
    1.2611    1.4791    0.4552 H   0  0  0  0  0  0  0  0  0  0  0  0
    3.2961    0.0600    0.7904 H   0  0  0  0  0  0  0  0  0  0  0  0
    3.1954   -2.7714   -2.0048 H   0  0  0  0  0  0  0  0  0  0  0  0
    1.8838   -1.7677   -4.1898 H   0  0  0  0  0  0  0  0  0  0  0  0
    2.2888   -0.0804   -4.6242 H   0  0  0  0  0  0  0  0  0  0  0  0
    1.2692   -0.4219   -3.1965 H   0  0  0  0  0  0  0  0  0  0  0  0
    4.3585   -2.3625   -4.1644 H   0  0  0  0  0  0  0  0  0  0  0  0
    5.4963   -1.4436   -3.1366 H   0  0  0  0  0  0  0  0  0  0  0  0
    4.7853   -0.6749   -4.5811 H   0  0  0  0  0  0  0  0  0  0  0  0
    2.4862    3.2558   -1.9917 H   0  0  0  0  0  0  0  0  0  0  0  0
    3.1341    5.5262   -1.1304 H   0  0  0  0  0  0  0  0  0  0  0  0
  1  2  1  0
  1 21  1  0
  1 22  1  0
  1 23  1  0
  2  3  1  0
  2 11  1  0
  2 24  1  1
  3  4  2  0
  3  5  1  0
  5  6  1  0
  5 25  1  0
  6  7  1  6
  6  8  1  0
  6  9  1  0
  7 26  1  0
  7 27  1  0
  7 28  1  0
  8 29  1  0
  8 30  1  0
  8 31  1  0
  9 10  2  0
  9 11  1  0
 11 12  1  0
 12 13  2  0
 12 19  1  0
 13 14  1  0
 13 32  1  0
 14 15  2  0
 14 33  1  0
 15 16  1  0
 15 17  1  0
 17 18  1  0
 17 19  2  0
 19 20  1  0
M  END

