
     RDKit          3D

 38 39  0  0  0  0  0  0  0  0999 V2000
    1.7301    2.5513   -0.3821 C   0  0  0  0  0  0  0  0  0  0  0  0
    2.1564    2.3473   -1.8369 C   0  0  0  0  0  0  0  0  0  0  0  0
    2.9336    1.1355   -2.0634 N   0  0  0  0  0  0  0  0  0  0  0  0
    4.2698    1.0751   -1.8419 C   0  0  0  0  0  0  0  0  0  0  0  0
    4.9997    2.1109   -1.5146 N   0  0  0  0  0  0  0  0  0  0  0  0
    6.3191    1.7657   -1.3871 C   0  0  0  0  0  0  0  0  0  0  0  0
    7.2236    2.7073   -1.0478 N   0  0  0  0  0  0  0  0  0  0  0  0
    6.6340    0.4184   -1.6131 C   0  0  0  0  0  0  0  0  0  0  0  0
    7.9694   -0.1337   -1.5308 C   0  0  0  0  0  0  0  0  0  0  0  0
    8.9518    0.5786   -1.2580 O   0  0  0  0  0  0  0  0  0  0  0  0
    8.1320   -1.4794   -1.7686 N   0  0  0  0  0  0  0  0  0  0  0  0
    9.4432   -2.0946   -1.6775 C   0  0  1  0  0  0  0  0  0  0  0  0
    9.8173   -2.5195   -0.2370 C   0  0  0  0  0  0  0  0  0  0  0  0
    8.9299   -3.6311    0.3387 C   0  0  0  0  0  0  0  0  0  0  0  0
    9.0013   -4.9320   -0.4661 C   0  0  0  0  0  0  0  0  0  0  0  0
    8.5004   -4.6706   -2.1921 S   0  0  2  0  0  0  0  0  0  0  0  0
    7.1050   -4.1752   -2.1764 O   0  0  0  0  0  0  0  0  0  0  0  0
    8.8561   -5.8497   -2.9890 O   0  0  0  0  0  0  0  0  0  0  0  0
    9.5578   -3.2691   -2.6636 C   0  0  0  0  0  0  0  0  0  0  0  0
    5.1387   -0.4491   -2.0216 S   0  0  0  0  0  0  0  0  0  0  0  0
    1.1384    3.4757   -0.2821 H   0  0  0  0  0  0  0  0  0  0  0  0
    2.6131    2.6374    0.2689 H   0  0  0  0  0  0  0  0  0  0  0  0
    1.1122    1.7125   -0.0221 H   0  0  0  0  0  0  0  0  0  0  0  0
    2.7710    3.1962   -2.1699 H   0  0  0  0  0  0  0  0  0  0  0  0
    1.2743    2.3016   -2.4964 H   0  0  0  0  0  0  0  0  0  0  0  0
    2.4391    0.2624   -2.1951 H   0  0  0  0  0  0  0  0  0  0  0  0
    6.9299    3.6701   -0.9722 H   0  0  0  0  0  0  0  0  0  0  0  0
    8.1971    2.4114   -1.0116 H   0  0  0  0  0  0  0  0  0  0  0  0
    7.3352   -2.0934   -1.9220 H   0  0  0  0  0  0  0  0  0  0  0  0
   10.1671   -1.3251   -1.9873 H   0  0  0  0  0  0  0  0  0  0  0  0
    9.7581   -1.6219    0.3962 H   0  0  0  0  0  0  0  0  0  0  0  0
   10.8740   -2.8441   -0.2285 H   0  0  0  0  0  0  0  0  0  0  0  0
    7.8818   -3.2924    0.3746 H   0  0  0  0  0  0  0  0  0  0  0  0
    9.2248   -3.8499    1.3782 H   0  0  0  0  0  0  0  0  0  0  0  0
    8.3091   -5.7071   -0.1028 H   0  0  0  0  0  0  0  0  0  0  0  0
   10.0157   -5.3586   -0.5101 H   0  0  0  0  0  0  0  0  0  0  0  0
    9.2284   -3.0004   -3.6787 H   0  0  0  0  0  0  0  0  0  0  0  0
   10.5818   -3.6678   -2.7111 H   0  0  0  0  0  0  0  0  0  0  0  0
  1  2  1  0
  1 21  1  0
  1 22  1  0
  1 23  1  0
  2  3  1  0
  2 24  1  0
  2 25  1  0
  3  4  1  0
  3 26  1  0
  4  5  2  0
  4 20  1  0
  5  6  1  0
  6  7  1  0
  6  8  2  0
  7 27  1  0
  7 28  1  0
  8  9  1  0
  8 20  1  0
  9 10  2  0
  9 11  1  0
 11 12  1  0
 11 29  1  0
 12 13  1  0
 12 19  1  0
 12 30  1  6
 13 14  1  0
 13 31  1  0
 13 32  1  0
 14 15  1  0
 14 33  1  0
 14 34  1  0
 16 15  1  1
 15 35  1  0
 15 36  1  0
 16 17  2  0
 16 18  2  0
 16 19  1  0
 19 37  1  0
 19 38  1  0
M  END

