
     RDKit          3D

 46 48  0  0  0  0  0  0  0  0999 V2000
    4.2458   -0.7492    1.3510 C   0  0  0  0  0  0  0  0  0  0  0  0
    4.6154   -0.6981   -0.0094 O   0  0  0  0  0  0  0  0  0  0  0  0
    4.2484    0.3708   -0.7594 C   0  0  0  0  0  0  0  0  0  0  0  0
    3.5018    1.4599   -0.2858 C   0  0  0  0  0  0  0  0  0  0  0  0
    3.2007    2.5173   -1.1542 C   0  0  0  0  0  0  0  0  0  0  0  0
    3.6263    2.5045   -2.4790 C   0  0  0  0  0  0  0  0  0  0  0  0
    4.3575    1.4055   -2.9633 C   0  0  0  0  0  0  0  0  0  0  0  0
    4.7975    1.4535   -4.4062 C   0  0  0  0  0  0  0  0  0  0  0  0
    4.8809    2.5119   -5.0074 O   0  0  0  0  0  0  0  0  0  0  0  0
    5.0701    0.2275   -4.9732 N   0  0  0  0  0  0  0  0  0  0  0  0
    5.5254   -0.0668   -6.2709 C   0  0  0  0  0  0  0  0  0  0  0  0
    5.8053    0.9129   -7.2386 C   0  0  0  0  0  0  0  0  0  0  0  0
    6.2600    0.5215   -8.5010 C   0  0  0  0  0  0  0  0  0  0  0  0
    6.4458   -0.8238   -8.8403 C   0  0  0  0  0  0  0  0  0  0  0  0
    6.9600   -1.2357  -10.2058 C   0  0  0  0  0  0  0  0  0  0  0  0
    8.3360   -1.7209  -10.1925 N   0  0  0  0  0  0  0  0  0  0  0  0
    8.6414   -3.0518  -10.1931 C   0  0  0  0  0  0  0  0  0  0  0  0
    7.7900   -3.9263  -10.2793 O   0  0  0  0  0  0  0  0  0  0  0  0
   10.1056   -3.3964  -10.1066 C   0  0  0  0  0  0  0  0  0  0  0  0
   11.0855   -2.5727   -9.5372 C   0  0  0  0  0  0  0  0  0  0  0  0
   12.4065   -3.0200   -9.4974 C   0  0  0  0  0  0  0  0  0  0  0  0
   12.6989   -4.2791  -10.0306 C   0  0  0  0  0  0  0  0  0  0  0  0
   11.7749   -5.0819  -10.5663 N   0  0  0  0  0  0  0  0  0  0  0  0
   10.5141   -4.6515  -10.5923 C   0  0  0  0  0  0  0  0  0  0  0  0
    6.1577   -1.7953   -7.8663 C   0  0  0  0  0  0  0  0  0  0  0  0
    5.7074   -1.4242   -6.6038 C   0  0  0  0  0  0  0  0  0  0  0  0
    4.6727    0.3521   -2.0992 C   0  0  0  0  0  0  0  0  0  0  0  0
    4.6523   -1.6880    1.7502 H   0  0  0  0  0  0  0  0  0  0  0  0
    3.1483   -0.7522    1.4794 H   0  0  0  0  0  0  0  0  0  0  0  0
    4.6687    0.0957    1.9238 H   0  0  0  0  0  0  0  0  0  0  0  0
    3.1590    1.4986    0.7483 H   0  0  0  0  0  0  0  0  0  0  0  0
    2.6233    3.3653   -0.7771 H   0  0  0  0  0  0  0  0  0  0  0  0
    3.4091    3.3291   -3.1589 H   0  0  0  0  0  0  0  0  0  0  0  0
    4.8652   -0.5820   -4.4007 H   0  0  0  0  0  0  0  0  0  0  0  0
    5.6585    1.9617   -6.9932 H   0  0  0  0  0  0  0  0  0  0  0  0
    6.4685    1.2978   -9.2439 H   0  0  0  0  0  0  0  0  0  0  0  0
    6.8915   -0.3871  -10.9048 H   0  0  0  0  0  0  0  0  0  0  0  0
    6.3529   -2.0579  -10.6105 H   0  0  0  0  0  0  0  0  0  0  0  0
    9.0814   -1.0408  -10.1200 H   0  0  0  0  0  0  0  0  0  0  0  0
   10.8278   -1.6036   -9.1006 H   0  0  0  0  0  0  0  0  0  0  0  0
   13.1958   -2.4093   -9.0533 H   0  0  0  0  0  0  0  0  0  0  0  0
   13.7281   -4.6576  -10.0164 H   0  0  0  0  0  0  0  0  0  0  0  0
    9.7582   -5.3192  -11.0180 H   0  0  0  0  0  0  0  0  0  0  0  0
    6.2879   -2.8536   -8.1076 H   0  0  0  0  0  0  0  0  0  0  0  0
    5.4871   -2.1968   -5.8604 H   0  0  0  0  0  0  0  0  0  0  0  0
    5.2818   -0.4993   -2.4109 H   0  0  0  0  0  0  0  0  0  0  0  0
  1  2  1  0
  1 28  1  0
  1 29  1  0
  1 30  1  0
  2  3  1  0
  3  4  2  0
  3 27  1  0
  4  5  1  0
  4 31  1  0
  5  6  2  0
  5 32  1  0
  6  7  1  0
  6 33  1  0
  7  8  1  0
  7 27  2  0
  8  9  2  0
  8 10  1  0
 10 11  1  0
 10 34  1  0
 11 12  2  0
 11 26  1  0
 12 13  1  0
 12 35  1  0
 13 14  2  0
 13 36  1  0
 14 15  1  0
 14 25  1  0
 15 16  1  0
 15 37  1  0
 15 38  1  0
 16 17  1  0
 16 39  1  0
 17 18  2  0
 17 19  1  0
 19 20  2  0
 19 24  1  0
 20 21  1  0
 20 40  1  0
 21 22  2  0
 21 41  1  0
 22 23  1  0
 22 42  1  0
 23 24  2  0
 24 43  1  0
 25 26  2  0
 25 44  1  0
 26 45  1  0
 27 46  1  0
M  END

