
     RDKit          3D

 71 75  0  0  0  0  0  0  0  0999 V2000
   13.6671    2.8661    1.0450 C   0  0  0  0  0  0  0  0  0  0  0  0
   14.3535    2.1951   -0.1518 C   0  0  1  0  0  0  0  0  0  0  0  0
   15.8740    2.3948   -0.0889 C   0  0  0  0  0  0  0  0  0  0  0  0
   13.9482    0.7132   -0.2392 C   0  0  0  0  0  0  0  0  0  0  0  0
   14.4338   -0.0225   -1.4913 C   0  0  0  0  0  0  0  0  0  0  0  0
   13.7849   -1.3946   -1.6465 C   0  0  0  0  0  0  0  0  0  0  0  0
   12.6156   -1.6041   -1.3489 O   0  0  0  0  0  0  0  0  0  0  0  0
   14.5894   -2.3738   -2.1509 N   0  0  0  0  0  0  0  0  0  0  0  0
   14.0637   -3.6601   -2.5233 C   0  0  2  0  0  0  0  0  0  0  0  0
   13.9908   -4.7546   -1.4431 C   0  0  0  0  0  0  0  0  0  0  0  0
   12.4135   -6.6039   -2.3390 C   0  0  2  0  0  0  0  0  0  0  0  0
   12.4933   -7.7439   -3.1947 O   0  0  0  0  0  0  0  0  0  0  0  0
   11.8219   -6.9869   -0.9160 C   0  0  2  0  0  0  0  0  0  0  0  0
   10.7576   -5.9181   -0.5645 C   0  0  0  0  0  0  0  0  0  0  0  0
   10.4972   -5.2398   -1.8761 C   0  0  0  0  0  0  0  0  0  0  0  0
   11.3735   -5.6053   -2.8480 C   0  0  0  0  0  0  0  0  0  0  0  0
   11.1501   -5.2913   -4.3373 C   0  0  0  0  0  0  0  0  0  0  0  0
   11.0379   -3.8164   -4.8347 C   0  0  0  0  0  0  0  0  0  0  0  0
   11.9243   -3.3154   -5.4806 O   0  0  0  0  0  0  0  0  0  0  0  0
    9.7744   -2.9887   -4.4064 C   0  0  0  0  0  0  0  0  0  0  0  0
    9.8999   -3.2079   -2.9385 C   0  0  0  0  0  0  0  0  0  0  0  0
    9.4328   -4.3419   -2.3633 C   0  0  0  0  0  0  0  0  0  0  0  0
   13.8941   -6.1122   -2.2171 C   0  0  2  0  0  0  0  0  0  0  0  0
   14.6916   -7.2532   -1.5285 C   0  0  0  0  0  0  0  0  0  0  0  0
   13.9324   -7.9817   -0.4076 C   0  0  0  0  0  0  0  0  0  0  0  0
   12.8360   -7.1724    0.1075 N   0  0  0  0  0  0  0  0  0  0  0  0
   12.2785   -7.6809    1.3596 C   0  0  0  0  0  0  0  0  0  0  0  0
   13.2341   -7.6411    2.5359 C   0  0  1  0  0  0  0  0  0  0  0  0
   13.5856   -6.3220    3.1723 C   0  0  0  0  0  0  0  0  0  0  0  0
   12.7105   -7.3018    3.9113 C   0  0  0  0  0  0  0  0  0  0  0  0
   14.5643   -5.8030   -3.5970 C   0  0  0  0  0  0  0  0  0  0  0  0
   14.9055   -4.3257   -3.5984 C   0  0  0  0  0  0  0  0  0  0  0  0
   15.7664   -3.7734   -4.2419 O   0  0  0  0  0  0  0  0  0  0  0  0
   13.9042    3.9413    1.0941 H   0  0  0  0  0  0  0  0  0  0  0  0
   13.9957    2.4098    1.9949 H   0  0  0  0  0  0  0  0  0  0  0  0
   12.5713    2.7638    0.9896 H   0  0  0  0  0  0  0  0  0  0  0  0
   13.9863    2.6923   -1.0707 H   0  0  0  0  0  0  0  0  0  0  0  0
   16.3001    1.8934    0.7978 H   0  0  0  0  0  0  0  0  0  0  0  0
   16.1313    3.4643   -0.0195 H   0  0  0  0  0  0  0  0  0  0  0  0
   16.3855    1.9929   -0.9777 H   0  0  0  0  0  0  0  0  0  0  0  0
   12.8501    0.6301   -0.2141 H   0  0  0  0  0  0  0  0  0  0  0  0
   14.3130    0.1829    0.6604 H   0  0  0  0  0  0  0  0  0  0  0  0
   15.5309   -0.1205   -1.5098 H   0  0  0  0  0  0  0  0  0  0  0  0
   14.1551    0.5589   -2.3902 H   0  0  0  0  0  0  0  0  0  0  0  0
   15.4838   -2.1274   -2.5682 H   0  0  0  0  0  0  0  0  0  0  0  0
   13.0539   -3.5231   -2.9454 H   0  0  0  0  0  0  0  0  0  0  0  0
   13.1678   -4.5841   -0.7422 H   0  0  0  0  0  0  0  0  0  0  0  0
   14.9229   -4.7306   -0.8565 H   0  0  0  0  0  0  0  0  0  0  0  0
   11.6147   -8.1440   -3.2480 H   0  0  0  0  0  0  0  0  0  0  0  0
   11.2831   -7.9503   -1.0972 H   0  0  0  0  0  0  0  0  0  0  0  0
   11.1457   -5.2030    0.1815 H   0  0  0  0  0  0  0  0  0  0  0  0
    9.8349   -6.3479   -0.1382 H   0  0  0  0  0  0  0  0  0  0  0  0
   10.2042   -5.7846   -4.6295 H   0  0  0  0  0  0  0  0  0  0  0  0
   11.9425   -5.7466   -4.9437 H   0  0  0  0  0  0  0  0  0  0  0  0
    8.8685   -3.4507   -4.8367 H   0  0  0  0  0  0  0  0  0  0  0  0
    9.9041   -1.9632   -4.7789 H   0  0  0  0  0  0  0  0  0  0  0  0
   10.8036   -2.7668   -2.4965 H   0  0  0  0  0  0  0  0  0  0  0  0
    8.5048   -4.8108   -2.7267 H   0  0  0  0  0  0  0  0  0  0  0  0
   15.6288   -6.8228   -1.1406 H   0  0  0  0  0  0  0  0  0  0  0  0
   14.9727   -7.9930   -2.2911 H   0  0  0  0  0  0  0  0  0  0  0  0
   14.6227   -8.2115    0.4151 H   0  0  0  0  0  0  0  0  0  0  0  0
   13.5503   -8.9579   -0.7844 H   0  0  0  0  0  0  0  0  0  0  0  0
   11.8977   -8.7228    1.2310 H   0  0  0  0  0  0  0  0  0  0  0  0
   11.4011   -7.0665    1.6125 H   0  0  0  0  0  0  0  0  0  0  0  0
   14.0314   -8.3917    2.5165 H   0  0  0  0  0  0  0  0  0  0  0  0
   13.1186   -5.4242    2.7566 H   0  0  0  0  0  0  0  0  0  0  0  0
   14.6099   -6.1686    3.5233 H   0  0  0  0  0  0  0  0  0  0  0  0
   11.6459   -7.0678    4.0125 H   0  0  0  0  0  0  0  0  0  0  0  0
   13.1301   -7.8337    4.7698 H   0  0  0  0  0  0  0  0  0  0  0  0
   13.9208   -6.0445   -4.4551 H   0  0  0  0  0  0  0  0  0  0  0  0
   15.4913   -6.3748   -3.7528 H   0  0  0  0  0  0  0  0  0  0  0  0
  1  2  1  0
  1 34  1  0
  1 35  1  0
  1 36  1  0
  2  3  1  0
  2  4  1  0
  2 37  1  6
  3 38  1  0
  3 39  1  0
  3 40  1  0
  4  5  1  0
  4 41  1  0
  4 42  1  0
  5  6  1  0
  5 43  1  0
  5 44  1  0
  6  7  2  0
  6  8  1  0
  8  9  1  0
  8 45  1  0
  9 10  1  0
  9 32  1  0
  9 46  1  6
 23 10  1  1
 10 47  1  0
 10 48  1  0
 11 12  1  6
 11 13  1  0
 11 16  1  0
 11 23  1  0
 12 49  1  0
 13 14  1  0
 13 26  1  0
 13 50  1  6
 14 15  1  0
 14 51  1  0
 14 52  1  0
 15 16  2  0
 15 22  1  0
 16 17  1  0
 17 18  1  0
 17 53  1  0
 17 54  1  0
 18 19  2  0
 18 20  1  0
 20 21  1  0
 20 55  1  0
 20 56  1  0
 21 22  2  0
 21 57  1  0
 22 58  1  0
 23 24  1  0
 23 31  1  0
 24 25  1  0
 24 59  1  0
 24 60  1  0
 25 26  1  0
 25 61  1  0
 25 62  1  0
 26 27  1  0
 27 28  1  0
 27 63  1  0
 27 64  1  0
 28 29  1  0
 28 30  1  0
 28 65  1  1
 29 30  1  0
 29 66  1  0
 29 67  1  0
 30 68  1  0
 30 69  1  0
 31 32  1  0
 31 70  1  0
 31 71  1  0
 32 33  2  0
M  END

