
     RDKit          3D

 43 44  0  0  0  0  0  0  0  0999 V2000
    1.4163   -0.7375   -1.6419 C   0  0  0  0  0  0  0  0  0  0  0  0
    2.8292   -0.4672   -1.1855 C   0  0  0  0  0  0  0  0  0  0  0  0
    3.3855    0.8133   -1.3014 C   0  0  0  0  0  0  0  0  0  0  0  0
    4.6805    1.0966   -0.8714 C   0  0  0  0  0  0  0  0  0  0  0  0
    5.4721    0.0760   -0.3301 C   0  0  0  0  0  0  0  0  0  0  0  0
    6.8276    0.4511    0.2201 C   0  0  0  0  0  0  0  0  0  0  0  0
    6.9540    1.5020    0.8353 O   0  0  0  0  0  0  0  0  0  0  0  0
    7.8798   -0.4204    0.0417 N   0  0  0  0  0  0  0  0  0  0  0  0
    7.9357   -1.4930   -0.9360 C   0  0  0  0  0  0  0  0  0  0  0  0
    9.1295   -0.1382    0.7264 C   0  0  0  0  0  0  0  0  0  0  0  0
    4.9378   -1.2119   -0.1933 C   0  0  0  0  0  0  0  0  0  0  0  0
    3.6268   -1.4891   -0.6139 C   0  0  0  0  0  0  0  0  0  0  0  0
    3.0571   -2.7731   -0.4802 N   0  0  0  0  0  0  0  0  0  0  0  0
    3.6210   -3.9260   -0.0072 C   0  0  0  0  0  0  0  0  0  0  0  0
    4.7692   -4.0529    0.3805 O   0  0  0  0  0  0  0  0  0  0  0  0
    2.6644   -5.1297    0.0679 C   0  0  0  0  0  0  0  0  0  0  0  0
    1.2083   -5.1469   -1.0343 S   0  0  0  0  0  0  0  0  0  0  0  0
    2.0461   -5.5205   -2.6481 C   0  0  0  0  0  0  0  0  0  0  0  0
    1.0762   -5.4426   -3.7814 C   0  0  0  0  0  0  0  0  0  0  0  0
    0.2324   -6.4246   -4.2496 C   0  0  0  0  0  0  0  0  0  0  0  0
   -0.5975   -5.9895   -5.3258 C   0  0  0  0  0  0  0  0  0  0  0  0
   -0.3803   -4.6771   -5.6629 C   0  0  0  0  0  0  0  0  0  0  0  0
    0.8424   -3.9619   -4.6724 S   0  0  0  0  0  0  0  0  0  0  0  0
    0.9616    0.1697   -2.0634 H   0  0  0  0  0  0  0  0  0  0  0  0
    0.7697   -1.0699   -0.8102 H   0  0  0  0  0  0  0  0  0  0  0  0
    1.3668   -1.5204   -2.4188 H   0  0  0  0  0  0  0  0  0  0  0  0
    2.7752    1.6113   -1.7335 H   0  0  0  0  0  0  0  0  0  0  0  0
    5.0852    2.1079   -0.9374 H   0  0  0  0  0  0  0  0  0  0  0  0
    7.0702   -1.4625   -1.6063 H   0  0  0  0  0  0  0  0  0  0  0  0
    7.9698   -2.4888   -0.4582 H   0  0  0  0  0  0  0  0  0  0  0  0
    8.8459   -1.3829   -1.5525 H   0  0  0  0  0  0  0  0  0  0  0  0
    8.9545    0.6329    1.4850 H   0  0  0  0  0  0  0  0  0  0  0  0
    9.9003    0.2299    0.0236 H   0  0  0  0  0  0  0  0  0  0  0  0
    9.5146   -1.0547    1.2056 H   0  0  0  0  0  0  0  0  0  0  0  0
    5.5151   -2.0150    0.2567 H   0  0  0  0  0  0  0  0  0  0  0  0
    2.0921   -2.8819   -0.7864 H   0  0  0  0  0  0  0  0  0  0  0  0
    2.2600   -5.1738    1.0930 H   0  0  0  0  0  0  0  0  0  0  0  0
    3.2745   -6.0345   -0.0697 H   0  0  0  0  0  0  0  0  0  0  0  0
    2.4692   -6.5345   -2.5814 H   0  0  0  0  0  0  0  0  0  0  0  0
    2.8759   -4.8100   -2.7799 H   0  0  0  0  0  0  0  0  0  0  0  0
    0.2089   -7.4324   -3.8302 H   0  0  0  0  0  0  0  0  0  0  0  0
   -1.3233   -6.6269   -5.8332 H   0  0  0  0  0  0  0  0  0  0  0  0
   -0.8609   -4.0928   -6.4464 H   0  0  0  0  0  0  0  0  0  0  0  0
  1  2  1  0
  1 24  1  0
  1 25  1  0
  1 26  1  0
  2  3  2  0
  2 12  1  0
  3  4  1  0
  3 27  1  0
  4  5  2  0
  4 28  1  0
  5  6  1  0
  5 11  1  0
  6  7  2  0
  6  8  1  0
  8  9  1  0
  8 10  1  0
  9 29  1  0
  9 30  1  0
  9 31  1  0
 10 32  1  0
 10 33  1  0
 10 34  1  0
 11 12  2  0
 11 35  1  0
 12 13  1  0
 13 14  1  0
 13 36  1  0
 14 15  2  0
 14 16  1  0
 16 17  1  0
 16 37  1  0
 16 38  1  0
 17 18  1  0
 18 19  1  0
 18 39  1  0
 18 40  1  0
 19 20  2  0
 19 23  1  0
 20 21  1  0
 20 41  1  0
 21 22  2  0
 21 42  1  0
 22 23  1  0
 22 43  1  0
M  END

