
     RDKit          3D

 33 34  0  0  0  0  0  0  0  0999 V2000
    9.5589    0.7171    0.1538 C   0  0  0  0  0  0  0  0  0  0  0  0
    8.2088    0.3473    0.3036 O   0  0  0  0  0  0  0  0  0  0  0  0
    7.8255   -0.3247    1.4218 C   0  0  0  0  0  0  0  0  0  0  0  0
    6.4607   -0.6575    1.5055 C   0  0  0  0  0  0  0  0  0  0  0  0
    5.9659   -1.3433    2.6082 C   0  0  0  0  0  0  0  0  0  0  0  0
    6.8326   -1.7113    3.6449 C   0  0  0  0  0  0  0  0  0  0  0  0
    6.3636   -2.3139    4.8025 O   0  0  0  0  0  0  0  0  0  0  0  0
    5.8440   -3.5632    4.7895 C   0  0  0  0  0  0  0  0  0  0  0  0
    5.8506   -4.2526    3.6558 N   0  0  0  0  0  0  0  0  0  0  0  0
    5.3398   -5.4923    3.6970 C   0  0  0  0  0  0  0  0  0  0  0  0
    5.3535   -6.2718    2.4106 C   0  0  0  0  0  0  0  0  0  0  0  0
    4.8272   -6.0185    4.8876 C   0  0  0  0  0  0  0  0  0  0  0  0
    4.8699   -5.1947    6.0203 C   0  0  0  0  0  0  0  0  0  0  0  0
    4.3678   -5.6555    7.3741 C   0  0  0  0  0  0  0  0  0  0  0  0
    3.5099   -6.8280    7.2960 N   0  0  0  0  0  0  0  0  0  0  0  0
    5.3764   -3.9603    5.9708 N   0  0  0  0  0  0  0  0  0  0  0  0
    8.1828   -1.3841    3.5735 C   0  0  0  0  0  0  0  0  0  0  0  0
    8.6866   -0.6895    2.4660 C   0  0  0  0  0  0  0  0  0  0  0  0
    9.6366    1.2416   -0.8083 H   0  0  0  0  0  0  0  0  0  0  0  0
   10.2289   -0.1621    0.1353 H   0  0  0  0  0  0  0  0  0  0  0  0
    9.8929    1.3978    0.9585 H   0  0  0  0  0  0  0  0  0  0  0  0
    5.8045   -0.3603    0.6850 H   0  0  0  0  0  0  0  0  0  0  0  0
    4.9065   -1.5966    2.6719 H   0  0  0  0  0  0  0  0  0  0  0  0
    6.3867   -6.3650    2.0393 H   0  0  0  0  0  0  0  0  0  0  0  0
    4.7888   -5.7291    1.6354 H   0  0  0  0  0  0  0  0  0  0  0  0
    4.9233   -7.2754    2.5321 H   0  0  0  0  0  0  0  0  0  0  0  0
    4.4102   -7.0224    4.9570 H   0  0  0  0  0  0  0  0  0  0  0  0
    3.9272   -4.7679    7.8715 H   0  0  0  0  0  0  0  0  0  0  0  0
    5.2597   -5.9142    7.9731 H   0  0  0  0  0  0  0  0  0  0  0  0
    2.5844   -6.5747    6.9485 H   0  0  0  0  0  0  0  0  0  0  0  0
    3.3725   -7.2337    8.2199 H   0  0  0  0  0  0  0  0  0  0  0  0
    8.8415   -1.6703    4.3958 H   0  0  0  0  0  0  0  0  0  0  0  0
    9.7477   -0.4421    2.4346 H   0  0  0  0  0  0  0  0  0  0  0  0
  1  2  1  0
  1 19  1  0
  1 20  1  0
  1 21  1  0
  2  3  1  0
  3  4  2  0
  3 18  1  0
  4  5  1  0
  4 22  1  0
  5  6  2  0
  5 23  1  0
  6  7  1  0
  6 17  1  0
  7  8  1  0
  8  9  2  0
  8 16  1  0
  9 10  1  0
 10 11  1  0
 10 12  2  0
 11 24  1  0
 11 25  1  0
 11 26  1  0
 12 13  1  0
 12 27  1  0
 13 14  1  0
 13 16  2  0
 14 15  1  0
 14 28  1  0
 14 29  1  0
 15 30  1  0
 15 31  1  0
 17 18  2  0
 17 32  1  0
 18 33  1  0
M  END

