
     RDKit          3D

 27 27  0  0  0  0  0  0  0  0999 V2000
    1.9277    0.7387   -1.1342 C   0  0  0  0  0  0  0  0  0  0  0  0
    2.4853   -0.0317    0.0730 C   0  0  1  0  0  0  0  0  0  0  0  0
    1.5535   -0.1066    1.2083 N   0  0  0  0  0  0  0  0  0  0  0  0
    2.9366   -1.4174   -0.3509 C   0  0  0  0  0  0  0  0  0  0  0  0
    2.7372   -2.5584    0.3311 C   0  0  0  0  0  0  0  0  0  0  0  0
    3.1770   -3.9114   -0.0493 C   0  0  0  0  0  0  0  0  0  0  0  0
    3.8907   -4.1909   -1.2327 C   0  0  0  0  0  0  0  0  0  0  0  0
    4.2835   -5.4920   -1.5410 C   0  0  0  0  0  0  0  0  0  0  0  0
    3.9743   -6.5501   -0.6771 C   0  0  0  0  0  0  0  0  0  0  0  0
    3.2676   -6.2918    0.4998 C   0  0  0  0  0  0  0  0  0  0  0  0
    2.8746   -4.9876    0.8074 C   0  0  0  0  0  0  0  0  0  0  0  0
    3.7814    0.6828    0.5865 C   0  0  0  0  0  0  0  0  0  0  0  0
    4.5805    1.1990   -0.1488 O   0  0  0  0  0  0  0  0  0  0  0  0
    3.9229    0.6212    1.9106 O   0  0  0  0  0  0  0  0  0  0  0  0
    1.0649    0.2064   -1.5643 H   0  0  0  0  0  0  0  0  0  0  0  0
    2.7004    0.8534   -1.9066 H   0  0  0  0  0  0  0  0  0  0  0  0
    1.6076    1.7501   -0.8347 H   0  0  0  0  0  0  0  0  0  0  0  0
    0.8507   -0.8304    1.0568 H   0  0  0  0  0  0  0  0  0  0  0  0
    1.0510    0.7763    1.3092 H   0  0  0  0  0  0  0  0  0  0  0  0
    3.5077   -1.4220   -1.2836 H   0  0  0  0  0  0  0  0  0  0  0  0
    2.2000   -2.5098    1.2844 H   0  0  0  0  0  0  0  0  0  0  0  0
    4.1443   -3.3821   -1.9214 H   0  0  0  0  0  0  0  0  0  0  0  0
    4.8372   -5.6844   -2.4636 H   0  0  0  0  0  0  0  0  0  0  0  0
    4.2845   -7.5689   -0.9222 H   0  0  0  0  0  0  0  0  0  0  0  0
    3.0214   -7.1087    1.1830 H   0  0  0  0  0  0  0  0  0  0  0  0
    2.3233   -4.7927    1.7318 H   0  0  0  0  0  0  0  0  0  0  0  0
    3.0996    0.1825    2.2338 H   0  0  0  0  0  0  0  0  0  0  0  0
  1  2  1  0
  1 15  1  0
  1 16  1  0
  1 17  1  0
  2  3  1  0
  2  4  1  6
  2 12  1  0
  3 18  1  0
  3 19  1  0
  4  5  2  0
  4 20  1  0
  5  6  1  0
  5 21  1  0
  6  7  2  0
  6 11  1  0
  7  8  1  0
  7 22  1  0
  8  9  2  0
  8 23  1  0
  9 10  1  0
  9 24  1  0
 10 11  2  0
 10 25  1  0
 11 26  1  0
 12 13  2  0
 12 14  1  0
 14 27  1  0
M  END

