
     RDKit          3D

 43 44  0  0  0  0  0  0  0  0999 V2000
    1.9460   -1.3149   -1.1873 C   0  0  0  0  0  0  0  0  0  0  0  0
    2.2373   -0.3332   -0.0436 C   0  0  1  0  0  0  0  0  0  0  0  0
    2.9455   -1.0539    1.1102 C   0  0  0  0  0  0  0  0  0  0  0  0
    3.0566    0.8981   -0.5569 C   0  0  1  0  0  0  0  0  0  0  0  0
    2.5519    1.4514   -1.7992 N   0  0  0  0  0  0  0  0  0  0  0  0
    1.7176    2.5123   -1.9363 C   0  0  0  0  0  0  0  0  0  0  0  0
    1.1906    2.7919   -2.9996 O   0  0  0  0  0  0  0  0  0  0  0  0
    1.4409    3.3635   -0.6739 C   0  0  2  0  0  0  0  0  0  0  0  0
    0.0166    3.0022   -0.1917 C   0  0  0  0  0  0  0  0  0  0  0  0
    1.4826    4.8335   -1.1277 C   0  0  0  0  0  0  0  0  0  0  0  0
    2.4393    3.1149    0.3981 N   0  0  0  0  0  0  0  0  0  0  0  0
    2.5054    4.0528    1.5384 C   0  0  0  0  0  0  0  0  0  0  0  0
    3.5219    5.1755    1.4263 C   0  0  0  0  0  0  0  0  0  0  0  0
    3.1289    6.5136    1.5515 C   0  0  0  0  0  0  0  0  0  0  0  0
    4.0577    7.5568    1.4911 C   0  0  0  0  0  0  0  0  0  0  0  0
    5.4153    7.2733    1.2978 C   0  0  0  0  0  0  0  0  0  0  0  0
    6.3667    8.2403    1.2229 O   0  0  0  0  0  0  0  0  0  0  0  0
    5.8269    5.9367    1.1792 C   0  0  0  0  0  0  0  0  0  0  0  0
    4.8923    4.9068    1.2498 C   0  0  0  0  0  0  0  0  0  0  0  0
    3.1953    1.9815    0.5121 C   0  0  0  0  0  0  0  0  0  0  0  0
    3.9667    1.7973    1.4471 O   0  0  0  0  0  0  0  0  0  0  0  0
    1.4017   -2.1922   -0.8047 H   0  0  0  0  0  0  0  0  0  0  0  0
    2.8825   -1.6845   -1.6412 H   0  0  0  0  0  0  0  0  0  0  0  0
    1.3294   -0.8690   -1.9821 H   0  0  0  0  0  0  0  0  0  0  0  0
    1.2685    0.0514    0.3256 H   0  0  0  0  0  0  0  0  0  0  0  0
    3.9027   -1.4846    0.7696 H   0  0  0  0  0  0  0  0  0  0  0  0
    2.3203   -1.8826    1.4790 H   0  0  0  0  0  0  0  0  0  0  0  0
    3.1700   -0.3792    1.9457 H   0  0  0  0  0  0  0  0  0  0  0  0
    4.0881    0.5508   -0.7348 H   0  0  0  0  0  0  0  0  0  0  0  0
    2.6748    0.9128   -2.6518 H   0  0  0  0  0  0  0  0  0  0  0  0
   -0.7028    3.1718   -1.0054 H   0  0  0  0  0  0  0  0  0  0  0  0
   -0.2780    3.6265    0.6656 H   0  0  0  0  0  0  0  0  0  0  0  0
   -0.0473    1.9469    0.1145 H   0  0  0  0  0  0  0  0  0  0  0  0
    0.8404    4.9385   -2.0110 H   0  0  0  0  0  0  0  0  0  0  0  0
    2.5043    5.1337   -1.4003 H   0  0  0  0  0  0  0  0  0  0  0  0
    1.1194    5.5097   -0.3426 H   0  0  0  0  0  0  0  0  0  0  0  0
    2.7437    3.4402    2.4195 H   0  0  0  0  0  0  0  0  0  0  0  0
    1.5047    4.4795    1.6920 H   0  0  0  0  0  0  0  0  0  0  0  0
    2.0730    6.7584    1.7022 H   0  0  0  0  0  0  0  0  0  0  0  0
    3.7244    8.5950    1.5905 H   0  0  0  0  0  0  0  0  0  0  0  0
    5.9532    9.1076    1.3241 H   0  0  0  0  0  0  0  0  0  0  0  0
    6.8897    5.7266    1.0425 H   0  0  0  0  0  0  0  0  0  0  0  0
    5.2269    3.8696    1.1870 H   0  0  0  0  0  0  0  0  0  0  0  0
  1  2  1  0
  1 22  1  0
  1 23  1  0
  1 24  1  0
  2  3  1  0
  2  4  1  0
  2 25  1  1
  3 26  1  0
  3 27  1  0
  3 28  1  0
  4  5  1  0
  4 20  1  0
  4 29  1  6
  5  6  1  0
  5 30  1  0
  6  7  2  0
  6  8  1  0
  8  9  1  1
  8 10  1  0
  8 11  1  0
  9 31  1  0
  9 32  1  0
  9 33  1  0
 10 34  1  0
 10 35  1  0
 10 36  1  0
 11 12  1  0
 11 20  1  0
 12 13  1  0
 12 37  1  0
 12 38  1  0
 13 14  2  0
 13 19  1  0
 14 15  1  0
 14 39  1  0
 15 16  2  0
 15 40  1  0
 16 17  1  0
 16 18  1  0
 17 41  1  0
 18 19  2  0
 18 42  1  0
 19 43  1  0
 20 21  2  0
M  END

