
     RDKit          3D

 35 36  0  0  0  0  0  0  0  0999 V2000
    1.5089    2.1973   -0.6873 C   0  0  0  0  0  0  0  0  0  0  0  0
    3.0124    2.0326   -0.4893 C   0  0  0  0  0  0  0  0  0  0  0  0
    3.4023    0.6303   -0.4407 N   0  0  0  0  0  0  0  0  0  0  0  0
    4.5164    0.1416   -1.0374 C   0  0  0  0  0  0  0  0  0  0  0  0
    5.3169    0.8474   -1.7922 N   0  0  0  0  0  0  0  0  0  0  0  0
    6.3445    0.0838   -2.2805 C   0  0  0  0  0  0  0  0  0  0  0  0
    7.2661    0.6479   -3.0871 N   0  0  0  0  0  0  0  0  0  0  0  0
    6.3555   -1.2642   -1.8960 C   0  0  0  0  0  0  0  0  0  0  0  0
    7.3636   -2.2227   -2.2984 C   0  0  0  0  0  0  0  0  0  0  0  0
    8.3280   -1.8854   -3.0070 O   0  0  0  0  0  0  0  0  0  0  0  0
    7.2311   -3.5221   -1.8616 N   0  0  0  0  0  0  0  0  0  0  0  0
    8.1624   -4.5643   -2.2605 C   0  0  0  0  0  0  0  0  0  0  0  0
    7.7229   -5.3672   -3.4729 C   0  0  0  0  0  0  0  0  0  0  0  0
    7.6610   -4.7603   -4.7397 C   0  0  0  0  0  0  0  0  0  0  0  0
    7.2467   -5.4797   -5.8604 C   0  0  0  0  0  0  0  0  0  0  0  0
    6.8901   -6.8258   -5.7204 C   0  0  0  0  0  0  0  0  0  0  0  0
    6.3707   -7.7342   -7.1249 Cl  0  0  0  0  0  0  0  0  0  0  0  0
    6.9465   -7.4525   -4.4746 C   0  0  0  0  0  0  0  0  0  0  0  0
    7.3620   -6.7160   -3.3605 C   0  0  0  0  0  0  0  0  0  0  0  0
    4.9620   -1.5552   -0.8328 S   0  0  0  0  0  0  0  0  0  0  0  0
    1.2404    3.2651   -0.7058 H   0  0  0  0  0  0  0  0  0  0  0  0
    0.9384    1.7296    0.1333 H   0  0  0  0  0  0  0  0  0  0  0  0
    1.1807    1.7408   -1.6340 H   0  0  0  0  0  0  0  0  0  0  0  0
    3.3341    2.5520    0.4341 H   0  0  0  0  0  0  0  0  0  0  0  0
    3.5731    2.4860   -1.3178 H   0  0  0  0  0  0  0  0  0  0  0  0
    2.8977    0.0177    0.1884 H   0  0  0  0  0  0  0  0  0  0  0  0
    7.2243    1.6403   -3.2673 H   0  0  0  0  0  0  0  0  0  0  0  0
    8.0429    0.0559   -3.3750 H   0  0  0  0  0  0  0  0  0  0  0  0
    6.3478   -3.8106   -1.4578 H   0  0  0  0  0  0  0  0  0  0  0  0
    8.3270   -5.2423   -1.4072 H   0  0  0  0  0  0  0  0  0  0  0  0
    9.1133   -4.0569   -2.4767 H   0  0  0  0  0  0  0  0  0  0  0  0
    7.9474   -3.7100   -4.8380 H   0  0  0  0  0  0  0  0  0  0  0  0
    7.2024   -5.0074   -6.8434 H   0  0  0  0  0  0  0  0  0  0  0  0
    6.6678   -8.5035   -4.3808 H   0  0  0  0  0  0  0  0  0  0  0  0
    7.4079   -7.2097   -2.3849 H   0  0  0  0  0  0  0  0  0  0  0  0
  1  2  1  0
  1 21  1  0
  1 22  1  0
  1 23  1  0
  2  3  1  0
  2 24  1  0
  2 25  1  0
  3  4  1  0
  3 26  1  0
  4  5  2  0
  4 20  1  0
  5  6  1  0
  6  7  1  0
  6  8  2  0
  7 27  1  0
  7 28  1  0
  8  9  1  0
  8 20  1  0
  9 10  2  0
  9 11  1  0
 11 12  1  0
 11 29  1  0
 12 13  1  0
 12 30  1  0
 12 31  1  0
 13 14  2  0
 13 19  1  0
 14 15  1  0
 14 32  1  0
 15 16  2  0
 15 33  1  0
 16 17  1  0
 16 18  1  0
 18 19  2  0
 18 34  1  0
 19 35  1  0
M  END

