
     RDKit          3D

 32 31  0  0  0  0  0  0  0  0999 V2000
    6.8709    1.8704    1.4799 C   0  0  0  0  0  0  0  0  0  0  0  0
    6.3187    0.5933    1.2900 O   0  0  0  0  0  0  0  0  0  0  0  0
    4.9163    0.5244    1.4529 C   0  0  0  0  0  0  0  0  0  0  0  0
    4.4572   -0.9132    1.2423 C   0  0  0  0  0  0  0  0  0  0  0  0
    4.8115   -1.9625    2.3269 C   0  0  1  0  0  0  0  0  0  0  0  0
    4.1208   -1.6357    3.6663 C   0  0  0  0  0  0  0  0  0  0  0  0
    4.3330   -3.3378    1.8204 C   0  0  0  0  0  0  0  0  0  0  0  0
    6.2799   -1.9668    2.5009 N   0  0  0  0  0  0  0  0  0  0  0  0
    6.9646   -2.8274    3.2942 C   0  0  0  0  0  0  0  0  0  0  0  0
    6.4642   -3.7321    3.9498 O   0  0  0  0  0  0  0  0  0  0  0  0
    8.4956   -2.6648    3.2997 C   0  0  0  0  0  0  0  0  0  0  0  0
    9.1839   -0.9753    3.2310 S   0  0  0  0  0  0  0  0  0  0  0  0
    8.5886   -0.3278    4.8269 C   0  0  0  0  0  0  0  0  0  0  0  0
    7.9598    1.7821    1.3617 H   0  0  0  0  0  0  0  0  0  0  0  0
    6.6552    2.2681    2.4920 H   0  0  0  0  0  0  0  0  0  0  0  0
    6.4839    2.5966    0.7376 H   0  0  0  0  0  0  0  0  0  0  0  0
    4.4179    1.1811    0.7101 H   0  0  0  0  0  0  0  0  0  0  0  0
    4.6254    0.9019    2.4545 H   0  0  0  0  0  0  0  0  0  0  0  0
    4.8628   -1.2512    0.2734 H   0  0  0  0  0  0  0  0  0  0  0  0
    3.3601   -0.9078    1.1381 H   0  0  0  0  0  0  0  0  0  0  0  0
    3.0253   -1.6261    3.5476 H   0  0  0  0  0  0  0  0  0  0  0  0
    4.4337   -0.6530    4.0527 H   0  0  0  0  0  0  0  0  0  0  0  0
    4.3845   -2.3961    4.4140 H   0  0  0  0  0  0  0  0  0  0  0  0
    3.2430   -3.3270    1.6617 H   0  0  0  0  0  0  0  0  0  0  0  0
    4.5794   -4.1216    2.5475 H   0  0  0  0  0  0  0  0  0  0  0  0
    4.8175   -3.5845    0.8623 H   0  0  0  0  0  0  0  0  0  0  0  0
    6.7914   -1.1808    2.0964 H   0  0  0  0  0  0  0  0  0  0  0  0
    8.9032   -3.1771    2.4124 H   0  0  0  0  0  0  0  0  0  0  0  0
    8.8651   -3.1981    4.1877 H   0  0  0  0  0  0  0  0  0  0  0  0
    8.9722    0.6986    4.9177 H   0  0  0  0  0  0  0  0  0  0  0  0
    8.9740   -0.9273    5.6657 H   0  0  0  0  0  0  0  0  0  0  0  0
    7.4892   -0.3028    4.8636 H   0  0  0  0  0  0  0  0  0  0  0  0
  1  2  1  0
  1 14  1  0
  1 15  1  0
  1 16  1  0
  2  3  1  0
  3  4  1  0
  3 17  1  0
  3 18  1  0
  4  5  1  0
  4 19  1  0
  4 20  1  0
  5  6  1  0
  5  7  1  0
  5  8  1  1
  6 21  1  0
  6 22  1  0
  6 23  1  0
  7 24  1  0
  7 25  1  0
  7 26  1  0
  8  9  1  0
  8 27  1  0
  9 10  2  0
  9 11  1  0
 11 12  1  0
 11 28  1  0
 11 29  1  0
 12 13  1  0
 13 30  1  0
 13 31  1  0
 13 32  1  0
M  END

