
     RDKit          3D

 45 44  0  0  0  0  0  0  0  0999 V2000
    0.9367    0.3860    0.0600 C   0  0  0  0  0  0  0  0  0  0  0  0
    2.4585    0.2445    0.1149 C   0  0  0  0  0  0  0  0  0  0  0  0
    2.9721   -1.0851   -0.4466 C   0  0  0  0  0  0  0  0  0  0  0  0
    4.4953   -1.2350   -0.3956 C   0  0  0  0  0  0  0  0  0  0  0  0
    5.0082   -2.5643   -0.9575 C   0  0  0  0  0  0  0  0  0  0  0  0
    6.5316   -2.7138   -0.9063 C   0  0  0  0  0  0  0  0  0  0  0  0
    7.0440   -4.0429   -1.4687 C   0  0  0  0  0  0  0  0  0  0  0  0
    8.5673   -4.1925   -1.4177 C   0  0  0  0  0  0  0  0  0  0  0  0
    9.0758   -5.5242   -1.9774 C   0  0  0  0  0  0  0  0  0  0  0  0
   10.5987   -5.6695   -1.9200 C   0  0  0  0  0  0  0  0  0  0  0  0
   11.1301   -6.9873   -2.4751 C   0  0  1  0  0  0  0  0  0  0  0  0
   12.6508   -7.0788   -2.4873 C   0  0  0  0  0  0  0  0  0  0  0  0
   10.5931   -8.0453   -1.6305 O   0  0  0  0  0  0  0  0  0  0  0  0
   10.4011   -9.2565   -2.1719 C   0  0  0  0  0  0  0  0  0  0  0  0
   10.6553   -9.5436   -3.3163 O   0  0  0  0  0  0  0  0  0  0  0  0
    9.7664  -10.2048   -1.1674 C   0  0  0  0  0  0  0  0  0  0  0  0
   10.3590  -11.9269   -1.3258 S   0  0  0  0  0  0  0  0  0  0  0  0
    0.6038    1.3524    0.4714 H   0  0  0  0  0  0  0  0  0  0  0  0
    0.4387   -0.4106    0.6381 H   0  0  0  0  0  0  0  0  0  0  0  0
    0.5649    0.3202   -0.9764 H   0  0  0  0  0  0  0  0  0  0  0  0
    2.8017    0.3532    1.1601 H   0  0  0  0  0  0  0  0  0  0  0  0
    2.9268    1.0775   -0.4407 H   0  0  0  0  0  0  0  0  0  0  0  0
    2.6293   -1.1949   -1.4927 H   0  0  0  0  0  0  0  0  0  0  0  0
    2.5043   -1.9196    0.1089 H   0  0  0  0  0  0  0  0  0  0  0  0
    4.8376   -1.1252    0.6505 H   0  0  0  0  0  0  0  0  0  0  0  0
    4.9625   -0.4002   -0.9508 H   0  0  0  0  0  0  0  0  0  0  0  0
    4.6661   -2.6743   -2.0035 H   0  0  0  0  0  0  0  0  0  0  0  0
    4.5413   -3.3993   -0.4023 H   0  0  0  0  0  0  0  0  0  0  0  0
    6.8739   -2.6043    0.1397 H   0  0  0  0  0  0  0  0  0  0  0  0
    6.9987   -1.8788   -1.4613 H   0  0  0  0  0  0  0  0  0  0  0  0
    6.7018   -4.1526   -2.5147 H   0  0  0  0  0  0  0  0  0  0  0  0
    6.5779   -4.8783   -0.9138 H   0  0  0  0  0  0  0  0  0  0  0  0
    8.9098   -4.0825   -0.3719 H   0  0  0  0  0  0  0  0  0  0  0  0
    9.0347   -3.3582   -1.9737 H   0  0  0  0  0  0  0  0  0  0  0  0
    8.7386   -5.6344   -3.0248 H   0  0  0  0  0  0  0  0  0  0  0  0
    8.6141   -6.3570   -1.4196 H   0  0  0  0  0  0  0  0  0  0  0  0
   10.9493   -5.5590   -0.8781 H   0  0  0  0  0  0  0  0  0  0  0  0
   11.0719   -4.8530   -2.4934 H   0  0  0  0  0  0  0  0  0  0  0  0
   10.7447   -7.1580   -3.4929 H   0  0  0  0  0  0  0  0  0  0  0  0
   13.0568   -6.9656   -1.4696 H   0  0  0  0  0  0  0  0  0  0  0  0
   13.0730   -6.2816   -3.1189 H   0  0  0  0  0  0  0  0  0  0  0  0
   12.9781   -8.0455   -2.8958 H   0  0  0  0  0  0  0  0  0  0  0  0
    8.6730  -10.1555   -1.3063 H   0  0  0  0  0  0  0  0  0  0  0  0
    9.9847   -9.8715   -0.1445 H   0  0  0  0  0  0  0  0  0  0  0  0
   10.2624  -11.9554   -2.6753 H   0  0  0  0  0  0  0  0  0  0  0  0
  1  2  1  0
  1 18  1  0
  1 19  1  0
  1 20  1  0
  2  3  1  0
  2 21  1  0
  2 22  1  0
  3  4  1  0
  3 23  1  0
  3 24  1  0
  4  5  1  0
  4 25  1  0
  4 26  1  0
  5  6  1  0
  5 27  1  0
  5 28  1  0
  6  7  1  0
  6 29  1  0
  6 30  1  0
  7  8  1  0
  7 31  1  0
  7 32  1  0
  8  9  1  0
  8 33  1  0
  8 34  1  0
  9 10  1  0
  9 35  1  0
  9 36  1  0
 10 11  1  0
 10 37  1  0
 10 38  1  0
 11 12  1  0
 11 13  1  0
 11 39  1  6
 12 40  1  0
 12 41  1  0
 12 42  1  0
 13 14  1  0
 14 15  2  0
 14 16  1  0
 16 17  1  0
 16 43  1  0
 16 44  1  0
 17 45  1  0
M  END

