
     RDKit          3D

 18 18  0  0  0  0  0  0  0  0999 V2000
    1.1727   -0.0168    0.2681 C   0  0  0  0  0  0  0  0  0  0  0  0
    2.3815   -0.0270    0.1555 C   0  0  0  0  0  0  0  0  0  0  0  0
    3.8035   -0.0182    0.0221 C   0  0  0  0  0  0  0  0  0  0  0  0
    4.5436    1.1846   -0.0613 C   0  0  0  0  0  0  0  0  0  0  0  0
    5.9242    1.1836   -0.1905 C   0  0  0  0  0  0  0  0  0  0  0  0
    6.6298   -0.0348   -0.2425 C   0  0  0  0  0  0  0  0  0  0  0  0
    7.9721    0.0530   -0.3685 O   0  0  0  0  0  0  0  0  0  0  0  0
    8.7436   -1.1276   -0.4301 C   0  0  0  0  0  0  0  0  0  0  0  0
    5.9252   -1.2454   -0.1626 C   0  0  0  0  0  0  0  0  0  0  0  0
    4.5388   -1.2130   -0.0330 C   0  0  0  0  0  0  0  0  0  0  0  0
    3.8895   -2.3794    0.0413 F   0  0  0  0  0  0  0  0  0  0  0  0
    0.1041   -0.0136    0.3681 H   0  0  0  0  0  0  0  0  0  0  0  0
    4.0008    2.1308   -0.0213 H   0  0  0  0  0  0  0  0  0  0  0  0
    6.4898    2.1145   -0.2543 H   0  0  0  0  0  0  0  0  0  0  0  0
    9.7899   -0.8112   -0.5332 H   0  0  0  0  0  0  0  0  0  0  0  0
    8.4698   -1.7505   -1.3003 H   0  0  0  0  0  0  0  0  0  0  0  0
    8.6410   -1.7323    0.4887 H   0  0  0  0  0  0  0  0  0  0  0  0
    6.4134   -2.2183   -0.1974 H   0  0  0  0  0  0  0  0  0  0  0  0
  1  2  3  0
  1 12  1  0
  2  3  1  0
  3  4  2  0
  3 10  1  0
  4  5  1  0
  4 13  1  0
  5  6  2  0
  5 14  1  0
  6  7  1  0
  6  9  1  0
  7  8  1  0
  8 15  1  0
  8 16  1  0
  8 17  1  0
  9 10  2  0
  9 18  1  0
 10 11  1  0
M  END

