
     RDKit          3D

 39 40  0  0  0  0  0  0  0  0999 V2000
    4.8435   -1.2051   -1.5779 N   0  0  0  0  0  0  0  0  0  0  0  0
    5.3918   -1.3245   -2.9320 C   0  0  0  0  0  0  0  0  0  0  0  0
    6.6494   -0.4668   -3.1119 C   0  0  0  0  0  0  0  0  0  0  0  0
    7.7007   -0.6075   -1.9938 C   0  0  0  0  0  0  0  0  0  0  0  0
    8.2182   -2.0332   -1.8082 C   0  0  0  0  0  0  0  0  0  0  0  0
    9.2349   -2.4228   -2.3595 O   0  0  0  0  0  0  0  0  0  0  0  0
    7.4295   -2.8075   -0.9883 N   0  0  0  0  0  0  0  0  0  0  0  0
    7.6187   -4.1458   -0.6112 C   0  0  0  0  0  0  0  0  0  0  0  0
    8.6885   -4.9469   -1.0371 C   0  0  0  0  0  0  0  0  0  0  0  0
    8.8000   -6.2710   -0.5972 C   0  0  0  0  0  0  0  0  0  0  0  0
    7.8497   -6.8138    0.2645 C   0  0  0  0  0  0  0  0  0  0  0  0
    6.7725   -6.0290    0.6975 C   0  0  0  0  0  0  0  0  0  0  0  0
    6.6562   -4.7052    0.2714 C   0  0  0  0  0  0  0  0  0  0  0  0
    5.6474   -3.8542    0.6383 O   0  0  0  0  0  0  0  0  0  0  0  0
    4.7703   -4.1705    1.7010 C   0  0  1  0  0  0  0  0  0  0  0  0
    4.1230   -2.8931    2.2397 C   0  0  0  0  0  0  0  0  0  0  0  0
    2.8451   -3.4280    2.8837 C   0  0  0  0  0  0  0  0  0  0  0  0
    2.4811   -4.5909    2.1403 O   0  0  0  0  0  0  0  0  0  0  0  0
    3.5320   -4.9866    1.2778 C   0  0  0  0  0  0  0  0  0  0  0  0
    4.0285   -1.8084   -1.4683 H   0  0  0  0  0  0  0  0  0  0  0  0
    4.5203   -0.2516   -1.4037 H   0  0  0  0  0  0  0  0  0  0  0  0
    4.6685   -1.0566   -3.7297 H   0  0  0  0  0  0  0  0  0  0  0  0
    5.6453   -2.3856   -3.0926 H   0  0  0  0  0  0  0  0  0  0  0  0
    6.3612    0.5982   -3.1763 H   0  0  0  0  0  0  0  0  0  0  0  0
    7.1074   -0.7187   -4.0830 H   0  0  0  0  0  0  0  0  0  0  0  0
    7.2819   -0.2353   -1.0463 H   0  0  0  0  0  0  0  0  0  0  0  0
    8.5777    0.0057   -2.2446 H   0  0  0  0  0  0  0  0  0  0  0  0
    6.5607   -2.3752   -0.6652 H   0  0  0  0  0  0  0  0  0  0  0  0
    9.4226   -4.5098   -1.7097 H   0  0  0  0  0  0  0  0  0  0  0  0
    9.6417   -6.8773   -0.9404 H   0  0  0  0  0  0  0  0  0  0  0  0
    7.9317   -7.8490    0.6040 H   0  0  0  0  0  0  0  0  0  0  0  0
    6.0227   -6.4606    1.3614 H   0  0  0  0  0  0  0  0  0  0  0  0
    5.3259   -4.6883    2.5027 H   0  0  0  0  0  0  0  0  0  0  0  0
    3.9036   -2.2356    1.3830 H   0  0  0  0  0  0  0  0  0  0  0  0
    4.7708   -2.3420    2.9366 H   0  0  0  0  0  0  0  0  0  0  0  0
    2.0141   -2.7037    2.8560 H   0  0  0  0  0  0  0  0  0  0  0  0
    3.0125   -3.7020    3.9435 H   0  0  0  0  0  0  0  0  0  0  0  0
    3.2968   -4.7488    0.2211 H   0  0  0  0  0  0  0  0  0  0  0  0
    3.6736   -6.0773    1.3554 H   0  0  0  0  0  0  0  0  0  0  0  0
  1  2  1  0
  1 20  1  0
  1 21  1  0
  2  3  1  0
  2 22  1  0
  2 23  1  0
  3  4  1  0
  3 24  1  0
  3 25  1  0
  4  5  1  0
  4 26  1  0
  4 27  1  0
  5  6  2  0
  5  7  1  0
  7  8  1  0
  7 28  1  0
  8  9  2  0
  8 13  1  0
  9 10  1  0
  9 29  1  0
 10 11  2  0
 10 30  1  0
 11 12  1  0
 11 31  1  0
 12 13  2  0
 12 32  1  0
 13 14  1  0
 14 15  1  0
 15 16  1  0
 15 19  1  0
 15 33  1  1
 16 17  1  0
 16 34  1  0
 16 35  1  0
 17 18  1  0
 17 36  1  0
 17 37  1  0
 18 19  1  0
 19 38  1  0
 19 39  1  0
M  END

