
     RDKit          3D

 52 54  0  0  0  0  0  0  0  0999 V2000
    4.3935    1.2089    1.2176 C   0  0  0  0  0  0  0  0  0  0  0  0
    4.9176   -0.1317    0.6797 C   0  0  1  0  0  0  0  0  0  0  0  0
    4.7998   -0.1730   -0.8596 C   0  0  0  0  0  0  0  0  0  0  0  0
    6.3931   -0.3321    1.0906 C   0  0  0  0  0  0  0  0  0  0  0  0
    4.1130   -1.2807    1.2447 C   0  0  0  0  0  0  0  0  0  0  0  0
    3.1260   -1.1292    2.0916 N   0  0  0  0  0  0  0  0  0  0  0  0
    2.6985   -2.4326    2.3369 O   0  0  0  0  0  0  0  0  0  0  0  0
    3.4781   -3.2458    1.6090 C   0  0  0  0  0  0  0  0  0  0  0  0
    3.2122   -4.7123    1.6508 C   0  0  0  0  0  0  0  0  0  0  0  0
    2.3351   -5.1670    0.4749 C   0  0  0  0  0  0  0  0  0  0  0  0
    2.1039   -6.6818    0.5143 C   0  0  0  0  0  0  0  0  0  0  0  0
    2.5996   -7.3569    1.4047 O   0  0  0  0  0  0  0  0  0  0  0  0
    1.3311   -7.2317   -0.4785 N   0  0  0  0  0  0  0  0  0  0  0  0
    0.6987   -6.5058   -1.5720 C   0  0  0  0  0  0  0  0  0  0  0  0
    1.0953   -7.0977   -2.9339 C   0  0  0  0  0  0  0  0  0  0  0  0
    0.8476   -8.6173   -3.0221 C   0  0  2  0  0  0  0  0  0  0  0  0
   -0.6563   -8.9174   -3.2022 C   0  0  0  0  0  0  0  0  0  0  0  0
   -0.9704  -10.3283   -3.3489 N   0  0  0  0  0  0  0  0  0  0  0  0
   -0.9465  -11.0739   -4.4885 C   0  0  0  0  0  0  0  0  0  0  0  0
   -1.2628  -12.3722   -4.1248 C   0  0  0  0  0  0  0  0  0  0  0  0
   -1.4603  -12.3014   -2.7252 C   0  0  0  0  0  0  0  0  0  0  0  0
   -1.2797  -11.0647   -2.2675 N   0  0  0  0  0  0  0  0  0  0  0  0
    1.4814   -9.3147   -1.8019 C   0  0  0  0  0  0  0  0  0  0  0  0
    1.0704   -8.6731   -0.4736 C   0  0  0  0  0  0  0  0  0  0  0  0
    4.3641   -2.5961    0.9145 N   0  0  0  0  0  0  0  0  0  0  0  0
    4.9865    2.0370    0.7984 H   0  0  0  0  0  0  0  0  0  0  0  0
    4.4608    1.2550    2.3146 H   0  0  0  0  0  0  0  0  0  0  0  0
    3.3389    1.3657    0.9460 H   0  0  0  0  0  0  0  0  0  0  0  0
    5.4172    0.6214   -1.3085 H   0  0  0  0  0  0  0  0  0  0  0  0
    3.7577   -0.0167   -1.1819 H   0  0  0  0  0  0  0  0  0  0  0  0
    5.1397   -1.1425   -1.2534 H   0  0  0  0  0  0  0  0  0  0  0  0
    7.0191    0.4631    0.6547 H   0  0  0  0  0  0  0  0  0  0  0  0
    6.7704   -1.3043    0.7399 H   0  0  0  0  0  0  0  0  0  0  0  0
    6.5079   -0.2943    2.1856 H   0  0  0  0  0  0  0  0  0  0  0  0
    2.7277   -4.9714    2.6018 H   0  0  0  0  0  0  0  0  0  0  0  0
    4.1717   -5.2459    1.6191 H   0  0  0  0  0  0  0  0  0  0  0  0
    2.8171   -4.8811   -0.4748 H   0  0  0  0  0  0  0  0  0  0  0  0
    1.3663   -4.6399    0.5024 H   0  0  0  0  0  0  0  0  0  0  0  0
    0.9761   -5.4463   -1.5376 H   0  0  0  0  0  0  0  0  0  0  0  0
   -0.4010   -6.5434   -1.4455 H   0  0  0  0  0  0  0  0  0  0  0  0
    2.1694   -6.9056   -3.0954 H   0  0  0  0  0  0  0  0  0  0  0  0
    0.5525   -6.5645   -3.7336 H   0  0  0  0  0  0  0  0  0  0  0  0
    1.3507   -8.9922   -3.9305 H   0  0  0  0  0  0  0  0  0  0  0  0
   -1.0251   -8.3936   -4.0985 H   0  0  0  0  0  0  0  0  0  0  0  0
   -1.2483   -8.5613   -2.3479 H   0  0  0  0  0  0  0  0  0  0  0  0
   -0.7196  -10.6302   -5.4562 H   0  0  0  0  0  0  0  0  0  0  0  0
   -1.3512  -13.2385   -4.7760 H   0  0  0  0  0  0  0  0  0  0  0  0
   -1.7322  -13.1010   -2.0362 H   0  0  0  0  0  0  0  0  0  0  0  0
    2.5790   -9.2563   -1.8980 H   0  0  0  0  0  0  0  0  0  0  0  0
    1.2127  -10.3814   -1.7844 H   0  0  0  0  0  0  0  0  0  0  0  0
    1.6308   -9.1036    0.3644 H   0  0  0  0  0  0  0  0  0  0  0  0
   -0.0036   -8.8510   -0.2798 H   0  0  0  0  0  0  0  0  0  0  0  0
  2  1  1  1
  1 26  1  0
  1 27  1  0
  1 28  1  0
  2  3  1  0
  2  4  1  0
  2  5  1  0
  3 29  1  0
  3 30  1  0
  3 31  1  0
  4 32  1  0
  4 33  1  0
  4 34  1  0
  5  6  2  0
  5 25  1  0
  6  7  1  0
  7  8  1  0
  8  9  1  0
  8 25  2  0
  9 10  1  0
  9 35  1  0
  9 36  1  0
 10 11  1  0
 10 37  1  0
 10 38  1  0
 11 12  2  0
 11 13  1  0
 13 14  1  0
 13 24  1  0
 14 15  1  0
 14 39  1  0
 14 40  1  0
 15 16  1  0
 15 41  1  0
 15 42  1  0
 16 17  1  0
 16 23  1  0
 16 43  1  6
 17 18  1  0
 17 44  1  0
 17 45  1  0
 18 19  1  0
 18 22  1  0
 19 20  2  0
 19 46  1  0
 20 21  1  0
 20 47  1  0
 21 22  2  0
 21 48  1  0
 23 24  1  0
 23 49  1  0
 23 50  1  0
 24 51  1  0
 24 52  1  0
M  END

