
     RDKit          3D

 57 58  0  0  0  0  0  0  0  0999 V2000
    1.3366   -1.2264   -2.7352 C   0  0  0  0  0  0  0  0  0  0  0  0
    2.7377   -0.9865   -2.5686 O   0  0  0  0  0  0  0  0  0  0  0  0
    3.1578   -0.7284   -1.3086 C   0  0  0  0  0  0  0  0  0  0  0  0
    2.3968   -0.7007   -0.3738 O   0  0  0  0  0  0  0  0  0  0  0  0
    4.6625   -0.4357   -1.2193 C   0  0  1  0  0  0  0  0  0  0  0  0
    5.2913   -0.8658   -2.4769 N   0  0  0  0  0  0  0  0  0  0  0  0
    6.6079   -0.7219   -2.8031 C   0  0  0  0  0  0  0  0  0  0  0  0
    7.4526   -0.2430   -2.0601 O   0  0  0  0  0  0  0  0  0  0  0  0
    6.9790   -1.2013   -4.2153 C   0  0  0  0  0  0  0  0  0  0  0  0
    7.3710   -0.0476   -5.1192 C   0  0  0  0  0  0  0  0  0  0  0  0
    8.6782    0.4646   -5.0454 C   0  0  0  0  0  0  0  0  0  0  0  0
    9.0908    1.5363   -5.8271 C   0  0  0  0  0  0  0  0  0  0  0  0
    8.1865    2.1345   -6.7182 C   0  0  0  0  0  0  0  0  0  0  0  0
    8.6632    3.1728   -7.4545 O   0  0  0  0  0  0  0  0  0  0  0  0
    7.8101    3.8230   -8.3663 C   0  0  0  0  0  0  0  0  0  0  0  0
    6.8771    1.6420   -6.7972 C   0  0  0  0  0  0  0  0  0  0  0  0
    6.4563    0.5607   -6.0023 C   0  0  0  0  0  0  0  0  0  0  0  0
    5.0270    0.0793   -6.1186 C   0  0  0  0  0  0  0  0  0  0  0  0
    4.8239    1.1078   -1.0371 C   0  0  0  0  0  0  0  0  0  0  0  0
    4.4868    1.6078    0.3722 C   0  0  0  0  0  0  0  0  0  0  0  0
    5.2960    0.8801    1.4671 C   0  0  2  0  0  0  0  0  0  0  0  0
    6.8206    1.1923    1.4440 C   0  0  1  0  0  0  0  0  0  0  0  0
    7.1007    2.7009    1.5289 C   0  0  0  0  0  0  0  0  0  0  0  0
    7.5685    0.4696    2.5756 C   0  0  0  0  0  0  0  0  0  0  0  0
    4.9575   -0.6222    1.3631 C   0  0  0  0  0  0  0  0  0  0  0  0
    5.2775   -1.2114   -0.0180 C   0  0  0  0  0  0  0  0  0  0  0  0
    1.1853   -1.4210   -3.8038 H   0  0  0  0  0  0  0  0  0  0  0  0
    0.7547   -0.3486   -2.4183 H   0  0  0  0  0  0  0  0  0  0  0  0
    1.0176   -2.0922   -2.1366 H   0  0  0  0  0  0  0  0  0  0  0  0
    4.6681   -1.2569   -3.1710 H   0  0  0  0  0  0  0  0  0  0  0  0
    6.1685   -1.7997   -4.6556 H   0  0  0  0  0  0  0  0  0  0  0  0
    7.8424   -1.8715   -4.0837 H   0  0  0  0  0  0  0  0  0  0  0  0
    9.3825    0.0111   -4.3441 H   0  0  0  0  0  0  0  0  0  0  0  0
   10.1075    1.9294   -5.7676 H   0  0  0  0  0  0  0  0  0  0  0  0
    8.4030    4.6179   -8.8393 H   0  0  0  0  0  0  0  0  0  0  0  0
    6.9385    4.2808   -7.8635 H   0  0  0  0  0  0  0  0  0  0  0  0
    7.4436    3.1371   -9.1520 H   0  0  0  0  0  0  0  0  0  0  0  0
    6.1569    2.0952   -7.4793 H   0  0  0  0  0  0  0  0  0  0  0  0
    4.4593    0.6890   -6.8364 H   0  0  0  0  0  0  0  0  0  0  0  0
    4.5000    0.1291   -5.1517 H   0  0  0  0  0  0  0  0  0  0  0  0
    4.9740   -0.9685   -6.4618 H   0  0  0  0  0  0  0  0  0  0  0  0
    4.2047    1.6190   -1.7939 H   0  0  0  0  0  0  0  0  0  0  0  0
    5.8707    1.3385   -1.2775 H   0  0  0  0  0  0  0  0  0  0  0  0
    3.4145    1.4552    0.5745 H   0  0  0  0  0  0  0  0  0  0  0  0
    4.6530    2.6954    0.4102 H   0  0  0  0  0  0  0  0  0  0  0  0
    4.9194    1.2356    2.4449 H   0  0  0  0  0  0  0  0  0  0  0  0
    7.2417    0.8326    0.4889 H   0  0  0  0  0  0  0  0  0  0  0  0
    6.6470    3.1408    2.4348 H   0  0  0  0  0  0  0  0  0  0  0  0
    6.7144    3.2537    0.6595 H   0  0  0  0  0  0  0  0  0  0  0  0
    8.1847    2.8925    1.5758 H   0  0  0  0  0  0  0  0  0  0  0  0
    7.1602    0.7466    3.5637 H   0  0  0  0  0  0  0  0  0  0  0  0
    8.6363    0.7414    2.5711 H   0  0  0  0  0  0  0  0  0  0  0  0
    7.5148   -0.6258    2.4876 H   0  0  0  0  0  0  0  0  0  0  0  0
    3.8866   -0.7526    1.5768 H   0  0  0  0  0  0  0  0  0  0  0  0
    5.4989   -1.2037    2.1252 H   0  0  0  0  0  0  0  0  0  0  0  0
    4.9502   -2.2633   -0.0720 H   0  0  0  0  0  0  0  0  0  0  0  0
    6.3642   -1.2087   -0.1789 H   0  0  0  0  0  0  0  0  0  0  0  0
  1  2  1  0
  1 27  1  0
  1 28  1  0
  1 29  1  0
  2  3  1  0
  3  4  2  0
  5  3  1  6
  5  6  1  0
  5 19  1  0
  5 26  1  0
  6  7  1  0
  6 30  1  0
  7  8  2  0
  7  9  1  0
  9 10  1  0
  9 31  1  0
  9 32  1  0
 10 11  2  0
 10 17  1  0
 11 12  1  0
 11 33  1  0
 12 13  2  0
 12 34  1  0
 13 14  1  0
 13 16  1  0
 14 15  1  0
 15 35  1  0
 15 36  1  0
 15 37  1  0
 16 17  2  0
 16 38  1  0
 17 18  1  0
 18 39  1  0
 18 40  1  0
 18 41  1  0
 19 20  1  0
 19 42  1  0
 19 43  1  0
 20 21  1  0
 20 44  1  0
 20 45  1  0
 21 22  1  0
 21 25  1  0
 21 46  1  1
 22 23  1  0
 22 24  1  0
 22 47  1  6
 23 48  1  0
 23 49  1  0
 23 50  1  0
 24 51  1  0
 24 52  1  0
 24 53  1  0
 25 26  1  0
 25 54  1  0
 25 55  1  0
 26 56  1  0
 26 57  1  0
M  END

