
     RDKit          3D

 40 41  0  0  0  0  0  0  0  0999 V2000
    0.5696   -0.7225   -0.5623 C   0  0  0  0  0  0  0  0  0  0  0  0
    1.9667   -0.4023   -0.3575 N   0  0  0  0  0  0  0  0  0  0  0  0
    2.3377    1.0026   -0.5714 C   0  0  2  0  0  0  0  0  0  0  0  0
    2.3594    1.3776   -2.0738 C   0  0  0  0  0  0  0  0  0  0  0  0
    3.2055    0.4204   -2.9347 C   0  0  0  0  0  0  0  0  0  0  0  0
    2.9862   -1.0548   -2.5489 C   0  0  0  0  0  0  0  0  0  0  0  0
    2.9288   -1.2926   -1.0196 C   0  0  1  0  0  0  0  0  0  0  0  0
    4.2795   -1.1558   -0.2894 C   0  0  0  0  0  0  0  0  0  0  0  0
    4.7913    0.2943   -0.1976 C   0  0  2  0  0  0  0  0  0  0  0  0
    5.9059    0.4020    0.7357 N   0  0  0  0  0  0  0  0  0  0  0  0
    7.1659    0.7751    0.3689 C   0  0  0  0  0  0  0  0  0  0  0  0
    7.4677    1.0678   -0.7800 O   0  0  0  0  0  0  0  0  0  0  0  0
    8.1907    0.7780    1.5061 C   0  0  0  0  0  0  0  0  0  0  0  0
    9.4716    1.5331    1.1540 C   0  0  0  0  0  0  0  0  0  0  0  0
    9.2981    3.0345    0.9763 C   0  0  0  0  0  0  0  0  0  0  0  0
    8.7378    3.8540    2.5014 Cl  0  0  0  0  0  0  0  0  0  0  0  0
    3.6565    1.2637    0.1825 C   0  0  0  0  0  0  0  0  0  0  0  0
   -0.0555   -0.0723    0.0720 H   0  0  0  0  0  0  0  0  0  0  0  0
    0.3799   -1.7642   -0.2547 H   0  0  0  0  0  0  0  0  0  0  0  0
    0.1995   -0.6162   -1.6058 H   0  0  0  0  0  0  0  0  0  0  0  0
    1.5650    1.6229   -0.0861 H   0  0  0  0  0  0  0  0  0  0  0  0
    2.7076    2.4169   -2.1983 H   0  0  0  0  0  0  0  0  0  0  0  0
    1.3175    1.3630   -2.4386 H   0  0  0  0  0  0  0  0  0  0  0  0
    4.2719    0.6790   -2.8521 H   0  0  0  0  0  0  0  0  0  0  0  0
    2.9549    0.5637   -3.9993 H   0  0  0  0  0  0  0  0  0  0  0  0
    3.7658   -1.6910   -3.0009 H   0  0  0  0  0  0  0  0  0  0  0  0
    2.0292   -1.3998   -2.9780 H   0  0  0  0  0  0  0  0  0  0  0  0
    2.5824   -2.3276   -0.8581 H   0  0  0  0  0  0  0  0  0  0  0  0
    5.0457   -1.7886   -0.7672 H   0  0  0  0  0  0  0  0  0  0  0  0
    4.1314   -1.5388    0.7355 H   0  0  0  0  0  0  0  0  0  0  0  0
    5.2240    0.5926   -1.1594 H   0  0  0  0  0  0  0  0  0  0  0  0
    5.7302    0.1875    1.7114 H   0  0  0  0  0  0  0  0  0  0  0  0
    8.4333   -0.2748    1.7353 H   0  0  0  0  0  0  0  0  0  0  0  0
    7.7370    1.2003    2.4181 H   0  0  0  0  0  0  0  0  0  0  0  0
    9.8606    1.1444    0.1982 H   0  0  0  0  0  0  0  0  0  0  0  0
   10.2340    1.3425    1.9263 H   0  0  0  0  0  0  0  0  0  0  0  0
    8.5528    3.2607    0.2034 H   0  0  0  0  0  0  0  0  0  0  0  0
   10.2483    3.5141    0.7065 H   0  0  0  0  0  0  0  0  0  0  0  0
    3.9922    2.3028    0.0317 H   0  0  0  0  0  0  0  0  0  0  0  0
    3.4410    1.1434    1.2587 H   0  0  0  0  0  0  0  0  0  0  0  0
  1  2  1  0
  1 18  1  0
  1 19  1  0
  1 20  1  0
  2  3  1  0
  2  7  1  0
  3  4  1  0
  3 17  1  0
  3 21  1  1
  4  5  1  0
  4 22  1  0
  4 23  1  0
  5  6  1  0
  5 24  1  0
  5 25  1  0
  6  7  1  0
  6 26  1  0
  6 27  1  0
  7  8  1  0
  7 28  1  6
  8  9  1  0
  8 29  1  0
  8 30  1  0
  9 10  1  0
  9 17  1  0
  9 31  1  6
 10 11  1  0
 10 32  1  0
 11 12  2  0
 11 13  1  0
 13 14  1  0
 13 33  1  0
 13 34  1  0
 14 15  1  0
 14 35  1  0
 14 36  1  0
 15 16  1  0
 15 37  1  0
 15 38  1  0
 17 39  1  0
 17 40  1  0
M  END

