
     RDKit          3D

 41 42  0  0  0  0  0  0  0  0999 V2000
    6.3055   -4.4089   -6.1653 C   0  0  0  0  0  0  0  0  0  0  0  0
    5.7378   -4.7976   -4.8282 C   0  0  0  0  0  0  0  0  0  0  0  0
    4.8027   -5.8328   -4.6811 C   0  0  0  0  0  0  0  0  0  0  0  0
    4.3513   -6.1342   -3.3917 C   0  0  0  0  0  0  0  0  0  0  0  0
    3.3900   -7.2543   -3.1200 C   0  0  0  0  0  0  0  0  0  0  0  0
    4.7972   -5.4346   -2.3326 N   0  0  0  0  0  0  0  0  0  0  0  0
    5.6712   -4.4563   -2.5761 C   0  0  0  0  0  0  0  0  0  0  0  0
    6.2966   -3.4490   -1.2548 S   0  0  0  0  0  0  0  0  0  0  0  0
    5.3508   -4.0472    0.1959 C   0  0  0  0  0  0  0  0  0  0  0  0
    6.0023   -5.2422    0.8951 C   0  0  0  0  0  0  0  0  0  0  0  0
    6.8450   -5.0867    1.7639 O   0  0  0  0  0  0  0  0  0  0  0  0
    5.5377   -6.4588    0.4793 N   0  0  0  0  0  0  0  0  0  0  0  0
    6.1679   -7.7113    0.8983 C   0  0  1  0  0  0  0  0  0  0  0  0
    6.1027   -7.9514    2.4137 C   0  0  0  0  0  0  0  0  0  0  0  0
    4.7434   -8.5189    2.7992 C   0  0  0  0  0  0  0  0  0  0  0  0
    4.5574   -9.8749    2.1345 C   0  0  0  0  0  0  0  0  0  0  0  0
    4.8763   -9.8459    0.7056 N   0  0  0  0  0  0  0  0  0  0  0  0
    4.3895  -10.9745   -0.0704 C   0  0  0  0  0  0  0  0  0  0  0  0
    5.5179   -8.8279    0.0587 C   0  0  0  0  0  0  0  0  0  0  0  0
    5.5986   -8.7740   -1.1649 O   0  0  0  0  0  0  0  0  0  0  0  0
    6.1649   -4.1084   -3.7653 N   0  0  0  0  0  0  0  0  0  0  0  0
    5.8764   -5.0004   -6.9859 H   0  0  0  0  0  0  0  0  0  0  0  0
    7.3990   -4.5450   -6.1597 H   0  0  0  0  0  0  0  0  0  0  0  0
    6.1213   -3.3397   -6.3546 H   0  0  0  0  0  0  0  0  0  0  0  0
    4.4449   -6.3961   -5.5443 H   0  0  0  0  0  0  0  0  0  0  0  0
    2.9482   -7.6475   -4.0462 H   0  0  0  0  0  0  0  0  0  0  0  0
    2.5856   -6.9119   -2.4505 H   0  0  0  0  0  0  0  0  0  0  0  0
    3.9299   -8.0653   -2.6029 H   0  0  0  0  0  0  0  0  0  0  0  0
    4.3193   -4.2515   -0.1204 H   0  0  0  0  0  0  0  0  0  0  0  0
    5.3697   -3.2067    0.9023 H   0  0  0  0  0  0  0  0  0  0  0  0
    5.0823   -6.4565   -0.4380 H   0  0  0  0  0  0  0  0  0  0  0  0
    7.2287   -7.7020    0.5849 H   0  0  0  0  0  0  0  0  0  0  0  0
    6.3374   -7.0144    2.9326 H   0  0  0  0  0  0  0  0  0  0  0  0
    6.8940   -8.6721    2.6855 H   0  0  0  0  0  0  0  0  0  0  0  0
    3.9471   -7.8267    2.4756 H   0  0  0  0  0  0  0  0  0  0  0  0
    4.6469   -8.6357    3.8902 H   0  0  0  0  0  0  0  0  0  0  0  0
    3.5139  -10.2215    2.2391 H   0  0  0  0  0  0  0  0  0  0  0  0
    5.1906  -10.6344    2.6344 H   0  0  0  0  0  0  0  0  0  0  0  0
    3.2877  -10.9578   -0.1544 H   0  0  0  0  0  0  0  0  0  0  0  0
    4.6810  -11.9195    0.4182 H   0  0  0  0  0  0  0  0  0  0  0  0
    4.8205  -10.9313   -1.0769 H   0  0  0  0  0  0  0  0  0  0  0  0
  1  2  1  0
  1 22  1  0
  1 23  1  0
  1 24  1  0
  2  3  2  0
  2 21  1  0
  3  4  1  0
  3 25  1  0
  4  5  1  0
  4  6  2  0
  5 26  1  0
  5 27  1  0
  5 28  1  0
  6  7  1  0
  7  8  1  0
  7 21  2  0
  8  9  1  0
  9 10  1  0
  9 29  1  0
  9 30  1  0
 10 11  2  0
 10 12  1  0
 12 13  1  0
 12 31  1  0
 13 14  1  0
 13 19  1  0
 13 32  1  6
 14 15  1  0
 14 33  1  0
 14 34  1  0
 15 16  1  0
 15 35  1  0
 15 36  1  0
 16 17  1  0
 16 37  1  0
 16 38  1  0
 17 18  1  0
 17 19  1  0
 18 39  1  0
 18 40  1  0
 18 41  1  0
 19 20  2  0
M  END

