
     RDKit          3D

 46 48  0  0  0  0  0  0  0  0999 V2000
    1.2694    0.1435   -0.5829 C   0  0  0  0  0  0  0  0  0  0  0  0
    2.5429   -0.0173   -1.4090 C   0  0  1  0  0  0  0  0  0  0  0  0
    2.2301   -0.4433   -3.1878 S   0  0  0  0  0  0  0  0  0  0  0  0
    1.2313    0.8441   -3.9004 C   0  0  0  0  0  0  0  0  0  0  0  0
    1.1000    2.1558   -3.4068 C   0  0  0  0  0  0  0  0  0  0  0  0
    0.3097    3.0793   -4.0908 C   0  0  0  0  0  0  0  0  0  0  0  0
   -0.3325    2.6996   -5.2693 C   0  0  0  0  0  0  0  0  0  0  0  0
   -1.1590    3.6819   -5.9905 N   0  0  0  0  0  0  0  0  0  0  0  0
   -1.2499    4.8035   -5.5155 O   0  0  0  0  0  0  0  0  0  0  0  0
   -1.7029    3.3148   -7.0213 O   0  0  0  0  0  0  0  0  0  0  0  0
   -0.2094    1.4053   -5.7807 C   0  0  0  0  0  0  0  0  0  0  0  0
    0.5654    0.4804   -5.0901 C   0  0  0  0  0  0  0  0  0  0  0  0
    3.5057    1.1732   -1.2319 C   0  0  0  0  0  0  0  0  0  0  0  0
    3.0594    2.2507   -0.8461 O   0  0  0  0  0  0  0  0  0  0  0  0
    4.8339    0.9989   -1.5046 N   0  0  0  0  0  0  0  0  0  0  0  0
    5.4906   -0.2448   -1.9077 C   0  0  0  0  0  0  0  0  0  0  0  0
    6.3537   -0.0180   -3.1490 C   0  0  0  0  0  0  0  0  0  0  0  0
    7.3054    1.0475   -2.8804 N   0  0  0  0  0  0  0  0  0  0  0  0
    6.6393    2.3002   -2.5557 C   0  0  0  0  0  0  0  0  0  0  0  0
    5.7415    2.1578   -1.3159 C   0  0  2  0  0  0  0  0  0  0  0  0
    6.4523    2.0954    0.0344 C   0  0  0  0  0  0  0  0  0  0  0  0
    5.7769    2.5491    1.1795 C   0  0  0  0  0  0  0  0  0  0  0  0
    6.4169    2.4971    2.4167 C   0  0  0  0  0  0  0  0  0  0  0  0
    7.7207    1.9927    2.4713 C   0  0  0  0  0  0  0  0  0  0  0  0
    8.3791    1.5574    1.3964 N   0  0  0  0  0  0  0  0  0  0  0  0
    7.7583    1.6065    0.2128 C   0  0  0  0  0  0  0  0  0  0  0  0
    0.6366   -0.7489   -0.6912 H   0  0  0  0  0  0  0  0  0  0  0  0
    0.6934    1.0273   -0.8835 H   0  0  0  0  0  0  0  0  0  0  0  0
    1.5288    0.2688    0.4798 H   0  0  0  0  0  0  0  0  0  0  0  0
    3.0488   -0.9402   -1.0880 H   0  0  0  0  0  0  0  0  0  0  0  0
    1.6135    2.4672   -2.4969 H   0  0  0  0  0  0  0  0  0  0  0  0
    0.1917    4.0989   -3.7243 H   0  0  0  0  0  0  0  0  0  0  0  0
   -0.7297    1.1416   -6.7011 H   0  0  0  0  0  0  0  0  0  0  0  0
    0.6529   -0.5406   -5.4696 H   0  0  0  0  0  0  0  0  0  0  0  0
    4.7467   -1.0174   -2.1243 H   0  0  0  0  0  0  0  0  0  0  0  0
    6.1294   -0.6043   -1.0812 H   0  0  0  0  0  0  0  0  0  0  0  0
    5.6784    0.2036   -4.0054 H   0  0  0  0  0  0  0  0  0  0  0  0
    6.8980   -0.9473   -3.3812 H   0  0  0  0  0  0  0  0  0  0  0  0
    7.9510    1.1701   -3.6573 H   0  0  0  0  0  0  0  0  0  0  0  0
    5.9930    2.6617   -3.3863 H   0  0  0  0  0  0  0  0  0  0  0  0
    7.3937    3.0786   -2.3635 H   0  0  0  0  0  0  0  0  0  0  0  0
    5.0800    3.0318   -1.2874 H   0  0  0  0  0  0  0  0  0  0  0  0
    4.7583    2.9361    1.0888 H   0  0  0  0  0  0  0  0  0  0  0  0
    5.9194    2.8470    3.3245 H   0  0  0  0  0  0  0  0  0  0  0  0
    8.2541    1.9413    3.4285 H   0  0  0  0  0  0  0  0  0  0  0  0
    8.3159    1.2342   -0.6521 H   0  0  0  0  0  0  0  0  0  0  0  0
  1  2  1  0
  1 27  1  0
  1 28  1  0
  1 29  1  0
  2  3  1  0
  2 13  1  0
  2 30  1  1
  3  4  2  0
  4  5  1  0
  4 12  1  0
  5  6  2  0
  5 31  1  0
  6  7  1  0
  6 32  1  0
  7  8  2  0
  7 11  1  0
  8  9  1  0
  8 10  1  0
 11 12  2  0
 11 33  1  0
 12 34  1  0
 13 14  2  0
 13 15  1  0
 15 16  1  0
 15 20  1  0
 16 17  1  0
 16 35  1  0
 16 36  1  0
 17 18  1  0
 17 37  1  0
 17 38  1  0
 18 19  1  0
 18 39  1  0
 19 20  1  0
 19 40  1  0
 19 41  1  0
 20 21  1  0
 20 42  1  1
 21 22  2  0
 21 26  1  0
 22 23  1  0
 22 43  1  0
 23 24  2  0
 23 44  1  0
 24 25  1  0
 24 45  1  0
 25 26  2  0
 26 46  1  0
M  CHG  4   3   1   8   1   9  -1  10  -1
M  END

