
     RDKit          3D

 44 46  0  0  0  0  0  0  0  0999 V2000
    0.5096   -0.9205    3.5369 C   0  0  0  0  0  0  0  0  0  0  0  0
    1.0923   -0.4307    2.2012 C   0  0  0  0  0  0  0  0  0  0  0  0
    2.3582    0.3630    2.3404 C   0  0  0  0  0  0  0  0  0  0  0  0
    2.3828    1.6724    2.4233 N   0  0  0  0  0  0  0  0  0  0  0  0
    3.7114    2.0149    2.5606 C   0  0  0  0  0  0  0  0  0  0  0  0
    4.3049    3.2812    2.6780 C   0  0  0  0  0  0  0  0  0  0  0  0
    5.6922    3.3312    2.7858 C   0  0  0  0  0  0  0  0  0  0  0  0
    6.4858    4.8894    2.9375 Cl  0  0  0  0  0  0  0  0  0  0  0  0
    6.4919    2.1692    2.7760 C   0  0  0  0  0  0  0  0  0  0  0  0
    5.9099    0.9068    2.6604 C   0  0  0  0  0  0  0  0  0  0  0  0
    4.5156    0.8472    2.5573 C   0  0  0  0  0  0  0  0  0  0  0  0
    3.6248   -0.2070    2.4178 N   0  0  0  0  0  0  0  0  0  0  0  0
    3.9925   -1.6125    2.3752 C   0  0  0  0  0  0  0  0  0  0  0  0
    4.3319   -2.2110    3.7471 C   0  0  0  0  0  0  0  0  0  0  0  0
    4.7327   -3.6844    3.6522 C   0  0  0  0  0  0  0  0  0  0  0  0
    5.0785   -4.2904    5.0047 C   0  0  0  0  0  0  0  0  0  0  0  0
    5.4255   -5.6456    4.7982 O   0  0  0  0  0  0  0  0  0  0  0  0
    5.7865   -6.4225    5.8551 C   0  0  0  0  0  0  0  0  0  0  0  0
    5.8405   -5.9775    7.1849 C   0  0  0  0  0  0  0  0  0  0  0  0
    6.2267   -6.8671    8.1960 C   0  0  0  0  0  0  0  0  0  0  0  0
    6.5584   -8.1894    7.9009 C   0  0  0  0  0  0  0  0  0  0  0  0
    6.5021   -8.6268    6.5705 C   0  0  0  0  0  0  0  0  0  0  0  0
    6.1203   -7.7550    5.5543 C   0  0  0  0  0  0  0  0  0  0  0  0
   -0.4502   -1.4355    3.3753 H   0  0  0  0  0  0  0  0  0  0  0  0
    0.3329   -0.0710    4.2141 H   0  0  0  0  0  0  0  0  0  0  0  0
    1.1844   -1.6248    4.0488 H   0  0  0  0  0  0  0  0  0  0  0  0
    0.3696    0.2396    1.7139 H   0  0  0  0  0  0  0  0  0  0  0  0
    1.2450   -1.2839    1.5191 H   0  0  0  0  0  0  0  0  0  0  0  0
    3.6988    4.1874    2.6808 H   0  0  0  0  0  0  0  0  0  0  0  0
    7.5747    2.2710    2.8607 H   0  0  0  0  0  0  0  0  0  0  0  0
    6.5355    0.0118    2.6523 H   0  0  0  0  0  0  0  0  0  0  0  0
    4.8557   -1.7216    1.6964 H   0  0  0  0  0  0  0  0  0  0  0  0
    3.1647   -2.1717    1.9154 H   0  0  0  0  0  0  0  0  0  0  0  0
    3.4602   -2.0958    4.4138 H   0  0  0  0  0  0  0  0  0  0  0  0
    5.1473   -1.6253    4.2047 H   0  0  0  0  0  0  0  0  0  0  0  0
    5.6035   -3.8035    2.9845 H   0  0  0  0  0  0  0  0  0  0  0  0
    3.9162   -4.2769    3.2040 H   0  0  0  0  0  0  0  0  0  0  0  0
    4.2160   -4.2136    5.6950 H   0  0  0  0  0  0  0  0  0  0  0  0
    5.9206   -3.7425    5.4701 H   0  0  0  0  0  0  0  0  0  0  0  0
    5.5869   -4.9497    7.4451 H   0  0  0  0  0  0  0  0  0  0  0  0
    6.2659   -6.5108    9.2289 H   0  0  0  0  0  0  0  0  0  0  0  0
    6.8584   -8.8752    8.6963 H   0  0  0  0  0  0  0  0  0  0  0  0
    6.7591   -9.6600    6.3225 H   0  0  0  0  0  0  0  0  0  0  0  0
    6.0710   -8.0784    4.5124 H   0  0  0  0  0  0  0  0  0  0  0  0
  1  2  1  0
  1 24  1  0
  1 25  1  0
  1 26  1  0
  2  3  1  0
  2 27  1  0
  2 28  1  0
  3  4  2  0
  3 12  1  0
  4  5  1  0
  5  6  2  0
  5 11  1  0
  6  7  1  0
  6 29  1  0
  7  8  1  0
  7  9  2  0
  9 10  1  0
  9 30  1  0
 10 11  2  0
 10 31  1  0
 11 12  1  0
 12 13  1  0
 13 14  1  0
 13 32  1  0
 13 33  1  0
 14 15  1  0
 14 34  1  0
 14 35  1  0
 15 16  1  0
 15 36  1  0
 15 37  1  0
 16 17  1  0
 16 38  1  0
 16 39  1  0
 17 18  1  0
 18 19  2  0
 18 23  1  0
 19 20  1  0
 19 40  1  0
 20 21  2  0
 20 41  1  0
 21 22  1  0
 21 42  1  0
 22 23  2  0
 22 43  1  0
 23 44  1  0
M  END

