
     RDKit          3D

 55 58  0  0  0  0  0  0  0  0999 V2000
    6.9189   -1.8794    2.3883 C   0  0  0  0  0  0  0  0  0  0  0  0
    6.0374   -0.7241    1.9874 C   0  0  0  0  0  0  0  0  0  0  0  0
    6.5769    0.4978    1.5600 C   0  0  0  0  0  0  0  0  0  0  0  0
    5.7303    1.5596    1.1977 C   0  0  0  0  0  0  0  0  0  0  0  0
    6.2709    2.8648    0.7411 C   0  0  0  0  0  0  0  0  0  0  0  0
    5.6105    4.0719    1.0158 C   0  0  0  0  0  0  0  0  0  0  0  0
    6.1233    5.2975    0.5945 C   0  0  0  0  0  0  0  0  0  0  0  0
    7.3198    5.3723   -0.1398 C   0  0  0  0  0  0  0  0  0  0  0  0
    8.0274    6.9136   -0.6936 S   0  0  0  0  0  0  0  0  0  0  0  0
    6.7060    8.1296   -0.3743 C   0  0  1  0  0  0  0  0  0  0  0  0
    6.6927    8.7798    1.0162 C   0  0  0  0  0  0  0  0  0  0  0  0
    5.7937    9.9934    0.7918 C   0  0  2  0  0  0  0  0  0  0  0  0
    4.2918    9.6337    0.9668 C   0  0  0  0  0  0  0  0  0  0  0  0
    3.9286    8.5211    1.2669 O   0  0  0  0  0  0  0  0  0  0  0  0
    3.4488   10.6360    0.7763 O   0  0  0  0  0  0  0  0  0  0  0  0
    6.1174   10.3950   -0.6001 N   0  0  0  0  0  0  0  0  0  0  0  0
    5.7542   11.6147   -1.0769 C   0  0  0  0  0  0  0  0  0  0  0  0
    5.0187   12.3531   -0.4074 O   0  0  0  0  0  0  0  0  0  0  0  0
    6.2822   12.0445   -2.4305 C   0  0  1  0  0  0  0  0  0  0  0  0
    7.7725   12.3526   -2.4799 C   0  0  0  0  0  0  0  0  0  0  0  0
    5.5865   11.4745   -3.6564 C   0  0  0  0  0  0  0  0  0  0  0  0
    5.3527   12.9035   -3.2445 C   0  0  0  0  0  0  0  0  0  0  0  0
    6.8613    9.3419   -1.3079 C   0  0  0  0  0  0  0  0  0  0  0  0
    7.9920    4.1575   -0.4319 C   0  0  0  0  0  0  0  0  0  0  0  0
    9.2608    4.1295   -1.2596 C   0  0  1  0  0  0  0  0  0  0  0  0
    9.0422    4.5337   -2.5240 F   0  0  0  0  0  0  0  0  0  0  0  0
   10.2108    4.9359   -0.7483 F   0  0  0  0  0  0  0  0  0  0  0  0
    9.7898    2.8964   -1.3282 F   0  0  0  0  0  0  0  0  0  0  0  0
    7.4679    2.9419    0.0113 C   0  0  0  0  0  0  0  0  0  0  0  0
    4.3485    1.3253    1.2895 C   0  0  0  0  0  0  0  0  0  0  0  0
    3.9028    0.0761    1.7265 C   0  0  0  0  0  0  0  0  0  0  0  0
    4.7131   -0.9254    2.0673 N   0  0  0  0  0  0  0  0  0  0  0  0
    7.9876   -1.6401    2.2935 H   0  0  0  0  0  0  0  0  0  0  0  0
    6.6952   -2.7596    1.7643 H   0  0  0  0  0  0  0  0  0  0  0  0
    6.7115   -2.1705    3.4306 H   0  0  0  0  0  0  0  0  0  0  0  0
    7.6613    0.6248    1.5355 H   0  0  0  0  0  0  0  0  0  0  0  0
    4.6870    4.0691    1.5986 H   0  0  0  0  0  0  0  0  0  0  0  0
    5.5687    6.1972    0.8599 H   0  0  0  0  0  0  0  0  0  0  0  0
    5.7369    7.6508   -0.5713 H   0  0  0  0  0  0  0  0  0  0  0  0
    7.7114    9.0964    1.2886 H   0  0  0  0  0  0  0  0  0  0  0  0
    6.3017    8.1252    1.8029 H   0  0  0  0  0  0  0  0  0  0  0  0
    6.0191   10.8359    1.4663 H   0  0  0  0  0  0  0  0  0  0  0  0
    3.9471   11.4408    0.4584 H   0  0  0  0  0  0  0  0  0  0  0  0
    8.4017   11.4807   -2.2444 H   0  0  0  0  0  0  0  0  0  0  0  0
    8.0242   13.1563   -1.7691 H   0  0  0  0  0  0  0  0  0  0  0  0
    8.0543   12.6971   -3.4867 H   0  0  0  0  0  0  0  0  0  0  0  0
    4.7691   10.7620   -3.5086 H   0  0  0  0  0  0  0  0  0  0  0  0
    6.2060   11.2685   -4.5346 H   0  0  0  0  0  0  0  0  0  0  0  0
    4.3909   13.1628   -2.7967 H   0  0  0  0  0  0  0  0  0  0  0  0
    5.8035   13.6981   -3.8448 H   0  0  0  0  0  0  0  0  0  0  0  0
    7.9264    9.6102   -1.4175 H   0  0  0  0  0  0  0  0  0  0  0  0
    6.4527    9.1609   -2.3112 H   0  0  0  0  0  0  0  0  0  0  0  0
    8.0002    2.0270   -0.2471 H   0  0  0  0  0  0  0  0  0  0  0  0
    3.6248    2.0905    1.0021 H   0  0  0  0  0  0  0  0  0  0  0  0
    2.8261   -0.1217    1.7973 H   0  0  0  0  0  0  0  0  0  0  0  0
  1  2  1  0
  1 33  1  0
  1 34  1  0
  1 35  1  0
  2  3  2  0
  2 32  1  0
  3  4  1  0
  3 36  1  0
  4  5  1  0
  4 30  2  0
  5  6  2  0
  5 29  1  0
  6  7  1  0
  6 37  1  0
  7  8  2  0
  7 38  1  0
  8  9  1  0
  8 24  1  0
  9 10  1  0
 10 11  1  0
 10 23  1  0
 10 39  1  6
 11 12  1  0
 11 40  1  0
 11 41  1  0
 12 13  1  0
 12 16  1  0
 12 42  1  1
 13 14  2  0
 13 15  1  0
 15 43  1  0
 16 17  1  0
 16 23  1  0
 17 18  2  0
 19 17  1  1
 19 20  1  0
 19 21  1  0
 19 22  1  0
 20 44  1  0
 20 45  1  0
 20 46  1  0
 21 22  1  0
 21 47  1  0
 21 48  1  0
 22 49  1  0
 22 50  1  0
 23 51  1  0
 23 52  1  0
 24 25  1  0
 24 29  2  0
 25 26  1  6
 25 27  1  0
 25 28  1  0
 29 53  1  0
 30 31  1  0
 30 54  1  0
 31 32  2  0
 31 55  1  0
M  END

