
     RDKit          3D

 37 36  0  0  0  0  0  0  0  0999 V2000
    1.2594   -0.1832   -0.7059 C   0  0  0  0  0  0  0  0  0  0  0  0
    2.5878   -0.3350   -0.0007 C   0  0  0  0  0  0  0  0  0  0  0  0
    3.0865   -1.4126    0.2399 O   0  0  0  0  0  0  0  0  0  0  0  0
    3.2673    0.9767    0.4664 C   0  0  1  0  0  0  0  0  0  0  0  0
    2.8770    1.8189   -0.1265 H   0  0  0  0  0  0  0  0  0  0  0  0
    2.8070    1.2021    1.8310 N   0  0  0  0  0  0  0  0  0  0  0  0
    1.7570    2.0063    2.1525 C   0  0  0  0  0  0  0  0  0  0  0  0
    1.1154    2.6512    1.3336 O   0  0  0  0  0  0  0  0  0  0  0  0
    1.4561    2.0717    3.6638 C   0  0  1  0  0  0  0  0  0  0  0  0
    0.3664    2.2655    3.7279 H   0  0  0  0  0  0  0  0  0  0  0  0
    1.8663    0.8146    4.2928 N   0  0  0  0  0  0  0  0  0  0  0  0
    2.1799    3.2834    4.3170 C   0  0  1  0  0  0  0  0  0  0  0  0
    1.7598    4.6157    3.6814 C   0  0  0  0  0  0  0  0  0  0  0  0
    1.9481    3.3342    5.8354 C   0  0  0  0  0  0  0  0  0  0  0  0
    4.8036    0.9180    0.3646 C   0  0  1  0  0  0  0  0  0  0  0  0
    5.2399    0.7196   -1.0934 C   0  0  0  0  0  0  0  0  0  0  0  0
    5.4624    2.1639    0.9674 C   0  0  0  0  0  0  0  0  0  0  0  0
    0.7509   -1.1539   -0.7802 H   0  0  0  0  0  0  0  0  0  0  0  0
    1.4473    0.2052   -1.7229 H   0  0  0  0  0  0  0  0  0  0  0  0
    0.6296    0.5670   -0.2024 H   0  0  0  0  0  0  0  0  0  0  0  0
    3.1663    0.6284    2.5939 H   0  0  0  0  0  0  0  0  0  0  0  0
    1.2245    0.0621    4.0419 H   0  0  0  0  0  0  0  0  0  0  0  0
    1.8440    0.8858    5.3075 H   0  0  0  0  0  0  0  0  0  0  0  0
    3.2620    3.1372    4.1440 H   0  0  0  0  0  0  0  0  0  0  0  0
    0.6913    4.8182    3.8662 H   0  0  0  0  0  0  0  0  0  0  0  0
    1.9079    4.6262    2.5936 H   0  0  0  0  0  0  0  0  0  0  0  0
    2.3377    5.4442    4.1209 H   0  0  0  0  0  0  0  0  0  0  0  0
    0.8710    3.3803    6.0721 H   0  0  0  0  0  0  0  0  0  0  0  0
    2.4172    4.2351    6.2612 H   0  0  0  0  0  0  0  0  0  0  0  0
    2.3834    2.4743    6.3689 H   0  0  0  0  0  0  0  0  0  0  0  0
    5.1243    0.0283    0.9355 H   0  0  0  0  0  0  0  0  0  0  0  0
    4.9123    1.5648   -1.7234 H   0  0  0  0  0  0  0  0  0  0  0  0
    4.8336   -0.2086   -1.5222 H   0  0  0  0  0  0  0  0  0  0  0  0
    6.3374    0.6616   -1.1652 H   0  0  0  0  0  0  0  0  0  0  0  0
    5.1653    3.0742    0.4189 H   0  0  0  0  0  0  0  0  0  0  0  0
    6.5599    2.0858    0.9135 H   0  0  0  0  0  0  0  0  0  0  0  0
    5.1867    2.3062    2.0227 H   0  0  0  0  0  0  0  0  0  0  0  0
  1  2  1  0
  1 18  1  0
  1 19  1  0
  1 20  1  0
  2  3  2  0
  2  4  1  0
  4  5  1  6
  4  6  1  0
  4 15  1  0
  6  7  1  0
  6 21  1  0
  7  8  2  0
  7  9  1  0
  9 10  1  6
  9 11  1  0
  9 12  1  0
 11 22  1  0
 11 23  1  0
 12 13  1  0
 12 14  1  0
 12 24  1  1
 13 25  1  0
 13 26  1  0
 13 27  1  0
 14 28  1  0
 14 29  1  0
 14 30  1  0
 15 16  1  0
 15 17  1  0
 15 31  1  1
 16 32  1  0
 16 33  1  0
 16 34  1  0
 17 35  1  0
 17 36  1  0
 17 37  1  0
M  END

