
     RDKit          3D

 85 90  0  0  0  0  0  0  0  0999 V2000
    3.6307   -6.7396    0.7796 C   0  0  0  0  0  0  0  0  0  0  0  0
    3.1586   -5.4196    0.5812 O   0  0  0  0  0  0  0  0  0  0  0  0
    2.5716   -5.1003   -0.6023 C   0  0  0  0  0  0  0  0  0  0  0  0
    2.4216   -5.9944   -1.6575 C   0  0  0  0  0  0  0  0  0  0  0  0
    1.8566   -5.5773   -2.8746 C   0  0  0  0  0  0  0  0  0  0  0  0
    1.7140   -6.5475   -3.9846 C   0  0  0  0  0  0  0  0  0  0  0  0
    2.0489   -7.7093   -3.9260 O   0  0  0  0  0  0  0  0  0  0  0  0
    1.4454   -4.2525   -3.0389 C   0  0  0  0  0  0  0  0  0  0  0  0
    1.5787   -3.3575   -1.9765 C   0  0  0  0  0  0  0  0  0  0  0  0
    0.9682   -1.3399   -2.2463 I   0  0  0  0  0  0  0  0  0  0  0  0
    2.1163   -3.7512   -0.7371 C   0  0  0  0  0  0  0  0  0  0  0  0
    2.2681   -2.8217    0.2271 O   0  0  0  0  0  0  0  0  0  0  0  0
    1.9887   -3.0776    1.6353 C   0  0  1  0  0  0  0  0  0  0  0  0
    3.2577   -2.8784    2.4116 C   0  0  0  0  0  0  0  0  0  0  0  0
    3.4949   -1.7863    3.1598 C   0  0  0  0  0  0  0  0  0  0  0  0
    4.7521   -1.6370    3.9783 C   0  0  0  0  0  0  0  0  0  0  0  0
    4.7416   -1.0452    5.0470 O   0  0  0  0  0  0  0  0  0  0  0  0
    5.8895   -2.2038    3.4627 N   0  0  0  0  0  0  0  0  0  0  0  0
    7.1796   -2.0532    4.1284 C   0  0  0  0  0  0  0  0  0  0  0  0
    7.4075   -3.1180    5.2027 C   0  0  0  0  0  0  0  0  0  0  0  0
    7.3524   -4.4272    4.6787 O   0  0  0  0  0  0  0  0  0  0  0  0
    2.4878   -0.6778    3.3228 C   0  0  0  0  0  0  0  0  0  0  0  0
    1.3939   -0.7030    2.2410 C   0  0  2  0  0  0  0  0  0  0  0  0
    0.3460    0.3061    2.4708 N   0  0  0  0  0  0  0  0  0  0  0  0
   -0.8535   -0.0324    3.2312 C   0  0  0  0  0  0  0  0  0  0  0  0
   -0.7292   -0.0318    4.7509 C   0  0  0  0  0  0  0  0  0  0  0  0
    0.0967    0.8711    5.4317 C   0  0  0  0  0  0  0  0  0  0  0  0
    0.1577    0.9149    6.8394 C   0  0  0  0  0  0  0  0  0  0  0  0
   -0.6468    0.0289    7.5315 C   0  0  0  0  0  0  0  0  0  0  0  0
   -1.4753   -0.8772    6.8641 C   0  0  0  0  0  0  0  0  0  0  0  0
   -1.5338   -0.9362    5.4840 C   0  0  0  0  0  0  0  0  0  0  0  0
   -2.1269   -1.6536    7.7815 O   0  0  0  0  0  0  0  0  0  0  0  0
   -1.8135   -1.1053    9.0598 C   0  0  0  0  0  0  0  0  0  0  0  0
   -0.7624   -0.1614    8.8810 O   0  0  0  0  0  0  0  0  0  0  0  0
    0.5669    1.5503    1.9092 C   0  0  0  0  0  0  0  0  0  0  0  0
    1.5902    1.7868    1.2812 O   0  0  0  0  0  0  0  0  0  0  0  0
   -0.5142    2.6234    2.0799 C   0  0  0  0  0  0  0  0  0  0  0  0
   -0.0628    3.9857    1.5549 C   0  0  2  0  0  0  0  0  0  0  0  0
    1.0400    4.6997    2.4064 C   0  0  0  0  0  0  0  0  0  0  0  0
    0.4761    6.1257    2.6023 C   0  0  2  0  0  0  0  0  0  0  0  0
   -0.6798    6.0615    3.6270 C   0  0  0  0  0  0  0  0  0  0  0  0
   -1.8142    5.3386    2.8327 C   0  0  0  0  0  0  0  0  0  0  0  0
   -1.1652    5.0742    1.4535 C   0  0  1  0  0  0  0  0  0  0  0  0
   -0.2987    6.3402    1.2837 C   0  0  0  0  0  0  0  0  0  0  0  0
    0.8534   -2.1318    2.0733 C   0  0  1  0  0  0  0  0  0  0  0  0
   -0.2475   -2.2355    1.2043 O   0  0  0  0  0  0  0  0  0  0  0  0
    4.0550   -6.7679    1.7917 H   0  0  0  0  0  0  0  0  0  0  0  0
    4.4159   -7.0028    0.0502 H   0  0  0  0  0  0  0  0  0  0  0  0
    2.8138   -7.4781    0.7098 H   0  0  0  0  0  0  0  0  0  0  0  0
    2.7494   -7.0311   -1.5860 H   0  0  0  0  0  0  0  0  0  0  0  0
    1.2606   -6.1226   -4.9175 H   0  0  0  0  0  0  0  0  0  0  0  0
    1.0175   -3.9245   -3.9885 H   0  0  0  0  0  0  0  0  0  0  0  0
    1.6298   -4.1094    1.7321 H   0  0  0  0  0  0  0  0  0  0  0  0
    3.9937   -3.6814    2.3280 H   0  0  0  0  0  0  0  0  0  0  0  0
    5.8763   -2.4838    2.4900 H   0  0  0  0  0  0  0  0  0  0  0  0
    7.2335   -1.0513    4.5854 H   0  0  0  0  0  0  0  0  0  0  0  0
    7.9643   -2.1338    3.3607 H   0  0  0  0  0  0  0  0  0  0  0  0
    6.6749   -2.9674    6.0189 H   0  0  0  0  0  0  0  0  0  0  0  0
    8.4132   -2.9844    5.6333 H   0  0  0  0  0  0  0  0  0  0  0  0
    6.4593   -4.5475    4.3285 H   0  0  0  0  0  0  0  0  0  0  0  0
    3.0007    0.2959    3.2981 H   0  0  0  0  0  0  0  0  0  0  0  0
    2.0469   -0.7544    4.3306 H   0  0  0  0  0  0  0  0  0  0  0  0
    1.8681   -0.4143    1.2913 H   0  0  0  0  0  0  0  0  0  0  0  0
   -1.2163   -1.0116    2.8907 H   0  0  0  0  0  0  0  0  0  0  0  0
   -1.6481    0.6703    2.9440 H   0  0  0  0  0  0  0  0  0  0  0  0
    0.7281    1.5548    4.8611 H   0  0  0  0  0  0  0  0  0  0  0  0
    0.8152    1.6108    7.3622 H   0  0  0  0  0  0  0  0  0  0  0  0
   -2.1809   -1.6591    4.9826 H   0  0  0  0  0  0  0  0  0  0  0  0
   -1.4816   -1.9089    9.7377 H   0  0  0  0  0  0  0  0  0  0  0  0
   -2.7063   -0.5972    9.4756 H   0  0  0  0  0  0  0  0  0  0  0  0
   -0.8102    2.6884    3.1389 H   0  0  0  0  0  0  0  0  0  0  0  0
   -1.4165    2.2928    1.5326 H   0  0  0  0  0  0  0  0  0  0  0  0
    0.3371    3.8185    0.5435 H   0  0  0  0  0  0  0  0  0  0  0  0
    2.0018    4.7068    1.8735 H   0  0  0  0  0  0  0  0  0  0  0  0
    1.2164    4.1961    3.3718 H   0  0  0  0  0  0  0  0  0  0  0  0
    1.2412    6.8786    2.8441 H   0  0  0  0  0  0  0  0  0  0  0  0
   -0.9909    7.0732    3.9329 H   0  0  0  0  0  0  0  0  0  0  0  0
   -0.3886    5.5229    4.5430 H   0  0  0  0  0  0  0  0  0  0  0  0
   -2.6952    5.9897    2.7169 H   0  0  0  0  0  0  0  0  0  0  0  0
   -2.1675    4.4208    3.3266 H   0  0  0  0  0  0  0  0  0  0  0  0
   -1.8950    4.8766    0.6526 H   0  0  0  0  0  0  0  0  0  0  0  0
   -0.8852    7.2735    1.2673 H   0  0  0  0  0  0  0  0  0  0  0  0
    0.3434    6.3102    0.3887 H   0  0  0  0  0  0  0  0  0  0  0  0
    0.5036   -2.5088    3.0507 H   0  0  0  0  0  0  0  0  0  0  0  0
   -0.0043   -1.8326    0.3548 H   0  0  0  0  0  0  0  0  0  0  0  0
  1  2  1  0
  1 47  1  0
  1 48  1  0
  1 49  1  0
  2  3  1  0
  3  4  2  0
  3 11  1  0
  4  5  1  0
  4 50  1  0
  5  6  1  0
  5  8  2  0
  6  7  2  0
  6 51  1  0
  8  9  1  0
  8 52  1  0
  9 10  1  0
  9 11  2  0
 11 12  1  0
 12 13  1  0
 13 14  1  0
 13 45  1  0
 13 53  1  6
 14 15  2  0
 14 54  1  0
 15 16  1  0
 15 22  1  0
 16 17  2  0
 16 18  1  0
 18 19  1  0
 18 55  1  0
 19 20  1  0
 19 56  1  0
 19 57  1  0
 20 21  1  0
 20 58  1  0
 20 59  1  0
 21 60  1  0
 22 23  1  0
 22 61  1  0
 22 62  1  0
 23 24  1  0
 23 45  1  0
 23 63  1  6
 24 25  1  0
 24 35  1  0
 25 26  1  0
 25 64  1  0
 25 65  1  0
 26 27  1  0
 26 31  2  0
 27 28  2  0
 27 66  1  0
 28 29  1  0
 28 67  1  0
 29 30  2  0
 29 34  1  0
 30 31  1  0
 30 32  1  0
 31 68  1  0
 32 33  1  0
 33 34  1  0
 33 69  1  0
 33 70  1  0
 35 36  2  0
 35 37  1  0
 37 38  1  0
 37 71  1  0
 37 72  1  0
 38 39  1  0
 38 43  1  0
 38 73  1  6
 39 40  1  0
 39 74  1  0
 39 75  1  0
 40 41  1  0
 40 44  1  0
 40 76  1  1
 41 42  1  0
 41 77  1  0
 41 78  1  0
 42 43  1  0
 42 79  1  0
 42 80  1  0
 43 44  1  0
 43 81  1  6
 44 82  1  0
 44 83  1  0
 45 46  1  0
 45 84  1  1
 46 85  1  0
M  END

