
     RDKit          3D

 50 50  0  0  0  0  0  0  0  0999 V2000
    6.9516   -0.4542    2.2938 C   0  0  0  0  0  0  0  0  0  0  0  0
    6.0210   -1.0128    1.2330 C   0  0  0  0  0  0  0  0  0  0  0  0
    6.2130   -0.3035    0.0318 O   0  0  0  0  0  0  0  0  0  0  0  0
    5.3954   -0.7303   -1.0333 C   0  0  0  0  0  0  0  0  0  0  0  0
    5.6956    0.1045   -2.2683 C   0  0  0  0  0  0  0  0  0  0  0  0
    7.1356   -0.0241   -2.7398 C   0  0  0  0  0  0  0  0  0  0  0  0
    7.2794    0.7681   -3.9186 O   0  0  0  0  0  0  0  0  0  0  0  0
    8.5275    0.8718   -4.4639 C   0  0  0  0  0  0  0  0  0  0  0  0
    9.1686    2.1087   -4.4570 C   0  0  0  0  0  0  0  0  0  0  0  0
   10.4262    2.2929   -5.0565 C   0  0  0  0  0  0  0  0  0  0  0  0
   11.0820    3.6611   -5.0798 C   0  0  0  0  0  0  0  0  0  0  0  0
   10.8916    4.3706   -3.8241 N   0  0  0  0  0  0  0  0  0  0  0  0
   11.3855    5.7540   -3.6931 C   0  0  1  0  0  0  0  0  0  0  0  0
   10.6022    6.6738   -4.6465 C   0  0  0  0  0  0  0  0  0  0  0  0
   11.0981    6.1748   -2.2424 C   0  0  0  0  0  0  0  0  0  0  0  0
   12.9006    5.8824   -3.9715 C   0  0  0  0  0  0  0  0  0  0  0  0
   11.0369    1.1879   -5.6540 C   0  0  0  0  0  0  0  0  0  0  0  0
   10.4086   -0.0646   -5.6778 C   0  0  0  0  0  0  0  0  0  0  0  0
    9.1494   -0.2372   -5.0925 C   0  0  0  0  0  0  0  0  0  0  0  0
    8.4541   -1.4074   -5.0827 O   0  0  0  0  0  0  0  0  0  0  0  0
    9.0015   -2.5346   -5.7254 C   0  0  0  0  0  0  0  0  0  0  0  0
    6.8191   -0.9896    3.2471 H   0  0  0  0  0  0  0  0  0  0  0  0
    6.7476    0.6146    2.4619 H   0  0  0  0  0  0  0  0  0  0  0  0
    8.0021   -0.5557    1.9797 H   0  0  0  0  0  0  0  0  0  0  0  0
    4.9632   -0.9296    1.5634 H   0  0  0  0  0  0  0  0  0  0  0  0
    6.2164   -2.0957    1.0768 H   0  0  0  0  0  0  0  0  0  0  0  0
    4.3230   -0.6319   -0.7628 H   0  0  0  0  0  0  0  0  0  0  0  0
    5.5710   -1.8081   -1.2441 H   0  0  0  0  0  0  0  0  0  0  0  0
    5.4762    1.1646   -2.0593 H   0  0  0  0  0  0  0  0  0  0  0  0
    5.0238   -0.2098   -3.0845 H   0  0  0  0  0  0  0  0  0  0  0  0
    7.3789   -1.0791   -2.9549 H   0  0  0  0  0  0  0  0  0  0  0  0
    7.8266    0.3351   -1.9574 H   0  0  0  0  0  0  0  0  0  0  0  0
    8.6709    2.9465   -3.9660 H   0  0  0  0  0  0  0  0  0  0  0  0
   10.6221    4.2595   -5.8864 H   0  0  0  0  0  0  0  0  0  0  0  0
   12.1460    3.5301   -5.3737 H   0  0  0  0  0  0  0  0  0  0  0  0
   11.2569    3.8047   -3.0584 H   0  0  0  0  0  0  0  0  0  0  0  0
    9.5194    6.5629   -4.4816 H   0  0  0  0  0  0  0  0  0  0  0  0
   10.8123    6.4488   -5.7038 H   0  0  0  0  0  0  0  0  0  0  0  0
   10.8763    7.7269   -4.4770 H   0  0  0  0  0  0  0  0  0  0  0  0
   10.0232    6.0870   -2.0232 H   0  0  0  0  0  0  0  0  0  0  0  0
   11.4122    7.2143   -2.0603 H   0  0  0  0  0  0  0  0  0  0  0  0
   11.6438    5.5320   -1.5306 H   0  0  0  0  0  0  0  0  0  0  0  0
   13.1485    5.6130   -5.0103 H   0  0  0  0  0  0  0  0  0  0  0  0
   13.4784    5.2217   -3.3034 H   0  0  0  0  0  0  0  0  0  0  0  0
   13.2499    6.9147   -3.8073 H   0  0  0  0  0  0  0  0  0  0  0  0
   12.0222    1.2954   -6.1169 H   0  0  0  0  0  0  0  0  0  0  0  0
   10.9123   -0.9029   -6.1599 H   0  0  0  0  0  0  0  0  0  0  0  0
    8.2713   -3.3472   -5.6105 H   0  0  0  0  0  0  0  0  0  0  0  0
    9.9586   -2.8476   -5.2691 H   0  0  0  0  0  0  0  0  0  0  0  0
    9.1671   -2.3529   -6.8029 H   0  0  0  0  0  0  0  0  0  0  0  0
  1  2  1  0
  1 22  1  0
  1 23  1  0
  1 24  1  0
  2  3  1  0
  2 25  1  0
  2 26  1  0
  3  4  1  0
  4  5  1  0
  4 27  1  0
  4 28  1  0
  5  6  1  0
  5 29  1  0
  5 30  1  0
  6  7  1  0
  6 31  1  0
  6 32  1  0
  7  8  1  0
  8  9  2  0
  8 19  1  0
  9 10  1  0
  9 33  1  0
 10 11  1  0
 10 17  2  0
 11 12  1  0
 11 34  1  0
 11 35  1  0
 13 12  1  1
 12 36  1  0
 13 14  1  0
 13 15  1  0
 13 16  1  0
 14 37  1  0
 14 38  1  0
 14 39  1  0
 15 40  1  0
 15 41  1  0
 15 42  1  0
 16 43  1  0
 16 44  1  0
 16 45  1  0
 17 18  1  0
 17 46  1  0
 18 19  2  0
 18 47  1  0
 19 20  1  0
 20 21  1  0
 21 48  1  0
 21 49  1  0
 21 50  1  0
M  END

