
     RDKit          3D

 20 20  0  0  0  0  0  0  0  0999 V2000
    1.1319   -0.1472   -0.5373 O   0  0  0  0  0  0  0  0  0  0  0  0
    2.2582    0.0380   -0.2210 C   0  0  0  0  0  0  0  0  0  0  0  0
    3.0656   -1.1077    0.9519 Cl  0  0  0  0  0  0  0  0  0  0  0  0
    3.1948    1.1298   -0.7068 C   0  0  1  0  0  0  0  0  0  0  0  0
    2.5522    1.9925   -1.8099 C   0  0  0  0  0  0  0  0  0  0  0  0
    1.5026    2.9740   -1.2679 C   0  0  0  0  0  0  0  0  0  0  0  0
    2.0660    3.8378   -0.1322 C   0  0  0  0  0  0  0  0  0  0  0  0
    2.6708    2.9751    0.9832 C   0  0  0  0  0  0  0  0  0  0  0  0
    3.7238    2.0127    0.4474 C   0  0  2  0  0  0  0  0  0  0  0  0
    4.7854    2.7513   -0.0733 F   0  0  0  0  0  0  0  0  0  0  0  0
    4.0741    0.5944   -1.1048 H   0  0  0  0  0  0  0  0  0  0  0  0
    2.1131    1.3406   -2.5805 H   0  0  0  0  0  0  0  0  0  0  0  0
    3.3690    2.5557   -2.2894 H   0  0  0  0  0  0  0  0  0  0  0  0
    0.6266    2.4092   -0.9077 H   0  0  0  0  0  0  0  0  0  0  0  0
    1.1432    3.6143   -2.0901 H   0  0  0  0  0  0  0  0  0  0  0  0
    1.2802    4.4893    0.2827 H   0  0  0  0  0  0  0  0  0  0  0  0
    2.8525    4.5032   -0.5271 H   0  0  0  0  0  0  0  0  0  0  0  0
    1.8835    2.3823    1.4827 H   0  0  0  0  0  0  0  0  0  0  0  0
    3.1349    3.6023    1.7614 H   0  0  0  0  0  0  0  0  0  0  0  0
    4.1318    1.3798    1.2499 H   0  0  0  0  0  0  0  0  0  0  0  0
  1  2  2  0
  2  3  1  0
  2  4  1  0
  4  5  1  0
  4  9  1  0
  4 11  1  6
  5  6  1  0
  5 12  1  0
  5 13  1  0
  6  7  1  0
  6 14  1  0
  6 15  1  0
  7  8  1  0
  7 16  1  0
  7 17  1  0
  8  9  1  0
  8 18  1  0
  8 19  1  0
  9 10  1  0
  9 20  1  1
M  END

