
     RDKit          3D

 24 26  0  0  0  0  0  0  0  0999 V2000
    0.9143    0.0396   -0.0572 C   0  0  0  0  0  0  0  0  0  0  0  0
    2.4148   -0.0645   -0.0533 C   0  0  0  0  0  0  0  0  0  0  0  0
    3.0492   -1.3180   -0.0496 C   0  0  0  0  0  0  0  0  0  0  0  0
    2.5178   -2.6400   -0.0491 C   0  0  0  0  0  0  0  0  0  0  0  0
    3.5937   -3.5183   -0.0452 C   0  0  0  0  0  0  0  0  0  0  0  0
    4.7627   -2.7191   -0.0434 C   0  0  0  0  0  0  0  0  0  0  0  0
    4.4401   -1.4212   -0.0460 N   0  0  0  0  0  0  0  0  0  0  0  0
    5.4590   -0.2234   -0.0446 B   0  0  1  0  0  0  0  0  0  0  0  0
    6.2333   -0.2707    1.0993 F   0  0  0  0  0  0  0  0  0  0  0  0
    6.2413   -0.2747   -1.1829 F   0  0  0  0  0  0  0  0  0  0  0  0
    4.5792    1.0680   -0.0500 N   0  0  0  0  0  0  0  0  0  0  0  0
    5.0367    2.3294   -0.0516 C   0  0  0  0  0  0  0  0  0  0  0  0
    3.9595    3.2406   -0.0561 C   0  0  0  0  0  0  0  0  0  0  0  0
    2.7931    2.4776   -0.0574 C   0  0  0  0  0  0  0  0  0  0  0  0
    3.1886    1.1120   -0.0536 C   0  0  0  0  0  0  0  0  0  0  0  0
    0.4273   -0.9420   -0.0567 H   0  0  0  0  0  0  0  0  0  0  0  0
    0.5683    0.5933   -0.9441 H   0  0  0  0  0  0  0  0  0  0  0  0
    0.5640    0.5964    0.8262 H   0  0  0  0  0  0  0  0  0  0  0  0
    1.4618   -2.9018   -0.0513 H   0  0  0  0  0  0  0  0  0  0  0  0
    3.5649   -4.6060   -0.0437 H   0  0  0  0  0  0  0  0  0  0  0  0
    5.8068   -3.0311   -0.0404 H   0  0  0  0  0  0  0  0  0  0  0  0
    6.1080    2.5269   -0.0493 H   0  0  0  0  0  0  0  0  0  0  0  0
    4.0411    4.3257   -0.0582 H   0  0  0  0  0  0  0  0  0  0  0  0
    1.7690    2.8458   -0.0608 H   0  0  0  0  0  0  0  0  0  0  0  0
  1  2  1  0
  1 16  1  0
  1 17  1  0
  1 18  1  0
  2  3  1  0
  2 15  2  0
  3  4  2  0
  3  7  1  0
  4  5  1  0
  4 19  1  0
  5  6  2  0
  5 20  1  0
  6  7  1  0
  6 21  1  0
  7  8  1  0
  8  9  1  1
  8 10  1  0
  8 11  1  0
 11 12  2  0
 11 15  1  0
 12 13  1  0
 12 22  1  0
 13 14  2  0
 13 23  1  0
 14 15  1  0
 14 24  1  0
M  CHG  2   8  -1  11   1
M  END

