
     RDKit          3D

 14 14  0  0  0  0  0  0  0  0999 V2000
    1.0363    0.0645    0.1171 F   0  0  0  0  0  0  0  0  0  0  0  0
    2.3538    0.0910   -0.0256 C   0  0  0  0  0  0  0  0  0  0  0  0
    3.0109    1.3139   -0.1435 C   0  0  0  0  0  0  0  0  0  0  0  0
    4.3982    1.2822   -0.2916 C   0  0  0  0  0  0  0  0  0  0  0  0
    5.1993    2.5686   -0.4272 C   0  0  1  0  0  0  0  0  0  0  0  0
    4.3941    3.6460   -0.3894 F   0  0  0  0  0  0  0  0  0  0  0  0
    6.0879    2.6901    0.5659 F   0  0  0  0  0  0  0  0  0  0  0  0
    5.8678    2.6009   -1.5858 F   0  0  0  0  0  0  0  0  0  0  0  0
    5.1143    0.1592   -0.3255 N   0  0  0  0  0  0  0  0  0  0  0  0
    4.4794   -1.0028   -0.2125 C   0  0  0  0  0  0  0  0  0  0  0  0
    3.0881   -1.0980   -0.0591 C   0  0  0  0  0  0  0  0  0  0  0  0
    2.2283   -2.7703    0.0974 Br  0  0  0  0  0  0  0  0  0  0  0  0
    2.4457    2.2454   -0.1187 H   0  0  0  0  0  0  0  0  0  0  0  0
    5.0821   -1.9166   -0.2423 H   0  0  0  0  0  0  0  0  0  0  0  0
  1  2  1  0
  2  3  2  0
  2 11  1  0
  3  4  1  0
  3 13  1  0
  4  5  1  0
  4  9  2  0
  5  6  1  6
  5  7  1  0
  5  8  1  0
  9 10  1  0
 10 11  2  0
 10 14  1  0
 11 12  1  0
M  END

