
     RDKit          3D

 50 52  0  0  0  0  0  0  0  0999 V2000
    3.9298   -1.1443   -1.4360 O   0  0  0  0  0  0  0  0  0  0  0  0
    3.6720   -0.3666   -0.5188 C   0  0  0  0  0  0  0  0  0  0  0  0
    3.1048    0.8487   -0.7056 N   0  0  0  0  0  0  0  0  0  0  0  0
    2.4945    1.2457   -1.9763 C   0  0  1  0  0  0  0  0  0  0  0  0
    1.9437    0.3717   -2.3712 H   0  0  0  0  0  0  0  0  0  0  0  0
    1.5234    2.4157   -1.7644 C   0  0  0  0  0  0  0  0  0  0  0  0
    0.4204    2.1305   -0.7692 C   0  0  0  0  0  0  0  0  0  0  0  0
    0.4002    2.7534    0.4889 C   0  0  0  0  0  0  0  0  0  0  0  0
   -0.6059    2.4788    1.4178 C   0  0  0  0  0  0  0  0  0  0  0  0
   -1.6325    1.5714    1.1146 C   0  0  0  0  0  0  0  0  0  0  0  0
   -2.7423    1.2700    2.0955 C   0  0  2  0  0  0  0  0  0  0  0  0
   -3.6100    2.4814    2.4921 C   0  0  0  0  0  0  0  0  0  0  0  0
   -4.1712    2.3164    3.8828 C   0  0  0  0  0  0  0  0  0  0  0  0
   -4.7756    3.0679    4.5683 O   0  0  0  0  0  0  0  0  0  0  0  0
   -3.9041    0.8652    4.3583 N   0  0  2  0  0  0  0  0  0  0  0  0
   -4.7890    0.1066    3.8938 O   0  0  0  0  0  0  0  0  0  0  0  0
   -3.7573    0.8145    5.7793 O   0  0  0  0  0  0  0  0  0  0  0  0
   -2.0749    0.6090    3.6897 S   0  0  0  0  0  0  0  0  0  0  0  0
   -1.6161    0.9472   -0.1425 C   0  0  0  0  0  0  0  0  0  0  0  0
   -0.6095    1.2243   -1.0681 C   0  0  0  0  0  0  0  0  0  0  0  0
    3.5596    1.6112   -3.0472 C   0  0  0  0  0  0  0  0  0  0  0  0
    3.5789    2.6838   -3.5941 O   0  0  0  0  0  0  0  0  0  0  0  0
    4.4227    0.6430   -3.3412 O   0  0  0  0  0  0  0  0  0  0  0  0
    3.9125   -0.6137    0.7730 O   0  0  0  0  0  0  0  0  0  0  0  0
    4.6399   -1.8238    1.1067 C   0  0  0  0  0  0  0  0  0  0  0  0
    6.1293   -1.5906    1.1517 C   0  0  0  0  0  0  0  0  0  0  0  0
    6.7447   -1.1703    2.3409 C   0  0  0  0  0  0  0  0  0  0  0  0
    8.1200   -0.9290    2.3839 C   0  0  0  0  0  0  0  0  0  0  0  0
    8.8963   -1.1053    1.2342 C   0  0  0  0  0  0  0  0  0  0  0  0
    8.2926   -1.5244    0.0444 C   0  0  0  0  0  0  0  0  0  0  0  0
    6.9172   -1.7661    0.0027 C   0  0  0  0  0  0  0  0  0  0  0  0
    2.9025    1.3954    0.1247 H   0  0  0  0  0  0  0  0  0  0  0  0
    1.1035    2.6659   -2.7495 H   0  0  0  0  0  0  0  0  0  0  0  0
    2.1033    3.3002   -1.4587 H   0  0  0  0  0  0  0  0  0  0  0  0
    1.1808    3.4763    0.7450 H   0  0  0  0  0  0  0  0  0  0  0  0
   -0.5841    2.9686    2.3949 H   0  0  0  0  0  0  0  0  0  0  0  0
   -3.3896    0.4817    1.6872 H   0  0  0  0  0  0  0  0  0  0  0  0
   -4.4465    2.6397    1.7911 H   0  0  0  0  0  0  0  0  0  0  0  0
   -3.0191    3.4102    2.5001 H   0  0  0  0  0  0  0  0  0  0  0  0
   -4.5510    0.3014    6.0213 H   0  0  0  0  0  0  0  0  0  0  0  0
   -2.4063    0.2367   -0.4003 H   0  0  0  0  0  0  0  0  0  0  0  0
   -0.6298    0.7283   -2.0430 H   0  0  0  0  0  0  0  0  0  0  0  0
    4.2664   -0.1588   -2.7790 H   0  0  0  0  0  0  0  0  0  0  0  0
    4.3765   -2.6005    0.3771 H   0  0  0  0  0  0  0  0  0  0  0  0
    4.2544   -2.1037    2.0959 H   0  0  0  0  0  0  0  0  0  0  0  0
    6.1405   -1.0341    3.2427 H   0  0  0  0  0  0  0  0  0  0  0  0
    8.5878   -0.6052    3.3171 H   0  0  0  0  0  0  0  0  0  0  0  0
    9.9727   -0.9186    1.2662 H   0  0  0  0  0  0  0  0  0  0  0  0
    8.8961   -1.6650   -0.8559 H   0  0  0  0  0  0  0  0  0  0  0  0
    6.4430   -2.0866   -0.9279 H   0  0  0  0  0  0  0  0  0  0  0  0
  1  2  2  0
  2  3  1  0
  2 24  1  0
  3  4  1  0
  3 32  1  0
  4  5  1  6
  4  6  1  0
  4 21  1  0
  6  7  1  0
  6 33  1  0
  6 34  1  0
  7  8  2  0
  7 20  1  0
  8  9  1  0
  8 35  1  0
  9 10  2  0
  9 36  1  0
 10 11  1  0
 10 19  1  0
 11 12  1  0
 11 18  1  0
 11 37  1  6
 12 13  1  0
 12 38  1  0
 12 39  1  0
 13 14  2  0
 13 15  1  0
 15 16  1  6
 15 17  1  0
 15 18  1  0
 17 40  1  0
 19 20  2  0
 19 41  1  0
 20 42  1  0
 21 22  2  0
 21 23  1  0
 23 43  1  0
 24 25  1  0
 25 26  1  0
 25 44  1  0
 25 45  1  0
 26 27  2  0
 26 31  1  0
 27 28  1  0
 27 46  1  0
 28 29  2  0
 28 47  1  0
 29 30  1  0
 29 48  1  0
 30 31  2  0
 30 49  1  0
 31 50  1  0
M  CHG  2  15   1  16  -1
M  END

