
     RDKit          3D

 43 43  0  0  0  0  0  0  0  0999 V2000
    0.7058   -2.0127   -2.4360 C   0  0  0  0  0  0  0  0  0  0  0  0
    2.0719   -1.8007   -1.7747 C   0  0  0  0  0  0  0  0  0  0  0  0
    2.7394   -0.4576   -2.1115 C   0  0  1  0  0  0  0  0  0  0  0  0
    1.9760    0.7553   -1.5735 C   0  0  0  0  0  0  0  0  0  0  0  0
    4.4607   -0.3468   -1.4392 S   0  0  0  0  0  0  0  0  0  0  0  0
    5.3357   -1.5343   -2.5443 C   0  0  0  0  0  0  0  0  0  0  0  0
    6.8790   -1.3953   -2.6377 C   0  0  1  0  0  0  0  0  0  0  0  0
    7.2937    0.0585   -3.0021 C   0  0  0  0  0  0  0  0  0  0  0  0
    8.6936    0.1843   -3.0242 O   0  0  0  0  0  0  0  0  0  0  0  0
    7.6526   -1.7701   -1.4409 N   0  0  0  0  0  0  0  0  0  0  0  0
    7.3788   -1.2405   -0.0946 C   0  0  1  0  0  0  0  0  0  0  0  0
    6.5901   -2.2304    0.7730 C   0  0  0  0  0  0  0  0  0  0  0  0
    8.6959   -0.8348    0.5825 C   0  0  0  0  0  0  0  0  0  0  0  0
    7.4280   -2.3196   -3.7448 C   0  0  1  0  0  0  0  0  0  0  0  0
    7.0929   -3.7868   -3.8636 C   0  0  0  0  0  0  0  0  0  0  0  0
    6.6741   -2.8200   -4.9468 C   0  0  0  0  0  0  0  0  0  0  0  0
    0.3158   -3.0180   -2.2104 H   0  0  0  0  0  0  0  0  0  0  0  0
    0.7713   -1.9224   -3.5335 H   0  0  0  0  0  0  0  0  0  0  0  0
   -0.0447   -1.2863   -2.0867 H   0  0  0  0  0  0  0  0  0  0  0  0
    2.7425   -2.6196   -2.0833 H   0  0  0  0  0  0  0  0  0  0  0  0
    1.9813   -1.8803   -0.6772 H   0  0  0  0  0  0  0  0  0  0  0  0
    2.8320   -0.3639   -3.2085 H   0  0  0  0  0  0  0  0  0  0  0  0
    1.8953    0.7156   -0.4745 H   0  0  0  0  0  0  0  0  0  0  0  0
    0.9553    0.7890   -1.9846 H   0  0  0  0  0  0  0  0  0  0  0  0
    2.4823    1.6936   -1.8447 H   0  0  0  0  0  0  0  0  0  0  0  0
    4.9135   -1.3681   -3.5463 H   0  0  0  0  0  0  0  0  0  0  0  0
    5.0863   -2.5626   -2.2402 H   0  0  0  0  0  0  0  0  0  0  0  0
    6.8336    0.7642   -2.2849 H   0  0  0  0  0  0  0  0  0  0  0  0
    6.8979    0.3133   -3.9999 H   0  0  0  0  0  0  0  0  0  0  0  0
    8.9906   -0.4344   -2.3299 H   0  0  0  0  0  0  0  0  0  0  0  0
    7.8128   -2.7742   -1.4164 H   0  0  0  0  0  0  0  0  0  0  0  0
    6.7723   -0.3284   -0.2092 H   0  0  0  0  0  0  0  0  0  0  0  0
    7.1514   -3.1744    0.8910 H   0  0  0  0  0  0  0  0  0  0  0  0
    5.6089   -2.4562    0.3304 H   0  0  0  0  0  0  0  0  0  0  0  0
    6.4140   -1.8235    1.7818 H   0  0  0  0  0  0  0  0  0  0  0  0
    9.3677   -1.7045    0.6810 H   0  0  0  0  0  0  0  0  0  0  0  0
    8.5204   -0.4269    1.5913 H   0  0  0  0  0  0  0  0  0  0  0  0
    9.2182   -0.0687   -0.0113 H   0  0  0  0  0  0  0  0  0  0  0  0
    8.4737   -2.0698   -3.9433 H   0  0  0  0  0  0  0  0  0  0  0  0
    6.3000   -4.2001   -3.2326 H   0  0  0  0  0  0  0  0  0  0  0  0
    7.9057   -4.4902   -4.0672 H   0  0  0  0  0  0  0  0  0  0  0  0
    5.6063   -2.6100   -5.0469 H   0  0  0  0  0  0  0  0  0  0  0  0
    7.2066   -2.8407   -5.9018 H   0  0  0  0  0  0  0  0  0  0  0  0
  1  2  1  0
  1 17  1  0
  1 18  1  0
  1 19  1  0
  2  3  1  0
  2 20  1  0
  2 21  1  0
  3  4  1  0
  3  5  1  0
  3 22  1  6
  4 23  1  0
  4 24  1  0
  4 25  1  0
  5  6  1  0
  6  7  1  0
  6 26  1  0
  6 27  1  0
  7  8  1  0
  7 10  1  1
  7 14  1  0
  8  9  1  0
  8 28  1  0
  8 29  1  0
  9 30  1  0
 10 11  1  0
 10 31  1  0
 11 12  1  0
 11 13  1  0
 11 32  1  6
 12 33  1  0
 12 34  1  0
 12 35  1  0
 13 36  1  0
 13 37  1  0
 13 38  1  0
 14 15  1  0
 14 16  1  0
 14 39  1  6
 15 16  1  0
 15 40  1  0
 15 41  1  0
 16 42  1  0
 16 43  1  0
M  END

