
     RDKit          3D

 32 33  0  0  0  0  0  0  0  0999 V2000
    1.0201    0.1189   -0.0979 C   0  0  0  0  0  0  0  0  0  0  0  0
    2.5481   -0.0316   -0.0880 C   0  0  1  0  0  0  0  0  0  0  0  0
    3.0665   -1.3411    0.3526 N   0  0  0  0  0  0  0  0  0  0  0  0
    2.4795   -2.5779   -0.1879 C   0  0  1  0  0  0  0  0  0  0  0  0
    2.8347   -2.7960   -1.6618 C   0  0  0  0  0  0  0  0  0  0  0  0
    2.9715   -3.7336    0.6675 C   0  0  1  0  0  0  0  0  0  0  0  0
    2.3115   -4.0417    1.9914 C   0  0  0  0  0  0  0  0  0  0  0  0
    2.1423   -4.9791    0.8207 C   0  0  0  0  0  0  0  0  0  0  0  0
    3.1381    0.3816   -1.4146 C   0  0  0  0  0  0  0  0  0  0  0  0
    2.4577    0.6841   -2.4983 N   0  0  0  0  0  0  0  0  0  0  0  0
    3.3500    1.0077   -3.4857 N   0  0  0  0  0  0  0  0  0  0  0  0
    4.5479    0.8955   -2.9719 C   0  0  0  0  0  0  0  0  0  0  0  0
    4.4848    0.5011   -1.6619 N   0  0  0  0  0  0  0  0  0  0  0  0
    5.5898    0.3047   -0.7397 C   0  0  0  0  0  0  0  0  0  0  0  0
    0.6072   -0.1810    0.8784 H   0  0  0  0  0  0  0  0  0  0  0  0
    0.5549   -0.4893   -0.8857 H   0  0  0  0  0  0  0  0  0  0  0  0
    0.7381    1.1631   -0.2942 H   0  0  0  0  0  0  0  0  0  0  0  0
    2.9427    0.6806    0.6607 H   0  0  0  0  0  0  0  0  0  0  0  0
    3.0028   -1.3830    1.3681 H   0  0  0  0  0  0  0  0  0  0  0  0
    1.3714   -2.5656   -0.1070 H   0  0  0  0  0  0  0  0  0  0  0  0
    3.9283   -2.8084   -1.7971 H   0  0  0  0  0  0  0  0  0  0  0  0
    2.4188   -2.0118   -2.3096 H   0  0  0  0  0  0  0  0  0  0  0  0
    2.4345   -3.7636   -2.0026 H   0  0  0  0  0  0  0  0  0  0  0  0
    4.0583   -3.8726    0.6259 H   0  0  0  0  0  0  0  0  0  0  0  0
    1.4449   -3.4398    2.2851 H   0  0  0  0  0  0  0  0  0  0  0  0
    2.9387   -4.3591    2.8293 H   0  0  0  0  0  0  0  0  0  0  0  0
    1.1649   -5.0069    0.3291 H   0  0  0  0  0  0  0  0  0  0  0  0
    2.6546   -5.9448    0.8473 H   0  0  0  0  0  0  0  0  0  0  0  0
    5.4873    1.0793   -3.4931 H   0  0  0  0  0  0  0  0  0  0  0  0
    6.5058    0.0934   -1.3089 H   0  0  0  0  0  0  0  0  0  0  0  0
    5.3545   -0.5466   -0.0873 H   0  0  0  0  0  0  0  0  0  0  0  0
    5.7588    1.2030   -0.1229 H   0  0  0  0  0  0  0  0  0  0  0  0
  1  2  1  0
  1 15  1  0
  1 16  1  0
  1 17  1  0
  2  3  1  0
  2  9  1  0
  2 18  1  1
  3  4  1  0
  3 19  1  0
  4  5  1  0
  4  6  1  0
  4 20  1  6
  5 21  1  0
  5 22  1  0
  5 23  1  0
  6  7  1  0
  6  8  1  0
  6 24  1  1
  7  8  1  0
  7 25  1  0
  7 26  1  0
  8 27  1  0
  8 28  1  0
  9 10  2  0
  9 13  1  0
 10 11  1  0
 11 12  2  0
 12 13  1  0
 12 29  1  0
 13 14  1  0
 14 30  1  0
 14 31  1  0
 14 32  1  0
M  END

