
     RDKit          3D

 36 36  0  0  0  0  0  0  0  0999 V2000
    1.0480    0.9070   -0.6970 C   0  0  0  0  0  0  0  0  0  0  0  0
    1.9339    0.2833    0.2053 O   0  0  0  0  0  0  0  0  0  0  0  0
    2.7938    1.0426    0.9301 C   0  0  0  0  0  0  0  0  0  0  0  0
    2.8709    2.4407    0.8581 C   0  0  0  0  0  0  0  0  0  0  0  0
    3.7970    3.1457    1.6468 C   0  0  0  0  0  0  0  0  0  0  0  0
    3.8882    4.6512    1.5624 C   0  0  0  0  0  0  0  0  0  0  0  0
    4.6409    2.4342    2.5071 C   0  0  0  0  0  0  0  0  0  0  0  0
    4.5685    1.0337    2.5876 C   0  0  0  0  0  0  0  0  0  0  0  0
    5.4760    0.2815    3.5421 C   0  0  0  0  0  0  0  0  0  0  0  0
    5.1042    0.4652    4.9433 N   0  0  0  0  0  0  0  0  0  0  0  0
    5.8428    1.1677    5.8265 C   0  0  0  0  0  0  0  0  0  0  0  0
    6.9188    1.6977    5.5211 O   0  0  0  0  0  0  0  0  0  0  0  0
    5.3235    1.2525    7.2497 C   0  0  0  0  0  0  0  0  0  0  0  0
    6.1780    0.0658    8.3657 S   0  0  0  0  0  0  0  0  0  0  0  0
    7.9444    0.5589    8.2093 C   0  0  0  0  0  0  0  0  0  0  0  0
    8.2206    2.0114    8.6095 C   0  0  0  0  0  0  0  0  0  0  0  0
    8.6174    2.3185    9.7030 O   0  0  0  0  0  0  0  0  0  0  0  0
    7.9715    2.9211    7.6610 O   0  0  0  0  0  0  0  0  0  0  0  0
    3.6469    0.3428    1.8006 C   0  0  0  0  0  0  0  0  0  0  0  0
    0.4614    0.1047   -1.1643 H   0  0  0  0  0  0  0  0  0  0  0  0
    1.5868    1.4616   -1.4864 H   0  0  0  0  0  0  0  0  0  0  0  0
    0.3582    1.6013   -0.1839 H   0  0  0  0  0  0  0  0  0  0  0  0
    2.2175    2.9993    0.1871 H   0  0  0  0  0  0  0  0  0  0  0  0
    3.1609    5.0653    0.8488 H   0  0  0  0  0  0  0  0  0  0  0  0
    4.8939    4.9711    1.2430 H   0  0  0  0  0  0  0  0  0  0  0  0
    3.7015    5.1176    2.5438 H   0  0  0  0  0  0  0  0  0  0  0  0
    5.3715    2.9707    3.1193 H   0  0  0  0  0  0  0  0  0  0  0  0
    6.5120    0.6360    3.4548 H   0  0  0  0  0  0  0  0  0  0  0  0
    5.4635   -0.7952    3.3091 H   0  0  0  0  0  0  0  0  0  0  0  0
    4.2111    0.0954    5.2480 H   0  0  0  0  0  0  0  0  0  0  0  0
    4.2587    0.9877    7.3278 H   0  0  0  0  0  0  0  0  0  0  0  0
    5.4562    2.2814    7.6146 H   0  0  0  0  0  0  0  0  0  0  0  0
    8.3056    0.3410    7.1934 H   0  0  0  0  0  0  0  0  0  0  0  0
    8.4571   -0.0933    8.9288 H   0  0  0  0  0  0  0  0  0  0  0  0
    7.6749    2.5025    6.8099 H   0  0  0  0  0  0  0  0  0  0  0  0
    3.5701   -0.7466    1.8338 H   0  0  0  0  0  0  0  0  0  0  0  0
  1  2  1  0
  1 20  1  0
  1 21  1  0
  1 22  1  0
  2  3  1  0
  3  4  2  0
  3 19  1  0
  4  5  1  0
  4 23  1  0
  5  6  1  0
  5  7  2  0
  6 24  1  0
  6 25  1  0
  6 26  1  0
  7  8  1  0
  7 27  1  0
  8  9  1  0
  8 19  2  0
  9 10  1  0
  9 28  1  0
  9 29  1  0
 10 11  1  0
 10 30  1  0
 11 12  2  0
 11 13  1  0
 13 14  1  0
 13 31  1  0
 13 32  1  0
 14 15  1  0
 15 16  1  0
 15 33  1  0
 15 34  1  0
 16 17  2  0
 16 18  1  0
 18 35  1  0
 19 36  1  0
M  END

