
     RDKit          3D

 41 42  0  0  0  0  0  0  0  0999 V2000
   -0.0047    0.9127    3.5111 C   0  0  0  0  0  0  0  0  0  0  0  0
    0.5712   -0.1054    2.7152 O   0  0  0  0  0  0  0  0  0  0  0  0
    1.9128   -0.1124    2.5196 C   0  0  0  0  0  0  0  0  0  0  0  0
    2.8066    0.7945    3.0977 C   0  0  0  0  0  0  0  0  0  0  0  0
    4.1876    0.7106    2.8379 C   0  0  0  0  0  0  0  0  0  0  0  0
    5.1221    1.7292    3.4633 C   0  0  0  0  0  0  0  0  0  0  0  0
    5.0618    3.0505    2.8206 N   0  0  0  0  0  0  0  0  0  0  0  0
    5.9177    3.2470    1.6619 C   0  0  0  0  0  0  0  0  0  0  0  0
    4.2285    3.9855    3.3763 C   0  0  0  0  0  0  0  0  0  0  0  0
    3.6177    3.7801    4.4201 O   0  0  0  0  0  0  0  0  0  0  0  0
    4.0382    5.3160    2.6826 C   0  0  0  0  0  0  0  0  0  0  0  0
    4.0944    6.4771    3.4707 C   0  0  0  0  0  0  0  0  0  0  0  0
    3.8274    7.7281    2.9128 C   0  0  0  0  0  0  0  0  0  0  0  0
    3.4662    7.8381    1.5694 C   0  0  0  0  0  0  0  0  0  0  0  0
    3.3727    6.6786    0.7789 C   0  0  0  0  0  0  0  0  0  0  0  0
    2.9811    6.7742   -0.6008 C   0  0  0  0  0  0  0  0  0  0  0  0
    2.6684    6.8504   -1.7164 N   0  0  0  0  0  0  0  0  0  0  0  0
    3.6647    5.4203    1.3384 C   0  0  0  0  0  0  0  0  0  0  0  0
    4.6678   -0.2978    1.9977 C   0  0  0  0  0  0  0  0  0  0  0  0
    3.7808   -1.2152    1.4214 C   0  0  0  0  0  0  0  0  0  0  0  0
    2.4173   -1.1280    1.6721 C   0  0  0  0  0  0  0  0  0  0  0  0
    1.5581   -1.9959    1.0266 O   0  0  0  0  0  0  0  0  0  0  0  0
    0.8972   -2.9276    1.7871 C   0  0  1  0  0  0  0  0  0  0  0  0
   -0.0216   -3.4912    0.9936 F   0  0  0  0  0  0  0  0  0  0  0  0
    1.7576   -3.8993    2.1852 F   0  0  0  0  0  0  0  0  0  0  0  0
   -1.0883    0.7373    3.5015 H   0  0  0  0  0  0  0  0  0  0  0  0
    0.2036    1.9151    3.0993 H   0  0  0  0  0  0  0  0  0  0  0  0
    0.3597    0.8726    4.5524 H   0  0  0  0  0  0  0  0  0  0  0  0
    2.4478    1.5840    3.7583 H   0  0  0  0  0  0  0  0  0  0  0  0
    6.1613    1.3717    3.4019 H   0  0  0  0  0  0  0  0  0  0  0  0
    4.8671    1.8756    4.5209 H   0  0  0  0  0  0  0  0  0  0  0  0
    6.9362    2.8918    1.8917 H   0  0  0  0  0  0  0  0  0  0  0  0
    5.9857    4.3080    1.3983 H   0  0  0  0  0  0  0  0  0  0  0  0
    5.5567    2.6861    0.7819 H   0  0  0  0  0  0  0  0  0  0  0  0
    4.3406    6.3828    4.5302 H   0  0  0  0  0  0  0  0  0  0  0  0
    3.8900    8.6257    3.5322 H   0  0  0  0  0  0  0  0  0  0  0  0
    3.2466    8.8120    1.1281 H   0  0  0  0  0  0  0  0  0  0  0  0
    3.5737    4.5293    0.7148 H   0  0  0  0  0  0  0  0  0  0  0  0
    5.7386   -0.3813    1.7946 H   0  0  0  0  0  0  0  0  0  0  0  0
    4.1309   -2.0121    0.7630 H   0  0  0  0  0  0  0  0  0  0  0  0
    0.4155   -2.4990    2.6804 H   0  0  0  0  0  0  0  0  0  0  0  0
  1  2  1  0
  1 26  1  0
  1 27  1  0
  1 28  1  0
  2  3  1  0
  3  4  2  0
  3 21  1  0
  4  5  1  0
  4 29  1  0
  5  6  1  0
  5 19  2  0
  6  7  1  0
  6 30  1  0
  6 31  1  0
  7  8  1  0
  7  9  1  0
  8 32  1  0
  8 33  1  0
  8 34  1  0
  9 10  2  0
  9 11  1  0
 11 12  2  0
 11 18  1  0
 12 13  1  0
 12 35  1  0
 13 14  2  0
 13 36  1  0
 14 15  1  0
 14 37  1  0
 15 16  1  0
 15 18  2  0
 16 17  3  0
 18 38  1  0
 19 20  1  0
 19 39  1  0
 20 21  2  0
 20 40  1  0
 21 22  1  0
 22 23  1  0
 23 24  1  0
 23 25  1  0
 23 41  1  1
M  END

