
     RDKit          3D

 68 71  0  0  0  0  0  0  0  0999 V2000
    3.0721    1.8716    1.6568 C   0  0  0  0  0  0  0  0  0  0  0  0
    2.7155    0.5219    2.3080 C   0  0  1  0  0  0  0  0  0  0  0  0
    3.6856    0.2459    3.4727 C   0  0  0  0  0  0  0  0  0  0  0  0
    1.2829    0.6157    2.8721 C   0  0  0  0  0  0  0  0  0  0  0  0
    2.7341   -0.6500    1.2872 C   0  0  0  0  0  0  0  0  0  0  0  0
    4.0353   -1.0073    0.5465 C   0  0  2  0  0  0  0  0  0  0  0  0
    4.4172   -0.1395   -0.6649 C   0  0  0  0  0  0  0  0  0  0  0  0
    5.4360   -0.9726   -1.4747 C   0  0  2  0  0  0  0  0  0  0  0  0
    5.5777   -0.4097   -2.9021 C   0  0  0  0  0  0  0  0  0  0  0  0
    6.6865   -0.9162   -3.8682 C   0  0  1  0  0  0  0  0  0  0  0  0
    6.3611   -2.3120   -4.4360 C   0  0  0  0  0  0  0  0  0  0  0  0
    6.7470    0.0738   -5.0507 C   0  0  0  0  0  0  0  0  0  0  0  0
    8.0636   -0.9362   -3.1790 C   0  0  0  0  0  0  0  0  0  0  0  0
    4.9214   -2.4302   -1.3191 C   0  0  1  0  0  0  0  0  0  0  0  0
    5.9675   -3.5188   -0.9606 C   0  0  1  0  0  0  0  0  0  0  0  0
    6.0819   -3.4008    0.5724 C   0  0  0  0  0  0  0  0  0  0  0  0
    4.5655   -3.5643    0.8185 C   0  0  2  0  0  0  0  0  0  0  0  0
    4.2911   -4.9153    0.1172 C   0  0  0  0  0  0  0  0  0  0  0  0
    5.3042   -4.9069   -1.0772 C   0  0  1  0  0  0  0  0  0  0  0  0
    4.7127   -5.0832   -2.3577 O   0  0  0  0  0  0  0  0  0  0  0  0
    4.3819   -6.4092   -2.6891 C   0  0  1  0  0  0  0  0  0  0  0  0
    3.6813   -6.3978   -4.0659 C   0  0  0  0  0  0  0  0  0  0  0  0
    4.6044   -7.2442   -4.9644 C   0  0  0  0  0  0  0  0  0  0  0  0
    5.9261   -7.2083   -4.1924 C   0  0  0  0  0  0  0  0  0  0  0  0
    5.5256   -7.2257   -2.8259 O   0  0  0  0  0  0  0  0  0  0  0  0
    3.9813   -2.4349   -0.0583 C   0  0  1  0  0  0  0  0  0  0  0  0
    2.9186    2.6975    2.3712 H   0  0  0  0  0  0  0  0  0  0  0  0
    2.4424    2.0720    0.7744 H   0  0  0  0  0  0  0  0  0  0  0  0
    4.1235    1.9092    1.3357 H   0  0  0  0  0  0  0  0  0  0  0  0
    3.6207    1.0420    4.2328 H   0  0  0  0  0  0  0  0  0  0  0  0
    4.7332    0.2010    3.1353 H   0  0  0  0  0  0  0  0  0  0  0  0
    3.4513   -0.7101    3.9702 H   0  0  0  0  0  0  0  0  0  0  0  0
    1.2033    1.4185    3.6236 H   0  0  0  0  0  0  0  0  0  0  0  0
    0.9802   -0.3277    3.3557 H   0  0  0  0  0  0  0  0  0  0  0  0
    0.5534    0.8306    2.0737 H   0  0  0  0  0  0  0  0  0  0  0  0
    1.9468   -0.4674    0.5317 H   0  0  0  0  0  0  0  0  0  0  0  0
    2.4074   -1.5500    1.8393 H   0  0  0  0  0  0  0  0  0  0  0  0
    4.8730   -0.9738    1.2647 H   0  0  0  0  0  0  0  0  0  0  0  0
    4.8168    0.8503   -0.3982 H   0  0  0  0  0  0  0  0  0  0  0  0
    3.5168    0.0368   -1.2834 H   0  0  0  0  0  0  0  0  0  0  0  0
    6.4110   -0.8848   -0.9628 H   0  0  0  0  0  0  0  0  0  0  0  0
    5.7272    0.6800   -2.7914 H   0  0  0  0  0  0  0  0  0  0  0  0
    4.6033   -0.5197   -3.4142 H   0  0  0  0  0  0  0  0  0  0  0  0
    5.4042   -2.2971   -4.9839 H   0  0  0  0  0  0  0  0  0  0  0  0
    6.2792   -3.0849   -3.6605 H   0  0  0  0  0  0  0  0  0  0  0  0
    7.1434   -2.6307   -5.1457 H   0  0  0  0  0  0  0  0  0  0  0  0
    5.7682    0.1552   -5.5522 H   0  0  0  0  0  0  0  0  0  0  0  0
    7.4825   -0.2527   -5.8044 H   0  0  0  0  0  0  0  0  0  0  0  0
    7.0355    1.0838   -4.7151 H   0  0  0  0  0  0  0  0  0  0  0  0
    8.1146   -1.6856   -2.3746 H   0  0  0  0  0  0  0  0  0  0  0  0
    8.3046    0.0456   -2.7376 H   0  0  0  0  0  0  0  0  0  0  0  0
    8.8580   -1.1782   -3.9044 H   0  0  0  0  0  0  0  0  0  0  0  0
    4.3702   -2.7255   -2.2218 H   0  0  0  0  0  0  0  0  0  0  0  0
    6.9093   -3.4502   -1.5221 H   0  0  0  0  0  0  0  0  0  0  0  0
    6.4896   -2.4369    0.9106 H   0  0  0  0  0  0  0  0  0  0  0  0
    6.6864   -4.2037    1.0252 H   0  0  0  0  0  0  0  0  0  0  0  0
    4.2350   -3.5301    1.8682 H   0  0  0  0  0  0  0  0  0  0  0  0
    3.2541   -4.9914   -0.2451 H   0  0  0  0  0  0  0  0  0  0  0  0
    4.4736   -5.7641    0.7946 H   0  0  0  0  0  0  0  0  0  0  0  0
    6.0705   -5.6870   -0.9397 H   0  0  0  0  0  0  0  0  0  0  0  0
    3.7790   -6.8585   -1.8794 H   0  0  0  0  0  0  0  0  0  0  0  0
    3.6156   -5.3554   -4.4089 H   0  0  0  0  0  0  0  0  0  0  0  0
    2.6601   -6.8005   -4.0065 H   0  0  0  0  0  0  0  0  0  0  0  0
    4.6924   -6.8492   -5.9876 H   0  0  0  0  0  0  0  0  0  0  0  0
    4.2404   -8.2818   -5.0316 H   0  0  0  0  0  0  0  0  0  0  0  0
    6.4995   -6.2900   -4.4227 H   0  0  0  0  0  0  0  0  0  0  0  0
    6.5764   -8.0780   -4.3678 H   0  0  0  0  0  0  0  0  0  0  0  0
    2.9395   -2.6634   -0.3397 H   0  0  0  0  0  0  0  0  0  0  0  0
  2  1  1  6
  1 27  1  0
  1 28  1  0
  1 29  1  0
  2  3  1  0
  2  4  1  0
  2  5  1  0
  3 30  1  0
  3 31  1  0
  3 32  1  0
  4 33  1  0
  4 34  1  0
  4 35  1  0
  5  6  1  0
  5 36  1  0
  5 37  1  0
  6  7  1  0
  6 26  1  0
  6 38  1  1
  7  8  1  0
  7 39  1  0
  7 40  1  0
  8  9  1  0
  8 14  1  0
  8 41  1  1
 10  9  1  1
  9 42  1  0
  9 43  1  0
 10 11  1  0
 10 12  1  0
 10 13  1  0
 11 44  1  0
 11 45  1  0
 11 46  1  0
 12 47  1  0
 12 48  1  0
 12 49  1  0
 13 50  1  0
 13 51  1  0
 13 52  1  0
 14 15  1  0
 14 26  1  0
 14 53  1  6
 15 16  1  0
 15 19  1  0
 15 54  1  6
 16 17  1  0
 16 55  1  0
 16 56  1  0
 17 18  1  0
 17 26  1  0
 17 57  1  1
 18 19  1  0
 18 58  1  0
 18 59  1  0
 19 20  1  0
 19 60  1  1
 20 21  1  0
 21 22  1  0
 21 25  1  0
 21 61  1  1
 22 23  1  0
 22 62  1  0
 22 63  1  0
 23 24  1  0
 23 64  1  0
 23 65  1  0
 24 25  1  0
 24 66  1  0
 24 67  1  0
 26 68  1  6
M  END

