
     RDKit          3D

218221  0  0  0  0  0  0  0  0999 V2000
    1.3584    0.5362    0.2166 C   0  0  0  0  0  0  0  0  0  0  0  0
    2.8724    0.2659    0.2701 C   0  0  1  0  0  0  0  0  0  0  0  0
    3.5356    1.1102    1.3715 C   0  0  0  0  0  0  0  0  0  0  0  0
    3.2731   -1.6112    0.3736 Si  0  0  1  0  0  4  0  0  0  0  0  0
    2.6075   -2.2685    1.9764 C   0  0  0  0  0  0  0  0  0  0  0  0
    2.2070   -2.7003    3.0503 C   0  0  0  0  0  0  0  0  0  0  0  0
    1.7648   -3.2066    4.3148 C   0  0  0  0  0  0  0  0  0  0  0  0
    1.2366   -2.3366    5.2859 C   0  0  0  0  0  0  0  0  0  0  0  0
    0.8348   -2.8068    6.5442 C   0  0  0  0  0  0  0  0  0  0  0  0
    0.3151   -1.9001    7.5618 C   0  0  0  0  0  0  0  0  0  0  0  0
    0.1431   -0.5224    7.2321 C   0  0  0  0  0  0  0  0  0  0  0  0
   -0.0248    0.6410    6.8848 C   0  0  0  0  0  0  0  0  0  0  0  0
   -0.2656    2.3848    6.2883 Si  0  0  1  0  0  4  0  0  0  0  0  0
   -1.2016    2.3103    4.6160 C   0  0  1  0  0  0  0  0  0  0  0  0
   -0.3834    1.6100    3.5186 C   0  0  0  0  0  0  0  0  0  0  0  0
   -2.6038    1.6866    4.7279 C   0  0  0  0  0  0  0  0  0  0  0  0
   -1.2337    3.3665    7.6242 C   0  0  1  0  0  0  0  0  0  0  0  0
   -1.7842    4.7052    7.0972 C   0  0  0  0  0  0  0  0  0  0  0  0
   -2.3382    2.5579    8.3264 C   0  0  0  0  0  0  0  0  0  0  0  0
    1.5037    3.0851    6.0233 C   0  0  1  0  0  0  0  0  0  0  0  0
    1.5484    4.4540    5.3222 C   0  0  0  0  0  0  0  0  0  0  0  0
    2.3363    3.0968    7.3164 C   0  0  0  0  0  0  0  0  0  0  0  0
   -0.0127   -2.3791    8.8287 C   0  0  0  0  0  0  0  0  0  0  0  0
   -0.4183   -1.4938    9.8719 C   0  0  0  0  0  0  0  0  0  0  0  0
   -0.7205   -0.7870   10.8267 C   0  0  0  0  0  0  0  0  0  0  0  0
   -1.1391    0.2221   12.3305 Si  0  0  1  0  0  4  0  0  0  0  0  0
   -0.1301   -0.4785   13.8040 C   0  0  1  0  0  0  0  0  0  0  0  0
   -0.5538   -1.9074   14.1835 C   0  0  0  0  0  0  0  0  0  0  0  0
    1.3914   -0.4024   13.5874 C   0  0  0  0  0  0  0  0  0  0  0  0
   -0.7214    2.0633   11.9752 C   0  0  1  0  0  0  0  0  0  0  0  0
   -0.6608    2.9177   13.2555 C   0  0  0  0  0  0  0  0  0  0  0  0
    0.5378    2.2739   11.1161 C   0  0  0  0  0  0  0  0  0  0  0  0
   -3.0169   -0.0433   12.6329 C   0  0  1  0  0  0  0  0  0  0  0  0
   -3.5368    0.5609   13.9491 C   0  0  0  0  0  0  0  0  0  0  0  0
   -3.8821    0.3995   11.4411 C   0  0  0  0  0  0  0  0  0  0  0  0
    0.0763   -3.8045    9.1220 C   0  0  0  0  0  0  0  0  0  0  0  0
   -0.3230   -4.3183   10.3638 C   0  0  0  0  0  0  0  0  0  0  0  0
   -0.2504   -5.6946   10.6423 C   0  0  0  0  0  0  0  0  0  0  0  0
   -0.6912   -6.2055   11.9048 C   0  0  0  0  0  0  0  0  0  0  0  0
   -1.0796   -6.6504   12.9775 C   0  0  0  0  0  0  0  0  0  0  0  0
   -1.6568   -7.3570   14.5929 Si  0  0  1  0  0  4  0  0  0  0  0  0
   -3.2726   -6.4547   15.1164 C   0  0  1  0  0  0  0  0  0  0  0  0
   -3.5941   -6.6304   16.6127 C   0  0  0  0  0  0  0  0  0  0  0  0
   -3.3380   -4.9725   14.7098 C   0  0  0  0  0  0  0  0  0  0  0  0
   -1.9819   -9.2209   14.2673 C   0  0  1  0  0  0  0  0  0  0  0  0
   -2.2795  -10.0394   15.5357 C   0  0  0  0  0  0  0  0  0  0  0  0
   -3.0569   -9.4542   13.1924 C   0  0  0  0  0  0  0  0  0  0  0  0
   -0.2395   -7.1407   15.8660 C   0  0  1  0  0  0  0  0  0  0  0  0
    1.0105   -7.9531   15.4841 C   0  0  0  0  0  0  0  0  0  0  0  0
    0.1238   -5.6661   16.1125 C   0  0  0  0  0  0  0  0  0  0  0  0
    0.2544   -6.5677    9.6627 C   0  0  0  0  0  0  0  0  0  0  0  0
    0.6681   -6.0950    8.4099 C   0  0  0  0  0  0  0  0  0  0  0  0
    1.1997   -6.9999    7.3991 C   0  0  0  0  0  0  0  0  0  0  0  0
    1.3141   -8.3872    7.7119 C   0  0  0  0  0  0  0  0  0  0  0  0
    1.4010   -9.5680    8.0283 C   0  0  0  0  0  0  0  0  0  0  0  0
    1.5382  -11.3582    8.5045 Si  0  0  1  0  0  4  0  0  0  0  0  0
    0.9380  -12.3862    6.9921 C   0  0  1  0  0  0  0  0  0  0  0  0
    0.7501  -13.8820    7.3042 C   0  0  0  0  0  0  0  0  0  0  0  0
   -0.2991  -11.8149    6.2776 C   0  0  0  0  0  0  0  0  0  0  0  0
    3.4008  -11.7448    8.8186 C   0  0  1  0  0  0  0  0  0  0  0  0
    4.2115  -10.5622    9.3783 C   0  0  0  0  0  0  0  0  0  0  0  0
    3.6296  -13.0114    9.6650 C   0  0  0  0  0  0  0  0  0  0  0  0
    0.4775  -11.6480   10.0763 C   0  0  1  0  0  0  0  0  0  0  0  0
    0.9694  -10.8304   11.2838 C   0  0  0  0  0  0  0  0  0  0  0  0
   -1.0273  -11.4227    9.8477 C   0  0  0  0  0  0  0  0  0  0  0  0
    1.5968   -6.5113    6.1556 C   0  0  0  0  0  0  0  0  0  0  0  0
    2.1282   -7.3930    5.1680 C   0  0  0  0  0  0  0  0  0  0  0  0
    2.5903   -8.1321    4.3068 C   0  0  0  0  0  0  0  0  0  0  0  0
    3.3204   -9.2770    3.0392 Si  0  0  1  0  0  4  0  0  0  0  0  0
    3.7197   -8.2580    1.4668 C   0  0  1  0  0  0  0  0  0  0  0  0
    2.4727   -7.6482    0.8043 C   0  0  0  0  0  0  0  0  0  0  0  0
    4.7846   -7.1786    1.7300 C   0  0  0  0  0  0  0  0  0  0  0  0
    4.9467   -9.9412    3.8165 C   0  0  1  0  0  0  0  0  0  0  0  0
    4.7006  -10.7377    5.1083 C   0  0  0  0  0  0  0  0  0  0  0  0
    5.8466  -10.7239    2.8445 C   0  0  0  0  0  0  0  0  0  0  0  0
    2.0550  -10.6870    2.7148 C   0  0  1  0  0  0  0  0  0  0  0  0
    0.5849  -10.2324    2.7006 C   0  0  0  0  0  0  0  0  0  0  0  0
    2.3896  -11.5100    1.4566 C   0  0  0  0  0  0  0  0  0  0  0  0
    1.4794   -5.0908    5.8510 C   0  0  0  0  0  0  0  0  0  0  0  0
    1.8732   -4.5782    4.6071 C   0  0  0  0  0  0  0  0  0  0  0  0
    0.9600   -4.2001    6.8426 C   0  0  0  0  0  0  0  0  0  0  0  0
    0.5677   -4.6984    8.1198 C   0  0  0  0  0  0  0  0  0  0  0  0
    2.3189   -2.4916   -1.0419 C   0  0  1  0  0  0  0  0  0  0  0  0
    2.7479   -2.0196   -2.4430 C   0  0  0  0  0  0  0  0  0  0  0  0
    2.2777   -4.0258   -0.9473 C   0  0  0  0  0  0  0  0  0  0  0  0
    5.1831   -1.8712    0.3536 C   0  0  1  0  0  0  0  0  0  0  0  0
    5.8238   -1.6861    1.7423 C   0  0  0  0  0  0  0  0  0  0  0  0
    5.6489   -3.2041   -0.2578 C   0  0  0  0  0  0  0  0  0  0  0  0
    1.1556    1.6193    0.1467 H   0  0  0  0  0  0  0  0  0  0  0  0
    0.8521    0.1674    1.1237 H   0  0  0  0  0  0  0  0  0  0  0  0
    0.8747    0.0589   -0.6496 H   0  0  0  0  0  0  0  0  0  0  0  0
    3.3063    0.5855   -0.6978 H   0  0  0  0  0  0  0  0  0  0  0  0
    3.2125    0.7905    2.3765 H   0  0  0  0  0  0  0  0  0  0  0  0
    3.2642    2.1752    1.2632 H   0  0  0  0  0  0  0  0  0  0  0  0
    4.6341    1.0516    1.3405 H   0  0  0  0  0  0  0  0  0  0  0  0
    1.1508   -1.2739    5.0616 H   0  0  0  0  0  0  0  0  0  0  0  0
   -1.3271    3.3691    4.3174 H   0  0  0  0  0  0  0  0  0  0  0  0
   -0.2002    0.5513    3.7677 H   0  0  0  0  0  0  0  0  0  0  0  0
    0.5960    2.0840    3.3501 H   0  0  0  0  0  0  0  0  0  0  0  0
   -0.9233    1.6264    2.5560 H   0  0  0  0  0  0  0  0  0  0  0  0
   -2.5545    0.6473    5.0932 H   0  0  0  0  0  0  0  0  0  0  0  0
   -3.1017    1.6645    3.7425 H   0  0  0  0  0  0  0  0  0  0  0  0
   -3.2596    2.2465    5.4118 H   0  0  0  0  0  0  0  0  0  0  0  0
   -0.4675    3.5984    8.3872 H   0  0  0  0  0  0  0  0  0  0  0  0
   -2.5669    4.5516    6.3354 H   0  0  0  0  0  0  0  0  0  0  0  0
   -1.0055    5.3383    6.6441 H   0  0  0  0  0  0  0  0  0  0  0  0
   -2.2433    5.2877    7.9151 H   0  0  0  0  0  0  0  0  0  0  0  0
   -3.1577    2.2962    7.6379 H   0  0  0  0  0  0  0  0  0  0  0  0
   -2.7854    3.1456    9.1477 H   0  0  0  0  0  0  0  0  0  0  0  0
   -1.9566    1.6186    8.7529 H   0  0  0  0  0  0  0  0  0  0  0  0
    1.9682    2.3474    5.3419 H   0  0  0  0  0  0  0  0  0  0  0  0
    1.1399    5.2534    5.9624 H   0  0  0  0  0  0  0  0  0  0  0  0
    0.9823    4.4660    4.3770 H   0  0  0  0  0  0  0  0  0  0  0  0
    2.5886    4.7377    5.0839 H   0  0  0  0  0  0  0  0  0  0  0  0
    1.9424    3.8230    8.0474 H   0  0  0  0  0  0  0  0  0  0  0  0
    3.3820    3.3844    7.1091 H   0  0  0  0  0  0  0  0  0  0  0  0
    2.3537    2.1103    7.8056 H   0  0  0  0  0  0  0  0  0  0  0  0
   -0.3822    0.1835   14.6549 H   0  0  0  0  0  0  0  0  0  0  0  0
   -0.3549   -2.6185   13.3647 H   0  0  0  0  0  0  0  0  0  0  0  0
   -1.6242   -1.9811   14.4308 H   0  0  0  0  0  0  0  0  0  0  0  0
    0.0108   -2.2642   15.0626 H   0  0  0  0  0  0  0  0  0  0  0  0
    1.7026   -0.9919   12.7091 H   0  0  0  0  0  0  0  0  0  0  0  0
    1.9321   -0.8056   14.4617 H   0  0  0  0  0  0  0  0  0  0  0  0
    1.7429    0.6293   13.4338 H   0  0  0  0  0  0  0  0  0  0  0  0
   -1.5825    2.4177   11.3790 H   0  0  0  0  0  0  0  0  0  0  0  0
    0.1897    2.6307   13.8963 H   0  0  0  0  0  0  0  0  0  0  0  0
   -1.5734    2.8371   13.8665 H   0  0  0  0  0  0  0  0  0  0  0  0
   -0.5282    3.9852   13.0064 H   0  0  0  0  0  0  0  0  0  0  0  0
    1.4530    1.9613   11.6445 H   0  0  0  0  0  0  0  0  0  0  0  0
    0.6613    3.3424   10.8654 H   0  0  0  0  0  0  0  0  0  0  0  0
    0.4956    1.7090   10.1732 H   0  0  0  0  0  0  0  0  0  0  0  0
   -3.1082   -1.1430   12.7123 H   0  0  0  0  0  0  0  0  0  0  0  0
   -3.5155    1.6631   13.9271 H   0  0  0  0  0  0  0  0  0  0  0  0
   -2.9536    0.2364   14.8259 H   0  0  0  0  0  0  0  0  0  0  0  0
   -4.5859    0.2664   14.1273 H   0  0  0  0  0  0  0  0  0  0  0  0
   -3.8521    1.4932   11.3002 H   0  0  0  0  0  0  0  0  0  0  0  0
   -4.9397    0.1246   11.5991 H   0  0  0  0  0  0  0  0  0  0  0  0
   -3.5551   -0.0649   10.4977 H   0  0  0  0  0  0  0  0  0  0  0  0
   -0.7072   -3.6385   11.1232 H   0  0  0  0  0  0  0  0  0  0  0  0
   -4.0609   -6.9803   14.5451 H   0  0  0  0  0  0  0  0  0  0  0  0
   -2.8564   -6.1155   17.2506 H   0  0  0  0  0  0  0  0  0  0  0  0
   -3.6142   -7.6870   16.9230 H   0  0  0  0  0  0  0  0  0  0  0  0
   -4.5823   -6.2009   16.8537 H   0  0  0  0  0  0  0  0  0  0  0  0
   -2.5811   -4.3684   15.2363 H   0  0  0  0  0  0  0  0  0  0  0  0
   -4.3252   -4.5442   14.9584 H   0  0  0  0  0  0  0  0  0  0  0  0
   -3.1739   -4.8344   13.6305 H   0  0  0  0  0  0  0  0  0  0  0  0
   -1.0214   -9.5813   13.8532 H   0  0  0  0  0  0  0  0  0  0  0  0
   -3.2450   -9.7554   15.9866 H   0  0  0  0  0  0  0  0  0  0  0  0
   -1.5050   -9.9183   16.3102 H   0  0  0  0  0  0  0  0  0  0  0  0
   -2.3426  -11.1169   15.3022 H   0  0  0  0  0  0  0  0  0  0  0  0
   -4.0547   -9.1350   13.5386 H   0  0  0  0  0  0  0  0  0  0  0  0
   -3.1346  -10.5260   12.9378 H   0  0  0  0  0  0  0  0  0  0  0  0
   -2.8373   -8.9069   12.2624 H   0  0  0  0  0  0  0  0  0  0  0  0
   -0.6359   -7.5535   16.8135 H   0  0  0  0  0  0  0  0  0  0  0  0
    1.4264   -7.6176   14.5193 H   0  0  0  0  0  0  0  0  0  0  0  0
    0.8024   -9.0312   15.3972 H   0  0  0  0  0  0  0  0  0  0  0  0
    1.8040   -7.8327   16.2424 H   0  0  0  0  0  0  0  0  0  0  0  0
    0.4776   -5.1797   15.1884 H   0  0  0  0  0  0  0  0  0  0  0  0
    0.9329   -5.5805   16.8592 H   0  0  0  0  0  0  0  0  0  0  0  0
   -0.7296   -5.0800   16.4872 H   0  0  0  0  0  0  0  0  0  0  0  0
    0.3233   -7.6328    9.8799 H   0  0  0  0  0  0  0  0  0  0  0  0
    1.7868  -12.2978    6.2865 H   0  0  0  0  0  0  0  0  0  0  0  0
   -0.0645  -14.0484    8.0292 H   0  0  0  0  0  0  0  0  0  0  0  0
    1.6585  -14.3480    7.7166 H   0  0  0  0  0  0  0  0  0  0  0  0
    0.4850  -14.4420    6.3902 H   0  0  0  0  0  0  0  0  0  0  0  0
   -1.2064  -11.8943    6.8974 H   0  0  0  0  0  0  0  0  0  0  0  0
   -0.4978  -12.3701    5.3440 H   0  0  0  0  0  0  0  0  0  0  0  0
   -0.1709  -10.7544    6.0145 H   0  0  0  0  0  0  0  0  0  0  0  0
    3.7907  -11.9512    7.8039 H   0  0  0  0  0  0  0  0  0  0  0  0
    3.8849  -10.2820   10.3932 H   0  0  0  0  0  0  0  0  0  0  0  0
    4.1233   -9.6651    8.7475 H   0  0  0  0  0  0  0  0  0  0  0  0
    5.2824  -10.8235    9.4441 H   0  0  0  0  0  0  0  0  0  0  0  0
    3.2805  -12.8782   10.7023 H   0  0  0  0  0  0  0  0  0  0  0  0
    4.7053  -13.2546    9.7180 H   0  0  0  0  0  0  0  0  0  0  0  0
    3.1170  -13.8971    9.2584 H   0  0  0  0  0  0  0  0  0  0  0  0
    0.6248  -12.7189   10.3156 H   0  0  0  0  0  0  0  0  0  0  0  0
    0.8785   -9.7466   11.1034 H   0  0  0  0  0  0  0  0  0  0  0  0
    2.0214  -11.0346   11.5338 H   0  0  0  0  0  0  0  0  0  0  0  0
    0.3688  -11.0602   12.1814 H   0  0  0  0  0  0  0  0  0  0  0  0
   -1.2375  -10.3907    9.5208 H   0  0  0  0  0  0  0  0  0  0  0  0
   -1.5940  -11.5905   10.7804 H   0  0  0  0  0  0  0  0  0  0  0  0
   -1.4423  -12.1010    9.0872 H   0  0  0  0  0  0  0  0  0  0  0  0
    4.1515   -8.9902    0.7576 H   0  0  0  0  0  0  0  0  0  0  0  0
    1.9518   -6.9535    1.4844 H   0  0  0  0  0  0  0  0  0  0  0  0
    1.7449   -8.4144    0.4969 H   0  0  0  0  0  0  0  0  0  0  0  0
    2.7472   -7.0758   -0.0984 H   0  0  0  0  0  0  0  0  0  0  0  0
    4.4294   -6.4313    2.4593 H   0  0  0  0  0  0  0  0  0  0  0  0
    5.0312   -6.6360    0.8007 H   0  0  0  0  0  0  0  0  0  0  0  0
    5.7244   -7.5984    2.1217 H   0  0  0  0  0  0  0  0  0  0  0  0
    5.4859   -9.0178    4.1001 H   0  0  0  0  0  0  0  0  0  0  0  0
    4.1896  -11.6940    4.9030 H   0  0  0  0  0  0  0  0  0  0  0  0
    4.0830  -10.1770    5.8271 H   0  0  0  0  0  0  0  0  0  0  0  0
    5.6537  -10.9845    5.6082 H   0  0  0  0  0  0  0  0  0  0  0  0
    5.3873  -11.6796    2.5419 H   0  0  0  0  0  0  0  0  0  0  0  0
    6.8125  -10.9714    3.3191 H   0  0  0  0  0  0  0  0  0  0  0  0
    6.0706  -10.1596    1.9252 H   0  0  0  0  0  0  0  0  0  0  0  0
    2.1777  -11.3521    3.5905 H   0  0  0  0  0  0  0  0  0  0  0  0
    0.3647   -9.5787    1.8412 H   0  0  0  0  0  0  0  0  0  0  0  0
    0.3154   -9.6789    3.6124 H   0  0  0  0  0  0  0  0  0  0  0  0
   -0.0897  -11.1033    2.6250 H   0  0  0  0  0  0  0  0  0  0  0  0
    2.2833  -10.9093    0.5377 H   0  0  0  0  0  0  0  0  0  0  0  0
    1.7043  -12.3701    1.3581 H   0  0  0  0  0  0  0  0  0  0  0  0
    3.4153  -11.9107    1.4695 H   0  0  0  0  0  0  0  0  0  0  0  0
    2.2765   -5.2555    3.8548 H   0  0  0  0  0  0  0  0  0  0  0  0
    1.2827   -2.1402   -0.8802 H   0  0  0  0  0  0  0  0  0  0  0  0
    3.7844   -2.3147   -2.6774 H   0  0  0  0  0  0  0  0  0  0  0  0
    2.6851   -0.9252   -2.5561 H   0  0  0  0  0  0  0  0  0  0  0  0
    2.1042   -2.4645   -3.2221 H   0  0  0  0  0  0  0  0  0  0  0  0
    3.2610   -4.4797   -1.1449 H   0  0  0  0  0  0  0  0  0  0  0  0
    1.5747   -4.4423   -1.6904 H   0  0  0  0  0  0  0  0  0  0  0  0
    1.9490   -4.3663    0.0466 H   0  0  0  0  0  0  0  0  0  0  0  0
    5.5535   -1.0579   -0.3013 H   0  0  0  0  0  0  0  0  0  0  0  0
    5.5072   -2.4850    2.4320 H   0  0  0  0  0  0  0  0  0  0  0  0
    5.5597   -0.7287    2.2148 H   0  0  0  0  0  0  0  0  0  0  0  0
    6.9249   -1.7275    1.6697 H   0  0  0  0  0  0  0  0  0  0  0  0
    5.2823   -4.0663    0.3236 H   0  0  0  0  0  0  0  0  0  0  0  0
    6.7516   -3.2629   -0.2604 H   0  0  0  0  0  0  0  0  0  0  0  0
    5.3133   -3.3354   -1.2974 H   0  0  0  0  0  0  0  0  0  0  0  0
  1  2  1  0
  1 89  1  0
  1 90  1  0
  1 91  1  0
  2  3  1  0
  2  4  1  0
  2 92  1  6
  3 93  1  0
  3 94  1  0
  3 95  1  0
  4  5  1  1
  4 83  1  0
  4 86  1  0
  5  6  3  0
  6  7  1  0
  7  8  2  0
  7 80  1  0
  8  9  1  0
  8 96  1  0
  9 10  2  0
  9 81  1  0
 10 11  1  0
 10 23  1  0
 11 12  3  0
 13 12  1  1
 13 14  1  0
 13 17  1  0
 13 20  1  0
 14 15  1  0
 14 16  1  0
 14 97  1  6
 15 98  1  0
 15 99  1  0
 15100  1  0
 16101  1  0
 16102  1  0
 16103  1  0
 17 18  1  0
 17 19  1  0
 17104  1  1
 18105  1  0
 18106  1  0
 18107  1  0
 19108  1  0
 19109  1  0
 19110  1  0
 20 21  1  0
 20 22  1  0
 20111  1  6
 21112  1  0
 21113  1  0
 21114  1  0
 22115  1  0
 22116  1  0
 22117  1  0
 23 24  1  0
 23 36  2  0
 24 25  3  0
 26 25  1  6
 26 27  1  0
 26 30  1  0
 26 33  1  0
 27 28  1  0
 27 29  1  0
 27118  1  1
 28119  1  0
 28120  1  0
 28121  1  0
 29122  1  0
 29123  1  0
 29124  1  0
 30 31  1  0
 30 32  1  0
 30125  1  6
 31126  1  0
 31127  1  0
 31128  1  0
 32129  1  0
 32130  1  0
 32131  1  0
 33 34  1  0
 33 35  1  0
 33132  1  1
 34133  1  0
 34134  1  0
 34135  1  0
 35136  1  0
 35137  1  0
 35138  1  0
 36 37  1  0
 36 82  1  0
 37 38  2  0
 37139  1  0
 38 39  1  0
 38 51  1  0
 39 40  3  0
 41 40  1  6
 41 42  1  0
 41 45  1  0
 41 48  1  0
 42 43  1  0
 42 44  1  0
 42140  1  6
 43141  1  0
 43142  1  0
 43143  1  0
 44144  1  0
 44145  1  0
 44146  1  0
 45 46  1  0
 45 47  1  0
 45147  1  6
 46148  1  0
 46149  1  0
 46150  1  0
 47151  1  0
 47152  1  0
 47153  1  0
 48 49  1  0
 48 50  1  0
 48154  1  1
 49155  1  0
 49156  1  0
 49157  1  0
 50158  1  0
 50159  1  0
 50160  1  0
 51 52  2  0
 51161  1  0
 52 53  1  0
 52 82  1  0
 53 54  1  0
 53 66  2  0
 54 55  3  0
 56 55  1  6
 56 57  1  0
 56 60  1  0
 56 63  1  0
 57 58  1  0
 57 59  1  0
 57162  1  6
 58163  1  0
 58164  1  0
 58165  1  0
 59166  1  0
 59167  1  0
 59168  1  0
 60 61  1  0
 60 62  1  0
 60169  1  6
 61170  1  0
 61171  1  0
 61172  1  0
 62173  1  0
 62174  1  0
 62175  1  0
 63 64  1  0
 63 65  1  0
 63176  1  1
 64177  1  0
 64178  1  0
 64179  1  0
 65180  1  0
 65181  1  0
 65182  1  0
 66 67  1  0
 66 79  1  0
 67 68  3  0
 69 68  1  1
 69 70  1  0
 69 73  1  0
 69 76  1  0
 70 71  1  0
 70 72  1  0
 70183  1  6
 71184  1  0
 71185  1  0
 71186  1  0
 72187  1  0
 72188  1  0
 72189  1  0
 73 74  1  0
 73 75  1  0
 73190  1  1
 74191  1  0
 74192  1  0
 74193  1  0
 75194  1  0
 75195  1  0
 75196  1  0
 76 77  1  0
 76 78  1  0
 76197  1  1
 77198  1  0
 77199  1  0
 77200  1  0
 78201  1  0
 78202  1  0
 78203  1  0
 79 80  2  0
 79 81  1  0
 80204  1  0
 81 82  2  0
 83 84  1  0
 83 85  1  0
 83205  1  1
 84206  1  0
 84207  1  0
 84208  1  0
 85209  1  0
 85210  1  0
 85211  1  0
 86 87  1  0
 86 88  1  0
 86212  1  6
 87213  1  0
 87214  1  0
 87215  1  0
 88216  1  0
 88217  1  0
 88218  1  0
M  END

