
     RDKit          3D

 46 48  0  0  0  0  0  0  0  0999 V2000
    1.3539    0.3360   -0.8578 C   0  0  0  0  0  0  0  0  0  0  0  0
    2.8159    0.0967   -1.1117 C   0  0  0  0  0  0  0  0  0  0  0  0
    3.6473    1.1114   -1.4742 C   0  0  0  0  0  0  0  0  0  0  0  0
    5.0715    0.9279   -1.7310 C   0  0  0  0  0  0  0  0  0  0  0  0
    5.8546    1.7799   -2.0550 O   0  0  0  0  0  0  0  0  0  0  0  0
    5.5484   -0.3736   -1.5796 O   0  0  0  0  0  0  0  0  0  0  0  0
    4.7577   -1.4136   -1.2204 C   0  0  0  0  0  0  0  0  0  0  0  0
    5.3689   -2.6605   -1.1065 C   0  0  0  0  0  0  0  0  0  0  0  0
    4.6067   -3.7761   -0.7408 C   0  0  0  0  0  0  0  0  0  0  0  0
    5.2791   -4.9528   -0.6587 O   0  0  0  0  0  0  0  0  0  0  0  0
    4.5874   -6.1321   -0.2741 C   0  0  0  0  0  0  0  0  0  0  0  0
    5.5803   -7.2869   -0.0924 C   0  0  0  0  0  0  0  0  0  0  0  0
    5.6371   -7.8518    0.9884 O   0  0  0  0  0  0  0  0  0  0  0  0
    6.3474   -7.6510   -1.1664 N   0  0  0  0  0  0  0  0  0  0  0  0
    6.3013   -7.0775   -2.5086 C   0  0  0  0  0  0  0  0  0  0  0  0
    7.6894   -6.5679   -2.9152 C   0  0  0  0  0  0  0  0  0  0  0  0
    8.7134   -7.6053   -2.7492 N   0  0  0  0  0  0  0  0  0  0  0  0
    9.0772   -8.5838   -4.0829 S   0  0  1  0  0  0  0  0  0  0  0  0
   10.6928   -7.9899   -4.6021 C   0  0  0  0  0  0  0  0  0  0  0  0
    9.2526   -9.9596   -3.6073 O   0  0  0  0  0  0  0  0  0  0  0  0
    8.1324   -8.2643   -5.1585 O   0  0  0  0  0  0  0  0  0  0  0  0
    8.7259   -8.2183   -1.4133 C   0  0  0  0  0  0  0  0  0  0  0  0
    7.3362   -8.7170   -1.0077 C   0  0  0  0  0  0  0  0  0  0  0  0
    3.2279   -3.6356   -0.4867 C   0  0  0  0  0  0  0  0  0  0  0  0
    2.6366   -2.3812   -0.6047 C   0  0  0  0  0  0  0  0  0  0  0  0
    3.3740   -1.2405   -0.9718 C   0  0  0  0  0  0  0  0  0  0  0  0
    1.0935    1.3929   -1.0049 H   0  0  0  0  0  0  0  0  0  0  0  0
    1.0790    0.0533    0.1720 H   0  0  0  0  0  0  0  0  0  0  0  0
    0.7294   -0.2704   -1.5346 H   0  0  0  0  0  0  0  0  0  0  0  0
    3.2875    2.1344   -1.5948 H   0  0  0  0  0  0  0  0  0  0  0  0
    6.4372   -2.7604   -1.2988 H   0  0  0  0  0  0  0  0  0  0  0  0
    3.8136   -6.3927   -1.0216 H   0  0  0  0  0  0  0  0  0  0  0  0
    4.1031   -6.0044    0.7053 H   0  0  0  0  0  0  0  0  0  0  0  0
    5.5816   -6.2541   -2.5545 H   0  0  0  0  0  0  0  0  0  0  0  0
    5.9890   -7.8556   -3.2287 H   0  0  0  0  0  0  0  0  0  0  0  0
    7.9666   -5.7127   -2.2754 H   0  0  0  0  0  0  0  0  0  0  0  0
    7.6745   -6.2334   -3.9600 H   0  0  0  0  0  0  0  0  0  0  0  0
   11.4033   -8.1353   -3.7786 H   0  0  0  0  0  0  0  0  0  0  0  0
   10.6097   -6.9304   -4.8753 H   0  0  0  0  0  0  0  0  0  0  0  0
   10.9809   -8.5932   -5.4740 H   0  0  0  0  0  0  0  0  0  0  0  0
    9.0744   -7.4524   -0.6989 H   0  0  0  0  0  0  0  0  0  0  0  0
    9.4406   -9.0506   -1.4036 H   0  0  0  0  0  0  0  0  0  0  0  0
    7.3165   -9.0414    0.0402 H   0  0  0  0  0  0  0  0  0  0  0  0
    7.0624   -9.5746   -1.6482 H   0  0  0  0  0  0  0  0  0  0  0  0
    2.6174   -4.4901   -0.1981 H   0  0  0  0  0  0  0  0  0  0  0  0
    1.5680   -2.2868   -0.4042 H   0  0  0  0  0  0  0  0  0  0  0  0
  1  2  1  0
  1 27  1  0
  1 28  1  0
  1 29  1  0
  2  3  2  0
  2 26  1  0
  3  4  1  0
  3 30  1  0
  4  5  2  0
  4  6  1  0
  6  7  1  0
  7  8  1  0
  7 26  2  0
  8  9  2  0
  8 31  1  0
  9 10  1  0
  9 24  1  0
 10 11  1  0
 11 12  1  0
 11 32  1  0
 11 33  1  0
 12 13  2  0
 12 14  1  0
 14 15  1  0
 14 23  1  0
 15 16  1  0
 15 34  1  0
 15 35  1  0
 16 17  1  0
 16 36  1  0
 16 37  1  0
 17 18  1  0
 17 22  1  0
 18 19  1  6
 18 20  2  0
 18 21  2  0
 19 38  1  0
 19 39  1  0
 19 40  1  0
 22 23  1  0
 22 41  1  0
 22 42  1  0
 23 43  1  0
 23 44  1  0
 24 25  2  0
 24 45  1  0
 25 26  1  0
 25 46  1  0
M  END

