
     RDKit          3D

 45 47  0  0  0  0  0  0  0  0999 V2000
    2.7935    1.5601   -0.3211 N   0  0  0  0  0  0  0  0  0  0  0  0
    2.4477    0.4852    0.4512 C   0  0  0  0  0  0  0  0  0  0  0  0
    1.3607   -0.0624    0.3441 O   0  0  0  0  0  0  0  0  0  0  0  0
    3.4652    0.0787    1.4789 C   0  0  0  0  0  0  0  0  0  0  0  0
    4.0534    1.0843    2.2672 C   0  0  0  0  0  0  0  0  0  0  0  0
    4.8147    0.8905    3.3374 N   0  0  0  0  0  0  0  0  0  0  0  0
    5.0401   -0.3855    3.7047 C   0  0  0  0  0  0  0  0  0  0  0  0
    5.9172   -0.5942    4.9256 C   0  0  0  0  0  0  0  0  0  0  0  0
    7.3916   -0.3638    4.6511 C   0  0  0  0  0  0  0  0  0  0  0  0
    7.8720    0.9072    4.2789 C   0  0  0  0  0  0  0  0  0  0  0  0
    9.2282    1.0679    4.0300 C   0  0  0  0  0  0  0  0  0  0  0  0
   10.0829   -0.0409    4.1446 C   0  0  0  0  0  0  0  0  0  0  0  0
   11.5490    0.1499    3.8855 C   0  0  0  0  0  0  0  0  0  0  0  0
   12.0678    1.2336    3.8304 O   0  0  0  0  0  0  0  0  0  0  0  0
   12.2855   -0.9701    3.7063 O   0  0  0  0  0  0  0  0  0  0  0  0
    9.5062   -1.2557    4.5387 C   0  0  0  0  0  0  0  0  0  0  0  0
    8.2060   -1.4184    4.7815 N   0  0  0  0  0  0  0  0  0  0  0  0
    4.5302   -1.4657    2.9980 C   0  0  0  0  0  0  0  0  0  0  0  0
    3.7345   -1.2739    1.8389 C   0  0  0  0  0  0  0  0  0  0  0  0
    3.3206   -2.3781    1.1564 N   0  0  0  0  0  0  0  0  0  0  0  0
    2.8175   -2.4605   -0.2112 C   0  0  0  0  0  0  0  0  0  0  0  0
    3.1016   -3.8204   -0.8005 C   0  0  0  0  0  0  0  0  0  0  0  0
    2.1406   -4.8397   -0.8235 C   0  0  0  0  0  0  0  0  0  0  0  0
    0.9279   -4.5834   -0.3160 F   0  0  0  0  0  0  0  0  0  0  0  0
    2.3900   -6.1036   -1.3558 C   0  0  0  0  0  0  0  0  0  0  0  0
    3.6549   -6.3719   -1.8834 C   0  0  0  0  0  0  0  0  0  0  0  0
    4.6514   -5.3916   -1.8803 C   0  0  0  0  0  0  0  0  0  0  0  0
    4.3553   -4.1449   -1.3369 C   0  0  0  0  0  0  0  0  0  0  0  0
    5.3043   -3.1966   -1.3330 F   0  0  0  0  0  0  0  0  0  0  0  0
    2.1102    1.9069   -0.9844 H   0  0  0  0  0  0  0  0  0  0  0  0
    3.7331    1.9320   -0.3408 H   0  0  0  0  0  0  0  0  0  0  0  0
    3.8394    2.1305    2.0164 H   0  0  0  0  0  0  0  0  0  0  0  0
    5.8091   -1.6146    5.3145 H   0  0  0  0  0  0  0  0  0  0  0  0
    5.5813    0.1150    5.6996 H   0  0  0  0  0  0  0  0  0  0  0  0
    7.1678    1.7346    4.1780 H   0  0  0  0  0  0  0  0  0  0  0  0
    9.6534    2.0334    3.7475 H   0  0  0  0  0  0  0  0  0  0  0  0
   11.7181   -1.7521    3.6612 H   0  0  0  0  0  0  0  0  0  0  0  0
   10.1252   -2.1507    4.6948 H   0  0  0  0  0  0  0  0  0  0  0  0
    4.7640   -2.4838    3.3209 H   0  0  0  0  0  0  0  0  0  0  0  0
    3.5662   -3.2637    1.5818 H   0  0  0  0  0  0  0  0  0  0  0  0
    3.3250   -1.6977   -0.8227 H   0  0  0  0  0  0  0  0  0  0  0  0
    1.7419   -2.2408   -0.2496 H   0  0  0  0  0  0  0  0  0  0  0  0
    1.5952   -6.8509   -1.3475 H   0  0  0  0  0  0  0  0  0  0  0  0
    3.8672   -7.3572   -2.3045 H   0  0  0  0  0  0  0  0  0  0  0  0
    5.6462   -5.5744   -2.2892 H   0  0  0  0  0  0  0  0  0  0  0  0
  1  2  1  0
  1 30  1  0
  1 31  1  0
  2  3  2  0
  2  4  1  0
  4  5  2  0
  4 19  1  0
  5  6  1  0
  5 32  1  0
  6  7  2  0
  7  8  1  0
  7 18  1  0
  8  9  1  0
  8 33  1  0
  8 34  1  0
  9 10  2  0
  9 17  1  0
 10 11  1  0
 10 35  1  0
 11 12  2  0
 11 36  1  0
 12 13  1  0
 12 16  1  0
 13 14  2  0
 13 15  1  0
 15 37  1  0
 16 17  2  0
 16 38  1  0
 18 19  2  0
 18 39  1  0
 19 20  1  0
 20 21  1  0
 20 40  1  0
 21 22  1  0
 21 41  1  0
 21 42  1  0
 22 23  2  0
 22 28  1  0
 23 24  1  0
 23 25  1  0
 25 26  2  0
 25 43  1  0
 26 27  1  0
 26 44  1  0
 27 28  2  0
 27 45  1  0
 28 29  1  0
M  END

