
     RDKit          3D

 46 47  0  0  0  0  0  0  0  0999 V2000
    2.4771   -2.1322    0.1583 C   0  0  0  0  0  0  0  0  0  0  0  0
    2.4349   -0.6143   -0.0247 C   0  0  0  0  0  0  0  0  0  0  0  0
    2.8528    0.1411    1.1615 N   0  0  0  0  0  0  0  0  0  0  0  0
    1.8646    0.3917    2.2042 C   0  0  0  0  0  0  0  0  0  0  0  0
    1.2095    1.7708    2.1948 C   0  0  1  0  0  0  0  0  0  0  0  0
    1.9331    3.0348    1.7925 C   0  0  0  0  0  0  0  0  0  0  0  0
    0.8271    2.4861    0.9260 C   0  0  0  0  0  0  0  0  0  0  0  0
    4.2158    0.2681    1.3663 C   0  0  0  0  0  0  0  0  0  0  0  0
    5.0424   -0.1965    0.5884 O   0  0  0  0  0  0  0  0  0  0  0  0
    4.6093    0.9416    2.5101 N   0  0  0  0  0  0  0  0  0  0  0  0
    6.0219    1.1293    2.7789 C   0  0  0  0  0  0  0  0  0  0  0  0
    6.6732    2.1756    1.8686 C   0  0  0  0  0  0  0  0  0  0  0  0
    8.4201    2.4609    2.2421 S   0  0  1  0  0  0  0  0  0  0  0  0
    8.8797    3.5020    1.3150 O   0  0  0  0  0  0  0  0  0  0  0  0
    8.5402    2.6399    3.6958 O   0  0  0  0  0  0  0  0  0  0  0  0
    9.1603    0.9919    1.8588 N   0  0  0  0  0  0  0  0  0  0  0  0
    9.6261    0.8159    0.4767 C   0  0  0  0  0  0  0  0  0  0  0  0
   11.0700    1.2739    0.2648 C   0  0  0  0  0  0  0  0  0  0  0  0
   12.2498    0.3771    1.3449 S   0  0  0  0  0  0  0  0  0  0  0  0
   11.3996    0.6970    2.9375 C   0  0  0  0  0  0  0  0  0  0  0  0
    9.9249    0.2944    2.8996 C   0  0  0  0  0  0  0  0  0  0  0  0
    2.1279   -2.6379   -0.7566 H   0  0  0  0  0  0  0  0  0  0  0  0
    1.8320   -2.4623    0.9894 H   0  0  0  0  0  0  0  0  0  0  0  0
    3.5069   -2.4607    0.3608 H   0  0  0  0  0  0  0  0  0  0  0  0
    1.4164   -0.2867   -0.2851 H   0  0  0  0  0  0  0  0  0  0  0  0
    3.0966   -0.3263   -0.8533 H   0  0  0  0  0  0  0  0  0  0  0  0
    2.3256    0.2139    3.1906 H   0  0  0  0  0  0  0  0  0  0  0  0
    1.0725   -0.3704    2.1111 H   0  0  0  0  0  0  0  0  0  0  0  0
    0.5015    1.8843    3.0247 H   0  0  0  0  0  0  0  0  0  0  0  0
    2.9495    2.9498    1.3984 H   0  0  0  0  0  0  0  0  0  0  0  0
    1.7483    3.9449    2.3705 H   0  0  0  0  0  0  0  0  0  0  0  0
    1.1243    2.0416   -0.0276 H   0  0  0  0  0  0  0  0  0  0  0  0
   -0.1301    3.0143    0.8972 H   0  0  0  0  0  0  0  0  0  0  0  0
    3.9578    1.5606    2.9748 H   0  0  0  0  0  0  0  0  0  0  0  0
    6.5358    0.1689    2.6313 H   0  0  0  0  0  0  0  0  0  0  0  0
    6.1451    1.4264    3.8302 H   0  0  0  0  0  0  0  0  0  0  0  0
    6.2194    3.1727    1.9827 H   0  0  0  0  0  0  0  0  0  0  0  0
    6.6114    1.8694    0.8149 H   0  0  0  0  0  0  0  0  0  0  0  0
    8.9597    1.3771   -0.1949 H   0  0  0  0  0  0  0  0  0  0  0  0
    9.5264   -0.2540    0.2271 H   0  0  0  0  0  0  0  0  0  0  0  0
   11.1446    2.3581    0.4417 H   0  0  0  0  0  0  0  0  0  0  0  0
   11.3899    1.0681   -0.7682 H   0  0  0  0  0  0  0  0  0  0  0  0
   11.4937    1.7613    3.2088 H   0  0  0  0  0  0  0  0  0  0  0  0
   11.9389    0.1048    3.6929 H   0  0  0  0  0  0  0  0  0  0  0  0
    9.4557    0.5059    3.8699 H   0  0  0  0  0  0  0  0  0  0  0  0
    9.8389   -0.7877    2.7009 H   0  0  0  0  0  0  0  0  0  0  0  0
  1  2  1  0
  1 22  1  0
  1 23  1  0
  1 24  1  0
  2  3  1  0
  2 25  1  0
  2 26  1  0
  3  4  1  0
  3  8  1  0
  4  5  1  0
  4 27  1  0
  4 28  1  0
  5  6  1  0
  5  7  1  0
  5 29  1  1
  6  7  1  0
  6 30  1  0
  6 31  1  0
  7 32  1  0
  7 33  1  0
  8  9  2  0
  8 10  1  0
 10 11  1  0
 10 34  1  0
 11 12  1  0
 11 35  1  0
 11 36  1  0
 13 12  1  1
 12 37  1  0
 12 38  1  0
 13 14  2  0
 13 15  2  0
 13 16  1  0
 16 17  1  0
 16 21  1  0
 17 18  1  0
 17 39  1  0
 17 40  1  0
 18 19  1  0
 18 41  1  0
 18 42  1  0
 19 20  1  0
 20 21  1  0
 20 43  1  0
 20 44  1  0
 21 45  1  0
 21 46  1  0
M  END

