
     RDKit          3D

 60 63  0  0  0  0  0  0  0  0999 V2000
    1.5903    9.7952    3.2871 C   0  0  0  0  0  0  0  0  0  0  0  0
    1.7153    8.4770    3.7701 O   0  0  0  0  0  0  0  0  0  0  0  0
    2.5795    7.6274    3.1585 C   0  0  0  0  0  0  0  0  0  0  0  0
    3.3822    7.9565    2.0606 C   0  0  0  0  0  0  0  0  0  0  0  0
    4.2422    6.9961    1.5056 C   0  0  0  0  0  0  0  0  0  0  0  0
    4.3305    5.7006    2.0252 C   0  0  0  0  0  0  0  0  0  0  0  0
    5.2372    4.6117    1.4509 C   0  0  1  0  0  0  0  0  0  0  0  0
    5.8387    4.9387    0.0563 C   0  0  0  0  0  0  0  0  0  0  0  0
    6.8582    6.0715   -0.0646 C   0  0  0  0  0  0  0  0  0  0  0  0
    6.8236    6.8906   -0.9465 O   0  0  0  0  0  0  0  0  0  0  0  0
    7.8480    6.0854    0.8459 O   0  0  0  0  0  0  0  0  0  0  0  0
    6.2774    4.1216    2.4447 C   0  0  0  0  0  0  0  0  0  0  0  0
    6.7627    4.7786    3.5579 C   0  0  0  0  0  0  0  0  0  0  0  0
    7.6882    3.9866    4.2091 N   0  0  0  0  0  0  0  0  0  0  0  0
    8.1885    4.2485    5.0477 H   0  0  0  0  0  0  0  0  0  0  0  0
    7.8267    2.7916    3.5379 C   0  0  0  0  0  0  0  0  0  0  0  0
    8.6333    1.6866    3.8212 C   0  0  0  0  0  0  0  0  0  0  0  0
    8.5591    0.5860    2.9607 C   0  0  0  0  0  0  0  0  0  0  0  0
    9.3624   -0.4645    3.2763 O   0  0  0  0  0  0  0  0  0  0  0  0
    9.3683   -1.6312    2.4710 C   0  0  0  0  0  0  0  0  0  0  0  0
   10.3514   -2.6251    3.0703 C   0  0  0  0  0  0  0  0  0  0  0  0
    9.9729   -3.0799    4.4883 C   0  0  0  0  0  0  0  0  0  0  0  0
   10.8517   -4.0911    5.0403 N   0  0  0  0  0  0  0  0  0  0  0  0
   12.0436   -3.8118    5.6629 C   0  0  0  0  0  0  0  0  0  0  0  0
   12.8920   -4.8628    6.1010 C   0  0  0  0  0  0  0  0  0  0  0  0
   14.0736   -4.5343    6.7476 C   0  0  0  0  0  0  0  0  0  0  0  0
   14.3997   -3.1848    6.9541 C   0  0  0  0  0  0  0  0  0  0  0  0
   13.4995   -2.2303    6.4843 C   0  0  0  0  0  0  0  0  0  0  0  0
   12.3588   -2.5231    5.8539 N   0  0  0  0  0  0  0  0  0  0  0  0
    7.6892    0.6014    1.8414 C   0  0  0  0  0  0  0  0  0  0  0  0
    6.8942    1.7131    1.5718 C   0  0  0  0  0  0  0  0  0  0  0  0
    6.9499    2.8360    2.4144 C   0  0  0  0  0  0  0  0  0  0  0  0
    3.5069    5.3878    3.1271 C   0  0  0  0  0  0  0  0  0  0  0  0
    2.6487    6.3243    3.6869 C   0  0  0  0  0  0  0  0  0  0  0  0
    0.8472   10.2938    3.9241 H   0  0  0  0  0  0  0  0  0  0  0  0
    1.2368    9.8187    2.2402 H   0  0  0  0  0  0  0  0  0  0  0  0
    2.5443   10.3496    3.3498 H   0  0  0  0  0  0  0  0  0  0  0  0
    3.3525    8.9522    1.6180 H   0  0  0  0  0  0  0  0  0  0  0  0
    4.8383    7.2946    0.6423 H   0  0  0  0  0  0  0  0  0  0  0  0
    4.5828    3.7412    1.2603 H   0  0  0  0  0  0  0  0  0  0  0  0
    5.0366    5.1672   -0.6584 H   0  0  0  0  0  0  0  0  0  0  0  0
    6.3476    4.0316   -0.3137 H   0  0  0  0  0  0  0  0  0  0  0  0
    7.6866    5.4077    1.5304 H   0  0  0  0  0  0  0  0  0  0  0  0
    6.4940    5.7584    3.9474 H   0  0  0  0  0  0  0  0  0  0  0  0
    9.3081    1.6501    4.6781 H   0  0  0  0  0  0  0  0  0  0  0  0
    9.6621   -1.3791    1.4349 H   0  0  0  0  0  0  0  0  0  0  0  0
    8.3508   -2.0683    2.4300 H   0  0  0  0  0  0  0  0  0  0  0  0
   11.3557   -2.1728    3.0972 H   0  0  0  0  0  0  0  0  0  0  0  0
   10.4028   -3.4993    2.3976 H   0  0  0  0  0  0  0  0  0  0  0  0
    8.9445   -3.4823    4.4901 H   0  0  0  0  0  0  0  0  0  0  0  0
    9.9890   -2.2091    5.1568 H   0  0  0  0  0  0  0  0  0  0  0  0
   10.6839   -5.0557    4.7871 H   0  0  0  0  0  0  0  0  0  0  0  0
   12.6114   -5.9060    5.9333 H   0  0  0  0  0  0  0  0  0  0  0  0
   14.7430   -5.3267    7.0940 H   0  0  0  0  0  0  0  0  0  0  0  0
   15.3206   -2.8873    7.4585 H   0  0  0  0  0  0  0  0  0  0  0  0
   13.7111   -1.1621    6.6182 H   0  0  0  0  0  0  0  0  0  0  0  0
    7.6337   -0.2609    1.1778 H   0  0  0  0  0  0  0  0  0  0  0  0
    6.2289    1.6963    0.7047 H   0  0  0  0  0  0  0  0  0  0  0  0
    3.5433    4.3814    3.5539 H   0  0  0  0  0  0  0  0  0  0  0  0
    2.0105    6.0743    4.5371 H   0  0  0  0  0  0  0  0  0  0  0  0
  1  2  1  0
  1 35  1  0
  1 36  1  0
  1 37  1  0
  2  3  1  0
  3  4  2  0
  3 34  1  0
  4  5  1  0
  4 38  1  0
  5  6  2  0
  5 39  1  0
  6  7  1  0
  6 33  1  0
  7  8  1  0
  7 12  1  0
  7 40  1  6
  8  9  1  0
  8 41  1  0
  8 42  1  0
  9 10  2  0
  9 11  1  0
 11 43  1  0
 12 13  2  0
 12 32  1  0
 13 14  1  0
 13 44  1  0
 14 15  1  0
 14 16  1  0
 16 17  1  0
 16 32  2  0
 17 18  2  0
 17 45  1  0
 18 19  1  0
 18 30  1  0
 19 20  1  0
 20 21  1  0
 20 46  1  0
 20 47  1  0
 21 22  1  0
 21 48  1  0
 21 49  1  0
 22 23  1  0
 22 50  1  0
 22 51  1  0
 23 24  1  0
 23 52  1  0
 24 25  2  0
 24 29  1  0
 25 26  1  0
 25 53  1  0
 26 27  2  0
 26 54  1  0
 27 28  1  0
 27 55  1  0
 28 29  2  0
 28 56  1  0
 30 31  2  0
 30 57  1  0
 31 32  1  0
 31 58  1  0
 33 34  2  0
 33 59  1  0
 34 60  1  0
M  END

