
     RDKit          3D

 47 49  0  0  0  0  0  0  0  0999 V2000
    2.1342    0.4678    1.4928 C   0  0  0  0  0  0  0  0  0  0  0  0
    1.5810    0.8023    0.1324 C   0  0  0  0  0  0  0  0  0  0  0  0
    2.0511    1.9229   -0.5693 C   0  0  0  0  0  0  0  0  0  0  0  0
    1.5297    2.2695   -1.8150 C   0  0  0  0  0  0  0  0  0  0  0  0
    0.5195    1.4946   -2.3867 C   0  0  0  0  0  0  0  0  0  0  0  0
    0.0292    0.3586   -1.7309 C   0  0  0  0  0  0  0  0  0  0  0  0
   -1.0527   -0.4880   -2.3569 C   0  0  0  0  0  0  0  0  0  0  0  0
    0.5737    0.0208   -0.4719 C   0  0  0  0  0  0  0  0  0  0  0  0
    0.0490   -1.1271    0.1950 N   0  0  0  0  0  0  0  0  0  0  0  0
    0.7535   -2.2542    0.5150 C   0  0  0  0  0  0  0  0  0  0  0  0
    1.9550   -2.3920    0.4009 O   0  0  0  0  0  0  0  0  0  0  0  0
   -0.0764   -3.4008    1.1057 C   0  0  0  0  0  0  0  0  0  0  0  0
   -1.4952   -3.2296    1.0220 O   0  0  0  0  0  0  0  0  0  0  0  0
   -2.1056   -3.6857   -0.1069 C   0  0  0  0  0  0  0  0  0  0  0  0
   -1.4996   -4.1507   -1.0448 O   0  0  0  0  0  0  0  0  0  0  0  0
   -3.5622   -3.5261   -0.0531 C   0  0  0  0  0  0  0  0  0  0  0  0
   -4.4761   -3.9589   -1.4720 S   0  0  0  0  0  0  0  0  0  0  0  0
   -5.9391   -3.5207   -0.6245 C   0  0  0  0  0  0  0  0  0  0  0  0
   -7.2707   -3.6189   -1.2365 C   0  0  0  0  0  0  0  0  0  0  0  0
   -7.4600   -4.0749   -2.5548 C   0  0  0  0  0  0  0  0  0  0  0  0
   -8.7362   -4.1567   -3.1076 C   0  0  0  0  0  0  0  0  0  0  0  0
   -9.8316   -3.7782   -2.3319 C   0  0  0  0  0  0  0  0  0  0  0  0
  -11.0588   -3.8546   -2.8575 F   0  0  0  0  0  0  0  0  0  0  0  0
   -9.6788   -3.3221   -1.0225 C   0  0  0  0  0  0  0  0  0  0  0  0
   -8.3992   -3.2443   -0.4798 C   0  0  0  0  0  0  0  0  0  0  0  0
   -5.7378   -3.0993    0.6043 N   0  0  0  0  0  0  0  0  0  0  0  0
   -4.4212   -3.0924    0.9537 C   0  0  0  0  0  0  0  0  0  0  0  0
   -4.0434   -2.6383    2.3341 C   0  0  0  0  0  0  0  0  0  0  0  0
    2.7033    1.3134    1.9050 H   0  0  0  0  0  0  0  0  0  0  0  0
    2.7926   -0.4132    1.4382 H   0  0  0  0  0  0  0  0  0  0  0  0
    1.3267    0.2164    2.1996 H   0  0  0  0  0  0  0  0  0  0  0  0
    2.8340    2.5377   -0.1170 H   0  0  0  0  0  0  0  0  0  0  0  0
    1.9087    3.1493   -2.3413 H   0  0  0  0  0  0  0  0  0  0  0  0
    0.1092    1.7646   -3.3635 H   0  0  0  0  0  0  0  0  0  0  0  0
   -1.2605   -0.1605   -3.3855 H   0  0  0  0  0  0  0  0  0  0  0  0
   -2.0052   -0.4215   -1.7997 H   0  0  0  0  0  0  0  0  0  0  0  0
   -0.7752   -1.5539   -2.3852 H   0  0  0  0  0  0  0  0  0  0  0  0
   -0.9599   -1.2003    0.2698 H   0  0  0  0  0  0  0  0  0  0  0  0
    0.1583   -3.4796    2.1771 H   0  0  0  0  0  0  0  0  0  0  0  0
    0.2358   -4.3206    0.5942 H   0  0  0  0  0  0  0  0  0  0  0  0
   -6.6022   -4.3721   -3.1635 H   0  0  0  0  0  0  0  0  0  0  0  0
   -8.8964   -4.5087   -4.1282 H   0  0  0  0  0  0  0  0  0  0  0  0
  -10.5622   -3.0356   -0.4487 H   0  0  0  0  0  0  0  0  0  0  0  0
   -8.2473   -2.8919    0.5413 H   0  0  0  0  0  0  0  0  0  0  0  0
   -4.9574   -2.5131    2.9287 H   0  0  0  0  0  0  0  0  0  0  0  0
   -3.5079   -1.6758    2.3060 H   0  0  0  0  0  0  0  0  0  0  0  0
   -3.3752   -3.3576    2.8277 H   0  0  0  0  0  0  0  0  0  0  0  0
  1  2  1  0
  1 29  1  0
  1 30  1  0
  1 31  1  0
  2  3  2  0
  2  8  1  0
  3  4  1  0
  3 32  1  0
  4  5  2  0
  4 33  1  0
  5  6  1  0
  5 34  1  0
  6  7  1  0
  6  8  2  0
  7 35  1  0
  7 36  1  0
  7 37  1  0
  8  9  1  0
  9 10  1  0
  9 38  1  0
 10 11  2  0
 10 12  1  0
 12 13  1  0
 12 39  1  0
 12 40  1  0
 13 14  1  0
 14 15  2  0
 14 16  1  0
 16 17  1  0
 16 27  2  0
 17 18  1  0
 18 19  1  0
 18 26  2  0
 19 20  2  0
 19 25  1  0
 20 21  1  0
 20 41  1  0
 21 22  2  0
 21 42  1  0
 22 23  1  0
 22 24  1  0
 24 25  2  0
 24 43  1  0
 25 44  1  0
 26 27  1  0
 27 28  1  0
 28 45  1  0
 28 46  1  0
 28 47  1  0
M  END

