
     RDKit          3D

 16 16  0  0  0  0  0  0  0  0999 V2000
    1.6080   -1.1528    0.6567 O   0  0  0  0  0  0  0  0  0  0  0  0
    2.3779   -0.0616    0.1852 C   0  0  0  0  0  0  0  0  0  0  0  0
    3.0136    0.6302    1.3498 C   0  0  0  0  0  0  0  0  0  0  0  0
    2.7904    1.9088    1.7147 C   0  0  0  0  0  0  0  0  0  0  0  0
    3.4067    2.6240    2.7367 N   0  0  0  0  0  0  0  0  0  0  0  0
    3.7511    2.0666    3.8428 C   0  0  0  0  0  0  0  0  0  0  0  0
    3.5846    0.6585    4.2236 C   0  0  0  0  0  0  0  0  0  0  0  0
    3.6473   -0.3544    3.3431 C   0  0  0  0  0  0  0  0  0  0  0  0
    3.9394   -0.1737    2.0148 O   0  0  0  0  0  0  0  0  0  0  0  0
    1.5683   -1.8199   -0.0390 H   0  0  0  0  0  0  0  0  0  0  0  0
    1.7658    0.6688   -0.3787 H   0  0  0  0  0  0  0  0  0  0  0  0
    3.1870   -0.4080   -0.4890 H   0  0  0  0  0  0  0  0  0  0  0  0
    2.0801    2.4890    1.1163 H   0  0  0  0  0  0  0  0  0  0  0  0
    4.1884    2.7278    4.6080 H   0  0  0  0  0  0  0  0  0  0  0  0
    3.4371    0.4203    5.2812 H   0  0  0  0  0  0  0  0  0  0  0  0
    3.5220   -1.4052    3.6293 H   0  0  0  0  0  0  0  0  0  0  0  0
  1  2  1  0
  1 10  1  0
  2  3  1  0
  2 11  1  0
  2 12  1  0
  3  4  2  0
  3  9  1  0
  4  5  1  0
  4 13  1  0
  5  6  2  0
  6  7  1  0
  6 14  1  0
  7  8  2  0
  7 15  1  0
  8  9  1  0
  8 16  1  0
M  END

