
     RDKit          3D

 33 34  0  0  0  0  0  0  0  0999 V2000
    6.7121    2.7304    1.7357 O   0  0  0  0  0  0  0  0  0  0  0  0
    5.5079    2.7095    1.7141 C   0  0  0  0  0  0  0  0  0  0  0  0
    4.7768    3.3040    2.6920 O   0  0  0  0  0  0  0  0  0  0  0  0
    4.7646    2.0856    0.7343 N   0  0  0  0  0  0  0  0  0  0  0  0
    5.4240    1.4414   -0.3875 C   0  0  0  0  0  0  0  0  0  0  0  0
    5.8982    2.4289   -1.4535 C   0  0  0  0  0  0  0  0  0  0  0  0
    6.4284    1.6636   -2.5164 O   0  0  0  0  0  0  0  0  0  0  0  0
    6.9595    2.2860   -3.6021 C   0  0  0  0  0  0  0  0  0  0  0  0
    7.0463    3.6788   -3.7498 C   0  0  0  0  0  0  0  0  0  0  0  0
    7.6126    4.2094   -4.9163 C   0  0  0  0  0  0  0  0  0  0  0  0
    8.0888    3.3841   -5.9293 C   0  0  0  0  0  0  0  0  0  0  0  0
    8.0042    1.9792   -5.7851 C   0  0  0  0  0  0  0  0  0  0  0  0
    8.4881    1.1136   -6.8140 C   0  0  0  0  0  0  0  0  0  0  0  0
    8.9020    0.3769   -7.6937 C   0  0  0  0  0  0  0  0  0  0  0  0
    9.3886   -0.4730   -8.7266 C   0  0  0  0  0  0  0  0  0  0  0  0
    9.9703   -0.0001   -9.9591 C   0  0  0  0  0  0  0  0  0  0  0  0
   10.3601   -1.0166  -10.7865 C   0  0  0  0  0  0  0  0  0  0  0  0
   10.0323   -2.5703  -10.0931 S   0  0  0  0  0  0  0  0  0  0  0  0
    9.3635   -1.8577   -8.6749 C   0  0  0  0  0  0  0  0  0  0  0  0
    7.4372    1.4435   -4.6162 C   0  0  0  0  0  0  0  0  0  0  0  0
    3.8475    3.0393    2.6512 H   0  0  0  0  0  0  0  0  0  0  0  0
    3.7855    2.3247    0.6262 H   0  0  0  0  0  0  0  0  0  0  0  0
    4.7304    0.7173   -0.8419 H   0  0  0  0  0  0  0  0  0  0  0  0
    6.2911    0.8830   -0.0075 H   0  0  0  0  0  0  0  0  0  0  0  0
    6.6627    3.0975   -1.0206 H   0  0  0  0  0  0  0  0  0  0  0  0
    5.0520    3.0515   -1.8056 H   0  0  0  0  0  0  0  0  0  0  0  0
    6.6863    4.3514   -2.9715 H   0  0  0  0  0  0  0  0  0  0  0  0
    7.6803    5.2947   -5.0267 H   0  0  0  0  0  0  0  0  0  0  0  0
    8.5285    3.8066   -6.8340 H   0  0  0  0  0  0  0  0  0  0  0  0
   10.0832    1.0580  -10.1967 H   0  0  0  0  0  0  0  0  0  0  0  0
   10.8239   -0.9429  -11.7691 H   0  0  0  0  0  0  0  0  0  0  0  0
    8.9825   -2.4783   -7.8659 H   0  0  0  0  0  0  0  0  0  0  0  0
    7.3602    0.3643   -4.4785 H   0  0  0  0  0  0  0  0  0  0  0  0
  1  2  2  0
  2  3  1  0
  2  4  1  0
  3 21  1  0
  4  5  1  0
  4 22  1  0
  5  6  1  0
  5 23  1  0
  5 24  1  0
  6  7  1  0
  6 25  1  0
  6 26  1  0
  7  8  1  0
  8  9  2  0
  8 20  1  0
  9 10  1  0
  9 27  1  0
 10 11  2  0
 10 28  1  0
 11 12  1  0
 11 29  1  0
 12 13  1  0
 12 20  2  0
 13 14  3  0
 14 15  1  0
 15 16  1  0
 15 19  2  0
 16 17  2  0
 16 30  1  0
 17 18  1  0
 17 31  1  0
 18 19  1  0
 19 32  1  0
 20 33  1  0
M  END

