
     RDKit          3D

 30 30  0  0  0  0  0  0  0  0999 V2000
    4.3881   -1.5143   -2.6696 N   0  0  0  0  0  0  0  0  0  0  0  0
    4.5919   -0.6916   -1.5996 C   0  0  0  0  0  0  0  0  0  0  0  0
    4.4656    0.5172   -1.6730 O   0  0  0  0  0  0  0  0  0  0  0  0
    5.0167   -1.3984   -0.3119 C   0  0  0  0  0  0  0  0  0  0  0  0
    4.7263   -0.5634    0.9339 C   0  0  0  0  0  0  0  0  0  0  0  0
    5.3606   -1.1074    2.2133 C   0  0  0  0  0  0  0  0  0  0  0  0
    6.8247   -1.0756    2.1185 N   0  0  0  0  0  0  0  0  0  0  0  0
    7.7492   -1.8117    3.3159 S   0  0  1  0  0  0  0  0  0  0  0  0
    9.0208   -1.0875    3.3183 O   0  0  0  0  0  0  0  0  0  0  0  0
    6.9514   -1.9948    4.5312 O   0  0  0  0  0  0  0  0  0  0  0  0
    8.0502   -3.4566    2.6379 C   0  0  0  0  0  0  0  0  0  0  0  0
    8.9877   -3.5961    1.6113 C   0  0  0  0  0  0  0  0  0  0  0  0
    9.2182   -4.8755    1.1041 C   0  0  0  0  0  0  0  0  0  0  0  0
   10.3768   -5.0972   -0.1806 Cl  0  0  0  0  0  0  0  0  0  0  0  0
    8.5406   -5.9917    1.6102 C   0  0  0  0  0  0  0  0  0  0  0  0
    7.6204   -5.8124    2.6457 C   0  0  0  0  0  0  0  0  0  0  0  0
    6.7810   -7.1984    3.2898 Cl  0  0  0  0  0  0  0  0  0  0  0  0
    7.3646   -4.5438    3.1779 C   0  0  0  0  0  0  0  0  0  0  0  0
    4.1619   -1.0931   -3.5631 H   0  0  0  0  0  0  0  0  0  0  0  0
    4.5157   -2.5157   -2.6186 H   0  0  0  0  0  0  0  0  0  0  0  0
    6.1025   -1.5882   -0.3832 H   0  0  0  0  0  0  0  0  0  0  0  0
    4.5359   -2.3899   -0.2438 H   0  0  0  0  0  0  0  0  0  0  0  0
    3.6377   -0.4914    1.0937 H   0  0  0  0  0  0  0  0  0  0  0  0
    5.0653    0.4695    0.7500 H   0  0  0  0  0  0  0  0  0  0  0  0
    5.0573   -2.1548    2.3752 H   0  0  0  0  0  0  0  0  0  0  0  0
    5.0000   -0.5373    3.0872 H   0  0  0  0  0  0  0  0  0  0  0  0
    7.2291   -0.1553    1.9383 H   0  0  0  0  0  0  0  0  0  0  0  0
    9.5310   -2.7322    1.2284 H   0  0  0  0  0  0  0  0  0  0  0  0
    8.7340   -6.9854    1.2066 H   0  0  0  0  0  0  0  0  0  0  0  0
    6.6628   -4.4015    3.9996 H   0  0  0  0  0  0  0  0  0  0  0  0
  1  2  1  0
  1 19  1  0
  1 20  1  0
  2  3  2  0
  2  4  1  0
  4  5  1  0
  4 21  1  0
  4 22  1  0
  5  6  1  0
  5 23  1  0
  5 24  1  0
  6  7  1  0
  6 25  1  0
  6 26  1  0
  8  7  1  6
  7 27  1  0
  8  9  2  0
  8 10  2  0
  8 11  1  0
 11 12  2  0
 11 18  1  0
 12 13  1  0
 12 28  1  0
 13 14  1  0
 13 15  2  0
 15 16  1  0
 15 29  1  0
 16 17  1  0
 16 18  2  0
 18 30  1  0
M  END

