
     RDKit          3D

 30 30  0  0  0  0  0  0  0  0999 V2000
   10.5247   -1.1484   -4.3586 C   0  0  0  0  0  0  0  0  0  0  0  0
    9.5159   -1.1822   -3.2504 C   0  0  0  0  0  0  0  0  0  0  0  0
    9.0311   -0.1275   -2.5142 C   0  0  0  0  0  0  0  0  0  0  0  0
    8.0639   -0.5207   -1.5418 C   0  0  0  0  0  0  0  0  0  0  0  0
    7.2579    0.7240   -0.3760 Br  0  0  0  0  0  0  0  0  0  0  0  0
    7.8126   -1.8745   -1.5533 C   0  0  0  0  0  0  0  0  0  0  0  0
    6.7783   -2.7997   -0.4390 S   0  0  1  0  0  0  0  0  0  0  0  0
    7.4993   -3.0226    0.8141 O   0  0  0  0  0  0  0  0  0  0  0  0
    5.4497   -2.1842   -0.4446 O   0  0  0  0  0  0  0  0  0  0  0  0
    6.7052   -4.2760   -1.2467 N   0  0  0  0  0  0  0  0  0  0  0  0
    6.9929   -5.5229   -0.5520 C   0  0  0  0  0  0  0  0  0  0  0  0
    5.7447   -6.1796    0.0835 C   0  0  1  0  0  0  0  0  0  0  0  0
    5.1633   -5.3927    1.2550 C   0  0  0  0  0  0  0  0  0  0  0  0
    4.7772   -6.3179   -0.9781 O   0  0  0  0  0  0  0  0  0  0  0  0
    6.1714   -7.5915    0.5562 C   0  0  0  0  0  0  0  0  0  0  0  0
    6.9466   -7.7621    1.4583 O   0  0  0  0  0  0  0  0  0  0  0  0
    5.6282   -8.5885   -0.1491 O   0  0  0  0  0  0  0  0  0  0  0  0
    8.7809   -2.6815   -2.7546 S   0  0  0  0  0  0  0  0  0  0  0  0
   10.8640   -0.1158   -4.5244 H   0  0  0  0  0  0  0  0  0  0  0  0
   10.1034   -1.5237   -5.3057 H   0  0  0  0  0  0  0  0  0  0  0  0
   11.4091   -1.7630   -4.1238 H   0  0  0  0  0  0  0  0  0  0  0  0
    9.3463    0.9068   -2.6556 H   0  0  0  0  0  0  0  0  0  0  0  0
    5.8735   -4.3201   -1.8369 H   0  0  0  0  0  0  0  0  0  0  0  0
    7.7514   -5.3452    0.2207 H   0  0  0  0  0  0  0  0  0  0  0  0
    7.4185   -6.2251   -1.2880 H   0  0  0  0  0  0  0  0  0  0  0  0
    4.8874   -4.3736    0.9461 H   0  0  0  0  0  0  0  0  0  0  0  0
    5.8996   -5.3262    2.0662 H   0  0  0  0  0  0  0  0  0  0  0  0
    4.2675   -5.9026    1.6483 H   0  0  0  0  0  0  0  0  0  0  0  0
    3.9095   -6.0477   -0.6472 H   0  0  0  0  0  0  0  0  0  0  0  0
    5.0550   -8.1629   -0.8192 H   0  0  0  0  0  0  0  0  0  0  0  0
  1  2  1  0
  1 19  1  0
  1 20  1  0
  1 21  1  0
  2  3  2  0
  2 18  1  0
  3  4  1  0
  3 22  1  0
  4  5  1  0
  4  6  2  0
  6  7  1  0
  6 18  1  0
  7  8  2  0
  7  9  2  0
  7 10  1  6
 10 11  1  0
 10 23  1  0
 11 12  1  0
 11 24  1  0
 11 25  1  0
 12 13  1  0
 12 14  1  6
 12 15  1  0
 13 26  1  0
 13 27  1  0
 13 28  1  0
 14 29  1  0
 15 16  2  0
 15 17  1  0
 17 30  1  0
M  END

