
     RDKit          3D

 33 34  0  0  0  0  0  0  0  0999 V2000
    1.2277    0.5410    0.0927 C   0  0  0  0  0  0  0  0  0  0  0  0
    2.6292    0.5753    0.3618 O   0  0  0  0  0  0  0  0  0  0  0  0
    3.1262   -0.4542    1.0693 C   0  0  0  0  0  0  0  0  0  0  0  0
    2.4703   -1.4139    1.3961 O   0  0  0  0  0  0  0  0  0  0  0  0
    4.6163   -0.2655    1.3416 C   0  0  2  0  0  0  0  0  0  0  0  0
    5.2369   -1.4995    2.0112 C   0  0  0  0  0  0  0  0  0  0  0  0
    4.8961   -1.5824    3.5080 C   0  0  1  0  0  0  0  0  0  0  0  0
    5.5472   -2.7955    4.1518 C   0  0  1  0  0  0  0  0  0  0  0  0
    5.1820   -3.9372    3.5430 F   0  0  0  0  0  0  0  0  0  0  0  0
    6.8955   -2.7338    4.0996 F   0  0  0  0  0  0  0  0  0  0  0  0
    5.2094   -2.9101    5.4494 F   0  0  0  0  0  0  0  0  0  0  0  0
    5.2885   -0.2951    4.2525 C   0  0  0  0  0  0  0  0  0  0  0  0
    4.6355    0.9524    3.6330 C   0  0  2  0  0  0  0  0  0  0  0  0
    4.9431    1.0291    2.1235 C   0  0  0  0  0  0  0  0  0  0  0  0
    5.3207    2.4433    4.4997 S   0  0  0  0  0  0  0  0  0  0  0  0
    3.7803    3.4209    4.4457 C   0  0  0  0  0  0  0  0  0  0  0  0
    2.6507    2.5002    4.8810 C   0  0  0  0  0  0  0  0  0  0  0  0
    2.7761    0.9331    3.9343 S   0  0  0  0  0  0  0  0  0  0  0  0
    1.0134    1.4181   -0.5307 H   0  0  0  0  0  0  0  0  0  0  0  0
    0.6572    0.5927    1.0325 H   0  0  0  0  0  0  0  0  0  0  0  0
    0.9512   -0.3828   -0.4368 H   0  0  0  0  0  0  0  0  0  0  0  0
    5.0647   -0.1428    0.3406 H   0  0  0  0  0  0  0  0  0  0  0  0
    6.3325   -1.4465    1.8982 H   0  0  0  0  0  0  0  0  0  0  0  0
    4.8962   -2.4125    1.5040 H   0  0  0  0  0  0  0  0  0  0  0  0
    3.8112   -1.7453    3.6140 H   0  0  0  0  0  0  0  0  0  0  0  0
    6.3860   -0.1778    4.2031 H   0  0  0  0  0  0  0  0  0  0  0  0
    5.0138   -0.3640    5.3136 H   0  0  0  0  0  0  0  0  0  0  0  0
    6.0261    1.2122    2.0241 H   0  0  0  0  0  0  0  0  0  0  0  0
    4.4266    1.8860    1.6705 H   0  0  0  0  0  0  0  0  0  0  0  0
    3.6077    3.8204    3.4342 H   0  0  0  0  0  0  0  0  0  0  0  0
    3.9101    4.2672    5.1389 H   0  0  0  0  0  0  0  0  0  0  0  0
    1.6606    2.9315    4.6621 H   0  0  0  0  0  0  0  0  0  0  0  0
    2.7141    2.2858    5.9582 H   0  0  0  0  0  0  0  0  0  0  0  0
  1  2  1  0
  1 19  1  0
  1 20  1  0
  1 21  1  0
  2  3  1  0
  3  4  2  0
  3  5  1  0
  5  6  1  0
  5 14  1  0
  5 22  1  6
  6  7  1  0
  6 23  1  0
  6 24  1  0
  7  8  1  0
  7 12  1  0
  7 25  1  6
  8  9  1  6
  8 10  1  0
  8 11  1  0
 12 13  1  0
 12 26  1  0
 12 27  1  0
 13 14  1  0
 13 15  1  1
 13 18  1  0
 14 28  1  0
 14 29  1  0
 15 16  1  0
 16 17  1  0
 16 30  1  0
 16 31  1  0
 17 18  1  0
 17 32  1  0
 17 33  1  0
M  END

