
     RDKit          3D

 41 41  0  0  0  0  0  0  0  0999 V2000
    2.0319   -0.3272    1.1150 C   0  0  0  0  0  0  0  0  0  0  0  0
    2.5451   -0.9702   -0.1805 C   0  0  1  0  0  0  0  0  0  0  0  0
    1.4940   -1.9211   -0.7693 C   0  0  0  0  0  0  0  0  0  0  0  0
    2.9642    0.0675   -1.2376 C   0  0  0  0  0  0  0  0  0  0  0  0
    4.0679    1.0580   -0.8330 C   0  0  1  0  0  0  0  0  0  0  0  0
    5.4006    0.3928   -0.4455 C   0  0  0  0  0  0  0  0  0  0  0  0
    5.9386   -0.4083   -1.5428 N   0  0  0  0  0  0  0  0  0  0  0  0
    4.2646    2.0147   -1.9250 N   0  0  0  0  0  0  0  0  0  0  0  0
    4.5375    3.3367   -1.7161 C   0  0  0  0  0  0  0  0  0  0  0  0
    4.7120    3.8040   -0.6009 O   0  0  0  0  0  0  0  0  0  0  0  0
    4.5751    4.1982   -2.9784 C   0  0  0  0  0  0  0  0  0  0  0  0
    5.4473    5.4368   -2.8248 C   0  0  1  0  0  0  0  0  0  0  0  0
    6.9706    5.1810   -2.6938 C   0  0  0  0  0  0  0  0  0  0  0  0
    7.6170    6.4863   -3.2241 C   0  0  0  0  0  0  0  0  0  0  0  0
    6.4175    7.2921   -3.8113 C   0  0  0  0  0  0  0  0  0  0  0  0
    5.2949    6.3615   -3.9539 N   0  0  0  0  0  0  0  0  0  0  0  0
    1.7145   -1.0961    1.8380 H   0  0  0  0  0  0  0  0  0  0  0  0
    1.1602    0.3201    0.9154 H   0  0  0  0  0  0  0  0  0  0  0  0
    2.7968    0.2914    1.6099 H   0  0  0  0  0  0  0  0  0  0  0  0
    3.4331   -1.5798    0.0658 H   0  0  0  0  0  0  0  0  0  0  0  0
    0.5725   -1.3758   -1.0375 H   0  0  0  0  0  0  0  0  0  0  0  0
    1.2162   -2.7068   -0.0481 H   0  0  0  0  0  0  0  0  0  0  0  0
    1.8648   -2.4173   -1.6808 H   0  0  0  0  0  0  0  0  0  0  0  0
    2.0749    0.6537   -1.5331 H   0  0  0  0  0  0  0  0  0  0  0  0
    3.3082   -0.4766   -2.1342 H   0  0  0  0  0  0  0  0  0  0  0  0
    3.7458    1.6592    0.0307 H   0  0  0  0  0  0  0  0  0  0  0  0
    5.2249   -0.2707    0.4169 H   0  0  0  0  0  0  0  0  0  0  0  0
    6.0789    1.1944   -0.0901 H   0  0  0  0  0  0  0  0  0  0  0  0
    6.2976    0.2085   -2.2726 H   0  0  0  0  0  0  0  0  0  0  0  0
    6.7360   -0.9583   -1.2257 H   0  0  0  0  0  0  0  0  0  0  0  0
    4.1075    1.6932   -2.8730 H   0  0  0  0  0  0  0  0  0  0  0  0
    3.5414    4.5224   -3.1937 H   0  0  0  0  0  0  0  0  0  0  0  0
    4.9042    3.5958   -3.8454 H   0  0  0  0  0  0  0  0  0  0  0  0
    5.1097    5.9607   -1.9137 H   0  0  0  0  0  0  0  0  0  0  0  0
    7.2570    4.3219   -3.3265 H   0  0  0  0  0  0  0  0  0  0  0  0
    7.2605    4.9384   -1.6612 H   0  0  0  0  0  0  0  0  0  0  0  0
    8.3727    6.2717   -3.9961 H   0  0  0  0  0  0  0  0  0  0  0  0
    8.1272    7.0506   -2.4279 H   0  0  0  0  0  0  0  0  0  0  0  0
    6.6436    7.7796   -4.7718 H   0  0  0  0  0  0  0  0  0  0  0  0
    6.1237    8.0893   -3.1068 H   0  0  0  0  0  0  0  0  0  0  0  0
    5.4146    5.8352   -4.8227 H   0  0  0  0  0  0  0  0  0  0  0  0
  1  2  1  0
  1 17  1  0
  1 18  1  0
  1 19  1  0
  2  3  1  0
  2  4  1  0
  2 20  1  1
  3 21  1  0
  3 22  1  0
  3 23  1  0
  4  5  1  0
  4 24  1  0
  4 25  1  0
  5  6  1  0
  5  8  1  0
  5 26  1  1
  6  7  1  0
  6 27  1  0
  6 28  1  0
  7 29  1  0
  7 30  1  0
  8  9  1  0
  8 31  1  0
  9 10  2  0
  9 11  1  0
 11 12  1  0
 11 32  1  0
 11 33  1  0
 12 13  1  0
 12 16  1  0
 12 34  1  1
 13 14  1  0
 13 35  1  0
 13 36  1  0
 14 15  1  0
 14 37  1  0
 14 38  1  0
 15 16  1  0
 15 39  1  0
 15 40  1  0
 16 41  1  0
M  END

