
     RDKit          3D

 57 60  0  0  0  0  0  0  0  0999 V2000
    5.7012   -2.7145    3.3366 C   0  0  0  0  0  0  0  0  0  0  0  0
    5.4497   -2.7786    1.9087 N   0  0  0  0  0  0  0  0  0  0  0  0
    4.4899   -1.7669    1.4857 C   0  0  0  0  0  0  0  0  0  0  0  0
    3.8875   -1.9927    0.0882 C   0  0  0  0  0  0  0  0  0  0  0  0
    4.7638   -1.6026   -1.0801 C   0  0  0  0  0  0  0  0  0  0  0  0
    4.3435   -0.6299   -1.9963 C   0  0  0  0  0  0  0  0  0  0  0  0
    5.1193   -0.2392   -3.0897 C   0  0  0  0  0  0  0  0  0  0  0  0
    6.3715   -0.8404   -3.2802 C   0  0  0  0  0  0  0  0  0  0  0  0
    7.2354   -0.5131   -4.3469 N   0  0  0  0  0  0  0  0  0  0  0  0
    7.0278    0.3310   -5.3992 C   0  0  0  0  0  0  0  0  0  0  0  0
    6.0121    0.9728   -5.6123 O   0  0  0  0  0  0  0  0  0  0  0  0
    8.2414    0.4784   -6.3388 C   0  0  1  0  0  0  0  0  0  0  0  0
    7.8191    0.7722   -7.3171 H   0  0  0  0  0  0  0  0  0  0  0  0
    9.2169    1.5742   -5.8469 C   0  0  0  0  0  0  0  0  0  0  0  0
   10.5691    1.1262   -6.4133 C   0  0  0  0  0  0  0  0  0  0  0  0
   10.5187   -0.3973   -6.2662 C   0  0  0  0  0  0  0  0  0  0  0  0
    9.0892   -0.7121   -6.4494 N   0  0  0  0  0  0  0  0  0  0  0  0
    8.7472   -1.8680   -7.1493 C   0  0  0  0  0  0  0  0  0  0  0  0
    9.5718   -2.7383   -7.3766 O   0  0  0  0  0  0  0  0  0  0  0  0
    7.4191   -1.9385   -7.5349 N   0  0  0  0  0  0  0  0  0  0  0  0
    6.7644   -2.9974   -8.1940 C   0  0  0  0  0  0  0  0  0  0  0  0
    7.4052   -4.1757   -8.6172 C   0  0  0  0  0  0  0  0  0  0  0  0
    6.6737   -5.1730   -9.2654 C   0  0  0  0  0  0  0  0  0  0  0  0
    5.3070   -5.0107   -9.5001 C   0  0  0  0  0  0  0  0  0  0  0  0
    4.4017   -6.2683  -10.3158 Cl  0  0  0  0  0  0  0  0  0  0  0  0
    4.6584   -3.8447   -9.0848 C   0  0  0  0  0  0  0  0  0  0  0  0
    5.3856   -2.8493   -8.4363 C   0  0  0  0  0  0  0  0  0  0  0  0
    6.8066   -1.8160   -2.3669 C   0  0  0  0  0  0  0  0  0  0  0  0
    6.0253   -2.2064   -1.2755 C   0  0  0  0  0  0  0  0  0  0  0  0
    6.5345   -3.2611   -0.3189 C   0  0  0  0  0  0  0  0  0  0  0  0
    6.6899   -2.8171    1.1461 C   0  0  0  0  0  0  0  0  0  0  0  0
    4.7534   -2.7940    3.8923 H   0  0  0  0  0  0  0  0  0  0  0  0
    6.2012   -1.7715    3.6596 H   0  0  0  0  0  0  0  0  0  0  0  0
    6.3442   -3.5536    3.6466 H   0  0  0  0  0  0  0  0  0  0  0  0
    4.9202   -0.7384    1.5362 H   0  0  0  0  0  0  0  0  0  0  0  0
    3.6616   -1.7916    2.2124 H   0  0  0  0  0  0  0  0  0  0  0  0
    2.9518   -1.4149    0.0287 H   0  0  0  0  0  0  0  0  0  0  0  0
    3.6026   -3.0580    0.0179 H   0  0  0  0  0  0  0  0  0  0  0  0
    3.3673   -0.1568   -1.8551 H   0  0  0  0  0  0  0  0  0  0  0  0
    4.7684    0.5147   -3.7904 H   0  0  0  0  0  0  0  0  0  0  0  0
    8.1094   -1.0299   -4.3876 H   0  0  0  0  0  0  0  0  0  0  0  0
    9.2466    1.5740   -4.7446 H   0  0  0  0  0  0  0  0  0  0  0  0
    8.8971    2.5743   -6.1703 H   0  0  0  0  0  0  0  0  0  0  0  0
   11.4251    1.5775   -5.8902 H   0  0  0  0  0  0  0  0  0  0  0  0
   10.6438    1.3993   -7.4789 H   0  0  0  0  0  0  0  0  0  0  0  0
   10.8660   -0.7181   -5.2672 H   0  0  0  0  0  0  0  0  0  0  0  0
   11.1160   -0.9452   -7.0068 H   0  0  0  0  0  0  0  0  0  0  0  0
    6.8169   -1.1529   -7.3227 H   0  0  0  0  0  0  0  0  0  0  0  0
    8.4697   -4.2992   -8.4348 H   0  0  0  0  0  0  0  0  0  0  0  0
    7.1733   -6.0865   -9.5929 H   0  0  0  0  0  0  0  0  0  0  0  0
    3.5899   -3.7188   -9.2667 H   0  0  0  0  0  0  0  0  0  0  0  0
    4.8717   -1.9406   -8.1085 H   0  0  0  0  0  0  0  0  0  0  0  0
    7.7836   -2.2877   -2.5156 H   0  0  0  0  0  0  0  0  0  0  0  0
    7.5178   -3.6107   -0.6710 H   0  0  0  0  0  0  0  0  0  0  0  0
    5.8664   -4.1405   -0.3306 H   0  0  0  0  0  0  0  0  0  0  0  0
    7.2288   -1.8399    1.1764 H   0  0  0  0  0  0  0  0  0  0  0  0
    7.3474   -3.5477    1.6448 H   0  0  0  0  0  0  0  0  0  0  0  0
  1  2  1  0
  1 32  1  0
  1 33  1  0
  1 34  1  0
  2  3  1  0
  2 31  1  0
  3  4  1  0
  3 35  1  0
  3 36  1  0
  4  5  1  0
  4 37  1  0
  4 38  1  0
  5  6  2  0
  5 29  1  0
  6  7  1  0
  6 39  1  0
  7  8  2  0
  7 40  1  0
  8  9  1  0
  8 28  1  0
  9 10  1  0
  9 41  1  0
 10 11  2  0
 10 12  1  0
 12 13  1  6
 12 14  1  0
 12 17  1  0
 14 15  1  0
 14 42  1  0
 14 43  1  0
 15 16  1  0
 15 44  1  0
 15 45  1  0
 16 17  1  0
 16 46  1  0
 16 47  1  0
 17 18  1  0
 18 19  2  0
 18 20  1  0
 20 21  1  0
 20 48  1  0
 21 22  2  0
 21 27  1  0
 22 23  1  0
 22 49  1  0
 23 24  2  0
 23 50  1  0
 24 25  1  0
 24 26  1  0
 26 27  2  0
 26 51  1  0
 27 52  1  0
 28 29  2  0
 28 53  1  0
 29 30  1  0
 30 31  1  0
 30 54  1  0
 30 55  1  0
 31 56  1  0
 31 57  1  0
M  END

