
     RDKit          3D

 36 35  0  0  0  0  0  0  0  0999 V2000
    0.7688    0.9379    0.1079 C   0  0  0  0  0  0  0  0  0  0  0  0
    1.7568    2.0534   -0.2500 C   0  0  1  0  0  0  0  0  0  0  0  0
    2.9088    1.5476   -1.1388 C   0  0  0  0  0  0  0  0  0  0  0  0
    2.4982    1.0496   -2.4499 N   0  0  0  0  0  0  0  0  0  0  0  0
    2.6023    1.8561   -3.5589 C   0  0  0  0  0  0  0  0  0  0  0  0
    2.9747    3.0260   -3.5126 O   0  0  0  0  0  0  0  0  0  0  0  0
    2.2596    1.2695   -4.7744 N   0  0  0  0  0  0  0  0  0  0  0  0
    1.5462    0.0025   -4.8974 C   0  0  0  0  0  0  0  0  0  0  0  0
    2.4574   -1.2096   -5.1270 C   0  0  0  0  0  0  0  0  0  0  0  0
    3.4731   -1.2875   -4.1440 O   0  0  0  0  0  0  0  0  0  0  0  0
    2.6337    2.0012   -5.9691 C   0  0  0  0  0  0  0  0  0  0  0  0
    4.1400    2.0282   -6.1933 C   0  0  1  0  0  0  0  0  0  0  0  0
    4.6421    0.7452   -6.1424 F   0  0  0  0  0  0  0  0  0  0  0  0
    4.4016    2.5199   -7.4285 F   0  0  0  0  0  0  0  0  0  0  0  0
    1.0549    3.2652   -0.8794 C   0  0  0  0  0  0  0  0  0  0  0  0
    0.2318    4.0898    0.1000 C   0  0  0  0  0  0  0  0  0  0  0  0
    0.1498    3.8881    1.2811 O   0  0  0  0  0  0  0  0  0  0  0  0
   -0.4324    5.1320   -0.4573 O   0  0  0  0  0  0  0  0  0  0  0  0
    1.2788    0.1089    0.6255 H   0  0  0  0  0  0  0  0  0  0  0  0
    0.2937    0.5267   -0.7985 H   0  0  0  0  0  0  0  0  0  0  0  0
   -0.0193    1.3141    0.7756 H   0  0  0  0  0  0  0  0  0  0  0  0
    2.2233    2.4066    0.6859 H   0  0  0  0  0  0  0  0  0  0  0  0
    3.4216    0.7239   -0.6171 H   0  0  0  0  0  0  0  0  0  0  0  0
    3.6415    2.3562   -1.2880 H   0  0  0  0  0  0  0  0  0  0  0  0
    2.6191    0.0544   -2.6208 H   0  0  0  0  0  0  0  0  0  0  0  0
    0.8193    0.0794   -5.7251 H   0  0  0  0  0  0  0  0  0  0  0  0
    0.9598   -0.1458   -3.9785 H   0  0  0  0  0  0  0  0  0  0  0  0
    2.8949   -1.1750   -6.1403 H   0  0  0  0  0  0  0  0  0  0  0  0
    1.8533   -2.1300   -5.0601 H   0  0  0  0  0  0  0  0  0  0  0  0
    4.1861   -0.6984   -4.4312 H   0  0  0  0  0  0  0  0  0  0  0  0
    2.2851    3.0448   -5.9218 H   0  0  0  0  0  0  0  0  0  0  0  0
    2.1785    1.5193   -6.8469 H   0  0  0  0  0  0  0  0  0  0  0  0
    4.6779    2.6270   -5.4426 H   0  0  0  0  0  0  0  0  0  0  0  0
    0.3917    2.9435   -1.7034 H   0  0  0  0  0  0  0  0  0  0  0  0
    1.7945    3.9350   -1.3521 H   0  0  0  0  0  0  0  0  0  0  0  0
   -0.2493    5.1765   -1.4069 H   0  0  0  0  0  0  0  0  0  0  0  0
  1  2  1  0
  1 19  1  0
  1 20  1  0
  1 21  1  0
  2  3  1  0
  2 15  1  0
  2 22  1  1
  3  4  1  0
  3 23  1  0
  3 24  1  0
  4  5  1  0
  4 25  1  0
  5  6  2  0
  5  7  1  0
  7  8  1  0
  7 11  1  0
  8  9  1  0
  8 26  1  0
  8 27  1  0
  9 10  1  0
  9 28  1  0
  9 29  1  0
 10 30  1  0
 11 12  1  0
 11 31  1  0
 11 32  1  0
 12 13  1  0
 12 14  1  0
 12 33  1  1
 15 16  1  0
 15 34  1  0
 15 35  1  0
 16 17  2  0
 16 18  1  0
 18 36  1  0
M  END

