
     RDKit          3D

 74 76  0  0  0  0  0  0  0  0999 V2000
    6.7475    4.6507   -4.1300 C   0  0  0  0  0  0  0  0  0  0  0  0
    7.0212    3.6894   -2.9719 C   0  0  0  0  0  0  0  0  0  0  0  0
    5.7964    3.3920   -2.0840 C   0  0  1  0  0  0  0  0  0  0  0  0
    5.4261    4.3522   -1.6907 H   0  0  0  0  0  0  0  0  0  0  0  0
    4.6626    2.6737   -2.8187 C   0  0  0  0  0  0  0  0  0  0  0  0
    6.1773    2.6047   -0.9090 N   0  0  0  0  0  0  0  0  0  0  0  0
    6.6344    3.1744    0.2318 C   0  0  0  0  0  0  0  0  0  0  0  0
    6.7069    4.3855    0.3852 O   0  0  0  0  0  0  0  0  0  0  0  0
    6.8846    2.2239    1.4490 C   0  0  1  0  0  0  0  0  0  0  0  0
    5.8610    1.9824    1.7732 H   0  0  0  0  0  0  0  0  0  0  0  0
    7.6327    0.8490    1.2966 C   0  0  0  0  0  0  0  0  0  0  0  0
    7.8269    0.2429   -0.0771 C   0  0  0  0  0  0  0  0  0  0  0  0
    8.8976    0.6590   -0.8896 C   0  0  0  0  0  0  0  0  0  0  0  0
    9.0981    0.0880   -2.1479 C   0  0  0  0  0  0  0  0  0  0  0  0
    8.2322   -0.9054   -2.6212 C   0  0  0  0  0  0  0  0  0  0  0  0
    7.1669   -1.3297   -1.8227 C   0  0  0  0  0  0  0  0  0  0  0  0
    6.9699   -0.7611   -0.5585 C   0  0  0  0  0  0  0  0  0  0  0  0
    7.4657    3.0222    2.5319 N   0  0  0  0  0  0  0  0  0  0  0  0
    6.5695    3.5983    3.5382 C   0  0  0  0  0  0  0  0  0  0  0  0
    6.6280    2.9496    4.9138 C   0  0  0  0  0  0  0  0  0  0  0  0
    6.2155    3.6895    6.0348 C   0  0  0  0  0  0  0  0  0  0  0  0
    6.1977    3.1185    7.3086 C   0  0  0  0  0  0  0  0  0  0  0  0
    6.6064    1.7950    7.4606 C   0  0  0  0  0  0  0  0  0  0  0  0
    6.5961    1.2411    8.6827 F   0  0  0  0  0  0  0  0  0  0  0  0
    7.0362    1.0388    6.3737 C   0  0  0  0  0  0  0  0  0  0  0  0
    7.0441    1.6242    5.1041 C   0  0  0  0  0  0  0  0  0  0  0  0
    8.7422    3.4814    2.3380 C   0  0  0  0  0  0  0  0  0  0  0  0
    9.4301    3.1273    1.3895 O   0  0  0  0  0  0  0  0  0  0  0  0
    9.3340    4.4859    3.3420 C   0  0  0  0  0  0  0  0  0  0  0  0
    9.1722    5.8525    2.8261 N   0  0  0  0  0  0  0  0  0  0  0  0
    9.8051    6.2377    1.5987 C   0  0  0  0  0  0  0  0  0  0  0  0
    9.0217    6.6297    0.5031 C   0  0  0  0  0  0  0  0  0  0  0  0
    9.6349    7.0196   -0.6905 C   0  0  0  0  0  0  0  0  0  0  0  0
   11.0247    7.0034   -0.8158 C   0  0  0  0  0  0  0  0  0  0  0  0
   11.7839    6.5951    0.2813 C   0  0  0  0  0  0  0  0  0  0  0  0
   13.2573    6.5702    0.1703 N   0  0  0  0  0  0  0  0  0  0  0  0
   13.7482    6.8805   -0.9026 O   0  0  0  0  0  0  0  0  0  0  0  0
   13.8934    6.2433    1.1604 O   0  0  0  0  0  0  0  0  0  0  0  0
   11.1991    6.2166    1.4884 C   0  0  0  0  0  0  0  0  0  0  0  0
    8.5942    7.0788    3.8397 S   0  0  1  0  0  0  0  0  0  0  0  0
   10.0352    7.7203    4.7098 C   0  0  0  0  0  0  0  0  0  0  0  0
    8.0902    8.1510    2.9880 O   0  0  0  0  0  0  0  0  0  0  0  0
    7.7414    6.4308    4.8433 O   0  0  0  0  0  0  0  0  0  0  0  0
    7.6786    4.8913   -4.6672 H   0  0  0  0  0  0  0  0  0  0  0  0
    6.3193    5.6012   -3.7689 H   0  0  0  0  0  0  0  0  0  0  0  0
    6.0466    4.2303   -4.8688 H   0  0  0  0  0  0  0  0  0  0  0  0
    7.8012    4.1160   -2.3209 H   0  0  0  0  0  0  0  0  0  0  0  0
    7.4238    2.7347   -3.3560 H   0  0  0  0  0  0  0  0  0  0  0  0
    4.2996    3.2696   -3.6686 H   0  0  0  0  0  0  0  0  0  0  0  0
    3.8113    2.4944   -2.1440 H   0  0  0  0  0  0  0  0  0  0  0  0
    4.9999    1.6996   -3.2137 H   0  0  0  0  0  0  0  0  0  0  0  0
    6.2603    1.5996   -1.0214 H   0  0  0  0  0  0  0  0  0  0  0  0
    7.0926    0.1233    1.9242 H   0  0  0  0  0  0  0  0  0  0  0  0
    8.6259    0.9788    1.7395 H   0  0  0  0  0  0  0  0  0  0  0  0
    9.5632    1.4422   -0.5188 H   0  0  0  0  0  0  0  0  0  0  0  0
    9.9384    0.4184   -2.7643 H   0  0  0  0  0  0  0  0  0  0  0  0
    8.3929   -1.3522   -3.6056 H   0  0  0  0  0  0  0  0  0  0  0  0
    6.4922   -2.1132   -2.1777 H   0  0  0  0  0  0  0  0  0  0  0  0
    6.1434   -1.1109    0.0680 H   0  0  0  0  0  0  0  0  0  0  0  0
    5.5455    3.5171    3.1408 H   0  0  0  0  0  0  0  0  0  0  0  0
    6.7488    4.6762    3.6372 H   0  0  0  0  0  0  0  0  0  0  0  0
    5.9247    4.7353    5.9111 H   0  0  0  0  0  0  0  0  0  0  0  0
    5.8832    3.6871    8.1860 H   0  0  0  0  0  0  0  0  0  0  0  0
    7.3604    0.0082    6.5312 H   0  0  0  0  0  0  0  0  0  0  0  0
    7.3929    1.0388    4.2513 H   0  0  0  0  0  0  0  0  0  0  0  0
   10.4002    4.2215    3.4389 H   0  0  0  0  0  0  0  0  0  0  0  0
    8.8684    4.4358    4.3322 H   0  0  0  0  0  0  0  0  0  0  0  0
    7.9372    6.5985    0.5951 H   0  0  0  0  0  0  0  0  0  0  0  0
    9.0184    7.3268   -1.5380 H   0  0  0  0  0  0  0  0  0  0  0  0
   11.5293    7.2913   -1.7375 H   0  0  0  0  0  0  0  0  0  0  0  0
   11.8408    5.9045    2.3117 H   0  0  0  0  0  0  0  0  0  0  0  0
   10.7448    8.1190    3.9734 H   0  0  0  0  0  0  0  0  0  0  0  0
   10.4820    6.9168    5.3096 H   0  0  0  0  0  0  0  0  0  0  0  0
    9.6674    8.5255    5.3605 H   0  0  0  0  0  0  0  0  0  0  0  0
  1  2  1  0
  1 44  1  0
  1 45  1  0
  1 46  1  0
  2  3  1  0
  2 47  1  0
  2 48  1  0
  3  4  1  1
  3  5  1  0
  3  6  1  0
  5 49  1  0
  5 50  1  0
  5 51  1  0
  6  7  1  0
  6 52  1  0
  7  8  2  0
  7  9  1  0
  9 10  1  1
  9 11  1  0
  9 18  1  0
 11 12  1  0
 11 53  1  0
 11 54  1  0
 12 13  2  0
 12 17  1  0
 13 14  1  0
 13 55  1  0
 14 15  2  0
 14 56  1  0
 15 16  1  0
 15 57  1  0
 16 17  2  0
 16 58  1  0
 17 59  1  0
 18 19  1  0
 18 27  1  0
 19 20  1  0
 19 60  1  0
 19 61  1  0
 20 21  2  0
 20 26  1  0
 21 22  1  0
 21 62  1  0
 22 23  2  0
 22 63  1  0
 23 24  1  0
 23 25  1  0
 25 26  2  0
 25 64  1  0
 26 65  1  0
 27 28  2  0
 27 29  1  0
 29 30  1  0
 29 66  1  0
 29 67  1  0
 30 31  1  0
 40 30  1  6
 31 32  2  0
 31 39  1  0
 32 33  1  0
 32 68  1  0
 33 34  2  0
 33 69  1  0
 34 35  1  0
 34 70  1  0
 35 36  1  0
 35 39  2  0
 36 37  2  0
 36 38  1  0
 39 71  1  0
 40 41  1  0
 40 42  2  0
 40 43  2  0
 41 72  1  0
 41 73  1  0
 41 74  1  0
M  CHG  2  36   1  38  -1
M  END

