
     RDKit          3D

 53 56  0  0  0  0  0  0  0  0999 V2000
    9.8863    3.0728   -5.5816 C   0  0  0  0  0  0  0  0  0  0  0  0
    9.3776    2.6957   -4.1902 C   0  0  0  0  0  0  0  0  0  0  0  0
    9.5673    3.7615   -3.2089 N   0  0  0  0  0  0  0  0  0  0  0  0
    8.6533    4.8961   -3.3157 C   0  0  0  0  0  0  0  0  0  0  0  0
    7.2808    4.6443   -2.6745 C   0  0  0  0  0  0  0  0  0  0  0  0
    7.4448    4.2079   -1.2859 N   0  0  0  0  0  0  0  0  0  0  0  0
    6.5745    4.7065   -0.3452 C   0  0  0  0  0  0  0  0  0  0  0  0
    5.6610    5.4549   -0.6451 O   0  0  0  0  0  0  0  0  0  0  0  0
    6.7307    4.2638    1.1314 C   0  0  2  0  0  0  0  0  0  0  0  0
    6.6959    3.1606    1.1588 H   0  0  0  0  0  0  0  0  0  0  0  0
    5.6032    4.8198    1.9970 C   0  0  0  0  0  0  0  0  0  0  0  0
    8.4018    4.5189    1.9023 S   0  0  0  0  0  0  0  0  0  0  0  0
    8.7114    6.2547    1.6693 C   0  0  0  0  0  0  0  0  0  0  0  0
    7.8583    6.9980    1.0375 N   0  0  0  0  0  0  0  0  0  0  0  0
    8.1809    8.3049    0.8967 C   0  0  0  0  0  0  0  0  0  0  0  0
    7.1611    9.4579    0.0748 S   0  0  0  0  0  0  0  0  0  0  0  0
    8.3110   10.7354    0.3849 C   0  0  0  0  0  0  0  0  0  0  0  0
    9.4107   10.3069    1.0749 C   0  0  0  0  0  0  0  0  0  0  0  0
    9.3431    8.9099    1.3730 C   0  0  0  0  0  0  0  0  0  0  0  0
   10.3146    8.1010    2.0851 C   0  0  0  0  0  0  0  0  0  0  0  0
   11.3706    8.4660    2.5584 O   0  0  0  0  0  0  0  0  0  0  0  0
    9.9035    6.7213    2.1985 N   0  0  0  0  0  0  0  0  0  0  0  0
   10.8069    5.8365    2.8940 C   0  0  0  0  0  0  0  0  0  0  0  0
   10.6382    5.6068    4.2631 C   0  0  0  0  0  0  0  0  0  0  0  0
   11.5213    4.7591    4.9352 C   0  0  0  0  0  0  0  0  0  0  0  0
   12.5727    4.1505    4.2433 C   0  0  0  0  0  0  0  0  0  0  0  0
   12.7432    4.3914    2.8764 C   0  0  0  0  0  0  0  0  0  0  0  0
   11.8620    5.2366    2.1991 C   0  0  0  0  0  0  0  0  0  0  0  0
    8.3335    3.0575   -1.1363 C   0  0  0  0  0  0  0  0  0  0  0  0
    9.6824    3.3395   -1.8212 C   0  0  0  0  0  0  0  0  0  0  0  0
    9.7834    2.2211   -6.2732 H   0  0  0  0  0  0  0  0  0  0  0  0
   10.9467    3.3656   -5.5371 H   0  0  0  0  0  0  0  0  0  0  0  0
    9.3226    3.9141   -6.0153 H   0  0  0  0  0  0  0  0  0  0  0  0
    9.9467    1.8208   -3.8343 H   0  0  0  0  0  0  0  0  0  0  0  0
    8.3212    2.3539   -4.2694 H   0  0  0  0  0  0  0  0  0  0  0  0
    8.5213    5.1699   -4.3733 H   0  0  0  0  0  0  0  0  0  0  0  0
    9.1166    5.7652   -2.8151 H   0  0  0  0  0  0  0  0  0  0  0  0
    6.7222    3.8739   -3.2417 H   0  0  0  0  0  0  0  0  0  0  0  0
    6.6666    5.5529   -2.6728 H   0  0  0  0  0  0  0  0  0  0  0  0
    5.6940    4.4471    3.0275 H   0  0  0  0  0  0  0  0  0  0  0  0
    4.6322    4.5078    1.5853 H   0  0  0  0  0  0  0  0  0  0  0  0
    5.6242    5.9166    1.9965 H   0  0  0  0  0  0  0  0  0  0  0  0
    8.0970   11.7427    0.0300 H   0  0  0  0  0  0  0  0  0  0  0  0
   10.2450   10.9439    1.3688 H   0  0  0  0  0  0  0  0  0  0  0  0
    9.8172    6.0937    4.7933 H   0  0  0  0  0  0  0  0  0  0  0  0
   11.3895    4.5779    6.0046 H   0  0  0  0  0  0  0  0  0  0  0  0
   13.2644    3.4899    4.7719 H   0  0  0  0  0  0  0  0  0  0  0  0
   13.5688    3.9233    2.3349 H   0  0  0  0  0  0  0  0  0  0  0  0
   11.9891    5.4401    1.1339 H   0  0  0  0  0  0  0  0  0  0  0  0
    7.8586    2.1649   -1.5915 H   0  0  0  0  0  0  0  0  0  0  0  0
    8.5101    2.8385   -0.0780 H   0  0  0  0  0  0  0  0  0  0  0  0
   10.3212    2.4438   -1.7610 H   0  0  0  0  0  0  0  0  0  0  0  0
   10.1859    4.1411   -1.2503 H   0  0  0  0  0  0  0  0  0  0  0  0
  1  2  1  0
  1 31  1  0
  1 32  1  0
  1 33  1  0
  2  3  1  0
  2 34  1  0
  2 35  1  0
  3  4  1  0
  3 30  1  0
  4  5  1  0
  4 36  1  0
  4 37  1  0
  5  6  1  0
  5 38  1  0
  5 39  1  0
  6  7  1  0
  6 29  1  0
  7  8  2  0
  7  9  1  0
  9 10  1  6
  9 11  1  0
  9 12  1  0
 11 40  1  0
 11 41  1  0
 11 42  1  0
 12 13  2  0
 13 14  1  0
 13 22  1  0
 14 15  2  0
 15 16  1  0
 15 19  1  0
 16 17  1  0
 17 18  2  0
 17 43  1  0
 18 19  1  0
 18 44  1  0
 19 20  2  0
 20 21  1  0
 20 22  1  0
 22 23  1  0
 23 24  2  0
 23 28  1  0
 24 25  1  0
 24 45  1  0
 25 26  2  0
 25 46  1  0
 26 27  1  0
 26 47  1  0
 27 28  2  0
 27 48  1  0
 28 49  1  0
 29 30  1  0
 29 50  1  0
 29 51  1  0
 30 52  1  0
 30 53  1  0
M  CHG  2  12   1  21  -1
M  END

