
     RDKit          3D

 62 66  0  0  0  0  0  0  0  0999 V2000
    1.7004    2.6352   -1.5691 C   0  0  0  0  0  0  0  0  0  0  0  0
    2.2614    1.5793   -0.6103 C   0  0  0  0  0  0  0  0  0  0  0  0
    3.0514    0.5233   -1.2404 N   0  0  0  0  0  0  0  0  0  0  0  0
    2.3746   -0.7317   -1.5653 C   0  0  0  0  0  0  0  0  0  0  0  0
    1.8758   -0.8491   -3.0096 C   0  0  0  0  0  0  0  0  0  0  0  0
    4.3719    0.7214   -1.5749 C   0  0  0  0  0  0  0  0  0  0  0  0
    5.0483    1.9430   -1.2741 C   0  0  0  0  0  0  0  0  0  0  0  0
    6.3731    2.1354   -1.6166 C   0  0  0  0  0  0  0  0  0  0  0  0
    7.1418    1.1519   -2.2871 C   0  0  0  0  0  0  0  0  0  0  0  0
    6.4846   -0.0840   -2.5008 C   0  0  0  0  0  0  0  0  0  0  0  0
    5.1424   -0.2892   -2.1919 C   0  0  0  0  0  0  0  0  0  0  0  0
    7.1386   -1.1450   -3.0209 O   0  0  0  0  0  0  0  0  0  0  0  0
    8.5266   -1.1977   -3.1837 C   0  0  0  0  0  0  0  0  0  0  0  0
    8.9900   -2.2550   -3.4991 O   0  0  0  0  0  0  0  0  0  0  0  0
    9.2261    0.0853   -3.0010 C   0  0  0  0  0  0  0  0  0  0  0  0
   10.6903    0.0642   -3.1570 C   0  0  0  0  0  0  0  0  0  0  0  0
   11.3958   -0.8747   -3.3865 O   0  0  0  0  0  0  0  0  0  0  0  0
   11.3259    1.2905   -2.9402 O   0  0  0  0  0  0  0  0  0  0  0  0
   10.6677    2.4675   -2.8752 C   0  0  0  0  0  0  0  0  0  0  0  0
   11.4544    3.6204   -2.9244 C   0  0  0  0  0  0  0  0  0  0  0  0
   10.8535    4.8897   -2.9470 C   0  0  0  0  0  0  0  0  0  0  0  0
   11.6427    6.0712   -3.0048 C   0  0  0  0  0  0  0  0  0  0  0  0
   12.3185    7.0882   -3.0552 C   0  0  0  0  0  0  0  0  0  0  0  0
   13.1120    8.2668   -3.1144 C   0  0  0  0  0  0  0  0  0  0  0  0
   12.5234    9.5501   -3.1614 C   0  0  0  0  0  0  0  0  0  0  0  0
   13.2943   10.7023   -3.2212 C   0  0  0  0  0  0  0  0  0  0  0  0
   14.7134   10.6382   -3.2372 C   0  0  0  0  0  0  0  0  0  0  0  0
   15.4841   11.7790   -3.2964 N   0  0  0  0  0  0  0  0  0  0  0  0
   16.9303   11.6798   -3.3193 C   0  0  0  0  0  0  0  0  0  0  0  0
   14.8520   13.0823   -3.3523 C   0  0  0  0  0  0  0  0  0  0  0  0
   15.3038    9.3469   -3.1901 C   0  0  0  0  0  0  0  0  0  0  0  0
   14.5231    8.2014   -3.1305 C   0  0  0  0  0  0  0  0  0  0  0  0
    9.4356    4.9614   -2.9483 C   0  0  0  0  0  0  0  0  0  0  0  0
    8.6705    3.8110   -2.8681 C   0  0  0  0  0  0  0  0  0  0  0  0
    9.2575    2.5242   -2.7786 C   0  0  0  0  0  0  0  0  0  0  0  0
    8.5337    1.2581   -2.6852 C   0  0  0  0  0  0  0  0  0  0  0  0
    1.1379    3.3983   -1.0069 H   0  0  0  0  0  0  0  0  0  0  0  0
    1.0170    2.1862   -2.3059 H   0  0  0  0  0  0  0  0  0  0  0  0
    2.5036    3.1450   -2.1229 H   0  0  0  0  0  0  0  0  0  0  0  0
    1.4309    1.0894   -0.0792 H   0  0  0  0  0  0  0  0  0  0  0  0
    2.8649    2.0660    0.1729 H   0  0  0  0  0  0  0  0  0  0  0  0
    1.5235   -0.8300   -0.8741 H   0  0  0  0  0  0  0  0  0  0  0  0
    3.0458   -1.5735   -1.3307 H   0  0  0  0  0  0  0  0  0  0  0  0
    1.1296   -0.0738   -3.2416 H   0  0  0  0  0  0  0  0  0  0  0  0
    1.4032   -1.8319   -3.1678 H   0  0  0  0  0  0  0  0  0  0  0  0
    2.7004   -0.7509   -3.7317 H   0  0  0  0  0  0  0  0  0  0  0  0
    4.5335    2.7463   -0.7511 H   0  0  0  0  0  0  0  0  0  0  0  0
    6.8421    3.0683   -1.3114 H   0  0  0  0  0  0  0  0  0  0  0  0
    4.7386   -1.2709   -2.4276 H   0  0  0  0  0  0  0  0  0  0  0  0
   12.5376    3.5078   -2.9728 H   0  0  0  0  0  0  0  0  0  0  0  0
   11.4345    9.6353   -3.1511 H   0  0  0  0  0  0  0  0  0  0  0  0
   12.7860   11.6650   -3.2563 H   0  0  0  0  0  0  0  0  0  0  0  0
   17.3276   11.1814   -2.4161 H   0  0  0  0  0  0  0  0  0  0  0  0
   17.3638   12.6869   -3.3622 H   0  0  0  0  0  0  0  0  0  0  0  0
   17.2966   11.1179   -4.1983 H   0  0  0  0  0  0  0  0  0  0  0  0
   14.2124   13.1984   -4.2468 H   0  0  0  0  0  0  0  0  0  0  0  0
   15.6246   13.8604   -3.3911 H   0  0  0  0  0  0  0  0  0  0  0  0
   14.2224   13.2782   -2.4650 H   0  0  0  0  0  0  0  0  0  0  0  0
   16.3871    9.2355   -3.2007 H   0  0  0  0  0  0  0  0  0  0  0  0
   15.0095    7.2240   -3.0958 H   0  0  0  0  0  0  0  0  0  0  0  0
    8.9518    5.9361   -3.0265 H   0  0  0  0  0  0  0  0  0  0  0  0
    7.5882    3.9050   -2.9218 H   0  0  0  0  0  0  0  0  0  0  0  0
  1  2  1  0
  1 37  1  0
  1 38  1  0
  1 39  1  0
  2  3  1  0
  2 40  1  0
  2 41  1  0
  3  4  1  0
  3  6  1  0
  4  5  1  0
  4 42  1  0
  4 43  1  0
  5 44  1  0
  5 45  1  0
  5 46  1  0
  6  7  2  0
  6 11  1  0
  7  8  1  0
  7 47  1  0
  8  9  2  0
  8 48  1  0
  9 10  1  0
  9 36  1  0
 10 11  2  0
 10 12  1  0
 11 49  1  0
 12 13  1  0
 13 14  2  0
 13 15  1  0
 15 16  1  0
 15 36  2  0
 16 17  2  0
 16 18  1  0
 18 19  1  0
 19 20  1  0
 19 35  2  0
 20 21  2  0
 20 50  1  0
 21 22  1  0
 21 33  1  0
 22 23  3  0
 23 24  1  0
 24 25  2  0
 24 32  1  0
 25 26  1  0
 25 51  1  0
 26 27  2  0
 26 52  1  0
 27 28  1  0
 27 31  1  0
 28 29  1  0
 28 30  1  0
 29 53  1  0
 29 54  1  0
 29 55  1  0
 30 56  1  0
 30 57  1  0
 30 58  1  0
 31 32  2  0
 31 59  1  0
 32 60  1  0
 33 34  2  0
 33 61  1  0
 34 35  1  0
 34 62  1  0
 35 36  1  0
M  END

