
     RDKit          3D

 31 31  0  0  0  0  0  0  0  0999 V2000
    0.7069    0.3307    0.1482 C   0  0  0  0  0  0  0  0  0  0  0  0
    2.1923    0.1899   -0.1871 C   0  0  0  0  0  0  0  0  0  0  0  0
    2.9319    1.5308   -0.2156 C   0  0  0  0  0  0  0  0  0  0  0  0
    4.4072    1.3831   -0.5496 C   0  0  0  0  0  0  0  0  0  0  0  0
    4.9972    2.6807   -0.5486 O   0  0  0  0  0  0  0  0  0  0  0  0
    6.3089    2.8257   -0.8270 C   0  0  0  0  0  0  0  0  0  0  0  0
    6.8018    4.1479   -0.8113 C   0  0  0  0  0  0  0  0  0  0  0  0
    8.1421    4.3990   -1.0854 C   0  0  0  0  0  0  0  0  0  0  0  0
    9.0122    3.3469   -1.3787 C   0  0  0  0  0  0  0  0  0  0  0  0
    8.5384    2.0181   -1.3991 C   0  0  0  0  0  0  0  0  0  0  0  0
    9.5114    0.9843   -1.7136 C   0  0  0  0  0  0  0  0  0  0  0  0
    9.3926   -0.3775   -1.8159 C   0  0  0  0  0  0  0  0  0  0  0  0
    8.1812   -1.1201   -1.6162 C   0  0  0  0  0  0  0  0  0  0  0  0
    7.2088   -1.7359   -1.4582 N   0  0  0  0  0  0  0  0  0  0  0  0
   10.5502   -1.1625   -2.1485 C   0  0  0  0  0  0  0  0  0  0  0  0
   11.4884   -1.7918   -2.4174 N   0  0  0  0  0  0  0  0  0  0  0  0
    7.1740    1.7662   -1.1194 C   0  0  0  0  0  0  0  0  0  0  0  0
    0.2036   -0.6488    0.1608 H   0  0  0  0  0  0  0  0  0  0  0  0
    0.1873    0.9633   -0.5906 H   0  0  0  0  0  0  0  0  0  0  0  0
    0.5617    0.7932    1.1387 H   0  0  0  0  0  0  0  0  0  0  0  0
    2.3032   -0.3111   -1.1657 H   0  0  0  0  0  0  0  0  0  0  0  0
    2.6742   -0.4793    0.5483 H   0  0  0  0  0  0  0  0  0  0  0  0
    2.8414    2.0360    0.7617 H   0  0  0  0  0  0  0  0  0  0  0  0
    2.4692    2.2048   -0.9575 H   0  0  0  0  0  0  0  0  0  0  0  0
    4.5399    0.9110   -1.5408 H   0  0  0  0  0  0  0  0  0  0  0  0
    4.9148    0.7391    0.1925 H   0  0  0  0  0  0  0  0  0  0  0  0
    6.1045    4.9555   -0.5798 H   0  0  0  0  0  0  0  0  0  0  0  0
    8.5139    5.4261   -1.0706 H   0  0  0  0  0  0  0  0  0  0  0  0
   10.0638    3.5490   -1.5938 H   0  0  0  0  0  0  0  0  0  0  0  0
   10.5210    1.3598   -1.9030 H   0  0  0  0  0  0  0  0  0  0  0  0
    6.7962    0.7482   -1.1311 H   0  0  0  0  0  0  0  0  0  0  0  0
  1  2  1  0
  1 18  1  0
  1 19  1  0
  1 20  1  0
  2  3  1  0
  2 21  1  0
  2 22  1  0
  3  4  1  0
  3 23  1  0
  3 24  1  0
  4  5  1  0
  4 25  1  0
  4 26  1  0
  5  6  1  0
  6  7  2  0
  6 17  1  0
  7  8  1  0
  7 27  1  0
  8  9  2  0
  8 28  1  0
  9 10  1  0
  9 29  1  0
 10 11  1  0
 10 17  2  0
 11 12  2  0
 11 30  1  0
 12 13  1  0
 12 15  1  0
 13 14  3  0
 15 16  3  0
 17 31  1  0
M  END

