
     RDKit          3D

 43 43  0  0  0  0  0  0  0  0999 V2000
    1.2548    2.6123    0.6087 C   0  0  0  0  0  0  0  0  0  0  0  0
    2.1054    1.9669   -0.4871 C   0  0  0  0  0  0  0  0  0  0  0  0
    2.7909    0.7548   -0.0643 N   0  0  0  0  0  0  0  0  0  0  0  0
    3.9973    0.7383    0.5522 C   0  0  0  0  0  0  0  0  0  0  0  0
    4.6263    1.9155    0.7274 N   0  0  0  0  0  0  0  0  0  0  0  0
    5.8145    1.9119    1.3285 C   0  0  0  0  0  0  0  0  0  0  0  0
    6.5413    3.2522    1.4507 C   0  0  1  0  0  0  0  0  0  0  0  0
    7.0114    3.5427    2.8751 C   0  0  0  0  0  0  0  0  0  0  0  0
    5.8767    3.6877    3.8880 C   0  0  0  0  0  0  0  0  0  0  0  0
    7.6928    3.2708    0.6220 O   0  0  0  0  0  0  0  0  0  0  0  0
    7.4384    3.3593   -0.7567 C   0  0  0  0  0  0  0  0  0  0  0  0
    6.4430    0.8414    1.8059 N   0  0  0  0  0  0  0  0  0  0  0  0
    5.8643   -0.3653    1.6423 C   0  0  0  0  0  0  0  0  0  0  0  0
    6.6457   -1.5465    2.1599 C   0  0  0  0  0  0  0  0  0  0  0  0
    7.6651   -2.1241    1.1415 C   0  0  1  0  0  0  0  0  0  0  0  0
    8.8287   -1.1623    0.8703 C   0  0  0  0  0  0  0  0  0  0  0  0
    8.1773   -3.4854    1.6282 C   0  0  0  0  0  0  0  0  0  0  0  0
    4.6265   -0.4602    0.9999 C   0  0  0  0  0  0  0  0  0  0  0  0
    3.6532   -2.3376    0.6702 I   0  0  0  0  0  0  0  0  0  0  0  0
    0.7432    3.5078    0.2202 H   0  0  0  0  0  0  0  0  0  0  0  0
    1.8862    2.9197    1.4560 H   0  0  0  0  0  0  0  0  0  0  0  0
    0.4860    1.9168    0.9831 H   0  0  0  0  0  0  0  0  0  0  0  0
    2.8667    2.6791   -0.8350 H   0  0  0  0  0  0  0  0  0  0  0  0
    1.4774    1.7033   -1.3540 H   0  0  0  0  0  0  0  0  0  0  0  0
    2.3008   -0.1292   -0.1369 H   0  0  0  0  0  0  0  0  0  0  0  0
    5.8273    4.0312    1.1181 H   0  0  0  0  0  0  0  0  0  0  0  0
    7.6117    4.4663    2.8316 H   0  0  0  0  0  0  0  0  0  0  0  0
    7.6915    2.7281    3.1699 H   0  0  0  0  0  0  0  0  0  0  0  0
    5.1785    4.4940    3.6066 H   0  0  0  0  0  0  0  0  0  0  0  0
    6.2728    3.9270    4.8874 H   0  0  0  0  0  0  0  0  0  0  0  0
    5.2920    2.7583    3.9821 H   0  0  0  0  0  0  0  0  0  0  0  0
    8.4113    3.4275   -1.2659 H   0  0  0  0  0  0  0  0  0  0  0  0
    6.8425    4.2595   -1.0100 H   0  0  0  0  0  0  0  0  0  0  0  0
    6.8996    2.4767   -1.1520 H   0  0  0  0  0  0  0  0  0  0  0  0
    5.9553   -2.3464    2.4653 H   0  0  0  0  0  0  0  0  0  0  0  0
    7.1895   -1.2094    3.0568 H   0  0  0  0  0  0  0  0  0  0  0  0
    7.1232   -2.2891    0.1919 H   0  0  0  0  0  0  0  0  0  0  0  0
    9.4434   -1.0323    1.7775 H   0  0  0  0  0  0  0  0  0  0  0  0
    8.4831   -0.1620    0.5727 H   0  0  0  0  0  0  0  0  0  0  0  0
    9.4834   -1.5580    0.0766 H   0  0  0  0  0  0  0  0  0  0  0  0
    8.6910   -3.3883    2.6001 H   0  0  0  0  0  0  0  0  0  0  0  0
    8.8981   -3.9154    0.9139 H   0  0  0  0  0  0  0  0  0  0  0  0
    7.3552   -4.2086    1.7539 H   0  0  0  0  0  0  0  0  0  0  0  0
  1  2  1  0
  1 20  1  0
  1 21  1  0
  1 22  1  0
  2  3  1  0
  2 23  1  0
  2 24  1  0
  3  4  1  0
  3 25  1  0
  4  5  2  0
  4 18  1  0
  5  6  1  0
  6  7  1  0
  6 12  2  0
  7  8  1  0
  7 10  1  0
  7 26  1  6
  8  9  1  0
  8 27  1  0
  8 28  1  0
  9 29  1  0
  9 30  1  0
  9 31  1  0
 10 11  1  0
 11 32  1  0
 11 33  1  0
 11 34  1  0
 12 13  1  0
 13 14  1  0
 13 18  2  0
 14 15  1  0
 14 35  1  0
 14 36  1  0
 15 16  1  0
 15 17  1  0
 15 37  1  6
 16 38  1  0
 16 39  1  0
 16 40  1  0
 17 41  1  0
 17 42  1  0
 17 43  1  0
 18 19  1  0
M  END

