
     RDKit          3D

 24 25  0  0  0  0  0  0  0  0999 V2000
    1.1909    0.3649   -0.8015 O   0  0  0  0  0  0  0  0  0  0  0  0
    2.1876    0.0575   -0.2054 C   0  0  0  0  0  0  0  0  0  0  0  0
    2.7417   -1.1642   -0.3726 O   0  0  0  0  0  0  0  0  0  0  0  0
    2.8861    0.9845    0.7507 C   0  0  0  0  0  0  0  0  0  0  0  0
    2.6354    2.3634    0.6468 C   0  0  0  0  0  0  0  0  0  0  0  0
    3.2018    3.2656    1.4447 N   0  0  0  0  0  0  0  0  0  0  0  0
    4.0248    2.8358    2.4006 C   0  0  0  0  0  0  0  0  0  0  0  0
    4.3282    1.4801    2.6355 C   0  0  0  0  0  0  0  0  0  0  0  0
    5.2146    1.0887    3.7592 C   0  0  0  0  0  0  0  0  0  0  0  0
    5.1642    1.7533    4.9985 C   0  0  0  0  0  0  0  0  0  0  0  0
    6.0089    1.4069    6.0496 C   0  0  0  0  0  0  0  0  0  0  0  0
    6.9408    0.3751    5.8951 C   0  0  0  0  0  0  0  0  0  0  0  0
    8.0715   -0.0770    7.3453 Br  0  0  0  0  0  0  0  0  0  0  0  0
    7.0210   -0.3136    4.6736 C   0  0  0  0  0  0  0  0  0  0  0  0
    8.1466   -1.5981    4.3929 Cl  0  0  0  0  0  0  0  0  0  0  0  0
    6.1570    0.0568    3.6332 C   0  0  0  0  0  0  0  0  0  0  0  0
    6.2547   -0.6041    2.4727 F   0  0  0  0  0  0  0  0  0  0  0  0
    3.7363    0.5460    1.7701 C   0  0  0  0  0  0  0  0  0  0  0  0
    3.6120   -1.2115    0.0475 H   0  0  0  0  0  0  0  0  0  0  0  0
    1.9495    2.7233   -0.1268 H   0  0  0  0  0  0  0  0  0  0  0  0
    4.4897    3.6093    3.0228 H   0  0  0  0  0  0  0  0  0  0  0  0
    4.4291    2.5461    5.1474 H   0  0  0  0  0  0  0  0  0  0  0  0
    5.9443    1.9306    7.0040 H   0  0  0  0  0  0  0  0  0  0  0  0
    3.9220   -0.5188    1.9251 H   0  0  0  0  0  0  0  0  0  0  0  0
  1  2  2  0
  2  3  1  0
  2  4  1  0
  3 19  1  0
  4  5  2  0
  4 18  1  0
  5  6  1  0
  5 20  1  0
  6  7  2  0
  7  8  1  0
  7 21  1  0
  8  9  1  0
  8 18  2  0
  9 10  2  0
  9 16  1  0
 10 11  1  0
 10 22  1  0
 11 12  2  0
 11 23  1  0
 12 13  1  0
 12 14  1  0
 14 15  1  0
 14 16  2  0
 16 17  1  0
 18 24  1  0
M  END

