
     RDKit          3D

 21 21  0  0  0  0  0  0  0  0999 V2000
    6.8115   -0.1019   -1.9673 C   0  0  0  0  0  0  0  0  0  0  0  0
    5.7874   -0.5790   -1.0884 O   0  0  0  0  0  0  0  0  0  0  0  0
    5.9300   -0.2750    0.2081 C   0  0  0  0  0  0  0  0  0  0  0  0
    6.8608    0.3382    0.6630 O   0  0  0  0  0  0  0  0  0  0  0  0
    4.7395   -0.8066    1.0106 C   0  0  2  0  0  0  0  0  0  0  0  0
    4.1553   -1.4744    0.3688 H   0  0  0  0  0  0  0  0  0  0  0  0
    3.6538    0.6373    1.3186 Cl  0  0  0  0  0  0  0  0  0  0  0  0
    5.1177   -1.4930    2.2957 C   0  0  0  0  0  0  0  0  0  0  0  0
    5.8781   -0.8471    3.2847 C   0  0  0  0  0  0  0  0  0  0  0  0
    6.2124   -1.5165    4.4576 C   0  0  0  0  0  0  0  0  0  0  0  0
    5.7970   -2.8379    4.6707 C   0  0  0  0  0  0  0  0  0  0  0  0
    6.2335   -3.6402    6.1495 Cl  0  0  0  0  0  0  0  0  0  0  0  0
    5.0346   -3.4885    3.6884 C   0  0  0  0  0  0  0  0  0  0  0  0
    4.4901   -5.1271    3.9049 Cl  0  0  0  0  0  0  0  0  0  0  0  0
    4.6995   -2.8108    2.5109 C   0  0  0  0  0  0  0  0  0  0  0  0
    6.5396   -0.4530   -2.9698 H   0  0  0  0  0  0  0  0  0  0  0  0
    7.7930   -0.5015   -1.6720 H   0  0  0  0  0  0  0  0  0  0  0  0
    6.8581    0.9972   -1.9448 H   0  0  0  0  0  0  0  0  0  0  0  0
    6.2105    0.1788    3.1268 H   0  0  0  0  0  0  0  0  0  0  0  0
    6.8039   -1.0224    5.2301 H   0  0  0  0  0  0  0  0  0  0  0  0
    4.1016   -3.3343    1.7624 H   0  0  0  0  0  0  0  0  0  0  0  0
  1  2  1  0
  1 16  1  0
  1 17  1  0
  1 18  1  0
  2  3  1  0
  3  4  2  0
  3  5  1  0
  5  6  1  6
  5  7  1  0
  5  8  1  0
  8  9  2  0
  8 15  1  0
  9 10  1  0
  9 19  1  0
 10 11  2  0
 10 20  1  0
 11 12  1  0
 11 13  1  0
 13 14  1  0
 13 15  2  0
 15 21  1  0
M  END

