
     RDKit          3D

 27 28  0  0  0  0  0  0  0  0999 V2000
    1.0525    0.6298   -0.4843 C   0  0  0  0  0  0  0  0  0  0  0  0
    2.4668    0.2095   -0.1642 C   0  0  0  0  0  0  0  0  0  0  0  0
    3.3473    1.0607    0.5202 C   0  0  0  0  0  0  0  0  0  0  0  0
    4.6532    0.6635    0.8227 C   0  0  0  0  0  0  0  0  0  0  0  0
    5.0748   -0.6005    0.4323 C   0  0  0  0  0  0  0  0  0  0  0  0
    6.3313   -0.9975    0.7293 F   0  0  0  0  0  0  0  0  0  0  0  0
    4.2398   -1.4831   -0.2613 C   0  0  0  0  0  0  0  0  0  0  0  0
    4.7377   -2.8577   -0.6521 C   0  0  0  0  0  0  0  0  0  0  0  0
    4.5057   -3.8690    0.3763 N   0  0  0  0  0  0  0  0  0  0  0  0
    5.2900   -4.1684    1.4355 C   0  0  0  0  0  0  0  0  0  0  0  0
    4.6068   -5.1304    2.1793 C   0  0  0  0  0  0  0  0  0  0  0  0
    5.0401   -5.7900    3.4108 C   0  0  0  0  0  0  0  0  0  0  0  0
    4.3951   -6.6239    4.0093 O   0  0  0  0  0  0  0  0  0  0  0  0
    3.3947   -5.3259    1.4567 C   0  0  0  0  0  0  0  0  0  0  0  0
    3.3433   -4.5597    0.3796 N   0  0  0  0  0  0  0  0  0  0  0  0
    2.9368   -1.0581   -0.5445 C   0  0  0  0  0  0  0  0  0  0  0  0
    0.8512    1.6580   -0.1501 H   0  0  0  0  0  0  0  0  0  0  0  0
    0.3188   -0.0321    0.0052 H   0  0  0  0  0  0  0  0  0  0  0  0
    0.8549    0.5831   -1.5680 H   0  0  0  0  0  0  0  0  0  0  0  0
    3.0093    2.0543    0.8261 H   0  0  0  0  0  0  0  0  0  0  0  0
    5.3442    1.3183    1.3571 H   0  0  0  0  0  0  0  0  0  0  0  0
    5.8165   -2.8297   -0.8562 H   0  0  0  0  0  0  0  0  0  0  0  0
    4.2201   -3.2118   -1.5525 H   0  0  0  0  0  0  0  0  0  0  0  0
    6.2512   -3.6820    1.5916 H   0  0  0  0  0  0  0  0  0  0  0  0
    6.0467   -5.4638    3.7851 H   0  0  0  0  0  0  0  0  0  0  0  0
    2.5804   -6.0070    1.7005 H   0  0  0  0  0  0  0  0  0  0  0  0
    2.2698   -1.7453   -1.0730 H   0  0  0  0  0  0  0  0  0  0  0  0
  1  2  1  0
  1 17  1  0
  1 18  1  0
  1 19  1  0
  2  3  2  0
  2 16  1  0
  3  4  1  0
  3 20  1  0
  4  5  2  0
  4 21  1  0
  5  6  1  0
  5  7  1  0
  7  8  1  0
  7 16  2  0
  8  9  1  0
  8 22  1  0
  8 23  1  0
  9 10  1  0
  9 15  1  0
 10 11  2  0
 10 24  1  0
 11 12  1  0
 11 14  1  0
 12 13  2  0
 12 25  1  0
 14 15  2  0
 14 26  1  0
 16 27  1  0
M  END

