
     RDKit          3D

 41 43  0  0  0  0  0  0  0  0999 V2000
   10.7518    1.4574   -0.4882 C   0  0  0  0  0  0  0  0  0  0  0  0
   10.1473    0.4954   -0.0603 C   0  0  0  0  0  0  0  0  0  0  0  0
    9.4370   -0.6416    0.4468 C   0  0  0  0  0  0  0  0  0  0  0  0
    9.8396   -1.2639    1.6457 C   0  0  0  0  0  0  0  0  0  0  0  0
    9.1309   -2.3662    2.1234 C   0  0  0  0  0  0  0  0  0  0  0  0
    8.0221   -2.8625    1.4357 C   0  0  0  0  0  0  0  0  0  0  0  0
    7.6225   -2.2644    0.2276 C   0  0  0  0  0  0  0  0  0  0  0  0
    6.4865   -2.6928   -0.4951 N   0  0  0  0  0  0  0  0  0  0  0  0
    5.8587   -3.9215   -0.5153 C   0  0  0  0  0  0  0  0  0  0  0  0
    4.5394   -3.8646   -0.6328 N   0  0  0  0  0  0  0  0  0  0  0  0
    3.8488   -5.0208   -0.6520 C   0  0  0  0  0  0  0  0  0  0  0  0
    2.5162   -4.9417   -0.7858 O   0  0  0  0  0  0  0  0  0  0  0  0
    1.8976   -3.6662   -0.9026 C   0  0  0  0  0  0  0  0  0  0  0  0
    0.4044   -3.9156   -1.0221 C   0  0  0  0  0  0  0  0  0  0  0  0
   -0.2249   -2.6667   -1.1433 O   0  0  0  0  0  0  0  0  0  0  0  0
   -1.6195   -2.7420   -1.2633 C   0  0  0  0  0  0  0  0  0  0  0  0
    4.3327   -6.2354   -0.5325 N   0  0  0  0  0  0  0  0  0  0  0  0
    5.6834   -6.3359   -0.4698 C   0  0  0  0  0  0  0  0  0  0  0  0
    6.2759   -7.6301   -0.4156 C   0  0  0  0  0  0  0  0  0  0  0  0
    7.6458   -7.7773   -0.4439 C   0  0  0  0  0  0  0  0  0  0  0  0
    8.4924   -6.6441   -0.5361 C   0  0  0  0  0  0  0  0  0  0  0  0
    7.9514   -5.3742   -0.5598 C   0  0  0  0  0  0  0  0  0  0  0  0
    6.5446   -5.1884   -0.4930 C   0  0  0  0  0  0  0  0  0  0  0  0
    8.3329   -1.1573   -0.2575 C   0  0  0  0  0  0  0  0  0  0  0  0
   11.2858    2.3094   -0.8652 H   0  0  0  0  0  0  0  0  0  0  0  0
   10.6999   -0.8739    2.1919 H   0  0  0  0  0  0  0  0  0  0  0  0
    9.4351   -2.8405    3.0597 H   0  0  0  0  0  0  0  0  0  0  0  0
    7.4627   -3.7086    1.8369 H   0  0  0  0  0  0  0  0  0  0  0  0
    5.8412   -1.9514   -0.7571 H   0  0  0  0  0  0  0  0  0  0  0  0
    2.2693   -3.1275   -1.7894 H   0  0  0  0  0  0  0  0  0  0  0  0
    2.1162   -3.0406   -0.0223 H   0  0  0  0  0  0  0  0  0  0  0  0
    0.0453   -4.4677   -0.1287 H   0  0  0  0  0  0  0  0  0  0  0  0
    0.2028   -4.5605   -1.9027 H   0  0  0  0  0  0  0  0  0  0  0  0
   -2.0064   -1.7161   -1.3514 H   0  0  0  0  0  0  0  0  0  0  0  0
   -2.0880   -3.2209   -0.3791 H   0  0  0  0  0  0  0  0  0  0  0  0
   -1.9295   -3.3143   -2.1617 H   0  0  0  0  0  0  0  0  0  0  0  0
    5.6014   -8.4873   -0.3761 H   0  0  0  0  0  0  0  0  0  0  0  0
    8.0863   -8.7775   -0.4139 H   0  0  0  0  0  0  0  0  0  0  0  0
    9.5751   -6.7769   -0.5949 H   0  0  0  0  0  0  0  0  0  0  0  0
    8.6110   -4.5110   -0.6442 H   0  0  0  0  0  0  0  0  0  0  0  0
    8.0293   -0.6921   -1.1973 H   0  0  0  0  0  0  0  0  0  0  0  0
  1  2  3  0
  1 25  1  0
  2  3  1  0
  3  4  2  0
  3 24  1  0
  4  5  1  0
  4 26  1  0
  5  6  2  0
  5 27  1  0
  6  7  1  0
  6 28  1  0
  7  8  1  0
  7 24  2  0
  8  9  1  0
  8 29  1  0
  9 10  2  0
  9 23  1  0
 10 11  1  0
 11 12  1  0
 11 17  2  0
 12 13  1  0
 13 14  1  0
 13 30  1  0
 13 31  1  0
 14 15  1  0
 14 32  1  0
 14 33  1  0
 15 16  1  0
 16 34  1  0
 16 35  1  0
 16 36  1  0
 17 18  1  0
 18 19  1  0
 18 23  2  0
 19 20  2  0
 19 37  1  0
 20 21  1  0
 20 38  1  0
 21 22  2  0
 21 39  1  0
 22 23  1  0
 22 40  1  0
 24 41  1  0
M  END

