
     RDKit          3D

 68 74  0  0  0  0  0  0  0  0999 V2000
    1.2006   -0.2356   -0.0676 C   0  0  0  0  0  0  0  0  0  0  0  0
    2.5806   -0.2429    0.2244 O   0  0  0  0  0  0  0  0  0  0  0  0
    3.2199   -1.4241    0.3964 C   0  0  0  0  0  0  0  0  0  0  0  0
    4.5958   -1.3481    0.6861 C   0  0  0  0  0  0  0  0  0  0  0  0
    5.3389   -2.5023    0.8796 C   0  0  0  0  0  0  0  0  0  0  0  0
    4.7381   -3.7824    0.7915 C   0  0  0  0  0  0  0  0  0  0  0  0
    5.5015   -4.9679    0.9908 C   0  0  0  0  0  0  0  0  0  0  0  0
    6.1603   -5.9847    1.1629 C   0  0  0  0  0  0  0  0  0  0  0  0
    6.9270   -7.1610    1.3636 C   0  0  0  0  0  0  0  0  0  0  0  0
    8.3253   -7.0565    1.6633 C   0  0  0  0  0  0  0  0  0  0  0  0
    8.9670   -5.8042    1.7643 C   0  0  0  0  0  0  0  0  0  0  0  0
   10.3267   -5.6827    2.0552 C   0  0  0  0  0  0  0  0  0  0  0  0
   10.9804   -4.4093    2.1582 C   0  0  0  0  0  0  0  0  0  0  0  0
   12.3177   -4.3256    2.4456 C   0  0  0  0  0  0  0  0  0  0  0  0
   13.0925   -5.5120    2.6496 C   0  0  0  0  0  0  0  0  0  0  0  0
   12.5079   -6.7483    2.5605 C   0  0  0  0  0  0  0  0  0  0  0  0
   11.1108   -6.8834    2.2618 C   0  0  0  0  0  0  0  0  0  0  0  0
   10.4834   -8.1265    2.1637 C   0  0  0  0  0  0  0  0  0  0  0  0
    9.1103   -8.2579    1.8700 C   0  0  0  0  0  0  0  0  0  0  0  0
    8.4839   -9.5446    1.7734 C   0  0  0  0  0  0  0  0  0  0  0  0
    9.2521  -10.7200    1.9763 C   0  0  0  0  0  0  0  0  0  0  0  0
    9.9140  -11.7342    2.1510 C   0  0  0  0  0  0  0  0  0  0  0  0
   10.6851  -12.9143    2.3540 C   0  0  0  0  0  0  0  0  0  0  0  0
   12.0678  -12.8419    2.6540 C   0  0  0  0  0  0  0  0  0  0  0  0
   12.8181  -13.9907    2.8517 C   0  0  0  0  0  0  0  0  0  0  0  0
   12.2180  -15.2610    2.7580 C   0  0  0  0  0  0  0  0  0  0  0  0
   13.0325  -16.3223    2.9673 O   0  0  0  0  0  0  0  0  0  0  0  0
   12.5053  -17.6284    2.8912 C   0  0  0  0  0  0  0  0  0  0  0  0
   10.8480  -15.3537    2.4613 C   0  0  0  0  0  0  0  0  0  0  0  0
   10.0991  -14.1934    2.2635 C   0  0  0  0  0  0  0  0  0  0  0  0
    7.0957   -9.6427    1.4753 C   0  0  0  0  0  0  0  0  0  0  0  0
    6.4555  -10.9150    1.3750 C   0  0  0  0  0  0  0  0  0  0  0  0
    5.1155  -10.9893    1.0867 C   0  0  0  0  0  0  0  0  0  0  0  0
    4.1354  -12.4436    0.9180 S   0  0  0  0  0  0  0  0  0  0  0  0
    2.6876  -11.4784    0.5751 C   0  0  0  0  0  0  0  0  0  0  0  0
    1.3884  -12.1733    0.3159 C   0  0  0  0  0  0  0  0  0  0  0  0
    2.9414  -10.1417    0.5892 C   0  0  0  0  0  0  0  0  0  0  0  0
    4.3174   -9.8066    0.8777 C   0  0  0  0  0  0  0  0  0  0  0  0
    4.9212   -8.5674    0.9712 C   0  0  0  0  0  0  0  0  0  0  0  0
    6.3084   -8.4413    1.2682 C   0  0  0  0  0  0  0  0  0  0  0  0
    3.3598   -3.8415    0.5005 C   0  0  0  0  0  0  0  0  0  0  0  0
    2.6057   -2.6842    0.3047 C   0  0  0  0  0  0  0  0  0  0  0  0
    0.9069    0.8183   -0.1622 H   0  0  0  0  0  0  0  0  0  0  0  0
    0.6074   -0.7011    0.7400 H   0  0  0  0  0  0  0  0  0  0  0  0
    0.9787   -0.7553   -1.0170 H   0  0  0  0  0  0  0  0  0  0  0  0
    5.0560   -0.3604    0.7534 H   0  0  0  0  0  0  0  0  0  0  0  0
    6.4050   -2.4286    1.1037 H   0  0  0  0  0  0  0  0  0  0  0  0
    8.3750   -4.9009    1.6085 H   0  0  0  0  0  0  0  0  0  0  0  0
   10.3872   -3.5041    2.0020 H   0  0  0  0  0  0  0  0  0  0  0  0
   12.8032   -3.3493    2.5212 H   0  0  0  0  0  0  0  0  0  0  0  0
   14.1577   -5.4234    2.8778 H   0  0  0  0  0  0  0  0  0  0  0  0
   13.0982   -7.6555    2.7160 H   0  0  0  0  0  0  0  0  0  0  0  0
   11.0725   -9.0319    2.3189 H   0  0  0  0  0  0  0  0  0  0  0  0
   12.5460  -11.8632    2.7298 H   0  0  0  0  0  0  0  0  0  0  0  0
   13.8838  -13.9383    3.0831 H   0  0  0  0  0  0  0  0  0  0  0  0
   13.3385  -18.3141    3.0949 H   0  0  0  0  0  0  0  0  0  0  0  0
   12.0975  -17.8490    1.8882 H   0  0  0  0  0  0  0  0  0  0  0  0
   11.7125  -17.7959    3.6423 H   0  0  0  0  0  0  0  0  0  0  0  0
   10.3549  -16.3226    2.3819 H   0  0  0  0  0  0  0  0  0  0  0  0
    9.0349  -14.2766    2.0334 H   0  0  0  0  0  0  0  0  0  0  0  0
    7.0511  -11.8146    1.5314 H   0  0  0  0  0  0  0  0  0  0  0  0
    1.0813  -12.7901    1.1776 H   0  0  0  0  0  0  0  0  0  0  0  0
    1.4566  -12.8460   -0.5558 H   0  0  0  0  0  0  0  0  0  0  0  0
    0.5940  -11.4383    0.1203 H   0  0  0  0  0  0  0  0  0  0  0  0
    2.1712   -9.3917    0.3991 H   0  0  0  0  0  0  0  0  0  0  0  0
    4.3354   -7.6605    0.8166 H   0  0  0  0  0  0  0  0  0  0  0  0
    2.8728   -4.8161    0.4272 H   0  0  0  0  0  0  0  0  0  0  0  0
    1.5426   -2.7756    0.0818 H   0  0  0  0  0  0  0  0  0  0  0  0
  1  2  1  0
  1 43  1  0
  1 44  1  0
  1 45  1  0
  2  3  1  0
  3  4  2  0
  3 42  1  0
  4  5  1  0
  4 46  1  0
  5  6  2  0
  5 47  1  0
  6  7  1  0
  6 41  1  0
  7  8  3  0
  8  9  1  0
  9 10  1  0
  9 40  2  0
 10 11  2  0
 10 19  1  0
 11 12  1  0
 11 48  1  0
 12 13  2  0
 12 17  1  0
 13 14  1  0
 13 49  1  0
 14 15  2  0
 14 50  1  0
 15 16  1  0
 15 51  1  0
 16 17  2  0
 16 52  1  0
 17 18  1  0
 18 19  2  0
 18 53  1  0
 19 20  1  0
 20 21  1  0
 20 31  2  0
 21 22  3  0
 22 23  1  0
 23 24  2  0
 23 30  1  0
 24 25  1  0
 24 54  1  0
 25 26  2  0
 25 55  1  0
 26 27  1  0
 26 29  1  0
 27 28  1  0
 28 56  1  0
 28 57  1  0
 28 58  1  0
 29 30  2  0
 29 59  1  0
 30 60  1  0
 31 32  1  0
 31 40  1  0
 32 33  2  0
 32 61  1  0
 33 34  1  0
 33 38  1  0
 34 35  1  0
 35 36  1  0
 35 37  2  0
 36 62  1  0
 36 63  1  0
 36 64  1  0
 37 38  1  0
 37 65  1  0
 38 39  2  0
 39 40  1  0
 39 66  1  0
 41 42  2  0
 41 67  1  0
 42 68  1  0
M  END

