
     RDKit          3D

 39 39  0  0  0  0  0  0  0  0999 V2000
    1.2667   -0.6501    0.5406 I   0  0  0  0  0  0  0  0  0  0  0  0
    3.3265    0.0123   -0.0397 C   0  0  1  0  0  0  0  0  0  0  0  0
    4.0613   -1.1282   -0.7547 C   0  0  0  0  0  0  0  0  0  0  0  0
    4.5080   -2.3160    0.1293 C   0  0  0  0  0  0  0  0  0  0  0  0
    5.8970   -2.1783    0.7911 C   0  0  0  0  0  0  0  0  0  0  0  0
    6.0600   -0.9071    1.6259 C   0  0  0  0  0  0  0  0  0  0  0  0
    7.4133   -0.6549    2.2959 C   0  0  0  0  0  0  0  0  0  0  0  0
    7.5362    0.7571    2.9120 C   0  0  0  0  0  0  0  0  0  0  0  0
    7.7493    1.9231    1.9058 C   0  0  0  0  0  0  0  0  0  0  0  0
    6.6308    2.9545    1.6876 C   0  0  2  0  0  0  0  0  0  0  0  0
    6.3088    4.1687    3.5348 I   0  0  0  0  0  0  0  0  0  0  0  0
    5.3142    2.3761    1.1868 C   0  0  0  0  0  0  0  0  0  0  0  0
    4.2875    3.3150    0.5533 C   0  0  0  0  0  0  0  0  0  0  0  0
    3.0103    2.5926    0.0674 C   0  0  0  0  0  0  0  0  0  0  0  0
    3.2359    1.3384   -0.8102 C   0  0  0  0  0  0  0  0  0  0  0  0
    3.7488    0.1757    0.9544 H   0  0  0  0  0  0  0  0  0  0  0  0
    4.9553   -0.6815   -1.2324 H   0  0  0  0  0  0  0  0  0  0  0  0
    3.4386   -1.4879   -1.5898 H   0  0  0  0  0  0  0  0  0  0  0  0
    4.5161   -3.2281   -0.4894 H   0  0  0  0  0  0  0  0  0  0  0  0
    3.7426   -2.4939    0.9044 H   0  0  0  0  0  0  0  0  0  0  0  0
    6.6743   -2.1905    0.0039 H   0  0  0  0  0  0  0  0  0  0  0  0
    6.0824   -3.0736    1.4111 H   0  0  0  0  0  0  0  0  0  0  0  0
    5.2716   -0.8708    2.4006 H   0  0  0  0  0  0  0  0  0  0  0  0
    5.8644   -0.0613    0.9595 H   0  0  0  0  0  0  0  0  0  0  0  0
    8.2295   -0.8056    1.5648 H   0  0  0  0  0  0  0  0  0  0  0  0
    7.5795   -1.4052    3.0889 H   0  0  0  0  0  0  0  0  0  0  0  0
    8.3889    0.7523    3.6088 H   0  0  0  0  0  0  0  0  0  0  0  0
    6.6538    0.9589    3.5437 H   0  0  0  0  0  0  0  0  0  0  0  0
    7.9583    1.5029    0.9021 H   0  0  0  0  0  0  0  0  0  0  0  0
    8.6600    2.4770    2.1795 H   0  0  0  0  0  0  0  0  0  0  0  0
    6.9972    3.7268    0.9969 H   0  0  0  0  0  0  0  0  0  0  0  0
    4.8444    1.7878    1.9910 H   0  0  0  0  0  0  0  0  0  0  0  0
    5.6124    1.6543    0.4090 H   0  0  0  0  0  0  0  0  0  0  0  0
    4.7618    3.8321   -0.3014 H   0  0  0  0  0  0  0  0  0  0  0  0
    3.9993    4.1038    1.2681 H   0  0  0  0  0  0  0  0  0  0  0  0
    2.4062    3.3215   -0.4962 H   0  0  0  0  0  0  0  0  0  0  0  0
    2.3911    2.3113    0.9368 H   0  0  0  0  0  0  0  0  0  0  0  0
    4.1790    1.4547   -1.3780 H   0  0  0  0  0  0  0  0  0  0  0  0
    2.4494    1.2606   -1.5770 H   0  0  0  0  0  0  0  0  0  0  0  0
  1  2  1  0
  2  3  1  0
  2 15  1  0
  2 16  1  1
  3  4  1  0
  3 17  1  0
  3 18  1  0
  4  5  1  0
  4 19  1  0
  4 20  1  0
  5  6  1  0
  5 21  1  0
  5 22  1  0
  6  7  1  0
  6 23  1  0
  6 24  1  0
  7  8  1  0
  7 25  1  0
  7 26  1  0
  8  9  1  0
  8 27  1  0
  8 28  1  0
  9 10  1  0
  9 29  1  0
  9 30  1  0
 10 11  1  0
 10 12  1  0
 10 31  1  6
 12 13  1  0
 12 32  1  0
 12 33  1  0
 13 14  1  0
 13 34  1  0
 13 35  1  0
 14 15  1  0
 14 36  1  0
 14 37  1  0
 15 38  1  0
 15 39  1  0
M  END

