
     RDKit          3D

 27 26  0  0  0  0  0  0  0  0999 V2000
    0.8113    0.0108   -0.1366 C   0  0  0  0  0  0  0  0  0  0  0  0
    2.3192    0.1414    0.0441 C   0  0  0  0  0  0  0  0  0  0  0  0
    2.9693    0.5713   -1.1902 N   0  0  0  0  0  0  0  0  0  0  0  0
    4.4341    0.6836   -1.1343 C   0  0  1  0  0  0  0  0  0  0  0  0
    5.0145   -0.7041   -1.4692 C   0  0  0  0  0  0  0  0  0  0  0  0
    4.4747   -1.1835   -2.6751 O   0  0  0  0  0  0  0  0  0  0  0  0
    4.9407    1.7361   -2.1313 C   0  0  0  0  0  0  0  0  0  0  0  0
    4.5017    3.1662   -1.8509 C   0  0  0  0  0  0  0  0  0  0  0  0
    4.9318    3.5448   -0.5655 O   0  0  0  0  0  0  0  0  0  0  0  0
    4.6005    4.8608   -0.2162 C   0  0  0  0  0  0  0  0  0  0  0  0
    0.3301   -0.3264    0.7948 H   0  0  0  0  0  0  0  0  0  0  0  0
    0.5722   -0.7105   -0.9338 H   0  0  0  0  0  0  0  0  0  0  0  0
    0.3571    0.9784   -0.4116 H   0  0  0  0  0  0  0  0  0  0  0  0
    2.7381   -0.8365    0.3360 H   0  0  0  0  0  0  0  0  0  0  0  0
    2.5389    0.8301    0.8896 H   0  0  0  0  0  0  0  0  0  0  0  0
    2.5537    1.4477   -1.4995 H   0  0  0  0  0  0  0  0  0  0  0  0
    4.7752    0.9849   -0.1236 H   0  0  0  0  0  0  0  0  0  0  0  0
    4.8131   -1.3996   -0.6264 H   0  0  0  0  0  0  0  0  0  0  0  0
    6.1108   -0.6432   -1.5743 H   0  0  0  0  0  0  0  0  0  0  0  0
    3.5388   -0.9127   -2.6271 H   0  0  0  0  0  0  0  0  0  0  0  0
    4.6268    1.4492   -3.1485 H   0  0  0  0  0  0  0  0  0  0  0  0
    6.0425    1.7106   -2.1219 H   0  0  0  0  0  0  0  0  0  0  0  0
    3.3968    3.2778   -1.9328 H   0  0  0  0  0  0  0  0  0  0  0  0
    4.9303    3.8422   -2.6209 H   0  0  0  0  0  0  0  0  0  0  0  0
    4.9813    5.0480    0.7987 H   0  0  0  0  0  0  0  0  0  0  0  0
    3.5035    5.0291   -0.2170 H   0  0  0  0  0  0  0  0  0  0  0  0
    5.0553    5.6017   -0.9053 H   0  0  0  0  0  0  0  0  0  0  0  0
  1  2  1  0
  1 11  1  0
  1 12  1  0
  1 13  1  0
  2  3  1  0
  2 14  1  0
  2 15  1  0
  3  4  1  0
  3 16  1  0
  4  5  1  0
  4  7  1  0
  4 17  1  1
  5  6  1  0
  5 18  1  0
  5 19  1  0
  6 20  1  0
  7  8  1  0
  7 21  1  0
  7 22  1  0
  8  9  1  0
  8 23  1  0
  8 24  1  0
  9 10  1  0
 10 25  1  0
 10 26  1  0
 10 27  1  0
M  END

