
     RDKit          3D

 38 39  0  0  0  0  0  0  0  0999 V2000
    1.4089    0.8477   -0.2422 C   0  0  0  0  0  0  0  0  0  0  0  0
    2.7603    0.3178    0.1725 C   0  0  0  0  0  0  0  0  0  0  0  0
    3.5119    0.9436    1.1787 C   0  0  0  0  0  0  0  0  0  0  0  0
    4.7527    0.4337    1.5719 C   0  0  0  0  0  0  0  0  0  0  0  0
    5.2650   -0.7129    0.9634 C   0  0  0  0  0  0  0  0  0  0  0  0
    4.5358   -1.3542   -0.0482 C   0  0  0  0  0  0  0  0  0  0  0  0
    5.0622   -2.6103   -0.6912 C   0  0  0  0  0  0  0  0  0  0  0  0
    4.5751   -3.7377    0.0430 O   0  0  0  0  0  0  0  0  0  0  0  0
    4.9067   -4.9909   -0.3316 C   0  0  0  0  0  0  0  0  0  0  0  0
    5.7267   -5.2892   -1.4310 C   0  0  0  0  0  0  0  0  0  0  0  0
    6.0476   -6.6077   -1.7852 C   0  0  0  0  0  0  0  0  0  0  0  0
    6.9251   -6.8656   -2.9839 C   0  0  0  0  0  0  0  0  0  0  0  0
    5.5052   -7.6210   -0.9719 C   0  0  0  0  0  0  0  0  0  0  0  0
    5.8267   -9.3466   -1.2729 S   0  0  1  0  0  0  0  0  0  0  0  0
    7.1942   -9.5569   -1.7302 O   0  0  0  0  0  0  0  0  0  0  0  0
    5.2593  -10.1483   -0.1969 O   0  0  0  0  0  0  0  0  0  0  0  0
    4.5742   -9.7121   -2.9992 Cl  0  0  0  0  0  0  0  0  0  0  0  0
    4.6728   -7.3352    0.1226 C   0  0  0  0  0  0  0  0  0  0  0  0
    4.3620   -6.0255    0.4692 C   0  0  0  0  0  0  0  0  0  0  0  0
    3.4834   -5.6866    1.6424 C   0  0  0  0  0  0  0  0  0  0  0  0
    3.2937   -0.8320   -0.4302 C   0  0  0  0  0  0  0  0  0  0  0  0
    1.2544    1.8798    0.1055 H   0  0  0  0  0  0  0  0  0  0  0  0
    0.5953    0.2318    0.1788 H   0  0  0  0  0  0  0  0  0  0  0  0
    1.2885    0.8350   -1.3371 H   0  0  0  0  0  0  0  0  0  0  0  0
    3.1217    1.8459    1.6581 H   0  0  0  0  0  0  0  0  0  0  0  0
    5.3241    0.9379    2.3554 H   0  0  0  0  0  0  0  0  0  0  0  0
    6.2361   -1.1108    1.2705 H   0  0  0  0  0  0  0  0  0  0  0  0
    6.1662   -2.6171   -0.6852 H   0  0  0  0  0  0  0  0  0  0  0  0
    4.7247   -2.6820   -1.7400 H   0  0  0  0  0  0  0  0  0  0  0  0
    6.1352   -4.4855   -2.0431 H   0  0  0  0  0  0  0  0  0  0  0  0
    7.1191   -5.9295   -3.5258 H   0  0  0  0  0  0  0  0  0  0  0  0
    6.4560   -7.5805   -3.6769 H   0  0  0  0  0  0  0  0  0  0  0  0
    7.8860   -7.3088   -2.6834 H   0  0  0  0  0  0  0  0  0  0  0  0
    4.2728   -8.1626    0.7106 H   0  0  0  0  0  0  0  0  0  0  0  0
    3.1401   -6.5958    2.1554 H   0  0  0  0  0  0  0  0  0  0  0  0
    2.6011   -5.1088    1.3225 H   0  0  0  0  0  0  0  0  0  0  0  0
    4.0188   -5.0539    2.3690 H   0  0  0  0  0  0  0  0  0  0  0  0
    2.7257   -1.3331   -1.2208 H   0  0  0  0  0  0  0  0  0  0  0  0
  1  2  1  0
  1 22  1  0
  1 23  1  0
  1 24  1  0
  2  3  2  0
  2 21  1  0
  3  4  1  0
  3 25  1  0
  4  5  2  0
  4 26  1  0
  5  6  1  0
  5 27  1  0
  6  7  1  0
  6 21  2  0
  7  8  1  0
  7 28  1  0
  7 29  1  0
  8  9  1  0
  9 10  2  0
  9 19  1  0
 10 11  1  0
 10 30  1  0
 11 12  1  0
 11 13  2  0
 12 31  1  0
 12 32  1  0
 12 33  1  0
 13 14  1  0
 13 18  1  0
 14 15  2  0
 14 16  2  0
 14 17  1  6
 18 19  2  0
 18 34  1  0
 19 20  1  0
 20 35  1  0
 20 36  1  0
 20 37  1  0
 21 38  1  0
M  END

