
     RDKit          3D

 70 74  0  0  0  0  0  0  0  0999 V2000
    2.3728   -4.3846    4.3826 C   0  0  0  0  0  0  0  0  0  0  0  0
    3.7660   -3.8816    4.7861 C   0  0  2  0  0  0  0  0  0  0  0  0
    3.7045   -2.4806    5.4070 C   0  0  0  0  0  0  0  0  0  0  0  0
    4.8095   -3.9681    3.6470 C   0  0  2  0  0  0  0  0  0  0  0  0
    5.7616   -3.5464    4.0463 H   0  0  0  0  0  0  0  0  0  0  0  0
    4.4584   -3.1290    2.4084 C   0  0  0  0  0  0  0  0  0  0  0  0
    5.4715   -3.2961    1.3674 N   0  0  0  0  0  0  0  0  0  0  0  0
    6.0655   -2.1732    0.8511 C   0  0  0  0  0  0  0  0  0  0  0  0
    5.7589   -1.0459    1.2323 O   0  0  0  0  0  0  0  0  0  0  0  0
    7.1247   -2.2690   -0.2117 C   0  0  0  0  0  0  0  0  0  0  0  0
    7.6144   -1.1102   -0.8070 C   0  0  0  0  0  0  0  0  0  0  0  0
    8.5690   -1.5236   -1.7009 N   0  0  0  0  0  0  0  0  0  0  0  0
    9.4105   -0.8269   -2.5556 C   0  0  0  0  0  0  0  0  0  0  0  0
    9.2861    0.6725   -2.6070 C   0  0  0  0  0  0  0  0  0  0  0  0
    8.2262    1.2370   -2.3742 O   0  0  0  0  0  0  0  0  0  0  0  0
   10.4312    1.3325   -2.9463 N   0  0  0  0  0  0  0  0  0  0  0  0
   10.4940    2.7782   -3.1103 C   0  0  0  0  0  0  0  0  0  0  0  0
   11.2407    3.4978   -1.9723 C   0  0  2  0  0  0  0  0  0  0  0  0
   12.2638    3.0748   -1.9610 H   0  0  0  0  0  0  0  0  0  0  0  0
   10.5956    3.2535   -0.5694 C   0  0  0  0  0  0  0  0  0  0  0  0
   10.5116    4.5113    0.3492 C   0  0  0  0  0  0  0  0  0  0  0  0
   10.8921    5.8100   -0.3727 C   0  0  1  0  0  0  0  0  0  0  0  0
   10.7831    6.6818    0.2947 H   0  0  0  0  0  0  0  0  0  0  0  0
   12.2522    5.5978   -1.0841 C   0  0  0  0  0  0  0  0  0  0  0  0
   11.4298    5.0007   -2.2571 C   0  0  2  0  0  0  0  0  0  0  0  0
   11.8028    5.1611   -3.2841 H   0  0  0  0  0  0  0  0  0  0  0  0
   10.2297    5.9109   -1.7913 C   0  0  2  0  0  0  0  0  0  0  0  0
   10.3505    7.3256   -2.3818 C   0  0  0  0  0  0  0  0  0  0  0  0
    8.7757    5.4606   -1.9653 C   0  0  0  0  0  0  0  0  0  0  0  0
   10.2707   -1.5502   -3.3533 C   0  0  0  0  0  0  0  0  0  0  0  0
   10.3287   -2.9697   -3.2983 C   0  0  0  0  0  0  0  0  0  0  0  0
    9.5121   -3.6552   -2.4296 C   0  0  0  0  0  0  0  0  0  0  0  0
    8.6125   -2.9377   -1.6074 C   0  0  0  0  0  0  0  0  0  0  0  0
    7.7442   -3.3769   -0.7104 N   0  0  0  0  0  0  0  0  0  0  0  0
    5.6785   -4.6892    0.9786 C   0  0  0  0  0  0  0  0  0  0  0  0
    6.0210   -5.5215    2.2135 C   0  0  0  0  0  0  0  0  0  0  0  0
    4.9893   -5.3581    3.2284 N   0  0  0  0  0  0  0  0  0  0  0  0
    1.7264   -4.4898    5.2689 H   0  0  0  0  0  0  0  0  0  0  0  0
    2.4388   -5.3608    3.8802 H   0  0  0  0  0  0  0  0  0  0  0  0
    1.8706   -3.6833    3.6960 H   0  0  0  0  0  0  0  0  0  0  0  0
    4.1450   -4.5660    5.5709 H   0  0  0  0  0  0  0  0  0  0  0  0
    3.2954   -1.7396    4.7009 H   0  0  0  0  0  0  0  0  0  0  0  0
    4.7016   -2.1289    5.7183 H   0  0  0  0  0  0  0  0  0  0  0  0
    3.0544   -2.4769    6.2967 H   0  0  0  0  0  0  0  0  0  0  0  0
    4.4034   -2.0621    2.6493 H   0  0  0  0  0  0  0  0  0  0  0  0
    3.4824   -3.4554    2.0075 H   0  0  0  0  0  0  0  0  0  0  0  0
    7.3370   -0.0726   -0.6754 H   0  0  0  0  0  0  0  0  0  0  0  0
   11.2998    0.8116   -2.9584 H   0  0  0  0  0  0  0  0  0  0  0  0
    9.4571    3.1275   -3.1870 H   0  0  0  0  0  0  0  0  0  0  0  0
   10.9933    3.0024   -4.0694 H   0  0  0  0  0  0  0  0  0  0  0  0
   11.1470    2.4553   -0.0494 H   0  0  0  0  0  0  0  0  0  0  0  0
    9.5832    2.8510   -0.7162 H   0  0  0  0  0  0  0  0  0  0  0  0
   11.1848    4.3953    1.2154 H   0  0  0  0  0  0  0  0  0  0  0  0
    9.4947    4.5946    0.7663 H   0  0  0  0  0  0  0  0  0  0  0  0
   12.9754    4.9271   -0.5913 H   0  0  0  0  0  0  0  0  0  0  0  0
   12.7652    6.5335   -1.3406 H   0  0  0  0  0  0  0  0  0  0  0  0
   11.3614    7.7492   -2.2959 H   0  0  0  0  0  0  0  0  0  0  0  0
    9.6578    8.0153   -1.8713 H   0  0  0  0  0  0  0  0  0  0  0  0
   10.0831    7.3211   -3.4519 H   0  0  0  0  0  0  0  0  0  0  0  0
    8.5597    4.4588   -1.5758 H   0  0  0  0  0  0  0  0  0  0  0  0
    8.4885    5.4709   -3.0304 H   0  0  0  0  0  0  0  0  0  0  0  0
    8.1025    6.1645   -1.4471 H   0  0  0  0  0  0  0  0  0  0  0  0
   10.8991   -1.0137   -4.0651 H   0  0  0  0  0  0  0  0  0  0  0  0
   11.0194   -3.5058   -3.9519 H   0  0  0  0  0  0  0  0  0  0  0  0
    9.5202   -4.7427   -2.3476 H   0  0  0  0  0  0  0  0  0  0  0  0
    6.4759   -4.7535    0.2334 H   0  0  0  0  0  0  0  0  0  0  0  0
    4.7398   -5.0763    0.5387 H   0  0  0  0  0  0  0  0  0  0  0  0
    7.0301   -5.2107    2.5684 H   0  0  0  0  0  0  0  0  0  0  0  0
    6.0831   -6.5846    1.9274 H   0  0  0  0  0  0  0  0  0  0  0  0
    5.1901   -5.9431    4.0384 H   0  0  0  0  0  0  0  0  0  0  0  0
  1  2  1  0
  1 38  1  0
  1 39  1  0
  1 40  1  0
  2  3  1  0
  2  4  1  0
  2 41  1  1
  3 42  1  0
  3 43  1  0
  3 44  1  0
  4  5  1  1
  4  6  1  0
  4 37  1  0
  6  7  1  0
  6 45  1  0
  6 46  1  0
  7  8  1  0
  7 35  1  0
  8  9  2  0
  8 10  1  0
 10 11  2  0
 10 34  1  0
 11 12  1  0
 11 47  1  0
 12 13  1  0
 12 33  1  0
 13 14  1  0
 13 30  2  0
 14 15  2  0
 14 16  1  0
 16 17  1  0
 16 48  1  0
 17 18  1  0
 17 49  1  0
 17 50  1  0
 18 19  1  1
 18 20  1  0
 18 25  1  0
 20 21  1  0
 20 51  1  0
 20 52  1  0
 21 22  1  0
 21 53  1  0
 21 54  1  0
 22 23  1  1
 22 24  1  0
 22 27  1  0
 24 25  1  0
 24 55  1  0
 24 56  1  0
 25 26  1  6
 25 27  1  0
 27 28  1  6
 27 29  1  0
 28 57  1  0
 28 58  1  0
 28 59  1  0
 29 60  1  0
 29 61  1  0
 29 62  1  0
 30 31  1  0
 30 63  1  0
 31 32  2  0
 31 64  1  0
 32 33  1  0
 32 65  1  0
 33 34  2  0
 35 36  1  0
 35 66  1  0
 35 67  1  0
 36 37  1  0
 36 68  1  0
 36 69  1  0
 37 70  1  0
M  END

