
     RDKit          3D

 60 61  0  0  0  0  0  0  0  0999 V2000
    3.6653    1.4086  -11.4756 C   0  0  0  0  0  0  0  0  0  0  0  0
    2.6030    0.5116  -12.0871 C   0  0  0  0  0  0  0  0  0  0  0  0
    1.3498    0.6173  -11.3788 O   0  0  0  0  0  0  0  0  0  0  0  0
    1.1817   -0.1564  -10.2985 C   0  0  0  0  0  0  0  0  0  0  0  0
    1.9692   -0.9652   -9.8850 O   0  0  0  0  0  0  0  0  0  0  0  0
   -0.1667    0.1788   -9.6218 C   0  0  1  0  0  0  0  0  0  0  0  0
   -0.6443   -0.9376   -8.9033 O   0  0  0  0  0  0  0  0  0  0  0  0
   -0.4464   -0.6429   -7.5728 C   0  0  0  0  0  0  0  0  0  0  0  0
   -0.0354    0.6267   -7.4184 C   0  0  0  0  0  0  0  0  0  0  0  0
    0.2851    1.4440   -6.2559 C   0  0  0  0  0  0  0  0  0  0  0  0
    0.1958    0.9241   -4.9497 C   0  0  0  0  0  0  0  0  0  0  0  0
    0.5007    1.7304   -3.8555 C   0  0  0  0  0  0  0  0  0  0  0  0
    0.8967    3.0592   -4.0387 C   0  0  0  0  0  0  0  0  0  0  0  0
    0.9955    3.5993   -5.3314 C   0  0  0  0  0  0  0  0  0  0  0  0
    1.4421    5.0328   -5.5200 C   0  0  0  0  0  0  0  0  0  0  0  0
    2.9449    5.2654   -5.2105 C   0  0  1  0  0  0  0  0  0  0  0  0
    3.8757    4.5594   -6.1978 C   0  0  0  0  0  0  0  0  0  0  0  0
    3.2408    6.7016   -5.0825 N   0  0  0  0  0  0  0  0  0  0  0  0
    3.3471    7.5504   -6.2725 C   0  0  0  0  0  0  0  0  0  0  0  0
    4.7787    7.9316   -6.6539 C   0  0  0  0  0  0  0  0  0  0  0  0
    3.2303    7.2289   -3.8145 C   0  0  0  0  0  0  0  0  0  0  0  0
    3.0326    6.5775   -2.8028 O   0  0  0  0  0  0  0  0  0  0  0  0
    3.4687    8.5604   -3.8376 O   0  0  0  0  0  0  0  0  0  0  0  0
    3.4843    9.3644   -2.6129 C   0  0  1  0  0  0  0  0  0  0  0  0
    4.6096    8.8915   -1.6861 C   0  0  0  0  0  0  0  0  0  0  0  0
    3.7713   10.7745   -3.1335 C   0  0  0  0  0  0  0  0  0  0  0  0
    2.1139    9.3114   -1.9285 C   0  0  0  0  0  0  0  0  0  0  0  0
    0.6883    2.7818   -6.4270 C   0  0  0  0  0  0  0  0  0  0  0  0
    0.0469    1.2209   -8.6791 O   0  0  0  0  0  0  0  0  0  0  0  0
    4.5841    1.3652  -12.0821 H   0  0  0  0  0  0  0  0  0  0  0  0
    3.9143    1.0813  -10.4553 H   0  0  0  0  0  0  0  0  0  0  0  0
    3.3243    2.4548  -11.4396 H   0  0  0  0  0  0  0  0  0  0  0  0
    2.9223   -0.5410  -12.0831 H   0  0  0  0  0  0  0  0  0  0  0  0
    2.3658    0.8130  -13.1173 H   0  0  0  0  0  0  0  0  0  0  0  0
   -0.9020    0.5020  -10.3778 H   0  0  0  0  0  0  0  0  0  0  0  0
   -0.6561   -1.4328   -6.8589 H   0  0  0  0  0  0  0  0  0  0  0  0
   -0.1143   -0.1112   -4.7896 H   0  0  0  0  0  0  0  0  0  0  0  0
    0.4253    1.3204   -2.8451 H   0  0  0  0  0  0  0  0  0  0  0  0
    1.1272    3.6863   -3.1726 H   0  0  0  0  0  0  0  0  0  0  0  0
    0.8670    5.6798   -4.8383 H   0  0  0  0  0  0  0  0  0  0  0  0
    1.2151    5.3623   -6.5478 H   0  0  0  0  0  0  0  0  0  0  0  0
    3.1334    4.8540   -4.2106 H   0  0  0  0  0  0  0  0  0  0  0  0
    3.7468    4.9206   -7.2311 H   0  0  0  0  0  0  0  0  0  0  0  0
    3.6641    3.4799   -6.2009 H   0  0  0  0  0  0  0  0  0  0  0  0
    4.9293    4.6991   -5.9119 H   0  0  0  0  0  0  0  0  0  0  0  0
    2.7561    8.4635   -6.1107 H   0  0  0  0  0  0  0  0  0  0  0  0
    2.8687    7.0126   -7.1054 H   0  0  0  0  0  0  0  0  0  0  0  0
    5.2584    8.4902   -5.8370 H   0  0  0  0  0  0  0  0  0  0  0  0
    4.7768    8.5725   -7.5509 H   0  0  0  0  0  0  0  0  0  0  0  0
    5.3906    7.0430   -6.8716 H   0  0  0  0  0  0  0  0  0  0  0  0
    5.5749    8.9085   -2.2163 H   0  0  0  0  0  0  0  0  0  0  0  0
    4.4206    7.8722   -1.3272 H   0  0  0  0  0  0  0  0  0  0  0  0
    4.6852    9.5667   -0.8193 H   0  0  0  0  0  0  0  0  0  0  0  0
    4.7378   10.8061   -3.6592 H   0  0  0  0  0  0  0  0  0  0  0  0
    3.8069   11.4893   -2.2974 H   0  0  0  0  0  0  0  0  0  0  0  0
    2.9864   11.0976   -3.8343 H   0  0  0  0  0  0  0  0  0  0  0  0
    1.8925    8.2992   -1.5681 H   0  0  0  0  0  0  0  0  0  0  0  0
    1.3232    9.6204   -2.6304 H   0  0  0  0  0  0  0  0  0  0  0  0
    2.0992   10.0047   -1.0729 H   0  0  0  0  0  0  0  0  0  0  0  0
    0.7554    3.1837   -7.4396 H   0  0  0  0  0  0  0  0  0  0  0  0
  1  2  1  0
  1 30  1  0
  1 31  1  0
  1 32  1  0
  2  3  1  0
  2 33  1  0
  2 34  1  0
  3  4  1  0
  4  5  2  0
  4  6  1  0
  6  7  1  0
  6 29  1  0
  6 35  1  6
  7  8  1  0
  8  9  2  0
  8 36  1  0
  9 10  1  0
  9 29  1  0
 10 11  2  0
 10 28  1  0
 11 12  1  0
 11 37  1  0
 12 13  2  0
 12 38  1  0
 13 14  1  0
 13 39  1  0
 14 15  1  0
 14 28  2  0
 15 16  1  0
 15 40  1  0
 15 41  1  0
 16 17  1  0
 16 18  1  0
 16 42  1  1
 17 43  1  0
 17 44  1  0
 17 45  1  0
 18 19  1  0
 18 21  1  0
 19 20  1  0
 19 46  1  0
 19 47  1  0
 20 48  1  0
 20 49  1  0
 20 50  1  0
 21 22  2  0
 21 23  1  0
 24 23  1  6
 24 25  1  0
 24 26  1  0
 24 27  1  0
 25 51  1  0
 25 52  1  0
 25 53  1  0
 26 54  1  0
 26 55  1  0
 26 56  1  0
 27 57  1  0
 27 58  1  0
 27 59  1  0
 28 60  1  0
M  END

