
     RDKit          3D

 30 30  0  0  0  0  0  0  0  0999 V2000
    0.9744   -0.1961   -0.2247 C   0  0  0  0  0  0  0  0  0  0  0  0
    2.4971   -0.0830   -0.1561 C   0  0  0  0  0  0  0  0  0  0  0  0
    3.0281    0.0151    1.2760 C   0  0  1  0  0  0  0  0  0  0  0  0
    2.6868   -1.0716    2.1216 O   0  0  0  0  0  0  0  0  0  0  0  0
    3.0542   -2.3569    1.6744 C   0  0  0  0  0  0  0  0  0  0  0  0
    4.5369    0.3459    1.3395 C   0  0  0  0  0  0  0  0  0  0  0  0
    5.1088    0.8393    0.3919 O   0  0  0  0  0  0  0  0  0  0  0  0
    5.2372    0.0972    2.6667 C   0  0  0  0  0  0  0  0  0  0  0  0
    6.6418    0.7103    2.7342 C   0  0  0  0  0  0  0  0  0  0  0  0
    7.3496    0.4323    4.0366 C   0  0  0  0  0  0  0  0  0  0  0  0
    7.0017    1.0405    5.2911 C   0  0  0  0  0  0  0  0  0  0  0  0
    7.7797    0.6134    6.3356 C   0  0  0  0  0  0  0  0  0  0  0  0
    8.9579   -0.5427    5.8177 S   0  0  0  0  0  0  0  0  0  0  0  0
    8.3963   -0.4488    4.1826 C   0  0  0  0  0  0  0  0  0  0  0  0
    0.6291   -0.2834   -1.2667 H   0  0  0  0  0  0  0  0  0  0  0  0
    0.4890    0.6912    0.2149 H   0  0  0  0  0  0  0  0  0  0  0  0
    0.6073   -1.0737    0.3299 H   0  0  0  0  0  0  0  0  0  0  0  0
    2.8486    0.8106   -0.6932 H   0  0  0  0  0  0  0  0  0  0  0  0
    2.9747   -0.9341   -0.6710 H   0  0  0  0  0  0  0  0  0  0  0  0
    2.5440    0.8863    1.7603 H   0  0  0  0  0  0  0  0  0  0  0  0
    2.8973   -3.0469    2.5164 H   0  0  0  0  0  0  0  0  0  0  0  0
    4.1175   -2.4184    1.3701 H   0  0  0  0  0  0  0  0  0  0  0  0
    2.4382   -2.7031    0.8244 H   0  0  0  0  0  0  0  0  0  0  0  0
    5.2854   -0.9932    2.8328 H   0  0  0  0  0  0  0  0  0  0  0  0
    4.5871    0.4640    3.4799 H   0  0  0  0  0  0  0  0  0  0  0  0
    6.5640    1.7990    2.5742 H   0  0  0  0  0  0  0  0  0  0  0  0
    7.2373    0.3298    1.8912 H   0  0  0  0  0  0  0  0  0  0  0  0
    6.2036    1.7774    5.4047 H   0  0  0  0  0  0  0  0  0  0  0  0
    7.7313    0.9181    7.3802 H   0  0  0  0  0  0  0  0  0  0  0  0
    8.8742   -1.0455    3.4061 H   0  0  0  0  0  0  0  0  0  0  0  0
  1  2  1  0
  1 15  1  0
  1 16  1  0
  1 17  1  0
  2  3  1  0
  2 18  1  0
  2 19  1  0
  3  4  1  0
  3  6  1  0
  3 20  1  1
  4  5  1  0
  5 21  1  0
  5 22  1  0
  5 23  1  0
  6  7  2  0
  6  8  1  0
  8  9  1  0
  8 24  1  0
  8 25  1  0
  9 10  1  0
  9 26  1  0
  9 27  1  0
 10 11  1  0
 10 14  2  0
 11 12  2  0
 11 28  1  0
 12 13  1  0
 12 29  1  0
 13 14  1  0
 14 30  1  0
M  END

