
     RDKit          3D

 59 62  0  0  0  0  0  0  0  0999 V2000
    7.7899   -0.5409    4.5078 C   0  0  0  0  0  0  0  0  0  0  0  0
    8.5872    0.7215    4.7888 C   0  0  0  0  0  0  0  0  0  0  0  0
    8.2947    1.7607    3.8336 O   0  0  0  0  0  0  0  0  0  0  0  0
    7.2430    2.5543    4.0865 C   0  0  0  0  0  0  0  0  0  0  0  0
    6.5204    2.4604    5.0561 O   0  0  0  0  0  0  0  0  0  0  0  0
    7.0551    3.5756    3.0428 C   0  0  0  0  0  0  0  0  0  0  0  0
    7.7602    3.8618    1.8754 C   0  0  0  0  0  0  0  0  0  0  0  0
    7.1093    4.9748    1.2661 C   0  0  0  0  0  0  0  0  0  0  0  0
    7.3350    5.7635    0.0758 C   0  0  0  0  0  0  0  0  0  0  0  0
    8.4532    5.5053   -0.8749 C   0  0  0  0  0  0  0  0  0  0  0  0
    9.4219    6.4931   -1.0826 C   0  0  0  0  0  0  0  0  0  0  0  0
   10.4970    6.3188   -1.9702 C   0  0  0  0  0  0  0  0  0  0  0  0
   11.5155    7.4001   -2.1793 C   0  0  0  0  0  0  0  0  0  0  0  0
   12.5384    7.8243   -0.7108 S   0  0  1  0  0  0  0  0  0  0  0  0
   13.3443    6.2809   -0.2302 C   0  0  0  0  0  0  0  0  0  0  0  0
   13.5785    8.7525   -1.1761 O   0  0  0  0  0  0  0  0  0  0  0  0
   11.6311    8.2108    0.3819 O   0  0  0  0  0  0  0  0  0  0  0  0
   10.6003    5.0895   -2.6351 C   0  0  0  0  0  0  0  0  0  0  0  0
    9.6514    4.0859   -2.4514 C   0  0  0  0  0  0  0  0  0  0  0  0
    8.5490    4.2758   -1.5950 C   0  0  0  0  0  0  0  0  0  0  0  0
    7.5700    3.3059   -1.4145 N   0  0  0  0  0  0  0  0  0  0  0  0
    7.2579    2.1855   -2.1935 C   0  0  0  0  0  0  0  0  0  0  0  0
    6.6753    1.0702   -1.5580 C   0  0  0  0  0  0  0  0  0  0  0  0
    6.2875   -0.0541   -2.2835 C   0  0  0  0  0  0  0  0  0  0  0  0
    6.4918   -0.0908   -3.6659 C   0  0  0  0  0  0  0  0  0  0  0  0
    6.0261   -1.5073   -4.5813 Cl  0  0  0  0  0  0  0  0  0  0  0  0
    7.0633    1.0051   -4.3171 C   0  0  0  0  0  0  0  0  0  0  0  0
    7.4352    2.1366   -3.5900 C   0  0  0  0  0  0  0  0  0  0  0  0
    6.4728    6.8101   -0.1221 C   0  0  0  0  0  0  0  0  0  0  0  0
    5.4280    7.1314    0.7240 N   0  0  0  0  0  0  0  0  0  0  0  0
    4.5574    8.2683    0.4349 C   0  0  0  0  0  0  0  0  0  0  0  0
    5.1205    6.4148    1.8934 C   0  0  0  0  0  0  0  0  0  0  0  0
    4.1823    6.7238    2.6181 O   0  0  0  0  0  0  0  0  0  0  0  0
    6.0335    5.3151    2.1081 C   0  0  0  0  0  0  0  0  0  0  0  0
    6.0180    4.4623    3.1669 N   0  0  0  0  0  0  0  0  0  0  0  0
    5.3581    4.4801    3.9382 H   0  0  0  0  0  0  0  0  0  0  0  0
    8.0947   -1.3370    5.2059 H   0  0  0  0  0  0  0  0  0  0  0  0
    7.9653   -0.8985    3.4812 H   0  0  0  0  0  0  0  0  0  0  0  0
    6.7130   -0.3625    4.6439 H   0  0  0  0  0  0  0  0  0  0  0  0
    9.6672    0.5452    4.6829 H   0  0  0  0  0  0  0  0  0  0  0  0
    8.3815    1.1010    5.8003 H   0  0  0  0  0  0  0  0  0  0  0  0
    8.6436    3.3309    1.5305 H   0  0  0  0  0  0  0  0  0  0  0  0
    9.3533    7.4187   -0.5081 H   0  0  0  0  0  0  0  0  0  0  0  0
   11.0708    8.3841   -2.4007 H   0  0  0  0  0  0  0  0  0  0  0  0
   12.2346    7.1643   -2.9765 H   0  0  0  0  0  0  0  0  0  0  0  0
   14.0036    5.9479   -1.0424 H   0  0  0  0  0  0  0  0  0  0  0  0
   12.5830    5.5300    0.0157 H   0  0  0  0  0  0  0  0  0  0  0  0
   13.9333    6.5419    0.6597 H   0  0  0  0  0  0  0  0  0  0  0  0
   11.4380    4.9060   -3.3145 H   0  0  0  0  0  0  0  0  0  0  0  0
    9.7722    3.1379   -2.9745 H   0  0  0  0  0  0  0  0  0  0  0  0
    7.0032    3.4130   -0.5816 H   0  0  0  0  0  0  0  0  0  0  0  0
    6.5292    1.0885   -0.4746 H   0  0  0  0  0  0  0  0  0  0  0  0
    5.8364   -0.9094   -1.7775 H   0  0  0  0  0  0  0  0  0  0  0  0
    7.2023    0.9794   -5.3993 H   0  0  0  0  0  0  0  0  0  0  0  0
    7.8410    2.9973   -4.1219 H   0  0  0  0  0  0  0  0  0  0  0  0
    6.5735    7.4566   -0.9952 H   0  0  0  0  0  0  0  0  0  0  0  0
    4.8825    8.7480   -0.4962 H   0  0  0  0  0  0  0  0  0  0  0  0
    4.5939    8.9952    1.2596 H   0  0  0  0  0  0  0  0  0  0  0  0
    3.5138    7.9345    0.3376 H   0  0  0  0  0  0  0  0  0  0  0  0
  1  2  1  0
  1 37  1  0
  1 38  1  0
  1 39  1  0
  2  3  1  0
  2 40  1  0
  2 41  1  0
  3  4  1  0
  4  5  2  0
  4  6  1  0
  6  7  2  0
  6 35  1  0
  7  8  1  0
  7 42  1  0
  8  9  1  0
  8 34  2  0
  9 10  1  0
  9 29  2  0
 10 11  2  0
 10 20  1  0
 11 12  1  0
 11 43  1  0
 12 13  1  0
 12 18  2  0
 14 13  1  6
 13 44  1  0
 13 45  1  0
 14 15  1  0
 14 16  2  0
 14 17  2  0
 15 46  1  0
 15 47  1  0
 15 48  1  0
 18 19  1  0
 18 49  1  0
 19 20  2  0
 19 50  1  0
 20 21  1  0
 21 22  1  0
 21 51  1  0
 22 23  2  0
 22 28  1  0
 23 24  1  0
 23 52  1  0
 24 25  2  0
 24 53  1  0
 25 26  1  0
 25 27  1  0
 27 28  2  0
 27 54  1  0
 28 55  1  0
 29 30  1  0
 29 56  1  0
 30 31  1  0
 30 32  1  0
 31 57  1  0
 31 58  1  0
 31 59  1  0
 32 33  2  0
 32 34  1  0
 34 35  1  0
 35 36  1  0
M  END

