
     RDKit          3D

 47 51  0  0  0  0  0  0  0  0999 V2000
    0.9925   -0.0604   -0.0225 C   0  0  0  0  0  0  0  0  0  0  0  0
    2.5023   -0.0383   -0.1022 C   0  0  0  0  0  0  0  0  0  0  0  0
    3.2276   -1.2266   -0.3524 C   0  0  0  0  0  0  0  0  0  0  0  0
    4.6194   -1.2471   -0.4426 C   0  0  0  0  0  0  0  0  0  0  0  0
    5.3018   -0.0369   -0.2835 C   0  0  0  0  0  0  0  0  0  0  0  0
    4.6041    1.1760   -0.0066 C   0  0  0  0  0  0  0  0  0  0  0  0
    3.2017    1.1603    0.0715 C   0  0  0  0  0  0  0  0  0  0  0  0
    5.6069    2.1998    0.1445 C   0  0  0  0  0  0  0  0  0  0  0  0
    6.8184    1.5926   -0.0503 C   0  0  0  0  0  0  0  0  0  0  0  0
    6.6647    0.2389   -0.3329 N   0  0  0  0  0  0  0  0  0  0  0  0
    7.6997   -0.7743   -0.1886 C   0  0  0  0  0  0  0  0  0  0  0  0
    9.1131   -0.2319   -0.4419 C   0  0  2  0  0  0  0  0  0  0  0  0
   10.1978   -1.2624   -0.2428 C   0  0  0  0  0  0  0  0  0  0  0  0
   11.0087   -1.6571   -1.3148 C   0  0  0  0  0  0  0  0  0  0  0  0
   11.9842   -2.6360   -1.1042 C   0  0  0  0  0  0  0  0  0  0  0  0
   12.1959   -3.2221    0.0757 N   0  0  0  0  0  0  0  0  0  0  0  0
   11.4315   -2.8371    1.1005 C   0  0  0  0  0  0  0  0  0  0  0  0
   10.4247   -1.8722    1.0006 C   0  0  0  0  0  0  0  0  0  0  0  0
    9.4165    1.2346    0.6585 S   0  0  2  0  0  0  0  0  0  0  0  0
   10.7303    1.8057    0.3399 O   0  0  0  0  0  0  0  0  0  0  0  0
    9.0685    0.8492    2.0387 O   0  0  0  0  0  0  0  0  0  0  0  0
    8.1111    2.3287   -0.0079 C   0  0  2  0  0  0  0  0  0  0  0  0
    7.9228    3.6059    0.8246 C   0  0  0  0  0  0  0  0  0  0  0  0
    6.7772    4.3387    0.3026 N   0  0  0  0  0  0  0  0  0  0  0  0
    6.7319    5.7196    0.7381 C   0  0  0  0  0  0  0  0  0  0  0  0
    5.4953    3.6562    0.4804 C   0  0  0  0  0  0  0  0  0  0  0  0
    0.5974   -1.0830   -0.1144 H   0  0  0  0  0  0  0  0  0  0  0  0
    0.5374    0.5449   -0.8248 H   0  0  0  0  0  0  0  0  0  0  0  0
    0.6324    0.3523    0.9345 H   0  0  0  0  0  0  0  0  0  0  0  0
    2.6773   -2.1629   -0.4794 H   0  0  0  0  0  0  0  0  0  0  0  0
    5.1464   -2.1843   -0.6339 H   0  0  0  0  0  0  0  0  0  0  0  0
    2.6540    2.0853    0.2757 H   0  0  0  0  0  0  0  0  0  0  0  0
    7.5130   -1.5852   -0.9113 H   0  0  0  0  0  0  0  0  0  0  0  0
    7.6591   -1.2163    0.8224 H   0  0  0  0  0  0  0  0  0  0  0  0
    9.1859    0.1909   -1.4554 H   0  0  0  0  0  0  0  0  0  0  0  0
   10.8864   -1.2096   -2.3045 H   0  0  0  0  0  0  0  0  0  0  0  0
   12.6236   -2.9573   -1.9349 H   0  0  0  0  0  0  0  0  0  0  0  0
   11.6258   -3.3206    2.0651 H   0  0  0  0  0  0  0  0  0  0  0  0
    9.8509   -1.5817    1.8821 H   0  0  0  0  0  0  0  0  0  0  0  0
    8.4857    2.5885   -1.0132 H   0  0  0  0  0  0  0  0  0  0  0  0
    8.8198    4.2359    0.7348 H   0  0  0  0  0  0  0  0  0  0  0  0
    7.8163    3.3251    1.8955 H   0  0  0  0  0  0  0  0  0  0  0  0
    7.6697    6.2335    0.4749 H   0  0  0  0  0  0  0  0  0  0  0  0
    6.5752    5.8338    1.8352 H   0  0  0  0  0  0  0  0  0  0  0  0
    5.9071    6.2436    0.2292 H   0  0  0  0  0  0  0  0  0  0  0  0
    4.7476    4.1519   -0.1652 H   0  0  0  0  0  0  0  0  0  0  0  0
    5.1152    3.7640    1.5257 H   0  0  0  0  0  0  0  0  0  0  0  0
  1  2  1  0
  1 27  1  0
  1 28  1  0
  1 29  1  0
  2  3  2  0
  2  7  1  0
  3  4  1  0
  3 30  1  0
  4  5  2  0
  4 31  1  0
  5  6  1  0
  5 10  1  0
  6  7  2  0
  6  8  1  0
  7 32  1  0
  8  9  2  0
  8 26  1  0
  9 10  1  0
  9 22  1  0
 10 11  1  0
 11 12  1  0
 11 33  1  0
 11 34  1  0
 12 13  1  0
 19 12  1  6
 12 35  1  6
 13 14  2  0
 13 18  1  0
 14 15  1  0
 14 36  1  0
 15 16  2  0
 15 37  1  0
 16 17  1  0
 17 18  2  0
 17 38  1  0
 18 39  1  0
 19 20  2  0
 19 21  2  0
 19 22  1  0
 22 23  1  0
 22 40  1  6
 23 24  1  0
 23 41  1  0
 23 42  1  0
 24 25  1  0
 24 26  1  0
 25 43  1  0
 25 44  1  0
 25 45  1  0
 26 46  1  0
 26 47  1  0
M  END

