
     RDKit          3D

 32 32  0  0  0  0  0  0  0  0999 V2000
    3.5029    0.9374    1.4749 C   0  0  0  0  0  0  0  0  0  0  0  0
    3.5163    0.2474    0.2452 O   0  0  0  0  0  0  0  0  0  0  0  0
    3.3291    0.9245   -0.9234 C   0  0  0  0  0  0  0  0  0  0  0  0
    3.1026    2.3077   -0.9475 C   0  0  0  0  0  0  0  0  0  0  0  0
    2.9052    2.9876   -2.1521 C   0  0  0  0  0  0  0  0  0  0  0  0
    2.9371    2.2647   -3.3375 C   0  0  0  0  0  0  0  0  0  0  0  0
    2.6937    3.0786   -4.8711 Cl  0  0  0  0  0  0  0  0  0  0  0  0
    3.1642    0.8842   -3.3213 C   0  0  0  0  0  0  0  0  0  0  0  0
    3.3660    0.1709   -2.1323 C   0  0  0  0  0  0  0  0  0  0  0  0
    3.6385   -1.3491   -2.1558 C   0  0  1  0  0  0  0  0  0  0  0  0
    3.6421   -1.9067   -3.5930 C   0  0  0  0  0  0  0  0  0  0  0  0
    5.0347   -1.6405   -1.5534 C   0  0  0  0  0  0  0  0  0  0  0  0
    2.5547   -2.1229   -1.3094 C   0  0  1  0  0  0  0  0  0  0  0  0
    1.1074   -1.8523   -1.7200 C   0  0  0  0  0  0  0  0  0  0  0  0
    2.8172   -3.5204   -1.2942 O   0  0  0  0  0  0  0  0  0  0  0  0
    3.6798    0.1842    2.2543 H   0  0  0  0  0  0  0  0  0  0  0  0
    2.5297    1.4253    1.6627 H   0  0  0  0  0  0  0  0  0  0  0  0
    4.3001    1.7004    1.5267 H   0  0  0  0  0  0  0  0  0  0  0  0
    3.0763    2.8765   -0.0187 H   0  0  0  0  0  0  0  0  0  0  0  0
    2.7290    4.0643   -2.1618 H   0  0  0  0  0  0  0  0  0  0  0  0
    3.1808    0.3681   -4.2783 H   0  0  0  0  0  0  0  0  0  0  0  0
    4.4346   -1.4459   -4.2011 H   0  0  0  0  0  0  0  0  0  0  0  0
    2.6866   -1.7596   -4.1192 H   0  0  0  0  0  0  0  0  0  0  0  0
    3.8535   -2.9859   -3.5653 H   0  0  0  0  0  0  0  0  0  0  0  0
    5.8240   -1.1811   -2.1694 H   0  0  0  0  0  0  0  0  0  0  0  0
    5.1989   -2.7273   -1.5217 H   0  0  0  0  0  0  0  0  0  0  0  0
    5.1233   -1.2516   -0.5314 H   0  0  0  0  0  0  0  0  0  0  0  0
    2.6828   -1.8073   -0.2664 H   0  0  0  0  0  0  0  0  0  0  0  0
    0.9080   -2.1740   -2.7570 H   0  0  0  0  0  0  0  0  0  0  0  0
    0.8522   -0.7847   -1.6503 H   0  0  0  0  0  0  0  0  0  0  0  0
    0.4298   -2.4145   -1.0592 H   0  0  0  0  0  0  0  0  0  0  0  0
    2.5084   -3.8968   -2.1286 H   0  0  0  0  0  0  0  0  0  0  0  0
  1  2  1  0
  1 16  1  0
  1 17  1  0
  1 18  1  0
  2  3  1  0
  3  4  2  0
  3  9  1  0
  4  5  1  0
  4 19  1  0
  5  6  2  0
  5 20  1  0
  6  7  1  0
  6  8  1  0
  8  9  2  0
  8 21  1  0
  9 10  1  0
 10 11  1  6
 10 12  1  0
 10 13  1  0
 11 22  1  0
 11 23  1  0
 11 24  1  0
 12 25  1  0
 12 26  1  0
 12 27  1  0
 13 14  1  0
 13 15  1  0
 13 28  1  1
 14 29  1  0
 14 30  1  0
 14 31  1  0
 15 32  1  0
M  END

