
     RDKit          3D

 46 48  0  0  0  0  0  0  0  0999 V2000
    6.5857   -2.9538   -0.5358 C   0  0  0  0  0  0  0  0  0  0  0  0
    5.6189   -1.9584   -1.6747 S   0  0  1  0  0  0  0  0  0  0  0  0
    5.1879   -2.8321   -2.7707 O   0  0  0  0  0  0  0  0  0  0  0  0
    4.6475   -1.2028   -0.8726 O   0  0  0  0  0  0  0  0  0  0  0  0
    6.7620   -0.9030   -2.3249 N   0  0  0  0  0  0  0  0  0  0  0  0
    6.7899    0.5023   -1.8831 C   0  0  1  0  0  0  0  0  0  0  0  0
    6.6038    0.5023   -0.7988 H   0  0  0  0  0  0  0  0  0  0  0  0
    8.1705    1.1139   -2.1725 C   0  0  0  0  0  0  0  0  0  0  0  0
    8.3935    1.3219   -3.6768 C   0  0  0  0  0  0  0  0  0  0  0  0
    7.2282    2.0910   -4.3074 C   0  0  0  0  0  0  0  0  0  0  0  0
    5.9479    1.4684   -3.9819 N   0  0  0  0  0  0  0  0  0  0  0  0
    5.0837    1.1357   -5.0252 C   0  0  0  0  0  0  0  0  0  0  0  0
    5.4405    1.1989   -6.1946 O   0  0  0  0  0  0  0  0  0  0  0  0
    3.8264    0.7068   -4.6693 N   0  0  0  0  0  0  0  0  0  0  0  0
    2.8536    0.3177   -5.6721 C   0  0  2  0  0  0  0  0  0  0  0  0
    3.4410   -0.0493   -6.5302 H   0  0  0  0  0  0  0  0  0  0  0  0
    1.8995    1.4434   -6.1552 C   0  0  0  0  0  0  0  0  0  0  0  0
    0.6172    0.7101   -6.6050 C   0  0  0  0  0  0  0  0  0  0  0  0
    0.6139   -0.5346   -5.7409 C   0  0  0  0  0  0  0  0  0  0  0  0
   -0.4306   -1.4171   -5.4603 C   0  0  0  0  0  0  0  0  0  0  0  0
   -0.1867   -2.5186   -4.6295 C   0  0  0  0  0  0  0  0  0  0  0  0
    1.0875   -2.7344   -4.0904 C   0  0  0  0  0  0  0  0  0  0  0  0
    2.1409   -1.8553   -4.3745 C   0  0  0  0  0  0  0  0  0  0  0  0
    1.8901   -0.7579   -5.2004 C   0  0  0  0  0  0  0  0  0  0  0  0
    5.6828    1.3391   -2.5603 C   0  0  0  0  0  0  0  0  0  0  0  0
    5.8850   -3.6605   -0.0706 H   0  0  0  0  0  0  0  0  0  0  0  0
    7.0302   -2.2975    0.2234 H   0  0  0  0  0  0  0  0  0  0  0  0
    7.3568   -3.4840   -1.1079 H   0  0  0  0  0  0  0  0  0  0  0  0
    6.7568   -1.0261   -3.3386 H   0  0  0  0  0  0  0  0  0  0  0  0
    8.9566    0.4771   -1.7373 H   0  0  0  0  0  0  0  0  0  0  0  0
    8.2208    2.0900   -1.6581 H   0  0  0  0  0  0  0  0  0  0  0  0
    8.5008    0.3468   -4.1837 H   0  0  0  0  0  0  0  0  0  0  0  0
    9.3358    1.8672   -3.8496 H   0  0  0  0  0  0  0  0  0  0  0  0
    7.3103    2.1230   -5.4000 H   0  0  0  0  0  0  0  0  0  0  0  0
    7.2303    3.1348   -3.9317 H   0  0  0  0  0  0  0  0  0  0  0  0
    3.4803    0.8453   -3.7291 H   0  0  0  0  0  0  0  0  0  0  0  0
    2.3556    2.0690   -6.9361 H   0  0  0  0  0  0  0  0  0  0  0  0
    1.6701    2.0948   -5.2942 H   0  0  0  0  0  0  0  0  0  0  0  0
    0.6820    0.4301   -7.6729 H   0  0  0  0  0  0  0  0  0  0  0  0
   -0.2944    1.3191   -6.4944 H   0  0  0  0  0  0  0  0  0  0  0  0
   -1.4292   -1.2493   -5.8745 H   0  0  0  0  0  0  0  0  0  0  0  0
   -0.9995   -3.2114   -4.3954 H   0  0  0  0  0  0  0  0  0  0  0  0
    1.2648   -3.5945   -3.4395 H   0  0  0  0  0  0  0  0  0  0  0  0
    3.1319   -2.0285   -3.9473 H   0  0  0  0  0  0  0  0  0  0  0  0
    4.7266    0.8422   -2.3657 H   0  0  0  0  0  0  0  0  0  0  0  0
    5.6429    2.3376   -2.0798 H   0  0  0  0  0  0  0  0  0  0  0  0
  1  2  1  0
  1 26  1  0
  1 27  1  0
  1 28  1  0
  2  3  2  0
  2  4  2  0
  2  5  1  6
  5  6  1  0
  5 29  1  0
  6  7  1  1
  6  8  1  0
  6 25  1  0
  8  9  1  0
  8 30  1  0
  8 31  1  0
  9 10  1  0
  9 32  1  0
  9 33  1  0
 10 11  1  0
 10 34  1  0
 10 35  1  0
 11 12  1  0
 11 25  1  0
 12 13  2  0
 12 14  1  0
 14 15  1  0
 14 36  1  0
 15 16  1  6
 15 17  1  0
 15 24  1  0
 17 18  1  0
 17 37  1  0
 17 38  1  0
 18 19  1  0
 18 39  1  0
 18 40  1  0
 19 20  1  0
 19 24  2  0
 20 21  2  0
 20 41  1  0
 21 22  1  0
 21 42  1  0
 22 23  2  0
 22 43  1  0
 23 24  1  0
 23 44  1  0
 25 45  1  0
 25 46  1  0
M  END

