
     RDKit          3D

 69 71  0  0  0  0  0  0  0  0999 V2000
    2.4838    5.1604   -4.0916 C   0  0  0  0  0  0  0  0  0  0  0  0
    3.9951    5.1018   -3.8643 C   0  0  0  0  0  0  0  0  0  0  0  0
    4.6036    3.7313   -4.1738 C   0  0  0  0  0  0  0  0  0  0  0  0
    6.1188    3.6420   -3.9461 C   0  0  0  0  0  0  0  0  0  0  0  0
    6.5271    3.8518   -2.5652 N   0  0  0  0  0  0  0  0  0  0  0  0
    6.6320    2.8263   -1.6767 C   0  0  0  0  0  0  0  0  0  0  0  0
    6.3956    1.6609   -1.9504 O   0  0  0  0  0  0  0  0  0  0  0  0
    7.0798    3.2651   -0.2561 C   0  0  1  0  0  0  0  0  0  0  0  0
    6.7314    2.1934    0.7693 C   0  0  0  0  0  0  0  0  0  0  0  0
    8.5076    3.6790   -0.2170 N   0  0  0  0  0  0  0  0  0  0  0  0
    9.5581    2.6940    0.0330 C   0  0  0  0  0  0  0  0  0  0  0  0
   10.1821    2.0514   -1.1975 C   0  0  0  0  0  0  0  0  0  0  0  0
    9.9260    2.4897   -2.5035 C   0  0  0  0  0  0  0  0  0  0  0  0
   10.5438    1.8963   -3.6081 C   0  0  0  0  0  0  0  0  0  0  0  0
   11.4388    0.8413   -3.4248 C   0  0  0  0  0  0  0  0  0  0  0  0
   11.7125    0.3820   -2.1346 C   0  0  0  0  0  0  0  0  0  0  0  0
   11.0883    0.9864   -1.0421 C   0  0  0  0  0  0  0  0  0  0  0  0
   11.4574    0.3858    0.5660 Cl  0  0  0  0  0  0  0  0  0  0  0  0
    8.7768    4.9920   -0.4773 C   0  0  0  0  0  0  0  0  0  0  0  0
    7.9206    5.7762   -0.8846 O   0  0  0  0  0  0  0  0  0  0  0  0
   10.1997    5.5176   -0.2380 C   0  0  0  0  0  0  0  0  0  0  0  0
   10.5667    5.5077    1.1824 N   0  0  0  0  0  0  0  0  0  0  0  0
    9.7258    6.1683    2.1319 C   0  0  0  0  0  0  0  0  0  0  0  0
    9.5801    5.6375    3.4256 C   0  0  0  0  0  0  0  0  0  0  0  0
    8.7592    6.2729    4.3523 C   0  0  0  0  0  0  0  0  0  0  0  0
    8.0472    7.4281    4.0084 C   0  0  0  0  0  0  0  0  0  0  0  0
    7.0159    8.1805    5.1885 Cl  0  0  0  0  0  0  0  0  0  0  0  0
    8.1724    7.9481    2.7103 C   0  0  0  0  0  0  0  0  0  0  0  0
    7.3010    9.3748    2.2267 Cl  0  0  0  0  0  0  0  0  0  0  0  0
    9.0122    7.3244    1.7828 C   0  0  0  0  0  0  0  0  0  0  0  0
   12.2583    5.4125    1.5081 S   0  0  1  0  0  0  0  0  0  0  0  0
   12.4008    5.1670    2.9405 O   0  0  0  0  0  0  0  0  0  0  0  0
   12.7839    4.4820    0.5071 O   0  0  0  0  0  0  0  0  0  0  0  0
   12.9165    7.0435    1.1572 C   0  0  0  0  0  0  0  0  0  0  0  0
   12.8897    8.0190    2.1610 C   0  0  0  0  0  0  0  0  0  0  0  0
   13.3800    9.2945    1.8726 C   0  0  0  0  0  0  0  0  0  0  0  0
   13.8943    9.5808    0.6032 C   0  0  0  0  0  0  0  0  0  0  0  0
   13.9283    8.5910   -0.3848 C   0  0  0  0  0  0  0  0  0  0  0  0
   13.4396    7.3106   -0.1129 C   0  0  0  0  0  0  0  0  0  0  0  0
    2.0776    6.1577   -3.8591 H   0  0  0  0  0  0  0  0  0  0  0  0
    1.9558    4.4292   -3.4568 H   0  0  0  0  0  0  0  0  0  0  0  0
    2.2259    4.9316   -5.1394 H   0  0  0  0  0  0  0  0  0  0  0  0
    4.2180    5.3700   -2.8165 H   0  0  0  0  0  0  0  0  0  0  0  0
    4.4922    5.8699   -4.4859 H   0  0  0  0  0  0  0  0  0  0  0  0
    4.4018    3.4672   -5.2280 H   0  0  0  0  0  0  0  0  0  0  0  0
    4.1133    2.9533   -3.5630 H   0  0  0  0  0  0  0  0  0  0  0  0
    6.6378    4.3879   -4.5723 H   0  0  0  0  0  0  0  0  0  0  0  0
    6.4725    2.6445   -4.2467 H   0  0  0  0  0  0  0  0  0  0  0  0
    6.7534    4.7862   -2.2253 H   0  0  0  0  0  0  0  0  0  0  0  0
    6.5255    4.1845   -0.0199 H   0  0  0  0  0  0  0  0  0  0  0  0
    7.1195    1.2072    0.4807 H   0  0  0  0  0  0  0  0  0  0  0  0
    5.6371    2.0966    0.8210 H   0  0  0  0  0  0  0  0  0  0  0  0
    7.0994    2.4683    1.7692 H   0  0  0  0  0  0  0  0  0  0  0  0
    9.1477    1.9046    0.6743 H   0  0  0  0  0  0  0  0  0  0  0  0
   10.3550    3.1561    0.6316 H   0  0  0  0  0  0  0  0  0  0  0  0
    9.2144    3.3018   -2.6616 H   0  0  0  0  0  0  0  0  0  0  0  0
   10.3174    2.2584   -4.6137 H   0  0  0  0  0  0  0  0  0  0  0  0
   11.9250    0.3694   -4.2820 H   0  0  0  0  0  0  0  0  0  0  0  0
   12.4074   -0.4419   -1.9642 H   0  0  0  0  0  0  0  0  0  0  0  0
   10.2187    6.5284   -0.6770 H   0  0  0  0  0  0  0  0  0  0  0  0
   10.9326    4.8998   -0.7726 H   0  0  0  0  0  0  0  0  0  0  0  0
   10.1238    4.7355    3.7002 H   0  0  0  0  0  0  0  0  0  0  0  0
    8.6480    5.8668    5.3590 H   0  0  0  0  0  0  0  0  0  0  0  0
    9.0721    7.7461    0.7811 H   0  0  0  0  0  0  0  0  0  0  0  0
   12.5068    7.7719    3.1522 H   0  0  0  0  0  0  0  0  0  0  0  0
   13.3671   10.0659    2.6462 H   0  0  0  0  0  0  0  0  0  0  0  0
   14.2793   10.5800    0.3853 H   0  0  0  0  0  0  0  0  0  0  0  0
   14.3453    8.8128   -1.3700 H   0  0  0  0  0  0  0  0  0  0  0  0
   13.4808    6.5181   -0.8619 H   0  0  0  0  0  0  0  0  0  0  0  0
  1  2  1  0
  1 40  1  0
  1 41  1  0
  1 42  1  0
  2  3  1  0
  2 43  1  0
  2 44  1  0
  3  4  1  0
  3 45  1  0
  3 46  1  0
  4  5  1  0
  4 47  1  0
  4 48  1  0
  5  6  1  0
  5 49  1  0
  6  7  2  0
  6  8  1  0
  8  9  1  0
  8 10  1  0
  8 50  1  1
  9 51  1  0
  9 52  1  0
  9 53  1  0
 10 11  1  0
 10 19  1  0
 11 12  1  0
 11 54  1  0
 11 55  1  0
 12 13  2  0
 12 17  1  0
 13 14  1  0
 13 56  1  0
 14 15  2  0
 14 57  1  0
 15 16  1  0
 15 58  1  0
 16 17  2  0
 16 59  1  0
 17 18  1  0
 19 20  2  0
 19 21  1  0
 21 22  1  0
 21 60  1  0
 21 61  1  0
 22 23  1  0
 31 22  1  1
 23 24  2  0
 23 30  1  0
 24 25  1  0
 24 62  1  0
 25 26  2  0
 25 63  1  0
 26 27  1  0
 26 28  1  0
 28 29  1  0
 28 30  2  0
 30 64  1  0
 31 32  2  0
 31 33  2  0
 31 34  1  0
 34 35  2  0
 34 39  1  0
 35 36  1  0
 35 65  1  0
 36 37  2  0
 36 66  1  0
 37 38  1  0
 37 67  1  0
 38 39  2  0
 38 68  1  0
 39 69  1  0
M  END

