
     RDKit          3D

114121  0  0  0  0  0  0  0  0999 V2000
    0.8592    0.5922    6.3473 C   0  0  0  0  0  0  0  0  0  0  0  0
    2.2310    1.2677    6.3728 C   0  0  0  0  0  0  0  0  0  0  0  0
    3.3151    0.4840    5.6263 C   0  0  0  0  0  0  0  0  0  0  0  0
    4.6920    1.1540    5.6470 C   0  0  0  0  0  0  0  0  0  0  0  0
    5.7753    0.3690    4.9015 C   0  0  0  0  0  0  0  0  0  0  0  0
    7.1510    1.0423    4.9211 C   0  0  0  0  0  0  0  0  0  0  0  0
    8.2273    0.2406    4.1844 C   0  0  0  0  0  0  0  0  0  0  0  0
    9.6085    0.9061    4.1363 C   0  0  0  0  0  0  0  0  0  0  0  0
   10.2190    1.1066    5.4443 N   0  0  0  0  0  0  0  0  0  0  0  0
   10.8446    0.0787    6.1680 C   0  0  0  0  0  0  0  0  0  0  0  0
   10.9394   -1.0720    5.8059 O   0  0  0  0  0  0  0  0  0  0  0  0
   11.3441    0.7184    7.4221 C   0  0  0  0  0  0  0  0  0  0  0  0
   12.0195    0.1849    8.4822 C   0  0  0  0  0  0  0  0  0  0  0  0
   12.3870    1.0465    9.5710 C   0  0  0  0  0  0  0  0  0  0  0  0
   13.0794    0.5412   10.6804 C   0  0  0  0  0  0  0  0  0  0  0  0
   13.4512    1.3602   11.7558 C   0  0  0  0  0  0  0  0  0  0  0  0
   14.1601    0.8162   12.8802 C   0  0  0  0  0  0  0  0  0  0  0  0
   14.5051    1.6503   13.9048 C   0  0  0  0  0  0  0  0  0  0  0  0
   15.2290    1.3718   15.1814 C   0  0  0  0  0  0  0  0  0  0  0  0
   15.6676    0.3244   15.5994 O   0  0  0  0  0  0  0  0  0  0  0  0
   15.3076    2.6059   15.8467 N   0  0  0  0  0  0  0  0  0  0  0  0
   15.9292    2.7710   17.1543 C   0  0  0  0  0  0  0  0  0  0  0  0
   17.4622    2.8137   17.1189 C   0  0  0  0  0  0  0  0  0  0  0  0
   18.0563    3.9843   16.3311 C   0  0  0  0  0  0  0  0  0  0  0  0
   19.5872    4.0225   16.3664 C   0  0  0  0  0  0  0  0  0  0  0  0
   20.1952    5.1814   15.5710 C   0  0  0  0  0  0  0  0  0  0  0  0
   21.7255    5.2239   15.6079 C   0  0  0  0  0  0  0  0  0  0  0  0
   22.3348    6.3822   14.8117 C   0  0  0  0  0  0  0  0  0  0  0  0
   23.8631    6.4180   14.8541 C   0  0  0  0  0  0  0  0  0  0  0  0
   14.6872    3.6520   15.1383 C   0  0  0  0  0  0  0  0  0  0  0  0
   14.6045    4.7986   15.5148 O   0  0  0  0  0  0  0  0  0  0  0  0
   14.1761    3.0337   13.8798 C   0  0  0  0  0  0  0  0  0  0  0  0
   13.5001    3.5982   12.8334 C   0  0  0  0  0  0  0  0  0  0  0  0
   13.1154    2.7702   11.7303 C   0  0  0  0  0  0  0  0  0  0  0  0
   12.4098    3.3045   10.6097 C   0  0  0  0  0  0  0  0  0  0  0  0
   12.0755    4.6836   10.5745 C   0  0  0  0  0  0  0  0  0  0  0  0
   11.7876    5.8720   10.5444 C   0  0  0  0  0  0  0  0  0  0  0  0
   11.4533    7.2535   10.5097 C   0  0  0  0  0  0  0  0  0  0  0  0
   10.7685    7.8120    9.4060 C   0  0  0  0  0  0  0  0  0  0  0  0
   10.4459    9.1617    9.3693 C   0  0  0  0  0  0  0  0  0  0  0  0
   10.7853   10.0178   10.4403 C   0  0  0  0  0  0  0  0  0  0  0  0
   10.4552   11.3842   10.4059 N   0  0  0  0  0  0  0  0  0  0  0  0
    9.2740   11.8297    9.7444 C   0  0  0  0  0  0  0  0  0  0  0  0
    8.0443   11.1837    9.9616 C   0  0  0  0  0  0  0  0  0  0  0  0
    6.8916   11.6280    9.3115 C   0  0  0  0  0  0  0  0  0  0  0  0
    6.9418   12.7303    8.4520 C   0  0  0  0  0  0  0  0  0  0  0  0
    8.1613   13.3821    8.2429 C   0  0  0  0  0  0  0  0  0  0  0  0
    9.3218   12.9341    8.8766 C   0  0  0  0  0  0  0  0  0  0  0  0
   11.2947   12.3505   11.0325 C   0  0  0  0  0  0  0  0  0  0  0  0
   12.6863   12.3271   10.8338 C   0  0  0  0  0  0  0  0  0  0  0  0
   13.5011   13.2785   11.4497 C   0  0  0  0  0  0  0  0  0  0  0  0
   12.9429   14.2761   12.2558 C   0  0  0  0  0  0  0  0  0  0  0  0
   11.5578   14.3091   12.4459 C   0  0  0  0  0  0  0  0  0  0  0  0
   10.7375   13.3516   11.8466 C   0  0  0  0  0  0  0  0  0  0  0  0
   11.4654    9.4627   11.5468 C   0  0  0  0  0  0  0  0  0  0  0  0
   11.7948    8.1146   11.5779 C   0  0  0  0  0  0  0  0  0  0  0  0
   12.0402    2.4532    9.5243 C   0  0  0  0  0  0  0  0  0  0  0  0
   11.3330    2.9593    8.3868 C   0  0  0  0  0  0  0  0  0  0  0  0
   11.0033    2.0984    7.3764 C   0  0  0  0  0  0  0  0  0  0  0  0
   10.2823    2.3532    6.0947 C   0  0  0  0  0  0  0  0  0  0  0  0
    9.8361    3.3909    5.6621 O   0  0  0  0  0  0  0  0  0  0  0  0
    0.1057    1.1826    6.8929 H   0  0  0  0  0  0  0  0  0  0  0  0
    0.8962   -0.4085    6.8100 H   0  0  0  0  0  0  0  0  0  0  0  0
    0.4952    0.4623    5.3141 H   0  0  0  0  0  0  0  0  0  0  0  0
    2.5491    1.4175    7.4208 H   0  0  0  0  0  0  0  0  0  0  0  0
    2.1518    2.2808    5.9377 H   0  0  0  0  0  0  0  0  0  0  0  0
    2.9979    0.3335    4.5772 H   0  0  0  0  0  0  0  0  0  0  0  0
    3.3957   -0.5300    6.0612 H   0  0  0  0  0  0  0  0  0  0  0  0
    5.0085    1.3051    6.6959 H   0  0  0  0  0  0  0  0  0  0  0  0
    4.6117    2.1673    5.2114 H   0  0  0  0  0  0  0  0  0  0  0  0
    5.4584    0.2160    3.8529 H   0  0  0  0  0  0  0  0  0  0  0  0
    5.8587   -0.6438    5.3380 H   0  0  0  0  0  0  0  0  0  0  0  0
    7.4596    1.1987    5.9704 H   0  0  0  0  0  0  0  0  0  0  0  0
    7.0766    2.0526    4.4800 H   0  0  0  0  0  0  0  0  0  0  0  0
    7.9122    0.0734    3.1388 H   0  0  0  0  0  0  0  0  0  0  0  0
    8.3314   -0.7612    4.6350 H   0  0  0  0  0  0  0  0  0  0  0  0
    9.5446    1.9009    3.6709 H   0  0  0  0  0  0  0  0  0  0  0  0
   10.2960    0.2842    3.5427 H   0  0  0  0  0  0  0  0  0  0  0  0
   12.2806   -0.8757    8.5108 H   0  0  0  0  0  0  0  0  0  0  0  0
   13.3367   -0.5206   10.7075 H   0  0  0  0  0  0  0  0  0  0  0  0
   14.4136   -0.2463   12.9057 H   0  0  0  0  0  0  0  0  0  0  0  0
   15.5991    1.9315   17.7852 H   0  0  0  0  0  0  0  0  0  0  0  0
   15.5241    3.7046   17.5721 H   0  0  0  0  0  0  0  0  0  0  0  0
   17.8348    1.8560   16.7172 H   0  0  0  0  0  0  0  0  0  0  0  0
   17.8087    2.8603   18.1669 H   0  0  0  0  0  0  0  0  0  0  0  0
   17.6518    4.9353   16.7219 H   0  0  0  0  0  0  0  0  0  0  0  0
   17.7224    3.9298   15.2793 H   0  0  0  0  0  0  0  0  0  0  0  0
   19.9850    3.0655   15.9803 H   0  0  0  0  0  0  0  0  0  0  0  0
   19.9268    4.0837   17.4173 H   0  0  0  0  0  0  0  0  0  0  0  0
   19.7939    6.1374   15.9558 H   0  0  0  0  0  0  0  0  0  0  0  0
   19.8572    5.1185   14.5198 H   0  0  0  0  0  0  0  0  0  0  0  0
   22.1269    4.2673   15.2236 H   0  0  0  0  0  0  0  0  0  0  0  0
   22.0638    5.2876   16.6593 H   0  0  0  0  0  0  0  0  0  0  0  0
   21.9324    7.3373   15.1962 H   0  0  0  0  0  0  0  0  0  0  0  0
   21.9962    6.3174   13.7614 H   0  0  0  0  0  0  0  0  0  0  0  0
   24.2335    6.5209   15.8880 H   0  0  0  0  0  0  0  0  0  0  0  0
   24.2658    7.2622   14.2716 H   0  0  0  0  0  0  0  0  0  0  0  0
   24.2976    5.4920   14.4410 H   0  0  0  0  0  0  0  0  0  0  0  0
   13.2542    4.6607   12.8316 H   0  0  0  0  0  0  0  0  0  0  0  0
   10.5021    7.1726    8.5617 H   0  0  0  0  0  0  0  0  0  0  0  0
    9.9299    9.5675    8.4983 H   0  0  0  0  0  0  0  0  0  0  0  0
    7.9972   10.3324   10.6435 H   0  0  0  0  0  0  0  0  0  0  0  0
    5.9431   11.1151    9.4903 H   0  0  0  0  0  0  0  0  0  0  0  0
    6.0365   13.0795    7.9498 H   0  0  0  0  0  0  0  0  0  0  0  0
    8.2147   14.2421    7.5704 H   0  0  0  0  0  0  0  0  0  0  0  0
   10.2741   13.4387    8.7028 H   0  0  0  0  0  0  0  0  0  0  0  0
   13.1250   11.5595   10.1932 H   0  0  0  0  0  0  0  0  0  0  0  0
   14.5814   13.2468   11.2859 H   0  0  0  0  0  0  0  0  0  0  0  0
   13.5829   15.0231   12.7312 H   0  0  0  0  0  0  0  0  0  0  0  0
   11.1096   15.0810   13.0768 H   0  0  0  0  0  0  0  0  0  0  0  0
    9.6577   13.3740   12.0058 H   0  0  0  0  0  0  0  0  0  0  0  0
   11.7292   10.1000   12.3918 H   0  0  0  0  0  0  0  0  0  0  0  0
   12.3141    7.7081   12.4484 H   0  0  0  0  0  0  0  0  0  0  0  0
   11.0656    4.0153    8.3343 H   0  0  0  0  0  0  0  0  0  0  0  0
  1  2  1  0
  1 62  1  0
  1 63  1  0
  1 64  1  0
  2  3  1  0
  2 65  1  0
  2 66  1  0
  3  4  1  0
  3 67  1  0
  3 68  1  0
  4  5  1  0
  4 69  1  0
  4 70  1  0
  5  6  1  0
  5 71  1  0
  5 72  1  0
  6  7  1  0
  6 73  1  0
  6 74  1  0
  7  8  1  0
  7 75  1  0
  7 76  1  0
  8  9  1  0
  8 77  1  0
  8 78  1  0
  9 10  1  0
  9 60  1  0
 10 11  2  0
 10 12  1  0
 12 13  2  0
 12 59  1  0
 13 14  1  0
 13 79  1  0
 14 15  2  0
 14 57  1  0
 15 16  1  0
 15 80  1  0
 16 17  2  0
 16 34  1  0
 17 18  1  0
 17 81  1  0
 18 19  1  0
 18 32  2  0
 19 20  2  0
 19 21  1  0
 21 22  1  0
 21 30  1  0
 22 23  1  0
 22 82  1  0
 22 83  1  0
 23 24  1  0
 23 84  1  0
 23 85  1  0
 24 25  1  0
 24 86  1  0
 24 87  1  0
 25 26  1  0
 25 88  1  0
 25 89  1  0
 26 27  1  0
 26 90  1  0
 26 91  1  0
 27 28  1  0
 27 92  1  0
 27 93  1  0
 28 29  1  0
 28 94  1  0
 28 95  1  0
 29 96  1  0
 29 97  1  0
 29 98  1  0
 30 31  2  0
 30 32  1  0
 32 33  1  0
 33 34  2  0
 33 99  1  0
 34 35  1  0
 35 36  1  0
 35 57  2  0
 36 37  3  0
 37 38  1  0
 38 39  2  0
 38 56  1  0
 39 40  1  0
 39100  1  0
 40 41  2  0
 40101  1  0
 41 42  1  0
 41 55  1  0
 42 43  1  0
 42 49  1  0
 43 44  2  0
 43 48  1  0
 44 45  1  0
 44102  1  0
 45 46  2  0
 45103  1  0
 46 47  1  0
 46104  1  0
 47 48  2  0
 47105  1  0
 48106  1  0
 49 50  2  0
 49 54  1  0
 50 51  1  0
 50107  1  0
 51 52  2  0
 51108  1  0
 52 53  1  0
 52109  1  0
 53 54  2  0
 53110  1  0
 54111  1  0
 55 56  2  0
 55112  1  0
 56113  1  0
 57 58  1  0
 58 59  2  0
 58114  1  0
 59 60  1  0
 60 61  2  0
M  END

