
     RDKit          3D

 34 34  0  0  0  0  0  0  0  0999 V2000
    1.7015    0.1181   -1.9107 C   0  0  0  0  0  0  0  0  0  0  0  0
    2.7331    0.3964   -1.3392 C   0  0  0  0  0  0  0  0  0  0  0  0
    3.9689    0.7144   -0.6272 C   0  0  0  0  0  0  0  0  0  0  0  0
    3.9531    0.2169    0.8349 C   0  0  0  0  0  0  0  0  0  0  0  0
    5.2185    0.4575    1.5343 N   0  0  0  0  0  0  0  0  0  0  0  0
    6.2121   -0.6158    1.4537 C   0  0  0  0  0  0  0  0  0  0  0  0
    7.1721   -0.7413    2.6370 C   0  0  0  0  0  0  0  0  0  0  0  0
    8.3127    0.2613    2.5730 C   0  0  0  0  0  0  0  0  0  0  0  0
    9.4822   -0.0759    2.5514 O   0  0  0  0  0  0  0  0  0  0  0  0
    7.9293    1.5710    2.4465 N   0  0  0  0  0  0  0  0  0  0  0  0
    6.6495    2.1736    2.8081 C   0  0  2  0  0  0  0  0  0  0  0  0
    6.3729    2.2281    4.3313 C   0  0  0  0  0  0  0  0  0  0  0  0
    7.4283    3.0071    5.1213 C   0  0  0  0  0  0  0  0  0  0  0  0
    7.1177    3.0839    6.6170 C   0  0  0  0  0  0  0  0  0  0  0  0
    5.3753    1.7149    2.0627 C   0  0  0  0  0  0  0  0  0  0  0  0
    4.4679    2.5355    2.0052 O   0  0  0  0  0  0  0  0  0  0  0  0
    0.7859   -0.1209   -2.4177 H   0  0  0  0  0  0  0  0  0  0  0  0
    4.1225    1.8064   -0.6190 H   0  0  0  0  0  0  0  0  0  0  0  0
    4.8260    0.2723   -1.1656 H   0  0  0  0  0  0  0  0  0  0  0  0
    3.7452   -0.8630    0.8598 H   0  0  0  0  0  0  0  0  0  0  0  0
    3.1535    0.7371    1.3770 H   0  0  0  0  0  0  0  0  0  0  0  0
    6.7977   -0.5438    0.5172 H   0  0  0  0  0  0  0  0  0  0  0  0
    5.6407   -1.5537    1.3846 H   0  0  0  0  0  0  0  0  0  0  0  0
    7.6418   -1.7337    2.6164 H   0  0  0  0  0  0  0  0  0  0  0  0
    6.6149   -0.6556    3.5845 H   0  0  0  0  0  0  0  0  0  0  0  0
    8.7196    2.2069    2.3865 H   0  0  0  0  0  0  0  0  0  0  0  0
    6.7228    3.2178    2.4717 H   0  0  0  0  0  0  0  0  0  0  0  0
    6.2884    1.2039    4.7352 H   0  0  0  0  0  0  0  0  0  0  0  0
    5.3860    2.7001    4.4618 H   0  0  0  0  0  0  0  0  0  0  0  0
    7.5056    4.0292    4.7070 H   0  0  0  0  0  0  0  0  0  0  0  0
    8.4189    2.5421    4.9767 H   0  0  0  0  0  0  0  0  0  0  0  0
    6.1488    3.5770    6.8008 H   0  0  0  0  0  0  0  0  0  0  0  0
    7.8902    3.6519    7.1587 H   0  0  0  0  0  0  0  0  0  0  0  0
    7.0676    2.0787    7.0678 H   0  0  0  0  0  0  0  0  0  0  0  0
  1  2  3  0
  1 17  1  0
  2  3  1  0
  3  4  1  0
  3 18  1  0
  3 19  1  0
  4  5  1  0
  4 20  1  0
  4 21  1  0
  5  6  1  0
  5 15  1  0
  6  7  1  0
  6 22  1  0
  6 23  1  0
  7  8  1  0
  7 24  1  0
  7 25  1  0
  8  9  2  0
  8 10  1  0
 10 11  1  0
 10 26  1  0
 11 12  1  0
 11 15  1  0
 11 27  1  6
 12 13  1  0
 12 28  1  0
 12 29  1  0
 13 14  1  0
 13 30  1  0
 13 31  1  0
 14 32  1  0
 14 33  1  0
 14 34  1  0
 15 16  2  0
M  END

