
     RDKit          3D

 40 42  0  0  0  0  0  0  0  0999 V2000
    1.1562    0.2297    0.0286 C   0  0  0  0  0  0  0  0  0  0  0  0
    2.6632    0.1547   -0.0268 C   0  0  0  0  0  0  0  0  0  0  0  0
    3.4526    1.2671   -0.3353 C   0  0  0  0  0  0  0  0  0  0  0  0
    4.8454    1.1851   -0.3865 C   0  0  0  0  0  0  0  0  0  0  0  0
    5.5203   -0.0285   -0.1373 C   0  0  0  0  0  0  0  0  0  0  0  0
    4.7312   -1.1648    0.1973 C   0  0  0  0  0  0  0  0  0  0  0  0
    3.3407   -1.0457    0.2362 C   0  0  0  0  0  0  0  0  0  0  0  0
    5.3901   -2.4880    0.5330 C   0  0  0  0  0  0  0  0  0  0  0  0
    6.7994   -2.5836   -0.0491 C   0  0  0  0  0  0  0  0  0  0  0  0
    7.5813   -1.3176    0.2850 C   0  0  0  0  0  0  0  0  0  0  0  0
    6.9106   -0.1373   -0.2472 N   0  0  0  0  0  0  0  0  0  0  0  0
    7.7177    1.0305   -0.4644 C   0  0  0  0  0  0  0  0  0  0  0  0
    7.9455    1.8929    0.7975 C   0  0  0  0  0  0  0  0  0  0  0  0
    7.6638    1.4490    1.9010 O   0  0  0  0  0  0  0  0  0  0  0  0
    8.5393    3.2141    0.5960 C   0  0  0  0  0  0  0  0  0  0  0  0
    8.9181    3.8529   -0.5927 C   0  0  0  0  0  0  0  0  0  0  0  0
    9.4551    5.1104   -0.2551 C   0  0  0  0  0  0  0  0  0  0  0  0
    9.3894    5.2122    1.1304 C   0  0  0  0  0  0  0  0  0  0  0  0
    8.8432    4.0765    1.6436 N   0  0  0  0  0  0  0  0  0  0  0  0
    8.6175    3.8415    3.0635 C   0  0  0  0  0  0  0  0  0  0  0  0
    0.7968    1.2485   -0.1820 H   0  0  0  0  0  0  0  0  0  0  0  0
    0.7689   -0.0605    1.0205 H   0  0  0  0  0  0  0  0  0  0  0  0
    0.6867   -0.4461   -0.7071 H   0  0  0  0  0  0  0  0  0  0  0  0
    2.9751    2.2308   -0.5368 H   0  0  0  0  0  0  0  0  0  0  0  0
    5.4042    2.0925   -0.6152 H   0  0  0  0  0  0  0  0  0  0  0  0
    2.7582   -1.9393    0.4878 H   0  0  0  0  0  0  0  0  0  0  0  0
    4.7628   -3.3215    0.1766 H   0  0  0  0  0  0  0  0  0  0  0  0
    5.4466   -2.5981    1.6323 H   0  0  0  0  0  0  0  0  0  0  0  0
    6.7509   -2.6982   -1.1457 H   0  0  0  0  0  0  0  0  0  0  0  0
    7.3298   -3.4633    0.3497 H   0  0  0  0  0  0  0  0  0  0  0  0
    8.5877   -1.3646   -0.1628 H   0  0  0  0  0  0  0  0  0  0  0  0
    7.7203   -1.2332    1.3808 H   0  0  0  0  0  0  0  0  0  0  0  0
    7.2993    1.6492   -1.2737 H   0  0  0  0  0  0  0  0  0  0  0  0
    8.7139    0.7118   -0.8192 H   0  0  0  0  0  0  0  0  0  0  0  0
    8.8145    3.4414   -1.5945 H   0  0  0  0  0  0  0  0  0  0  0  0
    9.8457    5.8661   -0.9334 H   0  0  0  0  0  0  0  0  0  0  0  0
    9.6962    6.0244    1.7875 H   0  0  0  0  0  0  0  0  0  0  0  0
    8.9630    4.7257    3.6166 H   0  0  0  0  0  0  0  0  0  0  0  0
    9.1660    2.9542    3.4066 H   0  0  0  0  0  0  0  0  0  0  0  0
    7.5523    3.6702    3.2681 H   0  0  0  0  0  0  0  0  0  0  0  0
  1  2  1  0
  1 21  1  0
  1 22  1  0
  1 23  1  0
  2  3  2  0
  2  7  1  0
  3  4  1  0
  3 24  1  0
  4  5  2  0
  4 25  1  0
  5  6  1  0
  5 11  1  0
  6  7  2  0
  6  8  1  0
  7 26  1  0
  8  9  1  0
  8 27  1  0
  8 28  1  0
  9 10  1  0
  9 29  1  0
  9 30  1  0
 10 11  1  0
 10 31  1  0
 10 32  1  0
 11 12  1  0
 12 13  1  0
 12 33  1  0
 12 34  1  0
 13 14  2  0
 13 15  1  0
 15 16  2  0
 15 19  1  0
 16 17  1  0
 16 35  1  0
 17 18  2  0
 17 36  1  0
 18 19  1  0
 18 37  1  0
 19 20  1  0
 20 38  1  0
 20 39  1  0
 20 40  1  0
M  END

