
     RDKit          3D

 30 31  0  0  0  0  0  0  0  0999 V2000
    3.4285    2.7792   -0.0856 C   0  0  0  0  0  0  0  0  0  0  0  0
    3.4274    1.2944    0.0042 C   0  0  0  0  0  0  0  0  0  0  0  0
    2.4404    0.3563    0.1490 C   0  0  0  0  0  0  0  0  0  0  0  0
    3.0849   -0.9235    0.1700 C   0  0  0  0  0  0  0  0  0  0  0  0
    4.4274   -0.6777    0.0361 C   0  0  0  0  0  0  0  0  0  0  0  0
    5.5850   -1.5476   -0.0125 C   0  0  0  0  0  0  0  0  0  0  0  0
    6.9174   -1.2009   -0.1504 C   0  0  0  0  0  0  0  0  0  0  0  0
    7.6184   -2.3889   -0.1475 N   0  0  0  0  0  0  0  0  0  0  0  0
    9.0639   -2.5256   -0.2283 C   0  0  0  0  0  0  0  0  0  0  0  0
    6.6925   -3.3969    0.0046 C   0  0  0  0  0  0  0  0  0  0  0  0
    7.0392   -4.8567    0.0380 C   0  0  0  0  0  0  0  0  0  0  0  0
    6.9787   -5.5445   -1.3372 C   0  0  0  0  0  0  0  0  0  0  0  0
    7.8970   -4.9247   -2.2936 N   0  0  0  0  0  0  0  0  0  0  0  0
    5.4682   -2.9155    0.0814 N   0  0  0  0  0  0  0  0  0  0  0  0
    4.6393    0.6689   -0.0656 O   0  0  0  0  0  0  0  0  0  0  0  0
    2.4003    3.1611   -0.0179 H   0  0  0  0  0  0  0  0  0  0  0  0
    3.8635    3.1280   -1.0381 H   0  0  0  0  0  0  0  0  0  0  0  0
    4.0191    3.2344    0.7281 H   0  0  0  0  0  0  0  0  0  0  0  0
    1.3743    0.5591    0.2317 H   0  0  0  0  0  0  0  0  0  0  0  0
    2.6318   -1.9061    0.2711 H   0  0  0  0  0  0  0  0  0  0  0  0
    7.4076   -0.2363   -0.2485 H   0  0  0  0  0  0  0  0  0  0  0  0
    9.4902   -1.5908   -0.6169 H   0  0  0  0  0  0  0  0  0  0  0  0
    9.3197   -3.3462   -0.9133 H   0  0  0  0  0  0  0  0  0  0  0  0
    9.5053   -2.7228    0.7631 H   0  0  0  0  0  0  0  0  0  0  0  0
    6.3161   -5.3465    0.7076 H   0  0  0  0  0  0  0  0  0  0  0  0
    8.0427   -5.0033    0.4683 H   0  0  0  0  0  0  0  0  0  0  0  0
    5.9225   -5.5519   -1.6756 H   0  0  0  0  0  0  0  0  0  0  0  0
    7.2777   -6.5981   -1.2070 H   0  0  0  0  0  0  0  0  0  0  0  0
    7.5031   -4.0459   -2.6344 H   0  0  0  0  0  0  0  0  0  0  0  0
    8.0050   -5.5170   -3.1167 H   0  0  0  0  0  0  0  0  0  0  0  0
  1  2  1  0
  1 16  1  0
  1 17  1  0
  1 18  1  0
  2  3  2  0
  2 15  1  0
  3  4  1  0
  3 19  1  0
  4  5  2  0
  4 20  1  0
  5  6  1  0
  5 15  1  0
  6  7  2  0
  6 14  1  0
  7  8  1  0
  7 21  1  0
  8  9  1  0
  8 10  1  0
  9 22  1  0
  9 23  1  0
  9 24  1  0
 10 11  1  0
 10 14  2  0
 11 12  1  0
 11 25  1  0
 11 26  1  0
 12 13  1  0
 12 27  1  0
 12 28  1  0
 13 29  1  0
 13 30  1  0
M  END

