
     RDKit          3D

 38 40  0  0  0  0  0  0  0  0999 V2000
    1.3698   -0.0090    0.5192 C   0  0  0  0  0  0  0  0  0  0  0  0
    2.8411    0.0337    0.0969 C   0  0  1  0  0  0  0  0  0  0  0  0
    3.6912    0.1626    1.3698 C   0  0  0  0  0  0  0  0  0  0  0  0
    3.4001   -1.0663   -0.8772 C   0  0  2  0  0  0  0  0  0  0  0  0
    3.8251   -1.9719   -0.4135 H   0  0  0  0  0  0  0  0  0  0  0  0
    4.3739    0.0065   -1.4324 C   0  0  0  0  0  0  0  0  0  0  0  0
    3.2980    1.0453   -1.0141 C   0  0  1  0  0  0  0  0  0  0  0  0
    3.6239    2.0494   -0.6974 H   0  0  0  0  0  0  0  0  0  0  0  0
    2.2446    1.1700   -2.1160 C   0  0  1  0  0  0  0  0  0  0  0  0
    2.7665    1.9593   -3.2011 O   0  0  0  0  0  0  0  0  0  0  0  0
    3.0284    1.1212   -4.2414 B   0  0  0  0  0  0  0  0  0  0  0  0
    3.7664    1.5762   -5.5673 C   0  0  1  0  0  0  0  0  0  0  0  0
    3.6557    2.6551   -5.7423 H   0  0  0  0  0  0  0  0  0  0  0  0
    5.5559    1.3318   -5.2262 Cl  0  0  0  0  0  0  0  0  0  0  0  0
    3.3561    0.7976   -6.8124 C   0  0  0  0  0  0  0  0  0  0  0  0
    3.9676    1.2926   -8.0490 N   0  0  0  0  0  0  0  0  0  0  0  0
    5.0325    0.8049   -8.4168 N   0  0  0  0  0  0  0  0  0  0  0  0
    5.9984    0.4312   -8.8876 N   0  0  0  0  0  0  0  0  0  0  0  0
    2.6005   -0.1570   -4.0392 O   0  0  0  0  0  0  0  0  0  0  0  0
    1.8764   -0.2144   -2.7756 C   0  0  2  0  0  0  0  0  0  0  0  0
    0.3946   -0.3239   -3.1327 C   0  0  0  0  0  0  0  0  0  0  0  0
    2.3773   -1.4369   -1.9591 C   0  0  0  0  0  0  0  0  0  0  0  0
    0.6620   -0.1070   -0.3135 H   0  0  0  0  0  0  0  0  0  0  0  0
    1.1006    0.9078    1.0701 H   0  0  0  0  0  0  0  0  0  0  0  0
    1.1914   -0.8599    1.1980 H   0  0  0  0  0  0  0  0  0  0  0  0
    4.7707    0.2005    1.1678 H   0  0  0  0  0  0  0  0  0  0  0  0
    3.5086   -0.6937    2.0403 H   0  0  0  0  0  0  0  0  0  0  0  0
    3.4244    1.0792    1.9216 H   0  0  0  0  0  0  0  0  0  0  0  0
    4.6613   -0.0564   -2.4910 H   0  0  0  0  0  0  0  0  0  0  0  0
    5.2920    0.0995   -0.8396 H   0  0  0  0  0  0  0  0  0  0  0  0
    1.3472    1.6829   -1.7369 H   0  0  0  0  0  0  0  0  0  0  0  0
    2.2684    0.9227   -6.9392 H   0  0  0  0  0  0  0  0  0  0  0  0
    3.5470   -0.2789   -6.6650 H   0  0  0  0  0  0  0  0  0  0  0  0
    0.0744    0.5432   -3.7318 H   0  0  0  0  0  0  0  0  0  0  0  0
   -0.2362   -0.3715   -2.2324 H   0  0  0  0  0  0  0  0  0  0  0  0
    0.2200   -1.2349   -3.7257 H   0  0  0  0  0  0  0  0  0  0  0  0
    2.8271   -2.1391   -2.6785 H   0  0  0  0  0  0  0  0  0  0  0  0
    1.5201   -1.9591   -1.5051 H   0  0  0  0  0  0  0  0  0  0  0  0
  2  1  1  1
  1 23  1  0
  1 24  1  0
  1 25  1  0
  2  3  1  0
  2  4  1  0
  2  7  1  0
  3 26  1  0
  3 27  1  0
  3 28  1  0
  4  5  1  1
  4  6  1  0
  4 22  1  0
  6  7  1  0
  6 29  1  0
  6 30  1  0
  7  8  1  1
  7  9  1  0
  9 10  1  0
  9 20  1  0
  9 31  1  1
 10 11  1  0
 11 12  1  0
 11 19  2  0
 12 13  1  6
 12 14  1  0
 12 15  1  0
 15 16  1  0
 15 32  1  0
 15 33  1  0
 16 17  1  0
 17 18  3  0
 19 20  1  0
 20 21  1  6
 20 22  1  0
 21 34  1  0
 21 35  1  0
 21 36  1  0
 22 37  1  0
 22 38  1  0
M  CHG  4  11  -1  16  -1  17   1  19   1
M  END

