
     RDKit          3D

 58 63  0  0  0  0  0  0  0  0999 V2000
   11.5003   -2.2613    1.8613 C   0  0  0  0  0  0  0  0  0  0  0  0
   10.3114   -3.1724    2.0522 C   0  0  0  0  0  0  0  0  0  0  0  0
   10.4663   -4.5600    2.1821 C   0  0  0  0  0  0  0  0  0  0  0  0
    9.3535   -5.3918    2.3393 C   0  0  0  0  0  0  0  0  0  0  0  0
    8.0663   -4.8540    2.3783 C   0  0  0  0  0  0  0  0  0  0  0  0
    7.8883   -3.4691    2.2525 C   0  0  0  0  0  0  0  0  0  0  0  0
    6.5122   -2.8411    2.3602 C   0  0  0  0  0  0  0  0  0  0  0  0
    5.4360   -3.6816    1.9624 O   0  0  0  0  0  0  0  0  0  0  0  0
    5.1977   -3.9551    0.6447 C   0  0  0  0  0  0  0  0  0  0  0  0
    5.9777   -3.4234   -0.3933 C   0  0  0  0  0  0  0  0  0  0  0  0
    5.6693   -3.7069   -1.7258 C   0  0  0  0  0  0  0  0  0  0  0  0
    4.5861   -4.5274   -2.0358 C   0  0  0  0  0  0  0  0  0  0  0  0
    3.8234   -5.0661   -0.9979 C   0  0  0  0  0  0  0  0  0  0  0  0
    4.1014   -4.8042    0.3517 C   0  0  0  0  0  0  0  0  0  0  0  0
    3.2014   -5.4650    1.4053 C   0  0  1  0  0  0  0  0  0  0  0  0
    3.9079   -6.1059    2.5813 C   0  0  0  0  0  0  0  0  0  0  0  0
    4.9752   -7.5074    2.3673 S   0  0  0  0  0  0  0  0  0  0  0  0
    5.2715   -7.6306    4.1531 C   0  0  0  0  0  0  0  0  0  0  0  0
    5.9611   -8.4432    4.7137 O   0  0  0  0  0  0  0  0  0  0  0  0
    4.5536   -6.6047    4.7400 N   0  0  0  0  0  0  0  0  0  0  0  0
    4.6144   -6.4736    5.7449 H   0  0  0  0  0  0  0  0  0  0  0  0
    3.8153   -5.7797    3.8972 C   0  0  0  0  0  0  0  0  0  0  0  0
    2.9117   -4.4491    4.6594 S   0  0  0  0  0  0  0  0  0  0  0  0
    2.5479   -3.6120    3.0800 C   0  0  2  0  0  0  0  0  0  0  0  0
    1.4540   -2.5616    3.1278 C   0  0  0  0  0  0  0  0  0  0  0  0
    1.1913   -1.8089    4.0292 O   0  0  0  0  0  0  0  0  0  0  0  0
    0.8280   -2.5967    1.8619 N   0  0  0  0  0  0  0  0  0  0  0  0
   -0.1313   -1.6331    1.4198 C   0  0  0  0  0  0  0  0  0  0  0  0
   -1.1206   -1.1670    2.2971 C   0  0  0  0  0  0  0  0  0  0  0  0
   -2.0519   -0.2225    1.8627 C   0  0  0  0  0  0  0  0  0  0  0  0
   -1.9994    0.2462    0.5478 C   0  0  0  0  0  0  0  0  0  0  0  0
   -3.2754    1.5297   -0.0483 Br  0  0  0  0  0  0  0  0  0  0  0  0
   -1.0202   -0.2168   -0.3348 C   0  0  0  0  0  0  0  0  0  0  0  0
   -0.0827   -1.1526    0.1034 C   0  0  0  0  0  0  0  0  0  0  0  0
    1.2354   -3.7133    1.0897 C   0  0  0  0  0  0  0  0  0  0  0  0
    0.8905   -3.9434   -0.0397 O   0  0  0  0  0  0  0  0  0  0  0  0
    2.0861   -4.5847    2.0032 C   0  0  1  0  0  0  0  0  0  0  0  0
    9.0094   -2.6469    2.0860 C   0  0  0  0  0  0  0  0  0  0  0  0
   12.4490   -2.8035    1.9862 H   0  0  0  0  0  0  0  0  0  0  0  0
   11.4893   -1.4278    2.5826 H   0  0  0  0  0  0  0  0  0  0  0  0
   11.5030   -1.8134    0.8528 H   0  0  0  0  0  0  0  0  0  0  0  0
   11.4695   -4.9947    2.1563 H   0  0  0  0  0  0  0  0  0  0  0  0
    9.4905   -6.4719    2.4352 H   0  0  0  0  0  0  0  0  0  0  0  0
    7.2003   -5.5081    2.4944 H   0  0  0  0  0  0  0  0  0  0  0  0
    6.4785   -1.8831    1.8113 H   0  0  0  0  0  0  0  0  0  0  0  0
    6.2899   -2.6154    3.4162 H   0  0  0  0  0  0  0  0  0  0  0  0
    6.8406   -2.7992   -0.1661 H   0  0  0  0  0  0  0  0  0  0  0  0
    6.2899   -3.2840   -2.5198 H   0  0  0  0  0  0  0  0  0  0  0  0
    4.3374   -4.7553   -3.0744 H   0  0  0  0  0  0  0  0  0  0  0  0
    2.9724   -5.7084   -1.2365 H   0  0  0  0  0  0  0  0  0  0  0  0
    2.6830   -6.2729    0.8638 H   0  0  0  0  0  0  0  0  0  0  0  0
    3.4731   -3.1110    2.7553 H   0  0  0  0  0  0  0  0  0  0  0  0
   -1.1573   -1.5286    3.3236 H   0  0  0  0  0  0  0  0  0  0  0  0
   -2.8185    0.1431    2.5475 H   0  0  0  0  0  0  0  0  0  0  0  0
   -0.9846    0.1528   -1.3607 H   0  0  0  0  0  0  0  0  0  0  0  0
    0.6782   -1.5177   -0.5850 H   0  0  0  0  0  0  0  0  0  0  0  0
    1.3557   -5.2721    2.4711 H   0  0  0  0  0  0  0  0  0  0  0  0
    8.8708   -1.5650    1.9809 H   0  0  0  0  0  0  0  0  0  0  0  0
  1  2  1  0
  1 39  1  0
  1 40  1  0
  1 41  1  0
  2  3  2  0
  2 38  1  0
  3  4  1  0
  3 42  1  0
  4  5  2  0
  4 43  1  0
  5  6  1  0
  5 44  1  0
  6  7  1  0
  6 38  2  0
  7  8  1  0
  7 45  1  0
  7 46  1  0
  8  9  1  0
  9 10  2  0
  9 14  1  0
 10 11  1  0
 10 47  1  0
 11 12  2  0
 11 48  1  0
 12 13  1  0
 12 49  1  0
 13 14  2  0
 13 50  1  0
 14 15  1  0
 15 16  1  0
 15 37  1  0
 15 51  1  6
 16 17  1  0
 16 22  2  0
 17 18  2  0
 18 19  1  0
 18 20  1  0
 20 21  1  0
 20 22  1  0
 22 23  1  0
 23 24  1  0
 24 25  1  0
 24 37  1  0
 24 52  1  6
 25 26  2  0
 25 27  1  0
 27 28  1  0
 27 35  1  0
 28 29  2  0
 28 34  1  0
 29 30  1  0
 29 53  1  0
 30 31  2  0
 30 54  1  0
 31 32  1  0
 31 33  1  0
 33 34  2  0
 33 55  1  0
 34 56  1  0
 35 36  2  0
 35 37  1  0
 37 57  1  1
 38 58  1  0
M  CHG  2  17   1  19  -1
M  END

