
     RDKit          3D

 44 45  0  0  0  0  0  0  0  0999 V2000
    1.6674   -1.0284    1.4869 C   0  0  0  0  0  0  0  0  0  0  0  0
    2.4001    0.3002    1.4535 C   0  0  0  0  0  0  0  0  0  0  0  0
    3.7233    0.0754    1.0093 O   0  0  0  0  0  0  0  0  0  0  0  0
    4.5264    1.2348    0.8762 C   0  0  0  0  0  0  0  0  0  0  0  0
    4.8348    1.9616    2.1728 C   0  0  0  0  0  0  0  0  0  0  0  0
    4.4174    3.2991    2.2816 C   0  0  0  0  0  0  0  0  0  0  0  0
    4.6107    4.0686    3.4274 C   0  0  0  0  0  0  0  0  0  0  0  0
    5.2413    3.4744    4.5245 C   0  0  0  0  0  0  0  0  0  0  0  0
    5.6701    2.1550    4.4497 C   0  0  0  0  0  0  0  0  0  0  0  0
    5.4873    1.3609    3.2895 C   0  0  0  0  0  0  0  0  0  0  0  0
    5.9273    0.0453    3.3643 N   0  0  0  0  0  0  0  0  0  0  0  0
    6.4075   -0.7924    2.2703 C   0  0  0  0  0  0  0  0  0  0  0  0
    6.8710   -2.1355    2.7961 C   0  0  0  0  0  0  0  0  0  0  0  0
    6.0411   -2.9129    3.6115 C   0  0  0  0  0  0  0  0  0  0  0  0
    6.4564   -4.1644    4.0777 C   0  0  0  0  0  0  0  0  0  0  0  0
    7.7189   -4.6602    3.7258 C   0  0  0  0  0  0  0  0  0  0  0  0
    8.2073   -5.8654    4.1293 O   0  0  0  0  0  0  0  0  0  0  0  0
    7.4164   -6.6948    4.9481 C   0  0  0  0  0  0  0  0  0  0  0  0
    8.5804   -3.8980    2.9042 C   0  0  0  0  0  0  0  0  0  0  0  0
    9.9365   -4.4416    2.5396 C   0  0  0  0  0  0  0  0  0  0  0  0
    8.1345   -2.6497    2.4623 C   0  0  0  0  0  0  0  0  0  0  0  0
    0.6254   -0.8866    1.8146 H   0  0  0  0  0  0  0  0  0  0  0  0
    2.1586   -1.7244    2.1847 H   0  0  0  0  0  0  0  0  0  0  0  0
    1.6599   -1.4940    0.4890 H   0  0  0  0  0  0  0  0  0  0  0  0
    2.3982    0.7697    2.4561 H   0  0  0  0  0  0  0  0  0  0  0  0
    1.8873    1.0078    0.7678 H   0  0  0  0  0  0  0  0  0  0  0  0
    4.0394    1.9513    0.1861 H   0  0  0  0  0  0  0  0  0  0  0  0
    5.4449    0.8903    0.3779 H   0  0  0  0  0  0  0  0  0  0  0  0
    3.9125    3.7460    1.4195 H   0  0  0  0  0  0  0  0  0  0  0  0
    4.2713    5.1059    3.4655 H   0  0  0  0  0  0  0  0  0  0  0  0
    5.4096    4.0425    5.4435 H   0  0  0  0  0  0  0  0  0  0  0  0
    6.1737    1.7043    5.3108 H   0  0  0  0  0  0  0  0  0  0  0  0
    6.4266   -0.1412    4.2274 H   0  0  0  0  0  0  0  0  0  0  0  0
    7.2421   -0.3148    1.7191 H   0  0  0  0  0  0  0  0  0  0  0  0
    5.5855   -0.9530    1.5573 H   0  0  0  0  0  0  0  0  0  0  0  0
    5.0537   -2.5359    3.8900 H   0  0  0  0  0  0  0  0  0  0  0  0
    5.7856   -4.7462    4.7105 H   0  0  0  0  0  0  0  0  0  0  0  0
    8.0070   -7.6007    5.1415 H   0  0  0  0  0  0  0  0  0  0  0  0
    6.4717   -6.9836    4.4526 H   0  0  0  0  0  0  0  0  0  0  0  0
    7.1757   -6.2130    5.9133 H   0  0  0  0  0  0  0  0  0  0  0  0
   10.5403   -4.6459    3.4392 H   0  0  0  0  0  0  0  0  0  0  0  0
   10.4889   -3.7363    1.9020 H   0  0  0  0  0  0  0  0  0  0  0  0
    9.8502   -5.4016    2.0041 H   0  0  0  0  0  0  0  0  0  0  0  0
    8.8009   -2.0539    1.8306 H   0  0  0  0  0  0  0  0  0  0  0  0
  1  2  1  0
  1 22  1  0
  1 23  1  0
  1 24  1  0
  2  3  1  0
  2 25  1  0
  2 26  1  0
  3  4  1  0
  4  5  1  0
  4 27  1  0
  4 28  1  0
  5  6  2  0
  5 10  1  0
  6  7  1  0
  6 29  1  0
  7  8  2  0
  7 30  1  0
  8  9  1  0
  8 31  1  0
  9 10  2  0
  9 32  1  0
 10 11  1  0
 11 12  1  0
 11 33  1  0
 12 13  1  0
 12 34  1  0
 12 35  1  0
 13 14  2  0
 13 21  1  0
 14 15  1  0
 14 36  1  0
 15 16  2  0
 15 37  1  0
 16 17  1  0
 16 19  1  0
 17 18  1  0
 18 38  1  0
 18 39  1  0
 18 40  1  0
 19 20  1  0
 19 21  2  0
 20 41  1  0
 20 42  1  0
 20 43  1  0
 21 44  1  0
M  END

