
     RDKit          3D

 40 42  0  0  0  0  0  0  0  0999 V2000
    4.8702   -2.3828   -0.0386 C   0  0  0  0  0  0  0  0  0  0  0  0
    4.1446   -1.0600    0.0089 C   0  0  0  0  0  0  0  0  0  0  0  0
    4.8623    0.1388    0.0841 C   0  0  0  0  0  0  0  0  0  0  0  0
    4.2020    1.3690    0.1288 C   0  0  0  0  0  0  0  0  0  0  0  0
    5.2199    2.9791    0.2307 Br  0  0  0  0  0  0  0  0  0  0  0  0
    2.8089    1.4265    0.0991 C   0  0  0  0  0  0  0  0  0  0  0  0
    2.0736    0.2432    0.0242 C   0  0  0  0  0  0  0  0  0  0  0  0
    2.7295   -0.9983   -0.0210 C   0  0  0  0  0  0  0  0  0  0  0  0
    2.0196   -2.2100   -0.0964 N   0  0  0  0  0  0  0  0  0  0  0  0
    0.6842   -2.4286   -0.1402 C   0  0  0  0  0  0  0  0  0  0  0  0
   -0.2178   -1.6018   -0.1220 O   0  0  0  0  0  0  0  0  0  0  0  0
    0.3819   -3.9449   -0.2207 C   0  0  0  0  0  0  0  0  0  0  0  0
    1.2861   -4.7698   -0.2381 O   0  0  0  0  0  0  0  0  0  0  0  0
   -0.9531   -4.1616   -0.2647 N   0  0  0  0  0  0  0  0  0  0  0  0
   -1.6648   -5.3696   -0.3415 C   0  0  0  0  0  0  0  0  0  0  0  0
   -1.0115   -6.5936   -0.3821 C   0  0  0  0  0  0  0  0  0  0  0  0
   -1.7539   -7.7907   -0.4596 C   0  0  0  0  0  0  0  0  0  0  0  0
   -3.1307   -7.7671   -0.4955 C   0  0  0  0  0  0  0  0  0  0  0  0
   -3.8378   -6.5342   -0.4555 C   0  0  0  0  0  0  0  0  0  0  0  0
   -5.2720   -6.4823   -0.4913 C   0  0  0  0  0  0  0  0  0  0  0  0
   -6.0262   -7.6055   -0.5632 O   0  0  0  0  0  0  0  0  0  0  0  0
   -5.9352   -5.2680   -0.4528 C   0  0  0  0  0  0  0  0  0  0  0  0
   -5.2040   -4.0671   -0.3772 C   0  0  0  0  0  0  0  0  0  0  0  0
   -3.8233   -4.0720   -0.3398 C   0  0  0  0  0  0  0  0  0  0  0  0
   -3.1048   -5.2988   -0.3775 C   0  0  0  0  0  0  0  0  0  0  0  0
    5.9584   -2.2352   -0.0104 H   0  0  0  0  0  0  0  0  0  0  0  0
    4.6394   -2.9471   -0.9591 H   0  0  0  0  0  0  0  0  0  0  0  0
    4.6045   -3.0296    0.8159 H   0  0  0  0  0  0  0  0  0  0  0  0
    5.9532    0.1087    0.1079 H   0  0  0  0  0  0  0  0  0  0  0  0
    2.2936    2.3876    0.1339 H   0  0  0  0  0  0  0  0  0  0  0  0
    0.9861    0.2705    0.0001 H   0  0  0  0  0  0  0  0  0  0  0  0
    2.5496   -3.0804   -0.1253 H   0  0  0  0  0  0  0  0  0  0  0  0
   -1.4780   -3.2896   -0.2350 H   0  0  0  0  0  0  0  0  0  0  0  0
    0.0756   -6.6163   -0.3538 H   0  0  0  0  0  0  0  0  0  0  0  0
   -1.2211   -8.7439   -0.4911 H   0  0  0  0  0  0  0  0  0  0  0  0
   -3.6647   -8.7199   -0.5563 H   0  0  0  0  0  0  0  0  0  0  0  0
   -5.4634   -8.3889   -0.5824 H   0  0  0  0  0  0  0  0  0  0  0  0
   -7.0262   -5.2677   -0.4821 H   0  0  0  0  0  0  0  0  0  0  0  0
   -5.7423   -3.1166   -0.3478 H   0  0  0  0  0  0  0  0  0  0  0  0
   -3.3077   -3.1120   -0.2814 H   0  0  0  0  0  0  0  0  0  0  0  0
  1  2  1  0
  1 26  1  0
  1 27  1  0
  1 28  1  0
  2  3  2  0
  2  8  1  0
  3  4  1  0
  3 29  1  0
  4  5  1  0
  4  6  2  0
  6  7  1  0
  6 30  1  0
  7  8  2  0
  7 31  1  0
  8  9  1  0
  9 10  1  0
  9 32  1  0
 10 11  2  0
 10 12  1  0
 12 13  2  0
 12 14  1  0
 14 15  1  0
 14 33  1  0
 15 16  2  0
 15 25  1  0
 16 17  1  0
 16 34  1  0
 17 18  2  0
 17 35  1  0
 18 19  1  0
 18 36  1  0
 19 20  1  0
 19 25  2  0
 20 21  1  0
 20 22  2  0
 21 37  1  0
 22 23  1  0
 22 38  1  0
 23 24  2  0
 23 39  1  0
 24 25  1  0
 24 40  1  0
M  END

