
     RDKit          3D

 49 53  0  0  0  0  0  0  0  0999 V2000
    8.4184    1.1535    4.3486 C   0  0  0  0  0  0  0  0  0  0  0  0
    8.1997    0.5255    2.9824 C   0  0  0  0  0  0  0  0  0  0  0  0
    9.0108    0.6423    2.0838 O   0  0  0  0  0  0  0  0  0  0  0  0
    7.0019   -0.1555    2.8521 N   0  0  0  0  0  0  0  0  0  0  0  0
    6.4623   -0.7676    1.7093 C   0  0  0  0  0  0  0  0  0  0  0  0
    5.1360   -1.2328    1.7806 C   0  0  0  0  0  0  0  0  0  0  0  0
    4.5727   -1.8398    0.6649 C   0  0  0  0  0  0  0  0  0  0  0  0
    3.3072   -2.2718    0.7420 F   0  0  0  0  0  0  0  0  0  0  0  0
    5.2654   -1.9932   -0.5323 C   0  0  0  0  0  0  0  0  0  0  0  0
    6.5930   -1.5330   -0.6010 C   0  0  0  0  0  0  0  0  0  0  0  0
    7.3731   -1.7142   -1.8361 C   0  0  0  0  0  0  0  0  0  0  0  0
    7.3572   -2.9009   -2.4996 N   0  0  0  0  0  0  0  0  0  0  0  0
    6.8450   -3.7245   -2.1980 H   0  0  0  0  0  0  0  0  0  0  0  0
    8.1370   -2.9939   -3.5775 N   0  0  0  0  0  0  0  0  0  0  0  0
    8.7071   -1.7806   -3.6515 C   0  0  0  0  0  0  0  0  0  0  0  0
    9.5947   -1.4027   -4.5992 N   0  0  0  0  0  0  0  0  0  0  0  0
   10.0154   -0.1682   -4.4717 C   0  0  0  0  0  0  0  0  0  0  0  0
    9.6314    0.7553   -3.5466 N   0  0  0  0  0  0  0  0  0  0  0  0
    8.7484    0.4298   -2.6192 C   0  0  0  0  0  0  0  0  0  0  0  0
    8.2601    1.5231   -1.6985 C   0  0  1  0  0  0  0  0  0  0  0  0
    9.3548    2.5178   -1.2327 C   0  0  0  0  0  0  0  0  0  0  0  0
    8.6083    3.8189   -1.0630 C   0  0  0  0  0  0  0  0  0  0  0  0
    9.0249    4.9940   -0.4313 C   0  0  0  0  0  0  0  0  0  0  0  0
    8.1633    6.0971   -0.3999 C   0  0  0  0  0  0  0  0  0  0  0  0
    6.8962    6.0268   -0.9937 C   0  0  0  0  0  0  0  0  0  0  0  0
    6.4797    4.8504   -1.6276 C   0  0  0  0  0  0  0  0  0  0  0  0
    7.3403    3.7497   -1.6583 C   0  0  0  0  0  0  0  0  0  0  0  0
    7.1133    2.4019   -2.3321 C   0  0  1  0  0  0  0  0  0  0  0  0
    7.1555    2.4161   -3.7934 N   0  0  0  0  0  0  0  0  0  0  0  0
    8.2638   -0.9135   -2.5874 C   0  0  0  0  0  0  0  0  0  0  0  0
    7.1933   -0.9381    0.5218 C   0  0  0  0  0  0  0  0  0  0  0  0
    9.4713    1.0147    4.6300 H   0  0  0  0  0  0  0  0  0  0  0  0
    7.7710    0.7446    5.1383 H   0  0  0  0  0  0  0  0  0  0  0  0
    8.2397    2.2383    4.2714 H   0  0  0  0  0  0  0  0  0  0  0  0
    6.4012   -0.1613    3.6677 H   0  0  0  0  0  0  0  0  0  0  0  0
    4.5341   -1.1232    2.6854 H   0  0  0  0  0  0  0  0  0  0  0  0
    4.7562   -2.4299   -1.3928 H   0  0  0  0  0  0  0  0  0  0  0  0
   10.7564    0.1844   -5.2001 H   0  0  0  0  0  0  0  0  0  0  0  0
    7.8250    1.0677   -0.8020 H   0  0  0  0  0  0  0  0  0  0  0  0
   10.1426    2.6063   -1.9988 H   0  0  0  0  0  0  0  0  0  0  0  0
    9.8311    2.1770   -0.2996 H   0  0  0  0  0  0  0  0  0  0  0  0
   10.0114    5.0528    0.0375 H   0  0  0  0  0  0  0  0  0  0  0  0
    8.4794    7.0193    0.0951 H   0  0  0  0  0  0  0  0  0  0  0  0
    6.2291    6.8922   -0.9560 H   0  0  0  0  0  0  0  0  0  0  0  0
    5.4873    4.7957   -2.0866 H   0  0  0  0  0  0  0  0  0  0  0  0
    6.1321    1.9842   -2.0466 H   0  0  0  0  0  0  0  0  0  0  0  0
    8.0752    2.7180   -4.1193 H   0  0  0  0  0  0  0  0  0  0  0  0
    6.4765    3.0863   -4.1546 H   0  0  0  0  0  0  0  0  0  0  0  0
    8.2305   -0.6202    0.4916 H   0  0  0  0  0  0  0  0  0  0  0  0
  1  2  1  0
  1 32  1  0
  1 33  1  0
  1 34  1  0
  2  3  2  0
  2  4  1  0
  4  5  1  0
  4 35  1  0
  5  6  2  0
  5 31  1  0
  6  7  1  0
  6 36  1  0
  7  8  1  0
  7  9  2  0
  9 10  1  0
  9 37  1  0
 10 11  1  0
 10 31  2  0
 11 12  1  0
 11 30  2  0
 12 13  1  0
 12 14  1  0
 14 15  2  0
 15 16  1  0
 15 30  1  0
 16 17  2  0
 17 18  1  0
 17 38  1  0
 18 19  2  0
 19 20  1  0
 19 30  1  0
 20 21  1  0
 20 28  1  0
 20 39  1  1
 21 22  1  0
 21 40  1  0
 21 41  1  0
 22 23  1  0
 22 27  2  0
 23 24  2  0
 23 42  1  0
 24 25  1  0
 24 43  1  0
 25 26  2  0
 25 44  1  0
 26 27  1  0
 26 45  1  0
 27 28  1  0
 28 29  1  0
 28 46  1  6
 29 47  1  0
 29 48  1  0
 31 49  1  0
M  END

