
     RDKit          3D

 42 43  0  0  0  0  0  0  0  0999 V2000
    1.3108   -0.8985   -2.2000 C   0  0  0  0  0  0  0  0  0  0  0  0
    2.7259   -0.9286   -1.9865 O   0  0  0  0  0  0  0  0  0  0  0  0
    3.3460    0.2819   -1.8206 C   0  0  0  0  0  0  0  0  0  0  0  0
    2.7077    1.3080   -1.8644 O   0  0  0  0  0  0  0  0  0  0  0  0
    4.8120    0.2038   -1.5942 C   0  0  0  0  0  0  0  0  0  0  0  0
    5.4322    1.4682   -1.4461 C   0  0  0  0  0  0  0  0  0  0  0  0
    6.7922    1.6145   -1.2342 C   0  0  0  0  0  0  0  0  0  0  0  0
    7.4433    2.7914   -1.0840 O   0  0  0  0  0  0  0  0  0  0  0  0
    6.6995    3.9870   -1.1449 C   0  0  0  0  0  0  0  0  0  0  0  0
    7.5921    0.4380   -1.1635 C   0  0  0  0  0  0  0  0  0  0  0  0
    8.9057    0.6307   -0.9555 O   0  0  0  0  0  0  0  0  0  0  0  0
    9.7643   -0.4903   -0.8679 C   0  0  0  0  0  0  0  0  0  0  0  0
    7.0029   -0.8166   -1.3049 C   0  0  0  0  0  0  0  0  0  0  0  0
    5.6196   -0.9664   -1.5188 C   0  0  0  0  0  0  0  0  0  0  0  0
    5.0158   -2.2227   -1.6704 N   0  0  0  0  0  0  0  0  0  0  0  0
    5.4638   -3.5202   -1.6277 C   0  0  0  0  0  0  0  0  0  0  0  0
    6.9870   -4.0439   -1.1828 S   0  0  0  0  0  0  0  0  0  0  0  0
    4.4339   -4.3588   -2.0302 N   0  0  0  0  0  0  0  0  0  0  0  0
    4.2567   -5.7429   -2.0179 C   0  0  0  0  0  0  0  0  0  0  0  0
    5.0917   -6.6691   -1.3649 C   0  0  0  0  0  0  0  0  0  0  0  0
    4.8151   -8.0356   -1.3850 C   0  0  0  0  0  0  0  0  0  0  0  0
    3.6907   -8.5161   -2.0576 C   0  0  0  0  0  0  0  0  0  0  0  0
    3.3137  -10.3828   -2.0907 Br  0  0  0  0  0  0  0  0  0  0  0  0
    2.8329   -7.6295   -2.7108 C   0  0  0  0  0  0  0  0  0  0  0  0
    3.1211   -6.2673   -2.6856 C   0  0  0  0  0  0  0  0  0  0  0  0
    2.0132   -5.1753   -3.5153 Cl  0  0  0  0  0  0  0  0  0  0  0  0
    1.0027   -1.9439   -2.3278 H   0  0  0  0  0  0  0  0  0  0  0  0
    1.0673   -0.3127   -3.0980 H   0  0  0  0  0  0  0  0  0  0  0  0
    0.7983   -0.4489   -1.3373 H   0  0  0  0  0  0  0  0  0  0  0  0
    4.7784    2.3361   -1.5086 H   0  0  0  0  0  0  0  0  0  0  0  0
    7.4150    4.8078   -1.0017 H   0  0  0  0  0  0  0  0  0  0  0  0
    5.9329    4.0353   -0.3502 H   0  0  0  0  0  0  0  0  0  0  0  0
    6.2005    4.1114   -2.1233 H   0  0  0  0  0  0  0  0  0  0  0  0
   10.7720   -0.0931   -0.6895 H   0  0  0  0  0  0  0  0  0  0  0  0
    9.7644   -1.0764   -1.8032 H   0  0  0  0  0  0  0  0  0  0  0  0
    9.4813   -1.1555   -0.0340 H   0  0  0  0  0  0  0  0  0  0  0  0
    7.6035   -1.7182   -1.2397 H   0  0  0  0  0  0  0  0  0  0  0  0
    4.0107   -2.1208   -1.8113 H   0  0  0  0  0  0  0  0  0  0  0  0
    3.6632   -3.8886   -2.4988 H   0  0  0  0  0  0  0  0  0  0  0  0
    5.9738   -6.2981   -0.8481 H   0  0  0  0  0  0  0  0  0  0  0  0
    5.4843   -8.7265   -0.8700 H   0  0  0  0  0  0  0  0  0  0  0  0
    1.9479   -7.9847   -3.2381 H   0  0  0  0  0  0  0  0  0  0  0  0
  1  2  1  0
  1 27  1  0
  1 28  1  0
  1 29  1  0
  2  3  1  0
  3  4  2  0
  3  5  1  0
  5  6  2  0
  5 14  1  0
  6  7  1  0
  6 30  1  0
  7  8  1  0
  7 10  2  0
  8  9  1  0
  9 31  1  0
  9 32  1  0
  9 33  1  0
 10 11  1  0
 10 13  1  0
 11 12  1  0
 12 34  1  0
 12 35  1  0
 12 36  1  0
 13 14  2  0
 13 37  1  0
 14 15  1  0
 15 16  1  0
 15 38  1  0
 16 17  2  0
 16 18  1  0
 18 19  1  0
 18 39  1  0
 19 20  2  0
 19 25  1  0
 20 21  1  0
 20 40  1  0
 21 22  2  0
 21 41  1  0
 22 23  1  0
 22 24  1  0
 24 25  2  0
 24 42  1  0
 25 26  1  0
M  END

