
     RDKit          3D

 50 51  0  0  0  0  0  0  0  0999 V2000
    5.5844   -0.1287   -1.4630 C   0  0  0  0  0  0  0  0  0  0  0  0
    4.3437    0.5506   -1.8424 N   0  0  0  0  0  0  0  0  0  0  0  0
    3.1169   -0.0488   -1.3083 C   0  0  0  0  0  0  0  0  0  0  0  0
    2.6440   -1.3012   -2.0650 C   0  0  0  0  0  0  0  0  0  0  0  0
    1.9170   -2.1046   -1.5073 O   0  0  0  0  0  0  0  0  0  0  0  0
    3.0566   -1.3989   -3.3550 N   0  0  0  0  0  0  0  0  0  0  0  0
    2.6255   -2.4805   -4.2440 C   0  0  1  0  0  0  0  0  0  0  0  0
    1.2690   -2.1657   -4.9077 C   0  0  0  0  0  0  0  0  0  0  0  0
    1.3676   -1.0463   -5.9505 C   0  0  0  0  0  0  0  0  0  0  0  0
    2.4345   -1.3530   -7.0100 C   0  0  0  0  0  0  0  0  0  0  0  0
    3.7932   -1.6591   -6.3613 C   0  0  0  0  0  0  0  0  0  0  0  0
    3.7274   -2.7698   -5.2907 C   0  0  2  0  0  0  0  0  0  0  0  0
    3.5743   -4.1668   -5.9222 C   0  0  0  0  0  0  0  0  0  0  0  0
    3.5968   -5.2181   -4.9136 N   0  0  0  0  0  0  0  0  0  0  0  0
    4.4339    2.2537   -1.7909 S   0  0  1  0  0  0  0  0  0  0  0  0
    3.0633    2.7513   -1.9148 O   0  0  0  0  0  0  0  0  0  0  0  0
    5.3121    2.6906   -0.7021 O   0  0  0  0  0  0  0  0  0  0  0  0
    5.2923    2.6245   -3.3338 C   0  0  0  0  0  0  0  0  0  0  0  0
    6.5882    3.1439   -3.2927 C   0  0  0  0  0  0  0  0  0  0  0  0
    7.2357    3.4655   -4.4920 C   0  0  0  0  0  0  0  0  0  0  0  0
    6.5925    3.2689   -5.7140 C   0  0  0  0  0  0  0  0  0  0  0  0
    5.2943    2.7512   -5.7155 C   0  0  0  0  0  0  0  0  0  0  0  0
    4.6098    2.5320   -7.0111 N   0  0  0  0  0  0  0  0  0  0  0  0
    5.1904    2.8890   -8.0202 O   0  0  0  0  0  0  0  0  0  0  0  0
    3.5108    2.0013   -6.9802 O   0  0  0  0  0  0  0  0  0  0  0  0
    4.6179    2.4343   -4.5410 C   0  0  0  0  0  0  0  0  0  0  0  0
    5.4956   -1.1871   -1.7476 H   0  0  0  0  0  0  0  0  0  0  0  0
    5.7882   -0.0580   -0.3806 H   0  0  0  0  0  0  0  0  0  0  0  0
    6.4379    0.2966   -2.0107 H   0  0  0  0  0  0  0  0  0  0  0  0
    2.3078    0.6937   -1.3693 H   0  0  0  0  0  0  0  0  0  0  0  0
    3.2215   -0.3365   -0.2479 H   0  0  0  0  0  0  0  0  0  0  0  0
    3.6224   -0.6385   -3.7147 H   0  0  0  0  0  0  0  0  0  0  0  0
    2.5064   -3.3696   -3.6103 H   0  0  0  0  0  0  0  0  0  0  0  0
    0.5426   -1.9161   -4.1183 H   0  0  0  0  0  0  0  0  0  0  0  0
    0.8937   -3.0872   -5.3861 H   0  0  0  0  0  0  0  0  0  0  0  0
    1.6211   -0.0946   -5.4488 H   0  0  0  0  0  0  0  0  0  0  0  0
    0.3876   -0.8824   -6.4284 H   0  0  0  0  0  0  0  0  0  0  0  0
    2.5422   -0.5008   -7.6999 H   0  0  0  0  0  0  0  0  0  0  0  0
    2.1081   -2.2128   -7.6223 H   0  0  0  0  0  0  0  0  0  0  0  0
    4.1722   -0.7283   -5.9005 H   0  0  0  0  0  0  0  0  0  0  0  0
    4.5368   -1.9289   -7.1310 H   0  0  0  0  0  0  0  0  0  0  0  0
    4.6918   -2.7803   -4.7474 H   0  0  0  0  0  0  0  0  0  0  0  0
    4.3610   -4.2683   -6.7018 H   0  0  0  0  0  0  0  0  0  0  0  0
    2.6128   -4.2355   -6.4567 H   0  0  0  0  0  0  0  0  0  0  0  0
    4.5284   -5.3121   -4.5075 H   0  0  0  0  0  0  0  0  0  0  0  0
    3.3634   -6.1223   -5.3210 H   0  0  0  0  0  0  0  0  0  0  0  0
    7.0691    3.2987   -2.3252 H   0  0  0  0  0  0  0  0  0  0  0  0
    8.2483    3.8739   -4.4707 H   0  0  0  0  0  0  0  0  0  0  0  0
    7.0701    3.5076   -6.6641 H   0  0  0  0  0  0  0  0  0  0  0  0
    3.5948    2.0613   -4.5781 H   0  0  0  0  0  0  0  0  0  0  0  0
  1  2  1  0
  1 27  1  0
  1 28  1  0
  1 29  1  0
  2  3  1  0
 15  2  1  1
  3  4  1  0
  3 30  1  0
  3 31  1  0
  4  5  2  0
  4  6  1  0
  6  7  1  0
  6 32  1  0
  7  8  1  0
  7 12  1  0
  7 33  1  1
  8  9  1  0
  8 34  1  0
  8 35  1  0
  9 10  1  0
  9 36  1  0
  9 37  1  0
 10 11  1  0
 10 38  1  0
 10 39  1  0
 11 12  1  0
 11 40  1  0
 11 41  1  0
 12 13  1  0
 12 42  1  1
 13 14  1  0
 13 43  1  0
 13 44  1  0
 14 45  1  0
 14 46  1  0
 15 16  2  0
 15 17  2  0
 15 18  1  0
 18 19  2  0
 18 26  1  0
 19 20  1  0
 19 47  1  0
 20 21  2  0
 20 48  1  0
 21 22  1  0
 21 49  1  0
 22 23  1  0
 22 26  2  0
 23 24  2  0
 23 25  1  0
 26 50  1  0
M  CHG  2  23   1  25  -1
M  END

