
     RDKit          3D

 34 34  0  0  0  0  0  0  0  0999 V2000
    1.9465    0.2896    1.8030 C   0  0  0  0  0  0  0  0  0  0  0  0
    2.8065    0.0965    0.6975 O   0  0  0  0  0  0  0  0  0  0  0  0
    3.2515    1.1755   -0.0081 C   0  0  0  0  0  0  0  0  0  0  0  0
    3.0339    2.4980    0.4029 C   0  0  0  0  0  0  0  0  0  0  0  0
    3.5261    3.5616   -0.3578 C   0  0  0  0  0  0  0  0  0  0  0  0
    4.2308    3.3084   -1.5333 C   0  0  0  0  0  0  0  0  0  0  0  0
    4.7881    4.4286   -2.3691 C   0  0  1  0  0  0  0  0  0  0  0  0
    4.3914    5.6367   -1.9321 F   0  0  0  0  0  0  0  0  0  0  0  0
    6.1373    4.4294   -2.3663 F   0  0  0  0  0  0  0  0  0  0  0  0
    4.4108    4.3239   -3.6587 F   0  0  0  0  0  0  0  0  0  0  0  0
    4.4337    1.9826   -1.9430 C   0  0  0  0  0  0  0  0  0  0  0  0
    3.9595    0.8974   -1.2045 C   0  0  0  0  0  0  0  0  0  0  0  0
    4.1906   -0.5181   -1.6842 C   0  0  0  0  0  0  0  0  0  0  0  0
    5.6161   -1.0768   -1.4445 C   0  0  1  0  0  0  0  0  0  0  0  0
    6.0559   -1.0447    0.0303 C   0  0  0  0  0  0  0  0  0  0  0  0
    5.2402   -1.9405    0.8663 N   0  0  0  0  0  0  0  0  0  0  0  0
    5.7350   -2.5009   -2.0250 C   0  0  0  0  0  0  0  0  0  0  0  0
    4.8248   -3.4078   -1.4567 O   0  0  0  0  0  0  0  0  0  0  0  0
    1.6573   -0.7109    2.1515 H   0  0  0  0  0  0  0  0  0  0  0  0
    1.0377    0.8459    1.5153 H   0  0  0  0  0  0  0  0  0  0  0  0
    2.4489    0.8255    2.6277 H   0  0  0  0  0  0  0  0  0  0  0  0
    2.4829    2.7142    1.3177 H   0  0  0  0  0  0  0  0  0  0  0  0
    3.3538    4.5882   -0.0317 H   0  0  0  0  0  0  0  0  0  0  0  0
    4.9676    1.7877   -2.8771 H   0  0  0  0  0  0  0  0  0  0  0  0
    4.0019   -0.5516   -2.7701 H   0  0  0  0  0  0  0  0  0  0  0  0
    3.4620   -1.2012   -1.2291 H   0  0  0  0  0  0  0  0  0  0  0  0
    6.3302   -0.4368   -1.9956 H   0  0  0  0  0  0  0  0  0  0  0  0
    6.0629    0.0021    0.3957 H   0  0  0  0  0  0  0  0  0  0  0  0
    7.1000   -1.3966    0.0807 H   0  0  0  0  0  0  0  0  0  0  0  0
    4.3301   -1.5105    1.0415 H   0  0  0  0  0  0  0  0  0  0  0  0
    5.6811   -2.0822    1.7747 H   0  0  0  0  0  0  0  0  0  0  0  0
    6.7883   -2.8388   -1.9023 H   0  0  0  0  0  0  0  0  0  0  0  0
    5.5426   -2.4724   -3.1125 H   0  0  0  0  0  0  0  0  0  0  0  0
    4.8875   -3.2596   -0.4890 H   0  0  0  0  0  0  0  0  0  0  0  0
  1  2  1  0
  1 19  1  0
  1 20  1  0
  1 21  1  0
  2  3  1  0
  3  4  2  0
  3 12  1  0
  4  5  1  0
  4 22  1  0
  5  6  2  0
  5 23  1  0
  6  7  1  0
  6 11  1  0
  7  8  1  1
  7  9  1  0
  7 10  1  0
 11 12  2  0
 11 24  1  0
 12 13  1  0
 13 14  1  0
 13 25  1  0
 13 26  1  0
 14 15  1  0
 14 17  1  0
 14 27  1  6
 15 16  1  0
 15 28  1  0
 15 29  1  0
 16 30  1  0
 16 31  1  0
 17 18  1  0
 17 32  1  0
 17 33  1  0
 18 34  1  0
M  END

