
     RDKit          3D

 52 55  0  0  0  0  0  0  0  0999 V2000
   -1.8131   -4.4553   -2.4966 C   0  0  0  0  0  0  0  0  0  0  0  0
   -1.4786   -4.5395   -1.1158 O   0  0  0  0  0  0  0  0  0  0  0  0
   -0.2238   -4.9305   -0.8063 C   0  0  0  0  0  0  0  0  0  0  0  0
    0.6573   -5.2246   -1.7335 N   0  0  0  0  0  0  0  0  0  0  0  0
    1.9028   -5.6019   -1.3553 C   0  0  0  0  0  0  0  0  0  0  0  0
    2.3331   -5.7119   -0.0423 C   0  0  0  0  0  0  0  0  0  0  0  0
    1.3959   -5.4148    0.9769 C   0  0  0  0  0  0  0  0  0  0  0  0
    1.3676   -5.3847    2.4305 C   0  0  0  0  0  0  0  0  0  0  0  0
    2.3271   -5.7569    3.4757 C   0  0  0  0  0  0  0  0  0  0  0  0
    2.0721   -5.6402    4.6658 O   0  0  0  0  0  0  0  0  0  0  0  0
    3.7446   -6.2035    3.0517 C   0  0  0  0  0  0  0  0  0  0  0  0
    4.3373   -5.4799    2.2632 O   0  0  0  0  0  0  0  0  0  0  0  0
    4.2709   -7.3019    3.6686 N   0  0  0  0  0  0  0  0  0  0  0  0
    3.4521   -8.3070    4.3524 C   0  0  0  0  0  0  0  0  0  0  0  0
    3.4705   -9.6303    3.5835 C   0  0  0  0  0  0  0  0  0  0  0  0
    4.8434  -10.0755    3.3700 N   0  0  0  0  0  0  0  0  0  0  0  0
    5.1006  -11.4329    3.4161 C   0  0  0  0  0  0  0  0  0  0  0  0
    4.2052  -12.2508    3.5655 O   0  0  0  0  0  0  0  0  0  0  0  0
    6.5329  -11.8969    3.3249 C   0  0  0  0  0  0  0  0  0  0  0  0
    7.5617  -11.3339    4.0972 C   0  0  0  0  0  0  0  0  0  0  0  0
    8.8512  -11.8715    4.0574 C   0  0  0  0  0  0  0  0  0  0  0  0
    9.1273  -12.9704    3.2386 C   0  0  0  0  0  0  0  0  0  0  0  0
    8.1041  -13.5440    2.4759 C   0  0  0  0  0  0  0  0  0  0  0  0
    6.8116  -13.0201    2.5307 C   0  0  0  0  0  0  0  0  0  0  0  0
    5.6959   -9.0713    2.7409 C   0  0  0  0  0  0  0  0  0  0  0  0
    5.6751   -7.7528    3.5360 C   0  0  1  0  0  0  0  0  0  0  0  0
    5.9838   -8.0051    4.5682 H   0  0  0  0  0  0  0  0  0  0  0  0
    6.6863   -6.7454    2.9927 C   0  0  0  0  0  0  0  0  0  0  0  0
    0.0870   -4.9624    2.7881 C   0  0  0  0  0  0  0  0  0  0  0  0
   -0.6581   -4.7418    1.6790 N   0  0  0  0  0  0  0  0  0  0  0  0
   -1.6217   -4.4323    1.6514 H   0  0  0  0  0  0  0  0  0  0  0  0
    0.1074   -5.0118    0.5602 C   0  0  0  0  0  0  0  0  0  0  0  0
   -2.8614   -4.1313   -2.5352 H   0  0  0  0  0  0  0  0  0  0  0  0
   -1.6970   -5.4308   -2.9937 H   0  0  0  0  0  0  0  0  0  0  0  0
   -1.1706   -3.7283   -3.0173 H   0  0  0  0  0  0  0  0  0  0  0  0
    2.5968   -5.8207   -2.1738 H   0  0  0  0  0  0  0  0  0  0  0  0
    3.3602   -5.9858    0.1898 H   0  0  0  0  0  0  0  0  0  0  0  0
    2.4240   -7.9507    4.4626 H   0  0  0  0  0  0  0  0  0  0  0  0
    3.8535   -8.4621    5.3690 H   0  0  0  0  0  0  0  0  0  0  0  0
    2.9557   -9.4963    2.6116 H   0  0  0  0  0  0  0  0  0  0  0  0
    2.9370  -10.4163    4.1326 H   0  0  0  0  0  0  0  0  0  0  0  0
    7.3477  -10.4879    4.7551 H   0  0  0  0  0  0  0  0  0  0  0  0
    9.6413  -11.4339    4.6730 H   0  0  0  0  0  0  0  0  0  0  0  0
   10.1373  -13.3866    3.2025 H   0  0  0  0  0  0  0  0  0  0  0  0
    8.3131  -14.4107    1.8437 H   0  0  0  0  0  0  0  0  0  0  0  0
    5.9990  -13.4803    1.9647 H   0  0  0  0  0  0  0  0  0  0  0  0
    5.3385   -8.8645    1.7123 H   0  0  0  0  0  0  0  0  0  0  0  0
    6.7226   -9.4451    2.6629 H   0  0  0  0  0  0  0  0  0  0  0  0
    6.5402   -6.5332    1.9272 H   0  0  0  0  0  0  0  0  0  0  0  0
    7.6943   -7.1668    3.1403 H   0  0  0  0  0  0  0  0  0  0  0  0
    6.6326   -5.7898    3.5303 H   0  0  0  0  0  0  0  0  0  0  0  0
   -0.3074   -4.8239    3.7926 H   0  0  0  0  0  0  0  0  0  0  0  0
  1  2  1  0
  1 33  1  0
  1 34  1  0
  1 35  1  0
  2  3  1  0
  3  4  2  0
  3 32  1  0
  4  5  1  0
  5  6  2  0
  5 36  1  0
  6  7  1  0
  6 37  1  0
  7  8  1  0
  7 32  2  0
  8  9  1  0
  8 29  2  0
  9 10  2  0
  9 11  1  0
 11 12  2  0
 11 13  1  0
 13 14  1  0
 13 26  1  0
 14 15  1  0
 14 38  1  0
 14 39  1  0
 15 16  1  0
 15 40  1  0
 15 41  1  0
 16 17  1  0
 16 25  1  0
 17 18  2  0
 17 19  1  0
 19 20  2  0
 19 24  1  0
 20 21  1  0
 20 42  1  0
 21 22  2  0
 21 43  1  0
 22 23  1  0
 22 44  1  0
 23 24  2  0
 23 45  1  0
 24 46  1  0
 25 26  1  0
 25 47  1  0
 25 48  1  0
 26 27  1  1
 26 28  1  0
 28 49  1  0
 28 50  1  0
 28 51  1  0
 29 30  1  0
 29 52  1  0
 30 31  1  0
 30 32  1  0
M  END

