
     RDKit          3D

 24 25  0  0  0  0  0  0  0  0999 V2000
    1.0674    0.0735    0.0396 C   0  0  0  0  0  0  0  0  0  0  0  0
    2.5287    0.0889    0.0481 N   0  0  0  0  0  0  0  0  0  0  0  0
    3.1825    1.3425    0.0516 C   0  0  0  0  0  0  0  0  0  0  0  0
    2.5753    2.4055    0.0478 O   0  0  0  0  0  0  0  0  0  0  0  0
    4.6141    1.1848    0.0599 C   0  0  0  0  0  0  0  0  0  0  0  0
    5.2467   -0.0478    0.0636 C   0  0  0  0  0  0  0  0  0  0  0  0
    6.5963    0.0885    0.0717 N   0  0  0  0  0  0  0  0  0  0  0  0
    6.7914    1.4002    0.0732 C   0  0  0  0  0  0  0  0  0  0  0  0
    5.6369    2.1186    0.0661 N   0  0  0  0  0  0  0  0  0  0  0  0
    5.4955    3.5659    0.0650 C   0  0  0  0  0  0  0  0  0  0  0  0
    4.5289   -1.2233    0.0593 N   0  0  0  0  0  0  0  0  0  0  0  0
    5.1819   -2.5266    0.0622 C   0  0  0  0  0  0  0  0  0  0  0  0
    3.1387   -1.1825    0.0510 C   0  0  0  0  0  0  0  0  0  0  0  0
    2.4733   -2.2009    0.0464 O   0  0  0  0  0  0  0  0  0  0  0  0
    0.7291    1.1150    0.0386 H   0  0  0  0  0  0  0  0  0  0  0  0
    0.6840   -0.4537    0.9255 H   0  0  0  0  0  0  0  0  0  0  0  0
    0.6941   -0.4518   -0.8517 H   0  0  0  0  0  0  0  0  0  0  0  0
    7.7673    1.8881    0.0792 H   0  0  0  0  0  0  0  0  0  0  0  0
    6.4983    4.0150    0.0734 H   0  0  0  0  0  0  0  0  0  0  0  0
    4.9352    3.8989    0.9500 H   0  0  0  0  0  0  0  0  0  0  0  0
    4.9501    3.8993   -0.8291 H   0  0  0  0  0  0  0  0  0  0  0  0
    6.2651   -2.3577    0.0716 H   0  0  0  0  0  0  0  0  0  0  0  0
    4.8967   -3.1025   -0.8309 H   0  0  0  0  0  0  0  0  0  0  0  0
    4.8815   -3.1057    0.9482 H   0  0  0  0  0  0  0  0  0  0  0  0
  1  2  1  0
  1 15  1  0
  1 16  1  0
  1 17  1  0
  2  3  1  0
  2 13  1  0
  3  4  2  0
  3  5  1  0
  5  6  2  0
  5  9  1  0
  6  7  1  0
  6 11  1  0
  7  8  2  0
  8  9  1  0
  8 18  1  0
  9 10  1  0
 10 19  1  0
 10 20  1  0
 10 21  1  0
 11 12  1  0
 11 13  1  0
 12 22  1  0
 12 23  1  0
 12 24  1  0
 13 14  2  0
M  END

