
     RDKit          3D

 23 24  0  0  0  0  0  0  0  0999 V2000
    0.8747    0.0185    0.2884 C   0  0  0  0  0  0  0  0  0  0  0  0
    2.3613    0.0225    0.0405 C   0  0  0  0  0  0  0  0  0  0  0  0
    3.1016    1.2112    0.1471 C   0  0  0  0  0  0  0  0  0  0  0  0
    4.4802    1.2519   -0.0607 C   0  0  0  0  0  0  0  0  0  0  0  0
    5.1420    0.0712   -0.3856 C   0  0  0  0  0  0  0  0  0  0  0  0
    6.4662    0.0885   -0.5842 F   0  0  0  0  0  0  0  0  0  0  0  0
    4.4549   -1.1293   -0.5167 C   0  0  0  0  0  0  0  0  0  0  0  0
    3.0713   -1.1448   -0.3061 C   0  0  0  0  0  0  0  0  0  0  0  0
    2.3823   -2.3936   -0.4460 N   0  0  0  0  0  0  0  0  0  0  0  0
    2.6815   -3.5351    0.3351 C   0  0  0  0  0  0  0  0  0  0  0  0
    3.4956   -3.6170    1.2115 O   0  0  0  0  0  0  0  0  0  0  0  0
    1.8352   -4.5512   -0.1173 N   0  0  0  0  0  0  0  0  0  0  0  0
    1.0084   -4.1533   -1.1532 C   0  0  0  0  0  0  0  0  0  0  0  0
    0.1841   -4.7972   -1.7392 O   0  0  0  0  0  0  0  0  0  0  0  0
    1.3941   -2.6698   -1.3941 C   0  0  0  0  0  0  0  0  0  0  0  0
    0.9363   -1.9314   -2.2212 O   0  0  0  0  0  0  0  0  0  0  0  0
    0.5640    0.9341    0.8110 H   0  0  0  0  0  0  0  0  0  0  0  0
    0.5672   -0.8424    0.9032 H   0  0  0  0  0  0  0  0  0  0  0  0
    0.3163   -0.0439   -0.6594 H   0  0  0  0  0  0  0  0  0  0  0  0
    2.5783    2.1335    0.4115 H   0  0  0  0  0  0  0  0  0  0  0  0
    5.0472    2.1799    0.0318 H   0  0  0  0  0  0  0  0  0  0  0  0
    4.9986   -2.0381   -0.7749 H   0  0  0  0  0  0  0  0  0  0  0  0
    1.8478   -5.4803    0.2927 H   0  0  0  0  0  0  0  0  0  0  0  0
  1  2  1  0
  1 17  1  0
  1 18  1  0
  1 19  1  0
  2  3  2  0
  2  8  1  0
  3  4  1  0
  3 20  1  0
  4  5  2  0
  4 21  1  0
  5  6  1  0
  5  7  1  0
  7  8  2  0
  7 22  1  0
  8  9  1  0
  9 10  1  0
  9 15  1  0
 10 11  2  0
 10 12  1  0
 12 13  1  0
 12 23  1  0
 13 14  2  0
 13 15  1  0
 15 16  2  0
M  END

