
     RDKit          3D

 45 46  0  0  0  0  0  0  0  0999 V2000
    1.2721   -0.6367   -0.7435 C   0  0  0  0  0  0  0  0  0  0  0  0
    2.6762   -0.5369   -1.2750 C   0  0  0  0  0  0  0  0  0  0  0  0
    3.0294   -0.0801   -2.3175 O   0  0  0  0  0  0  0  0  0  0  0  0
    3.5537   -1.0758   -0.3299 O   0  0  0  0  0  0  0  0  0  0  0  0
    4.9181   -0.8694   -0.6087 N   0  0  0  0  0  0  0  0  0  0  0  0
    5.5377    0.0566    0.3270 C   0  0  0  0  0  0  0  0  0  0  0  0
    5.2195    1.5157    0.0719 C   0  0  0  0  0  0  0  0  0  0  0  0
    4.9960    2.3807    1.1519 C   0  0  0  0  0  0  0  0  0  0  0  0
    4.7725    3.7340    0.9233 C   0  0  0  0  0  0  0  0  0  0  0  0
    4.7490    4.2259   -0.3853 C   0  0  0  0  0  0  0  0  0  0  0  0
    4.4837    5.6739   -0.5284 N   0  0  0  0  0  0  0  0  0  0  0  0
    4.5970    6.3703    0.4684 O   0  0  0  0  0  0  0  0  0  0  0  0
    4.1570    6.0952   -1.6279 O   0  0  0  0  0  0  0  0  0  0  0  0
    4.9617    3.3911   -1.5051 C   0  0  0  0  0  0  0  0  0  0  0  0
    4.9580    3.8455   -2.9426 C   0  0  0  0  0  0  0  0  0  0  0  0
    5.2026    2.0354   -1.2276 C   0  0  0  0  0  0  0  0  0  0  0  0
    5.6462   -1.9892   -1.0584 C   0  0  0  0  0  0  0  0  0  0  0  0
    6.8578   -1.9291   -1.1426 O   0  0  0  0  0  0  0  0  0  0  0  0
    4.8693   -3.0689   -1.4014 N   0  0  0  0  0  0  0  0  0  0  0  0
    5.2812   -4.2780   -1.9850 C   0  0  0  0  0  0  0  0  0  0  0  0
    4.2971   -5.2643   -2.1875 C   0  0  0  0  0  0  0  0  0  0  0  0
    4.6231   -6.4864   -2.7662 C   0  0  0  0  0  0  0  0  0  0  0  0
    5.9414   -6.7494   -3.1567 C   0  0  0  0  0  0  0  0  0  0  0  0
    6.2875   -8.0492   -3.8329 C   0  0  1  0  0  0  0  0  0  0  0  0
    5.4897   -9.0538   -3.4238 F   0  0  0  0  0  0  0  0  0  0  0  0
    6.1531   -7.9696   -5.1725 F   0  0  0  0  0  0  0  0  0  0  0  0
    7.5584   -8.4175   -3.5921 F   0  0  0  0  0  0  0  0  0  0  0  0
    6.9216   -5.7719   -2.9537 C   0  0  0  0  0  0  0  0  0  0  0  0
    6.6069   -4.5439   -2.3732 C   0  0  0  0  0  0  0  0  0  0  0  0
    1.1145    0.1721   -0.0116 H   0  0  0  0  0  0  0  0  0  0  0  0
    1.1051   -1.5896   -0.2221 H   0  0  0  0  0  0  0  0  0  0  0  0
    0.5621   -0.5141   -1.5703 H   0  0  0  0  0  0  0  0  0  0  0  0
    6.6190   -0.1155    0.2155 H   0  0  0  0  0  0  0  0  0  0  0  0
    5.2588   -0.2164    1.3606 H   0  0  0  0  0  0  0  0  0  0  0  0
    5.0004    1.9979    2.1759 H   0  0  0  0  0  0  0  0  0  0  0  0
    4.6091    4.4319    1.7434 H   0  0  0  0  0  0  0  0  0  0  0  0
    5.6087    4.7173   -3.1002 H   0  0  0  0  0  0  0  0  0  0  0  0
    3.9520    4.1606   -3.2563 H   0  0  0  0  0  0  0  0  0  0  0  0
    5.2915    3.0252   -3.5933 H   0  0  0  0  0  0  0  0  0  0  0  0
    5.3620    1.3547   -2.0656 H   0  0  0  0  0  0  0  0  0  0  0  0
    3.8905   -3.0097   -1.1502 H   0  0  0  0  0  0  0  0  0  0  0  0
    3.2641   -5.0694   -1.8852 H   0  0  0  0  0  0  0  0  0  0  0  0
    3.8494   -7.2429   -2.9093 H   0  0  0  0  0  0  0  0  0  0  0  0
    7.9542   -5.9729   -3.2458 H   0  0  0  0  0  0  0  0  0  0  0  0
    7.3750   -3.7922   -2.2094 H   0  0  0  0  0  0  0  0  0  0  0  0
  1  2  1  0
  1 30  1  0
  1 31  1  0
  1 32  1  0
  2  3  2  0
  2  4  1  0
  4  5  1  0
  5  6  1  0
  5 17  1  0
  6  7  1  0
  6 33  1  0
  6 34  1  0
  7  8  2  0
  7 16  1  0
  8  9  1  0
  8 35  1  0
  9 10  2  0
  9 36  1  0
 10 11  1  0
 10 14  1  0
 11 12  2  0
 11 13  1  0
 14 15  1  0
 14 16  2  0
 15 37  1  0
 15 38  1  0
 15 39  1  0
 16 40  1  0
 17 18  2  0
 17 19  1  0
 19 20  1  0
 19 41  1  0
 20 21  2  0
 20 29  1  0
 21 22  1  0
 21 42  1  0
 22 23  2  0
 22 43  1  0
 23 24  1  0
 23 28  1  0
 24 25  1  1
 24 26  1  0
 24 27  1  0
 28 29  2  0
 28 44  1  0
 29 45  1  0
M  CHG  2  11   1  13  -1
M  END

