
     RDKit          3D

 18 18  0  0  0  0  0  0  0  0999 V2000
    3.3018   -0.2495    1.1701 C   0  0  0  0  0  0  0  0  0  0  0  0
    2.4724    0.2103   -0.0399 C   0  0  0  0  0  0  0  0  0  0  0  0
    2.9575    1.5059   -0.6215 C   0  0  0  0  0  0  0  0  0  0  0  0
    2.4062    2.6808   -0.1729 N   0  0  0  0  0  0  0  0  0  0  0  0
    2.8603    3.7501   -0.6817 N   0  0  0  0  0  0  0  0  0  0  0  0
    4.0940    3.4104   -1.8482 S   0  0  0  0  0  0  0  0  0  0  0  0
    3.9479    1.7132   -1.5790 C   0  0  0  0  0  0  0  0  0  0  0  0
    4.7382    0.6597   -2.2777 C   0  0  0  0  0  0  0  0  0  0  0  0
    4.7052   -0.4958   -1.9229 O   0  0  0  0  0  0  0  0  0  0  0  0
    5.5683    1.1387   -3.4701 C   0  0  0  0  0  0  0  0  0  0  0  0
    6.5274   -0.1567   -4.2227 Cl  0  0  0  0  0  0  0  0  0  0  0  0
    2.8803   -1.1760    1.5896 H   0  0  0  0  0  0  0  0  0  0  0  0
    3.3048    0.5140    1.9635 H   0  0  0  0  0  0  0  0  0  0  0  0
    4.3414   -0.4540    0.8742 H   0  0  0  0  0  0  0  0  0  0  0  0
    1.4257    0.3665    0.2632 H   0  0  0  0  0  0  0  0  0  0  0  0
    2.4984   -0.5689   -0.8140 H   0  0  0  0  0  0  0  0  0  0  0  0
    6.2515    1.9393   -3.1455 H   0  0  0  0  0  0  0  0  0  0  0  0
    4.8951    1.5665   -4.2297 H   0  0  0  0  0  0  0  0  0  0  0  0
  1  2  1  0
  1 12  1  0
  1 13  1  0
  1 14  1  0
  2  3  1  0
  2 15  1  0
  2 16  1  0
  3  4  2  0
  3  7  1  0
  4  5  1  0
  5  6  2  0
  6  7  1  0
  7  8  2  0
  8  9  1  0
  8 10  1  0
 10 11  1  0
 10 17  1  0
 10 18  1  0
M  CHG  2   6   1   9  -1
M  END

