
     RDKit          3D

 34 35  0  0  0  0  0  0  0  0999 V2000
    3.9920    1.3327   -2.1045 C   0  0  0  0  0  0  0  0  0  0  0  0
    4.5565    0.3440   -1.0925 C   0  0  1  0  0  0  0  0  0  0  0  0
    5.6545   -0.5388   -1.6896 C   0  0  0  0  0  0  0  0  0  0  0  0
    5.0377    1.1146    0.0055 O   0  0  0  0  0  0  0  0  0  0  0  0
    5.2134    0.4301    1.2153 C   0  0  0  0  0  0  0  0  0  0  0  0
    5.5524    1.3954    2.3300 C   0  0  0  0  0  0  0  0  0  0  0  0
    5.5108    2.7811    2.1353 C   0  0  0  0  0  0  0  0  0  0  0  0
    5.8069    3.6544    3.1841 C   0  0  0  0  0  0  0  0  0  0  0  0
    6.1478    3.1592    4.4505 C   0  0  0  0  0  0  0  0  0  0  0  0
    6.5462    4.1056    5.5417 C   0  0  1  0  0  0  0  0  0  0  0  0
    5.6974    5.2197    6.0605 C   0  0  1  0  0  0  0  0  0  0  0  0
    6.4772    6.7533    6.4513 Cl  0  0  0  0  0  0  0  0  0  0  0  0
    4.0430    5.4129    5.4966 Cl  0  0  0  0  0  0  0  0  0  0  0  0
    5.9860    4.0116    6.9931 C   0  0  1  0  0  0  0  0  0  0  0  0
    4.8970    3.1010    7.2893 C   0  0  0  0  0  0  0  0  0  0  0  0
    4.0495    2.3607    7.5645 N   0  0  0  0  0  0  0  0  0  0  0  0
    6.9183    4.1824    8.0907 C   0  0  0  0  0  0  0  0  0  0  0  0
    7.6682    4.2946    8.9669 N   0  0  0  0  0  0  0  0  0  0  0  0
    6.1978    1.7707    4.6452 C   0  0  0  0  0  0  0  0  0  0  0  0
    5.9034    0.9020    3.5952 C   0  0  0  0  0  0  0  0  0  0  0  0
    3.5670    0.8055   -2.9724 H   0  0  0  0  0  0  0  0  0  0  0  0
    4.7862    2.0073   -2.4625 H   0  0  0  0  0  0  0  0  0  0  0  0
    3.2023    1.9455   -1.6446 H   0  0  0  0  0  0  0  0  0  0  0  0
    3.7331   -0.3071   -0.7299 H   0  0  0  0  0  0  0  0  0  0  0  0
    6.4932    0.0830   -2.0419 H   0  0  0  0  0  0  0  0  0  0  0  0
    5.2658   -1.1147   -2.5442 H   0  0  0  0  0  0  0  0  0  0  0  0
    6.0470   -1.2611   -0.9571 H   0  0  0  0  0  0  0  0  0  0  0  0
    6.0181   -0.3305    1.1456 H   0  0  0  0  0  0  0  0  0  0  0  0
    4.2883   -0.1247    1.4859 H   0  0  0  0  0  0  0  0  0  0  0  0
    5.2453    3.1667    1.1508 H   0  0  0  0  0  0  0  0  0  0  0  0
    5.7679    4.7329    3.0138 H   0  0  0  0  0  0  0  0  0  0  0  0
    7.6122    4.3635    5.5580 H   0  0  0  0  0  0  0  0  0  0  0  0
    6.4682    1.3620    5.6215 H   0  0  0  0  0  0  0  0  0  0  0  0
    5.9467   -0.1778    3.7666 H   0  0  0  0  0  0  0  0  0  0  0  0
  1  2  1  0
  1 21  1  0
  1 22  1  0
  1 23  1  0
  2  3  1  0
  2  4  1  0
  2 24  1  1
  3 25  1  0
  3 26  1  0
  3 27  1  0
  4  5  1  0
  5  6  1  0
  5 28  1  0
  5 29  1  0
  6  7  2  0
  6 20  1  0
  7  8  1  0
  7 30  1  0
  8  9  2  0
  8 31  1  0
  9 10  1  0
  9 19  1  0
 10 11  1  0
 10 14  1  0
 10 32  1  1
 11 12  1  1
 11 13  1  0
 11 14  1  0
 14 15  1  1
 14 17  1  0
 15 16  3  0
 17 18  3  0
 19 20  2  0
 19 33  1  0
 20 34  1  0
M  END

