
     RDKit          3D

 42 43  0  0  0  0  0  0  0  0999 V2000
    6.0921   -2.8117    2.5748 C   0  0  0  0  0  0  0  0  0  0  0  0
    5.5470   -3.4715    1.5371 C   0  0  0  0  0  0  0  0  0  0  0  0
    4.4433   -3.0524    0.6759 C   0  0  0  0  0  0  0  0  0  0  0  0
    3.5716   -3.8918    0.0354 C   0  0  0  0  0  0  0  0  0  0  0  0
    3.5190   -5.3858    0.0417 C   0  0  0  0  0  0  0  0  0  0  0  0
    2.6033   -3.0181   -0.6585 C   0  0  0  0  0  0  0  0  0  0  0  0
    1.5476   -3.4148   -1.4059 C   0  0  0  0  0  0  0  0  0  0  0  0
    2.9312   -1.6777   -0.4461 N   0  0  0  0  0  0  0  0  0  0  0  0
    3.9977   -1.6597    0.3202 C   0  0  0  0  0  0  0  0  0  0  0  0
    4.7453   -0.4894    0.7031 C   0  0  0  0  0  0  0  0  0  0  0  0
    4.4411    0.8541    0.6693 C   0  0  0  0  0  0  0  0  0  0  0  0
    5.4216    1.7967    0.9357 N   0  0  0  0  0  0  0  0  0  0  0  0
    6.4005    1.5634    1.0340 H   0  0  0  0  0  0  0  0  0  0  0  0
    4.9433    3.0963    0.8544 C   0  0  0  0  0  0  0  0  0  0  0  0
    5.6732    4.2254    1.0123 C   0  0  0  0  0  0  0  0  0  0  0  0
    3.5090    2.9588    0.5620 C   0  0  0  0  0  0  0  0  0  0  0  0
    2.5808    4.1344    0.4737 C   0  0  0  0  0  0  0  0  0  0  0  0
    2.0892    4.6178    1.8459 C   0  0  0  0  0  0  0  0  0  0  0  0
    1.2011    5.8525    1.7570 C   0  0  0  0  0  0  0  0  0  0  0  0
    0.9362    6.4285    0.7385 O   0  0  0  0  0  0  0  0  0  0  0  0
    0.7073    6.2914    2.9399 O   0  0  0  0  0  0  0  0  0  0  0  0
    3.2002    1.6287    0.4551 C   0  0  0  0  0  0  0  0  0  0  0  0
    1.8396    1.0525    0.2299 C   0  0  0  0  0  0  0  0  0  0  0  0
    6.9082   -3.2586    3.1487 H   0  0  0  0  0  0  0  0  0  0  0  0
    5.7318   -1.8353    2.9062 H   0  0  0  0  0  0  0  0  0  0  0  0
    5.9441   -4.4703    1.3175 H   0  0  0  0  0  0  0  0  0  0  0  0
    4.4036   -5.8296    0.5200 H   0  0  0  0  0  0  0  0  0  0  0  0
    3.4506   -5.7878   -0.9829 H   0  0  0  0  0  0  0  0  0  0  0  0
    2.6322   -5.7526    0.5875 H   0  0  0  0  0  0  0  0  0  0  0  0
    1.3281   -4.4721   -1.5659 H   0  0  0  0  0  0  0  0  0  0  0  0
    0.8922   -2.6741   -1.8685 H   0  0  0  0  0  0  0  0  0  0  0  0
    5.7646   -0.7106    1.0300 H   0  0  0  0  0  0  0  0  0  0  0  0
    6.7420    4.1906    1.2338 H   0  0  0  0  0  0  0  0  0  0  0  0
    5.2107    5.2056    0.9016 H   0  0  0  0  0  0  0  0  0  0  0  0
    1.7082    3.8903   -0.1487 H   0  0  0  0  0  0  0  0  0  0  0  0
    3.0793    4.9747   -0.0338 H   0  0  0  0  0  0  0  0  0  0  0  0
    2.9468    4.8541    2.5015 H   0  0  0  0  0  0  0  0  0  0  0  0
    1.5287    3.8164    2.3601 H   0  0  0  0  0  0  0  0  0  0  0  0
    1.0073    5.7249    3.6652 H   0  0  0  0  0  0  0  0  0  0  0  0
    1.0909    1.8458    0.0956 H   0  0  0  0  0  0  0  0  0  0  0  0
    1.5330    0.4299    1.0871 H   0  0  0  0  0  0  0  0  0  0  0  0
    1.8358    0.3729   -0.6320 H   0  0  0  0  0  0  0  0  0  0  0  0
  1  2  2  0
  1 24  1  0
  1 25  1  0
  2  3  1  0
  2 26  1  0
  3  4  2  0
  3  9  1  0
  4  5  1  0
  4  6  1  0
  5 27  1  0
  5 28  1  0
  5 29  1  0
  6  7  2  0
  6  8  1  0
  7 30  1  0
  7 31  1  0
  8  9  2  0
  9 10  1  0
 10 11  2  0
 10 32  1  0
 11 12  1  0
 11 22  1  0
 12 13  1  0
 12 14  1  0
 14 15  2  0
 14 16  1  0
 15 33  1  0
 15 34  1  0
 16 17  1  0
 16 22  2  0
 17 18  1  0
 17 35  1  0
 17 36  1  0
 18 19  1  0
 18 37  1  0
 18 38  1  0
 19 20  2  0
 19 21  1  0
 21 39  1  0
 22 23  1  0
 23 40  1  0
 23 41  1  0
 23 42  1  0
M  END

