
     RDKit          3D

 28 29  0  0  0  0  0  0  0  0999 V2000
    0.7631    0.0035    0.1945 C   0  0  0  0  0  0  0  0  0  0  0  0
    2.2818    0.1491    0.0189 C   0  0  1  0  0  0  0  0  0  0  0  0
    2.6977    1.1163   -1.0921 C   0  0  0  0  0  0  0  0  0  0  0  0
    2.2320    2.4315   -1.2042 C   0  0  0  0  0  0  0  0  0  0  0  0
    1.3842    2.9298   -0.2821 F   0  0  0  0  0  0  0  0  0  0  0  0
    2.6182    3.2854   -2.2377 C   0  0  0  0  0  0  0  0  0  0  0  0
    2.1537    4.5263   -2.2983 F   0  0  0  0  0  0  0  0  0  0  0  0
    3.5025    2.8181   -3.2139 C   0  0  0  0  0  0  0  0  0  0  0  0
    3.8790    3.6130   -4.2035 F   0  0  0  0  0  0  0  0  0  0  0  0
    3.9875    1.5104   -3.1401 C   0  0  0  0  0  0  0  0  0  0  0  0
    4.8230    1.0611   -4.0670 F   0  0  0  0  0  0  0  0  0  0  0  0
    3.5841    0.6822   -2.0887 C   0  0  0  0  0  0  0  0  0  0  0  0
    4.0609   -0.5605   -2.0630 F   0  0  0  0  0  0  0  0  0  0  0  0
    2.9773    0.4229    1.2813 N   0  0  0  0  0  0  0  0  0  0  0  0
    2.6452    1.5851    1.9848 N   0  0  0  0  0  0  0  0  0  0  0  0
    2.1103    2.2770    1.4653 H   0  0  0  0  0  0  0  0  0  0  0  0
    3.1329    1.9606    3.2090 C   0  0  0  0  0  0  0  0  0  0  0  0
    2.8638    3.0231    3.7212 O   0  0  0  0  0  0  0  0  0  0  0  0
    4.0399    0.9233    3.8798 C   0  0  0  0  0  0  0  0  0  0  0  0
    4.5200    1.0874    4.9709 O   0  0  0  0  0  0  0  0  0  0  0  0
    4.2673   -0.2148    3.1170 N   0  0  0  0  0  0  0  0  0  0  0  0
    4.8638   -0.9274    3.5341 H   0  0  0  0  0  0  0  0  0  0  0  0
    3.7669   -0.5489    1.8567 C   0  0  0  0  0  0  0  0  0  0  0  0
    4.0188   -1.6121    1.3257 O   0  0  0  0  0  0  0  0  0  0  0  0
    0.3069   -0.2813   -0.7654 H   0  0  0  0  0  0  0  0  0  0  0  0
    0.2788    0.9274    0.5380 H   0  0  0  0  0  0  0  0  0  0  0  0
    0.5533   -0.7942    0.9224 H   0  0  0  0  0  0  0  0  0  0  0  0
    2.6884   -0.8306   -0.2588 H   0  0  0  0  0  0  0  0  0  0  0  0
  1  2  1  0
  1 25  1  0
  1 26  1  0
  1 27  1  0
  2  3  1  0
  2 14  1  0
  2 28  1  6
  3  4  2  0
  3 12  1  0
  4  5  1  0
  4  6  1  0
  6  7  1  0
  6  8  2  0
  8  9  1  0
  8 10  1  0
 10 11  1  0
 10 12  2  0
 12 13  1  0
 14 15  1  0
 14 23  1  0
 15 16  1  0
 15 17  1  0
 17 18  2  0
 17 19  1  0
 19 20  2  0
 19 21  1  0
 21 22  1  0
 21 23  1  0
 23 24  2  0
M  END

