
     RDKit          3D

 44 45  0  0  0  0  0  0  0  0999 V2000
    2.4090   -0.9148   -2.5999 C   0  0  0  0  0  0  0  0  0  0  0  0
    3.1421   -0.3328   -1.4147 C   0  0  0  0  0  0  0  0  0  0  0  0
    3.7444    0.9290   -1.5401 C   0  0  0  0  0  0  0  0  0  0  0  0
    4.4303    1.5244   -0.4799 C   0  0  0  0  0  0  0  0  0  0  0  0
    4.5301    0.8459    0.7344 C   0  0  0  0  0  0  0  0  0  0  0  0
    3.9436   -0.4146    0.8719 C   0  0  0  0  0  0  0  0  0  0  0  0
    3.2390   -1.0213   -0.1787 C   0  0  0  0  0  0  0  0  0  0  0  0
    2.5393   -2.3787   -0.0120 C   0  0  1  0  0  0  0  0  0  0  0  0
    3.1179   -3.2627    1.1329 C   0  0  1  0  0  0  0  0  0  0  0  0
    2.3642   -4.5919    1.2852 C   0  0  0  0  0  0  0  0  0  0  0  0
    4.5524   -3.4376    0.9051 N   0  0  0  0  0  0  0  0  0  0  0  0
    1.0854   -2.2008   -0.0078 N   0  0  0  0  0  0  0  0  0  0  0  0
    0.2390   -3.1614   -0.6714 C   0  0  0  0  0  0  0  0  0  0  0  0
    0.4418   -1.2722    0.9043 C   0  0  0  0  0  0  0  0  0  0  0  0
   -0.0074   -1.8231    2.2566 C   0  0  0  0  0  0  0  0  0  0  0  0
    0.7431   -1.5916    3.4197 C   0  0  0  0  0  0  0  0  0  0  0  0
    0.3507   -2.1045    4.6592 C   0  0  0  0  0  0  0  0  0  0  0  0
   -0.8180   -2.8652    4.7422 C   0  0  0  0  0  0  0  0  0  0  0  0
   -1.3655   -3.5767    6.4272 Br  0  0  0  0  0  0  0  0  0  0  0  0
   -1.5967   -3.1006    3.6063 C   0  0  0  0  0  0  0  0  0  0  0  0
   -1.1884   -2.5736    2.3780 C   0  0  0  0  0  0  0  0  0  0  0  0
    2.5053   -0.2642   -3.4812 H   0  0  0  0  0  0  0  0  0  0  0  0
    1.3382   -1.0478   -2.3822 H   0  0  0  0  0  0  0  0  0  0  0  0
    2.7997   -1.9087   -2.8776 H   0  0  0  0  0  0  0  0  0  0  0  0
    3.6714    1.4544   -2.4968 H   0  0  0  0  0  0  0  0  0  0  0  0
    4.8879    2.5091   -0.6065 H   0  0  0  0  0  0  0  0  0  0  0  0
    5.0712    1.2890    1.5745 H   0  0  0  0  0  0  0  0  0  0  0  0
    4.0611   -0.9443    1.8170 H   0  0  0  0  0  0  0  0  0  0  0  0
    2.7467   -2.9505   -0.9361 H   0  0  0  0  0  0  0  0  0  0  0  0
    3.0059   -2.7160    2.0847 H   0  0  0  0  0  0  0  0  0  0  0  0
    2.3756   -5.1667    0.3428 H   0  0  0  0  0  0  0  0  0  0  0  0
    1.3176   -4.4516    1.5912 H   0  0  0  0  0  0  0  0  0  0  0  0
    2.8532   -5.2094    2.0567 H   0  0  0  0  0  0  0  0  0  0  0  0
    4.7110   -3.9475    0.0336 H   0  0  0  0  0  0  0  0  0  0  0  0
    4.9626   -4.0080    1.6449 H   0  0  0  0  0  0  0  0  0  0  0  0
    0.7766   -3.6114   -1.5216 H   0  0  0  0  0  0  0  0  0  0  0  0
   -0.6589   -2.6572   -1.0772 H   0  0  0  0  0  0  0  0  0  0  0  0
   -0.1211   -3.9988   -0.0381 H   0  0  0  0  0  0  0  0  0  0  0  0
   -0.4485   -0.8588    0.3927 H   0  0  0  0  0  0  0  0  0  0  0  0
    1.1239   -0.4262    1.0763 H   0  0  0  0  0  0  0  0  0  0  0  0
    1.6522   -0.9863    3.3614 H   0  0  0  0  0  0  0  0  0  0  0  0
    0.9445   -1.9101    5.5540 H   0  0  0  0  0  0  0  0  0  0  0  0
   -2.5173   -3.6818    3.6827 H   0  0  0  0  0  0  0  0  0  0  0  0
   -1.8158   -2.7421    1.4984 H   0  0  0  0  0  0  0  0  0  0  0  0
  1  2  1  0
  1 22  1  0
  1 23  1  0
  1 24  1  0
  2  3  2  0
  2  7  1  0
  3  4  1  0
  3 25  1  0
  4  5  2  0
  4 26  1  0
  5  6  1  0
  5 27  1  0
  6  7  2  0
  6 28  1  0
  7  8  1  0
  8  9  1  0
  8 12  1  0
  8 29  1  6
  9 10  1  0
  9 11  1  0
  9 30  1  1
 10 31  1  0
 10 32  1  0
 10 33  1  0
 11 34  1  0
 11 35  1  0
 12 13  1  0
 12 14  1  0
 13 36  1  0
 13 37  1  0
 13 38  1  0
 14 15  1  0
 14 39  1  0
 14 40  1  0
 15 16  2  0
 15 21  1  0
 16 17  1  0
 16 41  1  0
 17 18  2  0
 17 42  1  0
 18 19  1  0
 18 20  1  0
 20 21  2  0
 20 43  1  0
 21 44  1  0
M  END

