
     RDKit          3D

 42 43  0  0  0  0  0  0  0  0999 V2000
    1.6117    0.4418    0.4196 C   0  0  0  0  0  0  0  0  0  0  0  0
    2.7785    0.0397   -0.4823 C   0  0  0  0  0  0  0  0  0  0  0  0
    3.9875   -0.4692    0.3167 C   0  0  0  0  0  0  0  0  0  0  0  0
    5.1363   -0.8458   -0.4943 N   0  0  0  0  0  0  0  0  0  0  0  0
    6.0941    0.1898   -0.8493 C   0  0  0  0  0  0  0  0  0  0  0  0
    5.2778   -2.1006   -0.9965 C   0  0  0  0  0  0  0  0  0  0  0  0
    6.2685   -2.4759   -1.7649 N   0  0  0  0  0  0  0  0  0  0  0  0
    6.1725   -3.7947   -2.1128 C   0  0  0  0  0  0  0  0  0  0  0  0
    7.1146   -4.3172   -2.9203 N   0  0  0  0  0  0  0  0  0  0  0  0
    5.0774   -4.5140   -1.5865 C   0  0  0  0  0  0  0  0  0  0  0  0
    4.8268   -5.9037   -1.9422 C   0  0  0  0  0  0  0  0  0  0  0  0
    5.5512   -6.4534   -2.7884 O   0  0  0  0  0  0  0  0  0  0  0  0
    3.7866   -6.6524   -1.3913 N   0  0  0  0  0  0  0  0  0  0  0  0
    3.1838   -6.4085   -0.0906 C   0  0  0  0  0  0  0  0  0  0  0  0
    3.9774   -7.0094    1.0753 C   0  0  0  0  0  0  0  0  0  0  0  0
    4.1169   -8.5331    1.0133 C   0  0  0  0  0  0  0  0  0  0  0  0
    4.9480   -9.0473   -0.0699 N   0  0  0  0  0  0  0  0  0  0  0  0
    4.6602   -9.0479   -1.4174 C   0  0  0  0  0  0  0  0  0  0  0  0
    5.1729   -9.8478   -2.1754 O   0  0  0  0  0  0  0  0  0  0  0  0
    3.6475   -8.0041   -1.9179 C   0  0  0  0  0  0  0  0  0  0  0  0
    4.1028   -3.3679   -0.6307 S   0  0  0  0  0  0  0  0  0  0  0  0
    0.7559    0.8017   -0.1719 H   0  0  0  0  0  0  0  0  0  0  0  0
    1.8971    1.2486    1.1157 H   0  0  0  0  0  0  0  0  0  0  0  0
    1.2606   -0.4096    1.0264 H   0  0  0  0  0  0  0  0  0  0  0  0
    3.0894    0.8995   -1.1007 H   0  0  0  0  0  0  0  0  0  0  0  0
    2.4608   -0.7503   -1.1831 H   0  0  0  0  0  0  0  0  0  0  0  0
    3.6923   -1.3347    0.9351 H   0  0  0  0  0  0  0  0  0  0  0  0
    4.3218    0.3093    1.0241 H   0  0  0  0  0  0  0  0  0  0  0  0
    5.6196    0.9885   -1.4464 H   0  0  0  0  0  0  0  0  0  0  0  0
    6.8993   -0.2609   -1.4399 H   0  0  0  0  0  0  0  0  0  0  0  0
    6.5206    0.6454    0.0609 H   0  0  0  0  0  0  0  0  0  0  0  0
    7.8278   -3.7069   -3.2926 H   0  0  0  0  0  0  0  0  0  0  0  0
    6.9516   -5.2705   -3.2437 H   0  0  0  0  0  0  0  0  0  0  0  0
    2.1657   -6.8369   -0.1048 H   0  0  0  0  0  0  0  0  0  0  0  0
    3.0472   -5.3336    0.0761 H   0  0  0  0  0  0  0  0  0  0  0  0
    3.4651   -6.7510    2.0189 H   0  0  0  0  0  0  0  0  0  0  0  0
    4.9792   -6.5496    1.1115 H   0  0  0  0  0  0  0  0  0  0  0  0
    3.1051   -8.9875    0.9885 H   0  0  0  0  0  0  0  0  0  0  0  0
    4.5800   -8.8796    1.9492 H   0  0  0  0  0  0  0  0  0  0  0  0
    5.5927   -9.7940    0.1728 H   0  0  0  0  0  0  0  0  0  0  0  0
    2.6317   -8.3613   -1.6736 H   0  0  0  0  0  0  0  0  0  0  0  0
    3.7616   -7.9953   -3.0071 H   0  0  0  0  0  0  0  0  0  0  0  0
  1  2  1  0
  1 22  1  0
  1 23  1  0
  1 24  1  0
  2  3  1  0
  2 25  1  0
  2 26  1  0
  3  4  1  0
  3 27  1  0
  3 28  1  0
  4  5  1  0
  4  6  1  0
  5 29  1  0
  5 30  1  0
  5 31  1  0
  6  7  2  0
  6 21  1  0
  7  8  1  0
  8  9  1  0
  8 10  2  0
  9 32  1  0
  9 33  1  0
 10 11  1  0
 10 21  1  0
 11 12  2  0
 11 13  1  0
 13 14  1  0
 13 20  1  0
 14 15  1  0
 14 34  1  0
 14 35  1  0
 15 16  1  0
 15 36  1  0
 15 37  1  0
 16 17  1  0
 16 38  1  0
 16 39  1  0
 17 18  1  0
 17 40  1  0
 18 19  2  0
 18 20  1  0
 20 41  1  0
 20 42  1  0
M  END

