
     RDKit          3D

116126  0  0  0  0  0  0  0  0999 V2000
    3.8045   13.0977   11.9502 C   0  0  0  0  0  0  0  0  0  0  0  0
    4.7384   12.5867   11.0268 O   0  0  0  0  0  0  0  0  0  0  0  0
    4.6835   11.2792   10.6623 C   0  0  0  0  0  0  0  0  0  0  0  0
    3.7152   10.3639   11.1616 C   0  0  0  0  0  0  0  0  0  0  0  0
    3.7260    9.0487   10.7409 C   0  0  0  0  0  0  0  0  0  0  0  0
    4.6879    8.5736    9.8120 C   0  0  0  0  0  0  0  0  0  0  0  0
    4.7185    7.2229    9.3656 C   0  0  0  0  0  0  0  0  0  0  0  0
    5.6604    6.7766    8.4578 C   0  0  0  0  0  0  0  0  0  0  0  0
    5.6542    5.3229    7.9912 C   0  0  1  0  0  0  0  0  0  0  0  0
    5.4770    5.1770    6.4704 C   0  0  0  0  0  0  0  0  0  0  0  0
    6.8891    4.5961    8.5192 C   0  0  0  0  0  0  0  0  0  0  0  0
    6.9127    3.8934    9.4917 O   0  0  0  0  0  0  0  0  0  0  0  0
    7.9860    4.8569    7.7444 O   0  0  0  0  0  0  0  0  0  0  0  0
    9.2397    4.3507    8.0662 C   0  0  0  0  0  0  0  0  0  0  0  0
    9.9617    3.7511    7.0331 C   0  0  0  0  0  0  0  0  0  0  0  0
   11.2549    3.2840    7.2745 C   0  0  0  0  0  0  0  0  0  0  0  0
   11.8439    3.4072    8.5444 C   0  0  0  0  0  0  0  0  0  0  0  0
   13.2315    2.9032    8.8044 C   0  0  0  0  0  0  0  0  0  0  0  0
   14.2530    3.8510    9.0522 C   0  0  0  0  0  0  0  0  0  0  0  0
   15.5483    3.5780    9.3767 N   0  0  0  0  0  0  0  0  0  0  0  0
   16.1557    4.7875    9.5394 C   0  0  0  0  0  0  0  0  0  0  0  0
   17.5072    5.0077    9.8983 C   0  0  0  0  0  0  0  0  0  0  0  0
   17.9635    6.4185   10.1155 C   0  0  0  0  0  0  0  0  0  0  0  0
   18.8850    7.0273    9.2480 C   0  0  0  0  0  0  0  0  0  0  0  0
   19.3086    8.3427    9.4558 C   0  0  0  0  0  0  0  0  0  0  0  0
   18.8315    9.0993   10.5363 C   0  0  0  0  0  0  0  0  0  0  0  0
   19.2682   10.5280   10.7512 C   0  0  0  0  0  0  0  0  0  0  0  0
   17.9135    8.4870   11.4056 C   0  0  0  0  0  0  0  0  0  0  0  0
   17.4853    7.1750   11.2003 C   0  0  0  0  0  0  0  0  0  0  0  0
   18.4720    3.9968   10.0765 C   0  0  0  0  0  0  0  0  0  0  0  0
   19.8324    4.1725   10.5041 C   0  0  0  0  0  0  0  0  0  0  0  0
   20.4281    2.9367   10.5451 C   0  0  0  0  0  0  0  0  0  0  0  0
   19.4540    1.9594   10.1445 C   0  0  0  0  0  0  0  0  0  0  0  0
   18.2937    2.6479    9.8825 N   0  0  0  0  0  0  0  0  0  0  0  0
   17.4108    2.2141    9.6191 H   0  0  0  0  0  0  0  0  0  0  0  0
   19.6482    0.5676   10.0474 C   0  0  0  0  0  0  0  0  0  0  0  0
   21.0312    0.0620   10.3266 C   0  0  0  0  0  0  0  0  0  0  0  0
   21.3018   -0.7161   11.4636 C   0  0  0  0  0  0  0  0  0  0  0  0
   22.5926   -1.1840   11.7246 C   0  0  0  0  0  0  0  0  0  0  0  0
   23.6598   -0.8976   10.8609 C   0  0  0  0  0  0  0  0  0  0  0  0
   25.0526   -1.4144   11.1282 C   0  0  0  0  0  0  0  0  0  0  0  0
   23.3872   -0.1187    9.7239 C   0  0  0  0  0  0  0  0  0  0  0  0
   22.1008    0.3535    9.4611 C   0  0  0  0  0  0  0  0  0  0  0  0
   18.6445   -0.3735    9.7148 C   0  0  0  0  0  0  0  0  0  0  0  0
   17.3239   -0.1085    9.5046 N   0  0  0  0  0  0  0  0  0  0  0  0
   16.7406   -1.3100    9.2319 C   0  0  0  0  0  0  0  0  0  0  0  0
   15.3694   -1.5365    8.9616 C   0  0  0  0  0  0  0  0  0  0  0  0
   14.9062   -2.9492    8.7728 C   0  0  0  0  0  0  0  0  0  0  0  0
   14.9096   -3.8612    9.8410 C   0  0  0  0  0  0  0  0  0  0  0  0
   14.4779   -5.1781    9.6637 C   0  0  0  0  0  0  0  0  0  0  0  0
   14.0279   -5.6358    8.4163 C   0  0  0  0  0  0  0  0  0  0  0  0
   13.5380   -7.0509    8.2272 C   0  0  0  0  0  0  0  0  0  0  0  0
   14.0291   -4.7236    7.3484 C   0  0  0  0  0  0  0  0  0  0  0  0
   14.4562   -3.4062    7.5215 C   0  0  0  0  0  0  0  0  0  0  0  0
   14.3886   -0.5313    8.8570 C   0  0  0  0  0  0  0  0  0  0  0  0
   12.9799   -0.7227    8.6476 C   0  0  0  0  0  0  0  0  0  0  0  0
   12.3848    0.5132    8.6031 C   0  0  0  0  0  0  0  0  0  0  0  0
   13.4076    1.5062    8.7844 C   0  0  0  0  0  0  0  0  0  0  0  0
   14.5911    0.8256    8.9414 N   0  0  0  0  0  0  0  0  0  0  0  0
   15.4897    1.2646    9.1333 H   0  0  0  0  0  0  0  0  0  0  0  0
   17.7343   -2.3833    9.2403 C   0  0  0  0  0  0  0  0  0  0  0  0
   18.9217   -1.7994    9.5414 C   0  0  0  0  0  0  0  0  0  0  0  0
   15.2164    5.8788    9.2814 C   0  0  0  0  0  0  0  0  0  0  0  0
   14.0297    5.2948    8.9777 C   0  0  0  0  0  0  0  0  0  0  0  0
   11.0940    4.0168    9.5657 C   0  0  0  0  0  0  0  0  0  0  0  0
    9.8001    4.4890    9.3385 C   0  0  0  0  0  0  0  0  0  0  0  0
    6.6289    7.7041    7.9681 C   0  0  0  0  0  0  0  0  0  0  0  0
    6.6295    9.0174    8.3799 C   0  0  0  0  0  0  0  0  0  0  0  0
    5.6633    9.5000    9.3110 C   0  0  0  0  0  0  0  0  0  0  0  0
    5.6370   10.8441    9.7528 C   0  0  0  0  0  0  0  0  0  0  0  0
    4.0494   14.1599   12.0853 H   0  0  0  0  0  0  0  0  0  0  0  0
    3.8703   12.5915   12.9304 H   0  0  0  0  0  0  0  0  0  0  0  0
    2.7668   13.0181   11.5783 H   0  0  0  0  0  0  0  0  0  0  0  0
    2.9604   10.6905   11.8772 H   0  0  0  0  0  0  0  0  0  0  0  0
    2.9784    8.3523   11.1308 H   0  0  0  0  0  0  0  0  0  0  0  0
    3.9699    6.5286    9.7590 H   0  0  0  0  0  0  0  0  0  0  0  0
    4.8199    4.8185    8.4991 H   0  0  0  0  0  0  0  0  0  0  0  0
    6.2921    5.6650    5.9180 H   0  0  0  0  0  0  0  0  0  0  0  0
    4.5269    5.6382    6.1609 H   0  0  0  0  0  0  0  0  0  0  0  0
    5.4558    4.1158    6.1751 H   0  0  0  0  0  0  0  0  0  0  0  0
    9.5048    3.6643    6.0453 H   0  0  0  0  0  0  0  0  0  0  0  0
   11.8215    2.8232    6.4621 H   0  0  0  0  0  0  0  0  0  0  0  0
   19.2687    6.4641    8.3937 H   0  0  0  0  0  0  0  0  0  0  0  0
   20.0238    8.7906    8.7596 H   0  0  0  0  0  0  0  0  0  0  0  0
   20.1718   10.7675   10.1710 H   0  0  0  0  0  0  0  0  0  0  0  0
   19.4814   10.7295   11.8132 H   0  0  0  0  0  0  0  0  0  0  0  0
   18.4797   11.2362   10.4416 H   0  0  0  0  0  0  0  0  0  0  0  0
   17.5292    9.0467   12.2637 H   0  0  0  0  0  0  0  0  0  0  0  0
   16.7749    6.7211   11.8955 H   0  0  0  0  0  0  0  0  0  0  0  0
   20.2810    5.1285   10.7585 H   0  0  0  0  0  0  0  0  0  0  0  0
   21.4483    2.7068   10.8388 H   0  0  0  0  0  0  0  0  0  0  0  0
   20.4902   -0.9504   12.1567 H   0  0  0  0  0  0  0  0  0  0  0  0
   22.7732   -1.7821   12.6225 H   0  0  0  0  0  0  0  0  0  0  0  0
   25.1293   -1.8762   12.1236 H   0  0  0  0  0  0  0  0  0  0  0  0
   25.8002   -0.6064   11.0705 H   0  0  0  0  0  0  0  0  0  0  0  0
   25.3454   -2.1754   10.3844 H   0  0  0  0  0  0  0  0  0  0  0  0
   24.1972    0.1202    9.0281 H   0  0  0  0  0  0  0  0  0  0  0  0
   21.9157    0.9515    8.5653 H   0  0  0  0  0  0  0  0  0  0  0  0
   15.2521   -3.5309   10.8246 H   0  0  0  0  0  0  0  0  0  0  0  0
   14.4900   -5.8640   10.5159 H   0  0  0  0  0  0  0  0  0  0  0  0
   13.8716   -7.7079    9.0443 H   0  0  0  0  0  0  0  0  0  0  0  0
   13.8963   -7.4787    7.2773 H   0  0  0  0  0  0  0  0  0  0  0  0
   12.4348   -7.0903    8.2022 H   0  0  0  0  0  0  0  0  0  0  0  0
   13.6947   -5.0519    6.3596 H   0  0  0  0  0  0  0  0  0  0  0  0
   14.4553   -2.7203    6.6708 H   0  0  0  0  0  0  0  0  0  0  0  0
   12.4949   -1.6905    8.5583 H   0  0  0  0  0  0  0  0  0  0  0  0
   11.3284    0.7304    8.4725 H   0  0  0  0  0  0  0  0  0  0  0  0
   17.5429   -3.4313    9.0250 H   0  0  0  0  0  0  0  0  0  0  0  0
   19.8962   -2.2740    9.6216 H   0  0  0  0  0  0  0  0  0  0  0  0
   15.4477    6.9404    9.3121 H   0  0  0  0  0  0  0  0  0  0  0  0
   13.0965    5.7839    8.7107 H   0  0  0  0  0  0  0  0  0  0  0  0
   11.5322    4.1185   10.5611 H   0  0  0  0  0  0  0  0  0  0  0  0
    9.2302    4.9507   10.1444 H   0  0  0  0  0  0  0  0  0  0  0  0
    7.3879    7.3611    7.2621 H   0  0  0  0  0  0  0  0  0  0  0  0
    7.3810    9.7116    7.9940 H   0  0  0  0  0  0  0  0  0  0  0  0
    6.3718   11.5621    9.3822 H   0  0  0  0  0  0  0  0  0  0  0  0
  1  2  1  0
  1 71  1  0
  1 72  1  0
  1 73  1  0
  2  3  1  0
  3  4  2  0
  3 70  1  0
  4  5  1  0
  4 74  1  0
  5  6  2  0
  5 75  1  0
  6  7  1  0
  6 69  1  0
  7  8  2  0
  7 76  1  0
  8  9  1  0
  8 67  1  0
  9 10  1  0
  9 11  1  0
  9 77  1  1
 10 78  1  0
 10 79  1  0
 10 80  1  0
 11 12  2  0
 11 13  1  0
 13 14  1  0
 14 15  2  0
 14 66  1  0
 15 16  1  0
 15 81  1  0
 16 17  2  0
 16 82  1  0
 17 18  1  0
 17 65  1  0
 18 19  1  0
 18 58  2  0
 19 20  2  0
 19 64  1  0
 20 21  1  0
 21 22  2  0
 21 63  1  0
 22 23  1  0
 22 30  1  0
 23 24  2  0
 23 29  1  0
 24 25  1  0
 24 83  1  0
 25 26  2  0
 25 84  1  0
 26 27  1  0
 26 28  1  0
 27 85  1  0
 27 86  1  0
 27 87  1  0
 28 29  2  0
 28 88  1  0
 29 89  1  0
 30 31  2  0
 30 34  1  0
 31 32  1  0
 31 90  1  0
 32 33  2  0
 32 91  1  0
 33 34  1  0
 33 36  1  0
 34 35  1  0
 36 37  1  0
 36 44  2  0
 37 38  2  0
 37 43  1  0
 38 39  1  0
 38 92  1  0
 39 40  2  0
 39 93  1  0
 40 41  1  0
 40 42  1  0
 41 94  1  0
 41 95  1  0
 41 96  1  0
 42 43  2  0
 42 97  1  0
 43 98  1  0
 44 45  1  0
 44 62  1  0
 45 46  2  0
 46 47  1  0
 46 61  1  0
 47 48  1  0
 47 55  2  0
 48 49  2  0
 48 54  1  0
 49 50  1  0
 49 99  1  0
 50 51  2  0
 50100  1  0
 51 52  1  0
 51 53  1  0
 52101  1  0
 52102  1  0
 52103  1  0
 53 54  2  0
 53104  1  0
 54105  1  0
 55 56  1  0
 55 59  1  0
 56 57  2  0
 56106  1  0
 57 58  1  0
 57107  1  0
 58 59  1  0
 59 60  1  0
 61 62  2  0
 61108  1  0
 62109  1  0
 63 64  2  0
 63110  1  0
 64111  1  0
 65 66  2  0
 65112  1  0
 66113  1  0
 67 68  2  0
 67114  1  0
 68 69  1  0
 68115  1  0
 69 70  2  0
 70116  1  0
M  END

