
     RDKit          3D

 38 40  0  0  0  0  0  0  0  0999 V2000
    4.7641    4.4523    0.7539 C   0  0  0  0  0  0  0  0  0  0  0  0
    5.1822    3.9363   -0.4895 O   0  0  0  0  0  0  0  0  0  0  0  0
    4.6027    2.8057   -0.9685 C   0  0  0  0  0  0  0  0  0  0  0  0
    3.5947    2.0875   -0.3117 C   0  0  0  0  0  0  0  0  0  0  0  0
    3.0838    0.9296   -0.9143 C   0  0  0  0  0  0  0  0  0  0  0  0
    3.5549    0.4839   -2.1437 C   0  0  0  0  0  0  0  0  0  0  0  0
    4.5679    1.2030   -2.8126 C   0  0  0  0  0  0  0  0  0  0  0  0
    5.0760    0.7296   -4.1285 C   0  0  0  0  0  0  0  0  0  0  0  0
    5.9082    1.5412   -4.9787 C   0  0  0  0  0  0  0  0  0  0  0  0
    6.3371    1.0505   -6.1711 C   0  0  0  0  0  0  0  0  0  0  0  0
    5.9556   -0.2810   -6.6142 C   0  0  0  0  0  0  0  0  0  0  0  0
    6.2630   -0.8015   -7.6784 O   0  0  0  0  0  0  0  0  0  0  0  0
    5.1555   -0.9619   -5.6707 N   0  0  0  0  0  0  0  0  0  0  0  0
    4.7027   -2.3259   -5.9973 C   0  0  0  0  0  0  0  0  0  0  0  0
    3.3557   -2.3553   -6.6926 C   0  0  0  0  0  0  0  0  0  0  0  0
    3.2591   -2.1349   -8.0761 C   0  0  0  0  0  0  0  0  0  0  0  0
    2.0109   -2.1484   -8.7020 C   0  0  0  0  0  0  0  0  0  0  0  0
    0.8443   -2.3802   -7.9663 C   0  0  0  0  0  0  0  0  0  0  0  0
    0.9486   -2.5969   -6.5907 C   0  0  0  0  0  0  0  0  0  0  0  0
   -0.6312   -2.9198   -5.5665 Br  0  0  0  0  0  0  0  0  0  0  0  0
    2.1894   -2.5853   -5.9489 C   0  0  0  0  0  0  0  0  0  0  0  0
    4.7337   -0.4807   -4.5058 N   0  0  0  0  0  0  0  0  0  0  0  0
    5.0805    2.3591   -2.2124 C   0  0  0  0  0  0  0  0  0  0  0  0
    5.3628    5.3550    0.9356 H   0  0  0  0  0  0  0  0  0  0  0  0
    4.9394    3.7360    1.5771 H   0  0  0  0  0  0  0  0  0  0  0  0
    3.6942    4.7288    0.7465 H   0  0  0  0  0  0  0  0  0  0  0  0
    3.2042    2.4126    0.6525 H   0  0  0  0  0  0  0  0  0  0  0  0
    2.2951    0.3705   -0.4041 H   0  0  0  0  0  0  0  0  0  0  0  0
    3.1483   -0.4152   -2.6054 H   0  0  0  0  0  0  0  0  0  0  0  0
    6.1822    2.5513   -4.6719 H   0  0  0  0  0  0  0  0  0  0  0  0
    6.9628    1.6274   -6.8543 H   0  0  0  0  0  0  0  0  0  0  0  0
    4.6612   -2.8718   -5.0467 H   0  0  0  0  0  0  0  0  0  0  0  0
    5.4742   -2.7630   -6.6430 H   0  0  0  0  0  0  0  0  0  0  0  0
    4.1687   -1.9432   -8.6490 H   0  0  0  0  0  0  0  0  0  0  0  0
    1.9398   -1.9787   -9.7794 H   0  0  0  0  0  0  0  0  0  0  0  0
   -0.1319   -2.3945   -8.4537 H   0  0  0  0  0  0  0  0  0  0  0  0
    2.2488   -2.7579   -4.8728 H   0  0  0  0  0  0  0  0  0  0  0  0
    5.8745    2.9496   -2.6702 H   0  0  0  0  0  0  0  0  0  0  0  0
  1  2  1  0
  1 24  1  0
  1 25  1  0
  1 26  1  0
  2  3  1  0
  3  4  2  0
  3 23  1  0
  4  5  1  0
  4 27  1  0
  5  6  2  0
  5 28  1  0
  6  7  1  0
  6 29  1  0
  7  8  1  0
  7 23  2  0
  8  9  1  0
  8 22  2  0
  9 10  2  0
  9 30  1  0
 10 11  1  0
 10 31  1  0
 11 12  2  0
 11 13  1  0
 13 14  1  0
 13 22  1  0
 14 15  1  0
 14 32  1  0
 14 33  1  0
 15 16  2  0
 15 21  1  0
 16 17  1  0
 16 34  1  0
 17 18  2  0
 17 35  1  0
 18 19  1  0
 18 36  1  0
 19 20  1  0
 19 21  2  0
 21 37  1  0
 23 38  1  0
M  END

