
     RDKit          3D

 29 32  0  0  0  0  0  0  0  0999 V2000
    0.9377   -0.3157   -0.0498 F   0  0  0  0  0  0  0  0  0  0  0  0
    2.3140   -0.2882   -0.0811 B   0  0  2  0  0  0  0  0  0  0  0  0
    2.8177   -0.3043   -1.3625 F   0  0  0  0  0  0  0  0  0  0  0  0
    2.8623   -1.3855    0.6951 O   0  0  0  0  0  0  0  0  0  0  0  0
    3.6136   -1.3024    1.7697 C   0  0  0  0  0  0  0  0  0  0  0  0
    4.0461   -2.5014    2.3788 C   0  0  0  0  0  0  0  0  0  0  0  0
    4.8393   -2.4659    3.5126 C   0  0  0  0  0  0  0  0  0  0  0  0
    5.2287   -1.2349    4.0782 C   0  0  0  0  0  0  0  0  0  0  0  0
    4.8120   -0.0532    3.4918 C   0  0  0  0  0  0  0  0  0  0  0  0
    3.9981   -0.0505    2.3289 C   0  0  0  0  0  0  0  0  0  0  0  0
    3.5453    1.1740    1.6916 C   0  0  0  0  0  0  0  0  0  0  0  0
    3.9042    2.4697    2.2134 C   0  0  0  0  0  0  0  0  0  0  0  0
    3.5285    3.5954    1.6843 N   0  0  0  0  0  0  0  0  0  0  0  0
    2.7471    3.5530    0.5672 C   0  0  0  0  0  0  0  0  0  0  0  0
    2.3300    4.7727   -0.0212 C   0  0  0  0  0  0  0  0  0  0  0  0
    1.5400    4.7608   -1.1511 C   0  0  0  0  0  0  0  0  0  0  0  0
    1.1487    3.5255   -1.7193 C   0  0  0  0  0  0  0  0  0  0  0  0
    1.5385    2.3181   -1.1701 C   0  0  0  0  0  0  0  0  0  0  0  0
    2.3507    2.3078   -0.0081 C   0  0  0  0  0  0  0  0  0  0  0  0
    2.7753    1.1304    0.5910 N   0  0  0  0  0  0  0  0  0  0  0  0
    3.7309   -3.4406    1.9212 H   0  0  0  0  0  0  0  0  0  0  0  0
    5.1657   -3.4027    3.9719 H   0  0  0  0  0  0  0  0  0  0  0  0
    5.8543   -1.2111    4.9724 H   0  0  0  0  0  0  0  0  0  0  0  0
    5.1230    0.8889    3.9433 H   0  0  0  0  0  0  0  0  0  0  0  0
    4.5297    2.5256    3.1067 H   0  0  0  0  0  0  0  0  0  0  0  0
    2.6601    5.6967    0.4571 H   0  0  0  0  0  0  0  0  0  0  0  0
    1.2151    5.6975   -1.6094 H   0  0  0  0  0  0  0  0  0  0  0  0
    0.5227    3.5206   -2.6149 H   0  0  0  0  0  0  0  0  0  0  0  0
    1.2273    1.3803   -1.6212 H   0  0  0  0  0  0  0  0  0  0  0  0
  2  1  1  6
  2  3  1  0
  2  4  1  0
  2 20  1  0
  4  5  1  0
  5  6  1  0
  5 10  2  0
  6  7  2  0
  6 21  1  0
  7  8  1  0
  7 22  1  0
  8  9  2  0
  8 23  1  0
  9 10  1  0
  9 24  1  0
 10 11  1  0
 11 12  1  0
 11 20  2  0
 12 13  2  0
 12 25  1  0
 13 14  1  0
 14 15  1  0
 14 19  2  0
 15 16  2  0
 15 26  1  0
 16 17  1  0
 16 27  1  0
 17 18  2  0
 17 28  1  0
 18 19  1  0
 18 29  1  0
 19 20  1  0
M  CHG  2   2  -1  20   1
M  END

