
     RDKit          3D

 58 59  0  0  0  0  0  0  0  0999 V2000
    2.1921   -0.2343    3.0643 C   0  0  0  0  0  0  0  0  0  0  0  0
    3.6599   -0.5156    2.7849 C   0  0  0  0  0  0  0  0  0  0  0  0
    4.2321   -1.5021    3.2020 O   0  0  0  0  0  0  0  0  0  0  0  0
    4.2747    0.4617    2.0162 N   0  0  0  0  0  0  0  0  0  0  0  0
    5.6027    0.5359    1.5766 C   0  0  0  0  0  0  0  0  0  0  0  0
    6.5815   -0.4213    1.9166 C   0  0  0  0  0  0  0  0  0  0  0  0
    7.8855   -0.2810    1.4467 C   0  0  0  0  0  0  0  0  0  0  0  0
    8.2214    0.8022    0.6266 C   0  0  0  0  0  0  0  0  0  0  0  0
    9.9064    1.0417    0.0711 S   0  0  1  0  0  0  0  0  0  0  0  0
    9.9369    2.2700   -0.7315 O   0  0  0  0  0  0  0  0  0  0  0  0
   10.8156    0.8828    1.2125 O   0  0  0  0  0  0  0  0  0  0  0  0
   10.1655   -0.3315   -0.9189 N   0  0  0  0  0  0  0  0  0  0  0  0
    9.4048   -0.3364   -2.1678 C   0  0  0  0  0  0  0  0  0  0  0  0
   11.5642   -0.7528   -1.0447 C   0  0  0  0  0  0  0  0  0  0  0  0
   11.7944   -2.2551   -0.8268 C   0  0  0  0  0  0  0  0  0  0  0  0
   12.8242   -2.7846   -1.2033 O   0  0  0  0  0  0  0  0  0  0  0  0
   10.8002   -2.8848   -0.1447 N   0  0  0  0  0  0  0  0  0  0  0  0
   10.9353   -4.2081    0.4181 C   0  0  0  0  0  0  0  0  0  0  0  0
   10.6243   -4.2377    1.9359 C   0  0  1  0  0  0  0  0  0  0  0  0
   11.7427   -3.5575    2.7186 C   0  0  0  0  0  0  0  0  0  0  0  0
   11.8664   -2.1591    2.7878 C   0  0  0  0  0  0  0  0  0  0  0  0
   12.9439   -1.5756    3.4604 C   0  0  0  0  0  0  0  0  0  0  0  0
   13.9173   -2.3657    4.0780 C   0  0  0  0  0  0  0  0  0  0  0  0
   13.7819   -3.7490    4.0056 C   0  0  0  0  0  0  0  0  0  0  0  0
   14.6998   -4.5304    4.5978 F   0  0  0  0  0  0  0  0  0  0  0  0
   12.7163   -4.3518    3.3414 C   0  0  0  0  0  0  0  0  0  0  0  0
    9.2991   -3.6644    2.2304 N   0  0  0  0  0  0  0  0  0  0  0  0
    8.2198   -4.2839    1.4701 C   0  0  0  0  0  0  0  0  0  0  0  0
    8.9853   -3.6974    3.6559 C   0  0  0  0  0  0  0  0  0  0  0  0
    7.2642    1.7624    0.2868 C   0  0  0  0  0  0  0  0  0  0  0  0
    5.9627    1.6260    0.7600 C   0  0  0  0  0  0  0  0  0  0  0  0
    1.7794   -1.0751    3.6339 H   0  0  0  0  0  0  0  0  0  0  0  0
    1.6228   -0.1145    2.1280 H   0  0  0  0  0  0  0  0  0  0  0  0
    2.0759    0.6911    3.6521 H   0  0  0  0  0  0  0  0  0  0  0  0
    3.6847    1.2320    1.7221 H   0  0  0  0  0  0  0  0  0  0  0  0
    6.3050   -1.2598    2.5505 H   0  0  0  0  0  0  0  0  0  0  0  0
    8.6281   -1.0329    1.7259 H   0  0  0  0  0  0  0  0  0  0  0  0
    8.3457   -0.1171   -1.9699 H   0  0  0  0  0  0  0  0  0  0  0  0
    9.4631   -1.3449   -2.6040 H   0  0  0  0  0  0  0  0  0  0  0  0
    9.7898    0.3966   -2.8990 H   0  0  0  0  0  0  0  0  0  0  0  0
   12.1652   -0.2457   -0.2750 H   0  0  0  0  0  0  0  0  0  0  0  0
   11.9899   -0.4819   -2.0252 H   0  0  0  0  0  0  0  0  0  0  0  0
   10.0173   -2.3107    0.1499 H   0  0  0  0  0  0  0  0  0  0  0  0
   11.9714   -4.5330    0.2501 H   0  0  0  0  0  0  0  0  0  0  0  0
   10.2871   -4.9307   -0.1076 H   0  0  0  0  0  0  0  0  0  0  0  0
   10.6360   -5.3157    2.2182 H   0  0  0  0  0  0  0  0  0  0  0  0
   11.1269   -1.5097    2.3207 H   0  0  0  0  0  0  0  0  0  0  0  0
   13.0228   -0.4865    3.4980 H   0  0  0  0  0  0  0  0  0  0  0  0
   14.7673   -1.9330    4.6089 H   0  0  0  0  0  0  0  0  0  0  0  0
   12.6601   -5.4427    3.3200 H   0  0  0  0  0  0  0  0  0  0  0  0
    8.3311   -4.1138    0.3897 H   0  0  0  0  0  0  0  0  0  0  0  0
    7.2603   -3.8389    1.7731 H   0  0  0  0  0  0  0  0  0  0  0  0
    8.1472   -5.3826    1.6368 H   0  0  0  0  0  0  0  0  0  0  0  0
    9.7513   -3.1682    4.2368 H   0  0  0  0  0  0  0  0  0  0  0  0
    8.9108   -4.7350    4.0517 H   0  0  0  0  0  0  0  0  0  0  0  0
    8.0187   -3.2014    3.8333 H   0  0  0  0  0  0  0  0  0  0  0  0
    7.5501    2.6076   -0.3413 H   0  0  0  0  0  0  0  0  0  0  0  0
    5.2127    2.3768    0.4944 H   0  0  0  0  0  0  0  0  0  0  0  0
  1  2  1  0
  1 32  1  0
  1 33  1  0
  1 34  1  0
  2  3  2  0
  2  4  1  0
  4  5  1  0
  4 35  1  0
  5  6  2  0
  5 31  1  0
  6  7  1  0
  6 36  1  0
  7  8  2  0
  7 37  1  0
  8  9  1  0
  8 30  1  0
  9 10  2  0
  9 11  2  0
  9 12  1  6
 12 13  1  0
 12 14  1  0
 13 38  1  0
 13 39  1  0
 13 40  1  0
 14 15  1  0
 14 41  1  0
 14 42  1  0
 15 16  2  0
 15 17  1  0
 17 18  1  0
 17 43  1  0
 18 19  1  0
 18 44  1  0
 18 45  1  0
 19 20  1  0
 19 27  1  0
 19 46  1  1
 20 21  2  0
 20 26  1  0
 21 22  1  0
 21 47  1  0
 22 23  2  0
 22 48  1  0
 23 24  1  0
 23 49  1  0
 24 25  1  0
 24 26  2  0
 26 50  1  0
 27 28  1  0
 27 29  1  0
 28 51  1  0
 28 52  1  0
 28 53  1  0
 29 54  1  0
 29 55  1  0
 29 56  1  0
 30 31  2  0
 30 57  1  0
 31 58  1  0
M  END

