
     RDKit          3D

 45 45  0  0  0  0  0  0  0  0999 V2000
    6.7292    2.6474    4.0011 C   0  0  0  0  0  0  0  0  0  0  0  0
    6.3536    1.8134    2.7754 C   0  0  0  0  0  0  0  0  0  0  0  0
    6.9030    2.3743    1.4601 C   0  0  0  0  0  0  0  0  0  0  0  0
    6.5326    1.5454    0.2267 C   0  0  0  0  0  0  0  0  0  0  0  0
    7.0807    2.1171   -1.0842 C   0  0  0  0  0  0  0  0  0  0  0  0
    6.7074    1.2860   -2.3120 C   0  0  0  0  0  0  0  0  0  0  0  0
    7.1683    1.8833   -3.6671 C   0  0  1  0  0  0  0  0  0  0  0  0
    6.6831    1.0016   -4.8348 C   0  0  0  0  0  0  0  0  0  0  0  0
    6.6552    3.2107   -3.8241 O   0  0  0  0  0  0  0  0  0  0  0  0
    8.6386    1.9968   -3.7148 C   0  0  0  0  0  0  0  0  0  0  0  0
    9.8511    2.0729   -3.7633 C   0  0  0  0  0  0  0  0  0  0  0  0
   11.2796    2.1801   -3.8156 C   0  0  0  0  0  0  0  0  0  0  0  0
   12.0731    1.1971   -3.1880 C   0  0  0  0  0  0  0  0  0  0  0  0
   13.4641    1.2717   -3.2211 C   0  0  0  0  0  0  0  0  0  0  0  0
   14.0834    2.3340   -3.8858 C   0  0  0  0  0  0  0  0  0  0  0  0
   13.3041    3.3103   -4.5116 C   0  0  0  0  0  0  0  0  0  0  0  0
   11.9034    3.2605   -4.4950 C   0  0  0  0  0  0  0  0  0  0  0  0
   11.0898    4.3499   -5.1585 C   0  0  0  0  0  0  0  0  0  0  0  0
   10.5854    5.4230   -4.1800 C   0  0  0  0  0  0  0  0  0  0  0  0
    6.3181    2.2156    4.9277 H   0  0  0  0  0  0  0  0  0  0  0  0
    6.3471    3.6787    3.9167 H   0  0  0  0  0  0  0  0  0  0  0  0
    7.8237    2.7124    4.1216 H   0  0  0  0  0  0  0  0  0  0  0  0
    5.2530    1.7358    2.7052 H   0  0  0  0  0  0  0  0  0  0  0  0
    6.7175    0.7780    2.9081 H   0  0  0  0  0  0  0  0  0  0  0  0
    8.0041    2.4528    1.5286 H   0  0  0  0  0  0  0  0  0  0  0  0
    6.5391    3.4100    1.3244 H   0  0  0  0  0  0  0  0  0  0  0  0
    5.4310    1.4636    0.1615 H   0  0  0  0  0  0  0  0  0  0  0  0
    6.9001    0.5105    0.3596 H   0  0  0  0  0  0  0  0  0  0  0  0
    8.1797    2.1969   -1.0209 H   0  0  0  0  0  0  0  0  0  0  0  0
    6.7117    3.1464   -1.2287 H   0  0  0  0  0  0  0  0  0  0  0  0
    5.6075    1.1732   -2.3637 H   0  0  0  0  0  0  0  0  0  0  0  0
    7.1146    0.2642   -2.2208 H   0  0  0  0  0  0  0  0  0  0  0  0
    5.5828    0.9197   -4.8128 H   0  0  0  0  0  0  0  0  0  0  0  0
    7.1022   -0.0138   -4.7726 H   0  0  0  0  0  0  0  0  0  0  0  0
    6.9835    1.4501   -5.7924 H   0  0  0  0  0  0  0  0  0  0  0  0
    5.6902    3.1433   -3.8485 H   0  0  0  0  0  0  0  0  0  0  0  0
   11.5776    0.3708   -2.6737 H   0  0  0  0  0  0  0  0  0  0  0  0
   14.0637    0.5010   -2.7305 H   0  0  0  0  0  0  0  0  0  0  0  0
   15.1738    2.4017   -3.9203 H   0  0  0  0  0  0  0  0  0  0  0  0
   13.7945    4.1365   -5.0346 H   0  0  0  0  0  0  0  0  0  0  0  0
   10.2234    3.9001   -5.6699 H   0  0  0  0  0  0  0  0  0  0  0  0
   11.7070    4.8272   -5.9374 H   0  0  0  0  0  0  0  0  0  0  0  0
    9.9135    4.9858   -3.4260 H   0  0  0  0  0  0  0  0  0  0  0  0
   10.0222    6.2036   -4.7164 H   0  0  0  0  0  0  0  0  0  0  0  0
   11.4233    5.9080   -3.6538 H   0  0  0  0  0  0  0  0  0  0  0  0
  1  2  1  0
  1 20  1  0
  1 21  1  0
  1 22  1  0
  2  3  1  0
  2 23  1  0
  2 24  1  0
  3  4  1  0
  3 25  1  0
  3 26  1  0
  4  5  1  0
  4 27  1  0
  4 28  1  0
  5  6  1  0
  5 29  1  0
  5 30  1  0
  6  7  1  0
  6 31  1  0
  6 32  1  0
  7  8  1  0
  7  9  1  0
  7 10  1  1
  8 33  1  0
  8 34  1  0
  8 35  1  0
  9 36  1  0
 10 11  3  0
 11 12  1  0
 12 13  2  0
 12 17  1  0
 13 14  1  0
 13 37  1  0
 14 15  2  0
 14 38  1  0
 15 16  1  0
 15 39  1  0
 16 17  2  0
 16 40  1  0
 17 18  1  0
 18 19  1  0
 18 41  1  0
 18 42  1  0
 19 43  1  0
 19 44  1  0
 19 45  1  0
M  END

