
     RDKit          3D

186191  0  0  0  0  0  0  0  0999 V2000
    2.5998   -1.5298    3.2538 C   0  0  0  0  0  0  0  0  0  0  0  0
    4.0701   -1.2091    3.5264 C   0  0  0  0  0  0  0  0  0  0  0  0
    4.4604    0.2298    3.1740 C   0  0  0  0  0  0  0  0  0  0  0  0
    5.9313    0.5589    3.4444 C   0  0  0  0  0  0  0  0  0  0  0  0
    6.3216    1.9977    3.0932 C   0  0  0  0  0  0  0  0  0  0  0  0
    7.7931    2.3249    3.3640 C   0  0  0  0  0  0  0  0  0  0  0  0
    8.1844    3.7641    3.0158 C   0  0  0  0  0  0  0  0  0  0  0  0
    9.6565    4.0884    3.2868 C   0  0  0  0  0  0  0  0  0  0  0  0
   10.0486    5.5281    2.9427 C   0  0  0  0  0  0  0  0  0  0  0  0
   11.5220    5.8475    3.2142 C   0  0  0  0  0  0  0  0  0  0  0  0
   11.9077    7.2894    2.8737 C   0  0  0  0  0  0  0  0  0  0  0  0
   13.3733    7.5876    3.1474 C   0  0  0  0  0  0  0  0  0  0  0  0
   13.6235    8.9427    2.8058 O   0  0  0  0  0  0  0  0  0  0  0  0
   14.8575    9.4575    2.9607 C   0  0  0  0  0  0  0  0  0  0  0  0
   15.9587    8.7575    3.4394 C   0  0  0  0  0  0  0  0  0  0  0  0
   17.2226    9.3784    3.5710 C   0  0  0  0  0  0  0  0  0  0  0  0
   17.3478   10.7480    3.2007 C   0  0  0  0  0  0  0  0  0  0  0  0
   16.2249   11.4631    2.7117 C   0  0  0  0  0  0  0  0  0  0  0  0
   14.9941   10.8405    2.5884 C   0  0  0  0  0  0  0  0  0  0  0  0
   13.8704   11.4298    2.1360 O   0  0  0  0  0  0  0  0  0  0  0  0
   13.9150   12.7969    1.7422 C   0  0  0  0  0  0  0  0  0  0  0  0
   12.5256   13.2009    1.2768 C   0  0  0  0  0  0  0  0  0  0  0  0
   12.4526   14.6611    0.8228 C   0  0  0  0  0  0  0  0  0  0  0  0
   11.0581   15.0845    0.3515 C   0  0  0  0  0  0  0  0  0  0  0  0
   10.9770   16.5436   -0.1063 C   0  0  0  0  0  0  0  0  0  0  0  0
    9.5832   16.9692   -0.5774 C   0  0  0  0  0  0  0  0  0  0  0  0
    9.5018   18.4281   -1.0366 C   0  0  0  0  0  0  0  0  0  0  0  0
    8.1081   18.8544   -1.5073 C   0  0  0  0  0  0  0  0  0  0  0  0
    8.0270   20.3131   -1.9672 C   0  0  0  0  0  0  0  0  0  0  0  0
    6.6336   20.7402   -2.4375 C   0  0  0  0  0  0  0  0  0  0  0  0
    6.5522   22.1990   -2.8980 C   0  0  0  0  0  0  0  0  0  0  0  0
    5.1575   22.6173   -3.3658 C   0  0  0  0  0  0  0  0  0  0  0  0
   18.6258   11.3740    3.3357 C   0  0  0  0  0  0  0  0  0  0  0  0
   19.1157   12.6614    3.0822 C   0  0  0  0  0  0  0  0  0  0  0  0
   18.6984   13.9475    2.6076 C   0  0  0  0  0  0  0  0  0  0  0  0
   17.6510   14.4342    2.2069 O   0  0  0  0  0  0  0  0  0  0  0  0
   19.9338   14.7313    2.6896 N   0  0  0  0  0  0  0  0  0  0  0  0
   20.0415   16.0521    2.3397 C   0  0  0  0  0  0  0  0  0  0  0  0
   21.2357   16.6923    2.4567 C   0  0  0  0  0  0  0  0  0  0  0  0
   22.3981   15.9884    2.9473 C   0  0  0  0  0  0  0  0  0  0  0  0
   23.6535   16.6214    3.0782 C   0  0  0  0  0  0  0  0  0  0  0  0
   24.7654   15.9252    3.5487 C   0  0  0  0  0  0  0  0  0  0  0  0
   26.0002   16.4548    3.6841 O   0  0  0  0  0  0  0  0  0  0  0  0
   26.2437   17.8010    3.2908 C   0  0  0  0  0  0  0  0  0  0  0  0
   27.7201   18.1081    3.4873 C   0  0  0  0  0  0  0  0  0  0  0  0
   28.6517   17.2716    2.6026 C   0  0  0  0  0  0  0  0  0  0  0  0
   30.1425   17.6098    2.7425 C   0  0  0  0  0  0  0  0  0  0  0  0
   30.7641   17.2664    4.1013 C   0  0  0  0  0  0  0  0  0  0  0  0
   32.2663   17.5562    4.1790 C   0  0  0  0  0  0  0  0  0  0  0  0
   32.8950   17.2109    5.5321 C   0  0  0  0  0  0  0  0  0  0  0  0
   34.3965   17.5019    5.6129 C   0  0  0  0  0  0  0  0  0  0  0  0
   35.0236   17.1555    6.9666 C   0  0  0  0  0  0  0  0  0  0  0  0
   36.5249   17.4464    7.0494 C   0  0  0  0  0  0  0  0  0  0  0  0
   37.1519   17.0998    8.4034 C   0  0  0  0  0  0  0  0  0  0  0  0
   38.6509   17.3935    8.4781 C   0  0  0  0  0  0  0  0  0  0  0  0
   24.6364   14.5466    3.9147 C   0  0  0  0  0  0  0  0  0  0  0  0
   25.7225   13.8352    4.3243 O   0  0  0  0  0  0  0  0  0  0  0  0
   26.2280   14.0926    5.6393 C   0  0  0  0  0  0  0  0  0  0  0  0
   27.3238   13.0832    5.9396 C   0  0  0  0  0  0  0  0  0  0  0  0
   28.5324   13.1741    5.0041 C   0  0  0  0  0  0  0  0  0  0  0  0
   29.6125   12.1292    5.2968 C   0  0  0  0  0  0  0  0  0  0  0  0
   30.8240   12.2158    4.3640 C   0  0  0  0  0  0  0  0  0  0  0  0
   31.9015   11.1639    4.6437 C   0  0  0  0  0  0  0  0  0  0  0  0
   33.1124   11.2516    3.7101 C   0  0  0  0  0  0  0  0  0  0  0  0
   34.1892   10.1985    3.9877 C   0  0  0  0  0  0  0  0  0  0  0  0
   35.4000   10.2868    3.0539 C   0  0  0  0  0  0  0  0  0  0  0  0
   36.4768    9.2335    3.3302 C   0  0  0  0  0  0  0  0  0  0  0  0
   37.6879    9.3218    2.3962 C   0  0  0  0  0  0  0  0  0  0  0  0
   38.7582    8.2665    2.6785 C   0  0  0  0  0  0  0  0  0  0  0  0
   23.4124   13.9150    3.7911 C   0  0  0  0  0  0  0  0  0  0  0  0
   22.2796   14.6129    3.3079 C   0  0  0  0  0  0  0  0  0  0  0  0
   21.0028   13.9786    3.1717 C   0  0  0  0  0  0  0  0  0  0  0  0
   20.5135   12.6934    3.4210 C   0  0  0  0  0  0  0  0  0  0  0  0
   20.9284   11.4055    3.9022 C   0  0  0  0  0  0  0  0  0  0  0  0
   21.9713   10.9215    4.3076 O   0  0  0  0  0  0  0  0  0  0  0  0
   19.6900   10.6218    3.8208 N   0  0  0  0  0  0  0  0  0  0  0  0
   19.5785    9.3032    4.1787 C   0  0  0  0  0  0  0  0  0  0  0  0
   18.3788    8.6706    4.0654 C   0  0  0  0  0  0  0  0  0  0  0  0
    2.3556   -2.5711    3.5185 H   0  0  0  0  0  0  0  0  0  0  0  0
    2.3497   -1.3903    2.1885 H   0  0  0  0  0  0  0  0  0  0  0  0
    1.9314   -0.8733    3.8360 H   0  0  0  0  0  0  0  0  0  0  0  0
    4.7116   -1.9079    2.9588 H   0  0  0  0  0  0  0  0  0  0  0  0
    4.2968   -1.3952    4.5922 H   0  0  0  0  0  0  0  0  0  0  0  0
    3.8191    0.9301    3.7416 H   0  0  0  0  0  0  0  0  0  0  0  0
    4.2343    0.4173    2.1074 H   0  0  0  0  0  0  0  0  0  0  0  0
    6.5719   -0.1413    2.8762 H   0  0  0  0  0  0  0  0  0  0  0  0
    6.1569    0.3702    4.5107 H   0  0  0  0  0  0  0  0  0  0  0  0
    5.6818    2.6982    3.6618 H   0  0  0  0  0  0  0  0  0  0  0  0
    6.0963    2.1871    2.0271 H   0  0  0  0  0  0  0  0  0  0  0  0
    8.4330    1.6252    2.7944 H   0  0  0  0  0  0  0  0  0  0  0  0
    8.0188    2.1338    4.4299 H   0  0  0  0  0  0  0  0  0  0  0  0
    7.5458    4.4640    3.5863 H   0  0  0  0  0  0  0  0  0  0  0  0
    7.9588    3.9561    1.9502 H   0  0  0  0  0  0  0  0  0  0  0  0
   10.2950    3.3898    2.7143 H   0  0  0  0  0  0  0  0  0  0  0  0
    9.8824    3.8938    4.3519 H   0  0  0  0  0  0  0  0  0  0  0  0
    9.4131    6.2278    3.5164 H   0  0  0  0  0  0  0  0  0  0  0  0
    9.8239    5.7248    1.8781 H   0  0  0  0  0  0  0  0  0  0  0  0
   12.1566    5.1491    2.6373 H   0  0  0  0  0  0  0  0  0  0  0  0
   11.7462    5.6469    4.2785 H   0  0  0  0  0  0  0  0  0  0  0  0
   11.2923    7.9969    3.4553 H   0  0  0  0  0  0  0  0  0  0  0  0
   11.7001    7.4998    1.8106 H   0  0  0  0  0  0  0  0  0  0  0  0
   14.0260    6.9217    2.5509 H   0  0  0  0  0  0  0  0  0  0  0  0
   13.6144    7.4173    4.2142 H   0  0  0  0  0  0  0  0  0  0  0  0
   15.8626    7.7097    3.7228 H   0  0  0  0  0  0  0  0  0  0  0  0
   16.3560   12.5110    2.4374 H   0  0  0  0  0  0  0  0  0  0  0  0
   14.6576   12.9319    0.9341 H   0  0  0  0  0  0  0  0  0  0  0  0
   14.2454   13.4230    2.5917 H   0  0  0  0  0  0  0  0  0  0  0  0
   11.8130   13.0218    2.1005 H   0  0  0  0  0  0  0  0  0  0  0  0
   12.2220   12.5304    0.4542 H   0  0  0  0  0  0  0  0  0  0  0  0
   13.1795   14.8304    0.0070 H   0  0  0  0  0  0  0  0  0  0  0  0
   12.7734   15.3211    1.6498 H   0  0  0  0  0  0  0  0  0  0  0  0
   10.3312   14.9164    1.1678 H   0  0  0  0  0  0  0  0  0  0  0  0
   10.7367   14.4236   -0.4748 H   0  0  0  0  0  0  0  0  0  0  0  0
   11.7046   16.7106   -0.9223 H   0  0  0  0  0  0  0  0  0  0  0  0
   11.3000   17.2036    0.7203 H   0  0  0  0  0  0  0  0  0  0  0  0
    8.8558   16.8028    0.2390 H   0  0  0  0  0  0  0  0  0  0  0  0
    9.2599   16.3085   -1.4034 H   0  0  0  0  0  0  0  0  0  0  0  0
   10.2291   18.5942   -1.8532 H   0  0  0  0  0  0  0  0  0  0  0  0
    9.8257   19.0887   -0.2108 H   0  0  0  0  0  0  0  0  0  0  0  0
    7.3810   18.6887   -0.6904 H   0  0  0  0  0  0  0  0  0  0  0  0
    7.7841   18.1933   -2.3327 H   0  0  0  0  0  0  0  0  0  0  0  0
    8.7540   20.4785   -2.7842 H   0  0  0  0  0  0  0  0  0  0  0  0
    8.3515   20.9740   -1.1417 H   0  0  0  0  0  0  0  0  0  0  0  0
    5.9060   20.5754   -1.6206 H   0  0  0  0  0  0  0  0  0  0  0  0
    6.3084   20.0794   -3.2631 H   0  0  0  0  0  0  0  0  0  0  0  0
    7.2795   22.3624   -3.7142 H   0  0  0  0  0  0  0  0  0  0  0  0
    6.8776   22.8582   -2.0725 H   0  0  0  0  0  0  0  0  0  0  0  0
    4.8183   22.0019   -4.2161 H   0  0  0  0  0  0  0  0  0  0  0  0
    5.1365   23.6705   -3.6891 H   0  0  0  0  0  0  0  0  0  0  0  0
    4.4129   22.5020   -2.5601 H   0  0  0  0  0  0  0  0  0  0  0  0
   19.1157   16.5032    1.9790 H   0  0  0  0  0  0  0  0  0  0  0  0
   21.3164   17.7439    2.1771 H   0  0  0  0  0  0  0  0  0  0  0  0
   23.7366   17.6704    2.7949 H   0  0  0  0  0  0  0  0  0  0  0  0
   25.6195   18.4839    3.8964 H   0  0  0  0  0  0  0  0  0  0  0  0
   25.9562   17.9331    2.2306 H   0  0  0  0  0  0  0  0  0  0  0  0
   27.9644   17.9681    4.5537 H   0  0  0  0  0  0  0  0  0  0  0  0
   27.8647   19.1825    3.2738 H   0  0  0  0  0  0  0  0  0  0  0  0
   28.3526   17.4126    1.5481 H   0  0  0  0  0  0  0  0  0  0  0  0
   28.4898   16.2028    2.8230 H   0  0  0  0  0  0  0  0  0  0  0  0
   30.2963   18.6852    2.5320 H   0  0  0  0  0  0  0  0  0  0  0  0
   30.6982   17.0703    1.9551 H   0  0  0  0  0  0  0  0  0  0  0  0
   30.5868   16.1966    4.3189 H   0  0  0  0  0  0  0  0  0  0  0  0
   30.2514   17.8247    4.9051 H   0  0  0  0  0  0  0  0  0  0  0  0
   32.4432   18.6252    3.9566 H   0  0  0  0  0  0  0  0  0  0  0  0
   32.7876   16.9959    3.3806 H   0  0  0  0  0  0  0  0  0  0  0  0
   32.7187   16.1415    5.7531 H   0  0  0  0  0  0  0  0  0  0  0  0
   32.3721   17.7699    6.3306 H   0  0  0  0  0  0  0  0  0  0  0  0
   34.5729   18.5713    5.3920 H   0  0  0  0  0  0  0  0  0  0  0  0
   34.9196   16.9428    4.8147 H   0  0  0  0  0  0  0  0  0  0  0  0
   34.8469   16.0861    7.1870 H   0  0  0  0  0  0  0  0  0  0  0  0
   34.4997   17.7144    7.7645 H   0  0  0  0  0  0  0  0  0  0  0  0
   36.7023   18.5159    6.8293 H   0  0  0  0  0  0  0  0  0  0  0  0
   37.0496   16.8875    6.2517 H   0  0  0  0  0  0  0  0  0  0  0  0
   36.9740   16.0309    8.6222 H   0  0  0  0  0  0  0  0  0  0  0  0
   36.6264   17.6583    9.1996 H   0  0  0  0  0  0  0  0  0  0  0  0
   39.2101   16.8207    7.7192 H   0  0  0  0  0  0  0  0  0  0  0  0
   39.0672   17.1325    9.4643 H   0  0  0  0  0  0  0  0  0  0  0  0
   38.8594   18.4622    8.3015 H   0  0  0  0  0  0  0  0  0  0  0  0
   25.4032   13.9948    6.3692 H   0  0  0  0  0  0  0  0  0  0  0  0
   26.6166   15.1244    5.6961 H   0  0  0  0  0  0  0  0  0  0  0  0
   26.8888   12.0696    5.8902 H   0  0  0  0  0  0  0  0  0  0  0  0
   27.6432   13.2364    6.9863 H   0  0  0  0  0  0  0  0  0  0  0  0
   28.9717   14.1868    5.0738 H   0  0  0  0  0  0  0  0  0  0  0  0
   28.1828   13.0655    3.9636 H   0  0  0  0  0  0  0  0  0  0  0  0
   29.1692   11.1186    5.2248 H   0  0  0  0  0  0  0  0  0  0  0  0
   29.9511   12.2321    6.3451 H   0  0  0  0  0  0  0  0  0  0  0  0
   31.2715   13.2248    4.4401 H   0  0  0  0  0  0  0  0  0  0  0  0
   30.4829   12.1196    3.3164 H   0  0  0  0  0  0  0  0  0  0  0  0
   31.4541   10.1554    4.5666 H   0  0  0  0  0  0  0  0  0  0  0  0
   32.2415   11.2593    5.6920 H   0  0  0  0  0  0  0  0  0  0  0  0
   33.5605   12.2600    3.7877 H   0  0  0  0  0  0  0  0  0  0  0  0
   32.7719   11.1572    2.6621 H   0  0  0  0  0  0  0  0  0  0  0  0
   33.7413    9.1902    3.9097 H   0  0  0  0  0  0  0  0  0  0  0  0
   34.5296   10.2924    5.0360 H   0  0  0  0  0  0  0  0  0  0  0  0
   35.8480   11.2951    3.1323 H   0  0  0  0  0  0  0  0  0  0  0  0
   35.0592   10.1933    2.0058 H   0  0  0  0  0  0  0  0  0  0  0  0
   36.0295    8.2248    3.2514 H   0  0  0  0  0  0  0  0  0  0  0  0
   36.8182    9.3265    4.3784 H   0  0  0  0  0  0  0  0  0  0  0  0
   38.1340   10.3301    2.4756 H   0  0  0  0  0  0  0  0  0  0  0  0
   37.3455    9.2291    1.3492 H   0  0  0  0  0  0  0  0  0  0  0  0
   39.1491    8.3566    3.7061 H   0  0  0  0  0  0  0  0  0  0  0  0
   39.6125    8.3598    1.9889 H   0  0  0  0  0  0  0  0  0  0  0  0
   38.3536    7.2460    2.5702 H   0  0  0  0  0  0  0  0  0  0  0  0
   23.3335   12.8598    4.0652 H   0  0  0  0  0  0  0  0  0  0  0  0
   20.5020    8.8494    4.5411 H   0  0  0  0  0  0  0  0  0  0  0  0
   18.2912    7.6210    4.3506 H   0  0  0  0  0  0  0  0  0  0  0  0
  1  2  1  0
  1 79  1  0
  1 80  1  0
  1 81  1  0
  2  3  1  0
  2 82  1  0
  2 83  1  0
  3  4  1  0
  3 84  1  0
  3 85  1  0
  4  5  1  0
  4 86  1  0
  4 87  1  0
  5  6  1  0
  5 88  1  0
  5 89  1  0
  6  7  1  0
  6 90  1  0
  6 91  1  0
  7  8  1  0
  7 92  1  0
  7 93  1  0
  8  9  1  0
  8 94  1  0
  8 95  1  0
  9 10  1  0
  9 96  1  0
  9 97  1  0
 10 11  1  0
 10 98  1  0
 10 99  1  0
 11 12  1  0
 11100  1  0
 11101  1  0
 12 13  1  0
 12102  1  0
 12103  1  0
 13 14  1  0
 14 15  2  0
 14 19  1  0
 15 16  1  0
 15104  1  0
 16 17  2  0
 16 78  1  0
 17 18  1  0
 17 33  1  0
 18 19  2  0
 18105  1  0
 19 20  1  0
 20 21  1  0
 21 22  1  0
 21106  1  0
 21107  1  0
 22 23  1  0
 22108  1  0
 22109  1  0
 23 24  1  0
 23110  1  0
 23111  1  0
 24 25  1  0
 24112  1  0
 24113  1  0
 25 26  1  0
 25114  1  0
 25115  1  0
 26 27  1  0
 26116  1  0
 26117  1  0
 27 28  1  0
 27118  1  0
 27119  1  0
 28 29  1  0
 28120  1  0
 28121  1  0
 29 30  1  0
 29122  1  0
 29123  1  0
 30 31  1  0
 30124  1  0
 30125  1  0
 31 32  1  0
 31126  1  0
 31127  1  0
 32128  1  0
 32129  1  0
 32130  1  0
 33 34  2  0
 33 76  1  0
 34 35  1  0
 34 73  1  0
 35 36  2  0
 35 37  1  0
 37 38  1  0
 37 72  1  0
 38 39  2  0
 38131  1  0
 39 40  1  0
 39132  1  0
 40 41  2  0
 40 71  1  0
 41 42  1  0
 41133  1  0
 42 43  1  0
 42 56  2  0
 43 44  1  0
 44 45  1  0
 44134  1  0
 44135  1  0
 45 46  1  0
 45136  1  0
 45137  1  0
 46 47  1  0
 46138  1  0
 46139  1  0
 47 48  1  0
 47140  1  0
 47141  1  0
 48 49  1  0
 48142  1  0
 48143  1  0
 49 50  1  0
 49144  1  0
 49145  1  0
 50 51  1  0
 50146  1  0
 50147  1  0
 51 52  1  0
 51148  1  0
 51149  1  0
 52 53  1  0
 52150  1  0
 52151  1  0
 53 54  1  0
 53152  1  0
 53153  1  0
 54 55  1  0
 54154  1  0
 54155  1  0
 55156  1  0
 55157  1  0
 55158  1  0
 56 57  1  0
 56 70  1  0
 57 58  1  0
 58 59  1  0
 58159  1  0
 58160  1  0
 59 60  1  0
 59161  1  0
 59162  1  0
 60 61  1  0
 60163  1  0
 60164  1  0
 61 62  1  0
 61165  1  0
 61166  1  0
 62 63  1  0
 62167  1  0
 62168  1  0
 63 64  1  0
 63169  1  0
 63170  1  0
 64 65  1  0
 64171  1  0
 64172  1  0
 65 66  1  0
 65173  1  0
 65174  1  0
 66 67  1  0
 66175  1  0
 66176  1  0
 67 68  1  0
 67177  1  0
 67178  1  0
 68 69  1  0
 68179  1  0
 68180  1  0
 69181  1  0
 69182  1  0
 69183  1  0
 70 71  2  0
 70184  1  0
 71 72  1  0
 72 73  2  0
 73 74  1  0
 74 75  2  0
 74 76  1  0
 76 77  1  0
 77 78  2  0
 77185  1  0
 78186  1  0
M  END

