
     RDKit          3D

 26 27  0  0  0  0  0  0  0  0999 V2000
    1.2661   -0.0318    0.2458 C   0  0  0  0  0  0  0  0  0  0  0  0
    2.7499   -0.0587   -0.1279 C   0  0  1  0  0  0  0  0  0  0  0  0
    2.9084   -0.4160   -1.6167 C   0  0  0  0  0  0  0  0  0  0  0  0
    4.2958   -0.6179   -1.9905 N   0  0  0  0  0  0  0  0  0  0  0  0
    4.9899    0.2048   -2.8055 C   0  0  0  0  0  0  0  0  0  0  0  0
    4.4907    1.2447   -3.4375 N   0  0  0  0  0  0  0  0  0  0  0  0
    5.4765    1.8281   -4.1784 C   0  0  0  0  0  0  0  0  0  0  0  0
    6.6950    1.3539   -4.1863 N   0  0  0  0  0  0  0  0  0  0  0  0
    6.7075   -0.0017   -3.1712 S   0  0  0  0  0  0  0  0  0  0  0  0
    3.4915    1.2538    0.2741 C   0  0  0  0  0  0  0  0  0  0  0  0
    4.6761    0.7801    1.1333 C   0  0  0  0  0  0  0  0  0  0  0  0
    4.1584   -0.5537    1.6731 C   0  0  0  0  0  0  0  0  0  0  0  0
    3.4137   -1.1128    0.6020 O   0  0  0  0  0  0  0  0  0  0  0  0
    0.7369    0.7695   -0.2951 H   0  0  0  0  0  0  0  0  0  0  0  0
    1.1431    0.1483    1.3248 H   0  0  0  0  0  0  0  0  0  0  0  0
    0.7866   -0.9928    0.0044 H   0  0  0  0  0  0  0  0  0  0  0  0
    2.4968    0.3780   -2.2530 H   0  0  0  0  0  0  0  0  0  0  0  0
    2.3435   -1.3432   -1.8151 H   0  0  0  0  0  0  0  0  0  0  0  0
    4.7942   -1.3236   -1.4615 H   0  0  0  0  0  0  0  0  0  0  0  0
    5.2457    2.7145   -4.7782 H   0  0  0  0  0  0  0  0  0  0  0  0
    2.8185    1.8959    0.8636 H   0  0  0  0  0  0  0  0  0  0  0  0
    3.8070    1.8335   -0.6050 H   0  0  0  0  0  0  0  0  0  0  0  0
    4.9481    1.4913    1.9279 H   0  0  0  0  0  0  0  0  0  0  0  0
    5.5695    0.6151    0.5101 H   0  0  0  0  0  0  0  0  0  0  0  0
    3.5153   -0.3978    2.5635 H   0  0  0  0  0  0  0  0  0  0  0  0
    4.9495   -1.2672    1.9514 H   0  0  0  0  0  0  0  0  0  0  0  0
  2  1  1  1
  1 14  1  0
  1 15  1  0
  1 16  1  0
  2  3  1  0
  2 10  1  0
  2 13  1  0
  3  4  1  0
  3 17  1  0
  3 18  1  0
  4  5  1  0
  4 19  1  0
  5  6  2  0
  5  9  1  0
  6  7  1  0
  7  8  2  0
  7 20  1  0
  8  9  1  0
 10 11  1  0
 10 21  1  0
 10 22  1  0
 11 12  1  0
 11 23  1  0
 11 24  1  0
 12 13  1  0
 12 25  1  0
 12 26  1  0
M  END

