
     RDKit          3D

 47 48  0  0  0  0  0  0  0  0999 V2000
    0.8943   -0.0298   -0.8165 C   0  0  0  0  0  0  0  0  0  0  0  0
    2.3503   -0.0933   -0.3550 C   0  0  0  0  0  0  0  0  0  0  0  0
    2.8424    1.2099    0.2737 C   0  0  0  0  0  0  0  0  0  0  0  0
    4.2240    1.1039    0.7197 N   0  0  0  0  0  0  0  0  0  0  0  0
    4.7708    2.3060    1.3373 C   0  0  1  0  0  0  0  0  0  0  0  0
    4.2304    2.4976    2.7530 C   0  0  0  0  0  0  0  0  0  0  0  0
    3.8931    1.4043    3.5660 C   0  0  0  0  0  0  0  0  0  0  0  0
    3.4476    1.5977    4.8771 C   0  0  0  0  0  0  0  0  0  0  0  0
    3.3309    2.8888    5.4005 C   0  0  0  0  0  0  0  0  0  0  0  0
    3.6572    3.9867    4.5983 C   0  0  0  0  0  0  0  0  0  0  0  0
    4.0985    3.7896    3.2871 C   0  0  0  0  0  0  0  0  0  0  0  0
    6.3459    2.3089    1.3385 C   0  0  1  0  0  0  0  0  0  0  0  0
    6.9470    0.9842    1.8209 C   0  0  0  0  0  0  0  0  0  0  0  0
    6.9800    2.7667    0.0941 N   0  0  0  0  0  0  0  0  0  0  0  0
    6.7692    1.9820   -1.1058 C   0  0  0  0  0  0  0  0  0  0  0  0
    6.8953    4.1903   -0.1564 C   0  0  1  0  0  0  0  0  0  0  0  0
    7.4419    5.1665    0.9175 C   0  0  0  0  0  0  0  0  0  0  0  0
    8.0194    6.0351   -0.2277 C   0  0  0  0  0  0  0  0  0  0  0  0
    7.9056    4.8057   -1.1626 C   0  0  0  0  0  0  0  0  0  0  0  0
    0.5730   -0.9830   -1.2653 H   0  0  0  0  0  0  0  0  0  0  0  0
    0.7433    0.7602   -1.5712 H   0  0  0  0  0  0  0  0  0  0  0  0
    0.2161    0.1857    0.0260 H   0  0  0  0  0  0  0  0  0  0  0  0
    2.9986   -0.3463   -1.2153 H   0  0  0  0  0  0  0  0  0  0  0  0
    2.4854   -0.9083    0.3764 H   0  0  0  0  0  0  0  0  0  0  0  0
    2.2126    1.4544    1.1466 H   0  0  0  0  0  0  0  0  0  0  0  0
    2.6945    2.0469   -0.4487 H   0  0  0  0  0  0  0  0  0  0  0  0
    4.8074    0.8040   -0.0557 H   0  0  0  0  0  0  0  0  0  0  0  0
    4.4728    3.2152    0.7689 H   0  0  0  0  0  0  0  0  0  0  0  0
    3.9747    0.3994    3.1466 H   0  0  0  0  0  0  0  0  0  0  0  0
    3.1877    0.7328    5.4939 H   0  0  0  0  0  0  0  0  0  0  0  0
    2.9810    3.0397    6.4251 H   0  0  0  0  0  0  0  0  0  0  0  0
    3.5602    5.0020    4.9925 H   0  0  0  0  0  0  0  0  0  0  0  0
    4.3386    4.6560    2.6627 H   0  0  0  0  0  0  0  0  0  0  0  0
    6.6211    3.0674    2.0864 H   0  0  0  0  0  0  0  0  0  0  0  0
    6.6836    0.1331    1.1759 H   0  0  0  0  0  0  0  0  0  0  0  0
    6.5857    0.7442    2.8312 H   0  0  0  0  0  0  0  0  0  0  0  0
    8.0435    1.0696    1.8495 H   0  0  0  0  0  0  0  0  0  0  0  0
    6.9304    0.9119   -0.9054 H   0  0  0  0  0  0  0  0  0  0  0  0
    7.4992    2.2742   -1.8777 H   0  0  0  0  0  0  0  0  0  0  0  0
    5.7593    2.1025   -1.5617 H   0  0  0  0  0  0  0  0  0  0  0  0
    5.8670    4.5088   -0.4492 H   0  0  0  0  0  0  0  0  0  0  0  0
    8.2452    4.6844    1.4964 H   0  0  0  0  0  0  0  0  0  0  0  0
    6.7263    5.6295    1.6140 H   0  0  0  0  0  0  0  0  0  0  0  0
    9.0192    6.4695   -0.0795 H   0  0  0  0  0  0  0  0  0  0  0  0
    7.3307    6.8426   -0.5214 H   0  0  0  0  0  0  0  0  0  0  0  0
    8.8375    4.2185   -1.1672 H   0  0  0  0  0  0  0  0  0  0  0  0
    7.5742    4.9686   -2.1996 H   0  0  0  0  0  0  0  0  0  0  0  0
  1  2  1  0
  1 20  1  0
  1 21  1  0
  1 22  1  0
  2  3  1  0
  2 23  1  0
  2 24  1  0
  3  4  1  0
  3 25  1  0
  3 26  1  0
  4  5  1  0
  4 27  1  0
  5  6  1  0
  5 12  1  0
  5 28  1  6
  6  7  2  0
  6 11  1  0
  7  8  1  0
  7 29  1  0
  8  9  2  0
  8 30  1  0
  9 10  1  0
  9 31  1  0
 10 11  2  0
 10 32  1  0
 11 33  1  0
 12 13  1  0
 12 14  1  0
 12 34  1  1
 13 35  1  0
 13 36  1  0
 13 37  1  0
 14 15  1  0
 14 16  1  0
 15 38  1  0
 15 39  1  0
 15 40  1  0
 16 17  1  0
 16 19  1  0
 16 41  1  6
 17 18  1  0
 17 42  1  0
 17 43  1  0
 18 19  1  0
 18 44  1  0
 18 45  1  0
 19 46  1  0
 19 47  1  0
M  END

