
     RDKit          3D

 33 35  0  0  0  0  0  0  0  0999 V2000
    1.0198    0.4749    0.1204 O   0  0  0  0  0  0  0  0  0  0  0  0
    1.9759    0.1057    0.7711 C   0  0  0  0  0  0  0  0  0  0  0  0
    2.1493   -1.3578    1.1637 C   0  0  1  0  0  0  0  0  0  0  0  0
    1.1132   -2.3336    0.5473 C   0  0  0  0  0  0  0  0  0  0  0  0
    2.2748   -3.2510    0.1585 C   0  0  2  0  0  0  0  0  0  0  0  0
    2.2650   -3.7554   -1.0984 F   0  0  0  0  0  0  0  0  0  0  0  0
    2.4140   -4.3079    1.0108 F   0  0  0  0  0  0  0  0  0  0  0  0
    3.2965   -2.1440    0.4442 C   0  0  0  0  0  0  0  0  0  0  0  0
    3.0061    0.9761    1.1323 N   0  0  0  0  0  0  0  0  0  0  0  0
    3.8401    0.7559    2.3170 C   0  0  0  0  0  0  0  0  0  0  0  0
    3.2393    1.5201    3.4991 C   0  0  0  0  0  0  0  0  0  0  0  0
    3.1651    3.0219    3.1817 C   0  0  0  0  0  0  0  0  0  0  0  0
    2.9643    3.3522    1.7102 C   0  0  0  0  0  0  0  0  0  0  0  0
    2.8789    4.6944    1.3133 C   0  0  0  0  0  0  0  0  0  0  0  0
    2.7687    5.0424   -0.0310 C   0  0  0  0  0  0  0  0  0  0  0  0
    2.7879    4.0478   -1.0111 C   0  0  0  0  0  0  0  0  0  0  0  0
    2.8908    2.7094   -0.6339 C   0  0  0  0  0  0  0  0  0  0  0  0
    3.0516    1.5115   -1.8949 Cl  0  0  0  0  0  0  0  0  0  0  0  0
    2.9304    2.3400    0.7283 C   0  0  0  0  0  0  0  0  0  0  0  0
    2.2073   -1.4710    2.2560 H   0  0  0  0  0  0  0  0  0  0  0  0
    0.6216   -1.8898   -0.3281 H   0  0  0  0  0  0  0  0  0  0  0  0
    0.3669   -2.7775    1.2201 H   0  0  0  0  0  0  0  0  0  0  0  0
    3.6255   -1.6480   -0.4795 H   0  0  0  0  0  0  0  0  0  0  0  0
    4.1669   -2.4508    1.0412 H   0  0  0  0  0  0  0  0  0  0  0  0
    4.8608    1.1129    2.0979 H   0  0  0  0  0  0  0  0  0  0  0  0
    3.9178   -0.3164    2.5267 H   0  0  0  0  0  0  0  0  0  0  0  0
    3.8301    1.3514    4.4139 H   0  0  0  0  0  0  0  0  0  0  0  0
    2.2311    1.1158    3.6920 H   0  0  0  0  0  0  0  0  0  0  0  0
    4.1053    3.5076    3.4984 H   0  0  0  0  0  0  0  0  0  0  0  0
    2.3716    3.4997    3.7798 H   0  0  0  0  0  0  0  0  0  0  0  0
    2.8998    5.4750    2.0791 H   0  0  0  0  0  0  0  0  0  0  0  0
    2.6899    6.0916   -0.3250 H   0  0  0  0  0  0  0  0  0  0  0  0
    2.7441    4.2984   -2.0719 H   0  0  0  0  0  0  0  0  0  0  0  0
  1  2  2  0
  2  3  1  0
  2  9  1  0
  3  4  1  0
  3  8  1  0
  3 20  1  1
  4  5  1  0
  4 21  1  0
  4 22  1  0
  5  6  1  6
  5  7  1  0
  5  8  1  0
  8 23  1  0
  8 24  1  0
  9 10  1  0
  9 19  1  0
 10 11  1  0
 10 25  1  0
 10 26  1  0
 11 12  1  0
 11 27  1  0
 11 28  1  0
 12 13  1  0
 12 29  1  0
 12 30  1  0
 13 14  2  0
 13 19  1  0
 14 15  1  0
 14 31  1  0
 15 16  2  0
 15 32  1  0
 16 17  1  0
 16 33  1  0
 17 18  1  0
 17 19  2  0
M  END

