
     RDKit          3D

 36 36  0  0  0  0  0  0  0  0999 V2000
    1.0485   -0.9804    0.4172 C   0  0  0  0  0  0  0  0  0  0  0  0
    2.4634   -0.6343    0.4767 N   0  0  0  0  0  0  0  0  0  0  0  0
    2.9175    0.0776    1.6705 C   0  0  0  0  0  0  0  0  0  0  0  0
    2.3460    1.4954    1.8133 C   0  0  0  0  0  0  0  0  0  0  0  0
    2.8529    2.2090    3.0699 C   0  0  0  0  0  0  0  0  0  0  0  0
    2.2871    3.6207    3.2412 C   0  0  0  0  0  0  0  0  0  0  0  0
    2.7995    4.3431    4.4872 C   0  0  0  0  0  0  0  0  0  0  0  0
    2.1756    5.6553    4.6225 N   0  0  0  0  0  0  0  0  0  0  0  0
    3.1550   -0.6907   -0.7109 C   0  0  0  0  0  0  0  0  0  0  0  0
    2.6042   -0.9457   -1.7716 O   0  0  0  0  0  0  0  0  0  0  0  0
    4.6547   -0.4852   -0.6928 C   0  0  0  0  0  0  0  0  0  0  0  0
    5.4928   -1.2156    0.1636 C   0  0  0  0  0  0  0  0  0  0  0  0
    6.8730   -1.0710    0.0404 C   0  0  0  0  0  0  0  0  0  0  0  0
    7.6742   -1.7758    0.8494 F   0  0  0  0  0  0  0  0  0  0  0  0
    7.4515   -0.2181   -0.8964 C   0  0  0  0  0  0  0  0  0  0  0  0
    6.5924    0.4876   -1.7373 C   0  0  0  0  0  0  0  0  0  0  0  0
    7.1238    1.3093   -2.6501 F   0  0  0  0  0  0  0  0  0  0  0  0
    5.2084    0.3609   -1.6634 C   0  0  0  0  0  0  0  0  0  0  0  0
    0.7124   -1.2977    1.4160 H   0  0  0  0  0  0  0  0  0  0  0  0
    0.9032   -1.7985   -0.2990 H   0  0  0  0  0  0  0  0  0  0  0  0
    0.4195   -0.1358    0.0847 H   0  0  0  0  0  0  0  0  0  0  0  0
    4.0127    0.1343    1.6578 H   0  0  0  0  0  0  0  0  0  0  0  0
    2.6439   -0.5231    2.5571 H   0  0  0  0  0  0  0  0  0  0  0  0
    1.2432    1.4570    1.8352 H   0  0  0  0  0  0  0  0  0  0  0  0
    2.6170    2.0794    0.9156 H   0  0  0  0  0  0  0  0  0  0  0  0
    3.9576    2.2546    3.0436 H   0  0  0  0  0  0  0  0  0  0  0  0
    2.5990    1.6045    3.9608 H   0  0  0  0  0  0  0  0  0  0  0  0
    1.1848    3.5889    3.2885 H   0  0  0  0  0  0  0  0  0  0  0  0
    2.5353    4.2241    2.3474 H   0  0  0  0  0  0  0  0  0  0  0  0
    3.9125    4.3665    4.4548 H   0  0  0  0  0  0  0  0  0  0  0  0
    2.5369    3.7473    5.3797 H   0  0  0  0  0  0  0  0  0  0  0  0
    2.4789    6.2690    3.8645 H   0  0  0  0  0  0  0  0  0  0  0  0
    2.4754    6.1072    5.4862 H   0  0  0  0  0  0  0  0  0  0  0  0
    5.0936   -1.9088    0.9053 H   0  0  0  0  0  0  0  0  0  0  0  0
    8.5340   -0.1141   -0.9756 H   0  0  0  0  0  0  0  0  0  0  0  0
    4.5713    0.9008   -2.3644 H   0  0  0  0  0  0  0  0  0  0  0  0
  1  2  1  0
  1 19  1  0
  1 20  1  0
  1 21  1  0
  2  3  1  0
  2  9  1  0
  3  4  1  0
  3 22  1  0
  3 23  1  0
  4  5  1  0
  4 24  1  0
  4 25  1  0
  5  6  1  0
  5 26  1  0
  5 27  1  0
  6  7  1  0
  6 28  1  0
  6 29  1  0
  7  8  1  0
  7 30  1  0
  7 31  1  0
  8 32  1  0
  8 33  1  0
  9 10  2  0
  9 11  1  0
 11 12  2  0
 11 18  1  0
 12 13  1  0
 12 34  1  0
 13 14  1  0
 13 15  2  0
 15 16  1  0
 15 35  1  0
 16 17  1  0
 16 18  2  0
 18 36  1  0
M  END

