
     RDKit          3D

 66 71  0  0  0  0  0  0  0  0999 V2000
    1.5744   -0.3254   -0.3608 C   0  0  0  0  0  0  0  0  0  0  0  0
    2.9235    0.0615   -0.2310 O   0  0  0  0  0  0  0  0  0  0  0  0
    3.5972   -0.2455    0.9061 C   0  0  0  0  0  0  0  0  0  0  0  0
    4.9374    0.1735    0.9673 C   0  0  0  0  0  0  0  0  0  0  0  0
    5.7068   -0.0958    2.0940 C   0  0  0  0  0  0  0  0  0  0  0  0
    5.1768   -0.7968    3.1958 C   0  0  0  0  0  0  0  0  0  0  0  0
    6.0073   -1.0215    4.4154 C   0  0  0  0  0  0  0  0  0  0  0  0
    6.4958    0.0819    5.0984 C   0  0  0  0  0  0  0  0  0  0  0  0
    7.1554   -0.0722    6.3310 C   0  0  0  0  0  0  0  0  0  0  0  0
    7.4495   -1.3253    6.8529 C   0  0  0  0  0  0  0  0  0  0  0  0
    7.7898   -1.4013    8.3315 C   0  0  0  0  0  0  0  0  0  0  0  0
    7.2290   -2.2040    9.0626 O   0  0  0  0  0  0  0  0  0  0  0  0
    8.6638   -0.4520    8.7814 N   0  0  0  0  0  0  0  0  0  0  0  0
    8.9947   -0.1802   10.1991 C   0  0  1  0  0  0  0  0  0  0  0  0
    9.6499   -1.4131   10.8480 C   0  0  0  0  0  0  0  0  0  0  0  0
    9.9825    0.9963   10.1955 C   0  0  0  0  0  0  0  0  0  0  0  0
    7.7178    0.2125   10.9659 C   0  0  0  0  0  0  0  0  0  0  0  0
    7.1333   -2.4984    6.0839 C   0  0  0  0  0  0  0  0  0  0  0  0
    6.3024   -2.3341    4.9216 C   0  0  0  0  0  0  0  0  0  0  0  0
    5.7679   -3.5037    4.3010 C   0  0  0  0  0  0  0  0  0  0  0  0
    5.9377   -4.7389    4.8652 C   0  0  0  0  0  0  0  0  0  0  0  0
    6.8115   -4.9374    5.9749 C   0  0  0  0  0  0  0  0  0  0  0  0
    6.9577   -6.2493    6.6079 C   0  0  0  0  0  0  0  0  0  0  0  0
    6.0513   -7.3033    6.3422 C   0  0  0  0  0  0  0  0  0  0  0  0
    6.1258   -8.5118    7.0176 C   0  0  0  0  0  0  0  0  0  0  0  0
    7.1164   -8.7049    7.9944 C   0  0  0  0  0  0  0  0  0  0  0  0
    8.0240   -7.6916    8.2631 C   0  0  0  0  0  0  0  0  0  0  0  0
    7.9801   -6.4577    7.5749 C   0  0  0  0  0  0  0  0  0  0  0  0
    8.9862   -5.4140    7.7708 C   0  0  0  0  0  0  0  0  0  0  0  0
   10.2021   -5.6768    8.4422 C   0  0  0  0  0  0  0  0  0  0  0  0
   11.2180   -4.7355    8.5072 C   0  0  0  0  0  0  0  0  0  0  0  0
   11.0531   -3.4971    7.8679 C   0  0  0  0  0  0  0  0  0  0  0  0
    9.8577   -3.2048    7.2296 C   0  0  0  0  0  0  0  0  0  0  0  0
    8.7812   -4.1243    7.1991 C   0  0  0  0  0  0  0  0  0  0  0  0
    7.5527   -3.8386    6.4546 C   0  0  0  0  0  0  0  0  0  0  0  0
    3.8360   -1.2038    3.1210 C   0  0  0  0  0  0  0  0  0  0  0  0
    3.0475   -0.9370    1.9966 C   0  0  0  0  0  0  0  0  0  0  0  0
    1.2420    0.0237   -1.3478 H   0  0  0  0  0  0  0  0  0  0  0  0
    0.9364    0.1365    0.4143 H   0  0  0  0  0  0  0  0  0  0  0  0
    1.4536   -1.4229   -0.3110 H   0  0  0  0  0  0  0  0  0  0  0  0
    5.3531    0.7085    0.1110 H   0  0  0  0  0  0  0  0  0  0  0  0
    6.7490    0.2326    2.1212 H   0  0  0  0  0  0  0  0  0  0  0  0
    6.2716    1.0854    4.7296 H   0  0  0  0  0  0  0  0  0  0  0  0
    7.3569    0.8187    6.9301 H   0  0  0  0  0  0  0  0  0  0  0  0
    9.1425    0.1027    8.0829 H   0  0  0  0  0  0  0  0  0  0  0  0
   10.5735   -1.6897   10.3167 H   0  0  0  0  0  0  0  0  0  0  0  0
    8.9659   -2.2713   10.8168 H   0  0  0  0  0  0  0  0  0  0  0  0
    9.9048   -1.1984   11.8982 H   0  0  0  0  0  0  0  0  0  0  0  0
   10.9038    0.7412    9.6456 H   0  0  0  0  0  0  0  0  0  0  0  0
   10.2688    1.2568   11.2253 H   0  0  0  0  0  0  0  0  0  0  0  0
    9.5359    1.8921    9.7329 H   0  0  0  0  0  0  0  0  0  0  0  0
    6.9874   -0.6072   10.9402 H   0  0  0  0  0  0  0  0  0  0  0  0
    7.2557    1.1081   10.5204 H   0  0  0  0  0  0  0  0  0  0  0  0
    7.9587    0.4365   12.0172 H   0  0  0  0  0  0  0  0  0  0  0  0
    5.1826   -3.4017    3.3878 H   0  0  0  0  0  0  0  0  0  0  0  0
    5.4512   -5.5988    4.4045 H   0  0  0  0  0  0  0  0  0  0  0  0
    5.2505   -7.1595    5.6165 H   0  0  0  0  0  0  0  0  0  0  0  0
    5.4034   -9.3028    6.8012 H   0  0  0  0  0  0  0  0  0  0  0  0
    7.1699   -9.6465    8.5464 H   0  0  0  0  0  0  0  0  0  0  0  0
    8.7795   -7.8538    9.0325 H   0  0  0  0  0  0  0  0  0  0  0  0
   10.3705   -6.6591    8.8845 H   0  0  0  0  0  0  0  0  0  0  0  0
   12.1539   -4.9751    9.0179 H   0  0  0  0  0  0  0  0  0  0  0  0
   11.8696   -2.7706    7.8537 H   0  0  0  0  0  0  0  0  0  0  0  0
    9.7619   -2.2600    6.6964 H   0  0  0  0  0  0  0  0  0  0  0  0
    3.3848   -1.7269    3.9676 H   0  0  0  0  0  0  0  0  0  0  0  0
    2.0080   -1.2655    1.9881 H   0  0  0  0  0  0  0  0  0  0  0  0
  1  2  1  0
  1 38  1  0
  1 39  1  0
  1 40  1  0
  2  3  1  0
  3  4  2  0
  3 37  1  0
  4  5  1  0
  4 41  1  0
  5  6  2  0
  5 42  1  0
  6  7  1  0
  6 36  1  0
  7  8  2  0
  7 19  1  0
  8  9  1  0
  8 43  1  0
  9 10  2  0
  9 44  1  0
 10 11  1  0
 10 18  1  0
 11 12  2  0
 11 13  1  0
 14 13  1  6
 13 45  1  0
 14 15  1  0
 14 16  1  0
 14 17  1  0
 15 46  1  0
 15 47  1  0
 15 48  1  0
 16 49  1  0
 16 50  1  0
 16 51  1  0
 17 52  1  0
 17 53  1  0
 17 54  1  0
 18 19  2  0
 18 35  1  0
 19 20  1  0
 20 21  2  0
 20 55  1  0
 21 22  1  0
 21 56  1  0
 22 23  1  0
 22 35  2  0
 23 24  2  0
 23 28  1  0
 24 25  1  0
 24 57  1  0
 25 26  2  0
 25 58  1  0
 26 27  1  0
 26 59  1  0
 27 28  2  0
 27 60  1  0
 28 29  1  0
 29 30  1  0
 29 34  2  0
 30 31  2  0
 30 61  1  0
 31 32  1  0
 31 62  1  0
 32 33  2  0
 32 63  1  0
 33 34  1  0
 33 64  1  0
 34 35  1  0
 36 37  2  0
 36 65  1  0
 37 66  1  0
M  END

