
     RDKit          3D

 43 45  0  0  0  0  0  0  0  0999 V2000
   -0.7367    2.6957    6.2845 C   0  0  0  0  0  0  0  0  0  0  0  0
    0.3150    1.9995    6.7455 C   0  0  0  0  0  0  0  0  0  0  0  0
    1.6929    2.0953    6.2530 C   0  0  0  0  0  0  0  0  0  0  0  0
    2.0415    2.6026    4.9573 C   0  0  0  0  0  0  0  0  0  0  0  0
    3.3785    2.5273    4.6658 C   0  0  0  0  0  0  0  0  0  0  0  0
    4.0782    2.9622    3.4008 C   0  0  0  0  0  0  0  0  0  0  0  0
    3.8812    4.3660    3.0745 N   0  0  0  0  0  0  0  0  0  0  0  0
    2.7778    4.7081    2.3597 N   0  0  0  0  0  0  0  0  0  0  0  0
    2.7840    6.0318    2.3190 C   0  0  0  0  0  0  0  0  0  0  0  0
    1.7641    6.7327    1.6893 N   0  0  0  0  0  0  0  0  0  0  0  0
    3.9203    6.5748    3.0090 C   0  0  0  0  0  0  0  0  0  0  0  0
    4.2672    7.9905    3.1716 C   0  0  0  0  0  0  0  0  0  0  0  0
    3.2585    8.9678    3.3353 C   0  0  0  0  0  0  0  0  0  0  0  0
    3.5803   10.3094    3.4957 C   0  0  0  0  0  0  0  0  0  0  0  0
    4.9220   10.7421    3.5030 C   0  0  0  0  0  0  0  0  0  0  0  0
    5.2280   12.1312    3.6744 C   0  0  0  0  0  0  0  0  0  0  0  0
    5.4314   13.2658    3.8162 N   0  0  0  0  0  0  0  0  0  0  0  0
    5.9310    9.7708    3.3331 C   0  0  0  0  0  0  0  0  0  0  0  0
    7.6063   10.2479    3.3128 Cl  0  0  0  0  0  0  0  0  0  0  0  0
    5.6085    8.4262    3.1635 C   0  0  0  0  0  0  0  0  0  0  0  0
    4.5953    5.4430    3.4917 C   0  0  0  0  0  0  0  0  0  0  0  0
    5.8162    5.3188    4.3477 C   0  0  0  0  0  0  0  0  0  0  0  0
    4.2591    1.8233    5.9892 S   0  0  0  0  0  0  0  0  0  0  0  0
    2.8119    1.6352    6.9516 C   0  0  0  0  0  0  0  0  0  0  0  0
    2.9514    1.0668    8.2892 C   0  0  0  0  0  0  0  0  0  0  0  0
    2.1685    1.2987    9.3581 C   0  0  0  0  0  0  0  0  0  0  0  0
   -1.7379    2.5339    6.6913 H   0  0  0  0  0  0  0  0  0  0  0  0
   -0.6394    3.4530    5.5013 H   0  0  0  0  0  0  0  0  0  0  0  0
    0.1503    1.2774    7.5513 H   0  0  0  0  0  0  0  0  0  0  0  0
    1.3157    2.9956    4.2445 H   0  0  0  0  0  0  0  0  0  0  0  0
    3.6904    2.3975    2.5398 H   0  0  0  0  0  0  0  0  0  0  0  0
    5.1564    2.7597    3.4657 H   0  0  0  0  0  0  0  0  0  0  0  0
    1.1873    6.1362    1.1022 H   0  0  0  0  0  0  0  0  0  0  0  0
    2.0666    7.5668    1.1943 H   0  0  0  0  0  0  0  0  0  0  0  0
    2.2124    8.6581    3.3524 H   0  0  0  0  0  0  0  0  0  0  0  0
    2.7904   11.0508    3.6313 H   0  0  0  0  0  0  0  0  0  0  0  0
    6.4190    7.7177    2.9955 H   0  0  0  0  0  0  0  0  0  0  0  0
    6.0300    6.2716    4.8500 H   0  0  0  0  0  0  0  0  0  0  0  0
    6.7103    5.0442    3.7608 H   0  0  0  0  0  0  0  0  0  0  0  0
    5.6823    4.5554    5.1292 H   0  0  0  0  0  0  0  0  0  0  0  0
    3.8103    0.3972    8.4214 H   0  0  0  0  0  0  0  0  0  0  0  0
    1.3307    1.9985    9.3325 H   0  0  0  0  0  0  0  0  0  0  0  0
    2.3701    0.7984   10.3086 H   0  0  0  0  0  0  0  0  0  0  0  0
  1  2  2  0
  1 27  1  0
  1 28  1  0
  2  3  1  0
  2 29  1  0
  3  4  1  0
  3 24  2  0
  4  5  2  0
  4 30  1  0
  5  6  1  0
  5 23  1  0
  6  7  1  0
  6 31  1  0
  6 32  1  0
  7  8  1  0
  7 21  1  0
  8  9  2  0
  9 10  1  0
  9 11  1  0
 10 33  1  0
 10 34  1  0
 11 12  1  0
 11 21  2  0
 12 13  2  0
 12 20  1  0
 13 14  1  0
 13 35  1  0
 14 15  2  0
 14 36  1  0
 15 16  1  0
 15 18  1  0
 16 17  3  0
 18 19  1  0
 18 20  2  0
 20 37  1  0
 21 22  1  0
 22 38  1  0
 22 39  1  0
 22 40  1  0
 23 24  1  0
 24 25  1  0
 25 26  2  0
 25 41  1  0
 26 42  1  0
 26 43  1  0
M  END

