
     RDKit          3D

 43 45  0  0  0  0  0  0  0  0999 V2000
    4.9816    3.5325   -0.3841 C   0  0  0  0  0  0  0  0  0  0  0  0
    4.8085    2.9015   -1.6335 O   0  0  0  0  0  0  0  0  0  0  0  0
    4.9263    1.5537   -1.7199 C   0  0  0  0  0  0  0  0  0  0  0  0
    5.2189    0.7081   -0.6414 C   0  0  0  0  0  0  0  0  0  0  0  0
    5.3129   -0.6742   -0.8593 C   0  0  0  0  0  0  0  0  0  0  0  0
    5.1204   -1.2194   -2.1255 C   0  0  0  0  0  0  0  0  0  0  0  0
    4.8271   -0.3726   -3.2121 C   0  0  0  0  0  0  0  0  0  0  0  0
    4.6653   -0.9286   -4.6257 C   0  0  1  0  0  0  0  0  0  0  0  0
    5.8889   -1.5266   -5.1688 N   0  0  0  0  0  0  0  0  0  0  0  0
    5.7606   -2.9779   -5.2570 C   0  0  2  0  0  0  0  0  0  0  0  0
    6.3523   -3.5783   -6.5291 C   0  0  0  0  0  0  0  0  0  0  0  0
    4.2474   -3.1883   -5.1672 C   0  0  0  0  0  0  0  0  0  0  0  0
    3.6466   -4.2119   -5.4390 O   0  0  0  0  0  0  0  0  0  0  0  0
    3.6950   -2.0167   -4.7282 N   0  0  0  0  0  0  0  0  0  0  0  0
    2.2574   -1.7814   -4.6306 C   0  0  1  0  0  0  0  0  0  0  0  0
    1.4545   -2.0414   -5.9387 C   0  0  0  0  0  0  0  0  0  0  0  0
    0.4739   -3.1528   -5.5339 C   0  0  0  0  0  0  0  0  0  0  0  0
    0.2699   -2.9648   -4.1440 O   0  0  0  0  0  0  0  0  0  0  0  0
    1.5372   -2.6845   -3.5747 C   0  0  2  0  0  0  0  0  0  0  0  0
    1.3388   -2.0554   -2.2085 C   0  0  0  0  0  0  0  0  0  0  0  0
    4.7338    1.0014   -3.0010 C   0  0  0  0  0  0  0  0  0  0  0  0
    4.8401    4.6081   -0.5546 H   0  0  0  0  0  0  0  0  0  0  0  0
    5.9949    3.3655    0.0240 H   0  0  0  0  0  0  0  0  0  0  0  0
    4.2388    3.1871    0.3574 H   0  0  0  0  0  0  0  0  0  0  0  0
    5.3723    1.1055    0.3619 H   0  0  0  0  0  0  0  0  0  0  0  0
    5.5374   -1.3295   -0.0136 H   0  0  0  0  0  0  0  0  0  0  0  0
    5.1843   -2.2998   -2.2730 H   0  0  0  0  0  0  0  0  0  0  0  0
    4.3315   -0.0908   -5.2701 H   0  0  0  0  0  0  0  0  0  0  0  0
    6.7186   -1.2123   -4.6760 H   0  0  0  0  0  0  0  0  0  0  0  0
    6.2026   -3.5052   -4.3838 H   0  0  0  0  0  0  0  0  0  0  0  0
    5.9402   -3.0756   -7.4173 H   0  0  0  0  0  0  0  0  0  0  0  0
    6.1094   -4.6505   -6.5826 H   0  0  0  0  0  0  0  0  0  0  0  0
    7.4472   -3.4622   -6.5449 H   0  0  0  0  0  0  0  0  0  0  0  0
    2.1443   -0.7305   -4.3285 H   0  0  0  0  0  0  0  0  0  0  0  0
    2.1051   -2.3349   -6.7733 H   0  0  0  0  0  0  0  0  0  0  0  0
    0.9101   -1.1307   -6.2305 H   0  0  0  0  0  0  0  0  0  0  0  0
    0.9213   -4.1435   -5.7344 H   0  0  0  0  0  0  0  0  0  0  0  0
   -0.5034   -3.0894   -6.0354 H   0  0  0  0  0  0  0  0  0  0  0  0
    2.1183   -3.6215   -3.4841 H   0  0  0  0  0  0  0  0  0  0  0  0
    0.7532   -1.1259   -2.2953 H   0  0  0  0  0  0  0  0  0  0  0  0
    2.3067   -1.8212   -1.7407 H   0  0  0  0  0  0  0  0  0  0  0  0
    0.7895   -2.7444   -1.5489 H   0  0  0  0  0  0  0  0  0  0  0  0
    4.5097    1.6835   -3.8250 H   0  0  0  0  0  0  0  0  0  0  0  0
  1  2  1  0
  1 22  1  0
  1 23  1  0
  1 24  1  0
  2  3  1  0
  3  4  2  0
  3 21  1  0
  4  5  1  0
  4 25  1  0
  5  6  2  0
  5 26  1  0
  6  7  1  0
  6 27  1  0
  7  8  1  0
  7 21  2  0
  8  9  1  0
  8 14  1  0
  8 28  1  6
  9 10  1  0
  9 29  1  0
 10 11  1  0
 10 12  1  0
 10 30  1  1
 11 31  1  0
 11 32  1  0
 11 33  1  0
 12 13  2  0
 12 14  1  0
 14 15  1  0
 15 16  1  0
 15 19  1  0
 15 34  1  1
 16 17  1  0
 16 35  1  0
 16 36  1  0
 17 18  1  0
 17 37  1  0
 17 38  1  0
 18 19  1  0
 19 20  1  0
 19 39  1  1
 20 40  1  0
 20 41  1  0
 20 42  1  0
 21 43  1  0
M  END

