
     RDKit          3D

 29 30  0  0  0  0  0  0  0  0999 V2000
    2.8463   -0.9660   -0.9820 O   0  0  0  0  0  0  0  0  0  0  0  0
    2.3572   -0.5054    0.0236 C   0  0  0  0  0  0  0  0  0  0  0  0
    0.9108   -0.2999    0.2690 C   0  0  0  0  0  0  0  0  0  0  0  0
    0.0262   -0.6375   -0.6840 C   0  0  0  0  0  0  0  0  0  0  0  0
   -1.7032   -0.4440   -0.5167 S   0  0  0  0  0  0  0  0  0  0  0  0
   -2.2386   -1.0904   -2.1408 C   0  0  0  0  0  0  0  0  0  0  0  0
   -1.5026   -1.4986   -2.9842 O   0  0  0  0  0  0  0  0  0  0  0  0
   -3.5694   -1.0556   -2.2787 O   0  0  0  0  0  0  0  0  0  0  0  0
    3.0830   -0.1004    1.0906 O   0  0  0  0  0  0  0  0  0  0  0  0
    4.5124   -0.2251    0.9936 C   0  0  2  0  0  0  0  0  0  0  0  0
    4.9854   -1.6328    1.3497 C   0  0  0  0  0  0  0  0  0  0  0  0
    5.0218   -1.6860    2.7702 O   0  0  0  0  0  0  0  0  0  0  0  0
    5.0926   -0.3759    3.3328 C   0  0  1  0  0  0  0  0  0  0  0  0
    6.4446   -0.1162    3.9973 C   0  0  0  0  0  0  0  0  0  0  0  0
    7.3215    0.2456    2.7980 C   0  0  0  0  0  0  0  0  0  0  0  0
    6.4573    0.9256    1.8862 O   0  0  0  0  0  0  0  0  0  0  0  0
    5.0974    0.6032    2.1393 C   0  0  1  0  0  0  0  0  0  0  0  0
    0.6193    0.1250    1.2319 H   0  0  0  0  0  0  0  0  0  0  0  0
    0.3523   -1.0624   -1.6406 H   0  0  0  0  0  0  0  0  0  0  0  0
   -4.0008   -0.6922   -1.4891 H   0  0  0  0  0  0  0  0  0  0  0  0
    4.8507    0.1076    0.0036 H   0  0  0  0  0  0  0  0  0  0  0  0
    5.9905   -1.8004    0.9173 H   0  0  0  0  0  0  0  0  0  0  0  0
    4.3148   -2.4172    0.9706 H   0  0  0  0  0  0  0  0  0  0  0  0
    4.2394   -0.2360    4.0161 H   0  0  0  0  0  0  0  0  0  0  0  0
    6.7993   -0.9927    4.5574 H   0  0  0  0  0  0  0  0  0  0  0  0
    6.3593    0.7367    4.6906 H   0  0  0  0  0  0  0  0  0  0  0  0
    7.7409   -0.6634    2.3261 H   0  0  0  0  0  0  0  0  0  0  0  0
    8.1585    0.9163    3.0463 H   0  0  0  0  0  0  0  0  0  0  0  0
    4.5144    1.5238    2.3048 H   0  0  0  0  0  0  0  0  0  0  0  0
  1  2  2  0
  2  3  1  0
  2  9  1  0
  3  4  2  0
  3 18  1  0
  4  5  1  0
  4 19  1  0
  5  6  2  0
  6  7  1  0
  6  8  1  0
  8 20  1  0
  9 10  1  0
 10 11  1  0
 10 17  1  0
 10 21  1  6
 11 12  1  0
 11 22  1  0
 11 23  1  0
 12 13  1  0
 13 14  1  0
 13 17  1  0
 13 24  1  1
 14 15  1  0
 14 25  1  0
 14 26  1  0
 15 16  1  0
 15 27  1  0
 15 28  1  0
 16 17  1  0
 17 29  1  1
M  CHG  2   5   1   7  -1
M  END

