
     RDKit          3D

 28 28  0  0  0  0  0  0  0  0999 V2000
    2.9552    0.7859   -0.5404 N   0  0  0  0  0  0  0  0  0  0  0  0
    4.1773    0.9923   -1.0863 C   0  0  0  0  0  0  0  0  0  0  0  0
    4.4011    1.6942   -2.0534 O   0  0  0  0  0  0  0  0  0  0  0  0
    5.3362    0.2671   -0.3989 C   0  0  0  0  0  0  0  0  0  0  0  0
    4.8812   -0.5035    0.6990 O   0  0  0  0  0  0  0  0  0  0  0  0
    5.7609   -1.2188    1.4426 C   0  0  0  0  0  0  0  0  0  0  0  0
    7.1430   -1.2636    1.2007 C   0  0  0  0  0  0  0  0  0  0  0  0
    7.9536   -2.0318    2.0329 C   0  0  0  0  0  0  0  0  0  0  0  0
    7.4373   -2.7804    3.1148 C   0  0  0  0  0  0  0  0  0  0  0  0
    8.4198   -3.5440    3.8826 C   0  0  0  0  0  0  0  0  0  0  0  0
    8.3992   -4.4785    4.8772 C   0  0  0  0  0  0  0  0  0  0  0  0
   10.0039   -5.2149    5.2976 S   0  0  0  0  0  0  0  0  0  0  0  0
    7.2023   -5.0537    5.5834 C   0  0  0  0  0  0  0  0  0  0  0  0
    6.1145   -4.5278    5.6205 O   0  0  0  0  0  0  0  0  0  0  0  0
    7.4025   -6.2243    6.2074 O   0  0  0  0  0  0  0  0  0  0  0  0
    6.0404   -2.7087    3.3424 C   0  0  0  0  0  0  0  0  0  0  0  0
    5.2246   -1.9458    2.5210 C   0  0  0  0  0  0  0  0  0  0  0  0
    2.1532    1.2411   -0.9591 H   0  0  0  0  0  0  0  0  0  0  0  0
    2.8430    0.1833    0.2643 H   0  0  0  0  0  0  0  0  0  0  0  0
    6.0628    1.0346   -0.0787 H   0  0  0  0  0  0  0  0  0  0  0  0
    5.8275   -0.3654   -1.1591 H   0  0  0  0  0  0  0  0  0  0  0  0
    7.5925   -0.7094    0.3771 H   0  0  0  0  0  0  0  0  0  0  0  0
    9.0282   -2.0580    1.8326 H   0  0  0  0  0  0  0  0  0  0  0  0
    9.4373   -3.3265    3.5407 H   0  0  0  0  0  0  0  0  0  0  0  0
   10.1128   -4.7179    6.5572 H   0  0  0  0  0  0  0  0  0  0  0  0
    8.3286   -6.5039    6.0669 H   0  0  0  0  0  0  0  0  0  0  0  0
    5.6144   -3.2529    4.1827 H   0  0  0  0  0  0  0  0  0  0  0  0
    4.1493   -1.8915    2.7031 H   0  0  0  0  0  0  0  0  0  0  0  0
  1  2  1  0
  1 18  1  0
  1 19  1  0
  2  3  2  0
  2  4  1  0
  4  5  1  0
  4 20  1  0
  4 21  1  0
  5  6  1  0
  6  7  2  0
  6 17  1  0
  7  8  1  0
  7 22  1  0
  8  9  2  0
  8 23  1  0
  9 10  1  0
  9 16  1  0
 10 11  2  0
 10 24  1  0
 11 12  1  0
 11 13  1  0
 12 25  1  0
 13 14  2  0
 13 15  1  0
 15 26  1  0
 16 17  2  0
 16 27  1  0
 17 28  1  0
M  END

