
     RDKit          3D

 37 38  0  0  0  0  0  0  0  0999 V2000
    1.7784   -0.3927    2.0892 C   0  0  0  0  0  0  0  0  0  0  0  0
    2.9434   -0.1055    1.1755 C   0  0  0  0  0  0  0  0  0  0  0  0
    3.6563    1.0956    1.2498 C   0  0  0  0  0  0  0  0  0  0  0  0
    4.7301    1.2846    0.3665 C   0  0  0  0  0  0  0  0  0  0  0  0
    5.0533    0.2963   -0.5481 C   0  0  0  0  0  0  0  0  0  0  0  0
    4.2728   -0.8901   -0.5536 C   0  0  0  0  0  0  0  0  0  0  0  0
    4.5324   -1.8900   -1.4565 N   0  0  0  0  0  0  0  0  0  0  0  0
    3.8291   -3.1566   -1.4853 C   0  0  0  0  0  0  0  0  0  0  0  0
    4.3098   -4.1704   -0.4364 C   0  0  0  0  0  0  0  0  0  0  0  0
    3.5839   -5.5033   -0.5238 C   0  0  0  0  0  0  0  0  0  0  0  0
    3.8409   -6.0883   -1.7882 O   0  0  0  0  0  0  0  0  0  0  0  0
    3.1432   -7.2767   -2.0579 C   0  0  1  0  0  0  0  0  0  0  0  0
    3.3024   -7.6790   -3.5250 C   0  0  0  0  0  0  0  0  0  0  0  0
    3.0139   -9.1824   -3.4921 C   0  0  0  0  0  0  0  0  0  0  0  0
    3.3131   -9.6259   -2.1666 O   0  0  0  0  0  0  0  0  0  0  0  0
    3.6905   -8.5328   -1.3515 C   0  0  0  0  0  0  0  0  0  0  0  0
    3.2543   -1.0709    0.2963 N   0  0  0  0  0  0  0  0  0  0  0  0
    1.5731    0.4439    2.7723 H   0  0  0  0  0  0  0  0  0  0  0  0
    1.9768   -1.2968    2.6879 H   0  0  0  0  0  0  0  0  0  0  0  0
    0.8718   -0.5979    1.4972 H   0  0  0  0  0  0  0  0  0  0  0  0
    3.3835    1.8612    1.9783 H   0  0  0  0  0  0  0  0  0  0  0  0
    5.3111    2.2107    0.3964 H   0  0  0  0  0  0  0  0  0  0  0  0
    5.8800    0.4208   -1.2521 H   0  0  0  0  0  0  0  0  0  0  0  0
    5.3641   -1.7942   -2.0230 H   0  0  0  0  0  0  0  0  0  0  0  0
    3.9426   -3.5912   -2.4898 H   0  0  0  0  0  0  0  0  0  0  0  0
    2.7575   -2.9577   -1.3275 H   0  0  0  0  0  0  0  0  0  0  0  0
    4.1525   -3.7469    0.5683 H   0  0  0  0  0  0  0  0  0  0  0  0
    5.3934   -4.3438   -0.5565 H   0  0  0  0  0  0  0  0  0  0  0  0
    2.4910   -5.3564   -0.3913 H   0  0  0  0  0  0  0  0  0  0  0  0
    3.9203   -6.1708    0.2944 H   0  0  0  0  0  0  0  0  0  0  0  0
    2.0686   -7.1519   -1.8092 H   0  0  0  0  0  0  0  0  0  0  0  0
    4.3448   -7.4731   -3.8174 H   0  0  0  0  0  0  0  0  0  0  0  0
    2.6403   -7.1206   -4.2027 H   0  0  0  0  0  0  0  0  0  0  0  0
    3.6230   -9.7467   -4.2196 H   0  0  0  0  0  0  0  0  0  0  0  0
    1.9513   -9.3988   -3.7111 H   0  0  0  0  0  0  0  0  0  0  0  0
    4.7935   -8.4380   -1.2710 H   0  0  0  0  0  0  0  0  0  0  0  0
    3.2834   -8.6914   -0.3396 H   0  0  0  0  0  0  0  0  0  0  0  0
  1  2  1  0
  1 18  1  0
  1 19  1  0
  1 20  1  0
  2  3  2  0
  2 17  1  0
  3  4  1  0
  3 21  1  0
  4  5  2  0
  4 22  1  0
  5  6  1  0
  5 23  1  0
  6  7  1  0
  6 17  2  0
  7  8  1  0
  7 24  1  0
  8  9  1  0
  8 25  1  0
  8 26  1  0
  9 10  1  0
  9 27  1  0
  9 28  1  0
 10 11  1  0
 10 29  1  0
 10 30  1  0
 11 12  1  0
 12 13  1  0
 12 16  1  0
 12 31  1  1
 13 14  1  0
 13 32  1  0
 13 33  1  0
 14 15  1  0
 14 34  1  0
 14 35  1  0
 15 16  1  0
 16 36  1  0
 16 37  1  0
M  END

