
     RDKit          3D

 66 72  0  0  0  0  0  0  0  0999 V2000
    1.2046   -2.3960   -0.0824 C   0  0  0  0  0  0  0  0  0  0  0  0
    2.7058   -2.1667   -0.2735 C   0  0  0  0  0  0  0  0  0  0  0  0
    3.2518   -1.1156    0.5667 N   0  0  0  0  0  0  0  0  0  0  0  0
    3.2964    0.2384    0.2444 C   0  0  0  0  0  0  0  0  0  0  0  0
    2.8921    0.8882   -0.9291 C   0  0  0  0  0  0  0  0  0  0  0  0
    3.0621    2.2720   -1.0006 C   0  0  0  0  0  0  0  0  0  0  0  0
    3.6176    2.9987    0.0688 C   0  0  0  0  0  0  0  0  0  0  0  0
    4.0151    2.3493    1.2377 C   0  0  0  0  0  0  0  0  0  0  0  0
    3.8559    0.9603    1.3360 C   0  0  0  0  0  0  0  0  0  0  0  0
    4.1472   -0.0176    2.3679 C   0  0  0  0  0  0  0  0  0  0  0  0
    4.6969    0.0664    3.6495 C   0  0  0  0  0  0  0  0  0  0  0  0
    4.8569   -1.0931    4.4254 C   0  0  0  0  0  0  0  0  0  0  0  0
    5.4347   -1.0548    5.7948 C   0  0  0  0  0  0  0  0  0  0  0  0
    5.7291    0.1401    6.4642 C   0  0  0  0  0  0  0  0  0  0  0  0
    6.2796    0.0627    7.7578 C   0  0  0  0  0  0  0  0  0  0  0  0
    6.6321    1.2665    8.5570 C   0  0  0  0  0  0  0  0  0  0  0  0
    7.1940    1.0888    9.8464 C   0  0  0  0  0  0  0  0  0  0  0  0
    7.5494    2.1624   10.6546 C   0  0  0  0  0  0  0  0  0  0  0  0
    7.3415    3.4595   10.1623 C   0  0  0  0  0  0  0  0  0  0  0  0
    6.7743    3.6684    8.8734 C   0  0  0  0  0  0  0  0  0  0  0  0
    6.4263    2.5712    8.0812 C   0  0  0  0  0  0  0  0  0  0  0  0
    6.6937    5.1054    8.6875 C   0  0  0  0  0  0  0  0  0  0  0  0
    6.2386    5.9294    7.6492 C   0  0  0  0  0  0  0  0  0  0  0  0
    6.3050    7.3147    7.8006 C   0  0  0  0  0  0  0  0  0  0  0  0
    6.8210    7.8822    8.9804 C   0  0  0  0  0  0  0  0  0  0  0  0
    7.2806    7.0849   10.0303 C   0  0  0  0  0  0  0  0  0  0  0  0
    7.2165    5.6941    9.8734 C   0  0  0  0  0  0  0  0  0  0  0  0
    7.6137    4.6857   10.7474 N   0  0  0  0  0  0  0  0  0  0  0  0
    8.1536    4.8864   12.0805 C   0  0  0  0  0  0  0  0  0  0  0  0
    7.0865    4.9778   13.1740 C   0  0  0  0  0  0  0  0  0  0  0  0
    6.5088   -1.1291    8.3250 N   0  0  0  0  0  0  0  0  0  0  0  0
    6.1894   -2.2081    7.6155 C   0  0  0  0  0  0  0  0  0  0  0  0
    6.4384   -3.3693    8.2407 O   0  0  0  0  0  0  0  0  0  0  0  0
    6.1336   -4.5784    7.5656 C   0  0  0  0  0  0  0  0  0  0  0  0
    5.6696   -2.2389    6.3939 N   0  0  0  0  0  0  0  0  0  0  0  0
    4.4554   -2.3384    3.8808 C   0  0  0  0  0  0  0  0  0  0  0  0
    3.9024   -2.4505    2.6099 C   0  0  0  0  0  0  0  0  0  0  0  0
    3.7512   -1.2826    1.8482 C   0  0  0  0  0  0  0  0  0  0  0  0
    0.8530   -3.2016   -0.7466 H   0  0  0  0  0  0  0  0  0  0  0  0
    0.6314   -1.4853   -0.3154 H   0  0  0  0  0  0  0  0  0  0  0  0
    0.9767   -2.6837    0.9556 H   0  0  0  0  0  0  0  0  0  0  0  0
    2.9248   -1.9102   -1.3222 H   0  0  0  0  0  0  0  0  0  0  0  0
    3.2651   -3.0922   -0.0640 H   0  0  0  0  0  0  0  0  0  0  0  0
    2.4543    0.3398   -1.7654 H   0  0  0  0  0  0  0  0  0  0  0  0
    2.7543    2.8002   -1.9067 H   0  0  0  0  0  0  0  0  0  0  0  0
    3.7360    4.0812   -0.0191 H   0  0  0  0  0  0  0  0  0  0  0  0
    4.4453    2.9174    2.0666 H   0  0  0  0  0  0  0  0  0  0  0  0
    5.0069    1.0410    4.0296 H   0  0  0  0  0  0  0  0  0  0  0  0
    5.5292    1.1013    6.0002 H   0  0  0  0  0  0  0  0  0  0  0  0
    7.3396    0.0652   10.1927 H   0  0  0  0  0  0  0  0  0  0  0  0
    7.9746    1.9871   11.6447 H   0  0  0  0  0  0  0  0  0  0  0  0
    5.9939    2.7473    7.0951 H   0  0  0  0  0  0  0  0  0  0  0  0
    5.8358    5.4926    6.7318 H   0  0  0  0  0  0  0  0  0  0  0  0
    5.9521    7.9671    6.9984 H   0  0  0  0  0  0  0  0  0  0  0  0
    6.8616    8.9699    9.0805 H   0  0  0  0  0  0  0  0  0  0  0  0
    7.6726    7.5405   10.9417 H   0  0  0  0  0  0  0  0  0  0  0  0
    8.7658    5.8021   12.0636 H   0  0  0  0  0  0  0  0  0  0  0  0
    8.8495    4.0593   12.2917 H   0  0  0  0  0  0  0  0  0  0  0  0
    6.4001    5.8186   12.9893 H   0  0  0  0  0  0  0  0  0  0  0  0
    7.5588    5.1305   14.1576 H   0  0  0  0  0  0  0  0  0  0  0  0
    6.4878    4.0550   13.2211 H   0  0  0  0  0  0  0  0  0  0  0  0
    6.4251   -5.3864    8.2500 H   0  0  0  0  0  0  0  0  0  0  0  0
    6.6936   -4.6660    6.6209 H   0  0  0  0  0  0  0  0  0  0  0  0
    5.0586   -4.6526    7.3357 H   0  0  0  0  0  0  0  0  0  0  0  0
    4.5907   -3.2262    4.4984 H   0  0  0  0  0  0  0  0  0  0  0  0
    3.5962   -3.4264    2.2281 H   0  0  0  0  0  0  0  0  0  0  0  0
  1  2  1  0
  1 39  1  0
  1 40  1  0
  1 41  1  0
  2  3  1  0
  2 42  1  0
  2 43  1  0
  3  4  1  0
  3 38  1  0
  4  5  2  0
  4  9  1  0
  5  6  1  0
  5 44  1  0
  6  7  2  0
  6 45  1  0
  7  8  1  0
  7 46  1  0
  8  9  2  0
  8 47  1  0
  9 10  1  0
 10 11  1  0
 10 38  2  0
 11 12  2  0
 11 48  1  0
 12 13  1  0
 12 36  1  0
 13 14  2  0
 13 35  1  0
 14 15  1  0
 14 49  1  0
 15 16  1  0
 15 31  2  0
 16 17  2  0
 16 21  1  0
 17 18  1  0
 17 50  1  0
 18 19  2  0
 18 51  1  0
 19 20  1  0
 19 28  1  0
 20 21  2  0
 20 22  1  0
 21 52  1  0
 22 23  2  0
 22 27  1  0
 23 24  1  0
 23 53  1  0
 24 25  2  0
 24 54  1  0
 25 26  1  0
 25 55  1  0
 26 27  2  0
 26 56  1  0
 27 28  1  0
 28 29  1  0
 29 30  1  0
 29 57  1  0
 29 58  1  0
 30 59  1  0
 30 60  1  0
 30 61  1  0
 31 32  1  0
 32 33  1  0
 32 35  2  0
 33 34  1  0
 34 62  1  0
 34 63  1  0
 34 64  1  0
 36 37  2  0
 36 65  1  0
 37 38  1  0
 37 66  1  0
M  END

