
     RDKit          3D

 57 62  0  0  0  0  0  0  0  0999 V2000
    2.6079   -0.1923   -1.0788 O   0  0  0  0  0  0  0  0  0  0  0  0
    2.4526   -0.0841    0.1135 C   0  0  0  0  0  0  0  0  0  0  0  0
    2.2665   -1.1857    1.1171 C   0  0  0  0  0  0  0  0  0  0  0  0
    2.1099   -0.6479    2.3318 C   0  0  0  0  0  0  0  0  0  0  0  0
    2.2024    0.8457    2.2176 C   0  0  0  0  0  0  0  0  0  0  0  0
    2.1478    1.6616    3.0997 O   0  0  0  0  0  0  0  0  0  0  0  0
    2.4027    1.1171    0.8421 N   0  0  0  0  0  0  0  0  0  0  0  0
    2.5165    2.4256    0.3019 C   0  0  0  0  0  0  0  0  0  0  0  0
    3.4765    3.3001    0.8305 C   0  0  0  0  0  0  0  0  0  0  0  0
    3.6323    4.5851    0.3213 C   0  0  0  0  0  0  0  0  0  0  0  0
    2.8364    5.0366   -0.7432 C   0  0  0  0  0  0  0  0  0  0  0  0
    3.0360    6.4162   -1.3448 C   0  0  0  0  0  0  0  0  0  0  0  0
    3.0617    7.5602   -0.3473 C   0  0  0  0  0  0  0  0  0  0  0  0
    2.0360    7.7240    0.5971 C   0  0  0  0  0  0  0  0  0  0  0  0
    2.0422    8.8041    1.4734 C   0  0  0  0  0  0  0  0  0  0  0  0
    3.0749    9.7520    1.4438 C   0  0  0  0  0  0  0  0  0  0  0  0
    3.0320   10.8479    2.3459 N   0  0  0  0  0  0  0  0  0  0  0  0
    2.9108   10.7100    3.7503 C   0  0  0  0  0  0  0  0  0  0  0  0
    2.7852    9.6761    4.3519 O   0  0  0  0  0  0  0  0  0  0  0  0
    2.9381   12.1049    4.3033 C   0  0  0  0  0  0  0  0  0  0  0  0
    3.0459   12.9709    3.2895 C   0  0  0  0  0  0  0  0  0  0  0  0
    3.1180   12.2074    1.9982 C   0  0  0  0  0  0  0  0  0  0  0  0
    3.2324   12.6552    0.8831 O   0  0  0  0  0  0  0  0  0  0  0  0
    4.1315    9.5775    0.5292 C   0  0  0  0  0  0  0  0  0  0  0  0
    5.2265   10.4805    0.4659 N   0  0  0  0  0  0  0  0  0  0  0  0
    6.0509   10.8562    1.5415 C   0  0  0  0  0  0  0  0  0  0  0  0
    5.9694   10.4591    2.6783 O   0  0  0  0  0  0  0  0  0  0  0  0
    7.0345   11.8446    0.9841 C   0  0  0  0  0  0  0  0  0  0  0  0
    6.7806   12.0273   -0.3164 C   0  0  0  0  0  0  0  0  0  0  0  0
    5.6248   11.1561   -0.7131 C   0  0  0  0  0  0  0  0  0  0  0  0
    5.1388   11.0214   -1.8053 O   0  0  0  0  0  0  0  0  0  0  0  0
    4.1023    8.4927   -0.3585 C   0  0  0  0  0  0  0  0  0  0  0  0
    1.8638    4.1717   -1.2518 C   0  0  0  0  0  0  0  0  0  0  0  0
    1.6831    2.8797   -0.7386 C   0  0  0  0  0  0  0  0  0  0  0  0
    0.6677    2.0594   -1.2994 N   0  0  0  0  0  0  0  0  0  0  0  0
   -0.3585    1.4126   -0.5881 C   0  0  0  0  0  0  0  0  0  0  0  0
   -0.5478    1.4664    0.6027 O   0  0  0  0  0  0  0  0  0  0  0  0
   -1.1525    0.6489   -1.6088 C   0  0  0  0  0  0  0  0  0  0  0  0
   -0.6089    0.8390   -2.8162 C   0  0  0  0  0  0  0  0  0  0  0  0
    0.5691    1.7587   -2.6796 C   0  0  0  0  0  0  0  0  0  0  0  0
    1.2791    2.1880   -3.5507 O   0  0  0  0  0  0  0  0  0  0  0  0
    2.2702   -2.2334    0.8177 H   0  0  0  0  0  0  0  0  0  0  0  0
    1.9509   -1.1370    3.2923 H   0  0  0  0  0  0  0  0  0  0  0  0
    4.1067    2.9561    1.6511 H   0  0  0  0  0  0  0  0  0  0  0  0
    4.3879    5.2446    0.7549 H   0  0  0  0  0  0  0  0  0  0  0  0
    2.2364    6.6000   -2.0822 H   0  0  0  0  0  0  0  0  0  0  0  0
    3.9781    6.4251   -1.9187 H   0  0  0  0  0  0  0  0  0  0  0  0
    1.2185    7.0006    0.6448 H   0  0  0  0  0  0  0  0  0  0  0  0
    1.2354    8.9272    2.1964 H   0  0  0  0  0  0  0  0  0  0  0  0
    2.8644   12.2949    5.3736 H   0  0  0  0  0  0  0  0  0  0  0  0
    3.0838   14.0596    3.3083 H   0  0  0  0  0  0  0  0  0  0  0  0
    7.8029   12.2962    1.6108 H   0  0  0  0  0  0  0  0  0  0  0  0
    7.2850   12.6682   -1.0388 H   0  0  0  0  0  0  0  0  0  0  0  0
    4.9193    8.3858   -1.0734 H   0  0  0  0  0  0  0  0  0  0  0  0
    1.2221    4.4982   -2.0715 H   0  0  0  0  0  0  0  0  0  0  0  0
   -2.0215    0.0563   -1.3249 H   0  0  0  0  0  0  0  0  0  0  0  0
   -0.9136    0.4436   -3.7846 H   0  0  0  0  0  0  0  0  0  0  0  0
  1  2  2  0
  2  3  1  0
  2  7  1  0
  3  4  2  0
  3 42  1  0
  4  5  1  0
  4 43  1  0
  5  6  2  0
  5  7  1  0
  7  8  1  0
  8  9  2  0
  8 34  1  0
  9 10  1  0
  9 44  1  0
 10 11  2  0
 10 45  1  0
 11 12  1  0
 11 33  1  0
 12 13  1  0
 12 46  1  0
 12 47  1  0
 13 14  2  0
 13 32  1  0
 14 15  1  0
 14 48  1  0
 15 16  2  0
 15 49  1  0
 16 17  1  0
 16 24  1  0
 17 18  1  0
 17 22  1  0
 18 19  2  0
 18 20  1  0
 20 21  2  0
 20 50  1  0
 21 22  1  0
 21 51  1  0
 22 23  2  0
 24 25  1  0
 24 32  2  0
 25 26  1  0
 25 30  1  0
 26 27  2  0
 26 28  1  0
 28 29  2  0
 28 52  1  0
 29 30  1  0
 29 53  1  0
 30 31  2  0
 32 54  1  0
 33 34  2  0
 33 55  1  0
 34 35  1  0
 35 36  1  0
 35 40  1  0
 36 37  2  0
 36 38  1  0
 38 39  2  0
 38 56  1  0
 39 40  1  0
 39 57  1  0
 40 41  2  0
M  END

