
     RDKit          3D

 18 17  0  0  0  0  0  0  0  0999 V2000
    0.9179   -0.3370    0.0123 C   0  0  0  0  0  0  0  0  0  0  0  0
    2.0827    0.6650    0.0612 C   0  0  0  0  0  0  0  0  0  0  0  0
    2.9216    0.6240   -1.1852 C   0  0  0  0  0  0  0  0  0  0  0  0
    4.2275    0.3561   -1.3888 C   0  0  0  0  0  0  0  0  0  0  0  0
    5.3378    0.0084   -0.4661 C   0  0  0  0  0  0  0  0  0  0  0  0
    5.1221   -0.1273    1.0239 C   0  0  0  0  0  0  0  0  0  0  0  0
    6.5273   -0.1945   -0.9030 N   0  0  0  0  0  0  0  0  0  0  0  0
    0.2778   -0.2396    0.9034 H   0  0  0  0  0  0  0  0  0  0  0  0
    1.2869   -1.3743   -0.0298 H   0  0  0  0  0  0  0  0  0  0  0  0
    0.2838   -0.1742   -0.8748 H   0  0  0  0  0  0  0  0  0  0  0  0
    2.6787    0.4986    0.9659 H   0  0  0  0  0  0  0  0  0  0  0  0
    1.6635    1.6850    0.1500 H   0  0  0  0  0  0  0  0  0  0  0  0
    2.3471    0.8444   -2.0956 H   0  0  0  0  0  0  0  0  0  0  0  0
    4.5620    0.3981   -2.4334 H   0  0  0  0  0  0  0  0  0  0  0  0
    4.7766    0.8200    1.4682 H   0  0  0  0  0  0  0  0  0  0  0  0
    6.0761   -0.4098    1.4875 H   0  0  0  0  0  0  0  0  0  0  0  0
    4.3692   -0.8978    1.2547 H   0  0  0  0  0  0  0  0  0  0  0  0
    6.5561   -0.0758   -1.9238 H   0  0  0  0  0  0  0  0  0  0  0  0
  1  2  1  0
  1  8  1  0
  1  9  1  0
  1 10  1  0
  2  3  1  0
  2 11  1  0
  2 12  1  0
  3  4  2  0
  3 13  1  0
  4  5  1  0
  4 14  1  0
  5  6  1  0
  5  7  2  0
  6 15  1  0
  6 16  1  0
  6 17  1  0
  7 18  1  0
M  END

