
     RDKit          3D

 44 44  0  0  0  0  0  0  0  0999 V2000
    2.9199    4.9757   -0.2875 C   0  0  0  0  0  0  0  0  0  0  0  0
    3.1049    3.5361   -0.2646 N   0  0  0  0  0  0  0  0  0  0  0  0
    4.2957    3.0763    0.4330 C   0  0  1  0  0  0  0  0  0  0  0  0
    4.2145    3.2149    1.9613 C   0  0  0  0  0  0  0  0  0  0  0  0
    5.3371    2.2975    2.4651 C   0  0  0  0  0  0  0  0  0  0  0  0
    5.3666    1.1096    1.4684 C   0  0  0  0  0  0  0  0  0  0  0  0
    4.5452    1.5633    0.2295 C   0  0  2  0  0  0  0  0  0  0  0  0
    5.1926    1.2358   -1.1227 C   0  0  0  0  0  0  0  0  0  0  0  0
    5.3235   -0.1919   -1.3967 N   0  0  0  0  0  0  0  0  0  0  0  0
    4.0622   -0.8262   -1.7279 C   0  0  0  0  0  0  0  0  0  0  0  0
    6.4295   -0.5726   -2.2937 C   0  0  1  0  0  0  0  0  0  0  0  0
    6.4579    0.1809   -3.6367 C   0  0  0  0  0  0  0  0  0  0  0  0
    7.7912   -0.4861   -1.5777 C   0  0  0  0  0  0  0  0  0  0  0  0
    7.8980   -1.4358   -0.3856 C   0  0  0  0  0  0  0  0  0  0  0  0
    9.3812   -1.0431    0.6150 S   0  0  0  0  0  0  0  0  0  0  0  0
    9.2041   -2.2898    1.9287 C   0  0  0  0  0  0  0  0  0  0  0  0
    2.0456    5.2297   -0.9075 H   0  0  0  0  0  0  0  0  0  0  0  0
    3.7933    5.5457   -0.6792 H   0  0  0  0  0  0  0  0  0  0  0  0
    2.7165    5.3546    0.7273 H   0  0  0  0  0  0  0  0  0  0  0  0
    3.1126    3.1817   -1.2195 H   0  0  0  0  0  0  0  0  0  0  0  0
    5.2071    3.6291    0.0936 H   0  0  0  0  0  0  0  0  0  0  0  0
    3.2246    2.8471    2.2830 H   0  0  0  0  0  0  0  0  0  0  0  0
    4.3153    4.2527    2.3163 H   0  0  0  0  0  0  0  0  0  0  0  0
    5.1873    1.9789    3.5082 H   0  0  0  0  0  0  0  0  0  0  0  0
    6.2981    2.8376    2.4367 H   0  0  0  0  0  0  0  0  0  0  0  0
    4.9280    0.2018    1.9103 H   0  0  0  0  0  0  0  0  0  0  0  0
    6.4001    0.8470    1.1939 H   0  0  0  0  0  0  0  0  0  0  0  0
    3.5453    1.0989    0.2707 H   0  0  0  0  0  0  0  0  0  0  0  0
    6.1969    1.6882   -1.1291 H   0  0  0  0  0  0  0  0  0  0  0  0
    4.6237    1.7498   -1.9333 H   0  0  0  0  0  0  0  0  0  0  0  0
    3.3211   -0.6481   -0.9341 H   0  0  0  0  0  0  0  0  0  0  0  0
    4.1958   -1.9162   -1.8118 H   0  0  0  0  0  0  0  0  0  0  0  0
    3.6114   -0.4653   -2.6814 H   0  0  0  0  0  0  0  0  0  0  0  0
    6.2587   -1.6392   -2.5226 H   0  0  0  0  0  0  0  0  0  0  0  0
    6.7335    1.2395   -3.5049 H   0  0  0  0  0  0  0  0  0  0  0  0
    5.4781    0.1465   -4.1388 H   0  0  0  0  0  0  0  0  0  0  0  0
    7.1969   -0.2692   -4.3185 H   0  0  0  0  0  0  0  0  0  0  0  0
    7.9664    0.5508   -1.2420 H   0  0  0  0  0  0  0  0  0  0  0  0
    8.5916   -0.7057   -2.3040 H   0  0  0  0  0  0  0  0  0  0  0  0
    7.9589   -2.4825   -0.7304 H   0  0  0  0  0  0  0  0  0  0  0  0
    6.9995   -1.3353    0.2419 H   0  0  0  0  0  0  0  0  0  0  0  0
   10.0398   -2.1430    2.6281 H   0  0  0  0  0  0  0  0  0  0  0  0
    9.2588   -3.3130    1.5242 H   0  0  0  0  0  0  0  0  0  0  0  0
    8.2574   -2.1630    2.4767 H   0  0  0  0  0  0  0  0  0  0  0  0
  1  2  1  0
  1 17  1  0
  1 18  1  0
  1 19  1  0
  2  3  1  0
  2 20  1  0
  3  4  1  0
  3  7  1  0
  3 21  1  6
  4  5  1  0
  4 22  1  0
  4 23  1  0
  5  6  1  0
  5 24  1  0
  5 25  1  0
  6  7  1  0
  6 26  1  0
  6 27  1  0
  7  8  1  0
  7 28  1  6
  8  9  1  0
  8 29  1  0
  8 30  1  0
  9 10  1  0
  9 11  1  0
 10 31  1  0
 10 32  1  0
 10 33  1  0
 11 12  1  0
 11 13  1  0
 11 34  1  6
 12 35  1  0
 12 36  1  0
 12 37  1  0
 13 14  1  0
 13 38  1  0
 13 39  1  0
 14 15  1  0
 14 40  1  0
 14 41  1  0
 15 16  1  0
 16 42  1  0
 16 43  1  0
 16 44  1  0
M  END

