
     RDKit          3D

 40 41  0  0  0  0  0  0  0  0999 V2000
    1.0854    0.6359    0.1394 C   0  0  0  0  0  0  0  0  0  0  0  0
    2.5326    0.1882   -0.1244 C   0  0  1  0  0  0  0  0  0  0  0  0
    3.3046    0.6651    1.0464 N   0  0  0  0  0  0  0  0  0  0  0  0
    4.6512    0.4849    1.2441 C   0  0  0  0  0  0  0  0  0  0  0  0
    5.3964   -0.0616    0.4482 O   0  0  0  0  0  0  0  0  0  0  0  0
    5.0951    1.0090    2.4641 N   0  0  0  0  0  0  0  0  0  0  0  0
    6.3916    0.9867    2.9947 C   0  0  0  0  0  0  0  0  0  0  0  0
    6.6018    1.6359    4.2286 C   0  0  0  0  0  0  0  0  0  0  0  0
    7.8594    1.6521    4.8247 C   0  0  0  0  0  0  0  0  0  0  0  0
    8.9161    1.0163    4.1871 C   0  0  0  0  0  0  0  0  0  0  0  0
   10.1347    1.0509    4.7971 F   0  0  0  0  0  0  0  0  0  0  0  0
    8.7560    0.3589    2.9619 C   0  0  0  0  0  0  0  0  0  0  0  0
    9.8545   -0.3585    2.2034 C   0  0  0  0  0  0  0  0  0  0  0  0
    9.6462   -0.9100    1.1554 O   0  0  0  0  0  0  0  0  0  0  0  0
   11.0837   -0.3584    2.7463 O   0  0  0  0  0  0  0  0  0  0  0  0
    7.4810    0.3529    2.3743 C   0  0  0  0  0  0  0  0  0  0  0  0
    2.6235   -1.3565   -0.2348 C   0  0  0  0  0  0  0  0  0  0  0  0
    1.9996   -1.9157   -1.5214 C   0  0  0  0  0  0  0  0  0  0  0  0
    2.5918   -1.2483   -2.7685 C   0  0  0  0  0  0  0  0  0  0  0  0
    2.4557    0.2777   -2.7002 C   0  0  0  0  0  0  0  0  0  0  0  0
    3.0822    0.8433   -1.4178 C   0  0  0  0  0  0  0  0  0  0  0  0
    0.6963    0.1811    1.0664 H   0  0  0  0  0  0  0  0  0  0  0  0
    0.4152    0.3375   -0.6768 H   0  0  0  0  0  0  0  0  0  0  0  0
    1.0270    1.7325    0.2353 H   0  0  0  0  0  0  0  0  0  0  0  0
    2.7524    1.0048    1.8240 H   0  0  0  0  0  0  0  0  0  0  0  0
    4.4204    1.5194    3.0203 H   0  0  0  0  0  0  0  0  0  0  0  0
    5.7686    2.1364    4.7306 H   0  0  0  0  0  0  0  0  0  0  0  0
    8.0318    2.1522    5.7792 H   0  0  0  0  0  0  0  0  0  0  0  0
   11.0942    0.1236    3.5882 H   0  0  0  0  0  0  0  0  0  0  0  0
    7.3563   -0.1532    1.4198 H   0  0  0  0  0  0  0  0  0  0  0  0
    2.1515   -1.8081    0.6552 H   0  0  0  0  0  0  0  0  0  0  0  0
    3.6895   -1.6281   -0.2075 H   0  0  0  0  0  0  0  0  0  0  0  0
    0.9037   -1.7731   -1.5129 H   0  0  0  0  0  0  0  0  0  0  0  0
    2.1610   -3.0060   -1.5577 H   0  0  0  0  0  0  0  0  0  0  0  0
    2.1059   -1.6368   -3.6793 H   0  0  0  0  0  0  0  0  0  0  0  0
    3.6618   -1.5127   -2.8462 H   0  0  0  0  0  0  0  0  0  0  0  0
    1.3877    0.5547   -2.7640 H   0  0  0  0  0  0  0  0  0  0  0  0
    2.9400    0.7440   -3.5743 H   0  0  0  0  0  0  0  0  0  0  0  0
    2.9306    1.9347   -1.3574 H   0  0  0  0  0  0  0  0  0  0  0  0
    4.1679    0.6698   -1.4438 H   0  0  0  0  0  0  0  0  0  0  0  0
  1  2  1  0
  1 22  1  0
  1 23  1  0
  1 24  1  0
  2  3  1  1
  2 17  1  0
  2 21  1  0
  3  4  1  0
  3 25  1  0
  4  5  2  0
  4  6  1  0
  6  7  1  0
  6 26  1  0
  7  8  2  0
  7 16  1  0
  8  9  1  0
  8 27  1  0
  9 10  2  0
  9 28  1  0
 10 11  1  0
 10 12  1  0
 12 13  1  0
 12 16  2  0
 13 14  2  0
 13 15  1  0
 15 29  1  0
 16 30  1  0
 17 18  1  0
 17 31  1  0
 17 32  1  0
 18 19  1  0
 18 33  1  0
 18 34  1  0
 19 20  1  0
 19 35  1  0
 19 36  1  0
 20 21  1  0
 20 37  1  0
 20 38  1  0
 21 39  1  0
 21 40  1  0
M  END

