
     RDKit          3D

 33 33  0  0  0  0  0  0  0  0999 V2000
    2.1732    2.6603    1.3871 C   0  0  0  0  0  0  0  0  0  0  0  0
    2.8597    1.7630    0.9512 C   0  0  0  0  0  0  0  0  0  0  0  0
    3.6656    0.6593    0.4229 C   0  0  0  0  0  0  0  0  0  0  0  0
    4.1810   -0.2021    1.4778 N   0  0  0  0  0  0  0  0  0  0  0  0
    4.9216   -1.3489    0.9798 C   0  0  0  0  0  0  0  0  0  0  0  0
    5.5418   -2.1706    2.0927 C   0  0  0  0  0  0  0  0  0  0  0  0
    5.7765   -1.6253    3.3632 C   0  0  0  0  0  0  0  0  0  0  0  0
    6.3590   -2.3924    4.3747 C   0  0  0  0  0  0  0  0  0  0  0  0
    6.7444   -3.7100    4.1216 C   0  0  0  0  0  0  0  0  0  0  0  0
    6.5386   -4.2682    2.8562 C   0  0  0  0  0  0  0  0  0  0  0  0
    6.9180   -5.5658    2.6240 O   0  0  0  0  0  0  0  0  0  0  0  0
    8.0782   -5.7442    1.8028 C   0  0  0  0  0  0  0  0  0  0  0  0
    8.3707   -7.2282    1.7063 C   0  0  0  0  0  0  0  0  0  0  0  0
    5.9209   -3.5036    1.8443 C   0  0  0  0  0  0  0  0  0  0  0  0
    5.7269   -4.0273    0.5888 O   0  0  0  0  0  0  0  0  0  0  0  0
    4.7726   -5.0791    0.4861 C   0  0  0  0  0  0  0  0  0  0  0  0
    1.5721    3.4615    1.7739 H   0  0  0  0  0  0  0  0  0  0  0  0
    4.5227    1.0775   -0.1372 H   0  0  0  0  0  0  0  0  0  0  0  0
    3.0563    0.1122   -0.3348 H   0  0  0  0  0  0  0  0  0  0  0  0
    3.4162   -0.5071    2.0795 H   0  0  0  0  0  0  0  0  0  0  0  0
    5.7298   -0.9715    0.3241 H   0  0  0  0  0  0  0  0  0  0  0  0
    4.3171   -2.0149    0.3283 H   0  0  0  0  0  0  0  0  0  0  0  0
    5.4864   -0.5887    3.5425 H   0  0  0  0  0  0  0  0  0  0  0  0
    6.5249   -1.9566    5.3631 H   0  0  0  0  0  0  0  0  0  0  0  0
    7.2139   -4.3301    4.8884 H   0  0  0  0  0  0  0  0  0  0  0  0
    8.9302   -5.2063    2.2594 H   0  0  0  0  0  0  0  0  0  0  0  0
    7.9025   -5.3062    0.8048 H   0  0  0  0  0  0  0  0  0  0  0  0
    8.5336   -7.6589    2.7063 H   0  0  0  0  0  0  0  0  0  0  0  0
    9.2747   -7.3992    1.1009 H   0  0  0  0  0  0  0  0  0  0  0  0
    7.5332   -7.7656    1.2346 H   0  0  0  0  0  0  0  0  0  0  0  0
    4.7480   -5.3826   -0.5701 H   0  0  0  0  0  0  0  0  0  0  0  0
    3.7664   -4.7308    0.7815 H   0  0  0  0  0  0  0  0  0  0  0  0
    5.0517   -5.9416    1.1113 H   0  0  0  0  0  0  0  0  0  0  0  0
  1  2  3  0
  1 17  1  0
  2  3  1  0
  3  4  1  0
  3 18  1  0
  3 19  1  0
  4  5  1  0
  4 20  1  0
  5  6  1  0
  5 21  1  0
  5 22  1  0
  6  7  2  0
  6 14  1  0
  7  8  1  0
  7 23  1  0
  8  9  2  0
  8 24  1  0
  9 10  1  0
  9 25  1  0
 10 11  1  0
 10 14  2  0
 11 12  1  0
 12 13  1  0
 12 26  1  0
 12 27  1  0
 13 28  1  0
 13 29  1  0
 13 30  1  0
 14 15  1  0
 15 16  1  0
 16 31  1  0
 16 32  1  0
 16 33  1  0
M  END

