
     RDKit          3D

 38 37  0  0  0  0  0  0  0  0999 V2000
    4.3892    2.5319   -1.1492 C   0  0  0  0  0  0  0  0  0  0  0  0
    4.3660    1.3233   -0.4417 O   0  0  0  0  0  0  0  0  0  0  0  0
    4.6594    0.1915   -1.2243 C   0  0  0  0  0  0  0  0  0  0  0  0
    4.5943   -1.0722   -0.3531 C   0  0  1  0  0  0  0  0  0  0  0  0
    3.1890   -1.2845    0.2119 C   0  0  0  0  0  0  0  0  0  0  0  0
    5.0404   -2.2650   -1.0666 N   0  0  0  0  0  0  0  0  0  0  0  0
    6.4783   -2.4761   -1.2455 C   0  0  1  0  0  0  0  0  0  0  0  0
    7.0936   -3.0418    0.0406 C   0  0  0  0  0  0  0  0  0  0  0  0
    6.7253   -3.4261   -2.4285 C   0  0  0  0  0  0  0  0  0  0  0  0
    6.3890   -2.8468   -3.8081 C   0  0  0  0  0  0  0  0  0  0  0  0
    6.7503   -3.7473   -5.0057 C   0  0  1  0  0  0  0  0  0  0  0  0
    5.9610   -5.0634   -5.0166 C   0  0  0  0  0  0  0  0  0  0  0  0
    6.5614   -2.9906   -6.3268 C   0  0  0  0  0  0  0  0  0  0  0  0
    4.1546    3.3429   -0.4438 H   0  0  0  0  0  0  0  0  0  0  0  0
    3.6405    2.5504   -1.9681 H   0  0  0  0  0  0  0  0  0  0  0  0
    5.3840    2.7332   -1.5982 H   0  0  0  0  0  0  0  0  0  0  0  0
    5.6672    0.2879   -1.6797 H   0  0  0  0  0  0  0  0  0  0  0  0
    3.9342    0.0976   -2.0644 H   0  0  0  0  0  0  0  0  0  0  0  0
    5.2836   -0.9071    0.4923 H   0  0  0  0  0  0  0  0  0  0  0  0
    2.4736   -1.4959   -0.6023 H   0  0  0  0  0  0  0  0  0  0  0  0
    2.8422   -0.3861    0.7428 H   0  0  0  0  0  0  0  0  0  0  0  0
    3.1787   -2.1435    0.8990 H   0  0  0  0  0  0  0  0  0  0  0  0
    4.5379   -2.3560   -1.9468 H   0  0  0  0  0  0  0  0  0  0  0  0
    7.0058   -1.5226   -1.4769 H   0  0  0  0  0  0  0  0  0  0  0  0
    6.6613   -4.0296    0.2673 H   0  0  0  0  0  0  0  0  0  0  0  0
    6.8989   -2.3859    0.9032 H   0  0  0  0  0  0  0  0  0  0  0  0
    8.1866   -3.1465   -0.0568 H   0  0  0  0  0  0  0  0  0  0  0  0
    6.1506   -4.3505   -2.2435 H   0  0  0  0  0  0  0  0  0  0  0  0
    7.7904   -3.7156   -2.4191 H   0  0  0  0  0  0  0  0  0  0  0  0
    6.9206   -1.8844   -3.9219 H   0  0  0  0  0  0  0  0  0  0  0  0
    5.3118   -2.6014   -3.8752 H   0  0  0  0  0  0  0  0  0  0  0  0
    7.8245   -3.9996   -4.9146 H   0  0  0  0  0  0  0  0  0  0  0  0
    4.8756   -4.8705   -5.0805 H   0  0  0  0  0  0  0  0  0  0  0  0
    6.1400   -5.6649   -4.1123 H   0  0  0  0  0  0  0  0  0  0  0  0
    6.2381   -5.6833   -5.8847 H   0  0  0  0  0  0  0  0  0  0  0  0
    5.5044   -2.7068   -6.4716 H   0  0  0  0  0  0  0  0  0  0  0  0
    6.8594   -3.6077   -7.1899 H   0  0  0  0  0  0  0  0  0  0  0  0
    7.1600   -2.0654   -6.3526 H   0  0  0  0  0  0  0  0  0  0  0  0
  1  2  1  0
  1 14  1  0
  1 15  1  0
  1 16  1  0
  2  3  1  0
  3  4  1  0
  3 17  1  0
  3 18  1  0
  4  5  1  0
  4  6  1  0
  4 19  1  1
  5 20  1  0
  5 21  1  0
  5 22  1  0
  6  7  1  0
  6 23  1  0
  7  8  1  0
  7  9  1  0
  7 24  1  6
  8 25  1  0
  8 26  1  0
  8 27  1  0
  9 10  1  0
  9 28  1  0
  9 29  1  0
 10 11  1  0
 10 30  1  0
 10 31  1  0
 11 12  1  0
 11 13  1  0
 11 32  1  1
 12 33  1  0
 12 34  1  0
 12 35  1  0
 13 36  1  0
 13 37  1  0
 13 38  1  0
M  END

