
     RDKit          3D

 74 78  0  0  0  0  0  0  0  0999 V2000
    2.4895   -1.0226    3.2765 C   0  0  0  0  0  0  0  0  0  0  0  0
    3.1381   -0.2323    2.4183 C   0  0  0  0  0  0  0  0  0  0  0  0
    3.3300   -0.5489    0.9631 C   0  0  0  0  0  0  0  0  0  0  0  0
    4.7291   -0.5964    0.6197 O   0  0  0  0  0  0  0  0  0  0  0  0
    5.3561   -1.7932    0.7086 C   0  0  0  0  0  0  0  0  0  0  0  0
    4.7920   -2.8239    1.0040 O   0  0  0  0  0  0  0  0  0  0  0  0
    6.7850   -1.6571    0.3861 C   0  0  0  0  0  0  0  0  0  0  0  0
    7.4724   -0.0946   -0.0240 S   0  0  0  0  0  0  0  0  0  0  0  0
    9.0152   -0.8998   -0.1931 C   0  0  0  0  0  0  0  0  0  0  0  0
   10.1692   -0.2190   -0.5271 N   0  0  0  0  0  0  0  0  0  0  0  0
   10.2610    1.1660   -0.5466 C   0  0  0  0  0  0  0  0  0  0  0  0
    9.3377    1.9370   -0.4187 O   0  0  0  0  0  0  0  0  0  0  0  0
   11.7406    1.4738   -0.7067 C   0  0  0  0  0  0  0  0  0  0  0  0
   12.2105    2.6204   -0.7465 O   0  0  0  0  0  0  0  0  0  0  0  0
   12.4456    0.2300   -0.7690 C   0  0  0  0  0  0  0  0  0  0  0  0
   13.8403    0.2673   -0.8728 C   0  0  0  0  0  0  0  0  0  0  0  0
   14.4182    1.4535   -0.9252 O   0  0  0  0  0  0  0  0  0  0  0  0
   14.7816   -0.8597   -0.9424 C   0  0  0  0  0  0  0  0  0  0  0  0
   16.0996   -0.6122   -1.3737 C   0  0  0  0  0  0  0  0  0  0  0  0
   17.0464   -1.6297   -1.4543 C   0  0  0  0  0  0  0  0  0  0  0  0
   16.6950   -2.9402   -1.0832 C   0  0  0  0  0  0  0  0  0  0  0  0
   17.5315   -3.9968   -1.1187 O   0  0  0  0  0  0  0  0  0  0  0  0
   18.8693   -3.8296   -1.5541 C   0  0  0  0  0  0  0  0  0  0  0  0
   19.6086   -5.1473   -1.5083 C   0  0  0  0  0  0  0  0  0  0  0  0
   18.9770   -6.3200   -1.0789 C   0  0  0  0  0  0  0  0  0  0  0  0
   19.6719   -7.5322   -1.0412 C   0  0  0  0  0  0  0  0  0  0  0  0
   21.0095   -7.5773   -1.4351 C   0  0  0  0  0  0  0  0  0  0  0  0
   21.6431   -6.4080   -1.8644 C   0  0  0  0  0  0  0  0  0  0  0  0
   20.9641   -5.1827   -1.9096 C   0  0  0  0  0  0  0  0  0  0  0  0
   21.6709   -3.9331   -2.3774 C   0  0  0  0  0  0  0  0  0  0  0  0
   15.3860   -3.1996   -0.6336 C   0  0  0  0  0  0  0  0  0  0  0  0
   14.4491   -2.1804   -0.5701 C   0  0  0  0  0  0  0  0  0  0  0  0
   11.4551   -0.9228   -0.7903 C   0  0  2  0  0  0  0  0  0  0  0  0
   11.4143   -1.7043   -2.1084 C   0  0  0  0  0  0  0  0  0  0  0  0
   11.5060   -1.0401   -3.3363 C   0  0  0  0  0  0  0  0  0  0  0  0
   11.4471   -1.7716   -4.5281 C   0  0  0  0  0  0  0  0  0  0  0  0
   11.3073   -3.1560   -4.5068 C   0  0  0  0  0  0  0  0  0  0  0  0
   11.2137   -3.8292   -3.2771 C   0  0  0  0  0  0  0  0  0  0  0  0
   11.0725   -5.1776   -3.3425 O   0  0  0  0  0  0  0  0  0  0  0  0
   10.9522   -5.9197   -2.1503 C   0  0  0  0  0  0  0  0  0  0  0  0
   11.2639   -3.0991   -2.0805 C   0  0  0  0  0  0  0  0  0  0  0  0
    9.0127   -2.1884    0.0412 N   0  0  0  0  0  0  0  0  0  0  0  0
    7.7629   -2.6386    0.3689 C   0  0  0  0  0  0  0  0  0  0  0  0
    7.5797   -4.0953    0.6673 C   0  0  0  0  0  0  0  0  0  0  0  0
    2.3593   -0.7422    4.3255 H   0  0  0  0  0  0  0  0  0  0  0  0
    2.0666   -1.9820    2.9614 H   0  0  0  0  0  0  0  0  0  0  0  0
    3.5703    0.7162    2.7598 H   0  0  0  0  0  0  0  0  0  0  0  0
    2.9201    0.2537    0.3306 H   0  0  0  0  0  0  0  0  0  0  0  0
    2.8547   -1.5038    0.6989 H   0  0  0  0  0  0  0  0  0  0  0  0
   13.6903    2.1640   -0.8793 H   0  0  0  0  0  0  0  0  0  0  0  0
   16.3779    0.4037   -1.6548 H   0  0  0  0  0  0  0  0  0  0  0  0
   18.0507   -1.3934   -1.8040 H   0  0  0  0  0  0  0  0  0  0  0  0
   19.3796   -3.0838   -0.9145 H   0  0  0  0  0  0  0  0  0  0  0  0
   18.8785   -3.4229   -2.5839 H   0  0  0  0  0  0  0  0  0  0  0  0
   17.9317   -6.2761   -0.7730 H   0  0  0  0  0  0  0  0  0  0  0  0
   19.1645   -8.4394   -0.7035 H   0  0  0  0  0  0  0  0  0  0  0  0
   21.5625   -8.5197   -1.4098 H   0  0  0  0  0  0  0  0  0  0  0  0
   22.6917   -6.4432   -2.1732 H   0  0  0  0  0  0  0  0  0  0  0  0
   22.7152   -4.1446   -2.6480 H   0  0  0  0  0  0  0  0  0  0  0  0
   21.6826   -3.1505   -1.5990 H   0  0  0  0  0  0  0  0  0  0  0  0
   21.1826   -3.4908   -3.2631 H   0  0  0  0  0  0  0  0  0  0  0  0
   15.1308   -4.2182   -0.3366 H   0  0  0  0  0  0  0  0  0  0  0  0
   13.4537   -2.4190   -0.2035 H   0  0  0  0  0  0  0  0  0  0  0  0
   11.5977   -1.6319    0.0382 H   0  0  0  0  0  0  0  0  0  0  0  0
   11.6286    0.0443   -3.3712 H   0  0  0  0  0  0  0  0  0  0  0  0
   11.5173   -1.2521   -5.4871 H   0  0  0  0  0  0  0  0  0  0  0  0
   11.2646   -3.7431   -5.4263 H   0  0  0  0  0  0  0  0  0  0  0  0
   10.8386   -6.9712   -2.4462 H   0  0  0  0  0  0  0  0  0  0  0  0
   10.0677   -5.6151   -1.5626 H   0  0  0  0  0  0  0  0  0  0  0  0
   11.8500   -5.8239   -1.5127 H   0  0  0  0  0  0  0  0  0  0  0  0
   11.1525   -3.5950   -1.1175 H   0  0  0  0  0  0  0  0  0  0  0  0
    8.3041   -4.4128    1.4345 H   0  0  0  0  0  0  0  0  0  0  0  0
    7.7864   -4.6904   -0.2385 H   0  0  0  0  0  0  0  0  0  0  0  0
    6.5603   -4.3077    1.0062 H   0  0  0  0  0  0  0  0  0  0  0  0
  1  2  2  0
  1 45  1  0
  1 46  1  0
  2  3  1  0
  2 47  1  0
  3  4  1  0
  3 48  1  0
  3 49  1  0
  4  5  1  0
  5  6  2  0
  5  7  1  0
  7  8  2  0
  7 43  1  0
  8  9  1  0
  9 10  2  0
  9 42  1  0
 10 11  1  0
 10 33  1  0
 11 12  1  0
 11 13  2  0
 13 14  1  0
 13 15  1  0
 15 16  2  0
 15 33  1  0
 16 17  1  0
 16 18  1  0
 17 50  1  0
 18 19  2  0
 18 32  1  0
 19 20  1  0
 19 51  1  0
 20 21  2  0
 20 52  1  0
 21 22  1  0
 21 31  1  0
 22 23  1  0
 23 24  1  0
 23 53  1  0
 23 54  1  0
 24 25  2  0
 24 29  1  0
 25 26  1  0
 25 55  1  0
 26 27  2  0
 26 56  1  0
 27 28  1  0
 27 57  1  0
 28 29  2  0
 28 58  1  0
 29 30  1  0
 30 59  1  0
 30 60  1  0
 30 61  1  0
 31 32  2  0
 31 62  1  0
 32 63  1  0
 33 34  1  0
 33 64  1  1
 34 35  2  0
 34 41  1  0
 35 36  1  0
 35 65  1  0
 36 37  2  0
 36 66  1  0
 37 38  1  0
 37 67  1  0
 38 39  1  0
 38 41  2  0
 39 40  1  0
 40 68  1  0
 40 69  1  0
 40 70  1  0
 41 71  1  0
 42 43  2  0
 43 44  1  0
 44 72  1  0
 44 73  1  0
 44 74  1  0
M  CHG  4   8   1  10   1  12  -1  14  -1
M  END

