
     RDKit          3D

 43 42  0  0  0  0  0  0  0  0999 V2000
    1.2262   -0.2706    0.4827 C   0  0  0  0  0  0  0  0  0  0  0  0
    2.4862    0.3403   -0.1503 C   0  0  0  0  0  0  0  0  0  0  0  0
    3.2626   -0.5511   -0.9986 N   0  0  0  0  0  0  0  0  0  0  0  0
    2.5524   -1.0685   -2.1543 C   0  0  0  0  0  0  0  0  0  0  0  0
    1.9541   -0.0279   -3.1358 C   0  0  1  0  0  0  0  0  0  0  0  0
    2.9862    0.9832   -3.6429 C   0  0  0  0  0  0  0  0  0  0  0  0
    1.2700   -0.7680   -4.2966 C   0  0  0  0  0  0  0  0  0  0  0  0
    2.1563   -1.5543   -5.0743 O   0  0  0  0  0  0  0  0  0  0  0  0
    4.6839   -0.8556   -0.6815 C   0  0  1  0  0  0  0  0  0  0  0  0
    5.6391    0.3355   -1.0227 C   0  0  0  0  0  0  0  0  0  0  0  0
    5.4445    1.6751   -0.3066 C   0  0  0  0  0  0  0  0  0  0  0  0
    4.8511   -1.2469    0.8165 C   0  0  0  0  0  0  0  0  0  0  0  0
    4.1922   -2.5624    1.2357 C   0  0  0  0  0  0  0  0  0  0  0  0
    5.1714   -2.0551   -1.5497 C   0  0  0  0  0  0  0  0  0  0  0  0
    6.4816   -2.5565   -1.1376 N   0  0  0  0  0  0  0  0  0  0  0  0
    0.7154    0.4832    1.1047 H   0  0  0  0  0  0  0  0  0  0  0  0
    1.4709   -1.1318    1.1230 H   0  0  0  0  0  0  0  0  0  0  0  0
    0.5014   -0.6114   -0.2734 H   0  0  0  0  0  0  0  0  0  0  0  0
    3.1246    0.7136    0.6577 H   0  0  0  0  0  0  0  0  0  0  0  0
    2.1767    1.2491   -0.7089 H   0  0  0  0  0  0  0  0  0  0  0  0
    1.7140   -1.7274   -1.8425 H   0  0  0  0  0  0  0  0  0  0  0  0
    3.2080   -1.7084   -2.7515 H   0  0  0  0  0  0  0  0  0  0  0  0
    1.1511    0.5343   -2.6243 H   0  0  0  0  0  0  0  0  0  0  0  0
    3.8119    0.4815   -4.1771 H   0  0  0  0  0  0  0  0  0  0  0  0
    3.4395    1.5428   -2.8126 H   0  0  0  0  0  0  0  0  0  0  0  0
    2.5291    1.7135   -4.3319 H   0  0  0  0  0  0  0  0  0  0  0  0
    0.7219   -0.0405   -4.9294 H   0  0  0  0  0  0  0  0  0  0  0  0
    0.5204   -1.4704   -3.8959 H   0  0  0  0  0  0  0  0  0  0  0  0
    2.7511   -0.9590   -5.5477 H   0  0  0  0  0  0  0  0  0  0  0  0
    5.5740    0.5064   -2.1111 H   0  0  0  0  0  0  0  0  0  0  0  0
    6.6731    0.0017   -0.8256 H   0  0  0  0  0  0  0  0  0  0  0  0
    4.4907    2.1563   -0.5675 H   0  0  0  0  0  0  0  0  0  0  0  0
    6.2474    2.3743   -0.5924 H   0  0  0  0  0  0  0  0  0  0  0  0
    5.4828    1.5735    0.7897 H   0  0  0  0  0  0  0  0  0  0  0  0
    4.4734   -0.4316    1.4516 H   0  0  0  0  0  0  0  0  0  0  0  0
    5.9296   -1.3158    1.0214 H   0  0  0  0  0  0  0  0  0  0  0  0
    3.1508   -2.6272    0.8839 H   0  0  0  0  0  0  0  0  0  0  0  0
    4.1810   -2.6613    2.3332 H   0  0  0  0  0  0  0  0  0  0  0  0
    4.7430   -3.4270    0.8358 H   0  0  0  0  0  0  0  0  0  0  0  0
    5.1493   -1.7545   -2.6153 H   0  0  0  0  0  0  0  0  0  0  0  0
    4.4523   -2.8806   -1.4447 H   0  0  0  0  0  0  0  0  0  0  0  0
    7.2279   -1.9518   -1.4789 H   0  0  0  0  0  0  0  0  0  0  0  0
    6.6474   -3.4699   -1.5575 H   0  0  0  0  0  0  0  0  0  0  0  0
  1  2  1  0
  1 16  1  0
  1 17  1  0
  1 18  1  0
  2  3  1  0
  2 19  1  0
  2 20  1  0
  3  4  1  0
  9  3  1  1
  4  5  1  0
  4 21  1  0
  4 22  1  0
  5  6  1  0
  5  7  1  0
  5 23  1  1
  6 24  1  0
  6 25  1  0
  6 26  1  0
  7  8  1  0
  7 27  1  0
  7 28  1  0
  8 29  1  0
  9 10  1  0
  9 12  1  0
  9 14  1  0
 10 11  1  0
 10 30  1  0
 10 31  1  0
 11 32  1  0
 11 33  1  0
 11 34  1  0
 12 13  1  0
 12 35  1  0
 12 36  1  0
 13 37  1  0
 13 38  1  0
 13 39  1  0
 14 15  1  0
 14 40  1  0
 14 41  1  0
 15 42  1  0
 15 43  1  0
M  END

