
     RDKit          3D

 42 46  0  0  0  0  0  0  0  0999 V2000
    0.0945   -3.6048   -1.0377 Br  0  0  0  0  0  0  0  0  0  0  0  0
    1.3003   -2.2167   -1.4868 C   0  0  0  0  0  0  0  0  0  0  0  0
    0.9386   -1.1781   -2.3972 C   0  0  0  0  0  0  0  0  0  0  0  0
    1.9575   -0.2797   -2.5831 C   0  0  0  0  0  0  0  0  0  0  0  0
    3.3549   -0.6963   -1.6624 S   0  0  0  0  0  0  0  0  0  0  0  0
    2.5803   -2.1052   -0.9899 C   0  0  0  0  0  0  0  0  0  0  0  0
    3.3540   -2.9863   -0.0375 C   0  0  2  0  0  0  0  0  0  0  0  0
    4.3673   -2.5349    0.0797 H   0  0  0  0  0  0  0  0  0  0  0  0
    3.5016   -4.2969   -0.5712 O   0  0  0  0  0  0  0  0  0  0  0  0
    3.2062   -5.1983    0.4163 C   0  0  0  0  0  0  0  0  0  0  0  0
    3.3171   -6.5712    0.3231 C   0  0  0  0  0  0  0  0  0  0  0  0
    2.9284   -7.3333    1.4435 C   0  0  0  0  0  0  0  0  0  0  0  0
    2.4443   -6.7020    2.5870 C   0  0  0  0  0  0  0  0  0  0  0  0
    2.3296   -5.2990    2.6632 C   0  0  0  0  0  0  0  0  0  0  0  0
    2.7300   -4.5352    1.5648 C   0  0  0  0  0  0  0  0  0  0  0  0
    2.7326   -3.1690    1.2820 N   0  0  0  0  0  0  0  0  0  0  0  0
    2.6868   -2.0078    2.1691 C   0  0  2  0  0  0  0  0  0  0  0  0
    3.3640   -2.1869    3.5721 C   0  0  0  0  0  0  0  0  0  0  0  0
    2.5521   -1.5939    4.6351 N   0  0  0  0  0  0  0  0  0  0  0  0
    2.2966   -0.1807    4.3428 C   0  0  0  0  0  0  0  0  0  0  0  0
    1.4643   -0.0171    3.0311 C   0  0  0  0  0  0  0  0  0  0  0  0
    1.2729   -1.4171    2.4138 C   0  0  2  0  0  0  0  0  0  0  0  0
    0.4862   -2.2891    3.4093 C   0  0  0  0  0  0  0  0  0  0  0  0
    1.2763   -2.3085    4.7549 C   0  0  0  0  0  0  0  0  0  0  0  0
   -0.0351   -1.1150   -2.8832 H   0  0  0  0  0  0  0  0  0  0  0  0
    1.9610    0.6066   -3.2162 H   0  0  0  0  0  0  0  0  0  0  0  0
    3.6913   -7.0340   -0.5917 H   0  0  0  0  0  0  0  0  0  0  0  0
    3.0068   -8.4221    1.4083 H   0  0  0  0  0  0  0  0  0  0  0  0
    2.1403   -7.2999    3.4496 H   0  0  0  0  0  0  0  0  0  0  0  0
    1.9298   -4.8409    3.5655 H   0  0  0  0  0  0  0  0  0  0  0  0
    3.2463   -1.2284    1.6247 H   0  0  0  0  0  0  0  0  0  0  0  0
    4.3571   -1.7105    3.5776 H   0  0  0  0  0  0  0  0  0  0  0  0
    3.5244   -3.2494    3.8011 H   0  0  0  0  0  0  0  0  0  0  0  0
    3.2678    0.3345    4.2639 H   0  0  0  0  0  0  0  0  0  0  0  0
    1.7721    0.2627    5.2046 H   0  0  0  0  0  0  0  0  0  0  0  0
    1.9744    0.6501    2.3163 H   0  0  0  0  0  0  0  0  0  0  0  0
    0.4789    0.4325    3.2357 H   0  0  0  0  0  0  0  0  0  0  0  0
    0.7399   -1.3504    1.4543 H   0  0  0  0  0  0  0  0  0  0  0  0
    0.3474   -3.3007    2.9989 H   0  0  0  0  0  0  0  0  0  0  0  0
   -0.5232   -1.8686    3.5483 H   0  0  0  0  0  0  0  0  0  0  0  0
    1.4846   -3.3384    5.0874 H   0  0  0  0  0  0  0  0  0  0  0  0
    0.6971   -1.8334    5.5628 H   0  0  0  0  0  0  0  0  0  0  0  0
  1  2  1  0
  2  3  1  0
  2  6  2  0
  3  4  2  0
  3 25  1  0
  4  5  1  0
  4 26  1  0
  5  6  1  0
  6  7  1  0
  7  8  1  1
  7  9  1  0
  7 16  1  0
  9 10  1  0
 10 11  1  0
 10 15  2  0
 11 12  2  0
 11 27  1  0
 12 13  1  0
 12 28  1  0
 13 14  2  0
 13 29  1  0
 14 15  1  0
 14 30  1  0
 15 16  1  0
 16 17  1  0
 17 18  1  0
 17 22  1  0
 17 31  1  6
 18 19  1  0
 18 32  1  0
 18 33  1  0
 19 20  1  0
 19 24  1  0
 20 21  1  0
 20 34  1  0
 20 35  1  0
 21 22  1  0
 21 36  1  0
 21 37  1  0
 22 23  1  0
 22 38  1  6
 23 24  1  0
 23 39  1  0
 23 40  1  0
 24 41  1  0
 24 42  1  0
M  END

