
     RDKit          3D

 35 35  0  0  0  0  0  0  0  0999 V2000
    6.1731    3.5236   -1.4840 C   0  0  0  0  0  0  0  0  0  0  0  0
    5.8315    2.3506   -0.7751 O   0  0  0  0  0  0  0  0  0  0  0  0
    4.7708    2.3519    0.0682 C   0  0  0  0  0  0  0  0  0  0  0  0
    3.9574    3.4785    0.2845 C   0  0  0  0  0  0  0  0  0  0  0  0
    2.8771    3.4067    1.1600 C   0  0  0  0  0  0  0  0  0  0  0  0
    2.5897    2.2079    1.8340 C   0  0  0  0  0  0  0  0  0  0  0  0
    1.4779    2.1336    2.7383 C   0  0  0  0  0  0  0  0  0  0  0  0
    0.5762    2.0830    3.4689 N   0  0  0  0  0  0  0  0  0  0  0  0
    3.4107    1.0858    1.6124 C   0  0  0  0  0  0  0  0  0  0  0  0
    4.4999    1.1374    0.7428 C   0  0  0  0  0  0  0  0  0  0  0  0
    5.3642   -0.0962    0.5446 C   0  0  0  0  0  0  0  0  0  0  0  0
    4.6516   -1.1845   -0.1346 N   0  0  0  0  0  0  0  0  0  0  0  0
    4.4717   -0.9410   -1.5560 C   0  0  0  0  0  0  0  0  0  0  0  0
    5.1068   -2.5456    0.2069 C   0  0  1  0  0  0  0  0  0  0  0  0
    6.6069   -2.8162    0.0449 C   0  0  0  0  0  0  0  0  0  0  0  0
    4.5943   -2.8837    1.6199 C   0  0  0  0  0  0  0  0  0  0  0  0
    3.2526   -2.4942    1.7653 O   0  0  0  0  0  0  0  0  0  0  0  0
    7.0538    3.2741   -2.0903 H   0  0  0  0  0  0  0  0  0  0  0  0
    6.4305    4.3530   -0.8020 H   0  0  0  0  0  0  0  0  0  0  0  0
    5.3576    3.8496   -2.1535 H   0  0  0  0  0  0  0  0  0  0  0  0
    4.1601    4.4174   -0.2296 H   0  0  0  0  0  0  0  0  0  0  0  0
    2.2504    4.2853    1.3241 H   0  0  0  0  0  0  0  0  0  0  0  0
    3.1908    0.1485    2.1299 H   0  0  0  0  0  0  0  0  0  0  0  0
    5.6657   -0.4560    1.5394 H   0  0  0  0  0  0  0  0  0  0  0  0
    6.2902    0.1858    0.0122 H   0  0  0  0  0  0  0  0  0  0  0  0
    3.9757    0.0299   -1.7090 H   0  0  0  0  0  0  0  0  0  0  0  0
    3.8273   -1.7195   -1.9928 H   0  0  0  0  0  0  0  0  0  0  0  0
    5.4248   -0.9191   -2.1272 H   0  0  0  0  0  0  0  0  0  0  0  0
    4.5607   -3.2067   -0.4880 H   0  0  0  0  0  0  0  0  0  0  0  0
    7.2114   -2.2218    0.7485 H   0  0  0  0  0  0  0  0  0  0  0  0
    6.9511   -2.5866   -0.9758 H   0  0  0  0  0  0  0  0  0  0  0  0
    6.8266   -3.8788    0.2368 H   0  0  0  0  0  0  0  0  0  0  0  0
    5.2403   -2.3981    2.3832 H   0  0  0  0  0  0  0  0  0  0  0  0
    4.6820   -3.9716    1.7877 H   0  0  0  0  0  0  0  0  0  0  0  0
    3.1396   -1.7994    1.0885 H   0  0  0  0  0  0  0  0  0  0  0  0
  1  2  1  0
  1 18  1  0
  1 19  1  0
  1 20  1  0
  2  3  1  0
  3  4  2  0
  3 10  1  0
  4  5  1  0
  4 21  1  0
  5  6  2  0
  5 22  1  0
  6  7  1  0
  6  9  1  0
  7  8  3  0
  9 10  2  0
  9 23  1  0
 10 11  1  0
 11 12  1  0
 11 24  1  0
 11 25  1  0
 12 13  1  0
 12 14  1  0
 13 26  1  0
 13 27  1  0
 13 28  1  0
 14 15  1  0
 14 16  1  0
 14 29  1  6
 15 30  1  0
 15 31  1  0
 15 32  1  0
 16 17  1  0
 16 33  1  0
 16 34  1  0
 17 35  1  0
M  END

