
     RDKit          3D

 54 57  0  0  0  0  0  0  0  0999 V2000
    3.0692   -1.2521    0.6156 C   0  0  0  0  0  0  0  0  0  0  0  0
    2.5387    0.0458    0.2257 N   0  0  0  0  0  0  0  0  0  0  0  0
    3.1208    0.7380   -0.8423 C   0  0  0  0  0  0  0  0  0  0  0  0
    2.8351    2.1048   -1.0722 C   0  0  0  0  0  0  0  0  0  0  0  0
    3.4455    2.7797   -2.1191 C   0  0  0  0  0  0  0  0  0  0  0  0
    4.3688    2.1600   -2.9821 C   0  0  0  0  0  0  0  0  0  0  0  0
    4.6765    0.8080   -2.7495 C   0  0  0  0  0  0  0  0  0  0  0  0
    4.0512    0.1190   -1.6967 C   0  0  0  0  0  0  0  0  0  0  0  0
    5.7167    0.0774   -3.5803 C   0  0  0  0  0  0  0  0  0  0  0  0
    6.0535    0.7795   -4.8973 C   0  0  0  0  0  0  0  0  0  0  0  0
    6.2567    2.2790   -4.6654 C   0  0  0  0  0  0  0  0  0  0  0  0
    4.9792    2.9558   -4.1313 C   0  0  1  0  0  0  0  0  0  0  0  0
    5.2522    3.9549   -3.7477 H   0  0  0  0  0  0  0  0  0  0  0  0
    3.9162    3.1953   -5.2265 C   0  0  0  0  0  0  0  0  0  0  0  0
    4.3718    4.1613   -6.2272 N   0  0  0  0  0  0  0  0  0  0  0  0
    3.4866    4.6117   -7.2397 C   0  0  0  0  0  0  0  0  0  0  0  0
    2.2231    4.0270   -7.4583 C   0  0  0  0  0  0  0  0  0  0  0  0
    1.3739    4.4265   -8.4032 N   0  0  0  0  0  0  0  0  0  0  0  0
    1.7370    5.4328   -9.2009 C   0  0  0  0  0  0  0  0  0  0  0  0
    2.9535    6.1015   -9.0619 C   0  0  0  0  0  0  0  0  0  0  0  0
    3.8425    5.7131   -8.0552 C   0  0  0  0  0  0  0  0  0  0  0  0
    5.0940    6.5499   -7.8803 C   0  0  0  0  0  0  0  0  0  0  0  0
    5.4779    7.3120   -8.7298 O   0  0  0  0  0  0  0  0  0  0  0  0
    5.7278    6.4304   -6.7048 O   0  0  0  0  0  0  0  0  0  0  0  0
    1.3006    0.4510    0.7793 C   0  0  0  0  0  0  0  0  0  0  0  0
    0.1686    0.7121   -0.0138 C   0  0  0  0  0  0  0  0  0  0  0  0
   -1.0418    1.1065    0.5587 C   0  0  0  0  0  0  0  0  0  0  0  0
   -1.1572    1.2286    1.9474 C   0  0  0  0  0  0  0  0  0  0  0  0
   -0.0521    0.9621    2.7594 C   0  0  0  0  0  0  0  0  0  0  0  0
    1.1530    0.5913    2.1715 C   0  0  0  0  0  0  0  0  0  0  0  0
    2.2113    0.3468    2.9631 F   0  0  0  0  0  0  0  0  0  0  0  0
    4.1634   -1.2050    0.7325 H   0  0  0  0  0  0  0  0  0  0  0  0
    2.8326   -2.0426   -0.1225 H   0  0  0  0  0  0  0  0  0  0  0  0
    2.6422   -1.5476    1.5804 H   0  0  0  0  0  0  0  0  0  0  0  0
    2.1457    2.6364   -0.4158 H   0  0  0  0  0  0  0  0  0  0  0  0
    3.2120    3.8399   -2.2619 H   0  0  0  0  0  0  0  0  0  0  0  0
    4.3055   -0.9321   -1.5564 H   0  0  0  0  0  0  0  0  0  0  0  0
    5.3855   -0.9577   -3.7669 H   0  0  0  0  0  0  0  0  0  0  0  0
    6.6388   -0.0105   -2.9751 H   0  0  0  0  0  0  0  0  0  0  0  0
    5.2414    0.6167   -5.6277 H   0  0  0  0  0  0  0  0  0  0  0  0
    6.9579    0.3334   -5.3413 H   0  0  0  0  0  0  0  0  0  0  0  0
    6.6117    2.7718   -5.5874 H   0  0  0  0  0  0  0  0  0  0  0  0
    7.0655    2.4239   -3.9285 H   0  0  0  0  0  0  0  0  0  0  0  0
    3.0076    3.6020   -4.7583 H   0  0  0  0  0  0  0  0  0  0  0  0
    3.6281    2.2287   -5.6824 H   0  0  0  0  0  0  0  0  0  0  0  0
    5.2711    3.8862   -6.6218 H   0  0  0  0  0  0  0  0  0  0  0  0
    1.8907    3.1927   -6.8340 H   0  0  0  0  0  0  0  0  0  0  0  0
    1.0268    5.7266   -9.9818 H   0  0  0  0  0  0  0  0  0  0  0  0
    3.2275    6.9386   -9.7064 H   0  0  0  0  0  0  0  0  0  0  0  0
    5.2563    5.7725   -6.1421 H   0  0  0  0  0  0  0  0  0  0  0  0
    0.2565    0.6048   -1.0968 H   0  0  0  0  0  0  0  0  0  0  0  0
   -1.9031    1.3056   -0.0832 H   0  0  0  0  0  0  0  0  0  0  0  0
   -2.1044    1.5293    2.4006 H   0  0  0  0  0  0  0  0  0  0  0  0
   -0.0987    1.0498    3.8468 H   0  0  0  0  0  0  0  0  0  0  0  0
  1  2  1  0
  1 32  1  0
  1 33  1  0
  1 34  1  0
  2  3  1  0
  2 25  1  0
  3  4  2  0
  3  8  1  0
  4  5  1  0
  4 35  1  0
  5  6  2  0
  5 36  1  0
  6  7  1  0
  6 12  1  0
  7  8  2  0
  7  9  1  0
  8 37  1  0
  9 10  1  0
  9 38  1  0
  9 39  1  0
 10 11  1  0
 10 40  1  0
 10 41  1  0
 11 12  1  0
 11 42  1  0
 11 43  1  0
 12 13  1  1
 12 14  1  0
 14 15  1  0
 14 44  1  0
 14 45  1  0
 15 16  1  0
 15 46  1  0
 16 17  2  0
 16 21  1  0
 17 18  1  0
 17 47  1  0
 18 19  2  0
 19 20  1  0
 19 48  1  0
 20 21  2  0
 20 49  1  0
 21 22  1  0
 22 23  2  0
 22 24  1  0
 24 50  1  0
 25 26  2  0
 25 30  1  0
 26 27  1  0
 26 51  1  0
 27 28  2  0
 27 52  1  0
 28 29  1  0
 28 53  1  0
 29 30  2  0
 29 54  1  0
 30 31  1  0
M  END

