
     RDKit          3D

 46 49  0  0  0  0  0  0  0  0999 V2000
    1.4049    0.0055   -0.7631 O   0  0  0  0  0  0  0  0  0  0  0  0
    2.5971   -0.0503   -0.5777 C   0  0  0  0  0  0  0  0  0  0  0  0
    3.4500   -1.2491   -0.4111 C   0  0  0  0  0  0  0  0  0  0  0  0
    2.8632   -2.5700   -0.6016 C   0  0  0  0  0  0  0  0  0  0  0  0
    1.6244   -3.0151   -0.1806 C   0  0  0  0  0  0  0  0  0  0  0  0
    1.3028   -4.3245   -0.6402 C   0  0  0  0  0  0  0  0  0  0  0  0
    2.2879   -4.8701   -1.4244 C   0  0  0  0  0  0  0  0  0  0  0  0
    3.6179   -3.7848   -1.6243 S   0  0  0  0  0  0  0  0  0  0  0  0
    4.7495   -0.8318   -0.1927 C   0  0  0  0  0  0  0  0  0  0  0  0
    5.8640   -1.5359    0.1372 N   0  0  0  0  0  0  0  0  0  0  0  0
    5.7814   -2.7665    0.9365 C   0  0  0  0  0  0  0  0  0  0  0  0
    6.7314   -3.8515    0.4274 C   0  0  0  0  0  0  0  0  0  0  0  0
    8.1632   -3.3253    0.2926 C   0  0  0  0  0  0  0  0  0  0  0  0
    8.1905   -2.0424   -0.5461 C   0  0  2  0  0  0  0  0  0  0  0  0
    9.6028   -1.4612   -0.6754 C   0  0  0  0  0  0  0  0  0  0  0  0
    9.6606   -0.2909   -1.4625 O   0  0  0  0  0  0  0  0  0  0  0  0
    7.2241   -0.9951    0.0292 C   0  0  0  0  0  0  0  0  0  0  0  0
    4.7607    0.6929   -0.2537 C   0  0  0  0  0  0  0  0  0  0  0  0
    5.7060    1.4302   -0.0940 O   0  0  0  0  0  0  0  0  0  0  0  0
    3.4468    1.0959   -0.4879 N   0  0  0  0  0  0  0  0  0  0  0  0
    3.0150    2.4436   -0.6020 C   0  0  0  0  0  0  0  0  0  0  0  0
    1.7634    2.8215   -0.0908 C   0  0  0  0  0  0  0  0  0  0  0  0
    1.3539    4.1490   -0.2184 C   0  0  0  0  0  0  0  0  0  0  0  0
   -0.2075    4.6194    0.4106 Cl  0  0  0  0  0  0  0  0  0  0  0  0
    2.1582    5.1156   -0.8260 C   0  0  0  0  0  0  0  0  0  0  0  0
    3.4014    4.7139   -1.3189 C   0  0  0  0  0  0  0  0  0  0  0  0
    4.4330    5.8982   -2.0860 Cl  0  0  0  0  0  0  0  0  0  0  0  0
    3.8408    3.3932   -1.2238 C   0  0  0  0  0  0  0  0  0  0  0  0
    0.9642   -2.4031    0.4331 H   0  0  0  0  0  0  0  0  0  0  0  0
    0.3739   -4.8427   -0.3974 H   0  0  0  0  0  0  0  0  0  0  0  0
    2.3076   -5.8501   -1.8993 H   0  0  0  0  0  0  0  0  0  0  0  0
    4.7472   -3.1267    0.9505 H   0  0  0  0  0  0  0  0  0  0  0  0
    6.0493   -2.5028    1.9799 H   0  0  0  0  0  0  0  0  0  0  0  0
    6.3706   -4.2116   -0.5498 H   0  0  0  0  0  0  0  0  0  0  0  0
    6.6926   -4.7092    1.1189 H   0  0  0  0  0  0  0  0  0  0  0  0
    8.8146   -4.0950   -0.1544 H   0  0  0  0  0  0  0  0  0  0  0  0
    8.5757   -3.1083    1.2960 H   0  0  0  0  0  0  0  0  0  0  0  0
    7.8349   -2.2937   -1.5655 H   0  0  0  0  0  0  0  0  0  0  0  0
   10.2846   -2.2481   -1.0575 H   0  0  0  0  0  0  0  0  0  0  0  0
    9.9780   -1.1754    0.3222 H   0  0  0  0  0  0  0  0  0  0  0  0
    9.4266   -0.5222   -2.3713 H   0  0  0  0  0  0  0  0  0  0  0  0
    7.2278   -0.0983   -0.5929 H   0  0  0  0  0  0  0  0  0  0  0  0
    7.5802   -0.6845    1.0319 H   0  0  0  0  0  0  0  0  0  0  0  0
    1.1094    2.0921    0.3796 H   0  0  0  0  0  0  0  0  0  0  0  0
    1.8265    6.1495   -0.9124 H   0  0  0  0  0  0  0  0  0  0  0  0
    4.8177    3.1173   -1.6125 H   0  0  0  0  0  0  0  0  0  0  0  0
  1  2  2  0
  2  3  1  0
  2 20  1  0
  3  4  2  0
  3  9  1  0
  4  5  1  0
  4  8  1  0
  5  6  2  0
  5 29  1  0
  6  7  1  0
  6 30  1  0
  7  8  2  0
  7 31  1  0
  9 10  1  0
  9 18  2  0
 10 11  1  0
 10 17  1  0
 11 12  1  0
 11 32  1  0
 11 33  1  0
 12 13  1  0
 12 34  1  0
 12 35  1  0
 13 14  1  0
 13 36  1  0
 13 37  1  0
 14 15  1  0
 14 17  1  0
 14 38  1  6
 15 16  1  0
 15 39  1  0
 15 40  1  0
 16 41  1  0
 17 42  1  0
 17 43  1  0
 18 19  1  0
 18 20  1  0
 20 21  1  0
 21 22  2  0
 21 28  1  0
 22 23  1  0
 22 44  1  0
 23 24  1  0
 23 25  2  0
 25 26  1  0
 25 45  1  0
 26 27  1  0
 26 28  2  0
 28 46  1  0
M  CHG  2   8   1  19  -1
M  END

