
     RDKit          3D

 48 51  0  0  0  0  0  0  0  0999 V2000
   10.1489    0.3719    3.7003 C   0  0  0  0  0  0  0  0  0  0  0  0
    9.2484    0.3816    2.4905 C   0  0  0  0  0  0  0  0  0  0  0  0
    9.6613    0.9738    1.2855 C   0  0  0  0  0  0  0  0  0  0  0  0
    8.8212    1.0110    0.1720 C   0  0  0  0  0  0  0  0  0  0  0  0
    7.5481    0.4418    0.2593 C   0  0  0  0  0  0  0  0  0  0  0  0
    6.4488    0.5002   -1.1614 S   0  0  1  0  0  0  0  0  0  0  0  0
    5.0861    0.5067   -0.6319 O   0  0  0  0  0  0  0  0  0  0  0  0
    6.9377    1.5517   -2.0561 O   0  0  0  0  0  0  0  0  0  0  0  0
    6.6160   -0.9604   -2.0557 N   0  0  0  0  0  0  0  0  0  0  0  0
    7.8343   -1.0912   -2.8635 C   0  0  0  0  0  0  0  0  0  0  0  0
    8.9151   -1.8268   -2.1196 C   0  0  0  0  0  0  0  0  0  0  0  0
    8.5987   -2.7596   -1.1931 C   0  0  0  0  0  0  0  0  0  0  0  0
    9.6645   -3.4766   -0.4364 C   0  0  0  0  0  0  0  0  0  0  0  0
    9.6165   -3.5838    0.9666 C   0  0  0  0  0  0  0  0  0  0  0  0
   10.6431   -4.2153    1.6717 C   0  0  0  0  0  0  0  0  0  0  0  0
   11.7374   -4.7586    0.9905 C   0  0  0  0  0  0  0  0  0  0  0  0
   11.7960   -4.6644   -0.4026 C   0  0  0  0  0  0  0  0  0  0  0  0
   10.7692   -4.0311   -1.1079 C   0  0  0  0  0  0  0  0  0  0  0  0
    7.1659   -3.0845   -0.9826 C   0  0  0  0  0  0  0  0  0  0  0  0
    6.7562   -4.2985   -0.4094 C   0  0  0  0  0  0  0  0  0  0  0  0
    5.4009   -4.6155   -0.3201 C   0  0  0  0  0  0  0  0  0  0  0  0
    4.4433   -3.7436   -0.8361 C   0  0  0  0  0  0  0  0  0  0  0  0
    4.8016   -2.5233   -1.4338 C   0  0  0  0  0  0  0  0  0  0  0  0
    3.7343   -1.6607   -2.0573 C   0  0  0  0  0  0  0  0  0  0  0  0
    6.1717   -2.1864   -1.4634 C   0  0  0  0  0  0  0  0  0  0  0  0
    7.1027   -0.1421    1.4497 C   0  0  0  0  0  0  0  0  0  0  0  0
    7.9579   -0.1722    2.5518 C   0  0  0  0  0  0  0  0  0  0  0  0
   11.2058    0.4911    3.4198 H   0  0  0  0  0  0  0  0  0  0  0  0
   10.0480   -0.5644    4.2707 H   0  0  0  0  0  0  0  0  0  0  0  0
    9.8938    1.1986    4.3862 H   0  0  0  0  0  0  0  0  0  0  0  0
   10.6573    1.4201    1.2188 H   0  0  0  0  0  0  0  0  0  0  0  0
    9.1381    1.4918   -0.7548 H   0  0  0  0  0  0  0  0  0  0  0  0
    8.1501   -0.0839   -3.1652 H   0  0  0  0  0  0  0  0  0  0  0  0
    7.5611   -1.6235   -3.7963 H   0  0  0  0  0  0  0  0  0  0  0  0
    9.9602   -1.5792   -2.3249 H   0  0  0  0  0  0  0  0  0  0  0  0
    8.7726   -3.1508    1.5081 H   0  0  0  0  0  0  0  0  0  0  0  0
   10.5901   -4.2809    2.7617 H   0  0  0  0  0  0  0  0  0  0  0  0
   12.5381   -5.2566    1.5431 H   0  0  0  0  0  0  0  0  0  0  0  0
   12.6418   -5.0935   -0.9462 H   0  0  0  0  0  0  0  0  0  0  0  0
   10.8119   -3.9776   -2.1984 H   0  0  0  0  0  0  0  0  0  0  0  0
    7.5064   -5.0050   -0.0513 H   0  0  0  0  0  0  0  0  0  0  0  0
    5.0919   -5.5637    0.1271 H   0  0  0  0  0  0  0  0  0  0  0  0
    3.3859   -4.0207   -0.8044 H   0  0  0  0  0  0  0  0  0  0  0  0
    2.9371   -2.2918   -2.4797 H   0  0  0  0  0  0  0  0  0  0  0  0
    4.1495   -1.0253   -2.8510 H   0  0  0  0  0  0  0  0  0  0  0  0
    3.2857   -0.9810   -1.3182 H   0  0  0  0  0  0  0  0  0  0  0  0
    6.0927   -0.5499    1.5112 H   0  0  0  0  0  0  0  0  0  0  0  0
    7.6111   -0.6275    3.4839 H   0  0  0  0  0  0  0  0  0  0  0  0
  1  2  1  0
  1 28  1  0
  1 29  1  0
  1 30  1  0
  2  3  2  0
  2 27  1  0
  3  4  1  0
  3 31  1  0
  4  5  2  0
  4 32  1  0
  6  5  1  1
  5 26  1  0
  6  7  2  0
  6  8  2  0
  6  9  1  0
  9 10  1  0
  9 25  1  0
 10 11  1  0
 10 33  1  0
 10 34  1  0
 11 12  2  0
 11 35  1  0
 12 13  1  0
 12 19  1  0
 13 14  2  0
 13 18  1  0
 14 15  1  0
 14 36  1  0
 15 16  2  0
 15 37  1  0
 16 17  1  0
 16 38  1  0
 17 18  2  0
 17 39  1  0
 18 40  1  0
 19 20  2  0
 19 25  1  0
 20 21  1  0
 20 41  1  0
 21 22  2  0
 21 42  1  0
 22 23  1  0
 22 43  1  0
 23 24  1  0
 23 25  2  0
 24 44  1  0
 24 45  1  0
 24 46  1  0
 26 27  2  0
 26 47  1  0
 27 48  1  0
M  END

