
     RDKit          3D

 34 35  0  0  0  0  0  0  0  0999 V2000
    1.6989   -1.0325   -0.5839 C   0  0  0  0  0  0  0  0  0  0  0  0
    3.0144   -0.5268   -0.5977 O   0  0  0  0  0  0  0  0  0  0  0  0
    3.2662    0.6533   -1.2178 C   0  0  0  0  0  0  0  0  0  0  0  0
    2.2998    1.4369   -1.8643 C   0  0  0  0  0  0  0  0  0  0  0  0
    2.6771    2.6394   -2.4753 C   0  0  0  0  0  0  0  0  0  0  0  0
    3.9991    3.0933   -2.4559 C   0  0  0  0  0  0  0  0  0  0  0  0
    4.3918    4.4069   -3.1145 C   0  0  1  0  0  0  0  0  0  0  0  0
    4.8636    5.4473   -2.0806 C   0  0  0  0  0  0  0  0  0  0  0  0
    5.4066    4.1562   -4.1355 N   0  0  0  0  0  0  0  0  0  0  0  0
    5.6104    4.9417   -5.2489 C   0  0  0  0  0  0  0  0  0  0  0  0
    5.0190    6.2021   -5.4710 C   0  0  0  0  0  0  0  0  0  0  0  0
    5.2963    6.9329   -6.6326 C   0  0  0  0  0  0  0  0  0  0  0  0
    6.1634    6.4380   -7.6067 C   0  0  0  0  0  0  0  0  0  0  0  0
    6.7592    5.1831   -7.4118 C   0  0  0  0  0  0  0  0  0  0  0  0
    6.4793    4.4704   -6.2604 C   0  0  0  0  0  0  0  0  0  0  0  0
    7.0392    3.2517   -6.0678 F   0  0  0  0  0  0  0  0  0  0  0  0
    4.9557    2.2951   -1.7984 C   0  0  0  0  0  0  0  0  0  0  0  0
    4.6016    1.0947   -1.1931 C   0  0  0  0  0  0  0  0  0  0  0  0
    1.7342   -1.9829   -0.0346 H   0  0  0  0  0  0  0  0  0  0  0  0
    1.3202   -1.2238   -1.6044 H   0  0  0  0  0  0  0  0  0  0  0  0
    0.9998   -0.3485   -0.0691 H   0  0  0  0  0  0  0  0  0  0  0  0
    1.2563    1.1242   -1.9049 H   0  0  0  0  0  0  0  0  0  0  0  0
    1.9115    3.2346   -2.9813 H   0  0  0  0  0  0  0  0  0  0  0  0
    3.4861    4.8072   -3.6082 H   0  0  0  0  0  0  0  0  0  0  0  0
    5.7360    5.0740   -1.5226 H   0  0  0  0  0  0  0  0  0  0  0  0
    4.0602    5.6666   -1.3598 H   0  0  0  0  0  0  0  0  0  0  0  0
    5.1575    6.3885   -2.5694 H   0  0  0  0  0  0  0  0  0  0  0  0
    5.7382    3.2035   -4.2189 H   0  0  0  0  0  0  0  0  0  0  0  0
    4.3379    6.6187   -4.7285 H   0  0  0  0  0  0  0  0  0  0  0  0
    4.8210    7.9077   -6.7693 H   0  0  0  0  0  0  0  0  0  0  0  0
    6.3785    7.0124   -8.5100 H   0  0  0  0  0  0  0  0  0  0  0  0
    7.4402    4.7454   -8.1450 H   0  0  0  0  0  0  0  0  0  0  0  0
    5.9999    2.6178   -1.7581 H   0  0  0  0  0  0  0  0  0  0  0  0
    5.3428    0.4741   -0.6854 H   0  0  0  0  0  0  0  0  0  0  0  0
  1  2  1  0
  1 19  1  0
  1 20  1  0
  1 21  1  0
  2  3  1  0
  3  4  2  0
  3 18  1  0
  4  5  1  0
  4 22  1  0
  5  6  2  0
  5 23  1  0
  6  7  1  0
  6 17  1  0
  7  8  1  0
  7  9  1  0
  7 24  1  6
  8 25  1  0
  8 26  1  0
  8 27  1  0
  9 10  1  0
  9 28  1  0
 10 11  2  0
 10 15  1  0
 11 12  1  0
 11 29  1  0
 12 13  2  0
 12 30  1  0
 13 14  1  0
 13 31  1  0
 14 15  2  0
 14 32  1  0
 15 16  1  0
 17 18  2  0
 17 33  1  0
 18 34  1  0
M  END

