
     RDKit          3D

 52 57  0  0  0  0  0  0  0  0999 V2000
    2.6012    0.4869   -1.9540 C   0  0  0  0  0  0  0  0  0  0  0  0
    3.6500   -0.3847   -1.2550 C   0  0  0  0  0  0  0  0  0  0  0  0
    3.4299   -1.9142   -1.3230 C   0  0  2  0  0  0  0  0  0  0  0  0
    1.9874   -2.2226   -1.4374 N   0  0  0  0  0  0  0  0  0  0  0  0
    1.6702   -3.4243   -1.4939 N   0  0  0  0  0  0  0  0  0  0  0  0
    2.7715   -4.4114   -1.4521 C   0  0  2  0  0  0  0  0  0  0  0  0
    2.2097   -5.8498   -1.5404 C   0  0  0  0  0  0  0  0  0  0  0  0
    0.7947   -6.0637   -0.9924 C   0  0  0  0  0  0  0  0  0  0  0  0
    3.6250   -4.1705   -0.1585 C   0  0  2  0  0  0  0  0  0  0  0  0
    2.9997   -4.4810    1.2266 C   0  0  1  0  0  0  0  0  0  0  0  0
    4.1430   -4.3953    2.2706 C   0  0  0  0  0  0  0  0  0  0  0  0
    4.4098   -2.8587    2.3811 C   0  0  0  0  0  0  0  0  0  0  0  0
    3.4200   -2.2638    1.3498 C   0  0  2  0  0  0  0  0  0  0  0  0
    2.2076   -3.1988    1.5530 C   0  0  0  0  0  0  0  0  0  0  0  0
    3.9713   -2.6495   -0.0543 C   0  0  2  0  0  0  0  0  0  0  0  0
    3.7474   -4.0809   -2.6278 C   0  0  1  0  0  0  0  0  0  0  0  0
    3.2418   -4.1849   -4.0966 C   0  0  2  0  0  0  0  0  0  0  0  0
    2.5643   -5.0280   -4.2887 H   0  0  0  0  0  0  0  0  0  0  0  0
    4.5064   -4.1910   -4.9898 C   0  0  0  0  0  0  0  0  0  0  0  0
    5.0264   -2.7220   -4.8637 C   0  0  0  0  0  0  0  0  0  0  0  0
    3.9657   -2.0487   -3.9551 C   0  0  1  0  0  0  0  0  0  0  0  0
    3.9640   -0.9540   -4.0326 H   0  0  0  0  0  0  0  0  0  0  0  0
    2.6852   -2.7785   -4.4084 C   0  0  0  0  0  0  0  0  0  0  0  0
    4.1921   -2.5861   -2.5175 C   0  0  1  0  0  0  0  0  0  0  0  0
    5.2611   -2.5003   -2.2663 H   0  0  0  0  0  0  0  0  0  0  0  0
    2.8808    1.5501   -1.8755 H   0  0  0  0  0  0  0  0  0  0  0  0
    1.6112    0.3530   -1.4978 H   0  0  0  0  0  0  0  0  0  0  0  0
    2.4958    0.2477   -3.0227 H   0  0  0  0  0  0  0  0  0  0  0  0
    3.6926   -0.0744   -0.1993 H   0  0  0  0  0  0  0  0  0  0  0  0
    4.6534   -0.1678   -1.6615 H   0  0  0  0  0  0  0  0  0  0  0  0
    2.9193   -6.5232   -1.0285 H   0  0  0  0  0  0  0  0  0  0  0  0
    2.2130   -6.1731   -2.5931 H   0  0  0  0  0  0  0  0  0  0  0  0
    0.7004   -5.7686    0.0633 H   0  0  0  0  0  0  0  0  0  0  0  0
    0.5169   -7.1275   -1.0683 H   0  0  0  0  0  0  0  0  0  0  0  0
    0.0613   -5.4714   -1.5559 H   0  0  0  0  0  0  0  0  0  0  0  0
    4.5311   -4.7830   -0.2891 H   0  0  0  0  0  0  0  0  0  0  0  0
    2.4466   -5.4279    1.2700 H   0  0  0  0  0  0  0  0  0  0  0  0
    5.0341   -4.9625    1.9582 H   0  0  0  0  0  0  0  0  0  0  0  0
    3.8159   -4.8149    3.2345 H   0  0  0  0  0  0  0  0  0  0  0  0
    5.4547   -2.5877    2.1637 H   0  0  0  0  0  0  0  0  0  0  0  0
    4.1817   -2.4868    3.3922 H   0  0  0  0  0  0  0  0  0  0  0  0
    3.2330   -1.1904    1.4889 H   0  0  0  0  0  0  0  0  0  0  0  0
    1.3589   -3.0038    0.8886 H   0  0  0  0  0  0  0  0  0  0  0  0
    1.8443   -3.1836    2.5937 H   0  0  0  0  0  0  0  0  0  0  0  0
    5.0607   -2.4860   -0.0640 H   0  0  0  0  0  0  0  0  0  0  0  0
    4.6027   -4.7632   -2.4985 H   0  0  0  0  0  0  0  0  0  0  0  0
    4.2409   -4.4314   -6.0312 H   0  0  0  0  0  0  0  0  0  0  0  0
    5.2466   -4.9380   -4.6632 H   0  0  0  0  0  0  0  0  0  0  0  0
    5.0629   -2.2249   -5.8455 H   0  0  0  0  0  0  0  0  0  0  0  0
    6.0392   -2.6624   -4.4347 H   0  0  0  0  0  0  0  0  0  0  0  0
    2.4836   -2.6431   -5.4837 H   0  0  0  0  0  0  0  0  0  0  0  0
    1.7823   -2.5063   -3.8512 H   0  0  0  0  0  0  0  0  0  0  0  0
  1  2  1  0
  1 26  1  0
  1 27  1  0
  1 28  1  0
  3  2  1  1
  2 29  1  0
  2 30  1  0
  3  4  1  0
  3 15  1  0
  3 24  1  0
  4  5  2  0
  5  6  1  0
  6  7  1  6
  6  9  1  0
  6 16  1  0
  7  8  1  0
  7 31  1  0
  7 32  1  0
  8 33  1  0
  8 34  1  0
  8 35  1  0
  9 10  1  0
  9 15  1  0
  9 36  1  6
 10 11  1  0
 10 14  1  0
 10 37  1  6
 11 12  1  0
 11 38  1  0
 11 39  1  0
 12 13  1  0
 12 40  1  0
 12 41  1  0
 13 14  1  0
 13 15  1  0
 13 42  1  6
 14 43  1  0
 14 44  1  0
 15 45  1  1
 16 17  1  0
 16 24  1  0
 16 46  1  6
 17 18  1  1
 17 19  1  0
 17 23  1  0
 19 20  1  0
 19 47  1  0
 19 48  1  0
 20 21  1  0
 20 49  1  0
 20 50  1  0
 21 22  1  1
 21 23  1  0
 21 24  1  0
 23 51  1  0
 23 52  1  0
 24 25  1  1
M  END

