
     RDKit          3D

 43 46  0  0  0  0  0  0  0  0999 V2000
    4.6249   -0.4196    2.1761 O   0  0  0  0  0  0  0  0  0  0  0  0
    4.0946   -0.2072    1.0931 C   0  0  0  0  0  0  0  0  0  0  0  0
    2.8706   -0.7213    0.7709 N   0  0  0  0  0  0  0  0  0  0  0  0
    2.0893   -1.5156    1.7267 C   0  0  2  0  0  0  0  0  0  0  0  0
    2.2627   -1.0640    2.7166 H   0  0  0  0  0  0  0  0  0  0  0  0
    2.5608   -2.9880    1.7871 C   0  0  0  0  0  0  0  0  0  0  0  0
    2.0833   -3.8058    0.5800 C   0  0  0  0  0  0  0  0  0  0  0  0
    0.5460   -3.8994    0.5168 C   0  0  0  0  0  0  0  0  0  0  0  0
   -0.0403   -2.5509    0.7987 C   0  0  0  0  0  0  0  0  0  0  0  0
    0.6319   -1.4719    1.3608 C   0  0  0  0  0  0  0  0  0  0  0  0
   -0.3493   -0.4517    1.4493 C   0  0  0  0  0  0  0  0  0  0  0  0
   -1.5240   -0.8676    0.9882 N   0  0  0  0  0  0  0  0  0  0  0  0
   -1.3247   -2.1432    0.5925 N   0  0  0  0  0  0  0  0  0  0  0  0
   -2.4493   -2.9253    0.1025 C   0  0  0  0  0  0  0  0  0  0  0  0
   -3.1231   -3.7777    1.1646 C   0  0  0  0  0  0  0  0  0  0  0  0
   -3.5475   -3.2022    2.3734 C   0  0  0  0  0  0  0  0  0  0  0  0
   -4.1882   -3.9804    3.3393 C   0  0  0  0  0  0  0  0  0  0  0  0
   -4.4178   -5.3421    3.1105 C   0  0  0  0  0  0  0  0  0  0  0  0
   -4.0000   -5.9218    1.9104 C   0  0  0  0  0  0  0  0  0  0  0  0
   -3.3535   -5.1423    0.9449 C   0  0  0  0  0  0  0  0  0  0  0  0
    4.7564    0.6358    0.0455 C   0  0  0  0  0  0  0  0  0  0  0  0
    4.3277    0.8834   -1.3032 C   0  0  0  0  0  0  0  0  0  0  0  0
    5.1801    1.7087   -1.9882 C   0  0  0  0  0  0  0  0  0  0  0  0
    6.5188    2.1962   -1.0023 S   0  0  0  0  0  0  0  0  0  0  0  0
    5.9354    1.2870    0.3353 C   0  0  0  0  0  0  0  0  0  0  0  0
    2.4220   -0.4571   -0.0962 H   0  0  0  0  0  0  0  0  0  0  0  0
    2.1697   -3.4368    2.7174 H   0  0  0  0  0  0  0  0  0  0  0  0
    3.6575   -3.0008    1.8665 H   0  0  0  0  0  0  0  0  0  0  0  0
    2.5153   -4.8184    0.6081 H   0  0  0  0  0  0  0  0  0  0  0  0
    2.4589   -3.3314   -0.3438 H   0  0  0  0  0  0  0  0  0  0  0  0
    0.1791   -4.6287    1.2629 H   0  0  0  0  0  0  0  0  0  0  0  0
    0.2206   -4.2813   -0.4663 H   0  0  0  0  0  0  0  0  0  0  0  0
   -0.2434    0.5648    1.8300 H   0  0  0  0  0  0  0  0  0  0  0  0
   -2.1037   -3.5609   -0.7267 H   0  0  0  0  0  0  0  0  0  0  0  0
   -3.1590   -2.1941   -0.3123 H   0  0  0  0  0  0  0  0  0  0  0  0
   -3.3675   -2.1387    2.5503 H   0  0  0  0  0  0  0  0  0  0  0  0
   -4.5133   -3.5213    4.2766 H   0  0  0  0  0  0  0  0  0  0  0  0
   -4.9204   -5.9491    3.8678 H   0  0  0  0  0  0  0  0  0  0  0  0
   -4.1726   -6.9850    1.7244 H   0  0  0  0  0  0  0  0  0  0  0  0
   -3.0257   -5.6030    0.0079 H   0  0  0  0  0  0  0  0  0  0  0  0
    3.4321    0.4617   -1.7630 H   0  0  0  0  0  0  0  0  0  0  0  0
    5.0993    2.0541   -3.0179 H   0  0  0  0  0  0  0  0  0  0  0  0
    6.4641    1.2542    1.2863 H   0  0  0  0  0  0  0  0  0  0  0  0
  1  2  2  0
  2  3  1  0
  2 21  1  0
  3  4  1  0
  3 26  1  0
  4  5  1  1
  4  6  1  0
  4 10  1  0
  6  7  1  0
  6 27  1  0
  6 28  1  0
  7  8  1  0
  7 29  1  0
  7 30  1  0
  8  9  1  0
  8 31  1  0
  8 32  1  0
  9 10  2  0
  9 13  1  0
 10 11  1  0
 11 12  2  0
 11 33  1  0
 12 13  1  0
 13 14  1  0
 14 15  1  0
 14 34  1  0
 14 35  1  0
 15 16  2  0
 15 20  1  0
 16 17  1  0
 16 36  1  0
 17 18  2  0
 17 37  1  0
 18 19  1  0
 18 38  1  0
 19 20  2  0
 19 39  1  0
 20 40  1  0
 21 22  1  0
 21 25  2  0
 22 23  2  0
 22 41  1  0
 23 24  1  0
 23 42  1  0
 24 25  1  0
 25 43  1  0
M  END

