
     RDKit          3D

 44 47  0  0  0  0  0  0  0  0999 V2000
    3.5288   -1.5634    0.4376 C   0  0  0  0  0  0  0  0  0  0  0  0
    3.3020   -0.1384    0.6469 N   0  0  0  0  0  0  0  0  0  0  0  0
    2.6794    0.2613    1.8712 C   0  0  0  0  0  0  0  0  0  0  0  0
    3.4007    0.9815    2.8365 C   0  0  0  0  0  0  0  0  0  0  0  0
    2.7939    1.3438    4.0410 C   0  0  0  0  0  0  0  0  0  0  0  0
    1.4689    0.9788    4.3014 C   0  0  0  0  0  0  0  0  0  0  0  0
    0.7501    0.2547    3.3458 C   0  0  0  0  0  0  0  0  0  0  0  0
    1.3484   -0.0970    2.1330 C   0  0  0  0  0  0  0  0  0  0  0  0
    3.7793    0.7839   -0.2625 C   0  0  0  0  0  0  0  0  0  0  0  0
    3.4345    2.1600   -0.1739 C   0  0  0  0  0  0  0  0  0  0  0  0
    3.9048    3.0642   -1.1064 C   0  0  0  0  0  0  0  0  0  0  0  0
    4.7426    2.6758   -2.1855 C   0  0  0  0  0  0  0  0  0  0  0  0
    5.1726    3.7080   -3.0946 C   0  0  0  0  0  0  0  0  0  0  0  0
    5.9566    3.7345   -4.2149 C   0  0  0  0  0  0  0  0  0  0  0  0
    6.7079    2.7205   -4.9768 C   0  0  0  0  0  0  0  0  0  0  0  0
    6.7920    1.5232   -4.7417 O   0  0  0  0  0  0  0  0  0  0  0  0
    7.4039    3.3529   -6.1446 C   0  0  0  0  0  0  0  0  0  0  0  0
    8.2011    2.6677   -7.0671 C   0  0  0  0  0  0  0  0  0  0  0  0
    8.7914    3.3849   -8.1100 C   0  0  0  0  0  0  0  0  0  0  0  0
    8.5896    4.7695   -8.2322 C   0  0  0  0  0  0  0  0  0  0  0  0
    7.7934    5.4622   -7.3134 C   0  0  0  0  0  0  0  0  0  0  0  0
    7.2149    4.7292   -6.2822 C   0  0  0  0  0  0  0  0  0  0  0  0
    6.1572    5.3640   -4.9814 S   0  0  2  0  0  0  0  0  0  0  0  0
    6.9158    6.2645   -4.1028 O   0  0  0  0  0  0  0  0  0  0  0  0
    4.8860    5.8354   -5.5470 O   0  0  0  0  0  0  0  0  0  0  0  0
    5.0774    1.3020   -2.2731 C   0  0  0  0  0  0  0  0  0  0  0  0
    4.6101    0.3863   -1.3442 C   0  0  0  0  0  0  0  0  0  0  0  0
    2.9739   -2.1274    1.1967 H   0  0  0  0  0  0  0  0  0  0  0  0
    4.5976   -1.8299    0.5315 H   0  0  0  0  0  0  0  0  0  0  0  0
    3.1814   -1.8843   -0.5580 H   0  0  0  0  0  0  0  0  0  0  0  0
    4.4391    1.2543    2.6354 H   0  0  0  0  0  0  0  0  0  0  0  0
    3.3643    1.9049    4.7855 H   0  0  0  0  0  0  0  0  0  0  0  0
    0.9982    1.2584    5.2470 H   0  0  0  0  0  0  0  0  0  0  0  0
   -0.2873   -0.0295    3.5390 H   0  0  0  0  0  0  0  0  0  0  0  0
    0.7825   -0.6462    1.3767 H   0  0  0  0  0  0  0  0  0  0  0  0
    2.7826    2.5057    0.6278 H   0  0  0  0  0  0  0  0  0  0  0  0
    3.6141    4.1144   -1.0137 H   0  0  0  0  0  0  0  0  0  0  0  0
    4.7781    4.6963   -2.8213 H   0  0  0  0  0  0  0  0  0  0  0  0
    8.3434    1.5911   -6.9514 H   0  0  0  0  0  0  0  0  0  0  0  0
    9.4173    2.8664   -8.8403 H   0  0  0  0  0  0  0  0  0  0  0  0
    9.0599    5.3136   -9.0551 H   0  0  0  0  0  0  0  0  0  0  0  0
    7.6302    6.5385   -7.3995 H   0  0  0  0  0  0  0  0  0  0  0  0
    5.7202    0.9684   -3.0877 H   0  0  0  0  0  0  0  0  0  0  0  0
    4.9049   -0.6563   -1.4557 H   0  0  0  0  0  0  0  0  0  0  0  0
  1  2  1  0
  1 28  1  0
  1 29  1  0
  1 30  1  0
  2  3  1  0
  2  9  1  0
  3  4  2  0
  3  8  1  0
  4  5  1  0
  4 31  1  0
  5  6  2  0
  5 32  1  0
  6  7  1  0
  6 33  1  0
  7  8  2  0
  7 34  1  0
  8 35  1  0
  9 10  2  0
  9 27  1  0
 10 11  1  0
 10 36  1  0
 11 12  2  0
 11 37  1  0
 12 13  1  0
 12 26  1  0
 13 14  2  0
 13 38  1  0
 14 15  1  0
 23 14  1  1
 15 16  2  0
 15 17  1  0
 17 18  1  0
 17 22  2  0
 18 19  2  0
 18 39  1  0
 19 20  1  0
 19 40  1  0
 20 21  2  0
 20 41  1  0
 21 22  1  0
 21 42  1  0
 22 23  1  0
 23 24  2  0
 23 25  2  0
 26 27  2  0
 26 43  1  0
 27 44  1  0
M  END

