
     RDKit          3D

 32 33  0  0  0  0  0  0  0  0999 V2000
    1.4527   -0.6404    1.0875 C   0  0  0  0  0  0  0  0  0  0  0  0
    2.8671   -0.4503    1.0401 O   0  0  0  0  0  0  0  0  0  0  0  0
    3.2958    0.6991    0.4889 C   0  0  0  0  0  0  0  0  0  0  0  0
    2.5522    1.5455    0.0507 O   0  0  0  0  0  0  0  0  0  0  0  0
    4.7849    0.8062    0.4796 C   0  0  0  0  0  0  0  0  0  0  0  0
    5.3775    1.9519   -0.0695 C   0  0  0  0  0  0  0  0  0  0  0  0
    6.7651    2.0554   -0.0768 C   0  0  0  0  0  0  0  0  0  0  0  0
    7.5198    1.0060    0.4725 C   0  0  0  0  0  0  0  0  0  0  0  0
    9.0357    1.0480    0.4668 C   0  0  0  0  0  0  0  0  0  0  0  0
    9.6065    0.5117   -0.7725 N   0  0  0  0  0  0  0  0  0  0  0  0
    9.7099   -0.8704   -0.9428 C   0  0  0  0  0  0  0  0  0  0  0  0
   10.2125   -1.4346   -2.0740 C   0  0  0  0  0  0  0  0  0  0  0  0
   10.3060   -2.7874   -2.3512 N   0  0  0  0  0  0  0  0  0  0  0  0
   10.6701   -0.5454   -3.1575 C   0  0  0  0  0  0  0  0  0  0  0  0
   11.1759   -0.9435   -4.1932 O   0  0  0  0  0  0  0  0  0  0  0  0
   10.4829    0.8089   -2.9010 N   0  0  0  0  0  0  0  0  0  0  0  0
   10.7692    1.4507   -3.6364 H   0  0  0  0  0  0  0  0  0  0  0  0
    9.9497    1.4105   -1.7664 C   0  0  0  0  0  0  0  0  0  0  0  0
    9.8126    2.6189   -1.6712 O   0  0  0  0  0  0  0  0  0  0  0  0
    6.9577   -0.0930    0.9936 N   0  0  0  0  0  0  0  0  0  0  0  0
    5.6279   -0.1906    0.9954 C   0  0  0  0  0  0  0  0  0  0  0  0
    1.2920   -1.6238    1.5459 H   0  0  0  0  0  0  0  0  0  0  0  0
    1.0213   -0.6138    0.0755 H   0  0  0  0  0  0  0  0  0  0  0  0
    0.9736    0.1457    1.6906 H   0  0  0  0  0  0  0  0  0  0  0  0
    4.7377    2.7369   -0.4784 H   0  0  0  0  0  0  0  0  0  0  0  0
    7.2731    2.9207   -0.5075 H   0  0  0  0  0  0  0  0  0  0  0  0
    9.4071    0.4468    1.3078 H   0  0  0  0  0  0  0  0  0  0  0  0
    9.3963    2.0789    0.5616 H   0  0  0  0  0  0  0  0  0  0  0  0
    9.3338   -1.4630   -0.1079 H   0  0  0  0  0  0  0  0  0  0  0  0
   10.4238   -3.4146   -1.5644 H   0  0  0  0  0  0  0  0  0  0  0  0
   10.9235   -2.9806   -3.1354 H   0  0  0  0  0  0  0  0  0  0  0  0
    5.1964   -1.0987    1.4264 H   0  0  0  0  0  0  0  0  0  0  0  0
  1  2  1  0
  1 22  1  0
  1 23  1  0
  1 24  1  0
  2  3  1  0
  3  4  2  0
  3  5  1  0
  5  6  2  0
  5 21  1  0
  6  7  1  0
  6 25  1  0
  7  8  2  0
  7 26  1  0
  8  9  1  0
  8 20  1  0
  9 10  1  0
  9 27  1  0
  9 28  1  0
 10 11  1  0
 10 18  1  0
 11 12  2  0
 11 29  1  0
 12 13  1  0
 12 14  1  0
 13 30  1  0
 13 31  1  0
 14 15  2  0
 14 16  1  0
 16 17  1  0
 16 18  1  0
 18 19  2  0
 20 21  2  0
 21 32  1  0
M  END

