
     RDKit          3D

 28 30  0  0  0  0  0  0  0  0999 V2000
    1.1689    0.5797    0.5511 Cl  0  0  0  0  0  0  0  0  0  0  0  0
    2.8702    0.3727    0.2179 C   0  0  0  0  0  0  0  0  0  0  0  0
    3.7319    1.4702    0.2920 C   0  0  0  0  0  0  0  0  0  0  0  0
    5.0880    1.2906    0.0232 C   0  0  0  0  0  0  0  0  0  0  0  0
    5.6143    0.0286   -0.3220 C   0  0  0  0  0  0  0  0  0  0  0  0
    7.0463   -0.0885   -0.5911 C   0  0  0  0  0  0  0  0  0  0  0  0
    7.7302   -1.2049   -0.9338 C   0  0  0  0  0  0  0  0  0  0  0  0
    9.1635   -1.2024   -1.1791 C   0  0  0  0  0  0  0  0  0  0  0  0
    9.9495   -0.1686   -1.1077 N   0  0  0  0  0  0  0  0  0  0  0  0
   11.2531   -0.4929   -1.3956 C   0  0  0  0  0  0  0  0  0  0  0  0
   12.3376    0.4054   -1.4025 C   0  0  0  0  0  0  0  0  0  0  0  0
   13.6076   -0.0667   -1.7142 C   0  0  0  0  0  0  0  0  0  0  0  0
   13.8207   -1.4255   -2.0215 C   0  0  0  0  0  0  0  0  0  0  0  0
   12.7645   -2.3355   -2.0218 C   0  0  0  0  0  0  0  0  0  0  0  0
   11.4846   -1.8629   -1.7082 C   0  0  0  0  0  0  0  0  0  0  0  0
    9.9716   -2.7295   -1.6217 S   0  0  0  0  0  0  0  0  0  0  0  0
    4.7161   -1.0588   -0.3877 C   0  0  0  0  0  0  0  0  0  0  0  0
    3.3603   -0.8950   -0.1222 C   0  0  0  0  0  0  0  0  0  0  0  0
    3.3394    2.4529    0.5579 H   0  0  0  0  0  0  0  0  0  0  0  0
    5.7614    2.1498    0.0815 H   0  0  0  0  0  0  0  0  0  0  0  0
    7.6289    0.8342   -0.5045 H   0  0  0  0  0  0  0  0  0  0  0  0
    7.2236   -2.1678   -1.0413 H   0  0  0  0  0  0  0  0  0  0  0  0
   12.1572    1.4550   -1.1625 H   0  0  0  0  0  0  0  0  0  0  0  0
   14.4544    0.6240   -1.7217 H   0  0  0  0  0  0  0  0  0  0  0  0
   14.8281   -1.7729   -2.2633 H   0  0  0  0  0  0  0  0  0  0  0  0
   12.9342   -3.3876   -2.2605 H   0  0  0  0  0  0  0  0  0  0  0  0
    5.0795   -2.0543   -0.6510 H   0  0  0  0  0  0  0  0  0  0  0  0
    2.6752   -1.7427   -0.1760 H   0  0  0  0  0  0  0  0  0  0  0  0
  1  2  1  0
  2  3  2  0
  2 18  1  0
  3  4  1  0
  3 19  1  0
  4  5  2  0
  4 20  1  0
  5  6  1  0
  5 17  1  0
  6  7  2  0
  6 21  1  0
  7  8  1  0
  7 22  1  0
  8  9  2  0
  8 16  1  0
  9 10  1  0
 10 11  2  0
 10 15  1  0
 11 12  1  0
 11 23  1  0
 12 13  2  0
 12 24  1  0
 13 14  1  0
 13 25  1  0
 14 15  2  0
 14 26  1  0
 15 16  1  0
 17 18  2  0
 17 27  1  0
 18 28  1  0
M  END

