
     RDKit          3D

 39 40  0  0  0  0  0  0  0  0999 V2000
    0.9034    2.7375   -1.4040 C   0  0  0  0  0  0  0  0  0  0  0  0
    1.1984    1.3039   -0.9327 C   0  0  1  0  0  0  0  0  0  0  0  0
   -0.0370    0.3971   -1.0578 C   0  0  0  0  0  0  0  0  0  0  0  0
    2.3555    0.7258   -1.6972 C   0  0  0  0  0  0  0  0  0  0  0  0
    3.4730    0.3604   -1.1220 N   0  0  0  0  0  0  0  0  0  0  0  0
    4.2504   -0.1083   -2.1821 O   0  0  0  0  0  0  0  0  0  0  0  0
    3.5145    0.0256   -3.2944 C   0  0  0  0  0  0  0  0  0  0  0  0
    4.1076   -0.4113   -4.5919 C   0  0  0  0  0  0  0  0  0  0  0  0
    4.4406   -1.9112   -4.6298 C   0  0  0  0  0  0  0  0  0  0  0  0
    5.0614   -2.3300   -5.9616 C   0  0  0  0  0  0  0  0  0  0  0  0
    5.3471   -3.7478   -5.9619 N   0  0  0  0  0  0  0  0  0  0  0  0
    5.8996   -4.4313   -6.9943 C   0  0  0  0  0  0  0  0  0  0  0  0
    6.2557   -3.7719   -8.2058 C   0  0  0  0  0  0  0  0  0  0  0  0
    6.8211   -4.4461   -9.2743 C   0  0  0  0  0  0  0  0  0  0  0  0
    7.0665   -5.8279   -9.1966 C   0  0  0  0  0  0  0  0  0  0  0  0
    7.7811   -6.6643  -10.5540 Cl  0  0  0  0  0  0  0  0  0  0  0  0
    6.7387   -6.5159   -8.0416 C   0  0  0  0  0  0  0  0  0  0  0  0
    6.1646   -5.8384   -6.9535 C   0  0  0  0  0  0  0  0  0  0  0  0
    5.8543   -6.6497   -5.7830 N   0  0  0  0  0  0  0  0  0  0  0  0
    5.3481   -6.0977   -4.7984 O   0  0  0  0  0  0  0  0  0  0  0  0
    6.1038   -7.8431   -5.8157 O   0  0  0  0  0  0  0  0  0  0  0  0
    2.3404    0.5303   -3.0637 N   0  0  0  0  0  0  0  0  0  0  0  0
    0.0649    3.1644   -0.8316 H   0  0  0  0  0  0  0  0  0  0  0  0
    0.6322    2.7478   -2.4714 H   0  0  0  0  0  0  0  0  0  0  0  0
    1.7778    3.3927   -1.2678 H   0  0  0  0  0  0  0  0  0  0  0  0
    1.5149    1.3327    0.1223 H   0  0  0  0  0  0  0  0  0  0  0  0
   -0.3486    0.3072   -2.1104 H   0  0  0  0  0  0  0  0  0  0  0  0
   -0.8792    0.8149   -0.4840 H   0  0  0  0  0  0  0  0  0  0  0  0
    0.1675   -0.6148   -0.6749 H   0  0  0  0  0  0  0  0  0  0  0  0
    5.0246    0.1763   -4.7734 H   0  0  0  0  0  0  0  0  0  0  0  0
    3.3862   -0.1482   -5.3790 H   0  0  0  0  0  0  0  0  0  0  0  0
    3.5217   -2.4965   -4.4556 H   0  0  0  0  0  0  0  0  0  0  0  0
    5.1345   -2.1548   -3.8085 H   0  0  0  0  0  0  0  0  0  0  0  0
    5.9863   -1.7463   -6.1370 H   0  0  0  0  0  0  0  0  0  0  0  0
    4.3713   -2.0725   -6.7887 H   0  0  0  0  0  0  0  0  0  0  0  0
    5.1347   -4.3146   -5.1428 H   0  0  0  0  0  0  0  0  0  0  0  0
    6.0787   -2.7010   -8.2977 H   0  0  0  0  0  0  0  0  0  0  0  0
    7.0801   -3.9043  -10.1859 H   0  0  0  0  0  0  0  0  0  0  0  0
    6.9141   -7.5856   -7.9459 H   0  0  0  0  0  0  0  0  0  0  0  0
  1  2  1  0
  1 23  1  0
  1 24  1  0
  1 25  1  0
  2  3  1  0
  2  4  1  0
  2 26  1  1
  3 27  1  0
  3 28  1  0
  3 29  1  0
  4  5  2  0
  4 22  1  0
  5  6  1  0
  6  7  1  0
  7  8  1  0
  7 22  2  0
  8  9  1  0
  8 30  1  0
  8 31  1  0
  9 10  1  0
  9 32  1  0
  9 33  1  0
 10 11  1  0
 10 34  1  0
 10 35  1  0
 11 12  1  0
 11 36  1  0
 12 13  2  0
 12 18  1  0
 13 14  1  0
 13 37  1  0
 14 15  2  0
 14 38  1  0
 15 16  1  0
 15 17  1  0
 17 18  2  0
 17 39  1  0
 18 19  1  0
 19 20  2  0
 19 21  1  0
M  CHG  2  19   1  21  -1
M  END

