
     RDKit          3D

 49 51  0  0  0  0  0  0  0  0999 V2000
    6.3520   -4.1227    3.3629 C   0  0  0  0  0  0  0  0  0  0  0  0
    5.7768   -2.7962    3.8613 C   0  0  0  0  0  0  0  0  0  0  0  0
    6.8262   -1.6865    3.9825 C   0  0  0  0  0  0  0  0  0  0  0  0
    6.2443   -0.3716    4.4959 C   0  0  0  0  0  0  0  0  0  0  0  0
    7.2344    0.6368    4.6756 O   0  0  0  0  0  0  0  0  0  0  0  0
    7.5631    1.3747    3.5505 C   0  0  1  0  0  0  0  0  0  0  0  0
    6.7501    2.6749    3.1783 C   0  0  1  0  0  0  0  0  0  0  0  0
    5.9678    3.2290    4.3387 C   0  0  0  0  0  0  0  0  0  0  0  0
    5.0592    4.2360    4.3826 C   0  0  0  0  0  0  0  0  0  0  0  0
    4.6095    5.0736    3.3641 N   0  0  0  0  0  0  0  0  0  0  0  0
    5.1497    5.1750    2.0236 C   0  0  0  0  0  0  0  0  0  0  0  0
    3.5531    5.8778    3.8085 C   0  0  0  0  0  0  0  0  0  0  0  0
    2.7846    6.7923    3.0826 C   0  0  0  0  0  0  0  0  0  0  0  0
    1.7792    7.4943    3.7644 C   0  0  0  0  0  0  0  0  0  0  0  0
    1.5441    7.2850    5.1255 C   0  0  0  0  0  0  0  0  0  0  0  0
    2.3217    6.3552    5.8378 C   0  0  0  0  0  0  0  0  0  0  0  0
    3.3200    5.6538    5.1756 C   0  0  0  0  0  0  0  0  0  0  0  0
    4.3062    4.6130    5.6824 C   0  0  2  0  0  0  0  0  0  0  0  0
    5.2811    5.2318    6.7091 C   0  0  0  0  0  0  0  0  0  0  0  0
    3.5820    3.3995    6.2965 C   0  0  0  0  0  0  0  0  0  0  0  0
    8.1031    3.4271    3.0217 C   0  0  0  0  0  0  0  0  0  0  0  0
    8.4298    4.4835    2.5600 O   0  0  0  0  0  0  0  0  0  0  0  0
    8.8524    2.2248    3.6888 C   0  0  0  0  0  0  0  0  0  0  0  0
    9.9372    2.0397    4.1504 O   0  0  0  0  0  0  0  0  0  0  0  0
    5.5726   -4.8976    3.2890 H   0  0  0  0  0  0  0  0  0  0  0  0
    7.1344   -4.4998    4.0422 H   0  0  0  0  0  0  0  0  0  0  0  0
    6.8079   -4.0125    2.3648 H   0  0  0  0  0  0  0  0  0  0  0  0
    5.2951   -2.9500    4.8441 H   0  0  0  0  0  0  0  0  0  0  0  0
    4.9704   -2.4659    3.1810 H   0  0  0  0  0  0  0  0  0  0  0  0
    7.3033   -1.5255    2.9986 H   0  0  0  0  0  0  0  0  0  0  0  0
    7.6330   -1.9978    4.6685 H   0  0  0  0  0  0  0  0  0  0  0  0
    5.7916   -0.5249    5.4889 H   0  0  0  0  0  0  0  0  0  0  0  0
    5.4413   -0.0071    3.8269 H   0  0  0  0  0  0  0  0  0  0  0  0
    7.6718    0.7435    2.6441 H   0  0  0  0  0  0  0  0  0  0  0  0
    6.1735    2.5964    2.2453 H   0  0  0  0  0  0  0  0  0  0  0  0
    6.1692    2.7331    5.2903 H   0  0  0  0  0  0  0  0  0  0  0  0
    6.2352    5.0115    2.0328 H   0  0  0  0  0  0  0  0  0  0  0  0
    4.9796    6.1928    1.6439 H   0  0  0  0  0  0  0  0  0  0  0  0
    4.6754    4.4675    1.3202 H   0  0  0  0  0  0  0  0  0  0  0  0
    2.9453    6.9585    2.0163 H   0  0  0  0  0  0  0  0  0  0  0  0
    1.1676    8.2135    3.2133 H   0  0  0  0  0  0  0  0  0  0  0  0
    0.7542    7.8408    5.6359 H   0  0  0  0  0  0  0  0  0  0  0  0
    2.1377    6.1898    6.9031 H   0  0  0  0  0  0  0  0  0  0  0  0
    5.8107    6.0963    6.2815 H   0  0  0  0  0  0  0  0  0  0  0  0
    6.0324    4.4925    7.0283 H   0  0  0  0  0  0  0  0  0  0  0  0
    4.7328    5.5739    7.6016 H   0  0  0  0  0  0  0  0  0  0  0  0
    2.8923    2.9401    5.5725 H   0  0  0  0  0  0  0  0  0  0  0  0
    2.9973    3.7082    7.1778 H   0  0  0  0  0  0  0  0  0  0  0  0
    4.3015    2.6321    6.6213 H   0  0  0  0  0  0  0  0  0  0  0  0
  1  2  1  0
  1 25  1  0
  1 26  1  0
  1 27  1  0
  2  3  1  0
  2 28  1  0
  2 29  1  0
  3  4  1  0
  3 30  1  0
  3 31  1  0
  4  5  1  0
  4 32  1  0
  4 33  1  0
  5  6  1  0
  6  7  1  0
  6 23  1  0
  6 34  1  6
  7  8  1  0
  7 21  1  0
  7 35  1  6
  8  9  2  0
  8 36  1  0
  9 10  1  0
  9 18  1  0
 10 11  1  0
 10 12  1  0
 11 37  1  0
 11 38  1  0
 11 39  1  0
 12 13  1  0
 12 17  2  0
 13 14  2  0
 13 40  1  0
 14 15  1  0
 14 41  1  0
 15 16  2  0
 15 42  1  0
 16 17  1  0
 16 43  1  0
 17 18  1  0
 18 19  1  1
 18 20  1  0
 19 44  1  0
 19 45  1  0
 19 46  1  0
 20 47  1  0
 20 48  1  0
 20 49  1  0
 21 22  2  0
 21 23  1  0
 23 24  2  0
M  END

