
     RDKit          3D

 51 53  0  0  0  0  0  0  0  0999 V2000
    2.3825   -0.7354   -0.2323 C   0  0  0  0  0  0  0  0  0  0  0  0
    2.7530   -0.0516    1.0965 C   0  0  1  0  0  0  0  0  0  0  0  0
    1.6275    0.9019    1.5417 C   0  0  0  0  0  0  0  0  0  0  0  0
    3.0024   -1.1117    2.1799 C   0  0  0  0  0  0  0  0  0  0  0  0
    4.0227    0.6921    0.9434 N   0  0  0  0  0  0  0  0  0  0  0  0
    4.2309    1.7303    0.1015 C   0  0  0  0  0  0  0  0  0  0  0  0
    3.4201    2.1560   -0.7105 O   0  0  0  0  0  0  0  0  0  0  0  0
    5.6485    2.3669    0.2424 C   0  0  1  0  0  0  0  0  0  0  0  0
    5.9869    3.2206   -0.9909 C   0  0  0  0  0  0  0  0  0  0  0  0
    6.9224    4.6812   -0.4007 S   0  0  0  0  0  0  0  0  0  0  0  0
    5.8924    4.6531    1.1148 C   0  0  0  0  0  0  0  0  0  0  0  0
    5.7337    3.2393    1.4372 N   0  0  0  0  0  0  0  0  0  0  0  0
    6.0054    2.6598    2.6466 C   0  0  0  0  0  0  0  0  0  0  0  0
    6.0898    1.4413    2.7787 O   0  0  0  0  0  0  0  0  0  0  0  0
    6.1371    3.5638    3.8441 C   0  0  0  0  0  0  0  0  0  0  0  0
    5.1119    4.4548    4.1831 C   0  0  0  0  0  0  0  0  0  0  0  0
    5.1754    5.2267    5.3595 C   0  0  0  0  0  0  0  0  0  0  0  0
    4.1425    6.1237    5.7092 N   0  0  0  0  0  0  0  0  0  0  0  0
    4.0706    6.7367    7.0381 C   0  0  0  0  0  0  0  0  0  0  0  0
    2.6720    7.3726    7.0753 C   0  0  0  0  0  0  0  0  0  0  0  0
    2.3883    7.6911    5.6066 C   0  0  0  0  0  0  0  0  0  0  0  0
    3.1977    6.6547    4.8339 C   0  0  0  0  0  0  0  0  0  0  0  0
    3.0588    6.3661    3.6637 O   0  0  0  0  0  0  0  0  0  0  0  0
    6.2976    5.0815    6.1972 C   0  0  0  0  0  0  0  0  0  0  0  0
    7.3232    4.1951    5.8656 C   0  0  0  0  0  0  0  0  0  0  0  0
    7.2397    3.4434    4.6996 C   0  0  0  0  0  0  0  0  0  0  0  0
    8.2427    2.6167    4.3873 F   0  0  0  0  0  0  0  0  0  0  0  0
    1.4536   -1.3160   -0.1153 H   0  0  0  0  0  0  0  0  0  0  0  0
    3.1818   -1.4246   -0.5481 H   0  0  0  0  0  0  0  0  0  0  0  0
    2.2335    0.0122   -1.0229 H   0  0  0  0  0  0  0  0  0  0  0  0
    0.6846    0.3473    1.6727 H   0  0  0  0  0  0  0  0  0  0  0  0
    1.4698    1.6886    0.7912 H   0  0  0  0  0  0  0  0  0  0  0  0
    1.8808    1.3791    2.5020 H   0  0  0  0  0  0  0  0  0  0  0  0
    2.0891   -1.6996    2.3560 H   0  0  0  0  0  0  0  0  0  0  0  0
    3.2964   -0.6430    3.1332 H   0  0  0  0  0  0  0  0  0  0  0  0
    3.8026   -1.8064    1.8776 H   0  0  0  0  0  0  0  0  0  0  0  0
    4.7546    0.5375    1.6391 H   0  0  0  0  0  0  0  0  0  0  0  0
    6.3810    1.5587    0.3884 H   0  0  0  0  0  0  0  0  0  0  0  0
    5.0558    3.5299   -1.4860 H   0  0  0  0  0  0  0  0  0  0  0  0
    6.6046    2.6656   -1.7099 H   0  0  0  0  0  0  0  0  0  0  0  0
    4.9175    5.1301    0.9231 H   0  0  0  0  0  0  0  0  0  0  0  0
    6.4017    5.1940    1.9196 H   0  0  0  0  0  0  0  0  0  0  0  0
    4.2493    4.5592    3.5299 H   0  0  0  0  0  0  0  0  0  0  0  0
    4.8664    7.4955    7.1619 H   0  0  0  0  0  0  0  0  0  0  0  0
    4.2119    5.9775    7.8225 H   0  0  0  0  0  0  0  0  0  0  0  0
    2.6348    8.2489    7.7376 H   0  0  0  0  0  0  0  0  0  0  0  0
    1.9420    6.6385    7.4514 H   0  0  0  0  0  0  0  0  0  0  0  0
    2.7617    8.6890    5.3154 H   0  0  0  0  0  0  0  0  0  0  0  0
    1.3308    7.6421    5.3124 H   0  0  0  0  0  0  0  0  0  0  0  0
    6.3905    5.6657    7.1124 H   0  0  0  0  0  0  0  0  0  0  0  0
    8.2014    4.0843    6.5044 H   0  0  0  0  0  0  0  0  0  0  0  0
  1  2  1  0
  1 28  1  0
  1 29  1  0
  1 30  1  0
  2  3  1  0
  2  4  1  0
  2  5  1  6
  3 31  1  0
  3 32  1  0
  3 33  1  0
  4 34  1  0
  4 35  1  0
  4 36  1  0
  5  6  1  0
  5 37  1  0
  6  7  2  0
  6  8  1  0
  8  9  1  0
  8 12  1  0
  8 38  1  1
  9 10  1  0
  9 39  1  0
  9 40  1  0
 10 11  1  0
 11 12  1  0
 11 41  1  0
 11 42  1  0
 12 13  1  0
 13 14  2  0
 13 15  1  0
 15 16  2  0
 15 26  1  0
 16 17  1  0
 16 43  1  0
 17 18  1  0
 17 24  2  0
 18 19  1  0
 18 22  1  0
 19 20  1  0
 19 44  1  0
 19 45  1  0
 20 21  1  0
 20 46  1  0
 20 47  1  0
 21 22  1  0
 21 48  1  0
 21 49  1  0
 22 23  2  0
 24 25  1  0
 24 50  1  0
 25 26  2  0
 25 51  1  0
 26 27  1  0
M  END

