
     RDKit          3D

 39 42  0  0  0  0  0  0  0  0999 V2000
   -1.4405    0.0359    0.7809 C   0  0  0  0  0  0  0  0  0  0  0  0
   -0.9644    1.1025    0.0127 C   0  0  0  0  0  0  0  0  0  0  0  0
    0.3748    1.1447   -0.3799 C   0  0  0  0  0  0  0  0  0  0  0  0
    1.2703    0.1205   -0.0159 C   0  0  0  0  0  0  0  0  0  0  0  0
    2.6955    0.1650   -0.4359 C   0  0  0  0  0  0  0  0  0  0  0  0
    3.3975    1.3877   -0.5015 C   0  0  0  0  0  0  0  0  0  0  0  0
    4.7309    1.4339   -0.8929 C   0  0  0  0  0  0  0  0  0  0  0  0
    5.4153    0.2533   -1.2373 C   0  0  0  0  0  0  0  0  0  0  0  0
    6.8192    0.3047   -1.6510 C   0  0  0  0  0  0  0  0  0  0  0  0
    7.5734    1.3508   -1.7771 N   0  0  0  0  0  0  0  0  0  0  0  0
    8.7428    0.5043   -2.1445 C   0  0  2  0  0  0  0  0  0  0  0  0
    9.3948    0.8050   -3.4718 C   0  0  0  0  0  0  0  0  0  0  0  0
    8.8659    1.7704   -4.3396 C   0  0  0  0  0  0  0  0  0  0  0  0
    9.4739    2.0244   -5.5738 C   0  0  0  0  0  0  0  0  0  0  0  0
   10.6157    1.3162   -5.9565 C   0  0  0  0  0  0  0  0  0  0  0  0
   11.1528    0.3536   -5.0940 C   0  0  0  0  0  0  0  0  0  0  0  0
   10.5488    0.1041   -3.8605 C   0  0  0  0  0  0  0  0  0  0  0  0
    7.8184   -0.7605   -2.0334 C   0  0  0  0  0  0  0  0  0  0  0  0
    4.7254   -0.9681   -1.1750 C   0  0  0  0  0  0  0  0  0  0  0  0
    3.3888   -1.0106   -0.7807 C   0  0  0  0  0  0  0  0  0  0  0  0
    0.7743   -0.9469    0.7575 C   0  0  0  0  0  0  0  0  0  0  0  0
   -0.5643   -0.9885    1.1519 C   0  0  0  0  0  0  0  0  0  0  0  0
   -2.4886    0.0032    1.0891 H   0  0  0  0  0  0  0  0  0  0  0  0
   -1.6421    1.9049   -0.2904 H   0  0  0  0  0  0  0  0  0  0  0  0
    0.7262    1.9723   -1.0003 H   0  0  0  0  0  0  0  0  0  0  0  0
    2.8924    2.3126   -0.2143 H   0  0  0  0  0  0  0  0  0  0  0  0
    5.2718    2.3820   -0.9305 H   0  0  0  0  0  0  0  0  0  0  0  0
    9.5041    0.5331   -1.3442 H   0  0  0  0  0  0  0  0  0  0  0  0
    7.9793    2.3276   -4.0308 H   0  0  0  0  0  0  0  0  0  0  0  0
    9.0526    2.7834   -6.2386 H   0  0  0  0  0  0  0  0  0  0  0  0
   11.0898    1.5149   -6.9212 H   0  0  0  0  0  0  0  0  0  0  0  0
   12.0497   -0.2011   -5.3828 H   0  0  0  0  0  0  0  0  0  0  0  0
   10.9794   -0.6444   -3.1878 H   0  0  0  0  0  0  0  0  0  0  0  0
    8.0803   -1.5013   -1.2605 H   0  0  0  0  0  0  0  0  0  0  0  0
    7.6234   -1.2761   -2.9864 H   0  0  0  0  0  0  0  0  0  0  0  0
    5.2378   -1.8944   -1.4483 H   0  0  0  0  0  0  0  0  0  0  0  0
    2.8657   -1.9692   -0.7649 H   0  0  0  0  0  0  0  0  0  0  0  0
    1.4526   -1.7418    1.0763 H   0  0  0  0  0  0  0  0  0  0  0  0
   -0.9231   -1.8229    1.7601 H   0  0  0  0  0  0  0  0  0  0  0  0
  1  2  2  0
  1 22  1  0
  1 23  1  0
  2  3  1  0
  2 24  1  0
  3  4  2  0
  3 25  1  0
  4  5  1  0
  4 21  1  0
  5  6  2  0
  5 20  1  0
  6  7  1  0
  6 26  1  0
  7  8  2  0
  7 27  1  0
  8  9  1  0
  8 19  1  0
  9 10  2  0
  9 18  1  0
 10 11  1  0
 11 12  1  0
 11 18  1  0
 11 28  1  1
 12 13  2  0
 12 17  1  0
 13 14  1  0
 13 29  1  0
 14 15  2  0
 14 30  1  0
 15 16  1  0
 15 31  1  0
 16 17  2  0
 16 32  1  0
 17 33  1  0
 18 34  1  0
 18 35  1  0
 19 20  2  0
 19 36  1  0
 20 37  1  0
 21 22  2  0
 21 38  1  0
 22 39  1  0
M  END

