
     RDKit          3D

 50 51  0  0  0  0  0  0  0  0999 V2000
    1.2745   -2.4109    2.8721 C   0  0  0  0  0  0  0  0  0  0  0  0
    2.6314   -3.0894    2.6794 C   0  0  0  0  0  0  0  0  0  0  0  0
    3.3509   -2.6457    1.4025 C   0  0  0  0  0  0  0  0  0  0  0  0
    4.6991   -3.3233    1.2151 C   0  0  0  0  0  0  0  0  0  0  0  0
    5.2753   -2.8416    0.0095 O   0  0  0  0  0  0  0  0  0  0  0  0
    6.4848   -3.2924   -0.3941 C   0  0  0  0  0  0  0  0  0  0  0  0
    7.2592   -4.2360    0.3081 C   0  0  0  0  0  0  0  0  0  0  0  0
    8.4956   -4.6341   -0.1949 C   0  0  0  0  0  0  0  0  0  0  0  0
    8.9949   -4.1101   -1.4009 C   0  0  0  0  0  0  0  0  0  0  0  0
   10.2917   -4.5189   -1.9397 C   0  0  0  0  0  0  0  0  0  0  0  0
   11.0451   -5.3729   -1.3498 N   0  0  0  0  0  0  0  0  0  0  0  0
   12.2238   -5.6780   -1.9363 N   0  0  0  0  0  0  0  0  0  0  0  0
   13.0872   -6.5856   -1.3780 C   0  0  0  0  0  0  0  0  0  0  0  0
   12.9005   -7.1946   -0.3477 O   0  0  0  0  0  0  0  0  0  0  0  0
   14.3967   -6.7945   -2.1657 C   0  0  1  0  0  0  0  0  0  0  0  0
   14.6261   -8.2784   -2.4339 C   0  0  0  0  0  0  0  0  0  0  0  0
   14.3544   -6.0333   -3.3796 O   0  0  0  0  0  0  0  0  0  0  0  0
   15.4843   -5.6335   -4.0161 C   0  0  0  0  0  0  0  0  0  0  0  0
   16.7890   -5.8445   -3.5398 C   0  0  0  0  0  0  0  0  0  0  0  0
   17.8787   -5.3705   -4.2698 C   0  0  0  0  0  0  0  0  0  0  0  0
   17.6923   -4.6852   -5.4823 C   0  0  0  0  0  0  0  0  0  0  0  0
   18.8189   -4.2025   -6.2279 C   0  0  0  0  0  0  0  0  0  0  0  0
   19.7301   -3.8109   -6.8325 N   0  0  0  0  0  0  0  0  0  0  0  0
   16.3793   -4.4827   -5.9560 C   0  0  0  0  0  0  0  0  0  0  0  0
   15.2923   -4.9519   -5.2325 C   0  0  0  0  0  0  0  0  0  0  0  0
    8.2089   -3.1669   -2.0928 C   0  0  0  0  0  0  0  0  0  0  0  0
    6.9743   -2.7619   -1.6017 C   0  0  0  0  0  0  0  0  0  0  0  0
    0.7825   -2.7501    3.7973 H   0  0  0  0  0  0  0  0  0  0  0  0
    0.5942   -2.6305    2.0326 H   0  0  0  0  0  0  0  0  0  0  0  0
    1.3800   -1.3149    2.9328 H   0  0  0  0  0  0  0  0  0  0  0  0
    2.4946   -4.1860    2.6613 H   0  0  0  0  0  0  0  0  0  0  0  0
    3.2741   -2.8809    3.5540 H   0  0  0  0  0  0  0  0  0  0  0  0
    3.5065   -1.5529    1.4138 H   0  0  0  0  0  0  0  0  0  0  0  0
    2.7247   -2.8603    0.5191 H   0  0  0  0  0  0  0  0  0  0  0  0
    4.5790   -4.4224    1.1648 H   0  0  0  0  0  0  0  0  0  0  0  0
    5.3676   -3.1028    2.0691 H   0  0  0  0  0  0  0  0  0  0  0  0
    6.9046   -4.6633    1.2461 H   0  0  0  0  0  0  0  0  0  0  0  0
    9.0994   -5.3653    0.3465 H   0  0  0  0  0  0  0  0  0  0  0  0
   10.5993   -4.0510   -2.8958 H   0  0  0  0  0  0  0  0  0  0  0  0
   12.4967   -5.2425   -2.8194 H   0  0  0  0  0  0  0  0  0  0  0  0
   15.1895   -6.3964   -1.5086 H   0  0  0  0  0  0  0  0  0  0  0  0
   13.8496   -8.6633   -3.1124 H   0  0  0  0  0  0  0  0  0  0  0  0
   14.5645   -8.8248   -1.4830 H   0  0  0  0  0  0  0  0  0  0  0  0
   15.6105   -8.4570   -2.8902 H   0  0  0  0  0  0  0  0  0  0  0  0
   16.9705   -6.3764   -2.6066 H   0  0  0  0  0  0  0  0  0  0  0  0
   18.8905   -5.5360   -3.8949 H   0  0  0  0  0  0  0  0  0  0  0  0
   16.2210   -3.9545   -6.8982 H   0  0  0  0  0  0  0  0  0  0  0  0
   14.2729   -4.8036   -5.5935 H   0  0  0  0  0  0  0  0  0  0  0  0
    8.5756   -2.7447   -3.0332 H   0  0  0  0  0  0  0  0  0  0  0  0
    6.3611   -2.0315   -2.1331 H   0  0  0  0  0  0  0  0  0  0  0  0
  1  2  1  0
  1 28  1  0
  1 29  1  0
  1 30  1  0
  2  3  1  0
  2 31  1  0
  2 32  1  0
  3  4  1  0
  3 33  1  0
  3 34  1  0
  4  5  1  0
  4 35  1  0
  4 36  1  0
  5  6  1  0
  6  7  2  0
  6 27  1  0
  7  8  1  0
  7 37  1  0
  8  9  2  0
  8 38  1  0
  9 10  1  0
  9 26  1  0
 10 11  2  0
 10 39  1  0
 11 12  1  0
 12 13  1  0
 12 40  1  0
 13 14  2  0
 13 15  1  0
 15 16  1  0
 15 17  1  0
 15 41  1  1
 16 42  1  0
 16 43  1  0
 16 44  1  0
 17 18  1  0
 18 19  2  0
 18 25  1  0
 19 20  1  0
 19 45  1  0
 20 21  2  0
 20 46  1  0
 21 22  1  0
 21 24  1  0
 22 23  3  0
 24 25  2  0
 24 47  1  0
 25 48  1  0
 26 27  2  0
 26 49  1  0
 27 50  1  0
M  END

