
     RDKit          3D

 36 36  0  0  0  0  0  0  0  0999 V2000
    0.9315   -1.8775    1.2863 C   0  0  0  0  0  0  0  0  0  0  0  0
    2.4546   -1.7883    1.1769 C   0  0  0  0  0  0  0  0  0  0  0  0
    2.9842   -1.4990   -0.2445 C   0  0  1  0  0  0  0  0  0  0  0  0
    2.5735   -0.1310   -0.8141 C   0  0  0  0  0  0  0  0  0  0  0  0
    3.2748    0.9519   -0.1207 N   0  0  0  0  0  0  0  0  0  0  0  0
    4.4351   -1.5748   -0.2912 N   0  0  0  0  0  0  0  0  0  0  0  0
    5.1176   -2.7430   -0.4478 C   0  0  0  0  0  0  0  0  0  0  0  0
    4.5610   -3.8268   -0.5820 O   0  0  0  0  0  0  0  0  0  0  0  0
    6.6069   -2.5940   -0.4510 C   0  0  0  0  0  0  0  0  0  0  0  0
    7.3898   -3.6764   -0.6054 C   0  0  0  0  0  0  0  0  0  0  0  0
    8.8560   -3.7313   -0.6360 C   0  0  0  0  0  0  0  0  0  0  0  0
    9.6807   -2.5936   -0.4988 C   0  0  0  0  0  0  0  0  0  0  0  0
   11.0707   -2.6983   -0.5348 C   0  0  0  0  0  0  0  0  0  0  0  0
   11.6857   -3.9412   -0.7092 C   0  0  0  0  0  0  0  0  0  0  0  0
   10.8688   -5.0628   -0.8444 C   0  0  0  0  0  0  0  0  0  0  0  0
   11.5004   -6.3893   -1.0301 N   0  0  0  0  0  0  0  0  0  0  0  0
   12.7195   -6.4327   -1.0570 O   0  0  0  0  0  0  0  0  0  0  0  0
   10.7635   -7.3544   -1.1447 O   0  0  0  0  0  0  0  0  0  0  0  0
    9.4786   -4.9802   -0.8111 C   0  0  0  0  0  0  0  0  0  0  0  0
    0.6286   -2.1766    2.3021 H   0  0  0  0  0  0  0  0  0  0  0  0
    0.5251   -2.6273    0.5873 H   0  0  0  0  0  0  0  0  0  0  0  0
    0.4336   -0.9182    1.0686 H   0  0  0  0  0  0  0  0  0  0  0  0
    2.8975   -2.7472    1.4897 H   0  0  0  0  0  0  0  0  0  0  0  0
    2.8481   -1.0267    1.8747 H   0  0  0  0  0  0  0  0  0  0  0  0
    2.5959   -2.2889   -0.9083 H   0  0  0  0  0  0  0  0  0  0  0  0
    1.4697   -0.0432   -0.7969 H   0  0  0  0  0  0  0  0  0  0  0  0
    2.8750   -0.1018   -1.8736 H   0  0  0  0  0  0  0  0  0  0  0  0
    2.8541    1.1374    0.7899 H   0  0  0  0  0  0  0  0  0  0  0  0
    3.2116    1.8213   -0.6482 H   0  0  0  0  0  0  0  0  0  0  0  0
    4.9142   -0.6910   -0.1381 H   0  0  0  0  0  0  0  0  0  0  0  0
    7.0236   -1.5894   -0.3259 H   0  0  0  0  0  0  0  0  0  0  0  0
    6.8631   -4.6300   -0.7224 H   0  0  0  0  0  0  0  0  0  0  0  0
    9.2264   -1.6103   -0.3617 H   0  0  0  0  0  0  0  0  0  0  0  0
   11.6860   -1.8022   -0.4261 H   0  0  0  0  0  0  0  0  0  0  0  0
   12.7685   -4.0569   -0.7418 H   0  0  0  0  0  0  0  0  0  0  0  0
    8.8908   -5.8914   -0.9221 H   0  0  0  0  0  0  0  0  0  0  0  0
  1  2  1  0
  1 20  1  0
  1 21  1  0
  1 22  1  0
  2  3  1  0
  2 23  1  0
  2 24  1  0
  3  4  1  0
  3  6  1  0
  3 25  1  6
  4  5  1  0
  4 26  1  0
  4 27  1  0
  5 28  1  0
  5 29  1  0
  6  7  1  0
  6 30  1  0
  7  8  2  0
  7  9  1  0
  9 10  2  0
  9 31  1  0
 10 11  1  0
 10 32  1  0
 11 12  2  0
 11 19  1  0
 12 13  1  0
 12 33  1  0
 13 14  2  0
 13 34  1  0
 14 15  1  0
 14 35  1  0
 15 16  1  0
 15 19  2  0
 16 17  2  0
 16 18  1  0
 19 36  1  0
M  CHG  2  16   1  18  -1
M  END

