
     RDKit          3D

 64 66  0  0  0  0  0  0  0  0999 V2000
   -2.2623   -4.4559   -3.4881 C   0  0  0  0  0  0  0  0  0  0  0  0
   -1.0894   -3.9211   -2.8980 O   0  0  0  0  0  0  0  0  0  0  0  0
   -1.0488   -2.5371   -2.8094 C   0  0  2  0  0  0  0  0  0  0  0  0
   -1.9549   -2.1691   -2.2763 H   0  0  0  0  0  0  0  0  0  0  0  0
   -0.9841   -1.9789   -4.0970 O   0  0  0  0  0  0  0  0  0  0  0  0
   -0.9141   -0.5522   -4.1442 C   0  0  1  0  0  0  0  0  0  0  0  0
   -0.7246   -0.3123   -5.2017 H   0  0  0  0  0  0  0  0  0  0  0  0
   -2.2458    0.1400   -3.7957 C   0  0  0  0  0  0  0  0  0  0  0  0
   -2.2620    1.4638   -4.2608 O   0  0  0  0  0  0  0  0  0  0  0  0
    0.3107   -0.0629   -3.3338 C   0  0  1  0  0  0  0  0  0  0  0  0
    1.2031   -0.4494   -3.8674 H   0  0  0  0  0  0  0  0  0  0  0  0
    0.3241    1.3465   -3.3320 O   0  0  0  0  0  0  0  0  0  0  0  0
    0.4218   -0.6782   -1.9149 C   0  0  1  0  0  0  0  0  0  0  0  0
    1.4488   -0.4862   -1.5573 H   0  0  0  0  0  0  0  0  0  0  0  0
   -0.4979   -0.1349   -0.9070 N   0  0  0  0  0  0  0  0  0  0  0  0
   -0.2547    1.0405   -0.2765 C   0  0  0  0  0  0  0  0  0  0  0  0
    0.5270    1.8832   -0.7162 O   0  0  0  0  0  0  0  0  0  0  0  0
   -1.0064    1.2665    1.0397 C   0  0  1  0  0  0  0  0  0  0  0  0
   -2.0828    1.0997    0.8584 H   0  0  0  0  0  0  0  0  0  0  0  0
   -0.5802    0.2558    2.1494 C   0  0  0  0  0  0  0  0  0  0  0  0
    0.8969    0.2409    2.4727 C   0  0  0  0  0  0  0  0  0  0  0  0
    1.4545    1.1991    3.3362 C   0  0  0  0  0  0  0  0  0  0  0  0
    2.8239    1.2013    3.6144 C   0  0  0  0  0  0  0  0  0  0  0  0
    3.6607    0.2409    3.0381 C   0  0  0  0  0  0  0  0  0  0  0  0
    3.1172   -0.7232    2.1848 C   0  0  0  0  0  0  0  0  0  0  0  0
    1.7472   -0.7234    1.9043 C   0  0  0  0  0  0  0  0  0  0  0  0
   -0.8145    2.6426    1.4238 N   0  0  0  0  0  0  0  0  0  0  0  0
   -1.7052    3.2891    2.2203 C   0  0  0  0  0  0  0  0  0  0  0  0
   -2.6841    2.7698    2.7249 O   0  0  0  0  0  0  0  0  0  0  0  0
   -1.3486    4.5841    2.3764 O   0  0  0  0  0  0  0  0  0  0  0  0
   -2.1701    5.3918    3.2427 C   0  0  0  0  0  0  0  0  0  0  0  0
   -1.6699    5.3879    4.6684 C   0  0  0  0  0  0  0  0  0  0  0  0
   -0.8089    6.3978    5.1230 C   0  0  0  0  0  0  0  0  0  0  0  0
   -0.3293    6.3902    6.4359 C   0  0  0  0  0  0  0  0  0  0  0  0
   -0.7055    5.3669    7.3108 C   0  0  0  0  0  0  0  0  0  0  0  0
   -1.5630    4.3543    6.8674 C   0  0  0  0  0  0  0  0  0  0  0  0
   -2.0436    4.3641    5.5555 C   0  0  0  0  0  0  0  0  0  0  0  0
    0.2106   -2.1950   -2.0081 C   0  0  1  0  0  0  0  0  0  0  0  0
    1.0577   -2.6275   -2.5717 H   0  0  0  0  0  0  0  0  0  0  0  0
    0.1255   -2.7318   -0.7041 O   0  0  0  0  0  0  0  0  0  0  0  0
   -2.1728   -5.5501   -3.4513 H   0  0  0  0  0  0  0  0  0  0  0  0
   -2.3642   -4.1318   -4.5358 H   0  0  0  0  0  0  0  0  0  0  0  0
   -3.1671   -4.1487   -2.9295 H   0  0  0  0  0  0  0  0  0  0  0  0
   -3.0501   -0.4140   -4.3092 H   0  0  0  0  0  0  0  0  0  0  0  0
   -2.4521    0.0827   -2.7080 H   0  0  0  0  0  0  0  0  0  0  0  0
   -1.4285    1.8597   -3.9507 H   0  0  0  0  0  0  0  0  0  0  0  0
    0.6205    1.6745   -2.4537 H   0  0  0  0  0  0  0  0  0  0  0  0
   -0.9953   -0.8430   -0.3738 H   0  0  0  0  0  0  0  0  0  0  0  0
   -0.9073   -0.7545    1.8532 H   0  0  0  0  0  0  0  0  0  0  0  0
   -1.1736    0.5257    3.0361 H   0  0  0  0  0  0  0  0  0  0  0  0
    0.8085    1.9481    3.8009 H   0  0  0  0  0  0  0  0  0  0  0  0
    3.2377    1.9543    4.2903 H   0  0  0  0  0  0  0  0  0  0  0  0
    4.7312    0.2402    3.2590 H   0  0  0  0  0  0  0  0  0  0  0  0
    3.7615   -1.4847    1.7373 H   0  0  0  0  0  0  0  0  0  0  0  0
    1.3334   -1.4873    1.2394 H   0  0  0  0  0  0  0  0  0  0  0  0
   -0.0617    3.1541    0.9723 H   0  0  0  0  0  0  0  0  0  0  0  0
   -3.2048    5.0267    3.1876 H   0  0  0  0  0  0  0  0  0  0  0  0
   -2.1162    6.4030    2.8166 H   0  0  0  0  0  0  0  0  0  0  0  0
   -0.5132    7.2009    4.4415 H   0  0  0  0  0  0  0  0  0  0  0  0
    0.3382    7.1858    6.7769 H   0  0  0  0  0  0  0  0  0  0  0  0
   -0.3333    5.3598    8.3386 H   0  0  0  0  0  0  0  0  0  0  0  0
   -1.8625    3.5540    7.5492 H   0  0  0  0  0  0  0  0  0  0  0  0
   -2.7078    3.5722    5.2017 H   0  0  0  0  0  0  0  0  0  0  0  0
   -0.1265   -3.6627   -0.8068 H   0  0  0  0  0  0  0  0  0  0  0  0
  1  2  1  0
  1 41  1  0
  1 42  1  0
  1 43  1  0
  2  3  1  0
  3  4  1  1
  3  5  1  0
  3 38  1  0
  5  6  1  0
  6  7  1  6
  6  8  1  0
  6 10  1  0
  8  9  1  0
  8 44  1  0
  8 45  1  0
  9 46  1  0
 10 11  1  6
 10 12  1  0
 10 13  1  0
 12 47  1  0
 13 14  1  1
 13 15  1  0
 13 38  1  0
 15 16  1  0
 15 48  1  0
 16 17  2  0
 16 18  1  0
 18 19  1  6
 18 20  1  0
 18 27  1  0
 20 21  1  0
 20 49  1  0
 20 50  1  0
 21 22  2  0
 21 26  1  0
 22 23  1  0
 22 51  1  0
 23 24  2  0
 23 52  1  0
 24 25  1  0
 24 53  1  0
 25 26  2  0
 25 54  1  0
 26 55  1  0
 27 28  1  0
 27 56  1  0
 28 29  2  0
 28 30  1  0
 30 31  1  0
 31 32  1  0
 31 57  1  0
 31 58  1  0
 32 33  2  0
 32 37  1  0
 33 34  1  0
 33 59  1  0
 34 35  2  0
 34 60  1  0
 35 36  1  0
 35 61  1  0
 36 37  2  0
 36 62  1  0
 37 63  1  0
 38 39  1  6
 38 40  1  0
 40 64  1  0
M  END

