
     RDKit          3D

 40 43  0  0  0  0  0  0  0  0999 V2000
    6.7215    4.2465    3.2255 O   0  0  0  0  0  0  0  0  0  0  0  0
    5.5524    3.9475    3.2541 C   0  0  0  0  0  0  0  0  0  0  0  0
    4.8852    3.2380    4.2291 N   0  0  0  0  0  0  0  0  0  0  0  0
    3.5282    2.9862    3.9169 C   0  0  0  0  0  0  0  0  0  0  0  0
    2.7607    2.3232    4.5730 O   0  0  0  0  0  0  0  0  0  0  0  0
    3.2963    3.6398    2.7318 N   0  0  0  0  0  0  0  0  0  0  0  0
    2.1139    3.4831    1.9062 C   0  0  0  0  0  0  0  0  0  0  0  0
    2.5109    2.9366    0.5279 C   0  0  0  0  0  0  0  0  0  0  0  0
    3.6275    3.7022   -0.0275 N   0  0  0  0  0  0  0  0  0  0  0  0
    3.4357    4.4351   -1.1825 C   0  0  0  0  0  0  0  0  0  0  0  0
    2.3603    4.4395   -1.7618 O   0  0  0  0  0  0  0  0  0  0  0  0
    4.5947    5.2874   -1.7043 C   0  0  0  0  0  0  0  0  0  0  0  0
    4.6629    6.6446   -1.0199 C   0  0  0  0  0  0  0  0  0  0  0  0
    5.8465    7.1003   -0.4186 C   0  0  0  0  0  0  0  0  0  0  0  0
    5.9285    8.3531    0.2059 C   0  0  0  0  0  0  0  0  0  0  0  0
    4.7848    9.1478    0.2128 C   0  0  0  0  0  0  0  0  0  0  0  0
    3.5893    8.7188   -0.3805 C   0  0  0  0  0  0  0  0  0  0  0  0
    3.5221    7.4749   -0.9948 C   0  0  0  0  0  0  0  0  0  0  0  0
    2.5632    9.8161   -0.2088 C   0  0  0  0  0  0  0  0  0  0  0  0
    3.3568   10.8786    0.5986 C   0  0  0  0  0  0  0  0  0  0  0  0
    4.7006   10.3799    0.7695 O   0  0  0  0  0  0  0  0  0  0  0  0
    4.8239    3.6908    0.7993 C   0  0  0  0  0  0  0  0  0  0  0  0
    4.4923    4.2611    2.1917 C   0  0  2  0  0  0  0  0  0  0  0  0
    5.3210    2.8713    5.0685 H   0  0  0  0  0  0  0  0  0  0  0  0
    1.6084    4.4580    1.7870 H   0  0  0  0  0  0  0  0  0  0  0  0
    1.4270    2.8005    2.4265 H   0  0  0  0  0  0  0  0  0  0  0  0
    1.6754    3.0049   -0.1790 H   0  0  0  0  0  0  0  0  0  0  0  0
    2.8143    1.8780    0.6230 H   0  0  0  0  0  0  0  0  0  0  0  0
    4.3825    5.4144   -2.7764 H   0  0  0  0  0  0  0  0  0  0  0  0
    5.5617    4.7709   -1.6228 H   0  0  0  0  0  0  0  0  0  0  0  0
    6.7388    6.4676   -0.4402 H   0  0  0  0  0  0  0  0  0  0  0  0
    6.8527    8.7006    0.6704 H   0  0  0  0  0  0  0  0  0  0  0  0
    2.5963    7.1283   -1.4623 H   0  0  0  0  0  0  0  0  0  0  0  0
    1.6688    9.4702    0.3345 H   0  0  0  0  0  0  0  0  0  0  0  0
    2.2170   10.2099   -1.1787 H   0  0  0  0  0  0  0  0  0  0  0  0
    2.9297   11.0527    1.5993 H   0  0  0  0  0  0  0  0  0  0  0  0
    3.4189   11.8481    0.0801 H   0  0  0  0  0  0  0  0  0  0  0  0
    5.6307    4.2779    0.3521 H   0  0  0  0  0  0  0  0  0  0  0  0
    5.1821    2.6503    0.9102 H   0  0  0  0  0  0  0  0  0  0  0  0
    4.3784    5.3581    2.1075 H   0  0  0  0  0  0  0  0  0  0  0  0
  1  2  2  0
  2  3  1  0
  2 23  1  0
  3  4  1  0
  3 24  1  0
  4  5  2  0
  4  6  1  0
  6  7  1  0
  6 23  1  0
  7  8  1  0
  7 25  1  0
  7 26  1  0
  8  9  1  0
  8 27  1  0
  8 28  1  0
  9 10  1  0
  9 22  1  0
 10 11  2  0
 10 12  1  0
 12 13  1  0
 12 29  1  0
 12 30  1  0
 13 14  2  0
 13 18  1  0
 14 15  1  0
 14 31  1  0
 15 16  2  0
 15 32  1  0
 16 17  1  0
 16 21  1  0
 17 18  2  0
 17 19  1  0
 18 33  1  0
 19 20  1  0
 19 34  1  0
 19 35  1  0
 20 21  1  0
 20 36  1  0
 20 37  1  0
 22 23  1  0
 22 38  1  0
 22 39  1  0
 23 40  1  6
M  END

