
     RDKit          3D

 83 86  0  0  0  0  0  0  0  0999 V2000
    6.4146   -1.3860   -2.9905 C   0  0  0  0  0  0  0  0  0  0  0  0
    6.5678   -2.3549   -1.8175 C   0  0  0  0  0  0  0  0  0  0  0  0
    7.0322   -1.7173   -0.5958 N   0  0  0  0  0  0  0  0  0  0  0  0
    6.2092   -1.4433    0.4615 C   0  0  0  0  0  0  0  0  0  0  0  0
    5.0374   -1.7837    0.4960 O   0  0  0  0  0  0  0  0  0  0  0  0
    6.8611   -0.6540    1.5984 C   0  0  0  0  0  0  0  0  0  0  0  0
    6.2062   -0.9396    2.9608 C   0  0  1  0  0  0  0  0  0  0  0  0
    5.1233   -0.8142    2.8065 H   0  0  0  0  0  0  0  0  0  0  0  0
    6.4957   -2.3586    3.5245 C   0  0  0  0  0  0  0  0  0  0  0  0
    7.5578   -2.2174    4.6659 C   0  0  2  0  0  0  0  0  0  0  0  0
    8.9911   -2.5765    4.1851 C   0  0  0  0  0  0  0  0  0  0  0  0
    9.1915   -4.0785    3.9490 C   0  0  0  0  0  0  0  0  0  0  0  0
    8.8191   -4.8511    5.1313 N   0  0  0  0  0  0  0  0  0  0  0  0
    9.5725   -5.8052    5.7641 C   0  0  0  0  0  0  0  0  0  0  0  0
    9.1378   -6.4755    6.6916 O   0  0  0  0  0  0  0  0  0  0  0  0
   11.0100   -6.0495    5.2518 C   0  0  1  0  0  0  0  0  0  0  0  0
   11.4467   -5.1195    4.8728 H   0  0  0  0  0  0  0  0  0  0  0  0
   11.9004   -6.6026    6.3765 C   0  0  0  0  0  0  0  0  0  0  0  0
   13.3467   -6.8922    5.9584 C   0  0  0  0  0  0  0  0  0  0  0  0
   14.1699   -5.6495    5.5639 C   0  0  0  0  0  0  0  0  0  0  0  0
   15.5592   -5.9925    5.0721 C   0  0  0  0  0  0  0  0  0  0  0  0
   15.8045   -6.1656    3.6993 C   0  0  0  0  0  0  0  0  0  0  0  0
   17.0753   -6.5189    3.2358 C   0  0  0  0  0  0  0  0  0  0  0  0
   18.1265   -6.7058    4.1387 C   0  0  0  0  0  0  0  0  0  0  0  0
   17.8969   -6.5343    5.5072 C   0  0  0  0  0  0  0  0  0  0  0  0
   16.6249   -6.1810    5.9667 C   0  0  0  0  0  0  0  0  0  0  0  0
   10.9428   -6.9500    4.1008 N   0  0  0  0  0  0  0  0  0  0  0  0
   11.5176   -6.6829    2.8963 C   0  0  0  0  0  0  0  0  0  0  0  0
   12.0925   -5.6224    2.6668 O   0  0  0  0  0  0  0  0  0  0  0  0
   11.3637   -7.7523    1.7712 C   0  0  1  0  0  0  0  0  0  0  0  0
   11.4212   -9.1922    2.3034 C   0  0  0  0  0  0  0  0  0  0  0  0
   10.0097   -7.4870    1.0816 C   0  0  0  0  0  0  0  0  0  0  0  0
   12.4208   -7.5890    0.7764 N   0  0  0  0  0  0  0  0  0  0  0  0
    7.4508   -4.6069    5.5896 C   0  0  0  0  0  0  0  0  0  0  0  0
    7.2333   -3.1195    5.8798 C   0  0  0  0  0  0  0  0  0  0  0  0
    7.4672   -0.7326    5.0058 C   0  0  0  0  0  0  0  0  0  0  0  0
    8.0410   -0.0589    6.0890 C   0  0  0  0  0  0  0  0  0  0  0  0
    7.8517    1.3214    6.2204 C   0  0  0  0  0  0  0  0  0  0  0  0
    7.0952    2.0248    5.2749 C   0  0  0  0  0  0  0  0  0  0  0  0
    6.5254    1.3533    4.1878 C   0  0  0  0  0  0  0  0  0  0  0  0
    6.7151   -0.0257    4.0566 C   0  0  0  0  0  0  0  0  0  0  0  0
    6.0715   -1.9205   -3.8910 H   0  0  0  0  0  0  0  0  0  0  0  0
    7.3708   -0.8950   -3.2381 H   0  0  0  0  0  0  0  0  0  0  0  0
    5.6781   -0.6012   -2.7572 H   0  0  0  0  0  0  0  0  0  0  0  0
    7.2640   -3.1692   -2.0847 H   0  0  0  0  0  0  0  0  0  0  0  0
    5.6000   -2.8150   -1.5728 H   0  0  0  0  0  0  0  0  0  0  0  0
    7.9828   -1.3676   -0.5673 H   0  0  0  0  0  0  0  0  0  0  0  0
    6.7409    0.4169    1.3544 H   0  0  0  0  0  0  0  0  0  0  0  0
    7.9479   -0.8403    1.6317 H   0  0  0  0  0  0  0  0  0  0  0  0
    6.8077   -3.0573    2.7337 H   0  0  0  0  0  0  0  0  0  0  0  0
    5.5648   -2.7714    3.9432 H   0  0  0  0  0  0  0  0  0  0  0  0
    9.7160   -2.2393    4.9456 H   0  0  0  0  0  0  0  0  0  0  0  0
    9.2312   -2.0294    3.2590 H   0  0  0  0  0  0  0  0  0  0  0  0
   10.2285   -4.2778    3.6563 H   0  0  0  0  0  0  0  0  0  0  0  0
    8.5638   -4.4115    3.1000 H   0  0  0  0  0  0  0  0  0  0  0  0
   11.4273   -7.5132    6.7768 H   0  0  0  0  0  0  0  0  0  0  0  0
   11.8841   -5.8754    7.2064 H   0  0  0  0  0  0  0  0  0  0  0  0
   13.3527   -7.6066    5.1172 H   0  0  0  0  0  0  0  0  0  0  0  0
   13.8558   -7.4104    6.7887 H   0  0  0  0  0  0  0  0  0  0  0  0
   14.2376   -4.9742    6.4349 H   0  0  0  0  0  0  0  0  0  0  0  0
   13.6440   -5.1004    4.7677 H   0  0  0  0  0  0  0  0  0  0  0  0
   14.9849   -6.0114    2.9906 H   0  0  0  0  0  0  0  0  0  0  0  0
   17.2476   -6.6428    2.1631 H   0  0  0  0  0  0  0  0  0  0  0  0
   19.1214   -6.9785    3.7773 H   0  0  0  0  0  0  0  0  0  0  0  0
   18.7139   -6.6719    6.2208 H   0  0  0  0  0  0  0  0  0  0  0  0
   16.4570   -6.0428    7.0394 H   0  0  0  0  0  0  0  0  0  0  0  0
   10.5121   -7.8547    4.2526 H   0  0  0  0  0  0  0  0  0  0  0  0
   10.5616   -9.4434    2.9446 H   0  0  0  0  0  0  0  0  0  0  0  0
   12.3447   -9.3754    2.8768 H   0  0  0  0  0  0  0  0  0  0  0  0
   11.4073   -9.8866    1.4503 H   0  0  0  0  0  0  0  0  0  0  0  0
    9.1673   -7.5950    1.7825 H   0  0  0  0  0  0  0  0  0  0  0  0
    9.8792   -8.1942    0.2490 H   0  0  0  0  0  0  0  0  0  0  0  0
    9.9843   -6.4655    0.6706 H   0  0  0  0  0  0  0  0  0  0  0  0
   13.3165   -7.8667    1.1824 H   0  0  0  0  0  0  0  0  0  0  0  0
   12.5210   -6.5906    0.5822 H   0  0  0  0  0  0  0  0  0  0  0  0
    7.2889   -5.2179    6.4854 H   0  0  0  0  0  0  0  0  0  0  0  0
    6.7416   -4.9549    4.8146 H   0  0  0  0  0  0  0  0  0  0  0  0
    7.8778   -2.8366    6.7292 H   0  0  0  0  0  0  0  0  0  0  0  0
    6.1918   -2.9537    6.2006 H   0  0  0  0  0  0  0  0  0  0  0  0
    8.6311   -0.5981    6.8353 H   0  0  0  0  0  0  0  0  0  0  0  0
    8.2926    1.8521    7.0683 H   0  0  0  0  0  0  0  0  0  0  0  0
    6.9456    3.1016    5.3897 H   0  0  0  0  0  0  0  0  0  0  0  0
    5.9302    1.9045    3.4537 H   0  0  0  0  0  0  0  0  0  0  0  0
  1  2  1  0
  1 42  1  0
  1 43  1  0
  1 44  1  0
  2  3  1  0
  2 45  1  0
  2 46  1  0
  3  4  1  0
  3 47  1  0
  4  5  2  0
  4  6  1  0
  6  7  1  0
  6 48  1  0
  6 49  1  0
  7  8  1  6
  7  9  1  0
  7 41  1  0
 10  9  1  6
  9 50  1  0
  9 51  1  0
 10 11  1  0
 10 35  1  0
 10 36  1  0
 11 12  1  0
 11 52  1  0
 11 53  1  0
 12 13  1  0
 12 54  1  0
 12 55  1  0
 13 14  1  0
 13 34  1  0
 14 15  2  0
 14 16  1  0
 16 17  1  6
 16 18  1  0
 16 27  1  0
 18 19  1  0
 18 56  1  0
 18 57  1  0
 19 20  1  0
 19 58  1  0
 19 59  1  0
 20 21  1  0
 20 60  1  0
 20 61  1  0
 21 22  2  0
 21 26  1  0
 22 23  1  0
 22 62  1  0
 23 24  2  0
 23 63  1  0
 24 25  1  0
 24 64  1  0
 25 26  2  0
 25 65  1  0
 26 66  1  0
 27 28  1  0
 27 67  1  0
 28 29  2  0
 30 28  1  1
 30 31  1  0
 30 32  1  0
 30 33  1  0
 31 68  1  0
 31 69  1  0
 31 70  1  0
 32 71  1  0
 32 72  1  0
 32 73  1  0
 33 74  1  0
 33 75  1  0
 34 35  1  0
 34 76  1  0
 34 77  1  0
 35 78  1  0
 35 79  1  0
 36 37  2  0
 36 41  1  0
 37 38  1  0
 37 80  1  0
 38 39  2  0
 38 81  1  0
 39 40  1  0
 39 82  1  0
 40 41  2  0
 40 83  1  0
M  END

