
     RDKit          3D

 52 54  0  0  0  0  0  0  0  0999 V2000
    0.8519    1.1280    2.3600 C   0  0  0  0  0  0  0  0  0  0  0  0
    2.2018    1.7754    2.4225 C   0  0  0  0  0  0  0  0  0  0  0  0
    3.1179    1.9895    1.3568 C   0  0  0  0  0  0  0  0  0  0  0  0
    4.1933    2.6274    1.9578 C   0  0  0  0  0  0  0  0  0  0  0  0
    5.4077    3.0951    1.4572 N   0  0  0  0  0  0  0  0  0  0  0  0
    5.8007    3.0329    0.1415 C   0  0  0  0  0  0  0  0  0  0  0  0
    5.1581    2.5050   -0.7424 O   0  0  0  0  0  0  0  0  0  0  0  0
    7.1761    3.7117   -0.1035 C   0  0  1  0  0  0  0  0  0  0  0  0
    7.8207    3.2561   -1.4147 C   0  0  0  0  0  0  0  0  0  0  0  0
    8.3322    1.8012   -1.3897 C   0  0  1  0  0  0  0  0  0  0  0  0
    8.7090    1.3640   -2.8112 C   0  0  0  0  0  0  0  0  0  0  0  0
    9.5115    1.5947   -0.4291 C   0  0  0  0  0  0  0  0  0  0  0  0
    7.0404    5.1792    0.0122 N   0  0  0  0  0  0  0  0  0  0  0  0
    7.1399    5.8057    1.2441 C   0  0  0  0  0  0  0  0  0  0  0  0
    7.2700    5.2128    2.3006 O   0  0  0  0  0  0  0  0  0  0  0  0
    7.0375    7.3155    1.0603 C   0  0  2  0  0  0  0  0  0  0  0  0
    5.9986    7.9244    2.0289 C   0  0  0  0  0  0  0  0  0  0  0  0
    4.5908    7.7017    1.5350 C   0  0  0  0  0  0  0  0  0  0  0  0
    4.3064    7.8407    0.2329 C   0  0  0  0  0  0  0  0  0  0  0  0
    5.3894    8.2265   -0.7430 C   0  0  0  0  0  0  0  0  0  0  0  0
    6.7182    7.4957   -0.4409 C   0  0  2  0  0  0  0  0  0  0  0  0
    6.6949    6.0755   -1.0157 C   0  0  0  0  0  0  0  0  0  0  0  0
    6.4251    5.7714   -2.1485 O   0  0  0  0  0  0  0  0  0  0  0  0
    3.8909    2.7668    3.2837 N   0  0  0  0  0  0  0  0  0  0  0  0
    4.7237    3.2888    4.3444 C   0  0  0  0  0  0  0  0  0  0  0  0
    2.6784    2.2405    3.5735 N   0  0  0  0  0  0  0  0  0  0  0  0
    0.9179    0.0943    1.9820 H   0  0  0  0  0  0  0  0  0  0  0  0
    0.1710    1.6769    1.6884 H   0  0  0  0  0  0  0  0  0  0  0  0
    0.4044    1.1037    3.3635 H   0  0  0  0  0  0  0  0  0  0  0  0
    3.0287    1.7329    0.3072 H   0  0  0  0  0  0  0  0  0  0  0  0
    6.0323    3.5911    2.0935 H   0  0  0  0  0  0  0  0  0  0  0  0
    7.8248    3.4433    0.7438 H   0  0  0  0  0  0  0  0  0  0  0  0
    8.6632    3.9312   -1.6443 H   0  0  0  0  0  0  0  0  0  0  0  0
    7.0859    3.3728   -2.2208 H   0  0  0  0  0  0  0  0  0  0  0  0
    7.4970    1.1588   -1.0595 H   0  0  0  0  0  0  0  0  0  0  0  0
    9.5263    1.9872   -3.2143 H   0  0  0  0  0  0  0  0  0  0  0  0
    7.8516    1.4524   -3.4967 H   0  0  0  0  0  0  0  0  0  0  0  0
    9.0500    0.3163   -2.8292 H   0  0  0  0  0  0  0  0  0  0  0  0
   10.3757    2.2150   -0.7246 H   0  0  0  0  0  0  0  0  0  0  0  0
    9.8424    0.5438   -0.4339 H   0  0  0  0  0  0  0  0  0  0  0  0
    9.2624    1.8466    0.6146 H   0  0  0  0  0  0  0  0  0  0  0  0
    8.0326    7.7208    1.3079 H   0  0  0  0  0  0  0  0  0  0  0  0
    6.1982    9.0082    2.1180 H   0  0  0  0  0  0  0  0  0  0  0  0
    6.1543    7.4966    3.0303 H   0  0  0  0  0  0  0  0  0  0  0  0
    3.8097    7.4403    2.2549 H   0  0  0  0  0  0  0  0  0  0  0  0
    3.2875    7.6939   -0.1372 H   0  0  0  0  0  0  0  0  0  0  0  0
    5.5674    9.3164   -0.6874 H   0  0  0  0  0  0  0  0  0  0  0  0
    5.0998    8.0105   -1.7820 H   0  0  0  0  0  0  0  0  0  0  0  0
    7.5348    8.0191   -0.9638 H   0  0  0  0  0  0  0  0  0  0  0  0
    5.2190    4.2237    4.0388 H   0  0  0  0  0  0  0  0  0  0  0  0
    5.4965    2.5644    4.6561 H   0  0  0  0  0  0  0  0  0  0  0  0
    4.0693    3.4958    5.1998 H   0  0  0  0  0  0  0  0  0  0  0  0
  1  2  1  0
  1 27  1  0
  1 28  1  0
  1 29  1  0
  2  3  1  0
  2 26  2  0
  3  4  2  0
  3 30  1  0
  4  5  1  0
  4 24  1  0
  5  6  1  0
  5 31  1  0
  6  7  2  0
  6  8  1  0
  8  9  1  0
  8 13  1  0
  8 32  1  1
  9 10  1  0
  9 33  1  0
  9 34  1  0
 10 11  1  0
 10 12  1  0
 10 35  1  1
 11 36  1  0
 11 37  1  0
 11 38  1  0
 12 39  1  0
 12 40  1  0
 12 41  1  0
 13 14  1  0
 13 22  1  0
 14 15  2  0
 14 16  1  0
 16 17  1  0
 16 21  1  0
 16 42  1  6
 17 18  1  0
 17 43  1  0
 17 44  1  0
 18 19  2  0
 18 45  1  0
 19 20  1  0
 19 46  1  0
 20 21  1  0
 20 47  1  0
 20 48  1  0
 21 22  1  0
 21 49  1  6
 22 23  2  0
 24 25  1  0
 24 26  1  0
 25 50  1  0
 25 51  1  0
 25 52  1  0
M  END

