
     RDKit          3D

 27 27  0  0  0  0  0  0  0  0999 V2000
    2.4735    1.6067   -0.0667 C   0  0  0  0  0  0  0  0  0  0  0  0
    2.5333    0.1581   -0.1026 N   0  0  0  0  0  0  0  0  0  0  0  0
    3.0542   -0.5653    0.9169 C   0  0  0  0  0  0  0  0  0  0  0  0
    3.6409   -0.0159    1.9625 N   0  0  0  0  0  0  0  0  0  0  0  0
    4.0913   -0.9751    2.8111 C   0  0  0  0  0  0  0  0  0  0  0  0
    3.8682   -2.2935    2.4659 C   0  0  0  0  0  0  0  0  0  0  0  0
    4.1651   -3.6042    3.0653 C   0  0  0  0  0  0  0  0  0  0  0  0
    3.8092   -4.6095    2.4658 O   0  0  0  0  0  0  0  0  0  0  0  0
    4.9103   -3.7214    4.4212 C   0  0  1  0  0  0  0  0  0  0  0  0
    4.0949   -3.0359    5.5399 C   0  0  0  0  0  0  0  0  0  0  0  0
    5.0559   -5.2153    4.7551 C   0  0  0  0  0  0  0  0  0  0  0  0
    6.3179   -3.0938    4.3111 C   0  0  0  0  0  0  0  0  0  0  0  0
    3.0127   -2.3228    0.9167 S   0  0  0  0  0  0  0  0  0  0  0  0
    2.2778    1.9832   -1.0806 H   0  0  0  0  0  0  0  0  0  0  0  0
    3.4332    2.0088    0.2868 H   0  0  0  0  0  0  0  0  0  0  0  0
    1.6845    1.9794    0.6116 H   0  0  0  0  0  0  0  0  0  0  0  0
    2.0013   -0.3327   -0.8091 H   0  0  0  0  0  0  0  0  0  0  0  0
    4.6017   -0.6599    3.7220 H   0  0  0  0  0  0  0  0  0  0  0  0
    3.0841   -3.4681    5.6135 H   0  0  0  0  0  0  0  0  0  0  0  0
    3.9851   -1.9532    5.3876 H   0  0  0  0  0  0  0  0  0  0  0  0
    4.5948   -3.1877    6.5105 H   0  0  0  0  0  0  0  0  0  0  0  0
    4.0743   -5.7046    4.8310 H   0  0  0  0  0  0  0  0  0  0  0  0
    5.5832   -5.3343    5.7151 H   0  0  0  0  0  0  0  0  0  0  0  0
    5.6222   -5.7450    3.9757 H   0  0  0  0  0  0  0  0  0  0  0  0
    6.2902   -2.0133    4.1126 H   0  0  0  0  0  0  0  0  0  0  0  0
    6.8996   -3.5679    3.5045 H   0  0  0  0  0  0  0  0  0  0  0  0
    6.8678   -3.2465    5.2542 H   0  0  0  0  0  0  0  0  0  0  0  0
  1  2  1  0
  1 14  1  0
  1 15  1  0
  1 16  1  0
  2  3  1  0
  2 17  1  0
  3  4  2  0
  3 13  1  0
  4  5  1  0
  5  6  2  0
  5 18  1  0
  6  7  1  0
  6 13  1  0
  7  8  2  0
  9  7  1  6
  9 10  1  0
  9 11  1  0
  9 12  1  0
 10 19  1  0
 10 20  1  0
 10 21  1  0
 11 22  1  0
 11 23  1  0
 11 24  1  0
 12 25  1  0
 12 26  1  0
 12 27  1  0
M  END

