
     RDKit          3D

 36 36  0  0  0  0  0  0  0  0999 V2000
    1.1859   -0.6122   -1.0979 C   0  0  0  0  0  0  0  0  0  0  0  0
    2.5158   -0.2637   -0.4837 C   0  0  0  0  0  0  0  0  0  0  0  0
    3.1537    0.9547   -0.7693 C   0  0  0  0  0  0  0  0  0  0  0  0
    4.3903    1.3131   -0.2120 C   0  0  0  0  0  0  0  0  0  0  0  0
    5.1127    2.6017   -0.5823 C   0  0  1  0  0  0  0  0  0  0  0  0
    6.0248    2.3608   -1.6539 O   0  0  0  0  0  0  0  0  0  0  0  0
    4.1748    3.7942   -0.8439 C   0  0  0  0  0  0  0  0  0  0  0  0
    4.8376    5.0914   -0.8006 N   0  0  0  0  0  0  0  0  0  0  0  0
    5.5809    5.4005   -2.0154 C   0  0  0  0  0  0  0  0  0  0  0  0
    3.9496    6.1800   -0.4087 C   0  0  0  0  0  0  0  0  0  0  0  0
    3.6552    6.2002    1.0918 C   0  0  0  0  0  0  0  0  0  0  0  0
    2.8580    7.4238    1.5210 C   0  0  0  0  0  0  0  0  0  0  0  0
    2.5503    8.3267    0.7929 O   0  0  0  0  0  0  0  0  0  0  0  0
    2.5044    7.4511    2.8291 O   0  0  0  0  0  0  0  0  0  0  0  0
    5.0099    0.4065    0.6609 C   0  0  0  0  0  0  0  0  0  0  0  0
    4.4076   -0.8119    0.9696 C   0  0  0  0  0  0  0  0  0  0  0  0
    3.1738   -1.1369    0.4000 C   0  0  0  0  0  0  0  0  0  0  0  0
    2.4399   -2.6761    0.8089 Cl  0  0  0  0  0  0  0  0  0  0  0  0
    0.8309    0.1927   -1.7572 H   0  0  0  0  0  0  0  0  0  0  0  0
    0.4227   -0.7888   -0.3225 H   0  0  0  0  0  0  0  0  0  0  0  0
    1.2504   -1.5416   -1.6869 H   0  0  0  0  0  0  0  0  0  0  0  0
    2.6472    1.6388   -1.4550 H   0  0  0  0  0  0  0  0  0  0  0  0
    5.7546    2.8951    0.2632 H   0  0  0  0  0  0  0  0  0  0  0  0
    5.5342    1.9330   -2.3700 H   0  0  0  0  0  0  0  0  0  0  0  0
    3.4005    3.7717   -0.0621 H   0  0  0  0  0  0  0  0  0  0  0  0
    3.6398    3.6449   -1.8119 H   0  0  0  0  0  0  0  0  0  0  0  0
    6.2690    4.5790   -2.2479 H   0  0  0  0  0  0  0  0  0  0  0  0
    6.1677    6.3211   -1.8716 H   0  0  0  0  0  0  0  0  0  0  0  0
    4.9172    5.5546   -2.8979 H   0  0  0  0  0  0  0  0  0  0  0  0
    2.9914    6.1752   -0.9737 H   0  0  0  0  0  0  0  0  0  0  0  0
    4.4352    7.1327   -0.6650 H   0  0  0  0  0  0  0  0  0  0  0  0
    4.6093    6.1844    1.6492 H   0  0  0  0  0  0  0  0  0  0  0  0
    3.1026    5.2985    1.4115 H   0  0  0  0  0  0  0  0  0  0  0  0
    2.8287    6.6612    3.2848 H   0  0  0  0  0  0  0  0  0  0  0  0
    5.9788    0.6558    1.1017 H   0  0  0  0  0  0  0  0  0  0  0  0
    4.8858   -1.5173    1.6513 H   0  0  0  0  0  0  0  0  0  0  0  0
  1  2  1  0
  1 19  1  0
  1 20  1  0
  1 21  1  0
  2  3  2  0
  2 17  1  0
  3  4  1  0
  3 22  1  0
  4  5  1  0
  4 15  2  0
  5  6  1  0
  5  7  1  0
  5 23  1  1
  6 24  1  0
  7  8  1  0
  7 25  1  0
  7 26  1  0
  8  9  1  0
  8 10  1  0
  9 27  1  0
  9 28  1  0
  9 29  1  0
 10 11  1  0
 10 30  1  0
 10 31  1  0
 11 12  1  0
 11 32  1  0
 11 33  1  0
 12 13  2  0
 12 14  1  0
 14 34  1  0
 15 16  1  0
 15 35  1  0
 16 17  2  0
 16 36  1  0
 17 18  1  0
M  END

