
     RDKit          3D

 65 69  0  0  0  0  0  0  0  0999 V2000
    5.9155    4.5232   -3.9564 C   0  0  0  0  0  0  0  0  0  0  0  0
    6.1109    3.0713   -3.6014 C   0  0  0  0  0  0  0  0  0  0  0  0
    7.0308    2.2761   -4.3050 C   0  0  0  0  0  0  0  0  0  0  0  0
    7.2524    0.9435   -3.9566 C   0  0  0  0  0  0  0  0  0  0  0  0
    6.5421    0.3983   -2.8849 C   0  0  0  0  0  0  0  0  0  0  0  0
    6.7884   -1.3160   -2.4416 S   0  0  1  0  0  0  0  0  0  0  0  0
    5.5458   -1.8020   -1.8323 O   0  0  0  0  0  0  0  0  0  0  0  0
    7.3999   -1.9829   -3.5966 O   0  0  0  0  0  0  0  0  0  0  0  0
    7.9198   -1.2973   -1.1372 N   0  0  0  0  0  0  0  0  0  0  0  0
    9.2511   -1.7523   -1.3442 C   0  0  0  0  0  0  0  0  0  0  0  0
   10.3134   -0.8933   -1.6169 C   0  0  0  0  0  0  0  0  0  0  0  0
   10.4385    0.5506   -1.6674 C   0  0  0  0  0  0  0  0  0  0  0  0
    9.5378    1.4777   -1.2585 C   0  0  0  0  0  0  0  0  0  0  0  0
    9.7206    2.9315   -1.2829 C   0  0  0  0  0  0  0  0  0  0  0  0
    8.7455    3.7487   -0.6719 C   0  0  0  0  0  0  0  0  0  0  0  0
    8.8710    5.1388   -0.6512 C   0  0  0  0  0  0  0  0  0  0  0  0
    9.9759    5.7537   -1.2477 C   0  0  0  0  0  0  0  0  0  0  0  0
   10.9513    4.9602   -1.8652 C   0  0  0  0  0  0  0  0  0  0  0  0
   10.8265    3.5725   -1.8841 C   0  0  0  0  0  0  0  0  0  0  0  0
   11.7706   -1.8268   -1.8526 S   0  0  0  0  0  0  0  0  0  0  0  0
   10.9841   -3.3427   -1.4792 C   0  0  0  0  0  0  0  0  0  0  0  0
   11.7769   -4.5553   -1.4997 C   0  0  0  0  0  0  0  0  0  0  0  0
   13.1428   -4.6820   -1.3300 C   0  0  0  0  0  0  0  0  0  0  0  0
   13.6400   -6.0026   -1.4663 C   0  0  0  0  0  0  0  0  0  0  0  0
   12.6426   -6.9225   -1.7673 C   0  0  0  0  0  0  0  0  0  0  0  0
   12.7623   -8.2731   -1.9866 N   0  0  0  0  0  0  0  0  0  0  0  0
   11.5771   -9.1082   -2.0020 C   0  0  0  0  0  0  0  0  0  0  0  0
   14.0465   -8.8885   -1.7179 C   0  0  0  0  0  0  0  0  0  0  0  0
   11.0746   -6.1369   -1.8514 S   0  0  0  0  0  0  0  0  0  0  0  0
    9.6274   -3.1371   -1.2424 C   0  0  0  0  0  0  0  0  0  0  0  0
    8.6812   -4.2088   -0.8284 C   0  0  0  0  0  0  0  0  0  0  0  0
    7.6182   -4.6413   -1.6379 C   0  0  0  0  0  0  0  0  0  0  0  0
    6.7763   -5.6493   -1.1651 C   0  0  0  0  0  0  0  0  0  0  0  0
    7.0208   -6.1919    0.0987 C   0  0  0  0  0  0  0  0  0  0  0  0
    8.0220   -5.7886    0.8865 N   0  0  0  0  0  0  0  0  0  0  0  0
    8.8222   -4.8260    0.4317 C   0  0  0  0  0  0  0  0  0  0  0  0
    5.6038    1.1550   -2.1777 C   0  0  0  0  0  0  0  0  0  0  0  0
    5.3976    2.4858   -2.5409 C   0  0  0  0  0  0  0  0  0  0  0  0
    6.0812    4.7042   -5.0292 H   0  0  0  0  0  0  0  0  0  0  0  0
    6.6337    5.1531   -3.4028 H   0  0  0  0  0  0  0  0  0  0  0  0
    4.9041    4.8721   -3.6988 H   0  0  0  0  0  0  0  0  0  0  0  0
    7.5844    2.7077   -5.1431 H   0  0  0  0  0  0  0  0  0  0  0  0
    7.9589    0.3236   -4.5101 H   0  0  0  0  0  0  0  0  0  0  0  0
    7.4367   -1.7538   -0.3617 H   0  0  0  0  0  0  0  0  0  0  0  0
   11.4075    0.8995   -2.0405 H   0  0  0  0  0  0  0  0  0  0  0  0
    8.5866    1.1292   -0.8507 H   0  0  0  0  0  0  0  0  0  0  0  0
    7.8783    3.2756   -0.2038 H   0  0  0  0  0  0  0  0  0  0  0  0
    8.1031    5.7454   -0.1635 H   0  0  0  0  0  0  0  0  0  0  0  0
   10.0781    6.8417   -1.2336 H   0  0  0  0  0  0  0  0  0  0  0  0
   11.8172    5.4305   -2.3388 H   0  0  0  0  0  0  0  0  0  0  0  0
   11.5965    2.9788   -2.3816 H   0  0  0  0  0  0  0  0  0  0  0  0
   13.7802   -3.8292   -1.0881 H   0  0  0  0  0  0  0  0  0  0  0  0
   14.6877   -6.2658   -1.3333 H   0  0  0  0  0  0  0  0  0  0  0  0
   10.8131   -8.6769   -2.6690 H   0  0  0  0  0  0  0  0  0  0  0  0
   11.1204   -9.2343   -0.9996 H   0  0  0  0  0  0  0  0  0  0  0  0
   11.8357  -10.1017   -2.3944 H   0  0  0  0  0  0  0  0  0  0  0  0
   14.8458   -8.3730   -2.2744 H   0  0  0  0  0  0  0  0  0  0  0  0
   14.0253   -9.9345   -2.0530 H   0  0  0  0  0  0  0  0  0  0  0  0
   14.3156   -8.8703   -0.6424 H   0  0  0  0  0  0  0  0  0  0  0  0
    7.4617   -4.1919   -2.6201 H   0  0  0  0  0  0  0  0  0  0  0  0
    5.9396   -6.0075   -1.7693 H   0  0  0  0  0  0  0  0  0  0  0  0
    6.3753   -6.9855    0.4944 H   0  0  0  0  0  0  0  0  0  0  0  0
    9.6378   -4.5100    1.0934 H   0  0  0  0  0  0  0  0  0  0  0  0
    5.0323    0.6961   -1.3691 H   0  0  0  0  0  0  0  0  0  0  0  0
    4.6609    3.0811   -1.9944 H   0  0  0  0  0  0  0  0  0  0  0  0
  1  2  1  0
  1 39  1  0
  1 40  1  0
  1 41  1  0
  2  3  2  0
  2 38  1  0
  3  4  1  0
  3 42  1  0
  4  5  2  0
  4 43  1  0
  5  6  1  0
  5 37  1  0
  6  7  2  0
  6  8  2  0
  6  9  1  1
  9 10  1  0
  9 44  1  0
 10 11  2  0
 10 30  1  0
 11 12  1  0
 11 20  1  0
 12 13  2  0
 12 45  1  0
 13 14  1  0
 13 46  1  0
 14 15  2  0
 14 19  1  0
 15 16  1  0
 15 47  1  0
 16 17  2  0
 16 48  1  0
 17 18  1  0
 17 49  1  0
 18 19  2  0
 18 50  1  0
 19 51  1  0
 20 21  1  0
 21 22  1  0
 21 30  2  0
 22 23  2  0
 22 29  1  0
 23 24  1  0
 23 52  1  0
 24 25  2  0
 24 53  1  0
 25 26  1  0
 25 29  1  0
 26 27  1  0
 26 28  1  0
 27 54  1  0
 27 55  1  0
 27 56  1  0
 28 57  1  0
 28 58  1  0
 28 59  1  0
 30 31  1  0
 31 32  2  0
 31 36  1  0
 32 33  1  0
 32 60  1  0
 33 34  2  0
 33 61  1  0
 34 35  1  0
 34 62  1  0
 35 36  2  0
 36 63  1  0
 37 38  2  0
 37 64  1  0
 38 65  1  0
M  END

