
     RDKit          3D

 68 72  0  0  0  0  0  0  0  0999 V2000
    0.9222    0.7336   -0.2613 C   0  0  0  0  0  0  0  0  0  0  0  0
    2.3099    0.8108   -0.5836 O   0  0  0  0  0  0  0  0  0  0  0  0
    3.1418    1.0266    0.4642 C   0  0  0  0  0  0  0  0  0  0  0  0
    2.7614    1.1761    1.6046 O   0  0  0  0  0  0  0  0  0  0  0  0
    4.4586    1.0479    0.0736 N   0  0  0  0  0  0  0  0  0  0  0  0
    4.9293    0.9419   -1.2988 C   0  0  0  0  0  0  0  0  0  0  0  0
    5.7636    1.9962   -1.7849 N   0  0  0  0  0  0  0  0  0  0  0  0
    6.0837    3.1074   -1.2515 C   0  0  0  0  0  0  0  0  0  0  0  0
    7.0260    3.9672   -2.0466 C   0  0  0  0  0  0  0  0  0  0  0  0
    6.8695    4.0770   -3.4367 C   0  0  0  0  0  0  0  0  0  0  0  0
    7.7766    4.8065   -4.2021 C   0  0  0  0  0  0  0  0  0  0  0  0
    8.8895    5.4379   -3.6129 C   0  0  0  0  0  0  0  0  0  0  0  0
    9.8627    6.2098   -4.4317 C   0  0  0  0  0  0  0  0  0  0  0  0
    9.4090    6.9966   -5.5238 C   0  0  0  0  0  0  0  0  0  0  0  0
   10.2805    7.7366   -6.3200 C   0  0  0  0  0  0  0  0  0  0  0  0
   11.6338    7.6710   -5.9984 C   0  0  0  0  0  0  0  0  0  0  0  0
   12.6536    8.3043   -6.6397 O   0  0  0  0  0  0  0  0  0  0  0  0
   13.8015    7.9492   -5.9890 C   0  0  0  0  0  0  0  0  0  0  0  0
   13.5634    7.1070   -4.9478 C   0  0  0  0  0  0  0  0  0  0  0  0
   12.1322    6.9042   -4.9246 C   0  0  0  0  0  0  0  0  0  0  0  0
   11.2337    6.1687   -4.1363 C   0  0  0  0  0  0  0  0  0  0  0  0
    9.0504    5.3064   -2.2204 C   0  0  0  0  0  0  0  0  0  0  0  0
    8.1347    4.5899   -1.4505 C   0  0  0  0  0  0  0  0  0  0  0  0
    5.7050    3.6460    0.0216 N   0  0  0  0  0  0  0  0  0  0  0  0
    5.3975    5.0869    0.1154 C   0  0  0  0  0  0  0  0  0  0  0  0
    4.1445    5.4806   -0.6697 C   0  0  1  0  0  0  0  0  0  0  0  0
    2.8385    4.7815   -0.2493 C   0  0  0  0  0  0  0  0  0  0  0  0
    1.7450    5.7053   -0.7944 C   0  0  0  0  0  0  0  0  0  0  0  0
    2.3653    7.0348   -0.7673 N   0  0  0  0  0  0  0  0  0  0  0  0
    1.5978    8.1475   -0.9400 C   0  0  0  0  0  0  0  0  0  0  0  0
    0.3940    8.0704   -1.1537 O   0  0  0  0  0  0  0  0  0  0  0  0
    2.3157    9.5110   -0.8227 C   0  0  1  0  0  0  0  0  0  0  0  0
    1.3720   10.6622   -1.1364 C   0  0  0  0  0  0  0  0  0  0  0  0
    2.9269    9.6491    0.4564 O   0  0  0  0  0  0  0  0  0  0  0  0
    3.8050    6.9729   -0.5022 C   0  0  0  0  0  0  0  0  0  0  0  0
    5.5915    2.9061    1.2089 C   0  0  0  0  0  0  0  0  0  0  0  0
    5.5397    3.4420    2.2945 O   0  0  0  0  0  0  0  0  0  0  0  0
    5.4619    1.3904    1.0627 C   0  0  0  0  0  0  0  0  0  0  0  0
    0.4005    0.5593   -1.2107 H   0  0  0  0  0  0  0  0  0  0  0  0
    0.5717    1.6689    0.1999 H   0  0  0  0  0  0  0  0  0  0  0  0
    0.7269   -0.0936    0.4374 H   0  0  0  0  0  0  0  0  0  0  0  0
    4.0590    0.8428   -1.9617 H   0  0  0  0  0  0  0  0  0  0  0  0
    5.5135    0.0069   -1.4082 H   0  0  0  0  0  0  0  0  0  0  0  0
    6.0324    3.5637   -3.9137 H   0  0  0  0  0  0  0  0  0  0  0  0
    7.6365    4.8620   -5.2839 H   0  0  0  0  0  0  0  0  0  0  0  0
    8.3382    7.0442   -5.7319 H   0  0  0  0  0  0  0  0  0  0  0  0
    9.9239    8.3469   -7.1515 H   0  0  0  0  0  0  0  0  0  0  0  0
   14.7167    8.3809   -6.3875 H   0  0  0  0  0  0  0  0  0  0  0  0
   14.3081    6.6830   -4.2776 H   0  0  0  0  0  0  0  0  0  0  0  0
   11.6023    5.5480   -3.3169 H   0  0  0  0  0  0  0  0  0  0  0  0
    9.8951    5.7921   -1.7270 H   0  0  0  0  0  0  0  0  0  0  0  0
    8.2907    4.5062   -0.3720 H   0  0  0  0  0  0  0  0  0  0  0  0
    6.2518    5.6876   -0.2247 H   0  0  0  0  0  0  0  0  0  0  0  0
    5.2599    5.2932    1.1845 H   0  0  0  0  0  0  0  0  0  0  0  0
    4.3151    5.2857   -1.7440 H   0  0  0  0  0  0  0  0  0  0  0  0
    2.7822    4.7201    0.8506 H   0  0  0  0  0  0  0  0  0  0  0  0
    2.7507    3.7590   -0.6435 H   0  0  0  0  0  0  0  0  0  0  0  0
    0.8200    5.7026   -0.1987 H   0  0  0  0  0  0  0  0  0  0  0  0
    1.4562    5.4395   -1.8279 H   0  0  0  0  0  0  0  0  0  0  0  0
    3.1566    9.5224   -1.5376 H   0  0  0  0  0  0  0  0  0  0  0  0
    0.4998   10.6395   -0.4644 H   0  0  0  0  0  0  0  0  0  0  0  0
    0.9855   10.5893   -2.1634 H   0  0  0  0  0  0  0  0  0  0  0  0
    1.9022   11.6184   -1.0156 H   0  0  0  0  0  0  0  0  0  0  0  0
    2.2196    9.6901    1.1157 H   0  0  0  0  0  0  0  0  0  0  0  0
    4.0339    7.3293    0.5166 H   0  0  0  0  0  0  0  0  0  0  0  0
    4.3754    7.6090   -1.1978 H   0  0  0  0  0  0  0  0  0  0  0  0
    5.1735    1.0106    2.0493 H   0  0  0  0  0  0  0  0  0  0  0  0
    6.4256    0.9409    0.7710 H   0  0  0  0  0  0  0  0  0  0  0  0
  1  2  1  0
  1 39  1  0
  1 40  1  0
  1 41  1  0
  2  3  1  0
  3  4  2  0
  3  5  1  0
  5  6  1  0
  5 38  1  0
  6  7  1  0
  6 42  1  0
  6 43  1  0
  7  8  2  0
  8  9  1  0
  8 24  1  0
  9 10  2  0
  9 23  1  0
 10 11  1  0
 10 44  1  0
 11 12  2  0
 11 45  1  0
 12 13  1  0
 12 22  1  0
 13 14  2  0
 13 21  1  0
 14 15  1  0
 14 46  1  0
 15 16  2  0
 15 47  1  0
 16 17  1  0
 16 20  1  0
 17 18  1  0
 18 19  2  0
 18 48  1  0
 19 20  1  0
 19 49  1  0
 20 21  2  0
 21 50  1  0
 22 23  2  0
 22 51  1  0
 23 52  1  0
 24 25  1  0
 24 36  1  0
 25 26  1  0
 25 53  1  0
 25 54  1  0
 26 27  1  0
 26 35  1  0
 26 55  1  6
 27 28  1  0
 27 56  1  0
 27 57  1  0
 28 29  1  0
 28 58  1  0
 28 59  1  0
 29 30  1  0
 29 35  1  0
 30 31  2  0
 30 32  1  0
 32 33  1  0
 32 34  1  0
 32 60  1  6
 33 61  1  0
 33 62  1  0
 33 63  1  0
 34 64  1  0
 35 65  1  0
 35 66  1  0
 36 37  2  0
 36 38  1  0
 38 67  1  0
 38 68  1  0
M  END

