
     RDKit          3D

 42 45  0  0  0  0  0  0  0  0999 V2000
    4.5884    1.1864   -0.3738 C   0  0  0  0  0  0  0  0  0  0  0  0
    4.4697   -0.1182   -0.0971 C   0  0  0  0  0  0  0  0  0  0  0  0
    5.6492   -1.0299    0.1128 C   0  0  0  0  0  0  0  0  0  0  0  0
    3.0896   -0.7540   -0.0100 C   0  0  1  0  0  0  0  0  0  0  0  0
    2.6954   -1.4136   -1.3461 C   0  0  0  0  0  0  0  0  0  0  0  0
    1.3658   -2.0287   -1.3161 N   0  0  0  0  0  0  0  0  0  0  0  0
    0.2667   -1.1671   -1.4125 C   0  0  0  0  0  0  0  0  0  0  0  0
    0.4298    0.0334   -1.5468 O   0  0  0  0  0  0  0  0  0  0  0  0
   -1.0849   -1.7857   -1.3411 C   0  0  0  0  0  0  0  0  0  0  0  0
   -2.2046   -0.9696   -1.4296 C   0  0  0  0  0  0  0  0  0  0  0  0
   -3.5011   -1.5201   -1.3587 C   0  0  0  0  0  0  0  0  0  0  0  0
   -3.6760   -2.8835   -1.1988 C   0  0  0  0  0  0  0  0  0  0  0  0
   -2.5497   -3.7382   -1.1065 C   0  0  0  0  0  0  0  0  0  0  0  0
   -1.2264   -3.1881   -1.1794 C   0  0  0  0  0  0  0  0  0  0  0  0
   -0.0679   -4.0243   -1.0939 C   0  0  0  0  0  0  0  0  0  0  0  0
   -0.1755   -5.3987   -0.9382 C   0  0  0  0  0  0  0  0  0  0  0  0
   -1.4679   -5.9568   -0.8610 C   0  0  0  0  0  0  0  0  0  0  0  0
   -1.8879   -7.2734   -0.7063 N   0  0  0  0  0  0  0  0  0  0  0  0
   -3.1787   -7.2129   -0.7018 C   0  0  0  0  0  0  0  0  0  0  0  0
   -4.1635   -8.3158   -0.5665 C   0  0  0  0  0  0  0  0  0  0  0  0
   -3.6885   -5.9379   -0.8437 O   0  0  0  0  0  0  0  0  0  0  0  0
   -2.5942   -5.1408   -0.9446 C   0  0  0  0  0  0  0  0  0  0  0  0
    1.2937   -3.4293   -1.1826 C   0  0  0  0  0  0  0  0  0  0  0  0
    2.3020   -4.1075   -1.1555 O   0  0  0  0  0  0  0  0  0  0  0  0
    3.0144   -1.7916    0.9529 O   0  0  0  0  0  0  0  0  0  0  0  0
    3.0915   -1.1516    2.2538 O   0  0  0  0  0  0  0  0  0  0  0  0
    5.5673    1.6606   -0.4897 H   0  0  0  0  0  0  0  0  0  0  0  0
    3.7087    1.8260   -0.4952 H   0  0  0  0  0  0  0  0  0  0  0  0
    6.5981   -0.5009   -0.0571 H   0  0  0  0  0  0  0  0  0  0  0  0
    5.6147   -1.9076   -0.5544 H   0  0  0  0  0  0  0  0  0  0  0  0
    5.6482   -1.4219    1.1427 H   0  0  0  0  0  0  0  0  0  0  0  0
    2.3412    0.0181    0.2331 H   0  0  0  0  0  0  0  0  0  0  0  0
    3.4081   -2.2037   -1.6066 H   0  0  0  0  0  0  0  0  0  0  0  0
    2.7010   -0.6310   -2.1141 H   0  0  0  0  0  0  0  0  0  0  0  0
   -2.0517    0.1041   -1.5528 H   0  0  0  0  0  0  0  0  0  0  0  0
   -4.3710   -0.8633   -1.4296 H   0  0  0  0  0  0  0  0  0  0  0  0
   -4.6770   -3.3165   -1.1421 H   0  0  0  0  0  0  0  0  0  0  0  0
    0.7242   -6.0118   -0.8793 H   0  0  0  0  0  0  0  0  0  0  0  0
   -3.6255   -9.2655   -0.4614 H   0  0  0  0  0  0  0  0  0  0  0  0
   -4.8203   -8.3643   -1.4499 H   0  0  0  0  0  0  0  0  0  0  0  0
   -4.8058   -8.1606    0.3152 H   0  0  0  0  0  0  0  0  0  0  0  0
    3.4617   -1.8886    2.7648 H   0  0  0  0  0  0  0  0  0  0  0  0
  1  2  2  0
  1 27  1  0
  1 28  1  0
  2  3  1  0
  2  4  1  0
  3 29  1  0
  3 30  1  0
  3 31  1  0
  4  5  1  0
  4 25  1  0
  4 32  1  1
  5  6  1  0
  5 33  1  0
  5 34  1  0
  6  7  1  0
  6 23  1  0
  7  8  2  0
  7  9  1  0
  9 10  2  0
  9 14  1  0
 10 11  1  0
 10 35  1  0
 11 12  2  0
 11 36  1  0
 12 13  1  0
 12 37  1  0
 13 14  1  0
 13 22  2  0
 14 15  2  0
 15 16  1  0
 15 23  1  0
 16 17  2  0
 16 38  1  0
 17 18  1  0
 17 22  1  0
 18 19  2  0
 19 20  1  0
 19 21  1  0
 20 39  1  0
 20 40  1  0
 20 41  1  0
 21 22  1  0
 23 24  2  0
 25 26  1  0
 26 42  1  0
M  END

