
     RDKit          3D

 38 38  0  0  0  0  0  0  0  0999 V2000
    2.2758    1.1274    2.6030 C   0  0  0  0  0  0  0  0  0  0  0  0
    2.4022    0.4744    1.2225 C   0  0  1  0  0  0  0  0  0  0  0  0
    3.0353   -0.9190    1.3003 C   0  0  0  0  0  0  0  0  0  0  0  0
    1.0419    0.4132    0.5249 C   0  0  0  0  0  0  0  0  0  0  0  0
    3.1862    1.3331    0.3314 O   0  0  0  0  0  0  0  0  0  0  0  0
    4.4727    1.6446    0.5894 C   0  0  0  0  0  0  0  0  0  0  0  0
    5.1218    1.2769    1.5497 O   0  0  0  0  0  0  0  0  0  0  0  0
    4.9579    2.4429   -0.4096 N   0  0  0  0  0  0  0  0  0  0  0  0
    6.3085    2.9565   -0.3844 C   0  0  1  0  0  0  0  0  0  0  0  0
    6.8413    2.3495    0.3622 H   0  0  0  0  0  0  0  0  0  0  0  0
    7.0096    2.7203   -1.7429 C   0  0  0  0  0  0  0  0  0  0  0  0
    6.3124    3.3688   -2.9346 C   0  0  0  0  0  0  0  0  0  0  0  0
    5.1297    3.5943   -2.9853 O   0  0  0  0  0  0  0  0  0  0  0  0
    7.0946    3.6455   -3.9951 O   0  0  0  0  0  0  0  0  0  0  0  0
    6.4214    4.4172    0.0610 C   0  0  0  0  0  0  0  0  0  0  0  0
    5.4123    5.3576   -0.1848 C   0  0  0  0  0  0  0  0  0  0  0  0
    5.5659    6.6906    0.2094 C   0  0  0  0  0  0  0  0  0  0  0  0
    6.7307    7.0937    0.8522 C   0  0  0  0  0  0  0  0  0  0  0  0
    6.8957    8.3616    1.2390 F   0  0  0  0  0  0  0  0  0  0  0  0
    7.7429    6.1625    1.1056 C   0  0  0  0  0  0  0  0  0  0  0  0
    8.8537    6.5587    1.7348 F   0  0  0  0  0  0  0  0  0  0  0  0
    7.5901    4.8371    0.7161 C   0  0  0  0  0  0  0  0  0  0  0  0
    1.5963    0.5338    3.2345 H   0  0  0  0  0  0  0  0  0  0  0  0
    1.8559    2.1413    2.5094 H   0  0  0  0  0  0  0  0  0  0  0  0
    3.2524    1.1934    3.0990 H   0  0  0  0  0  0  0  0  0  0  0  0
    2.3849   -1.5912    1.8816 H   0  0  0  0  0  0  0  0  0  0  0  0
    4.0208   -0.8779    1.7813 H   0  0  0  0  0  0  0  0  0  0  0  0
    3.1492   -1.3446    0.2907 H   0  0  0  0  0  0  0  0  0  0  0  0
    0.3447   -0.2130    1.1021 H   0  0  0  0  0  0  0  0  0  0  0  0
    1.1429   -0.0143   -0.4842 H   0  0  0  0  0  0  0  0  0  0  0  0
    0.6100    1.4210    0.4298 H   0  0  0  0  0  0  0  0  0  0  0  0
    4.3627    2.6843   -1.1957 H   0  0  0  0  0  0  0  0  0  0  0  0
    7.0413    1.6343   -1.9448 H   0  0  0  0  0  0  0  0  0  0  0  0
    8.0546    3.0655   -1.6800 H   0  0  0  0  0  0  0  0  0  0  0  0
    8.0199    3.4358   -3.8045 H   0  0  0  0  0  0  0  0  0  0  0  0
    4.4945    5.0517   -0.6872 H   0  0  0  0  0  0  0  0  0  0  0  0
    4.7870    7.4332    0.0245 H   0  0  0  0  0  0  0  0  0  0  0  0
    8.3965    4.1374    0.9515 H   0  0  0  0  0  0  0  0  0  0  0  0
  1  2  1  0
  1 23  1  0
  1 24  1  0
  1 25  1  0
  2  3  1  0
  2  4  1  0
  2  5  1  6
  3 26  1  0
  3 27  1  0
  3 28  1  0
  4 29  1  0
  4 30  1  0
  4 31  1  0
  5  6  1  0
  6  7  2  0
  6  8  1  0
  8  9  1  0
  8 32  1  0
  9 10  1  1
  9 11  1  0
  9 15  1  0
 11 12  1  0
 11 33  1  0
 11 34  1  0
 12 13  2  0
 12 14  1  0
 14 35  1  0
 15 16  2  0
 15 22  1  0
 16 17  1  0
 16 36  1  0
 17 18  2  0
 17 37  1  0
 18 19  1  0
 18 20  1  0
 20 21  1  0
 20 22  2  0
 22 38  1  0
M  END

