
     RDKit          3D

 42 44  0  0  0  0  0  0  0  0999 V2000
    1.2905   -0.0676    0.4612 C   0  0  0  0  0  0  0  0  0  0  0  0
    2.6976    0.1849   -0.0995 C   0  0  1  0  0  0  0  0  0  0  0  0
    3.4610   -1.1167   -0.4104 C   0  0  0  0  0  0  0  0  0  0  0  0
    2.9474   -1.8430   -1.6634 C   0  0  0  0  0  0  0  0  0  0  0  0
    2.9399   -0.9406   -2.8133 N   0  0  0  0  0  0  0  0  0  0  0  0
    3.4799   -1.2612   -4.0355 C   0  0  0  0  0  0  0  0  0  0  0  0
    4.0536   -0.2583   -4.8645 C   0  0  0  0  0  0  0  0  0  0  0  0
    4.7312   -0.5669   -6.0314 C   0  0  0  0  0  0  0  0  0  0  0  0
    4.9004   -1.9023   -6.4590 C   0  0  0  0  0  0  0  0  0  0  0  0
    5.6518   -2.1900   -7.6753 C   0  0  0  0  0  0  0  0  0  0  0  0
    5.8397   -3.3950   -8.0867 N   0  0  0  0  0  0  0  0  0  0  0  0
    6.5513   -3.5750   -9.2240 N   0  0  0  0  0  0  0  0  0  0  0  0
    7.1426   -2.6113   -9.9983 N   0  0  0  0  0  0  0  0  0  0  0  0
    7.7251   -3.2386  -10.9490 N   0  0  0  0  0  0  0  0  0  0  0  0
    7.5604   -4.5827  -10.8627 N   0  0  0  0  0  0  0  0  0  0  0  0
    6.8247   -4.7870   -9.7830 C   0  0  0  0  0  0  0  0  0  0  0  0
    6.3604   -5.9597   -9.2971 N   0  0  0  0  0  0  0  0  0  0  0  0
    4.3058   -2.9073   -5.6869 C   0  0  0  0  0  0  0  0  0  0  0  0
    3.5816   -2.5939   -4.5398 C   0  0  0  0  0  0  0  0  0  0  0  0
    2.7915   -3.6994   -3.9756 N   0  0  0  0  0  0  0  0  0  0  0  0
    1.6648   -3.4412   -3.5749 O   0  0  0  0  0  0  0  0  0  0  0  0
    3.2814   -4.8190   -3.9957 O   0  0  0  0  0  0  0  0  0  0  0  0
    2.1931    0.2997   -2.5947 C   0  0  0  0  0  0  0  0  0  0  0  0
    2.6896    1.0653   -1.3654 C   0  0  0  0  0  0  0  0  0  0  0  0
    1.3398   -0.6640    1.3864 H   0  0  0  0  0  0  0  0  0  0  0  0
    0.6411   -0.6125   -0.2424 H   0  0  0  0  0  0  0  0  0  0  0  0
    0.7876    0.8825    0.7039 H   0  0  0  0  0  0  0  0  0  0  0  0
    3.2643    0.7248    0.6788 H   0  0  0  0  0  0  0  0  0  0  0  0
    3.4038   -1.8109    0.4448 H   0  0  0  0  0  0  0  0  0  0  0  0
    4.5287   -0.8806   -0.5594 H   0  0  0  0  0  0  0  0  0  0  0  0
    1.9412   -2.2669   -1.4977 H   0  0  0  0  0  0  0  0  0  0  0  0
    3.6149   -2.6890   -1.8754 H   0  0  0  0  0  0  0  0  0  0  0  0
    4.0137    0.7814   -4.5389 H   0  0  0  0  0  0  0  0  0  0  0  0
    5.1754    0.2430   -6.6167 H   0  0  0  0  0  0  0  0  0  0  0  0
    6.0595   -1.3379   -8.2373 H   0  0  0  0  0  0  0  0  0  0  0  0
    6.7785   -6.8069   -9.6589 H   0  0  0  0  0  0  0  0  0  0  0  0
    5.9887   -5.9682   -8.3551 H   0  0  0  0  0  0  0  0  0  0  0  0
    4.3637   -3.9489   -6.0010 H   0  0  0  0  0  0  0  0  0  0  0  0
    1.1244    0.0362   -2.4711 H   0  0  0  0  0  0  0  0  0  0  0  0
    2.2480    0.9264   -3.4928 H   0  0  0  0  0  0  0  0  0  0  0  0
    2.0574    1.9565   -1.2140 H   0  0  0  0  0  0  0  0  0  0  0  0
    3.7136    1.4264   -1.5635 H   0  0  0  0  0  0  0  0  0  0  0  0
  1  2  1  0
  1 25  1  0
  1 26  1  0
  1 27  1  0
  2  3  1  0
  2 24  1  0
  2 28  1  1
  3  4  1  0
  3 29  1  0
  3 30  1  0
  4  5  1  0
  4 31  1  0
  4 32  1  0
  5  6  1  0
  5 23  1  0
  6  7  2  0
  6 19  1  0
  7  8  1  0
  7 33  1  0
  8  9  2  0
  8 34  1  0
  9 10  1  0
  9 18  1  0
 10 11  2  0
 10 35  1  0
 11 12  1  0
 12 13  1  0
 12 16  1  0
 13 14  2  0
 14 15  1  0
 15 16  2  0
 16 17  1  0
 17 36  1  0
 17 37  1  0
 18 19  2  0
 18 38  1  0
 19 20  1  0
 20 21  2  0
 20 22  1  0
 23 24  1  0
 23 39  1  0
 23 40  1  0
 24 41  1  0
 24 42  1  0
M  CHG  2  20   1  22  -1
M  END

