
     RDKit          3D

 53 57  0  0  0  0  0  0  0  0999 V2000
    2.4516    2.3822   -2.7652 C   0  0  0  0  0  0  0  0  0  0  0  0
    1.3717    3.4163   -2.7623 C   0  0  0  0  0  0  0  0  0  0  0  0
    0.9201    4.2772   -1.7606 C   0  0  0  0  0  0  0  0  0  0  0  0
    1.4309    4.4183   -0.3517 C   0  0  0  0  0  0  0  0  0  0  0  0
    2.6070    5.2699   -0.2030 N   0  0  0  0  0  0  0  0  0  0  0  0
    3.8650    4.7632   -0.0832 C   0  0  0  0  0  0  0  0  0  0  0  0
    4.1197    3.5624   -0.0457 O   0  0  0  0  0  0  0  0  0  0  0  0
    4.9485    5.7751    0.0145 C   0  0  0  0  0  0  0  0  0  0  0  0
    6.3273    5.4967    0.1283 C   0  0  0  0  0  0  0  0  0  0  0  0
    7.0877    6.5915    0.1980 N   0  0  0  0  0  0  0  0  0  0  0  0
    6.2148    7.6097    0.1311 N   0  0  0  0  0  0  0  0  0  0  0  0
    6.4942    8.9444    0.1735 C   0  0  0  0  0  0  0  0  0  0  0  0
    7.9429    9.3769    0.3251 C   0  0  1  0  0  0  0  0  0  0  0  0
    8.6862    8.9496   -0.6976 F   0  0  0  0  0  0  0  0  0  0  0  0
    8.0155   10.7177    0.3539 F   0  0  0  0  0  0  0  0  0  0  0  0
    8.4721    8.9143    1.4594 F   0  0  0  0  0  0  0  0  0  0  0  0
    5.4493    9.8268    0.0889 C   0  0  0  0  0  0  0  0  0  0  0  0
    4.1015    9.3381   -0.0373 C   0  0  0  0  0  0  0  0  0  0  0  0
    2.9779   10.3030   -0.1676 C   0  0  0  0  0  0  0  0  0  0  0  0
    3.1753   11.4222   -0.9688 C   0  0  0  0  0  0  0  0  0  0  0  0
    2.1538   12.3714   -1.1901 C   0  0  0  0  0  0  0  0  0  0  0  0
    0.9252   12.2073   -0.5910 C   0  0  0  0  0  0  0  0  0  0  0  0
    0.6725   11.0952    0.2584 C   0  0  0  0  0  0  0  0  0  0  0  0
   -0.5899   10.9439    0.8988 C   0  0  0  0  0  0  0  0  0  0  0  0
   -0.8356    9.8849    1.7443 C   0  0  0  0  0  0  0  0  0  0  0  0
    0.1826    8.9324    1.9879 C   0  0  0  0  0  0  0  0  0  0  0  0
    1.4149    9.0426    1.3756 C   0  0  0  0  0  0  0  0  0  0  0  0
    1.7042   10.1173    0.4854 C   0  0  0  0  0  0  0  0  0  0  0  0
    3.8566    8.0376   -0.0634 N   0  0  0  0  0  0  0  0  0  0  0  0
    4.8805    7.1750    0.0191 C   0  0  0  0  0  0  0  0  0  0  0  0
   -0.1331    5.0025   -2.3736 C   0  0  0  0  0  0  0  0  0  0  0  0
   -0.3253    4.6318   -3.6335 N   0  0  0  0  0  0  0  0  0  0  0  0
    0.5920    3.6720   -3.8554 N   0  0  0  0  0  0  0  0  0  0  0  0
    0.6616    3.0304   -5.1507 C   0  0  0  0  0  0  0  0  0  0  0  0
    3.0237    2.4234   -1.8278 H   0  0  0  0  0  0  0  0  0  0  0  0
    3.1624    2.5415   -3.5940 H   0  0  0  0  0  0  0  0  0  0  0  0
    2.0417    1.3634   -2.8815 H   0  0  0  0  0  0  0  0  0  0  0  0
    1.7050    3.4385    0.0628 H   0  0  0  0  0  0  0  0  0  0  0  0
    0.6277    4.8307    0.2804 H   0  0  0  0  0  0  0  0  0  0  0  0
    2.5050    6.2762   -0.3163 H   0  0  0  0  0  0  0  0  0  0  0  0
    6.7846    4.5087    0.1608 H   0  0  0  0  0  0  0  0  0  0  0  0
    5.6527   10.8934    0.1468 H   0  0  0  0  0  0  0  0  0  0  0  0
    4.1332   11.5573   -1.4762 H   0  0  0  0  0  0  0  0  0  0  0  0
    2.3442   13.2257   -1.8437 H   0  0  0  0  0  0  0  0  0  0  0  0
    0.1249   12.9334   -0.7570 H   0  0  0  0  0  0  0  0  0  0  0  0
   -1.3628   11.6936    0.7097 H   0  0  0  0  0  0  0  0  0  0  0  0
   -1.8082    9.7813    2.2315 H   0  0  0  0  0  0  0  0  0  0  0  0
   -0.0075    8.0997    2.6699 H   0  0  0  0  0  0  0  0  0  0  0  0
    2.1769    8.2911    1.5714 H   0  0  0  0  0  0  0  0  0  0  0  0
   -0.7605    5.7788   -1.9326 H   0  0  0  0  0  0  0  0  0  0  0  0
   -0.1189    3.4778   -5.7772 H   0  0  0  0  0  0  0  0  0  0  0  0
    0.4847    1.9457   -5.0701 H   0  0  0  0  0  0  0  0  0  0  0  0
    1.6435    3.1910   -5.6249 H   0  0  0  0  0  0  0  0  0  0  0  0
  1  2  1  0
  1 35  1  0
  1 36  1  0
  1 37  1  0
  2  3  2  0
  2 33  1  0
  3  4  1  0
  3 31  1  0
  4  5  1  0
  4 38  1  0
  4 39  1  0
  5  6  1  0
  5 40  1  0
  6  7  2  0
  6  8  1  0
  8  9  1  0
  8 30  2  0
  9 10  2  0
  9 41  1  0
 10 11  1  0
 11 12  1  0
 11 30  1  0
 12 13  1  0
 12 17  2  0
 13 14  1  6
 13 15  1  0
 13 16  1  0
 17 18  1  0
 17 42  1  0
 18 19  1  0
 18 29  2  0
 19 20  2  0
 19 28  1  0
 20 21  1  0
 20 43  1  0
 21 22  2  0
 21 44  1  0
 22 23  1  0
 22 45  1  0
 23 24  1  0
 23 28  2  0
 24 25  2  0
 24 46  1  0
 25 26  1  0
 25 47  1  0
 26 27  2  0
 26 48  1  0
 27 28  1  0
 27 49  1  0
 29 30  1  0
 31 32  2  0
 31 50  1  0
 32 33  1  0
 33 34  1  0
 34 51  1  0
 34 52  1  0
 34 53  1  0
M  END

