
     RDKit          3D

 42 42  0  0  0  0  0  0  0  0999 V2000
    1.3756   -0.2955   -1.9953 C   0  0  0  0  0  0  0  0  0  0  0  0
    2.8565   -0.5981   -2.2179 C   0  0  1  0  0  0  0  0  0  0  0  0
    3.5241   -1.3733   -1.0473 C   0  0  0  0  0  0  0  0  0  0  0  0
    2.8992   -2.6538   -0.6800 N   0  0  0  0  0  0  0  0  0  0  0  0
    2.0145   -2.6214    0.4061 C   0  0  0  0  0  0  0  0  0  0  0  0
    1.7687   -1.5431    0.9216 O   0  0  0  0  0  0  0  0  0  0  0  0
    1.3111   -3.9018    0.9516 C   0  0  1  0  0  0  0  0  0  0  0  0
    2.2614   -5.0903    1.2109 C   0  0  0  0  0  0  0  0  0  0  0  0
    0.6692   -3.5068    2.2982 C   0  0  0  0  0  0  0  0  0  0  0  0
    0.1800   -4.3186   -0.0173 C   0  0  0  0  0  0  0  0  0  0  0  0
    3.4015   -3.8161   -1.3541 C   0  0  0  0  0  0  0  0  0  0  0  0
    4.6673   -4.3242   -1.0115 C   0  0  0  0  0  0  0  0  0  0  0  0
    5.2002   -5.4291   -1.6779 C   0  0  0  0  0  0  0  0  0  0  0  0
    4.4765   -6.0524   -2.6972 C   0  0  0  0  0  0  0  0  0  0  0  0
    3.2265   -5.5337   -3.0284 C   0  0  0  0  0  0  0  0  0  0  0  0
    2.4373   -6.1914   -4.0957 N   0  0  0  0  0  0  0  0  0  0  0  0
    2.9952   -7.0528   -4.7550 O   0  0  0  0  0  0  0  0  0  0  0  0
    1.2787   -5.8391   -4.2336 O   0  0  0  0  0  0  0  0  0  0  0  0
    2.6842   -4.4167   -2.3935 C   0  0  0  0  0  0  0  0  0  0  0  0
    3.0785   -1.3010   -3.5607 C   0  0  0  0  0  0  0  0  0  0  0  0
    2.2240   -1.8758   -4.1785 O   0  0  0  0  0  0  0  0  0  0  0  0
    4.3500   -1.2738   -4.0315 O   0  0  0  0  0  0  0  0  0  0  0  0
    1.2223    0.2076   -1.0316 H   0  0  0  0  0  0  0  0  0  0  0  0
    0.7876   -1.2239   -1.9967 H   0  0  0  0  0  0  0  0  0  0  0  0
    0.9853    0.3385   -2.8049 H   0  0  0  0  0  0  0  0  0  0  0  0
    3.4120    0.3587   -2.2678 H   0  0  0  0  0  0  0  0  0  0  0  0
    3.4907   -0.7321   -0.1577 H   0  0  0  0  0  0  0  0  0  0  0  0
    4.5799   -1.5712   -1.2930 H   0  0  0  0  0  0  0  0  0  0  0  0
    3.1425   -4.7848    1.7981 H   0  0  0  0  0  0  0  0  0  0  0  0
    2.6106   -5.5787    0.2936 H   0  0  0  0  0  0  0  0  0  0  0  0
    1.7247   -5.8521    1.7983 H   0  0  0  0  0  0  0  0  0  0  0  0
    1.4302   -3.1919    3.0278 H   0  0  0  0  0  0  0  0  0  0  0  0
    0.1282   -4.3720    2.7120 H   0  0  0  0  0  0  0  0  0  0  0  0
   -0.0343   -2.6731    2.1786 H   0  0  0  0  0  0  0  0  0  0  0  0
    0.5556   -4.7083   -0.9725 H   0  0  0  0  0  0  0  0  0  0  0  0
   -0.4914   -3.4717   -0.2291 H   0  0  0  0  0  0  0  0  0  0  0  0
   -0.4237   -5.1149    0.4471 H   0  0  0  0  0  0  0  0  0  0  0  0
    5.2270   -3.8500   -0.2019 H   0  0  0  0  0  0  0  0  0  0  0  0
    6.1819   -5.8151   -1.3946 H   0  0  0  0  0  0  0  0  0  0  0  0
    4.8570   -6.9199   -3.2355 H   0  0  0  0  0  0  0  0  0  0  0  0
    1.7305   -4.0190   -2.7329 H   0  0  0  0  0  0  0  0  0  0  0  0
    4.9116   -0.7235   -3.4675 H   0  0  0  0  0  0  0  0  0  0  0  0
  1  2  1  0
  1 23  1  0
  1 24  1  0
  1 25  1  0
  2  3  1  0
  2 20  1  0
  2 26  1  6
  3  4  1  0
  3 27  1  0
  3 28  1  0
  4  5  1  0
  4 11  1  0
  5  6  2  0
  7  5  1  6
  7  8  1  0
  7  9  1  0
  7 10  1  0
  8 29  1  0
  8 30  1  0
  8 31  1  0
  9 32  1  0
  9 33  1  0
  9 34  1  0
 10 35  1  0
 10 36  1  0
 10 37  1  0
 11 12  2  0
 11 19  1  0
 12 13  1  0
 12 38  1  0
 13 14  2  0
 13 39  1  0
 14 15  1  0
 14 40  1  0
 15 16  1  0
 15 19  2  0
 16 17  2  0
 16 18  1  0
 19 41  1  0
 20 21  2  0
 20 22  1  0
 22 42  1  0
M  CHG  2  16   1  18  -1
M  END

