
     RDKit          3D

 60 62  0  0  0  0  0  0  0  0999 V2000
    7.8252    1.0117    4.1442 C   0  0  0  0  0  0  0  0  0  0  0  0
    7.5793    0.0167    3.2877 C   0  0  0  0  0  0  0  0  0  0  0  0
    6.2632   -0.1991    2.5846 C   0  0  0  0  0  0  0  0  0  0  0  0
    6.4096   -0.1716    1.1375 N   0  0  0  0  0  0  0  0  0  0  0  0
    6.1572   -1.1404    0.2034 C   0  0  0  0  0  0  0  0  0  0  0  0
    6.4443   -0.9715   -0.9708 O   0  0  0  0  0  0  0  0  0  0  0  0
    5.5320   -2.4575    0.6741 C   0  0  0  0  0  0  0  0  0  0  0  0
    6.5688   -3.4523    1.1681 C   0  0  0  0  0  0  0  0  0  0  0  0
    6.4135   -4.1185    2.3919 C   0  0  0  0  0  0  0  0  0  0  0  0
    7.3635   -5.0425    2.8365 C   0  0  0  0  0  0  0  0  0  0  0  0
    8.4889   -5.3300    2.0535 C   0  0  0  0  0  0  0  0  0  0  0  0
    9.4773   -6.2590    2.5071 N   0  0  0  0  0  0  0  0  0  0  0  0
   10.7059   -5.7083    3.1059 C   0  0  0  0  0  0  0  0  0  0  0  0
   10.5352   -5.2246    4.5345 C   0  0  0  0  0  0  0  0  0  0  0  0
   10.3753   -6.1499    5.5818 C   0  0  0  0  0  0  0  0  0  0  0  0
   10.2112   -5.6963    6.8901 C   0  0  0  0  0  0  0  0  0  0  0  0
   10.2070   -4.3247    7.1713 C   0  0  0  0  0  0  0  0  0  0  0  0
   10.3670   -3.3835    6.1462 C   0  0  0  0  0  0  0  0  0  0  0  0
   10.3562   -1.9000    6.4291 C   0  0  0  0  0  0  0  0  0  0  0  0
   10.5298   -3.8572    4.8324 C   0  0  0  0  0  0  0  0  0  0  0  0
    9.2946   -7.6336    2.5357 C   0  0  0  0  0  0  0  0  0  0  0  0
   10.1052   -8.3692    3.0891 O   0  0  0  0  0  0  0  0  0  0  0  0
    8.0924   -8.1668    1.8351 C   0  0  0  0  0  0  0  0  0  0  0  0
    7.8310   -9.4885    1.8779 C   0  0  0  0  0  0  0  0  0  0  0  0
    6.7217  -10.2064    1.2435 C   0  0  0  0  0  0  0  0  0  0  0  0
    5.7322   -9.5704    0.4639 C   0  0  0  0  0  0  0  0  0  0  0  0
    4.6996  -10.3037   -0.1164 C   0  0  0  0  0  0  0  0  0  0  0  0
    4.6271  -11.6909    0.0661 C   0  0  0  0  0  0  0  0  0  0  0  0
    5.5981  -12.3378    0.8350 C   0  0  0  0  0  0  0  0  0  0  0  0
    6.6325  -11.6023    1.4162 C   0  0  0  0  0  0  0  0  0  0  0  0
    8.6521   -4.6653    0.8279 C   0  0  0  0  0  0  0  0  0  0  0  0
    7.7057   -3.7386    0.3918 C   0  0  0  0  0  0  0  0  0  0  0  0
    8.7990    1.1224    4.6288 H   0  0  0  0  0  0  0  0  0  0  0  0
    7.0587    1.7521    4.3983 H   0  0  0  0  0  0  0  0  0  0  0  0
    8.3663   -0.7075    3.0445 H   0  0  0  0  0  0  0  0  0  0  0  0
    5.5344    0.5635    2.9151 H   0  0  0  0  0  0  0  0  0  0  0  0
    5.8532   -1.1773    2.8734 H   0  0  0  0  0  0  0  0  0  0  0  0
    6.8538    0.6523    0.7391 H   0  0  0  0  0  0  0  0  0  0  0  0
    5.0276   -2.8597   -0.2176 H   0  0  0  0  0  0  0  0  0  0  0  0
    4.7626   -2.2985    1.4438 H   0  0  0  0  0  0  0  0  0  0  0  0
    5.5360   -3.9153    3.0127 H   0  0  0  0  0  0  0  0  0  0  0  0
    7.2382   -5.5477    3.7962 H   0  0  0  0  0  0  0  0  0  0  0  0
   11.0499   -4.8784    2.4701 H   0  0  0  0  0  0  0  0  0  0  0  0
   11.4528   -6.5125    3.0689 H   0  0  0  0  0  0  0  0  0  0  0  0
   10.3869   -7.2184    5.3544 H   0  0  0  0  0  0  0  0  0  0  0  0
   10.0929   -6.4164    7.7043 H   0  0  0  0  0  0  0  0  0  0  0  0
   10.0819   -3.9823    8.2027 H   0  0  0  0  0  0  0  0  0  0  0  0
   10.3340   -1.6944    7.5096 H   0  0  0  0  0  0  0  0  0  0  0  0
    9.4741   -1.4129    5.9787 H   0  0  0  0  0  0  0  0  0  0  0  0
   11.2474   -1.4041    6.0096 H   0  0  0  0  0  0  0  0  0  0  0  0
   10.6609   -3.1352    4.0193 H   0  0  0  0  0  0  0  0  0  0  0  0
    7.4530   -7.4747    1.2863 H   0  0  0  0  0  0  0  0  0  0  0  0
    8.5360  -10.0979    2.4541 H   0  0  0  0  0  0  0  0  0  0  0  0
    5.7723   -8.4899    0.3102 H   0  0  0  0  0  0  0  0  0  0  0  0
    3.9434   -9.7921   -0.7173 H   0  0  0  0  0  0  0  0  0  0  0  0
    3.8157  -12.2629   -0.3911 H   0  0  0  0  0  0  0  0  0  0  0  0
    5.5502  -13.4197    0.9827 H   0  0  0  0  0  0  0  0  0  0  0  0
    7.3914  -12.1109    2.0169 H   0  0  0  0  0  0  0  0  0  0  0  0
    9.5256   -4.8914    0.2115 H   0  0  0  0  0  0  0  0  0  0  0  0
    7.8381   -3.2301   -0.5666 H   0  0  0  0  0  0  0  0  0  0  0  0
  1  2  2  0
  1 33  1  0
  1 34  1  0
  2  3  1  0
  2 35  1  0
  3  4  1  0
  3 36  1  0
  3 37  1  0
  4  5  1  0
  4 38  1  0
  5  6  2  0
  5  7  1  0
  7  8  1  0
  7 39  1  0
  7 40  1  0
  8  9  2  0
  8 32  1  0
  9 10  1  0
  9 41  1  0
 10 11  2  0
 10 42  1  0
 11 12  1  0
 11 31  1  0
 12 13  1  0
 12 21  1  0
 13 14  1  0
 13 43  1  0
 13 44  1  0
 14 15  2  0
 14 20  1  0
 15 16  1  0
 15 45  1  0
 16 17  2  0
 16 46  1  0
 17 18  1  0
 17 47  1  0
 18 19  1  0
 18 20  2  0
 19 48  1  0
 19 49  1  0
 19 50  1  0
 20 51  1  0
 21 22  2  0
 21 23  1  0
 23 24  2  0
 23 52  1  0
 24 25  1  0
 24 53  1  0
 25 26  2  0
 25 30  1  0
 26 27  1  0
 26 54  1  0
 27 28  2  0
 27 55  1  0
 28 29  1  0
 28 56  1  0
 29 30  2  0
 29 57  1  0
 30 58  1  0
 31 32  2  0
 31 59  1  0
 32 60  1  0
M  END

