
     RDKit          3D

 77 84  0  0  0  0  0  0  0  0999 V2000
    1.2551   -2.7762    0.0721 C   0  0  0  0  0  0  0  0  0  0  0  0
    2.5681   -2.0070    0.2374 C   0  0  0  0  0  0  0  0  0  0  0  0
    2.8233   -1.0446   -0.8193 N   0  0  0  0  0  0  0  0  0  0  0  0
    2.3832    0.2758   -0.8364 C   0  0  0  0  0  0  0  0  0  0  0  0
    1.6676    0.9890    0.1344 C   0  0  0  0  0  0  0  0  0  0  0  0
    1.3600    2.3247   -0.1312 C   0  0  0  0  0  0  0  0  0  0  0  0
    1.7494    2.9414   -1.3346 C   0  0  0  0  0  0  0  0  0  0  0  0
    2.4585    2.2275   -2.3010 C   0  0  0  0  0  0  0  0  0  0  0  0
    2.7807    0.8849   -2.0603 C   0  0  0  0  0  0  0  0  0  0  0  0
    3.4870   -0.1334   -2.8150 C   0  0  0  0  0  0  0  0  0  0  0  0
    4.1075   -0.1517   -4.0676 C   0  0  0  0  0  0  0  0  0  0  0  0
    4.7159   -1.3270   -4.5350 C   0  0  0  0  0  0  0  0  0  0  0  0
    5.3856   -1.3883   -5.8633 C   0  0  0  0  0  0  0  0  0  0  0  0
    5.7617   -0.2295   -6.5624 C   0  0  0  0  0  0  0  0  0  0  0  0
    6.3884   -0.3950   -7.8084 C   0  0  0  0  0  0  0  0  0  0  0  0
    6.8273    0.7654   -8.6314 C   0  0  0  0  0  0  0  0  0  0  0  0
    7.7656    0.5642   -9.6733 C   0  0  0  0  0  0  0  0  0  0  0  0
    8.2202    1.6059  -10.4751 C   0  0  0  0  0  0  0  0  0  0  0  0
    7.7176    2.8932  -10.2356 C   0  0  0  0  0  0  0  0  0  0  0  0
    6.7633    3.1233   -9.2051 C   0  0  0  0  0  0  0  0  0  0  0  0
    6.3287    2.0585   -8.4101 C   0  0  0  0  0  0  0  0  0  0  0  0
    6.4503    4.5396   -9.2434 C   0  0  0  0  0  0  0  0  0  0  0  0
    5.6002    5.3696   -8.4998 C   0  0  0  0  0  0  0  0  0  0  0  0
    5.5364    6.7290   -8.8067 C   0  0  0  0  0  0  0  0  0  0  0  0
    6.3142    7.2648   -9.8499 C   0  0  0  0  0  0  0  0  0  0  0  0
    7.1690    6.4610  -10.6065 C   0  0  0  0  0  0  0  0  0  0  0  0
    7.2338    5.0968  -10.2934 C   0  0  0  0  0  0  0  0  0  0  0  0
    8.0017    4.0912  -10.8734 N   0  0  0  0  0  0  0  0  0  0  0  0
    8.8911    4.2553  -12.0091 C   0  0  0  0  0  0  0  0  0  0  0  0
    8.2042    4.0793  -13.3656 C   0  0  0  0  0  0  0  0  0  0  0  0
    6.6298   -1.6169   -8.2974 N   0  0  0  0  0  0  0  0  0  0  0  0
    6.2490   -2.6758   -7.5607 C   0  0  0  0  0  0  0  0  0  0  0  0
    6.5052   -3.9276   -8.0681 N   0  0  0  0  0  0  0  0  0  0  0  0
    7.1101   -4.1319   -9.3779 C   0  0  0  0  0  0  0  0  0  0  0  0
    8.3104   -5.0820   -9.2858 C   0  0  0  0  0  0  0  0  0  0  0  0
    7.9266   -6.3972   -8.5963 C   0  0  0  0  0  0  0  0  0  0  0  0
    7.2562   -6.1256   -7.2437 C   0  0  0  0  0  0  0  0  0  0  0  0
    6.0844   -5.1474   -7.3910 C   0  0  0  0  0  0  0  0  0  0  0  0
    5.6339   -2.6030   -6.3669 N   0  0  0  0  0  0  0  0  0  0  0  0
    4.6803   -2.4849   -3.7198 C   0  0  0  0  0  0  0  0  0  0  0  0
    4.0753   -2.4936   -2.4673 C   0  0  0  0  0  0  0  0  0  0  0  0
    3.4789   -1.3086   -2.0123 C   0  0  0  0  0  0  0  0  0  0  0  0
    1.1207   -3.4872    0.9030 H   0  0  0  0  0  0  0  0  0  0  0  0
    1.2454   -3.3449   -0.8706 H   0  0  0  0  0  0  0  0  0  0  0  0
    0.3928   -2.0917    0.0640 H   0  0  0  0  0  0  0  0  0  0  0  0
    3.4196   -2.7048    0.2725 H   0  0  0  0  0  0  0  0  0  0  0  0
    2.5783   -1.4669    1.1976 H   0  0  0  0  0  0  0  0  0  0  0  0
    1.3532    0.5235    1.0706 H   0  0  0  0  0  0  0  0  0  0  0  0
    0.8025    2.9006    0.6120 H   0  0  0  0  0  0  0  0  0  0  0  0
    1.4914    3.9881   -1.5119 H   0  0  0  0  0  0  0  0  0  0  0  0
    2.7584    2.7096   -3.2351 H   0  0  0  0  0  0  0  0  0  0  0  0
    4.0930    0.7484   -4.6846 H   0  0  0  0  0  0  0  0  0  0  0  0
    5.6197    0.7581   -6.1318 H   0  0  0  0  0  0  0  0  0  0  0  0
    8.1344   -0.4488   -9.8347 H   0  0  0  0  0  0  0  0  0  0  0  0
    8.9456    1.4133  -11.2681 H   0  0  0  0  0  0  0  0  0  0  0  0
    5.5826    2.2397   -7.6344 H   0  0  0  0  0  0  0  0  0  0  0  0
    4.9937    4.9567   -7.6896 H   0  0  0  0  0  0  0  0  0  0  0  0
    4.8762    7.3853   -8.2348 H   0  0  0  0  0  0  0  0  0  0  0  0
    6.2476    8.3321  -10.0764 H   0  0  0  0  0  0  0  0  0  0  0  0
    7.7615    6.8911  -11.4164 H   0  0  0  0  0  0  0  0  0  0  0  0
    9.7158    3.5333  -11.9003 H   0  0  0  0  0  0  0  0  0  0  0  0
    9.3505    5.2541  -11.9383 H   0  0  0  0  0  0  0  0  0  0  0  0
    7.7667    3.0734  -13.4603 H   0  0  0  0  0  0  0  0  0  0  0  0
    8.9302    4.2159  -14.1831 H   0  0  0  0  0  0  0  0  0  0  0  0
    7.3956    4.8145  -13.4991 H   0  0  0  0  0  0  0  0  0  0  0  0
    7.3970   -3.1552   -9.7806 H   0  0  0  0  0  0  0  0  0  0  0  0
    6.3521   -4.5660  -10.0626 H   0  0  0  0  0  0  0  0  0  0  0  0
    9.1147   -4.5842   -8.7156 H   0  0  0  0  0  0  0  0  0  0  0  0
    8.7040   -5.2727  -10.2987 H   0  0  0  0  0  0  0  0  0  0  0  0
    8.8114   -7.0432   -8.4697 H   0  0  0  0  0  0  0  0  0  0  0  0
    7.2236   -6.9542   -9.2439 H   0  0  0  0  0  0  0  0  0  0  0  0
    7.9932   -5.6944   -6.5433 H   0  0  0  0  0  0  0  0  0  0  0  0
    6.8937   -7.0647   -6.7923 H   0  0  0  0  0  0  0  0  0  0  0  0
    5.6615   -4.8732   -6.4192 H   0  0  0  0  0  0  0  0  0  0  0  0
    5.2780   -5.6293   -7.9822 H   0  0  0  0  0  0  0  0  0  0  0  0
    5.1513   -3.3897   -4.1040 H   0  0  0  0  0  0  0  0  0  0  0  0
    4.0686   -3.4050   -1.8662 H   0  0  0  0  0  0  0  0  0  0  0  0
  1  2  1  0
  1 43  1  0
  1 44  1  0
  1 45  1  0
  2  3  1  0
  2 46  1  0
  2 47  1  0
  3  4  1  0
  3 42  1  0
  4  5  2  0
  4  9  1  0
  5  6  1  0
  5 48  1  0
  6  7  2  0
  6 49  1  0
  7  8  1  0
  7 50  1  0
  8  9  2  0
  8 51  1  0
  9 10  1  0
 10 11  1  0
 10 42  2  0
 11 12  2  0
 11 52  1  0
 12 13  1  0
 12 40  1  0
 13 14  2  0
 13 39  1  0
 14 15  1  0
 14 53  1  0
 15 16  1  0
 15 31  2  0
 16 17  2  0
 16 21  1  0
 17 18  1  0
 17 54  1  0
 18 19  2  0
 18 55  1  0
 19 20  1  0
 19 28  1  0
 20 21  2  0
 20 22  1  0
 21 56  1  0
 22 23  2  0
 22 27  1  0
 23 24  1  0
 23 57  1  0
 24 25  2  0
 24 58  1  0
 25 26  1  0
 25 59  1  0
 26 27  2  0
 26 60  1  0
 27 28  1  0
 28 29  1  0
 29 30  1  0
 29 61  1  0
 29 62  1  0
 30 63  1  0
 30 64  1  0
 30 65  1  0
 31 32  1  0
 32 33  1  0
 32 39  2  0
 33 34  1  0
 33 38  1  0
 34 35  1  0
 34 66  1  0
 34 67  1  0
 35 36  1  0
 35 68  1  0
 35 69  1  0
 36 37  1  0
 36 70  1  0
 36 71  1  0
 37 38  1  0
 37 72  1  0
 37 73  1  0
 38 74  1  0
 38 75  1  0
 40 41  2  0
 40 76  1  0
 41 42  1  0
 41 77  1  0
M  END

