
     RDKit          3D

 52 55  0  0  0  0  0  0  0  0999 V2000
    6.9886    0.9429    3.9314 O   0  0  0  0  0  0  0  0  0  0  0  0
    6.4915    1.9816    4.3503 C   0  0  0  0  0  0  0  0  0  0  0  0
    5.2625    2.4231    3.9917 N   0  0  0  0  0  0  0  0  0  0  0  0
    4.4504    1.7202    3.0226 C   0  0  0  0  0  0  0  0  0  0  0  0
    3.5353    2.6785    2.2293 C   0  0  2  0  0  0  0  0  0  0  0  0
    2.9177    2.0107    1.5900 H   0  0  0  0  0  0  0  0  0  0  0  0
    4.3751    3.5329    1.2815 C   0  0  0  0  0  0  0  0  0  0  0  0
    5.0545    4.6804    1.7233 C   0  0  0  0  0  0  0  0  0  0  0  0
    5.8696    5.4124    0.8579 C   0  0  0  0  0  0  0  0  0  0  0  0
    6.0146    4.9974   -0.4692 C   0  0  0  0  0  0  0  0  0  0  0  0
    7.0338    5.9139   -1.5590 Cl  0  0  0  0  0  0  0  0  0  0  0  0
    5.3483    3.8622   -0.9347 C   0  0  0  0  0  0  0  0  0  0  0  0
    4.5344    3.1429   -0.0556 C   0  0  0  0  0  0  0  0  0  0  0  0
    2.7194    3.5117    3.1225 N   0  0  0  0  0  0  0  0  0  0  0  0
    1.7947    4.4233    2.4356 C   0  0  0  0  0  0  0  0  0  0  0  0
    0.5287    3.7322    1.8988 C   0  0  0  0  0  0  0  0  0  0  0  0
   -0.1986    2.9716    3.0162 C   0  0  0  0  0  0  0  0  0  0  0  0
    0.7695    2.0504    3.7715 C   0  0  0  0  0  0  0  0  0  0  0  0
    2.0160    2.8333    4.2178 C   0  0  0  0  0  0  0  0  0  0  0  0
    7.2616    2.8488    5.3260 C   0  0  0  0  0  0  0  0  0  0  0  0
    8.4820    2.3966    5.7320 C   0  0  0  0  0  0  0  0  0  0  0  0
    9.3002    3.1392    6.6469 C   0  0  0  0  0  0  0  0  0  0  0  0
   10.5688    2.7172    7.1009 C   0  0  0  0  0  0  0  0  0  0  0  0
   11.2944    3.5007    7.9887 C   0  0  0  0  0  0  0  0  0  0  0  0
   10.7642    4.7233    8.4399 C   0  0  0  0  0  0  0  0  0  0  0  0
    9.5156    5.1641    8.0083 C   0  0  0  0  0  0  0  0  0  0  0  0
    8.7909    4.3691    7.1141 C   0  0  0  0  0  0  0  0  0  0  0  0
    7.5761    4.8147    6.7041 O   0  0  0  0  0  0  0  0  0  0  0  0
    6.7548    4.1331    5.8279 C   0  0  0  0  0  0  0  0  0  0  0  0
    5.6964    4.6541    5.5536 O   0  0  0  0  0  0  0  0  0  0  0  0
    4.9229    3.2981    4.3922 H   0  0  0  0  0  0  0  0  0  0  0  0
    3.8430    0.9364    3.5106 H   0  0  0  0  0  0  0  0  0  0  0  0
    5.1184    1.1940    2.3261 H   0  0  0  0  0  0  0  0  0  0  0  0
    4.9346    5.0144    2.7554 H   0  0  0  0  0  0  0  0  0  0  0  0
    6.3923    6.3046    1.2070 H   0  0  0  0  0  0  0  0  0  0  0  0
    5.4634    3.5503   -1.9741 H   0  0  0  0  0  0  0  0  0  0  0  0
    4.0110    2.2559   -0.4251 H   0  0  0  0  0  0  0  0  0  0  0  0
    2.3260    4.9391    1.6237 H   0  0  0  0  0  0  0  0  0  0  0  0
    1.4980    5.2019    3.1622 H   0  0  0  0  0  0  0  0  0  0  0  0
    0.8014    3.0331    1.0878 H   0  0  0  0  0  0  0  0  0  0  0  0
   -0.1364    4.4856    1.4433 H   0  0  0  0  0  0  0  0  0  0  0  0
   -1.0504    2.3997    2.6114 H   0  0  0  0  0  0  0  0  0  0  0  0
   -0.6253    3.7018    3.7291 H   0  0  0  0  0  0  0  0  0  0  0  0
    1.0682    1.2066    3.1235 H   0  0  0  0  0  0  0  0  0  0  0  0
    0.2766    1.6046    4.6524 H   0  0  0  0  0  0  0  0  0  0  0  0
    2.7087    2.1863    4.7732 H   0  0  0  0  0  0  0  0  0  0  0  0
    1.7034    3.6191    4.9295 H   0  0  0  0  0  0  0  0  0  0  0  0
    8.8218    1.4381    5.3294 H   0  0  0  0  0  0  0  0  0  0  0  0
   10.9669    1.7653    6.7408 H   0  0  0  0  0  0  0  0  0  0  0  0
   12.2752    3.1702    8.3369 H   0  0  0  0  0  0  0  0  0  0  0  0
   11.3371    5.3381    9.1383 H   0  0  0  0  0  0  0  0  0  0  0  0
    9.0867    6.1090    8.3458 H   0  0  0  0  0  0  0  0  0  0  0  0
  1  2  2  0
  2  3  1  0
  2 20  1  0
  3  4  1  0
  3 31  1  0
  4  5  1  0
  4 32  1  0
  4 33  1  0
  5  6  1  6
  5  7  1  0
  5 14  1  0
  7  8  2  0
  7 13  1  0
  8  9  1  0
  8 34  1  0
  9 10  2  0
  9 35  1  0
 10 11  1  0
 10 12  1  0
 12 13  2  0
 12 36  1  0
 13 37  1  0
 14 15  1  0
 14 19  1  0
 15 16  1  0
 15 38  1  0
 15 39  1  0
 16 17  1  0
 16 40  1  0
 16 41  1  0
 17 18  1  0
 17 42  1  0
 17 43  1  0
 18 19  1  0
 18 44  1  0
 18 45  1  0
 19 46  1  0
 19 47  1  0
 20 21  2  0
 20 29  1  0
 21 22  1  0
 21 48  1  0
 22 23  2  0
 22 27  1  0
 23 24  1  0
 23 49  1  0
 24 25  2  0
 24 50  1  0
 25 26  1  0
 25 51  1  0
 26 27  2  0
 26 52  1  0
 27 28  1  0
 28 29  1  0
 29 30  2  0
M  END

