
     RDKit          3D

 30 31  0  0  0  0  0  0  0  0999 V2000
    1.2632   -0.3395    2.6503 C   0  0  0  0  0  0  0  0  0  0  0  0
    2.5880    0.2233    2.4740 N   0  0  0  0  0  0  0  0  0  0  0  0
    3.2942    0.0124    1.3359 C   0  0  0  0  0  0  0  0  0  0  0  0
    2.8790   -0.6353    0.3907 O   0  0  0  0  0  0  0  0  0  0  0  0
    4.6914    0.6559    1.2654 C   0  0  0  0  0  0  0  0  0  0  0  0
    5.1432    1.3788    2.4332 N   0  0  0  0  0  0  0  0  0  0  0  0
    5.0118    2.7445    2.6382 C   0  0  0  0  0  0  0  0  0  0  0  0
    5.5160    3.0920    3.8669 C   0  0  0  0  0  0  0  0  0  0  0  0
    5.9993    1.8824    4.4772 C   0  0  0  0  0  0  0  0  0  0  0  0
    6.6134    1.5799    5.7080 C   0  0  0  0  0  0  0  0  0  0  0  0
    6.9710    0.2647    5.9999 C   0  0  0  0  0  0  0  0  0  0  0  0
    7.6737   -0.0819    7.2986 C   0  0  0  0  0  0  0  0  0  0  0  0
    7.2632   -1.3150    7.8558 O   0  0  0  0  0  0  0  0  0  0  0  0
    6.6982   -0.7647    5.0634 C   0  0  0  0  0  0  0  0  0  0  0  0
    6.0865   -0.5032    3.8423 C   0  0  0  0  0  0  0  0  0  0  0  0
    5.7476    0.8276    3.5529 C   0  0  0  0  0  0  0  0  0  0  0  0
    0.9107   -0.1235    3.6678 H   0  0  0  0  0  0  0  0  0  0  0  0
    1.2758   -1.4306    2.4981 H   0  0  0  0  0  0  0  0  0  0  0  0
    0.5470    0.0846    1.9272 H   0  0  0  0  0  0  0  0  0  0  0  0
    3.0092    0.7586    3.2233 H   0  0  0  0  0  0  0  0  0  0  0  0
    4.6857    1.3331    0.3979 H   0  0  0  0  0  0  0  0  0  0  0  0
    5.4009   -0.1496    1.0212 H   0  0  0  0  0  0  0  0  0  0  0  0
    4.5640    3.3680    1.8655 H   0  0  0  0  0  0  0  0  0  0  0  0
    5.5512    4.0969    4.2826 H   0  0  0  0  0  0  0  0  0  0  0  0
    6.8096    2.3763    6.4325 H   0  0  0  0  0  0  0  0  0  0  0  0
    7.5553    0.7560    8.0151 H   0  0  0  0  0  0  0  0  0  0  0  0
    8.7583   -0.1902    7.1223 H   0  0  0  0  0  0  0  0  0  0  0  0
    6.3020   -1.2859    7.9574 H   0  0  0  0  0  0  0  0  0  0  0  0
    6.9716   -1.7890    5.3262 H   0  0  0  0  0  0  0  0  0  0  0  0
    5.8785   -1.3137    3.1403 H   0  0  0  0  0  0  0  0  0  0  0  0
  1  2  1  0
  1 17  1  0
  1 18  1  0
  1 19  1  0
  2  3  1  0
  2 20  1  0
  3  4  2  0
  3  5  1  0
  5  6  1  0
  5 21  1  0
  5 22  1  0
  6  7  1  0
  6 16  1  0
  7  8  2  0
  7 23  1  0
  8  9  1  0
  8 24  1  0
  9 10  1  0
  9 16  2  0
 10 11  2  0
 10 25  1  0
 11 12  1  0
 11 14  1  0
 12 13  1  0
 12 26  1  0
 12 27  1  0
 13 28  1  0
 14 15  2  0
 14 29  1  0
 15 16  1  0
 15 30  1  0
M  END

