
     RDKit          3D

 35 37  0  0  0  0  0  0  0  0999 V2000
    1.2303   -0.2329    0.5150 O   0  0  0  0  0  0  0  0  0  0  0  0
    2.4035   -0.1544    0.2000 C   0  0  0  0  0  0  0  0  0  0  0  0
    3.1699   -1.3503   -0.2561 C   0  0  0  0  0  0  0  0  0  0  0  0
    2.5369   -2.6058   -0.2191 C   0  0  0  0  0  0  0  0  0  0  0  0
    3.1969   -3.7545   -0.6321 C   0  0  0  0  0  0  0  0  0  0  0  0
    4.5186   -3.6607   -1.1055 C   0  0  0  0  0  0  0  0  0  0  0  0
    5.2153   -4.7403   -1.5290 O   0  0  0  0  0  0  0  0  0  0  0  0
    5.1559   -2.4138   -1.1569 C   0  0  0  0  0  0  0  0  0  0  0  0
    4.4974   -1.2563   -0.7346 C   0  0  0  0  0  0  0  0  0  0  0  0
    5.1946    0.0851   -0.7801 C   0  0  0  0  0  0  0  0  0  0  0  0
    4.2097    1.2531   -0.8542 C   0  0  0  0  0  0  0  0  0  0  0  0
    3.1663    1.1731    0.2721 C   0  0  1  0  0  0  0  0  0  0  0  0
    2.2276    2.3945    0.2958 C   0  0  0  0  0  0  0  0  0  0  0  0
    1.3864    2.5643    1.5454 C   0  0  0  0  0  0  0  0  0  0  0  0
    2.0218    2.6771    2.7957 C   0  0  0  0  0  0  0  0  0  0  0  0
    1.3118    2.8588    3.9822 C   0  0  0  0  0  0  0  0  0  0  0  0
   -0.0819    2.9433    3.9469 C   0  0  0  0  0  0  0  0  0  0  0  0
   -0.7455    2.8531    2.7230 C   0  0  0  0  0  0  0  0  0  0  0  0
   -0.0164    2.6697    1.5430 C   0  0  0  0  0  0  0  0  0  0  0  0
   -1.0259    2.5820   -0.0838 Br  0  0  0  0  0  0  0  0  0  0  0  0
    1.5088   -2.6475    0.1464 H   0  0  0  0  0  0  0  0  0  0  0  0
    2.6976   -4.7280   -0.5960 H   0  0  0  0  0  0  0  0  0  0  0  0
    4.6662   -5.5323   -1.4540 H   0  0  0  0  0  0  0  0  0  0  0  0
    6.1775   -2.3692   -1.5415 H   0  0  0  0  0  0  0  0  0  0  0  0
    5.8989    0.1113   -1.6270 H   0  0  0  0  0  0  0  0  0  0  0  0
    5.8133    0.1931    0.1316 H   0  0  0  0  0  0  0  0  0  0  0  0
    3.6947    1.2478   -1.8318 H   0  0  0  0  0  0  0  0  0  0  0  0
    4.7539    2.2095   -0.7914 H   0  0  0  0  0  0  0  0  0  0  0  0
    3.7266    1.1309    1.2277 H   0  0  0  0  0  0  0  0  0  0  0  0
    1.5769    2.3615   -0.5883 H   0  0  0  0  0  0  0  0  0  0  0  0
    2.8569    3.2956    0.1872 H   0  0  0  0  0  0  0  0  0  0  0  0
    3.1138    2.6232    2.8347 H   0  0  0  0  0  0  0  0  0  0  0  0
    1.8471    2.9381    4.9316 H   0  0  0  0  0  0  0  0  0  0  0  0
   -0.6560    3.0839    4.8660 H   0  0  0  0  0  0  0  0  0  0  0  0
   -1.8333    2.9237    2.6763 H   0  0  0  0  0  0  0  0  0  0  0  0
  1  2  2  0
  2  3  1  0
  2 12  1  0
  3  4  1  0
  3  9  2  0
  4  5  2  0
  4 21  1  0
  5  6  1  0
  5 22  1  0
  6  7  1  0
  6  8  2  0
  7 23  1  0
  8  9  1  0
  8 24  1  0
  9 10  1  0
 10 11  1  0
 10 25  1  0
 10 26  1  0
 11 12  1  0
 11 27  1  0
 11 28  1  0
 12 13  1  0
 12 29  1  1
 13 14  1  0
 13 30  1  0
 13 31  1  0
 14 15  2  0
 14 19  1  0
 15 16  1  0
 15 32  1  0
 16 17  2  0
 16 33  1  0
 17 18  1  0
 17 34  1  0
 18 19  2  0
 18 35  1  0
 19 20  1  0
M  END

