
     RDKit          3D

 37 38  0  0  0  0  0  0  0  0999 V2000
    1.6103    1.1470   -0.3240 C   0  0  0  0  0  0  0  0  0  0  0  0
    2.0107   -0.0663    0.9704 S   0  0  0  0  0  0  0  0  0  0  0  0
    3.2671    0.7835    1.8726 C   0  0  0  0  0  0  0  0  0  0  0  0
    3.6534    2.0064    1.4939 N   0  0  0  0  0  0  0  0  0  0  0  0
    4.6016    2.5802    2.2239 C   0  0  0  0  0  0  0  0  0  0  0  0
    5.1900    1.9616    3.3389 C   0  0  0  0  0  0  0  0  0  0  0  0
    6.4118    2.8362    4.1985 Cl  0  0  0  0  0  0  0  0  0  0  0  0
    4.7194    0.6729    3.6593 C   0  0  0  0  0  0  0  0  0  0  0  0
    5.2371   -0.1635    4.8262 C   0  0  0  0  0  0  0  0  0  0  0  0
    6.1579    0.2003    5.5407 O   0  0  0  0  0  0  0  0  0  0  0  0
    4.5648   -1.3310    4.9775 N   0  0  0  0  0  0  0  0  0  0  0  0
    4.9243   -2.2892    6.0026 C   0  0  0  0  0  0  0  0  0  0  0  0
    6.0315   -3.2780    5.5711 C   0  0  0  0  0  0  0  0  0  0  0  0
    6.5075   -4.1339    6.7249 C   0  0  0  0  0  0  0  0  0  0  0  0
    5.8822   -5.3644    6.9781 C   0  0  0  0  0  0  0  0  0  0  0  0
    6.2518   -6.1639    8.0621 C   0  0  0  0  0  0  0  0  0  0  0  0
    7.2665   -5.7300    8.9169 C   0  0  0  0  0  0  0  0  0  0  0  0
    7.8985   -4.5080    8.6739 C   0  0  0  0  0  0  0  0  0  0  0  0
    7.5398   -3.6931    7.5884 C   0  0  0  0  0  0  0  0  0  0  0  0
    8.2789   -2.3965    7.3440 C   0  0  0  0  0  0  0  0  0  0  0  0
    3.7612    0.1122    2.9140 N   0  0  0  0  0  0  0  0  0  0  0  0
    0.8236    0.6800   -0.9330 H   0  0  0  0  0  0  0  0  0  0  0  0
    2.4894    1.3605   -0.9459 H   0  0  0  0  0  0  0  0  0  0  0  0
    1.2389    2.0814    0.1166 H   0  0  0  0  0  0  0  0  0  0  0  0
    4.9317    3.5835    1.9326 H   0  0  0  0  0  0  0  0  0  0  0  0
    3.8554   -1.5375    4.2800 H   0  0  0  0  0  0  0  0  0  0  0  0
    4.0210   -2.8454    6.2981 H   0  0  0  0  0  0  0  0  0  0  0  0
    5.2634   -1.7241    6.8829 H   0  0  0  0  0  0  0  0  0  0  0  0
    6.8628   -2.6970    5.1456 H   0  0  0  0  0  0  0  0  0  0  0  0
    5.6425   -3.9180    4.7618 H   0  0  0  0  0  0  0  0  0  0  0  0
    5.0898   -5.7046    6.3039 H   0  0  0  0  0  0  0  0  0  0  0  0
    5.7507   -7.1198    8.2354 H   0  0  0  0  0  0  0  0  0  0  0  0
    7.5695   -6.3412    9.7711 H   0  0  0  0  0  0  0  0  0  0  0  0
    8.6964   -4.1734    9.3432 H   0  0  0  0  0  0  0  0  0  0  0  0
    8.9135   -2.1389    8.2046 H   0  0  0  0  0  0  0  0  0  0  0  0
    7.6089   -1.5455    7.1469 H   0  0  0  0  0  0  0  0  0  0  0  0
    8.9406   -2.4789    6.4634 H   0  0  0  0  0  0  0  0  0  0  0  0
  1  2  1  0
  1 22  1  0
  1 23  1  0
  1 24  1  0
  2  3  1  0
  3  4  2  0
  3 21  1  0
  4  5  1  0
  5  6  2  0
  5 25  1  0
  6  7  1  0
  6  8  1  0
  8  9  1  0
  8 21  2  0
  9 10  2  0
  9 11  1  0
 11 12  1  0
 11 26  1  0
 12 13  1  0
 12 27  1  0
 12 28  1  0
 13 14  1  0
 13 29  1  0
 13 30  1  0
 14 15  2  0
 14 19  1  0
 15 16  1  0
 15 31  1  0
 16 17  2  0
 16 32  1  0
 17 18  1  0
 17 33  1  0
 18 19  2  0
 18 34  1  0
 19 20  1  0
 20 35  1  0
 20 36  1  0
 20 37  1  0
M  END

