
     RDKit          3D

 53 57  0  0  0  0  0  0  0  0999 V2000
    3.1221    0.8979   -0.5184 N   0  0  0  0  0  0  0  0  0  0  0  0
    2.5207   -0.4047   -0.2627 C   0  0  0  0  0  0  0  0  0  0  0  0
    2.8618   -0.9402    1.1173 C   0  0  0  0  0  0  0  0  0  0  0  0
    3.1007   -0.0683    2.1894 C   0  0  0  0  0  0  0  0  0  0  0  0
    3.3697   -0.5794    3.4612 C   0  0  0  0  0  0  0  0  0  0  0  0
    3.3979   -1.9573    3.6801 C   0  0  0  0  0  0  0  0  0  0  0  0
    3.1610   -2.8532    2.6208 C   0  0  0  0  0  0  0  0  0  0  0  0
    3.1735   -4.3195    2.8595 C   0  0  0  0  0  0  0  0  0  0  0  0
    2.6847   -4.8820    4.0487 C   0  0  0  0  0  0  0  0  0  0  0  0
    2.6987   -6.2694    4.3135 C   0  0  0  0  0  0  0  0  0  0  0  0
    2.1033   -6.7851    5.5949 C   0  0  0  0  0  0  0  0  0  0  0  0
    0.6720   -6.9038    5.4185 O   0  0  0  0  0  0  0  0  0  0  0  0
   -0.1557   -7.0804    6.4957 C   0  0  0  0  0  0  0  0  0  0  0  0
   -1.4746   -6.6031    6.3809 C   0  0  0  0  0  0  0  0  0  0  0  0
   -1.9091   -5.8718    5.1264 C   0  0  0  0  0  0  0  0  0  0  0  0
   -2.2159   -6.7849    3.9270 C   0  0  0  0  0  0  0  0  0  0  0  0
   -3.3010   -6.8486    3.4140 O   0  0  0  0  0  0  0  0  0  0  0  0
   -1.1818   -7.5093    3.4708 O   0  0  0  0  0  0  0  0  0  0  0  0
   -2.3887   -6.8183    7.4368 C   0  0  0  0  0  0  0  0  0  0  0  0
   -2.0382   -7.4767    8.6109 C   0  0  0  0  0  0  0  0  0  0  0  0
   -0.7222   -7.9515    8.7343 C   0  0  0  0  0  0  0  0  0  0  0  0
    0.0213   -8.6789    9.7386 C   0  0  0  0  0  0  0  0  0  0  0  0
    1.2680   -8.8587    9.2301 C   0  0  0  0  0  0  0  0  0  0  0  0
    1.3972   -8.3115    7.9827 O   0  0  0  0  0  0  0  0  0  0  0  0
    0.1883   -7.7537    7.6758 C   0  0  0  0  0  0  0  0  0  0  0  0
    3.2161   -7.1626    3.3730 C   0  0  0  0  0  0  0  0  0  0  0  0
    3.7169   -6.6475    2.1672 C   0  0  0  0  0  0  0  0  0  0  0  0
    4.3313   -7.2145    0.9894 C   0  0  0  0  0  0  0  0  0  0  0  0
    4.6072   -6.1636    0.1733 C   0  0  0  0  0  0  0  0  0  0  0  0
    4.2256   -4.9731    0.7234 O   0  0  0  0  0  0  0  0  0  0  0  0
    3.6786   -5.2554    1.9392 C   0  0  0  0  0  0  0  0  0  0  0  0
    2.9046   -2.3215    1.3438 C   0  0  0  0  0  0  0  0  0  0  0  0
    2.7766    1.2875   -1.3943 H   0  0  0  0  0  0  0  0  0  0  0  0
    4.1351    0.8128   -0.6110 H   0  0  0  0  0  0  0  0  0  0  0  0
    2.7734   -1.1856   -1.0113 H   0  0  0  0  0  0  0  0  0  0  0  0
    1.4234   -0.2801   -0.3246 H   0  0  0  0  0  0  0  0  0  0  0  0
    3.0832    1.0073    2.0037 H   0  0  0  0  0  0  0  0  0  0  0  0
    3.5671    0.1038    4.2917 H   0  0  0  0  0  0  0  0  0  0  0  0
    3.6340   -2.3429    4.6745 H   0  0  0  0  0  0  0  0  0  0  0  0
    2.2544   -4.2137    4.7983 H   0  0  0  0  0  0  0  0  0  0  0  0
    2.2915   -6.0935    6.4318 H   0  0  0  0  0  0  0  0  0  0  0  0
    2.5188   -7.7676    5.8595 H   0  0  0  0  0  0  0  0  0  0  0  0
   -1.1189   -5.1669    4.8161 H   0  0  0  0  0  0  0  0  0  0  0  0
   -2.8243   -5.2994    5.3196 H   0  0  0  0  0  0  0  0  0  0  0  0
   -0.3734   -7.3272    3.9907 H   0  0  0  0  0  0  0  0  0  0  0  0
   -3.4068   -6.4400    7.3168 H   0  0  0  0  0  0  0  0  0  0  0  0
   -2.7676   -7.6219    9.4102 H   0  0  0  0  0  0  0  0  0  0  0  0
   -0.3362   -9.0210   10.7072 H   0  0  0  0  0  0  0  0  0  0  0  0
    2.1586   -9.3464    9.6187 H   0  0  0  0  0  0  0  0  0  0  0  0
    3.2291   -8.2371    3.5725 H   0  0  0  0  0  0  0  0  0  0  0  0
    4.5350   -8.2633    0.7856 H   0  0  0  0  0  0  0  0  0  0  0  0
    5.0625   -6.0980   -0.8120 H   0  0  0  0  0  0  0  0  0  0  0  0
    2.7274   -3.0014    0.5081 H   0  0  0  0  0  0  0  0  0  0  0  0
  1  2  1  0
  1 33  1  0
  1 34  1  0
  2  3  1  0
  2 35  1  0
  2 36  1  0
  3  4  2  0
  3 32  1  0
  4  5  1  0
  4 37  1  0
  5  6  2  0
  5 38  1  0
  6  7  1  0
  6 39  1  0
  7  8  1  0
  7 32  2  0
  8  9  2  0
  8 31  1  0
  9 10  1  0
  9 40  1  0
 10 11  1  0
 10 26  2  0
 11 12  1  0
 11 41  1  0
 11 42  1  0
 12 13  1  0
 13 14  2  0
 13 25  1  0
 14 15  1  0
 14 19  1  0
 15 16  1  0
 15 43  1  0
 15 44  1  0
 16 17  2  0
 16 18  1  0
 18 45  1  0
 19 20  2  0
 19 46  1  0
 20 21  1  0
 20 47  1  0
 21 22  1  0
 21 25  2  0
 22 23  2  0
 22 48  1  0
 23 24  1  0
 23 49  1  0
 24 25  1  0
 26 27  1  0
 26 50  1  0
 27 28  1  0
 27 31  2  0
 28 29  2  0
 28 51  1  0
 29 30  1  0
 29 52  1  0
 30 31  1  0
 32 53  1  0
M  END

