
     RDKit          3D

 57 61  0  0  0  0  0  0  0  0999 V2000
    1.3317   -0.0018    0.0844 C   0  0  0  0  0  0  0  0  0  0  0  0
    2.7468   -0.1374    0.3338 N   0  0  0  0  0  0  0  0  0  0  0  0
    3.4957    0.9431    0.6623 N   0  0  0  0  0  0  0  0  0  0  0  0
    4.7311    0.5144    0.8390 C   0  0  0  0  0  0  0  0  0  0  0  0
    4.8216   -0.8978    0.6288 C   0  0  0  0  0  0  0  0  0  0  0  0
    5.8301   -1.8790    0.6358 C   0  0  0  0  0  0  0  0  0  0  0  0
    5.5068   -3.1997    0.3537 C   0  0  0  0  0  0  0  0  0  0  0  0
    6.5497   -4.1623    0.3058 N   0  0  0  0  0  0  0  0  0  0  0  0
    6.9286   -4.8650   -0.8038 C   0  0  0  0  0  0  0  0  0  0  0  0
    6.3906   -4.8140   -1.8957 O   0  0  0  0  0  0  0  0  0  0  0  0
    8.1349   -5.7547   -0.5541 C   0  0  0  0  0  0  0  0  0  0  0  0
    8.6204   -6.5322   -1.6109 C   0  0  0  0  0  0  0  0  0  0  0  0
    9.7345   -7.3364   -1.3673 C   0  0  0  0  0  0  0  0  0  0  0  0
   10.3128   -7.3331   -0.1001 C   0  0  0  0  0  0  0  0  0  0  0  0
    9.7620   -6.5165    0.9087 C   0  0  0  0  0  0  0  0  0  0  0  0
   10.3323   -6.4753    2.2605 C   0  0  0  0  0  0  0  0  0  0  0  0
   11.4719   -7.1524    2.7873 C   0  0  0  0  0  0  0  0  0  0  0  0
   11.6752   -6.8620    4.0654 N   0  0  0  0  0  0  0  0  0  0  0  0
   10.6875   -6.0091    4.3787 N   0  0  0  0  0  0  0  0  0  0  0  0
   10.6316   -5.6416    5.3213 H   0  0  0  0  0  0  0  0  0  0  0  0
    9.8573   -5.7414    3.3438 C   0  0  0  0  0  0  0  0  0  0  0  0
    8.6884   -5.7462    0.6628 N   0  0  0  0  0  0  0  0  0  0  0  0
    4.1445   -3.5968    0.0886 C   0  0  0  0  0  0  0  0  0  0  0  0
    3.8553   -4.9529   -0.1386 N   0  0  0  0  0  0  0  0  0  0  0  0
    2.7249   -5.2864   -0.9895 C   0  0  0  0  0  0  0  0  0  0  0  0
    2.8816   -6.7025   -1.5572 C   0  0  0  0  0  0  0  0  0  0  0  0
    3.0906   -7.7681   -0.4666 C   0  0  2  0  0  0  0  0  0  0  0  0
    1.7894   -8.1178    0.2742 C   0  0  0  0  0  0  0  0  0  0  0  0
    1.9594   -9.1188    1.2582 O   0  0  0  0  0  0  0  0  0  0  0  0
    4.2156   -7.3222    0.4850 C   0  0  0  0  0  0  0  0  0  0  0  0
    4.0367   -5.8842    0.9774 C   0  0  0  0  0  0  0  0  0  0  0  0
    3.1470   -2.6173    0.0380 C   0  0  0  0  0  0  0  0  0  0  0  0
    3.4980   -1.2822    0.2998 C   0  0  0  0  0  0  0  0  0  0  0  0
    1.0804    1.0613    0.1801 H   0  0  0  0  0  0  0  0  0  0  0  0
    0.7382   -0.5794    0.8134 H   0  0  0  0  0  0  0  0  0  0  0  0
    1.0722   -0.3442   -0.9313 H   0  0  0  0  0  0  0  0  0  0  0  0
    5.5200    1.2172    1.1070 H   0  0  0  0  0  0  0  0  0  0  0  0
    6.8743   -1.6129    0.8177 H   0  0  0  0  0  0  0  0  0  0  0  0
    7.1922   -4.2537    1.0900 H   0  0  0  0  0  0  0  0  0  0  0  0
    8.1201   -6.4824   -2.5782 H   0  0  0  0  0  0  0  0  0  0  0  0
   10.1518   -7.9630   -2.1597 H   0  0  0  0  0  0  0  0  0  0  0  0
   11.1830   -7.9560    0.1123 H   0  0  0  0  0  0  0  0  0  0  0  0
   12.1500   -7.8375    2.2795 H   0  0  0  0  0  0  0  0  0  0  0  0
    9.0056   -5.0724    3.4313 H   0  0  0  0  0  0  0  0  0  0  0  0
    2.6919   -4.5662   -1.8201 H   0  0  0  0  0  0  0  0  0  0  0  0
    1.7553   -5.1975   -0.4471 H   0  0  0  0  0  0  0  0  0  0  0  0
    3.7591   -6.6972   -2.2233 H   0  0  0  0  0  0  0  0  0  0  0  0
    2.0004   -6.9468   -2.1759 H   0  0  0  0  0  0  0  0  0  0  0  0
    3.4178   -8.7007   -0.9664 H   0  0  0  0  0  0  0  0  0  0  0  0
    1.0201   -8.4087   -0.4710 H   0  0  0  0  0  0  0  0  0  0  0  0
    1.3898   -7.2413    0.8087 H   0  0  0  0  0  0  0  0  0  0  0  0
    2.2873   -9.9158    0.8202 H   0  0  0  0  0  0  0  0  0  0  0  0
    5.1805   -7.3940   -0.0431 H   0  0  0  0  0  0  0  0  0  0  0  0
    4.2565   -8.0024    1.3502 H   0  0  0  0  0  0  0  0  0  0  0  0
    4.9195   -5.5825    1.5554 H   0  0  0  0  0  0  0  0  0  0  0  0
    3.1684   -5.8213    1.6712 H   0  0  0  0  0  0  0  0  0  0  0  0
    2.1122   -2.8938   -0.1622 H   0  0  0  0  0  0  0  0  0  0  0  0
  1  2  1  0
  1 34  1  0
  1 35  1  0
  1 36  1  0
  2  3  1  0
  2 33  1  0
  3  4  2  0
  4  5  1  0
  4 37  1  0
  5  6  1  0
  5 33  2  0
  6  7  2  0
  6 38  1  0
  7  8  1  0
  7 23  1  0
  8  9  1  0
  8 39  1  0
  9 10  2  0
  9 11  1  0
 11 12  2  0
 11 22  1  0
 12 13  1  0
 12 40  1  0
 13 14  2  0
 13 41  1  0
 14 15  1  0
 14 42  1  0
 15 16  1  0
 15 22  2  0
 16 17  1  0
 16 21  2  0
 17 18  2  0
 17 43  1  0
 18 19  1  0
 19 20  1  0
 19 21  1  0
 21 44  1  0
 23 24  1  0
 23 32  2  0
 24 25  1  0
 24 31  1  0
 25 26  1  0
 25 45  1  0
 25 46  1  0
 26 27  1  0
 26 47  1  0
 26 48  1  0
 27 28  1  0
 27 30  1  0
 27 49  1  6
 28 29  1  0
 28 50  1  0
 28 51  1  0
 29 52  1  0
 30 31  1  0
 30 53  1  0
 30 54  1  0
 31 55  1  0
 31 56  1  0
 32 33  1  0
 32 57  1  0
M  END

