
     RDKit          3D

 55 58  0  0  0  0  0  0  0  0999 V2000
    2.8164   -1.6340   -0.7961 C   0  0  0  0  0  0  0  0  0  0  0  0
    2.6574   -0.5506   -1.8814 C   0  0  1  0  0  0  0  0  0  0  0  0
    1.2724   -0.1754   -2.0734 N   0  0  0  0  0  0  0  0  0  0  0  0
    0.4236   -0.9156   -2.8382 C   0  0  0  0  0  0  0  0  0  0  0  0
    0.7721   -1.9701   -3.3582 O   0  0  0  0  0  0  0  0  0  0  0  0
   -0.9745   -0.3761   -3.0024 C   0  0  0  0  0  0  0  0  0  0  0  0
   -1.3289    0.9579   -2.7429 C   0  0  0  0  0  0  0  0  0  0  0  0
   -2.6449    1.3883   -2.9302 C   0  0  0  0  0  0  0  0  0  0  0  0
   -3.6192    0.4911   -3.3782 C   0  0  0  0  0  0  0  0  0  0  0  0
   -3.2709   -0.8368   -3.6488 C   0  0  0  0  0  0  0  0  0  0  0  0
   -1.9555   -1.2652   -3.4681 C   0  0  0  0  0  0  0  0  0  0  0  0
    3.4110    0.7355   -1.4914 C   0  0  0  0  0  0  0  0  0  0  0  0
    2.7770    1.6605   -0.9826 O   0  0  0  0  0  0  0  0  0  0  0  0
    4.7627    0.7883   -1.6676 N   0  0  0  0  0  0  0  0  0  0  0  0
    5.5868   -0.2191   -2.3452 C   0  0  0  0  0  0  0  0  0  0  0  0
    6.2034    0.3463   -3.6291 C   0  0  0  0  0  0  0  0  0  0  0  0
    7.0007    1.6214   -3.3355 C   0  0  0  0  0  0  0  0  0  0  0  0
    6.1503    2.6359   -2.5610 C   0  0  0  0  0  0  0  0  0  0  0  0
    5.4756    2.0374   -1.3101 C   0  0  2  0  0  0  0  0  0  0  0  0
    6.4335    1.8212   -0.1651 C   0  0  0  0  0  0  0  0  0  0  0  0
    7.7446    1.8847   -0.2286 N   0  0  0  0  0  0  0  0  0  0  0  0
    8.2484    1.6687    1.0244 N   0  0  0  0  0  0  0  0  0  0  0  0
    7.2307    1.4741    1.8294 C   0  0  0  0  0  0  0  0  0  0  0  0
    6.0498    1.5613    1.1323 N   0  0  0  0  0  0  0  0  0  0  0  0
    4.7211    1.3031    1.6891 C   0  0  0  0  0  0  0  0  0  0  0  0
    4.7485    1.4634    3.2099 C   0  0  0  0  0  0  0  0  0  0  0  0
    5.9286    0.7014    3.8268 C   0  0  0  0  0  0  0  0  0  0  0  0
    7.2648    1.2585    3.3119 C   0  0  0  0  0  0  0  0  0  0  0  0
    2.2382   -2.5207   -1.0919 H   0  0  0  0  0  0  0  0  0  0  0  0
    2.4330   -1.2641    0.1677 H   0  0  0  0  0  0  0  0  0  0  0  0
    3.8679   -1.9320   -0.6631 H   0  0  0  0  0  0  0  0  0  0  0  0
    3.0198   -0.9596   -2.8360 H   0  0  0  0  0  0  0  0  0  0  0  0
    0.9856    0.6707   -1.5912 H   0  0  0  0  0  0  0  0  0  0  0  0
   -0.5770    1.6819   -2.4187 H   0  0  0  0  0  0  0  0  0  0  0  0
   -2.9081    2.4304   -2.7321 H   0  0  0  0  0  0  0  0  0  0  0  0
   -4.6487    0.8289   -3.5226 H   0  0  0  0  0  0  0  0  0  0  0  0
   -4.0285   -1.5393   -4.0054 H   0  0  0  0  0  0  0  0  0  0  0  0
   -1.6557   -2.2922   -3.6849 H   0  0  0  0  0  0  0  0  0  0  0  0
    4.9872   -1.1098   -2.5590 H   0  0  0  0  0  0  0  0  0  0  0  0
    6.3911   -0.5303   -1.6553 H   0  0  0  0  0  0  0  0  0  0  0  0
    5.3925    0.5567   -4.3496 H   0  0  0  0  0  0  0  0  0  0  0  0
    6.8481   -0.4223   -4.0866 H   0  0  0  0  0  0  0  0  0  0  0  0
    7.3544    2.0747   -4.2758 H   0  0  0  0  0  0  0  0  0  0  0  0
    7.8915    1.3764   -2.7370 H   0  0  0  0  0  0  0  0  0  0  0  0
    5.3435    3.0165   -3.2109 H   0  0  0  0  0  0  0  0  0  0  0  0
    6.7623    3.4975   -2.2567 H   0  0  0  0  0  0  0  0  0  0  0  0
    4.6896    2.7255   -0.9720 H   0  0  0  0  0  0  0  0  0  0  0  0
    4.4232    0.2732    1.4258 H   0  0  0  0  0  0  0  0  0  0  0  0
    3.9893    1.9724    1.2150 H   0  0  0  0  0  0  0  0  0  0  0  0
    3.7903    1.1029    3.6161 H   0  0  0  0  0  0  0  0  0  0  0  0
    4.8211    2.5345    3.4691 H   0  0  0  0  0  0  0  0  0  0  0  0
    5.8437   -0.3697    3.5695 H   0  0  0  0  0  0  0  0  0  0  0  0
    5.8951    0.7636    4.9253 H   0  0  0  0  0  0  0  0  0  0  0  0
    8.1103    0.5993    3.5601 H   0  0  0  0  0  0  0  0  0  0  0  0
    7.4770    2.2266    3.8009 H   0  0  0  0  0  0  0  0  0  0  0  0
  1  2  1  0
  1 29  1  0
  1 30  1  0
  1 31  1  0
  2  3  1  0
  2 12  1  0
  2 32  1  6
  3  4  1  0
  3 33  1  0
  4  5  2  0
  4  6  1  0
  6  7  2  0
  6 11  1  0
  7  8  1  0
  7 34  1  0
  8  9  2  0
  8 35  1  0
  9 10  1  0
  9 36  1  0
 10 11  2  0
 10 37  1  0
 11 38  1  0
 12 13  2  0
 12 14  1  0
 14 15  1  0
 14 19  1  0
 15 16  1  0
 15 39  1  0
 15 40  1  0
 16 17  1  0
 16 41  1  0
 16 42  1  0
 17 18  1  0
 17 43  1  0
 17 44  1  0
 18 19  1  0
 18 45  1  0
 18 46  1  0
 19 20  1  0
 19 47  1  1
 20 21  2  0
 20 24  1  0
 21 22  1  0
 22 23  2  0
 23 24  1  0
 23 28  1  0
 24 25  1  0
 25 26  1  0
 25 48  1  0
 25 49  1  0
 26 27  1  0
 26 50  1  0
 26 51  1  0
 27 28  1  0
 27 52  1  0
 27 53  1  0
 28 54  1  0
 28 55  1  0
M  END

