
     RDKit          3D

 41 42  0  0  0  0  0  0  0  0999 V2000
    2.3670    1.4355    0.3448 C   0  0  0  0  0  0  0  0  0  0  0  0
    2.9911    0.1047   -0.1077 C   0  0  1  0  0  0  0  0  0  0  0  0
    4.3706    0.3210   -0.7524 C   0  0  0  0  0  0  0  0  0  0  0  0
    3.0538   -0.8950    1.0208 C   0  0  0  0  0  0  0  0  0  0  0  0
    3.7598   -0.8198    2.2427 C   0  0  0  0  0  0  0  0  0  0  0  0
    3.4742   -2.0148    2.9061 C   0  0  0  0  0  0  0  0  0  0  0  0
    3.9535   -2.5242    4.2178 C   0  0  0  0  0  0  0  0  0  0  0  0
    3.9333   -3.7060    4.5278 O   0  0  0  0  0  0  0  0  0  0  0  0
    4.4298   -1.5259    5.0457 N   0  0  0  0  0  0  0  0  0  0  0  0
    5.0196   -1.6417    6.3131 C   0  0  0  0  0  0  0  0  0  0  0  0
    5.2389   -2.8688    6.9673 C   0  0  0  0  0  0  0  0  0  0  0  0
    5.8400   -2.8837    8.2265 C   0  0  0  0  0  0  0  0  0  0  0  0
    6.2457   -1.7147    8.8876 C   0  0  0  0  0  0  0  0  0  0  0  0
    6.8986   -1.7345   10.2523 C   0  0  0  0  0  0  0  0  0  0  0  0
    5.9538   -1.3878   11.4140 C   0  0  0  0  0  0  0  0  0  0  0  0
    5.7008   -2.1498   12.3049 O   0  0  0  0  0  0  0  0  0  0  0  0
    5.4196   -0.1507   11.3843 O   0  0  0  0  0  0  0  0  0  0  0  0
    6.0022   -0.5214    8.2044 C   0  0  0  0  0  0  0  0  0  0  0  0
    6.3568    0.6479    8.8081 F   0  0  0  0  0  0  0  0  0  0  0  0
    5.4110   -0.4510    6.9540 C   0  0  0  0  0  0  0  0  0  0  0  0
    2.6443   -2.7187    2.0744 N   0  0  0  0  0  0  0  0  0  0  0  0
    2.0405   -4.0314    2.2529 C   0  0  0  0  0  0  0  0  0  0  0  0
    2.3867   -2.0502    0.9480 N   0  0  0  0  0  0  0  0  0  0  0  0
    2.2729    2.1316   -0.5045 H   0  0  0  0  0  0  0  0  0  0  0  0
    2.9885    1.9296    1.1109 H   0  0  0  0  0  0  0  0  0  0  0  0
    1.3640    1.2827    0.7727 H   0  0  0  0  0  0  0  0  0  0  0  0
    2.3266   -0.3480   -0.8619 H   0  0  0  0  0  0  0  0  0  0  0  0
    5.0832    0.7638   -0.0360 H   0  0  0  0  0  0  0  0  0  0  0  0
    4.2964    1.0061   -1.6126 H   0  0  0  0  0  0  0  0  0  0  0  0
    4.7992   -0.6285   -1.1088 H   0  0  0  0  0  0  0  0  0  0  0  0
    4.4214   -0.0216    2.5738 H   0  0  0  0  0  0  0  0  0  0  0  0
    4.3031   -0.5786    4.7107 H   0  0  0  0  0  0  0  0  0  0  0  0
    4.9346   -3.7930    6.4840 H   0  0  0  0  0  0  0  0  0  0  0  0
    6.0054   -3.8463    8.7173 H   0  0  0  0  0  0  0  0  0  0  0  0
    7.7421   -1.0225   10.2754 H   0  0  0  0  0  0  0  0  0  0  0  0
    7.2960   -2.7340   10.4661 H   0  0  0  0  0  0  0  0  0  0  0  0
    5.7338    0.3505   10.6147 H   0  0  0  0  0  0  0  0  0  0  0  0
    5.2611    0.5286    6.4950 H   0  0  0  0  0  0  0  0  0  0  0  0
    2.2220   -4.3787    3.2737 H   0  0  0  0  0  0  0  0  0  0  0  0
    2.4898   -4.7452    1.5456 H   0  0  0  0  0  0  0  0  0  0  0  0
    0.9641   -3.9565    2.0450 H   0  0  0  0  0  0  0  0  0  0  0  0
  1  2  1  0
  1 24  1  0
  1 25  1  0
  1 26  1  0
  2  3  1  0
  2  4  1  0
  2 27  1  6
  3 28  1  0
  3 29  1  0
  3 30  1  0
  4  5  1  0
  4 23  2  0
  5  6  2  0
  5 31  1  0
  6  7  1  0
  6 21  1  0
  7  8  2  0
  7  9  1  0
  9 10  1  0
  9 32  1  0
 10 11  2  0
 10 20  1  0
 11 12  1  0
 11 33  1  0
 12 13  2  0
 12 34  1  0
 13 14  1  0
 13 18  1  0
 14 15  1  0
 14 35  1  0
 14 36  1  0
 15 16  2  0
 15 17  1  0
 17 37  1  0
 18 19  1  0
 18 20  2  0
 20 38  1  0
 21 22  1  0
 21 23  1  0
 22 39  1  0
 22 40  1  0
 22 41  1  0
M  END

