
     RDKit          3D

 44 45  0  0  0  0  0  0  0  0999 V2000
    1.2880    0.5624   -0.1039 O   0  0  0  0  0  0  0  0  0  0  0  0
    2.0772   -0.3533   -0.3024 C   0  0  0  0  0  0  0  0  0  0  0  0
    2.1317   -1.4747    0.4961 N   0  0  0  0  0  0  0  0  0  0  0  0
    1.3281   -1.5652    1.7046 C   0  0  0  0  0  0  0  0  0  0  0  0
    1.9802   -0.9193    2.9363 C   0  0  0  0  0  0  0  0  0  0  0  0
    1.1165   -0.9558    4.2027 C   0  0  0  0  0  0  0  0  0  0  0  0
    0.9189   -2.3476    4.7906 C   0  0  0  0  0  0  0  0  0  0  0  0
    0.1774   -2.2099    5.9883 O   0  0  0  0  0  0  0  0  0  0  0  0
   -0.1460   -3.3102    6.7172 C   0  0  0  0  0  0  0  0  0  0  0  0
    0.2211   -4.6224    6.3802 C   0  0  0  0  0  0  0  0  0  0  0  0
   -0.1675   -5.6837    7.2082 C   0  0  0  0  0  0  0  0  0  0  0  0
   -0.9141   -5.4566    8.3642 C   0  0  0  0  0  0  0  0  0  0  0  0
   -1.2769   -4.1437    8.6951 C   0  0  0  0  0  0  0  0  0  0  0  0
   -0.8988   -3.0784    7.8827 C   0  0  0  0  0  0  0  0  0  0  0  0
    2.9750   -0.3482   -1.3529 N   0  0  0  0  0  0  0  0  0  0  0  0
    3.0405    0.7137   -2.3413 C   0  0  1  0  0  0  0  0  0  0  0  0
    1.7432    0.8921   -3.1796 C   0  0  0  0  0  0  0  0  0  0  0  0
    1.8381    2.1956   -3.9898 C   0  0  0  0  0  0  0  0  0  0  0  0
    3.1801    3.1939   -3.2072 S   0  0  2  0  0  0  0  0  0  0  0  0
    2.7051    4.5266   -2.8230 O   0  0  0  0  0  0  0  0  0  0  0  0
    4.3897    3.0268   -4.0315 O   0  0  0  0  0  0  0  0  0  0  0  0
    3.3643    2.0993   -1.7623 C   0  0  0  0  0  0  0  0  0  0  0  0
    2.9386   -2.0836    0.4247 H   0  0  0  0  0  0  0  0  0  0  0  0
    1.1062   -2.6302    1.8832 H   0  0  0  0  0  0  0  0  0  0  0  0
    0.3728   -1.0624    1.4937 H   0  0  0  0  0  0  0  0  0  0  0  0
    2.1964    0.1314    2.6855 H   0  0  0  0  0  0  0  0  0  0  0  0
    2.9559   -1.4024    3.1327 H   0  0  0  0  0  0  0  0  0  0  0  0
    0.1260   -0.5137    3.9994 H   0  0  0  0  0  0  0  0  0  0  0  0
    1.5794   -0.3276    4.9811 H   0  0  0  0  0  0  0  0  0  0  0  0
    1.8999   -2.8190    4.9985 H   0  0  0  0  0  0  0  0  0  0  0  0
    0.3784   -3.0105    4.0885 H   0  0  0  0  0  0  0  0  0  0  0  0
    0.8056   -4.8294    5.4836 H   0  0  0  0  0  0  0  0  0  0  0  0
    0.1236   -6.7020    6.9366 H   0  0  0  0  0  0  0  0  0  0  0  0
   -1.2122   -6.2908    9.0033 H   0  0  0  0  0  0  0  0  0  0  0  0
   -1.8620   -3.9484    9.5977 H   0  0  0  0  0  0  0  0  0  0  0  0
   -1.1728   -2.0494    8.1247 H   0  0  0  0  0  0  0  0  0  0  0  0
    3.5023   -1.1888   -1.5505 H   0  0  0  0  0  0  0  0  0  0  0  0
    3.8655    0.4473   -3.0209 H   0  0  0  0  0  0  0  0  0  0  0  0
    0.9033    0.9475   -2.4742 H   0  0  0  0  0  0  0  0  0  0  0  0
    1.5865    0.0205   -3.8330 H   0  0  0  0  0  0  0  0  0  0  0  0
    0.9248    2.8040   -3.9629 H   0  0  0  0  0  0  0  0  0  0  0  0
    2.1668    2.0594   -5.0289 H   0  0  0  0  0  0  0  0  0  0  0  0
    2.6328    2.3990   -1.0003 H   0  0  0  0  0  0  0  0  0  0  0  0
    4.3941    2.2119   -1.3989 H   0  0  0  0  0  0  0  0  0  0  0  0
  1  2  2  0
  2  3  1  0
  2 15  1  0
  3  4  1  0
  3 23  1  0
  4  5  1  0
  4 24  1  0
  4 25  1  0
  5  6  1  0
  5 26  1  0
  5 27  1  0
  6  7  1  0
  6 28  1  0
  6 29  1  0
  7  8  1  0
  7 30  1  0
  7 31  1  0
  8  9  1  0
  9 10  2  0
  9 14  1  0
 10 11  1  0
 10 32  1  0
 11 12  2  0
 11 33  1  0
 12 13  1  0
 12 34  1  0
 13 14  2  0
 13 35  1  0
 14 36  1  0
 15 16  1  0
 15 37  1  0
 16 17  1  0
 16 22  1  0
 16 38  1  6
 17 18  1  0
 17 39  1  0
 17 40  1  0
 19 18  1  6
 18 41  1  0
 18 42  1  0
 19 20  2  0
 19 21  2  0
 19 22  1  0
 22 43  1  0
 22 44  1  0
M  END

