
     RDKit          3D

 49 51  0  0  0  0  0  0  0  0999 V2000
    3.7884    4.3791   -1.9020 C   0  0  0  0  0  0  0  0  0  0  0  0
    4.3860    3.1298   -1.5407 O   0  0  0  0  0  0  0  0  0  0  0  0
    4.0904    2.6578   -0.3158 C   0  0  0  0  0  0  0  0  0  0  0  0
    3.3660    3.2246    0.4614 O   0  0  0  0  0  0  0  0  0  0  0  0
    4.8297    1.3486   -0.0153 C   0  0  1  0  0  0  0  0  0  0  0  0
    5.0665    0.5790   -1.2173 N   0  0  0  0  0  0  0  0  0  0  0  0
    4.5669   -0.6874   -1.3848 C   0  0  0  0  0  0  0  0  0  0  0  0
    3.9903   -1.2927   -0.4990 O   0  0  0  0  0  0  0  0  0  0  0  0
    4.7709   -1.2763   -2.7784 C   0  0  0  0  0  0  0  0  0  0  0  0
    4.8125   -2.8014   -2.7531 C   0  0  0  0  0  0  0  0  0  0  0  0
    4.8321   -3.3313   -4.1001 N   0  0  0  0  0  0  0  0  0  0  0  0
    4.7819   -4.6960   -4.3578 C   0  0  0  0  0  0  0  0  0  0  0  0
    4.5830   -5.6355   -3.3495 C   0  0  0  0  0  0  0  0  0  0  0  0
    4.5335   -7.0187   -3.6410 C   0  0  0  0  0  0  0  0  0  0  0  0
    4.7002   -7.4855   -4.9253 C   0  0  0  0  0  0  0  0  0  0  0  0
    4.8959   -6.5639   -5.9927 C   0  0  0  0  0  0  0  0  0  0  0  0
    5.0607   -7.0053   -7.3358 C   0  0  0  0  0  0  0  0  0  0  0  0
    5.2185   -6.1103   -8.3734 C   0  0  0  0  0  0  0  0  0  0  0  0
    5.2031   -4.7198   -8.1132 C   0  0  0  0  0  0  0  0  0  0  0  0
    5.0506   -4.2583   -6.8200 C   0  0  0  0  0  0  0  0  0  0  0  0
    4.9159   -5.1537   -5.7234 C   0  0  0  0  0  0  0  0  0  0  0  0
    6.0975    1.6529    0.7990 C   0  0  0  0  0  0  0  0  0  0  0  0
    5.9943    2.3755    1.9994 C   0  0  0  0  0  0  0  0  0  0  0  0
    7.1316    2.6488    2.7615 C   0  0  0  0  0  0  0  0  0  0  0  0
    8.3888    2.2046    2.3381 C   0  0  0  0  0  0  0  0  0  0  0  0
    8.4972    1.4826    1.1479 C   0  0  0  0  0  0  0  0  0  0  0  0
    7.3581    1.2081    0.3834 C   0  0  0  0  0  0  0  0  0  0  0  0
    4.1369    4.6026   -2.9175 H   0  0  0  0  0  0  0  0  0  0  0  0
    4.1004    5.1719   -1.2060 H   0  0  0  0  0  0  0  0  0  0  0  0
    2.6911    4.3049   -1.8804 H   0  0  0  0  0  0  0  0  0  0  0  0
    4.1527    0.7456    0.6084 H   0  0  0  0  0  0  0  0  0  0  0  0
    5.4464    1.0723   -2.0167 H   0  0  0  0  0  0  0  0  0  0  0  0
    5.6853   -0.8610   -3.2379 H   0  0  0  0  0  0  0  0  0  0  0  0
    3.9240   -0.9510   -3.4093 H   0  0  0  0  0  0  0  0  0  0  0  0
    3.9160   -3.1579   -2.2244 H   0  0  0  0  0  0  0  0  0  0  0  0
    5.6795   -3.1425   -2.1492 H   0  0  0  0  0  0  0  0  0  0  0  0
    5.4205   -2.8117   -4.7416 H   0  0  0  0  0  0  0  0  0  0  0  0
    4.4760   -5.3134   -2.3138 H   0  0  0  0  0  0  0  0  0  0  0  0
    4.3769   -7.7222   -2.8188 H   0  0  0  0  0  0  0  0  0  0  0  0
    4.6797   -8.5560   -5.1425 H   0  0  0  0  0  0  0  0  0  0  0  0
    5.0544   -8.0811   -7.5327 H   0  0  0  0  0  0  0  0  0  0  0  0
    5.3423   -6.4716   -9.3975 H   0  0  0  0  0  0  0  0  0  0  0  0
    5.2990   -4.0094   -8.9383 H   0  0  0  0  0  0  0  0  0  0  0  0
    5.0015   -3.1805   -6.6498 H   0  0  0  0  0  0  0  0  0  0  0  0
    5.0154    2.7267    2.3333 H   0  0  0  0  0  0  0  0  0  0  0  0
    7.0339    3.2095    3.6947 H   0  0  0  0  0  0  0  0  0  0  0  0
    9.2783    2.4174    2.9363 H   0  0  0  0  0  0  0  0  0  0  0  0
    9.4734    1.1252    0.8098 H   0  0  0  0  0  0  0  0  0  0  0  0
    7.4501    0.6304   -0.5380 H   0  0  0  0  0  0  0  0  0  0  0  0
  1  2  1  0
  1 28  1  0
  1 29  1  0
  1 30  1  0
  2  3  1  0
  3  4  2  0
  3  5  1  0
  5  6  1  0
  5 22  1  0
  5 31  1  1
  6  7  1  0
  6 32  1  0
  7  8  2  0
  7  9  1  0
  9 10  1  0
  9 33  1  0
  9 34  1  0
 10 11  1  0
 10 35  1  0
 10 36  1  0
 11 12  1  0
 11 37  1  0
 12 13  2  0
 12 21  1  0
 13 14  1  0
 13 38  1  0
 14 15  2  0
 14 39  1  0
 15 16  1  0
 15 40  1  0
 16 17  1  0
 16 21  2  0
 17 18  2  0
 17 41  1  0
 18 19  1  0
 18 42  1  0
 19 20  2  0
 19 43  1  0
 20 21  1  0
 20 44  1  0
 22 23  2  0
 22 27  1  0
 23 24  1  0
 23 45  1  0
 24 25  2  0
 24 46  1  0
 25 26  1  0
 25 47  1  0
 26 27  2  0
 26 48  1  0
 27 49  1  0
M  END

