
     RDKit          3D

 55 57  0  0  0  0  0  0  0  0999 V2000
    3.1612   -1.6161    8.8649 C   0  0  0  0  0  0  0  0  0  0  0  0
    3.8726   -1.6714    7.5047 C   0  0  1  0  0  0  0  0  0  0  0  0
    2.8710   -1.7958    6.3478 C   0  0  0  0  0  0  0  0  0  0  0  0
    4.7078   -0.3998    7.3207 C   0  0  0  0  0  0  0  0  0  0  0  0
    4.1958    0.7096    7.2774 O   0  0  0  0  0  0  0  0  0  0  0  0
    6.0588   -0.5770    7.2181 N   0  0  0  0  0  0  0  0  0  0  0  0
    6.9665    0.5445    7.0605 C   0  0  0  0  0  0  0  0  0  0  0  0
    6.9757    1.0942    5.6246 C   0  0  0  0  0  0  0  0  0  0  0  0
    7.8731    2.2321    5.4770 N   0  0  0  0  0  0  0  0  0  0  0  0
    9.2136    2.0470    5.3118 C   0  0  0  0  0  0  0  0  0  0  0  0
    9.8169    0.8542    5.3552 N   0  0  0  0  0  0  0  0  0  0  0  0
   11.1291    1.1407    5.1744 C   0  0  0  0  0  0  0  0  0  0  0  0
   11.3514    2.4967    5.0231 C   0  0  0  0  0  0  0  0  0  0  0  0
   12.6309    3.0532    4.7304 C   0  0  0  0  0  0  0  0  0  0  0  0
   12.8845    4.2360    4.5103 O   0  0  0  0  0  0  0  0  0  0  0  0
   13.6403    2.0518    4.7076 N   0  0  0  0  0  0  0  0  0  0  0  0
   15.0168    2.4726    4.4485 C   0  0  0  0  0  0  0  0  0  0  0  0
   13.4628    0.6709    4.8888 C   0  0  0  0  0  0  0  0  0  0  0  0
   14.4065   -0.0970    4.8412 O   0  0  0  0  0  0  0  0  0  0  0  0
   12.1548    0.2295    5.1164 N   0  0  0  0  0  0  0  0  0  0  0  0
   11.8902   -1.1930    5.2896 C   0  0  0  0  0  0  0  0  0  0  0  0
   10.0831    3.0849    5.1257 N   0  0  0  0  0  0  0  0  0  0  0  0
    9.7837    4.5175    5.1573 C   0  0  0  0  0  0  0  0  0  0  0  0
    9.1856    5.0511    3.8691 C   0  0  0  0  0  0  0  0  0  0  0  0
    7.8502    5.4731    3.8069 C   0  0  0  0  0  0  0  0  0  0  0  0
    7.2978    5.9528    2.6143 C   0  0  0  0  0  0  0  0  0  0  0  0
    8.1040    6.0082    1.4813 C   0  0  0  0  0  0  0  0  0  0  0  0
    7.5867    6.4639    0.3325 F   0  0  0  0  0  0  0  0  0  0  0  0
    9.4410    5.6098    1.5139 C   0  0  0  0  0  0  0  0  0  0  0  0
    9.9774    5.1353    2.7103 C   0  0  0  0  0  0  0  0  0  0  0  0
    2.5258   -2.5042    9.0096 H   0  0  0  0  0  0  0  0  0  0  0  0
    2.5265   -0.7185    8.9206 H   0  0  0  0  0  0  0  0  0  0  0  0
    3.8826   -1.5733    9.6966 H   0  0  0  0  0  0  0  0  0  0  0  0
    4.5440   -2.5489    7.4910 H   0  0  0  0  0  0  0  0  0  0  0  0
    2.2288   -0.9027    6.3102 H   0  0  0  0  0  0  0  0  0  0  0  0
    2.2311   -2.6827    6.4779 H   0  0  0  0  0  0  0  0  0  0  0  0
    3.3840   -1.8854    5.3766 H   0  0  0  0  0  0  0  0  0  0  0  0
    6.4337   -1.5170    7.2236 H   0  0  0  0  0  0  0  0  0  0  0  0
    7.9804    0.2192    7.3338 H   0  0  0  0  0  0  0  0  0  0  0  0
    6.6590    1.3500    7.7451 H   0  0  0  0  0  0  0  0  0  0  0  0
    5.9602    1.4315    5.3763 H   0  0  0  0  0  0  0  0  0  0  0  0
    7.2576    0.2880    4.9260 H   0  0  0  0  0  0  0  0  0  0  0  0
    7.4820    3.0751    5.0760 H   0  0  0  0  0  0  0  0  0  0  0  0
   15.0135    3.5620    4.3398 H   0  0  0  0  0  0  0  0  0  0  0  0
   15.3965    1.9985    3.5316 H   0  0  0  0  0  0  0  0  0  0  0  0
   15.6698    2.1686    5.2791 H   0  0  0  0  0  0  0  0  0  0  0  0
   12.8290   -1.7302    5.1179 H   0  0  0  0  0  0  0  0  0  0  0  0
   11.1225   -1.5237    4.5748 H   0  0  0  0  0  0  0  0  0  0  0  0
   11.5254   -1.3974    6.3084 H   0  0  0  0  0  0  0  0  0  0  0  0
   10.7375    5.0204    5.3648 H   0  0  0  0  0  0  0  0  0  0  0  0
    9.1016    4.7057    6.0024 H   0  0  0  0  0  0  0  0  0  0  0  0
    7.2273    5.4512    4.7074 H   0  0  0  0  0  0  0  0  0  0  0  0
    6.2603    6.2867    2.5540 H   0  0  0  0  0  0  0  0  0  0  0  0
   10.0435    5.6858    0.6065 H   0  0  0  0  0  0  0  0  0  0  0  0
   11.0294    4.8424    2.7618 H   0  0  0  0  0  0  0  0  0  0  0  0
  1  2  1  0
  1 31  1  0
  1 32  1  0
  1 33  1  0
  2  3  1  0
  2  4  1  0
  2 34  1  1
  3 35  1  0
  3 36  1  0
  3 37  1  0
  4  5  2  0
  4  6  1  0
  6  7  1  0
  6 38  1  0
  7  8  1  0
  7 39  1  0
  7 40  1  0
  8  9  1  0
  8 41  1  0
  8 42  1  0
  9 10  1  0
  9 43  1  0
 10 11  2  0
 10 22  1  0
 11 12  1  0
 12 13  2  0
 12 20  1  0
 13 14  1  0
 13 22  1  0
 14 15  2  0
 14 16  1  0
 16 17  1  0
 16 18  1  0
 17 44  1  0
 17 45  1  0
 17 46  1  0
 18 19  2  0
 18 20  1  0
 20 21  1  0
 21 47  1  0
 21 48  1  0
 21 49  1  0
 22 23  1  0
 23 24  1  0
 23 50  1  0
 23 51  1  0
 24 25  2  0
 24 30  1  0
 25 26  1  0
 25 52  1  0
 26 27  2  0
 26 53  1  0
 27 28  1  0
 27 29  1  0
 29 30  2  0
 29 54  1  0
 30 55  1  0
M  END

