
     RDKit          3D

 40 42  0  0  0  0  0  0  0  0999 V2000
    1.1100    0.2611    1.2446 C   0  0  0  0  0  0  0  0  0  0  0  0
    2.3140    0.1052    0.4536 N   0  0  0  0  0  0  0  0  0  0  0  0
    2.7713   -1.2221    0.0940 C   0  0  0  0  0  0  0  0  0  0  0  0
    3.0207    1.2170    0.0449 C   0  0  0  0  0  0  0  0  0  0  0  0
    2.6004    2.5300    0.3790 C   0  0  0  0  0  0  0  0  0  0  0  0
    3.3235    3.6394   -0.0402 C   0  0  0  0  0  0  0  0  0  0  0  0
    4.5002    3.5293   -0.8112 C   0  0  0  0  0  0  0  0  0  0  0  0
    5.2108    4.7313   -1.2177 C   0  0  0  0  0  0  0  0  0  0  0  0
    6.3514    4.8260   -1.9553 C   0  0  0  0  0  0  0  0  0  0  0  0
    6.9642    6.0798   -2.2952 C   0  0  0  0  0  0  0  0  0  0  0  0
    8.1025    6.2131   -3.0294 C   0  0  0  0  0  0  0  0  0  0  0  0
    8.6921    7.4954   -3.3525 C   0  0  0  0  0  0  0  0  0  0  0  0
    8.2358    8.6636   -3.0001 N   0  0  0  0  0  0  0  0  0  0  0  0
    9.0244    9.6868   -3.4650 C   0  0  0  0  0  0  0  0  0  0  0  0
    8.7948   11.0596   -3.2503 C   0  0  0  0  0  0  0  0  0  0  0  0
    9.6811   11.9897   -3.7832 C   0  0  0  0  0  0  0  0  0  0  0  0
   10.8008   11.5772   -4.5320 C   0  0  0  0  0  0  0  0  0  0  0  0
   11.0513   10.2240   -4.7593 C   0  0  0  0  0  0  0  0  0  0  0  0
   10.1613    9.2859   -4.2243 C   0  0  0  0  0  0  0  0  0  0  0  0
   10.1908    7.5428   -4.3262 S   0  0  0  0  0  0  0  0  0  0  0  0
    4.9132    2.2191   -1.1410 C   0  0  0  0  0  0  0  0  0  0  0  0
    4.2054    1.0988   -0.7322 C   0  0  0  0  0  0  0  0  0  0  0  0
    0.6929   -0.7278    1.4730 H   0  0  0  0  0  0  0  0  0  0  0  0
    0.3326    0.8395    0.7118 H   0  0  0  0  0  0  0  0  0  0  0  0
    1.3054    0.7736    2.2048 H   0  0  0  0  0  0  0  0  0  0  0  0
    2.0834   -1.9693    0.5094 H   0  0  0  0  0  0  0  0  0  0  0  0
    3.7807   -1.4377    0.4905 H   0  0  0  0  0  0  0  0  0  0  0  0
    2.8060   -1.3697   -1.0013 H   0  0  0  0  0  0  0  0  0  0  0  0
    1.7004    2.6878    0.9719 H   0  0  0  0  0  0  0  0  0  0  0  0
    2.9658    4.6349    0.2387 H   0  0  0  0  0  0  0  0  0  0  0  0
    4.7592    5.6720   -0.8798 H   0  0  0  0  0  0  0  0  0  0  0  0
    6.8458    3.9184   -2.3194 H   0  0  0  0  0  0  0  0  0  0  0  0
    6.4829    6.9975   -1.9391 H   0  0  0  0  0  0  0  0  0  0  0  0
    8.6159    5.3226   -3.4052 H   0  0  0  0  0  0  0  0  0  0  0  0
    7.9230   11.3648   -2.6682 H   0  0  0  0  0  0  0  0  0  0  0  0
    9.5081   13.0564   -3.6200 H   0  0  0  0  0  0  0  0  0  0  0  0
   11.4837   12.3260   -4.9410 H   0  0  0  0  0  0  0  0  0  0  0  0
   11.9205    9.9078   -5.3403 H   0  0  0  0  0  0  0  0  0  0  0  0
    5.8168    2.0689   -1.7363 H   0  0  0  0  0  0  0  0  0  0  0  0
    4.5775    0.1164   -1.0204 H   0  0  0  0  0  0  0  0  0  0  0  0
  1  2  1  0
  1 23  1  0
  1 24  1  0
  1 25  1  0
  2  3  1  0
  2  4  1  0
  3 26  1  0
  3 27  1  0
  3 28  1  0
  4  5  2  0
  4 22  1  0
  5  6  1  0
  5 29  1  0
  6  7  2  0
  6 30  1  0
  7  8  1  0
  7 21  1  0
  8  9  2  0
  8 31  1  0
  9 10  1  0
  9 32  1  0
 10 11  2  0
 10 33  1  0
 11 12  1  0
 11 34  1  0
 12 13  2  0
 12 20  1  0
 13 14  1  0
 14 15  2  0
 14 19  1  0
 15 16  1  0
 15 35  1  0
 16 17  2  0
 16 36  1  0
 17 18  1  0
 17 37  1  0
 18 19  2  0
 18 38  1  0
 19 20  1  0
 21 22  2  0
 21 39  1  0
 22 40  1  0
M  END

