
     RDKit          3D

 33 33  0  0  0  0  0  0  0  0999 V2000
    1.1406   -0.1590   -0.5358 C   0  0  0  0  0  0  0  0  0  0  0  0
    2.5895    0.0498   -0.0685 C   0  0  1  0  0  0  0  0  0  0  0  0
    3.4064   -1.2235   -0.3374 C   0  0  0  0  0  0  0  0  0  0  0  0
    3.2480    1.3471   -0.6383 C   0  0  1  0  0  0  0  0  0  0  0  0
    3.4775    1.2571   -2.1585 C   0  0  0  0  0  0  0  0  0  0  0  0
    2.3927    2.6113   -0.3047 C   0  0  0  0  0  0  0  0  0  0  0  0
    3.4161    3.6731    0.0881 C   0  0  0  0  0  0  0  0  0  0  0  0
    4.3880    2.8938    0.8446 N   0  0  0  0  0  0  0  0  0  0  0  0
    5.5900    3.5802    1.2685 C   0  0  0  0  0  0  0  0  0  0  0  0
    6.2785    2.9554    2.4919 C   0  0  0  0  0  0  0  0  0  0  0  0
    5.4441    2.2202    3.2736 N   0  0  0  0  0  0  0  0  0  0  0  0
    7.4542    3.1524    2.7356 O   0  0  0  0  0  0  0  0  0  0  0  0
    4.6016    1.6596    0.0845 C   0  0  0  0  0  0  0  0  0  0  0  0
    0.6985   -1.0345   -0.0333 H   0  0  0  0  0  0  0  0  0  0  0  0
    1.0862   -0.3486   -1.6204 H   0  0  0  0  0  0  0  0  0  0  0  0
    0.4969    0.7055   -0.3138 H   0  0  0  0  0  0  0  0  0  0  0  0
    2.5597    0.1971    1.0281 H   0  0  0  0  0  0  0  0  0  0  0  0
    3.3993   -1.4923   -1.4062 H   0  0  0  0  0  0  0  0  0  0  0  0
    2.9792   -2.0772    0.2132 H   0  0  0  0  0  0  0  0  0  0  0  0
    4.4575   -1.1249   -0.0247 H   0  0  0  0  0  0  0  0  0  0  0  0
    2.5445    1.0322   -2.6986 H   0  0  0  0  0  0  0  0  0  0  0  0
    4.2145    0.4809   -2.4175 H   0  0  0  0  0  0  0  0  0  0  0  0
    3.8625    2.2123   -2.5501 H   0  0  0  0  0  0  0  0  0  0  0  0
    1.7414    2.4137    0.5612 H   0  0  0  0  0  0  0  0  0  0  0  0
    1.7506    2.9215   -1.1429 H   0  0  0  0  0  0  0  0  0  0  0  0
    2.9924    4.4822    0.7058 H   0  0  0  0  0  0  0  0  0  0  0  0
    3.8658    4.1481   -0.8140 H   0  0  0  0  0  0  0  0  0  0  0  0
    5.3286    4.6123    1.5597 H   0  0  0  0  0  0  0  0  0  0  0  0
    6.3628    3.6608    0.4754 H   0  0  0  0  0  0  0  0  0  0  0  0
    4.4766    2.1146    2.9892 H   0  0  0  0  0  0  0  0  0  0  0  0
    5.8008    1.7936    4.1194 H   0  0  0  0  0  0  0  0  0  0  0  0
    4.9261    0.8515    0.7591 H   0  0  0  0  0  0  0  0  0  0  0  0
    5.4129    1.7925   -0.6635 H   0  0  0  0  0  0  0  0  0  0  0  0
  1  2  1  0
  1 14  1  0
  1 15  1  0
  1 16  1  0
  2  3  1  0
  2  4  1  0
  2 17  1  1
  3 18  1  0
  3 19  1  0
  3 20  1  0
  4  5  1  6
  4  6  1  0
  4 13  1  0
  5 21  1  0
  5 22  1  0
  5 23  1  0
  6  7  1  0
  6 24  1  0
  6 25  1  0
  7  8  1  0
  7 26  1  0
  7 27  1  0
  8  9  1  0
  8 13  1  0
  9 10  1  0
  9 28  1  0
  9 29  1  0
 10 11  1  0
 10 12  2  0
 11 30  1  0
 11 31  1  0
 13 32  1  0
 13 33  1  0
M  END

