
     RDKit          3D

 52 55  0  0  0  0  0  0  0  0999 V2000
    5.2268   -0.7052   -1.7137 C   0  0  0  0  0  0  0  0  0  0  0  0
    4.8326   -1.0132   -0.2789 C   0  0  0  0  0  0  0  0  0  0  0  0
    5.1484    0.0973    0.5842 O   0  0  0  0  0  0  0  0  0  0  0  0
    4.1845    1.0038    0.8030 C   0  0  0  0  0  0  0  0  0  0  0  0
    3.0518    0.9238    0.3917 O   0  0  0  0  0  0  0  0  0  0  0  0
    4.6699    2.1504    1.6163 C   0  0  0  0  0  0  0  0  0  0  0  0
    4.3581    3.5197    1.3913 C   0  0  0  0  0  0  0  0  0  0  0  0
    3.5780    4.1343    0.3047 C   0  0  0  0  0  0  0  0  0  0  0  0
    2.7516    5.1940    0.5311 C   0  0  0  0  0  0  0  0  0  0  0  0
    2.0057    5.8082   -0.5341 C   0  0  0  0  0  0  0  0  0  0  0  0
    1.1236    6.8954   -0.3589 C   0  0  0  0  0  0  0  0  0  0  0  0
    0.4223    7.4175   -1.4391 C   0  0  0  0  0  0  0  0  0  0  0  0
    0.5888    6.8585   -2.7184 C   0  0  0  0  0  0  0  0  0  0  0  0
    1.4532    5.7848   -2.9193 C   0  0  0  0  0  0  0  0  0  0  0  0
    2.1574    5.2668   -1.8274 C   0  0  0  0  0  0  0  0  0  0  0  0
    3.0016    4.2267   -2.0488 O   0  0  0  0  0  0  0  0  0  0  0  0
    3.7730    3.6317   -1.0693 C   0  0  0  0  0  0  0  0  0  0  0  0
    4.5479    2.7740   -1.4068 O   0  0  0  0  0  0  0  0  0  0  0  0
    4.8910    4.2837    2.3441 N   0  0  0  0  0  0  0  0  0  0  0  0
    5.5531    3.4613    3.1721 N   0  0  0  0  0  0  0  0  0  0  0  0
    6.1545    4.0325    4.3394 C   0  0  0  0  0  0  0  0  0  0  0  0
    5.3883    4.9109    5.1168 C   0  0  0  0  0  0  0  0  0  0  0  0
    5.9478    5.5260    6.2353 C   0  0  0  0  0  0  0  0  0  0  0  0
    7.2785    5.2575    6.5723 C   0  0  0  0  0  0  0  0  0  0  0  0
    7.9835    6.0212    7.9761 Cl  0  0  0  0  0  0  0  0  0  0  0  0
    8.0503    4.3890    5.7959 C   0  0  0  0  0  0  0  0  0  0  0  0
    7.4900    3.7802    4.6718 C   0  0  0  0  0  0  0  0  0  0  0  0
    5.4399    2.1472    2.7753 C   0  0  0  0  0  0  0  0  0  0  0  0
    5.9952    0.9854    3.5220 C   0  0  0  0  0  0  0  0  0  0  0  0
    7.0772    0.9543    4.0623 O   0  0  0  0  0  0  0  0  0  0  0  0
    5.1266   -0.0316    3.5122 O   0  0  0  0  0  0  0  0  0  0  0  0
    5.5507   -1.2810    4.0952 C   0  0  0  0  0  0  0  0  0  0  0  0
    5.2650   -1.3275    5.5863 C   0  0  0  0  0  0  0  0  0  0  0  0
    4.9984   -1.5693   -2.3586 H   0  0  0  0  0  0  0  0  0  0  0  0
    6.3043   -0.4919   -1.7872 H   0  0  0  0  0  0  0  0  0  0  0  0
    4.6787    0.1716   -2.0877 H   0  0  0  0  0  0  0  0  0  0  0  0
    5.4062   -1.8611    0.1247 H   0  0  0  0  0  0  0  0  0  0  0  0
    3.7584   -1.2324   -0.1981 H   0  0  0  0  0  0  0  0  0  0  0  0
    2.6441    5.5804    1.5476 H   0  0  0  0  0  0  0  0  0  0  0  0
    1.0009    7.3190    0.6413 H   0  0  0  0  0  0  0  0  0  0  0  0
   -0.2581    8.2595   -1.2955 H   0  0  0  0  0  0  0  0  0  0  0  0
    0.0361    7.2686   -3.5671 H   0  0  0  0  0  0  0  0  0  0  0  0
    1.5994    5.3356   -3.9031 H   0  0  0  0  0  0  0  0  0  0  0  0
    4.3547    5.1132    4.8340 H   0  0  0  0  0  0  0  0  0  0  0  0
    5.3577    6.2090    6.8480 H   0  0  0  0  0  0  0  0  0  0  0  0
    9.0899    4.1972    6.0649 H   0  0  0  0  0  0  0  0  0  0  0  0
    8.0852    3.1024    4.0633 H   0  0  0  0  0  0  0  0  0  0  0  0
    6.6224   -1.4215    3.8917 H   0  0  0  0  0  0  0  0  0  0  0  0
    4.9765   -2.0449    3.5521 H   0  0  0  0  0  0  0  0  0  0  0  0
    5.8648   -0.5787    6.1242 H   0  0  0  0  0  0  0  0  0  0  0  0
    5.5229   -2.3224    5.9833 H   0  0  0  0  0  0  0  0  0  0  0  0
    4.1988   -1.1423    5.7887 H   0  0  0  0  0  0  0  0  0  0  0  0
  1  2  1  0
  1 34  1  0
  1 35  1  0
  1 36  1  0
  2  3  1  0
  2 37  1  0
  2 38  1  0
  3  4  1  0
  4  5  2  0
  4  6  1  0
  6  7  1  0
  6 28  2  0
  7  8  1  0
  7 19  2  0
  8  9  2  0
  8 17  1  0
  9 10  1  0
  9 39  1  0
 10 11  2  0
 10 15  1  0
 11 12  1  0
 11 40  1  0
 12 13  2  0
 12 41  1  0
 13 14  1  0
 13 42  1  0
 14 15  2  0
 14 43  1  0
 15 16  1  0
 16 17  1  0
 17 18  2  0
 19 20  1  0
 20 21  1  0
 20 28  1  0
 21 22  2  0
 21 27  1  0
 22 23  1  0
 22 44  1  0
 23 24  2  0
 23 45  1  0
 24 25  1  0
 24 26  1  0
 26 27  2  0
 26 46  1  0
 27 47  1  0
 28 29  1  0
 29 30  2  0
 29 31  1  0
 31 32  1  0
 32 33  1  0
 32 48  1  0
 32 49  1  0
 33 50  1  0
 33 51  1  0
 33 52  1  0
M  END

