
     RDKit          3D

 46 48  0  0  0  0  0  0  0  0999 V2000
    2.6912   -1.1013   -1.8474 C   0  0  0  0  0  0  0  0  0  0  0  0
    2.0239   -2.2686   -1.8494 C   0  0  0  0  0  0  0  0  0  0  0  0
    0.9370   -2.7104   -2.7495 C   0  0  0  0  0  0  0  0  0  0  0  0
    0.2635   -2.0566   -3.7832 C   0  0  0  0  0  0  0  0  0  0  0  0
   -0.7288   -2.7608   -4.4750 C   0  0  0  0  0  0  0  0  0  0  0  0
   -1.0419   -4.0913   -4.1494 C   0  0  0  0  0  0  0  0  0  0  0  0
   -0.3643   -4.7488   -3.1178 C   0  0  0  0  0  0  0  0  0  0  0  0
    0.6182   -4.0400   -2.4301 C   0  0  0  0  0  0  0  0  0  0  0  0
    1.4904   -4.4728   -1.3075 C   0  0  0  0  0  0  0  0  0  0  0  0
    1.5713   -5.5553   -0.7529 O   0  0  0  0  0  0  0  0  0  0  0  0
    2.2606   -3.3575   -0.9869 N   0  0  0  0  0  0  0  0  0  0  0  0
    3.2041   -3.3737    0.1119 C   0  0  0  0  0  0  0  0  0  0  0  0
    4.6382   -3.7089   -0.3338 C   0  0  0  0  0  0  0  0  0  0  0  0
    5.5135   -2.8568   -0.3682 O   0  0  0  0  0  0  0  0  0  0  0  0
    4.8113   -5.0065   -0.6924 N   0  0  0  0  0  0  0  0  0  0  0  0
    6.0669   -5.5392   -1.1792 C   0  0  0  0  0  0  0  0  0  0  0  0
    6.3518   -6.9103   -0.5577 C   0  0  0  0  0  0  0  0  0  0  0  0
    5.2466   -7.8403   -0.7682 N   0  0  0  0  0  0  0  0  0  0  0  0
    5.1977   -8.4656   -2.0915 C   0  0  0  0  0  0  0  0  0  0  0  0
    6.1558   -9.6605   -2.2457 C   0  0  0  0  0  0  0  0  0  0  0  0
    5.9224  -10.6925   -1.1336 C   0  0  0  0  0  0  0  0  0  0  0  0
    5.9716  -10.0242    0.2475 C   0  0  0  0  0  0  0  0  0  0  0  0
    5.0170   -8.8191    0.2939 C   0  0  0  0  0  0  0  0  0  0  0  0
    2.4200   -0.3193   -2.5574 H   0  0  0  0  0  0  0  0  0  0  0  0
    3.5353   -0.9195   -1.1804 H   0  0  0  0  0  0  0  0  0  0  0  0
    0.4971   -1.0234   -4.0502 H   0  0  0  0  0  0  0  0  0  0  0  0
   -1.2705   -2.2663   -5.2854 H   0  0  0  0  0  0  0  0  0  0  0  0
   -1.8212   -4.6133   -4.7100 H   0  0  0  0  0  0  0  0  0  0  0  0
   -0.5888   -5.7836   -2.8492 H   0  0  0  0  0  0  0  0  0  0  0  0
    2.8463   -4.1291    0.8278 H   0  0  0  0  0  0  0  0  0  0  0  0
    3.2255   -2.3905    0.5998 H   0  0  0  0  0  0  0  0  0  0  0  0
    4.0341   -5.6634   -0.6270 H   0  0  0  0  0  0  0  0  0  0  0  0
    6.8616   -4.8238   -0.9229 H   0  0  0  0  0  0  0  0  0  0  0  0
    6.0532   -5.6155   -2.2832 H   0  0  0  0  0  0  0  0  0  0  0  0
    6.4788   -6.7759    0.5284 H   0  0  0  0  0  0  0  0  0  0  0  0
    7.3262   -7.2765   -0.9460 H   0  0  0  0  0  0  0  0  0  0  0  0
    5.4013   -7.7036   -2.8604 H   0  0  0  0  0  0  0  0  0  0  0  0
    4.1616   -8.8106   -2.2659 H   0  0  0  0  0  0  0  0  0  0  0  0
    7.2019   -9.3064   -2.2067 H   0  0  0  0  0  0  0  0  0  0  0  0
    6.0209  -10.1185   -3.2405 H   0  0  0  0  0  0  0  0  0  0  0  0
    6.6584  -11.5113   -1.1999 H   0  0  0  0  0  0  0  0  0  0  0  0
    4.9277  -11.1562   -1.2737 H   0  0  0  0  0  0  0  0  0  0  0  0
    7.0026   -9.6885    0.4626 H   0  0  0  0  0  0  0  0  0  0  0  0
    5.7047  -10.7440    1.0403 H   0  0  0  0  0  0  0  0  0  0  0  0
    5.0767   -8.3065    1.2674 H   0  0  0  0  0  0  0  0  0  0  0  0
    3.9774   -9.1845    0.1956 H   0  0  0  0  0  0  0  0  0  0  0  0
  1  2  2  0
  1 24  1  0
  1 25  1  0
  2  3  1  0
  2 11  1  0
  3  4  2  0
  3  8  1  0
  4  5  1  0
  4 26  1  0
  5  6  2  0
  5 27  1  0
  6  7  1  0
  6 28  1  0
  7  8  2  0
  7 29  1  0
  8  9  1  0
  9 10  2  0
  9 11  1  0
 11 12  1  0
 12 13  1  0
 12 30  1  0
 12 31  1  0
 13 14  2  0
 13 15  1  0
 15 16  1  0
 15 32  1  0
 16 17  1  0
 16 33  1  0
 16 34  1  0
 17 18  1  0
 17 35  1  0
 17 36  1  0
 18 19  1  0
 18 23  1  0
 19 20  1  0
 19 37  1  0
 19 38  1  0
 20 21  1  0
 20 39  1  0
 20 40  1  0
 21 22  1  0
 21 41  1  0
 21 42  1  0
 22 23  1  0
 22 43  1  0
 22 44  1  0
 23 45  1  0
 23 46  1  0
M  END

