
     RDKit          3D

 68 69  0  0  0  0  0  0  0  0999 V2000
   -2.7670   -1.3392   -0.3720 C   0  0  0  0  0  0  0  0  0  0  0  0
   -2.0649   -2.5413    0.2846 C   0  0  1  0  0  0  0  0  0  0  0  0
   -3.0878   -3.5679    0.8052 C   0  0  0  0  0  0  0  0  0  0  0  0
   -1.0364   -3.1784   -0.6520 C   0  0  0  0  0  0  0  0  0  0  0  0
   -1.5221   -3.8458   -1.7884 C   0  0  0  0  0  0  0  0  0  0  0  0
   -0.6607   -4.4829   -2.6738 C   0  0  0  0  0  0  0  0  0  0  0  0
    0.7102   -4.4644   -2.4241 C   0  0  0  0  0  0  0  0  0  0  0  0
    1.2434   -3.8015   -1.3095 C   0  0  0  0  0  0  0  0  0  0  0  0
    2.7552   -3.8673   -1.0706 C   0  0  1  0  0  0  0  0  0  0  0  0
    3.1118   -5.0433   -0.1402 C   0  0  0  0  0  0  0  0  0  0  0  0
    3.5926   -3.9321   -2.3573 C   0  0  0  0  0  0  0  0  0  0  0  0
    0.3609   -3.1349   -0.4123 C   0  0  0  0  0  0  0  0  0  0  0  0
    0.9064   -2.4180    0.8284 C   0  0  0  0  0  0  0  0  0  0  0  0
    0.7618   -0.9009    0.9063 C   0  0  0  0  0  0  0  0  0  0  0  0
    0.1203   -0.3134    1.9940 C   0  0  0  0  0  0  0  0  0  0  0  0
   -0.0200    1.0782    2.1298 C   0  0  0  0  0  0  0  0  0  0  0  0
   -0.7364    1.6692    3.3606 C   0  0  1  0  0  0  0  0  0  0  0  0
    0.0212    1.2561    4.6439 C   0  0  0  0  0  0  0  0  0  0  0  0
   -0.8001    3.2066    3.3166 C   0  0  0  0  0  0  0  0  0  0  0  0
   -2.1845    1.1310    3.4267 C   0  0  0  0  0  0  0  0  0  0  0  0
    0.5155    1.8608    1.1069 C   0  0  0  0  0  0  0  0  0  0  0  0
    1.1971    1.3410   -0.0151 C   0  0  0  0  0  0  0  0  0  0  0  0
    1.7376    2.3849   -1.0359 C   0  0  1  0  0  0  0  0  0  0  0  0
    2.7548    3.3105   -0.3257 C   0  0  0  0  0  0  0  0  0  0  0  0
    2.4555    1.8050   -2.2760 C   0  0  0  0  0  0  0  0  0  0  0  0
    0.5554    3.2294   -1.5708 C   0  0  0  0  0  0  0  0  0  0  0  0
    1.3296   -0.0638   -0.0866 C   0  0  0  0  0  0  0  0  0  0  0  0
    2.0117   -0.7304   -1.0606 O   0  0  0  0  0  0  0  0  0  0  0  0
   -3.4713   -0.8656    0.3322 H   0  0  0  0  0  0  0  0  0  0  0  0
   -3.3398   -1.6452   -1.2631 H   0  0  0  0  0  0  0  0  0  0  0  0
   -2.0376   -0.5769   -0.6856 H   0  0  0  0  0  0  0  0  0  0  0  0
   -1.5390   -2.1539    1.1644 H   0  0  0  0  0  0  0  0  0  0  0  0
   -3.7171   -3.9720   -0.0041 H   0  0  0  0  0  0  0  0  0  0  0  0
   -3.7621   -3.1009    1.5424 H   0  0  0  0  0  0  0  0  0  0  0  0
   -2.5883   -4.4199    1.2934 H   0  0  0  0  0  0  0  0  0  0  0  0
   -2.5982   -3.8711   -1.9774 H   0  0  0  0  0  0  0  0  0  0  0  0
   -1.0538   -4.9997   -3.5536 H   0  0  0  0  0  0  0  0  0  0  0  0
    1.3785   -4.9788   -3.1165 H   0  0  0  0  0  0  0  0  0  0  0  0
    3.0512   -2.9343   -0.5733 H   0  0  0  0  0  0  0  0  0  0  0  0
    2.8411   -6.0052   -0.6064 H   0  0  0  0  0  0  0  0  0  0  0  0
    2.5761   -4.9827    0.8201 H   0  0  0  0  0  0  0  0  0  0  0  0
    4.1934   -5.0637    0.0756 H   0  0  0  0  0  0  0  0  0  0  0  0
    3.4833   -4.8931   -2.8856 H   0  0  0  0  0  0  0  0  0  0  0  0
    4.6621   -3.8214   -2.1151 H   0  0  0  0  0  0  0  0  0  0  0  0
    3.3181   -3.1284   -3.0584 H   0  0  0  0  0  0  0  0  0  0  0  0
    1.9709   -2.6589    0.9431 H   0  0  0  0  0  0  0  0  0  0  0  0
    0.4201   -2.8383    1.7230 H   0  0  0  0  0  0  0  0  0  0  0  0
   -0.2851   -0.9754    2.7638 H   0  0  0  0  0  0  0  0  0  0  0  0
    1.0553    1.6358    4.6305 H   0  0  0  0  0  0  0  0  0  0  0  0
    0.0692    0.1623    4.7574 H   0  0  0  0  0  0  0  0  0  0  0  0
   -0.4800    1.6622    5.5384 H   0  0  0  0  0  0  0  0  0  0  0  0
    0.2036    3.6598    3.3009 H   0  0  0  0  0  0  0  0  0  0  0  0
   -1.3181    3.5849    4.2121 H   0  0  0  0  0  0  0  0  0  0  0  0
   -1.3544    3.5703    2.4371 H   0  0  0  0  0  0  0  0  0  0  0  0
   -2.2115    0.0337    3.5089 H   0  0  0  0  0  0  0  0  0  0  0  0
   -2.7512    1.4125    2.5248 H   0  0  0  0  0  0  0  0  0  0  0  0
   -2.7118    1.5425    4.3035 H   0  0  0  0  0  0  0  0  0  0  0  0
    0.4149    2.9425    1.1736 H   0  0  0  0  0  0  0  0  0  0  0  0
    3.6130    2.7337    0.0545 H   0  0  0  0  0  0  0  0  0  0  0  0
    2.3055    3.8383    0.5277 H   0  0  0  0  0  0  0  0  0  0  0  0
    3.1382    4.0723   -1.0250 H   0  0  0  0  0  0  0  0  0  0  0  0
    3.3802    1.2635   -2.0151 H   0  0  0  0  0  0  0  0  0  0  0  0
    2.7656    2.6301   -2.9356 H   0  0  0  0  0  0  0  0  0  0  0  0
    1.7968    1.1620   -2.8840 H   0  0  0  0  0  0  0  0  0  0  0  0
    0.0229    3.7548   -0.7655 H   0  0  0  0  0  0  0  0  0  0  0  0
   -0.1765    2.5939   -2.0945 H   0  0  0  0  0  0  0  0  0  0  0  0
    0.9171    3.9908   -2.2818 H   0  0  0  0  0  0  0  0  0  0  0  0
    2.3086   -0.1221   -1.7441 H   0  0  0  0  0  0  0  0  0  0  0  0
  1  2  1  0
  1 29  1  0
  1 30  1  0
  1 31  1  0
  2  3  1  0
  2  4  1  0
  2 32  1  1
  3 33  1  0
  3 34  1  0
  3 35  1  0
  4  5  2  0
  4 12  1  0
  5  6  1  0
  5 36  1  0
  6  7  2  0
  6 37  1  0
  7  8  1  0
  7 38  1  0
  8  9  1  0
  8 12  2  0
  9 10  1  0
  9 11  1  0
  9 39  1  1
 10 40  1  0
 10 41  1  0
 10 42  1  0
 11 43  1  0
 11 44  1  0
 11 45  1  0
 12 13  1  0
 13 14  1  0
 13 46  1  0
 13 47  1  0
 14 15  2  0
 14 27  1  0
 15 16  1  0
 15 48  1  0
 16 17  1  0
 16 21  2  0
 17 18  1  1
 17 19  1  0
 17 20  1  0
 18 49  1  0
 18 50  1  0
 18 51  1  0
 19 52  1  0
 19 53  1  0
 19 54  1  0
 20 55  1  0
 20 56  1  0
 20 57  1  0
 21 22  1  0
 21 58  1  0
 22 23  1  0
 22 27  2  0
 23 24  1  1
 23 25  1  0
 23 26  1  0
 24 59  1  0
 24 60  1  0
 24 61  1  0
 25 62  1  0
 25 63  1  0
 25 64  1  0
 26 65  1  0
 26 66  1  0
 26 67  1  0
 27 28  1  0
 28 68  1  0
M  END

