
     RDKit          3D

 48 51  0  0  0  0  0  0  0  0999 V2000
    1.8882   -0.5752    2.6882 N   0  0  0  0  0  0  0  0  0  0  0  0
    2.8379   -1.2153    2.4956 C   0  0  0  0  0  0  0  0  0  0  0  0
    4.0353   -1.9927    2.3293 C   0  0  0  0  0  0  0  0  0  0  0  0
    4.7657   -2.3189    3.4900 C   0  0  0  0  0  0  0  0  0  0  0  0
    5.9572   -3.0332    3.4001 C   0  0  0  0  0  0  0  0  0  0  0  0
    6.4292   -3.4249    2.1444 C   0  0  0  0  0  0  0  0  0  0  0  0
    5.6994   -3.1139    0.9951 C   0  0  0  0  0  0  0  0  0  0  0  0
    4.4935   -2.4013    1.0544 C   0  0  0  0  0  0  0  0  0  0  0  0
    3.7916   -2.0472   -0.2446 C   0  0  0  0  0  0  0  0  0  0  0  0
    2.3415   -2.1981   -0.2602 N   0  0  0  0  0  0  0  0  0  0  0  0
    1.5858   -1.0607   -0.6297 C   0  0  0  0  0  0  0  0  0  0  0  0
    2.0684   -0.0994   -1.1948 O   0  0  0  0  0  0  0  0  0  0  0  0
    0.2412   -1.1847   -0.3681 N   0  0  0  0  0  0  0  0  0  0  0  0
   -0.7107   -0.1737   -0.6506 C   0  0  0  0  0  0  0  0  0  0  0  0
   -1.6928    0.0429    0.2420 C   0  0  0  0  0  0  0  0  0  0  0  0
   -1.8036   -0.6621    1.4521 N   0  0  0  0  0  0  0  0  0  0  0  0
   -1.0643   -1.7050    1.5595 C   0  0  0  0  0  0  0  0  0  0  0  0
   -0.1907   -2.1442    0.5855 N   0  0  0  0  0  0  0  0  0  0  0  0
    0.4177   -3.4007    0.4752 C   0  0  0  0  0  0  0  0  0  0  0  0
    1.6951   -3.4322    0.0253 C   0  0  0  0  0  0  0  0  0  0  0  0
    2.4320   -4.5944   -0.2309 N   0  0  0  0  0  0  0  0  0  0  0  0
    2.7323   -4.8560   -1.6501 C   0  0  0  0  0  0  0  0  0  0  0  0
    3.8420   -5.8976   -1.7877 C   0  0  0  0  0  0  0  0  0  0  0  0
    3.4768   -7.1785   -1.0315 C   0  0  0  0  0  0  0  0  0  0  0  0
    3.0944   -6.8805    0.4360 C   0  0  1  0  0  0  0  0  0  0  0  0
    2.6519   -7.7974    0.8651 H   0  0  0  0  0  0  0  0  0  0  0  0
    4.1934   -6.4736    1.3049 N   0  0  0  0  0  0  0  0  0  0  0  0
    2.0031   -5.8026    0.4766 C   0  0  0  0  0  0  0  0  0  0  0  0
    4.3851   -1.9957    4.4608 H   0  0  0  0  0  0  0  0  0  0  0  0
    6.5157   -3.2806    4.3054 H   0  0  0  0  0  0  0  0  0  0  0  0
    7.3670   -3.9795    2.0589 H   0  0  0  0  0  0  0  0  0  0  0  0
    6.0751   -3.4279    0.0172 H   0  0  0  0  0  0  0  0  0  0  0  0
    4.2643   -2.6265   -1.0534 H   0  0  0  0  0  0  0  0  0  0  0  0
    3.9669   -0.9884   -0.4903 H   0  0  0  0  0  0  0  0  0  0  0  0
   -0.5666    0.3764   -1.5800 H   0  0  0  0  0  0  0  0  0  0  0  0
   -2.4670    0.7873    0.0419 H   0  0  0  0  0  0  0  0  0  0  0  0
   -1.1263   -2.3589    2.4397 H   0  0  0  0  0  0  0  0  0  0  0  0
   -0.1911   -4.2913    0.6335 H   0  0  0  0  0  0  0  0  0  0  0  0
    3.0110   -3.9128   -2.1402 H   0  0  0  0  0  0  0  0  0  0  0  0
    1.8129   -5.2160   -2.1620 H   0  0  0  0  0  0  0  0  0  0  0  0
    4.7808   -5.4805   -1.3848 H   0  0  0  0  0  0  0  0  0  0  0  0
    4.0181   -6.1083   -2.8550 H   0  0  0  0  0  0  0  0  0  0  0  0
    4.3080   -7.9037   -1.0615 H   0  0  0  0  0  0  0  0  0  0  0  0
    2.6200   -7.6652   -1.5327 H   0  0  0  0  0  0  0  0  0  0  0  0
    4.5090   -5.5321    1.0735 H   0  0  0  0  0  0  0  0  0  0  0  0
    4.9931   -7.0983    1.2055 H   0  0  0  0  0  0  0  0  0  0  0  0
    1.7969   -5.5386    1.5230 H   0  0  0  0  0  0  0  0  0  0  0  0
    1.0699   -6.2118    0.0330 H   0  0  0  0  0  0  0  0  0  0  0  0
  1  2  3  0
  2  3  1  0
  3  4  2  0
  3  8  1  0
  4  5  1  0
  4 29  1  0
  5  6  2  0
  5 30  1  0
  6  7  1  0
  6 31  1  0
  7  8  2  0
  7 32  1  0
  8  9  1  0
  9 10  1  0
  9 33  1  0
  9 34  1  0
 10 11  1  0
 10 20  1  0
 11 12  2  0
 11 13  1  0
 13 14  1  0
 13 18  1  0
 14 15  2  0
 14 35  1  0
 15 16  1  0
 15 36  1  0
 16 17  2  0
 17 18  1  0
 17 37  1  0
 18 19  1  0
 19 20  2  0
 19 38  1  0
 20 21  1  0
 21 22  1  0
 21 28  1  0
 22 23  1  0
 22 39  1  0
 22 40  1  0
 23 24  1  0
 23 41  1  0
 23 42  1  0
 24 25  1  0
 24 43  1  0
 24 44  1  0
 25 26  1  1
 25 27  1  0
 25 28  1  0
 27 45  1  0
 27 46  1  0
 28 47  1  0
 28 48  1  0
M  END

