
     RDKit          3D

 41 42  0  0  0  0  0  0  0  0999 V2000
    8.9020   -1.7031   -4.9764 C   0  0  0  0  0  0  0  0  0  0  0  0
    8.8183   -1.7520   -3.5536 O   0  0  0  0  0  0  0  0  0  0  0  0
    9.7309   -1.0214   -2.8873 C   0  0  0  0  0  0  0  0  0  0  0  0
   10.5869   -0.3531   -3.4224 O   0  0  0  0  0  0  0  0  0  0  0  0
    9.5778   -1.1220   -1.4299 C   0  0  0  0  0  0  0  0  0  0  0  0
   10.3133   -0.5356   -0.4298 C   0  0  0  0  0  0  0  0  0  0  0  0
    9.7366   -0.9772    0.7974 C   0  0  0  0  0  0  0  0  0  0  0  0
    8.6849   -1.7963    0.4615 C   0  0  0  0  0  0  0  0  0  0  0  0
    7.6828   -2.5862    1.2561 C   0  0  0  0  0  0  0  0  0  0  0  0
    7.6789   -4.0236    1.0284 N   0  0  0  0  0  0  0  0  0  0  0  0
    8.9008   -4.7257    1.4022 C   0  0  0  0  0  0  0  0  0  0  0  0
    8.7714   -6.2529    1.3072 C   0  0  2  0  0  0  0  0  0  0  0  0
    8.5457   -6.7605   -0.1262 C   0  0  0  0  0  0  0  0  0  0  0  0
    8.4238   -8.2874   -0.1454 C   0  0  0  0  0  0  0  0  0  0  0  0
    7.3585   -8.7631    0.8430 C   0  0  0  0  0  0  0  0  0  0  0  0
    7.6260   -8.2685    2.1855 N   0  0  0  0  0  0  0  0  0  0  0  0
    6.7241   -8.8212    3.1729 C   0  0  0  0  0  0  0  0  0  0  0  0
    7.6870   -6.8120    2.2396 C   0  0  0  0  0  0  0  0  0  0  0  0
    8.5872   -1.8869   -0.8880 O   0  0  0  0  0  0  0  0  0  0  0  0
    8.0971   -2.3469   -5.3519 H   0  0  0  0  0  0  0  0  0  0  0  0
    9.8792   -2.0702   -5.3259 H   0  0  0  0  0  0  0  0  0  0  0  0
    8.7694   -0.6735   -5.3429 H   0  0  0  0  0  0  0  0  0  0  0  0
   11.1636    0.1255   -0.5794 H   0  0  0  0  0  0  0  0  0  0  0  0
   10.0539   -0.7243    1.8069 H   0  0  0  0  0  0  0  0  0  0  0  0
    6.6717   -2.2023    1.0317 H   0  0  0  0  0  0  0  0  0  0  0  0
    7.8659   -2.3868    2.3245 H   0  0  0  0  0  0  0  0  0  0  0  0
    7.4435   -4.2103    0.0547 H   0  0  0  0  0  0  0  0  0  0  0  0
    9.1305   -4.4548    2.4487 H   0  0  0  0  0  0  0  0  0  0  0  0
    9.7854   -4.4107    0.8053 H   0  0  0  0  0  0  0  0  0  0  0  0
    9.7356   -6.6687    1.6525 H   0  0  0  0  0  0  0  0  0  0  0  0
    9.3651   -6.4252   -0.7853 H   0  0  0  0  0  0  0  0  0  0  0  0
    7.6126   -6.3266   -0.5316 H   0  0  0  0  0  0  0  0  0  0  0  0
    9.3917   -8.7385    0.1334 H   0  0  0  0  0  0  0  0  0  0  0  0
    8.1764   -8.6462   -1.1583 H   0  0  0  0  0  0  0  0  0  0  0  0
    7.3368   -9.8654    0.8737 H   0  0  0  0  0  0  0  0  0  0  0  0
    6.3507   -8.4374    0.4824 H   0  0  0  0  0  0  0  0  0  0  0  0
    6.7682   -9.9223    3.1544 H   0  0  0  0  0  0  0  0  0  0  0  0
    5.6599   -8.5242    3.0164 H   0  0  0  0  0  0  0  0  0  0  0  0
    7.0155   -8.4890    4.1826 H   0  0  0  0  0  0  0  0  0  0  0  0
    7.9080   -6.5134    3.2789 H   0  0  0  0  0  0  0  0  0  0  0  0
    6.7095   -6.3451    1.9793 H   0  0  0  0  0  0  0  0  0  0  0  0
  1  2  1  0
  1 20  1  0
  1 21  1  0
  1 22  1  0
  2  3  1  0
  3  4  2  0
  3  5  1  0
  5  6  2  0
  5 19  1  0
  6  7  1  0
  6 23  1  0
  7  8  2  0
  7 24  1  0
  8  9  1  0
  8 19  1  0
  9 10  1  0
  9 25  1  0
  9 26  1  0
 10 11  1  0
 10 27  1  0
 11 12  1  0
 11 28  1  0
 11 29  1  0
 12 13  1  0
 12 18  1  0
 12 30  1  1
 13 14  1  0
 13 31  1  0
 13 32  1  0
 14 15  1  0
 14 33  1  0
 14 34  1  0
 15 16  1  0
 15 35  1  0
 15 36  1  0
 16 17  1  0
 16 18  1  0
 17 37  1  0
 17 38  1  0
 17 39  1  0
 18 40  1  0
 18 41  1  0
M  END

