
     RDKit          3D

 53 56  0  0  0  0  0  0  0  0999 V2000
    0.0653   -1.6518    2.0884 C   0  0  0  0  0  0  0  0  0  0  0  0
    1.0953   -0.9698    3.0048 C   0  0  0  0  0  0  0  0  0  0  0  0
    1.7212    0.2668    2.3886 C   0  0  0  0  0  0  0  0  0  0  0  0
    1.1025    1.5086    2.5878 C   0  0  0  0  0  0  0  0  0  0  0  0
    1.5838    2.6795    2.0004 C   0  0  0  0  0  0  0  0  0  0  0  0
    2.7167    2.6136    1.1881 C   0  0  0  0  0  0  0  0  0  0  0  0
    3.3646    1.3975    0.9712 C   0  0  0  0  0  0  0  0  0  0  0  0
    2.8775    0.2183    1.5666 C   0  0  0  0  0  0  0  0  0  0  0  0
    3.5185   -1.0282    1.3796 N   0  0  0  0  0  0  0  0  0  0  0  0
    4.6908   -1.3069    0.7144 C   0  0  0  0  0  0  0  0  0  0  0  0
    5.3572   -0.4847    0.1085 O   0  0  0  0  0  0  0  0  0  0  0  0
    5.1500   -2.7434    0.8178 C   0  0  0  0  0  0  0  0  0  0  0  0
    6.5119   -2.9881    0.6782 C   0  0  0  0  0  0  0  0  0  0  0  0
    7.0530   -4.2991    0.7851 C   0  0  0  0  0  0  0  0  0  0  0  0
    8.5387   -4.5129    0.6526 C   0  0  0  0  0  0  0  0  0  0  0  0
    6.2906   -5.3676    1.0107 N   0  0  0  0  0  0  0  0  0  0  0  0
    4.9820   -5.1320    1.1168 C   0  0  0  0  0  0  0  0  0  0  0  0
    4.3228   -3.8735    1.0357 C   0  0  0  0  0  0  0  0  0  0  0  0
    2.9396   -4.2121    1.1758 C   0  0  0  0  0  0  0  0  0  0  0  0
    2.7846   -5.5165    1.3355 N   0  0  0  0  0  0  0  0  0  0  0  0
    4.0069   -6.0748    1.2962 N   0  0  0  0  0  0  0  0  0  0  0  0
    4.1937   -7.5076    1.5008 C   0  0  0  0  0  0  0  0  0  0  0  0
    4.2266   -7.9108    2.9615 C   0  0  0  0  0  0  0  0  0  0  0  0
    3.0424   -8.2045    3.6518 C   0  0  0  0  0  0  0  0  0  0  0  0
    3.0735   -8.5513    5.0038 C   0  0  0  0  0  0  0  0  0  0  0  0
    4.2855   -8.6168    5.7097 C   0  0  0  0  0  0  0  0  0  0  0  0
    4.3198   -9.0277    7.1618 C   0  0  0  0  0  0  0  0  0  0  0  0
    5.4666   -8.3139    5.0139 C   0  0  0  0  0  0  0  0  0  0  0  0
    5.4399   -7.9661    3.6618 C   0  0  0  0  0  0  0  0  0  0  0  0
   -0.3396   -2.5655    2.5521 H   0  0  0  0  0  0  0  0  0  0  0  0
    0.5042   -1.9262    1.1156 H   0  0  0  0  0  0  0  0  0  0  0  0
   -0.7756   -0.9730    1.8781 H   0  0  0  0  0  0  0  0  0  0  0  0
    1.8632   -1.7020    3.3131 H   0  0  0  0  0  0  0  0  0  0  0  0
    0.5988   -0.6786    3.9443 H   0  0  0  0  0  0  0  0  0  0  0  0
    0.2151    1.5507    3.2265 H   0  0  0  0  0  0  0  0  0  0  0  0
    1.0785    3.6318    2.1776 H   0  0  0  0  0  0  0  0  0  0  0  0
    3.1111    3.5173    0.7164 H   0  0  0  0  0  0  0  0  0  0  0  0
    4.2524    1.3411    0.3474 H   0  0  0  0  0  0  0  0  0  0  0  0
    3.1322   -1.7953    1.9146 H   0  0  0  0  0  0  0  0  0  0  0  0
    7.1714   -2.1405    0.4846 H   0  0  0  0  0  0  0  0  0  0  0  0
    8.9230   -4.0672   -0.2791 H   0  0  0  0  0  0  0  0  0  0  0  0
    8.7648   -5.5871    0.6571 H   0  0  0  0  0  0  0  0  0  0  0  0
    9.0809   -4.0355    1.4863 H   0  0  0  0  0  0  0  0  0  0  0  0
    2.0585   -3.5740    1.1397 H   0  0  0  0  0  0  0  0  0  0  0  0
    5.1405   -7.7677    1.0083 H   0  0  0  0  0  0  0  0  0  0  0  0
    3.3715   -8.0123    0.9742 H   0  0  0  0  0  0  0  0  0  0  0  0
    2.0851   -8.1522    3.1262 H   0  0  0  0  0  0  0  0  0  0  0  0
    2.1366   -8.7760    5.5222 H   0  0  0  0  0  0  0  0  0  0  0  0
    3.3960   -8.7390    7.6863 H   0  0  0  0  0  0  0  0  0  0  0  0
    5.1708   -8.5725    7.6915 H   0  0  0  0  0  0  0  0  0  0  0  0
    4.4221  -10.1227    7.2621 H   0  0  0  0  0  0  0  0  0  0  0  0
    6.4251   -8.3503    5.5402 H   0  0  0  0  0  0  0  0  0  0  0  0
    6.3713   -7.7234    3.1426 H   0  0  0  0  0  0  0  0  0  0  0  0
  1  2  1  0
  1 30  1  0
  1 31  1  0
  1 32  1  0
  2  3  1  0
  2 33  1  0
  2 34  1  0
  3  4  2  0
  3  8  1  0
  4  5  1  0
  4 35  1  0
  5  6  2  0
  5 36  1  0
  6  7  1  0
  6 37  1  0
  7  8  2  0
  7 38  1  0
  8  9  1  0
  9 10  1  0
  9 39  1  0
 10 11  2  0
 10 12  1  0
 12 13  2  0
 12 18  1  0
 13 14  1  0
 13 40  1  0
 14 15  1  0
 14 16  2  0
 15 41  1  0
 15 42  1  0
 15 43  1  0
 16 17  1  0
 17 18  2  0
 17 21  1  0
 18 19  1  0
 19 20  2  0
 19 44  1  0
 20 21  1  0
 21 22  1  0
 22 23  1  0
 22 45  1  0
 22 46  1  0
 23 24  2  0
 23 29  1  0
 24 25  1  0
 24 47  1  0
 25 26  2  0
 25 48  1  0
 26 27  1  0
 26 28  1  0
 27 49  1  0
 27 50  1  0
 27 51  1  0
 28 29  2  0
 28 52  1  0
 29 53  1  0
M  END

