
     RDKit          3D

 61 62  0  0  0  0  0  0  0  0999 V2000
    4.9806    2.4756    3.0421 C   0  0  0  0  0  0  0  0  0  0  0  0
    4.8678    1.1465    2.3223 C   0  0  0  0  0  0  0  0  0  0  0  0
    5.7207    1.2032    1.1639 O   0  0  0  0  0  0  0  0  0  0  0  0
    5.5358    0.2961    0.1339 C   0  0  1  0  0  0  0  0  0  0  0  0
    5.6733   -1.1770    0.5059 C   0  0  0  0  0  0  0  0  0  0  0  0
    4.6285   -1.5714    1.3569 O   0  0  0  0  0  0  0  0  0  0  0  0
    4.7123   -2.9185    1.7481 C   0  0  0  0  0  0  0  0  0  0  0  0
    4.3771    0.4819   -0.5909 O   0  0  0  0  0  0  0  0  0  0  0  0
    4.0690    1.8063   -1.0697 C   0  0  0  0  0  0  0  0  0  0  0  0
    2.5722    1.8923   -1.2927 C   0  0  0  0  0  0  0  0  0  0  0  0
    7.1194    0.7498   -0.9317 S   0  0  0  0  0  0  0  0  0  0  0  0
    8.2875   -0.0362   -0.3621 O   0  0  0  0  0  0  0  0  0  0  0  0
    6.6208   -0.1591   -2.4974 C   0  0  0  0  0  0  0  0  0  0  0  0
    6.9969    0.6895   -3.6984 C   0  0  0  0  0  0  0  0  0  0  0  0
    6.1986    1.4962   -4.1559 O   0  0  0  0  0  0  0  0  0  0  0  0
    8.2607    0.5650   -4.2179 N   0  0  0  0  0  0  0  0  0  0  0  0
    8.6553    1.5236   -5.2629 C   0  0  0  0  0  0  0  0  0  0  0  0
   10.1350    1.2933   -5.5652 C   0  0  0  0  0  0  0  0  0  0  0  0
   10.8742    0.7337   -3.9825 S   0  0  0  0  0  0  0  0  0  0  0  0
    9.3468   -0.2333   -3.6397 C   0  0  2  0  0  0  0  0  0  0  0  0
    9.3809   -1.6382   -4.2497 C   0  0  0  0  0  0  0  0  0  0  0  0
   10.3809   -2.3770   -3.5952 O   0  0  0  0  0  0  0  0  0  0  0  0
   10.6279   -3.6619   -3.9744 C   0  0  0  0  0  0  0  0  0  0  0  0
    9.9186   -4.3415   -4.9728 C   0  0  0  0  0  0  0  0  0  0  0  0
   10.2222   -5.6763   -5.2737 C   0  0  0  0  0  0  0  0  0  0  0  0
   11.2320   -6.3413   -4.5812 C   0  0  0  0  0  0  0  0  0  0  0  0
   11.9504   -5.6615   -3.5905 C   0  0  0  0  0  0  0  0  0  0  0  0
   11.6662   -4.3312   -3.2776 C   0  0  0  0  0  0  0  0  0  0  0  0
   12.3503   -3.7270   -2.2649 O   0  0  0  0  0  0  0  0  0  0  0  0
   13.2123   -2.6499   -2.6093 C   0  0  0  0  0  0  0  0  0  0  0  0
    4.3809    2.4568    3.9658 H   0  0  0  0  0  0  0  0  0  0  0  0
    4.6206    3.3045    2.4127 H   0  0  0  0  0  0  0  0  0  0  0  0
    6.0275    2.6819    3.3134 H   0  0  0  0  0  0  0  0  0  0  0  0
    3.8323    0.9363    2.0095 H   0  0  0  0  0  0  0  0  0  0  0  0
    5.1866    0.3154    2.9708 H   0  0  0  0  0  0  0  0  0  0  0  0
    6.6656   -1.3088    0.9757 H   0  0  0  0  0  0  0  0  0  0  0  0
    5.6627   -1.7779   -0.4251 H   0  0  0  0  0  0  0  0  0  0  0  0
    3.8624   -3.1271    2.4137 H   0  0  0  0  0  0  0  0  0  0  0  0
    5.6536   -3.1349    2.2918 H   0  0  0  0  0  0  0  0  0  0  0  0
    4.6564   -3.6033    0.8780 H   0  0  0  0  0  0  0  0  0  0  0  0
    4.6122    1.9819   -2.0154 H   0  0  0  0  0  0  0  0  0  0  0  0
    4.4104    2.5501   -0.3336 H   0  0  0  0  0  0  0  0  0  0  0  0
    2.2397    1.1306   -2.0145 H   0  0  0  0  0  0  0  0  0  0  0  0
    2.3083    2.8834   -1.6938 H   0  0  0  0  0  0  0  0  0  0  0  0
    2.0220    1.7377   -0.3515 H   0  0  0  0  0  0  0  0  0  0  0  0
    5.5312   -0.2814   -2.4948 H   0  0  0  0  0  0  0  0  0  0  0  0
    7.1238   -1.1313   -2.4178 H   0  0  0  0  0  0  0  0  0  0  0  0
    8.4733    2.5454   -4.8924 H   0  0  0  0  0  0  0  0  0  0  0  0
    8.0288    1.3925   -6.1596 H   0  0  0  0  0  0  0  0  0  0  0  0
   10.6371    2.2164   -5.8858 H   0  0  0  0  0  0  0  0  0  0  0  0
   10.2841    0.5327   -6.3474 H   0  0  0  0  0  0  0  0  0  0  0  0
    9.2587   -0.3087   -2.5457 H   0  0  0  0  0  0  0  0  0  0  0  0
    9.5689   -1.5809   -5.3382 H   0  0  0  0  0  0  0  0  0  0  0  0
    8.3906   -2.1145   -4.1113 H   0  0  0  0  0  0  0  0  0  0  0  0
    9.1165   -3.8416   -5.5166 H   0  0  0  0  0  0  0  0  0  0  0  0
    9.6545   -6.1906   -6.0530 H   0  0  0  0  0  0  0  0  0  0  0  0
   11.4674   -7.3835   -4.8091 H   0  0  0  0  0  0  0  0  0  0  0  0
   12.7475   -6.1517   -3.0270 H   0  0  0  0  0  0  0  0  0  0  0  0
   13.6731   -2.3061   -1.6726 H   0  0  0  0  0  0  0  0  0  0  0  0
   12.6659   -1.8130   -3.0709 H   0  0  0  0  0  0  0  0  0  0  0  0
   14.0101   -2.9870   -3.2968 H   0  0  0  0  0  0  0  0  0  0  0  0
  1  2  1  0
  1 31  1  0
  1 32  1  0
  1 33  1  0
  2  3  1  0
  2 34  1  0
  2 35  1  0
  4  3  1  1
  4  5  1  0
  4  8  1  0
  4 11  1  0
  5  6  1  0
  5 36  1  0
  5 37  1  0
  6  7  1  0
  7 38  1  0
  7 39  1  0
  7 40  1  0
  8  9  1  0
  9 10  1  0
  9 41  1  0
  9 42  1  0
 10 43  1  0
 10 44  1  0
 10 45  1  0
 11 12  1  1
 11 13  1  0
 13 14  1  0
 13 46  1  0
 13 47  1  0
 14 15  2  0
 14 16  1  0
 16 17  1  0
 16 20  1  0
 17 18  1  0
 17 48  1  0
 17 49  1  0
 18 19  1  0
 18 50  1  0
 18 51  1  0
 19 20  1  0
 20 21  1  0
 20 52  1  1
 21 22  1  0
 21 53  1  0
 21 54  1  0
 22 23  1  0
 23 24  2  0
 23 28  1  0
 24 25  1  0
 24 55  1  0
 25 26  2  0
 25 56  1  0
 26 27  1  0
 26 57  1  0
 27 28  2  0
 27 58  1  0
 28 29  1  0
 29 30  1  0
 30 59  1  0
 30 60  1  0
 30 61  1  0
M  CHG  2  11   1  12  -1
M  END

