
     RDKit          3D

 15 15  0  0  0  0  0  0  0  0999 V2000
    0.8792   -0.0258    0.6418 F   0  0  0  0  0  0  0  0  0  0  0  0
    2.3871    0.0853    0.0555 Si  0  0  1  0  0  4  0  0  0  0  0  0
    2.2107    0.3320   -1.5320 F   0  0  0  0  0  0  0  0  0  0  0  0
    3.3863    1.3888    0.9730 C   0  0  0  0  0  0  0  0  0  0  0  0
    4.7083    0.6524    1.2728 C   0  0  2  0  0  0  0  0  0  0  0  0
    5.9005    0.7863   -0.3119 Br  0  0  0  0  0  0  0  0  0  0  0  0
    4.3488   -0.8107    1.5945 C   0  0  2  0  0  0  0  0  0  0  0  0
    5.9119   -1.9303    2.0250 Br  0  0  0  0  0  0  0  0  0  0  0  0
    3.4499   -1.4013    0.5005 C   0  0  0  0  0  0  0  0  0  0  0  0
    2.8739    1.6103    1.9275 H   0  0  0  0  0  0  0  0  0  0  0  0
    3.5458    2.3439    0.4554 H   0  0  0  0  0  0  0  0  0  0  0  0
    5.2895    1.1086    2.0828 H   0  0  0  0  0  0  0  0  0  0  0  0
    3.7997   -0.7807    2.5489 H   0  0  0  0  0  0  0  0  0  0  0  0
    2.8911   -2.2788    0.8548 H   0  0  0  0  0  0  0  0  0  0  0  0
    4.0497   -1.7057   -0.3715 H   0  0  0  0  0  0  0  0  0  0  0  0
  2  1  1  1
  2  3  1  0
  2  4  1  0
  2  9  1  0
  4  5  1  0
  4 10  1  0
  4 11  1  0
  5  6  1  0
  5  7  1  0
  5 12  1  1
  7  8  1  0
  7  9  1  0
  7 13  1  1
  9 14  1  0
  9 15  1  0
M  END

