
     RDKit          3D

 36 36  0  0  0  0  0  0  0  0999 V2000
    0.7634   -0.4233    0.7260 C   0  0  0  0  0  0  0  0  0  0  0  0
    2.2641   -0.3803    1.0421 C   0  0  1  0  0  0  0  0  0  0  0  0
    2.5349   -0.5929    2.5357 C   0  0  0  0  0  0  0  0  0  0  0  0
    3.0329   -1.3938    0.1753 C   0  0  1  0  0  0  0  0  0  0  0  0
    2.5831   -2.6576    0.4731 F   0  0  0  0  0  0  0  0  0  0  0  0
    2.6998   -1.1734   -1.1416 F   0  0  0  0  0  0  0  0  0  0  0  0
    4.5438   -1.3540    0.2961 C   0  0  0  0  0  0  0  0  0  0  0  0
    5.2457   -2.3274    1.0099 C   0  0  0  0  0  0  0  0  0  0  0  0
    6.6392   -2.2629    1.1207 C   0  0  0  0  0  0  0  0  0  0  0  0
    7.3777   -1.2308    0.5224 C   0  0  0  0  0  0  0  0  0  0  0  0
    8.9121   -1.1294    0.6224 C   0  0  1  0  0  0  0  0  0  0  0  0
    9.5177   -2.2719    1.4575 C   0  0  0  0  0  0  0  0  0  0  0  0
    9.5233   -1.1916   -0.7969 C   0  0  0  0  0  0  0  0  0  0  0  0
    9.2952    0.2122    1.2892 C   0  0  0  0  0  0  0  0  0  0  0  0
    6.6533   -0.2629   -0.2008 C   0  0  0  0  0  0  0  0  0  0  0  0
    5.2662   -0.3198   -0.3159 C   0  0  0  0  0  0  0  0  0  0  0  0
    0.2291    0.3409    1.3115 H   0  0  0  0  0  0  0  0  0  0  0  0
    0.3397   -1.4069    0.9818 H   0  0  0  0  0  0  0  0  0  0  0  0
    0.5722   -0.2374   -0.3400 H   0  0  0  0  0  0  0  0  0  0  0  0
    2.6581    0.6091    0.7508 H   0  0  0  0  0  0  0  0  0  0  0  0
    2.1822   -1.5853    2.8582 H   0  0  0  0  0  0  0  0  0  0  0  0
    1.9990    0.1636    3.1293 H   0  0  0  0  0  0  0  0  0  0  0  0
    3.6054   -0.5159    2.7782 H   0  0  0  0  0  0  0  0  0  0  0  0
    4.7017   -3.1493    1.4779 H   0  0  0  0  0  0  0  0  0  0  0  0
    7.1451   -3.0455    1.6862 H   0  0  0  0  0  0  0  0  0  0  0  0
    9.3060   -3.2594    1.0187 H   0  0  0  0  0  0  0  0  0  0  0  0
    9.1418   -2.2690    2.4927 H   0  0  0  0  0  0  0  0  0  0  0  0
   10.6123   -2.1595    1.5038 H   0  0  0  0  0  0  0  0  0  0  0  0
    9.2684   -2.1402   -1.2955 H   0  0  0  0  0  0  0  0  0  0  0  0
   10.6221   -1.1180   -0.7458 H   0  0  0  0  0  0  0  0  0  0  0  0
    9.1643   -0.3707   -1.4361 H   0  0  0  0  0  0  0  0  0  0  0  0
    8.8757    0.2826    2.3054 H   0  0  0  0  0  0  0  0  0  0  0  0
    8.9290    1.0769    0.7151 H   0  0  0  0  0  0  0  0  0  0  0  0
   10.3911    0.3040    1.3663 H   0  0  0  0  0  0  0  0  0  0  0  0
    7.1816    0.5556   -0.6950 H   0  0  0  0  0  0  0  0  0  0  0  0
    4.7404    0.4386   -0.9008 H   0  0  0  0  0  0  0  0  0  0  0  0
  1  2  1  0
  1 17  1  0
  1 18  1  0
  1 19  1  0
  2  3  1  0
  2  4  1  0
  2 20  1  6
  3 21  1  0
  3 22  1  0
  3 23  1  0
  4  5  1  1
  4  6  1  0
  4  7  1  0
  7  8  2  0
  7 16  1  0
  8  9  1  0
  8 24  1  0
  9 10  2  0
  9 25  1  0
 10 11  1  0
 10 15  1  0
 11 12  1  1
 11 13  1  0
 11 14  1  0
 12 26  1  0
 12 27  1  0
 12 28  1  0
 13 29  1  0
 13 30  1  0
 13 31  1  0
 14 32  1  0
 14 33  1  0
 14 34  1  0
 15 16  2  0
 15 35  1  0
 16 36  1  0
M  END

