
     RDKit          3D

 44 45  0  0  0  0  0  0  0  0999 V2000
    6.2586   -1.8006    3.5229 C   0  0  0  0  0  0  0  0  0  0  0  0
    5.1171   -1.9688    2.7161 O   0  0  0  0  0  0  0  0  0  0  0  0
    4.2609   -0.9203    2.5294 C   0  0  0  0  0  0  0  0  0  0  0  0
    4.4544    0.3375    3.1217 C   0  0  0  0  0  0  0  0  0  0  0  0
    3.5335    1.3651    2.8956 C   0  0  0  0  0  0  0  0  0  0  0  0
    2.4221    1.1460    2.0824 C   0  0  0  0  0  0  0  0  0  0  0  0
    2.2361   -0.1100    1.4961 C   0  0  0  0  0  0  0  0  0  0  0  0
    3.1425   -1.1578    1.6962 C   0  0  0  0  0  0  0  0  0  0  0  0
    2.9093   -2.5362    1.0914 C   0  0  1  0  0  0  0  0  0  0  0  0
    1.8249   -3.2774    1.9246 C   0  0  0  0  0  0  0  0  0  0  0  0
    0.5180   -2.6489    2.0153 N   0  0  0  0  0  0  0  0  0  0  0  0
   -0.3439   -2.8664    0.8686 C   0  0  0  0  0  0  0  0  0  0  0  0
   -0.1581   -2.9234    3.2669 C   0  0  0  0  0  0  0  0  0  0  0  0
    2.6073   -2.4638   -0.3565 N   0  0  0  0  0  0  0  0  0  0  0  0
    3.5269   -1.6405   -1.1542 C   0  0  0  0  0  0  0  0  0  0  0  0
    4.8780   -2.3140   -1.4266 C   0  0  0  0  0  0  0  0  0  0  0  0
    4.6504   -3.5953   -2.0869 N   0  0  0  0  0  0  0  0  0  0  0  0
    3.7919   -4.4736   -1.3020 C   0  0  0  0  0  0  0  0  0  0  0  0
    2.4594   -3.7629   -1.0250 C   0  0  0  0  0  0  0  0  0  0  0  0
    6.9343   -1.0210    3.1265 H   0  0  0  0  0  0  0  0  0  0  0  0
    6.7885   -2.7632    3.5210 H   0  0  0  0  0  0  0  0  0  0  0  0
    5.9938   -1.5419    4.5642 H   0  0  0  0  0  0  0  0  0  0  0  0
    5.3187    0.5239    3.7591 H   0  0  0  0  0  0  0  0  0  0  0  0
    3.6948    2.3406    3.3621 H   0  0  0  0  0  0  0  0  0  0  0  0
    1.6998    1.9464    1.9049 H   0  0  0  0  0  0  0  0  0  0  0  0
    1.3738   -0.2927    0.8549 H   0  0  0  0  0  0  0  0  0  0  0  0
    3.8282   -3.1220    1.2743 H   0  0  0  0  0  0  0  0  0  0  0  0
    2.2427   -3.3280    2.9415 H   0  0  0  0  0  0  0  0  0  0  0  0
    1.7504   -4.3365    1.5871 H   0  0  0  0  0  0  0  0  0  0  0  0
    0.1670   -2.5478   -0.0493 H   0  0  0  0  0  0  0  0  0  0  0  0
   -1.2645   -2.2695    0.9756 H   0  0  0  0  0  0  0  0  0  0  0  0
   -0.6515   -3.9333    0.7508 H   0  0  0  0  0  0  0  0  0  0  0  0
    0.4744   -2.6279    4.1187 H   0  0  0  0  0  0  0  0  0  0  0  0
   -0.4301   -3.9978    3.4013 H   0  0  0  0  0  0  0  0  0  0  0  0
   -1.0916   -2.3402    3.3253 H   0  0  0  0  0  0  0  0  0  0  0  0
    3.6794   -0.6694   -0.6661 H   0  0  0  0  0  0  0  0  0  0  0  0
    3.0395   -1.4508   -2.1268 H   0  0  0  0  0  0  0  0  0  0  0  0
    5.4412   -2.4092   -0.4701 H   0  0  0  0  0  0  0  0  0  0  0  0
    5.4780   -1.6672   -2.0890 H   0  0  0  0  0  0  0  0  0  0  0  0
    5.5331   -4.0529   -2.3048 H   0  0  0  0  0  0  0  0  0  0  0  0
    4.2539   -4.7856   -0.3369 H   0  0  0  0  0  0  0  0  0  0  0  0
    3.5964   -5.3973   -1.8729 H   0  0  0  0  0  0  0  0  0  0  0  0
    1.7967   -4.4195   -0.4457 H   0  0  0  0  0  0  0  0  0  0  0  0
    1.9654   -3.5813   -1.9959 H   0  0  0  0  0  0  0  0  0  0  0  0
  1  2  1  0
  1 20  1  0
  1 21  1  0
  1 22  1  0
  2  3  1  0
  3  4  2  0
  3  8  1  0
  4  5  1  0
  4 23  1  0
  5  6  2  0
  5 24  1  0
  6  7  1  0
  6 25  1  0
  7  8  2  0
  7 26  1  0
  8  9  1  0
  9 10  1  0
  9 14  1  0
  9 27  1  6
 10 11  1  0
 10 28  1  0
 10 29  1  0
 11 12  1  0
 11 13  1  0
 12 30  1  0
 12 31  1  0
 12 32  1  0
 13 33  1  0
 13 34  1  0
 13 35  1  0
 14 15  1  0
 14 19  1  0
 15 16  1  0
 15 36  1  0
 15 37  1  0
 16 17  1  0
 16 38  1  0
 16 39  1  0
 17 18  1  0
 17 40  1  0
 18 19  1  0
 18 41  1  0
 18 42  1  0
 19 43  1  0
 19 44  1  0
M  END

