
     RDKit          3D

 57 59  0  0  0  0  0  0  0  0999 V2000
    8.0872    0.8243   -6.3315 C   0  0  0  0  0  0  0  0  0  0  0  0
    8.8590   -0.1041   -5.4139 C   0  0  0  0  0  0  0  0  0  0  0  0
    7.9846   -0.5262   -4.3777 O   0  0  0  0  0  0  0  0  0  0  0  0
    8.4304   -1.3675   -3.4156 C   0  0  0  0  0  0  0  0  0  0  0  0
    9.7351   -1.8826   -3.3496 C   0  0  0  0  0  0  0  0  0  0  0  0
   10.0840   -2.7523   -2.3110 C   0  0  0  0  0  0  0  0  0  0  0  0
    9.1561   -3.1168   -1.3316 C   0  0  0  0  0  0  0  0  0  0  0  0
    9.5519   -4.0230   -0.2968 N   0  0  0  0  0  0  0  0  0  0  0  0
    9.7982   -3.4648    1.2922 S   0  0  1  0  0  0  0  0  0  0  0  0
    9.0026   -2.2604    1.5449 O   0  0  0  0  0  0  0  0  0  0  0  0
    9.6561   -4.6676    2.1160 O   0  0  0  0  0  0  0  0  0  0  0  0
   11.5244   -2.9711    1.2872 C   0  0  0  0  0  0  0  0  0  0  0  0
   11.8484   -1.6151    1.2339 C   0  0  0  0  0  0  0  0  0  0  0  0
   13.1949   -1.2408    1.2292 C   0  0  0  0  0  0  0  0  0  0  0  0
   14.2057   -2.2114    1.2936 C   0  0  0  0  0  0  0  0  0  0  0  0
   15.6717   -1.8622    1.4190 C   0  0  0  0  0  0  0  0  0  0  0  0
   16.3493   -2.4465    2.2551 O   0  0  0  0  0  0  0  0  0  0  0  0
   16.1919   -0.8775    0.6124 N   0  0  0  0  0  0  0  0  0  0  0  0
   15.5682   -0.3934   -0.6117 C   0  0  0  0  0  0  0  0  0  0  0  0
   17.5868   -0.4577    0.8794 C   0  0  1  0  0  0  0  0  0  0  0  0
   18.5846   -1.2676    0.0461 C   0  0  0  0  0  0  0  0  0  0  0  0
   17.7123    1.0604    0.7710 C   0  0  0  0  0  0  0  0  0  0  0  0
   17.0057    1.8624    1.6851 C   0  0  0  0  0  0  0  0  0  0  0  0
   17.0836    3.2544    1.6332 C   0  0  0  0  0  0  0  0  0  0  0  0
   17.8774    3.8770    0.6627 C   0  0  0  0  0  0  0  0  0  0  0  0
   18.5877    3.0936   -0.2481 C   0  0  0  0  0  0  0  0  0  0  0  0
   18.5049    1.6967   -0.1940 C   0  0  0  0  0  0  0  0  0  0  0  0
   13.8517   -3.5685    1.3912 C   0  0  0  0  0  0  0  0  0  0  0  0
   12.5144   -3.9559    1.3759 C   0  0  0  0  0  0  0  0  0  0  0  0
    7.8543   -2.5880   -1.3980 C   0  0  0  0  0  0  0  0  0  0  0  0
    7.4936   -1.7304   -2.4286 C   0  0  0  0  0  0  0  0  0  0  0  0
    8.7342    1.1739   -7.1508 H   0  0  0  0  0  0  0  0  0  0  0  0
    7.7204    1.7018   -5.7776 H   0  0  0  0  0  0  0  0  0  0  0  0
    7.2201    0.3062   -6.7686 H   0  0  0  0  0  0  0  0  0  0  0  0
    9.7359    0.4126   -4.9799 H   0  0  0  0  0  0  0  0  0  0  0  0
    9.2355   -0.9830   -5.9709 H   0  0  0  0  0  0  0  0  0  0  0  0
   10.4815   -1.6225   -4.0999 H   0  0  0  0  0  0  0  0  0  0  0  0
   11.0927   -3.1678   -2.2598 H   0  0  0  0  0  0  0  0  0  0  0  0
    9.0177   -4.8892   -0.2198 H   0  0  0  0  0  0  0  0  0  0  0  0
   11.0510   -0.8708    1.2088 H   0  0  0  0  0  0  0  0  0  0  0  0
   13.4536   -0.1804    1.1995 H   0  0  0  0  0  0  0  0  0  0  0  0
   14.7452   -1.0516   -0.9129 H   0  0  0  0  0  0  0  0  0  0  0  0
   16.3068   -0.3882   -1.4290 H   0  0  0  0  0  0  0  0  0  0  0  0
   15.1825    0.6345   -0.5090 H   0  0  0  0  0  0  0  0  0  0  0  0
   17.7560   -0.7312    1.9303 H   0  0  0  0  0  0  0  0  0  0  0  0
   18.4410   -1.1358   -1.0383 H   0  0  0  0  0  0  0  0  0  0  0  0
   18.4683   -2.3348    0.2834 H   0  0  0  0  0  0  0  0  0  0  0  0
   19.6186   -0.9768    0.2864 H   0  0  0  0  0  0  0  0  0  0  0  0
   16.3883    1.3826    2.4502 H   0  0  0  0  0  0  0  0  0  0  0  0
   16.5288    3.8575    2.3567 H   0  0  0  0  0  0  0  0  0  0  0  0
   17.9434    4.9672    0.6215 H   0  0  0  0  0  0  0  0  0  0  0  0
   19.2138    3.5685   -1.0082 H   0  0  0  0  0  0  0  0  0  0  0  0
   19.0715    1.1055   -0.9157 H   0  0  0  0  0  0  0  0  0  0  0  0
   14.6434   -4.3125    1.4969 H   0  0  0  0  0  0  0  0  0  0  0  0
   12.2305   -5.0070    1.4532 H   0  0  0  0  0  0  0  0  0  0  0  0
    7.1309   -2.8476   -0.6228 H   0  0  0  0  0  0  0  0  0  0  0  0
    6.4863   -1.3145   -2.4936 H   0  0  0  0  0  0  0  0  0  0  0  0
  1  2  1  0
  1 32  1  0
  1 33  1  0
  1 34  1  0
  2  3  1  0
  2 35  1  0
  2 36  1  0
  3  4  1  0
  4  5  2  0
  4 31  1  0
  5  6  1  0
  5 37  1  0
  6  7  2  0
  6 38  1  0
  7  8  1  0
  7 30  1  0
  9  8  1  6
  8 39  1  0
  9 10  2  0
  9 11  2  0
  9 12  1  0
 12 13  2  0
 12 29  1  0
 13 14  1  0
 13 40  1  0
 14 15  2  0
 14 41  1  0
 15 16  1  0
 15 28  1  0
 16 17  2  0
 16 18  1  0
 18 19  1  0
 18 20  1  0
 19 42  1  0
 19 43  1  0
 19 44  1  0
 20 21  1  0
 20 22  1  0
 20 45  1  1
 21 46  1  0
 21 47  1  0
 21 48  1  0
 22 23  2  0
 22 27  1  0
 23 24  1  0
 23 49  1  0
 24 25  2  0
 24 50  1  0
 25 26  1  0
 25 51  1  0
 26 27  2  0
 26 52  1  0
 27 53  1  0
 28 29  2  0
 28 54  1  0
 29 55  1  0
 30 31  2  0
 30 56  1  0
 31 57  1  0
M  END

