
     RDKit          3D

 49 51  0  0  0  0  0  0  0  0999 V2000
    2.8874    0.5819   -1.0043 C   0  0  0  0  0  0  0  0  0  0  0  0
    2.1877    0.1539    0.2959 C   0  0  1  0  0  0  0  0  0  0  0  0
    2.6485    1.0781    1.4548 C   0  0  0  0  0  0  0  0  0  0  0  0
    3.5019    0.6448    2.2188 O   0  0  0  0  0  0  0  0  0  0  0  0
    2.1528    2.3532    1.5776 N   0  0  0  0  0  0  0  0  0  0  0  0
    2.6669    3.2113    2.6459 C   0  0  0  0  0  0  0  0  0  0  0  0
    3.3099    4.4803    2.0707 C   0  0  0  0  0  0  0  0  0  0  0  0
    2.3834    5.2494    1.1052 C   0  0  2  0  0  0  0  0  0  0  0  0
    1.3108    6.0294    1.8238 C   0  0  0  0  0  0  0  0  0  0  0  0
    1.0144    6.2466    3.1570 C   0  0  0  0  0  0  0  0  0  0  0  0
   -0.0582    7.0943    3.2974 N   0  0  0  0  0  0  0  0  0  0  0  0
   -0.4221    7.4016    2.0767 C   0  0  0  0  0  0  0  0  0  0  0  0
    0.3692    6.7847    1.1460 N   0  0  0  0  0  0  0  0  0  0  0  0
    0.2967    6.8831    0.1407 H   0  0  0  0  0  0  0  0  0  0  0  0
    1.8126    4.2604    0.0568 C   0  0  0  0  0  0  0  0  0  0  0  0
    1.1889    3.0197    0.7061 C   0  0  0  0  0  0  0  0  0  0  0  0
    0.7274    0.0587    0.1693 N   0  0  0  0  0  0  0  0  0  0  0  0
    0.2148   -0.7341   -0.9565 C   0  0  0  0  0  0  0  0  0  0  0  0
    0.3059   -2.2522   -0.7121 C   0  0  0  0  0  0  0  0  0  0  0  0
   -0.3450   -2.6694    0.5278 N   0  0  0  0  0  0  0  0  0  0  0  0
   -1.7845   -2.8259    0.4430 C   0  0  0  0  0  0  0  0  0  0  0  0
    0.1274   -1.8718    1.6591 C   0  0  0  0  0  0  0  0  0  0  0  0
    0.0448   -0.3545    1.4061 C   0  0  0  0  0  0  0  0  0  0  0  0
    3.9484    0.7839   -0.7948 H   0  0  0  0  0  0  0  0  0  0  0  0
    2.4390    1.4866   -1.4427 H   0  0  0  0  0  0  0  0  0  0  0  0
    2.8565   -0.2143   -1.7627 H   0  0  0  0  0  0  0  0  0  0  0  0
    2.6481   -0.8056    0.5993 H   0  0  0  0  0  0  0  0  0  0  0  0
    3.3981    2.6271    3.2167 H   0  0  0  0  0  0  0  0  0  0  0  0
    1.8326    3.4734    3.3200 H   0  0  0  0  0  0  0  0  0  0  0  0
    4.2181    4.1875    1.5180 H   0  0  0  0  0  0  0  0  0  0  0  0
    3.6380    5.1369    2.8922 H   0  0  0  0  0  0  0  0  0  0  0  0
    3.0071    5.9836    0.5611 H   0  0  0  0  0  0  0  0  0  0  0  0
    1.5241    5.8348    4.0265 H   0  0  0  0  0  0  0  0  0  0  0  0
   -1.2457    8.0593    1.7961 H   0  0  0  0  0  0  0  0  0  0  0  0
    2.6325    3.9436   -0.6101 H   0  0  0  0  0  0  0  0  0  0  0  0
    1.0605    4.7526   -0.5834 H   0  0  0  0  0  0  0  0  0  0  0  0
    0.8140    2.3055   -0.0338 H   0  0  0  0  0  0  0  0  0  0  0  0
    0.3187    3.3264    1.3172 H   0  0  0  0  0  0  0  0  0  0  0  0
    0.7350   -0.4574   -1.8848 H   0  0  0  0  0  0  0  0  0  0  0  0
   -0.8435   -0.4513   -1.1013 H   0  0  0  0  0  0  0  0  0  0  0  0
    1.3696   -2.5520   -0.6642 H   0  0  0  0  0  0  0  0  0  0  0  0
   -0.1387   -2.8031   -1.5580 H   0  0  0  0  0  0  0  0  0  0  0  0
   -2.0320   -3.5351   -0.3641 H   0  0  0  0  0  0  0  0  0  0  0  0
   -2.3637   -1.8949    0.2498 H   0  0  0  0  0  0  0  0  0  0  0  0
   -2.1648   -3.2542    1.3849 H   0  0  0  0  0  0  0  0  0  0  0  0
    1.1760   -2.1498    1.8691 H   0  0  0  0  0  0  0  0  0  0  0  0
   -0.4531   -2.1389    2.5576 H   0  0  0  0  0  0  0  0  0  0  0  0
    0.4609    0.1988    2.2621 H   0  0  0  0  0  0  0  0  0  0  0  0
   -1.0142   -0.0507    1.3204 H   0  0  0  0  0  0  0  0  0  0  0  0
  1  2  1  0
  1 24  1  0
  1 25  1  0
  1 26  1  0
  2  3  1  0
  2 17  1  0
  2 27  1  1
  3  4  2  0
  3  5  1  0
  5  6  1  0
  5 16  1  0
  6  7  1  0
  6 28  1  0
  6 29  1  0
  7  8  1  0
  7 30  1  0
  7 31  1  0
  8  9  1  0
  8 15  1  0
  8 32  1  6
  9 10  2  0
  9 13  1  0
 10 11  1  0
 10 33  1  0
 11 12  2  0
 12 13  1  0
 12 34  1  0
 13 14  1  0
 15 16  1  0
 15 35  1  0
 15 36  1  0
 16 37  1  0
 16 38  1  0
 17 18  1  0
 17 23  1  0
 18 19  1  0
 18 39  1  0
 18 40  1  0
 19 20  1  0
 19 41  1  0
 19 42  1  0
 20 21  1  0
 20 22  1  0
 21 43  1  0
 21 44  1  0
 21 45  1  0
 22 23  1  0
 22 46  1  0
 22 47  1  0
 23 48  1  0
 23 49  1  0
M  END

