
     RDKit          3D

 44 46  0  0  0  0  0  0  0  0999 V2000
    2.3776    1.0717    1.1129 C   0  0  0  0  0  0  0  0  0  0  0  0
    2.2623    0.7450   -0.1756 C   0  0  0  0  0  0  0  0  0  0  0  0
    3.3948    0.3350   -1.0896 C   0  0  0  0  0  0  0  0  0  0  0  0
    4.7183    0.3496   -0.5010 N   0  0  0  0  0  0  0  0  0  0  0  0
    5.4150   -0.9215   -0.4040 C   0  0  0  0  0  0  0  0  0  0  0  0
    6.6187   -0.7856    0.5222 C   0  0  1  0  0  0  0  0  0  0  0  0
    7.4429   -2.0652    0.7091 C   0  0  0  0  0  0  0  0  0  0  0  0
    7.9650   -2.7082   -0.5573 C   0  0  0  0  0  0  0  0  0  0  0  0
    9.1390   -2.2542   -1.1682 C   0  0  0  0  0  0  0  0  0  0  0  0
    9.6386   -2.8456   -2.3334 C   0  0  0  0  0  0  0  0  0  0  0  0
    8.9549   -3.9195   -2.9019 C   0  0  0  0  0  0  0  0  0  0  0  0
    7.7773   -4.3976   -2.3165 C   0  0  0  0  0  0  0  0  0  0  0  0
    7.2793   -3.7922   -1.1537 C   0  0  0  0  0  0  0  0  0  0  0  0
    6.1295   -4.1878   -0.5319 O   0  0  0  0  0  0  0  0  0  0  0  0
    5.4153   -5.2961   -1.0298 C   0  0  0  0  0  0  0  0  0  0  0  0
    7.4952    0.2256    0.0256 O   0  0  0  0  0  0  0  0  0  0  0  0
    6.9073    1.4095   -0.3264 C   0  0  0  0  0  0  0  0  0  0  0  0
    7.7361    2.5297   -0.4223 C   0  0  0  0  0  0  0  0  0  0  0  0
    7.2122    3.7767   -0.7816 C   0  0  0  0  0  0  0  0  0  0  0  0
    7.9880    4.8942   -0.8923 O   0  0  0  0  0  0  0  0  0  0  0  0
    5.8400    3.8929   -1.0234 C   0  0  0  0  0  0  0  0  0  0  0  0
    5.0141    2.7713   -0.9241 C   0  0  0  0  0  0  0  0  0  0  0  0
    5.5186    1.5004   -0.5915 C   0  0  0  0  0  0  0  0  0  0  0  0
    1.5052    1.3522    1.7089 H   0  0  0  0  0  0  0  0  0  0  0  0
    3.3537    1.0738    1.6062 H   0  0  0  0  0  0  0  0  0  0  0  0
    1.2736    0.7557   -0.6533 H   0  0  0  0  0  0  0  0  0  0  0  0
    3.3657    0.9661   -2.0010 H   0  0  0  0  0  0  0  0  0  0  0  0
    3.1891   -0.6877   -1.4550 H   0  0  0  0  0  0  0  0  0  0  0  0
    5.7633   -1.2836   -1.3934 H   0  0  0  0  0  0  0  0  0  0  0  0
    4.7333   -1.6824    0.0051 H   0  0  0  0  0  0  0  0  0  0  0  0
    6.2510   -0.4664    1.5169 H   0  0  0  0  0  0  0  0  0  0  0  0
    6.8246   -2.7852    1.2636 H   0  0  0  0  0  0  0  0  0  0  0  0
    8.2930   -1.7963    1.3558 H   0  0  0  0  0  0  0  0  0  0  0  0
    9.6670   -1.4122   -0.7146 H   0  0  0  0  0  0  0  0  0  0  0  0
   10.5575   -2.4700   -2.7893 H   0  0  0  0  0  0  0  0  0  0  0  0
    9.3330   -4.3971   -3.8095 H   0  0  0  0  0  0  0  0  0  0  0  0
    7.2544   -5.2371   -2.7746 H   0  0  0  0  0  0  0  0  0  0  0  0
    4.5546   -5.4401   -0.3626 H   0  0  0  0  0  0  0  0  0  0  0  0
    6.0281   -6.2154   -1.0261 H   0  0  0  0  0  0  0  0  0  0  0  0
    5.0458   -5.1217   -2.0565 H   0  0  0  0  0  0  0  0  0  0  0  0
    8.8001    2.3980   -0.2068 H   0  0  0  0  0  0  0  0  0  0  0  0
    8.9045    4.6643   -0.6942 H   0  0  0  0  0  0  0  0  0  0  0  0
    5.4272    4.8690   -1.2840 H   0  0  0  0  0  0  0  0  0  0  0  0
    3.9442    2.8956   -1.0932 H   0  0  0  0  0  0  0  0  0  0  0  0
  1  2  2  0
  1 24  1  0
  1 25  1  0
  2  3  1  0
  2 26  1  0
  3  4  1  0
  3 27  1  0
  3 28  1  0
  4  5  1  0
  4 23  1  0
  5  6  1  0
  5 29  1  0
  5 30  1  0
  6  7  1  0
  6 16  1  0
  6 31  1  1
  7  8  1  0
  7 32  1  0
  7 33  1  0
  8  9  2  0
  8 13  1  0
  9 10  1  0
  9 34  1  0
 10 11  2  0
 10 35  1  0
 11 12  1  0
 11 36  1  0
 12 13  2  0
 12 37  1  0
 13 14  1  0
 14 15  1  0
 15 38  1  0
 15 39  1  0
 15 40  1  0
 16 17  1  0
 17 18  1  0
 17 23  2  0
 18 19  2  0
 18 41  1  0
 19 20  1  0
 19 21  1  0
 20 42  1  0
 21 22  2  0
 21 43  1  0
 22 23  1  0
 22 44  1  0
M  END

