
     RDKit          3D

 29 30  0  0  0  0  0  0  0  0999 V2000
    1.1226   -0.2415    0.0159 O   0  0  0  0  0  0  0  0  0  0  0  0
    2.3324   -0.2002   -0.0182 C   0  0  0  0  0  0  0  0  0  0  0  0
    3.1993   -1.4438    0.1320 C   0  0  0  0  0  0  0  0  0  0  0  0
    4.3008   -1.5115   -0.9401 C   0  0  0  0  0  0  0  0  0  0  0  0
    5.1079   -0.2101   -1.0126 C   0  0  0  0  0  0  0  0  0  0  0  0
    4.2038    1.0115   -1.2804 C   0  0  2  0  0  0  0  0  0  0  0  0
    4.8892    2.2937   -1.3734 N   0  0  0  0  0  0  0  0  0  0  0  0
    5.7007    2.5243   -2.5510 C   0  0  1  0  0  0  0  0  0  0  0  0
    4.9606    2.8086   -3.8863 C   0  0  0  0  0  0  0  0  0  0  0  0
    5.9865    3.9367   -4.1679 C   0  0  0  0  0  0  0  0  0  0  0  0
    6.3585    3.9210   -2.6629 C   0  0  0  0  0  0  0  0  0  0  0  0
    3.0992    1.1016   -0.2063 C   0  0  0  0  0  0  0  0  0  0  0  0
    2.5443   -2.3270    0.1179 H   0  0  0  0  0  0  0  0  0  0  0  0
    3.6700   -1.3931    1.1324 H   0  0  0  0  0  0  0  0  0  0  0  0
    3.8363   -1.7062   -1.9234 H   0  0  0  0  0  0  0  0  0  0  0  0
    4.9652   -2.3672   -0.7387 H   0  0  0  0  0  0  0  0  0  0  0  0
    5.8781   -0.2889   -1.7969 H   0  0  0  0  0  0  0  0  0  0  0  0
    5.6453   -0.0491   -0.0580 H   0  0  0  0  0  0  0  0  0  0  0  0
    3.7058    0.8506   -2.2549 H   0  0  0  0  0  0  0  0  0  0  0  0
    5.4338    2.4676   -0.5275 H   0  0  0  0  0  0  0  0  0  0  0  0
    6.4711    1.7409   -2.7218 H   0  0  0  0  0  0  0  0  0  0  0  0
    3.9570    3.2119   -3.6813 H   0  0  0  0  0  0  0  0  0  0  0  0
    4.8788    1.9900   -4.6182 H   0  0  0  0  0  0  0  0  0  0  0  0
    5.5991    4.8795   -4.5821 H   0  0  0  0  0  0  0  0  0  0  0  0
    6.8171    3.5956   -4.8054 H   0  0  0  0  0  0  0  0  0  0  0  0
    5.7721    4.6583   -2.0927 H   0  0  0  0  0  0  0  0  0  0  0  0
    7.4209    4.0134   -2.3872 H   0  0  0  0  0  0  0  0  0  0  0  0
    2.3910    1.9087   -0.4380 H   0  0  0  0  0  0  0  0  0  0  0  0
    3.5788    1.3445    0.7622 H   0  0  0  0  0  0  0  0  0  0  0  0
  1  2  2  0
  2  3  1  0
  2 12  1  0
  3  4  1  0
  3 13  1  0
  3 14  1  0
  4  5  1  0
  4 15  1  0
  4 16  1  0
  5  6  1  0
  5 17  1  0
  5 18  1  0
  6  7  1  0
  6 12  1  0
  6 19  1  6
  7  8  1  0
  7 20  1  0
  8  9  1  0
  8 11  1  0
  8 21  1  6
  9 10  1  0
  9 22  1  0
  9 23  1  0
 10 11  1  0
 10 24  1  0
 10 25  1  0
 11 26  1  0
 11 27  1  0
 12 28  1  0
 12 29  1  0
M  END

