
     RDKit          3D

 60 63  0  0  0  0  0  0  0  0999 V2000
    8.0301    1.5441    2.9382 C   0  0  0  0  0  0  0  0  0  0  0  0
    6.7788    0.9310    2.3868 C   0  0  0  0  0  0  0  0  0  0  0  0
    5.4901    0.8590    2.9819 C   0  0  0  0  0  0  0  0  0  0  0  0
    4.6913    0.2012    2.0590 C   0  0  0  0  0  0  0  0  0  0  0  0
    3.2459   -0.1786    2.1111 C   0  0  0  0  0  0  0  0  0  0  0  0
    5.5049   -0.0687    0.9929 N   0  0  0  0  0  0  0  0  0  0  0  0
    5.2001   -0.8078   -0.2139 C   0  0  0  0  0  0  0  0  0  0  0  0
    5.5990   -2.2792   -0.1354 C   0  0  2  0  0  0  0  0  0  0  0  0
    5.4380   -2.9950   -1.4795 C   0  0  0  0  0  0  0  0  0  0  0  0
    5.6887   -4.4277   -1.3416 N   0  0  0  0  0  0  0  0  0  0  0  0
    6.7335   -4.9861   -2.0524 C   0  0  0  0  0  0  0  0  0  0  0  0
    7.5103   -4.2985   -2.7004 O   0  0  0  0  0  0  0  0  0  0  0  0
    6.8886   -6.4873   -2.0471 C   0  0  0  0  0  0  0  0  0  0  0  0
    5.8118   -7.3622   -2.2410 C   0  0  0  0  0  0  0  0  0  0  0  0
    6.0534   -8.7382   -2.3357 C   0  0  0  0  0  0  0  0  0  0  0  0
    7.3461   -9.2414   -2.2302 C   0  0  0  0  0  0  0  0  0  0  0  0
    8.4354   -8.3667   -2.0500 C   0  0  0  0  0  0  0  0  0  0  0  0
    9.6561   -8.9517   -1.9879 O   0  0  0  0  0  0  0  0  0  0  0  0
   10.8563   -8.1795   -1.8185 C   0  0  1  0  0  0  0  0  0  0  0  0
   11.0801   -7.8296   -0.3392 C   0  0  0  0  0  0  0  0  0  0  0  0
   11.3465   -9.0760    0.5165 C   0  0  0  0  0  0  0  0  0  0  0  0
   12.5058   -9.9108   -0.0440 C   0  0  0  0  0  0  0  0  0  0  0  0
   12.2682  -10.2796   -1.5143 C   0  0  0  0  0  0  0  0  0  0  0  0
   12.0025   -9.0335   -2.3693 C   0  0  0  0  0  0  0  0  0  0  0  0
    8.1990   -6.9875   -1.9699 C   0  0  0  0  0  0  0  0  0  0  0  0
    4.9374   -5.0606   -0.2622 C   0  0  0  0  0  0  0  0  0  0  0  0
    5.1132   -4.2647    1.0335 C   0  0  0  0  0  0  0  0  0  0  0  0
    4.7844   -2.9036    0.8506 O   0  0  0  0  0  0  0  0  0  0  0  0
    6.7704    0.3605    1.1855 N   0  0  0  0  0  0  0  0  0  0  0  0
    7.9044    2.6240    3.1242 H   0  0  0  0  0  0  0  0  0  0  0  0
    8.8556    1.4108    2.2249 H   0  0  0  0  0  0  0  0  0  0  0  0
    8.3197    1.0808    3.8960 H   0  0  0  0  0  0  0  0  0  0  0  0
    5.1792    1.2387    3.9533 H   0  0  0  0  0  0  0  0  0  0  0  0
    2.8242    0.0900    3.0895 H   0  0  0  0  0  0  0  0  0  0  0  0
    3.1152   -1.2609    1.9582 H   0  0  0  0  0  0  0  0  0  0  0  0
    2.6537    0.3441    1.3396 H   0  0  0  0  0  0  0  0  0  0  0  0
    5.7458   -0.3311   -1.0414 H   0  0  0  0  0  0  0  0  0  0  0  0
    4.1221   -0.7309   -0.4197 H   0  0  0  0  0  0  0  0  0  0  0  0
    6.6606   -2.3354    0.1764 H   0  0  0  0  0  0  0  0  0  0  0  0
    6.1455   -2.6027   -2.2206 H   0  0  0  0  0  0  0  0  0  0  0  0
    4.4048   -2.8438   -1.8466 H   0  0  0  0  0  0  0  0  0  0  0  0
    4.7960   -6.9764   -2.3459 H   0  0  0  0  0  0  0  0  0  0  0  0
    5.2202   -9.4264   -2.5004 H   0  0  0  0  0  0  0  0  0  0  0  0
    7.5488  -10.3120   -2.3003 H   0  0  0  0  0  0  0  0  0  0  0  0
   10.7754   -7.2581   -2.4197 H   0  0  0  0  0  0  0  0  0  0  0  0
   10.2160   -7.2683    0.0508 H   0  0  0  0  0  0  0  0  0  0  0  0
   11.9458   -7.1453   -0.2852 H   0  0  0  0  0  0  0  0  0  0  0  0
   10.4327   -9.6942    0.5448 H   0  0  0  0  0  0  0  0  0  0  0  0
   11.5538   -8.7758    1.5571 H   0  0  0  0  0  0  0  0  0  0  0  0
   12.6475  -10.8219    0.5613 H   0  0  0  0  0  0  0  0  0  0  0  0
   13.4455   -9.3330    0.0408 H   0  0  0  0  0  0  0  0  0  0  0  0
   11.3983  -10.9543   -1.5872 H   0  0  0  0  0  0  0  0  0  0  0  0
   13.1318  -10.8332   -1.9188 H   0  0  0  0  0  0  0  0  0  0  0  0
   11.7724   -9.3115   -3.4103 H   0  0  0  0  0  0  0  0  0  0  0  0
   12.9066   -8.4000   -2.3981 H   0  0  0  0  0  0  0  0  0  0  0  0
    9.0123   -6.2707   -1.8673 H   0  0  0  0  0  0  0  0  0  0  0  0
    5.2828   -6.0900   -0.1125 H   0  0  0  0  0  0  0  0  0  0  0  0
    3.8626   -5.0936   -0.5234 H   0  0  0  0  0  0  0  0  0  0  0  0
    6.1598   -4.3623    1.3869 H   0  0  0  0  0  0  0  0  0  0  0  0
    4.4454   -4.6568    1.8159 H   0  0  0  0  0  0  0  0  0  0  0  0
  1  2  1  0
  1 30  1  0
  1 31  1  0
  1 32  1  0
  2  3  1  0
  2 29  2  0
  3  4  2  0
  3 33  1  0
  4  5  1  0
  4  6  1  0
  5 34  1  0
  5 35  1  0
  5 36  1  0
  6  7  1  0
  6 29  1  0
  7  8  1  0
  7 37  1  0
  7 38  1  0
  8  9  1  0
  8 28  1  0
  8 39  1  1
  9 10  1  0
  9 40  1  0
  9 41  1  0
 10 11  1  0
 10 26  1  0
 11 12  2  0
 11 13  1  0
 13 14  2  0
 13 25  1  0
 14 15  1  0
 14 42  1  0
 15 16  2  0
 15 43  1  0
 16 17  1  0
 16 44  1  0
 17 18  1  0
 17 25  2  0
 18 19  1  0
 19 20  1  0
 19 24  1  0
 19 45  1  6
 20 21  1  0
 20 46  1  0
 20 47  1  0
 21 22  1  0
 21 48  1  0
 21 49  1  0
 22 23  1  0
 22 50  1  0
 22 51  1  0
 23 24  1  0
 23 52  1  0
 23 53  1  0
 24 54  1  0
 24 55  1  0
 25 56  1  0
 26 27  1  0
 26 57  1  0
 26 58  1  0
 27 28  1  0
 27 59  1  0
 27 60  1  0
M  END

