
     RDKit          3D

 57 58  0  0  0  0  0  0  0  0999 V2000
    6.0155    2.5395   -0.0398 C   0  0  0  0  0  0  0  0  0  0  0  0
    4.7743    1.8311   -0.5864 C   0  0  0  0  0  0  0  0  0  0  0  0
    5.0511    0.7085   -1.5901 C   0  0  0  0  0  0  0  0  0  0  0  0
    5.7902   -0.7663   -0.8322 S   0  0  1  0  0  0  0  0  0  0  0  0
    7.1785   -0.4592   -0.4686 O   0  0  0  0  0  0  0  0  0  0  0  0
    4.8415   -1.2421    0.1904 O   0  0  0  0  0  0  0  0  0  0  0  0
    5.8149   -1.8861   -2.0809 N   0  0  0  0  0  0  0  0  0  0  0  0
    7.0968   -2.1761   -2.7641 C   0  0  0  0  0  0  0  0  0  0  0  0
    6.8362   -3.5192   -3.4552 C   0  0  0  0  0  0  0  0  0  0  0  0
    5.8114   -4.2043   -2.5413 C   0  0  0  0  0  0  0  0  0  0  0  0
    4.8993   -3.0511   -2.0692 C   0  0  2  0  0  0  0  0  0  0  0  0
    3.7314   -2.8350   -3.0572 C   0  0  0  0  0  0  0  0  0  0  0  0
    3.9571   -2.8415   -4.2635 O   0  0  0  0  0  0  0  0  0  0  0  0
    2.4672   -2.6601   -2.5609 N   0  0  0  0  0  0  0  0  0  0  0  0
    2.1079   -2.6324   -1.1461 C   0  0  0  0  0  0  0  0  0  0  0  0
    1.3458   -2.6580   -3.5085 C   0  0  0  0  0  0  0  0  0  0  0  0
    0.7571   -1.2738   -3.8101 C   0  0  0  0  0  0  0  0  0  0  0  0
    1.6748   -0.3086   -4.5897 C   0  0  1  0  0  0  0  0  0  0  0  0
    1.9341   -0.7346   -6.0547 C   0  0  0  0  0  0  0  0  0  0  0  0
    0.7102   -0.5096   -6.9544 C   0  0  0  0  0  0  0  0  0  0  0  0
    0.2025    0.9334   -6.8288 C   0  0  0  0  0  0  0  0  0  0  0  0
   -0.0186    1.2953   -5.3496 C   0  0  0  0  0  0  0  0  0  0  0  0
    1.1482    1.0665   -4.4966 N   0  0  0  0  0  0  0  0  0  0  0  0
    2.1583    2.1030   -4.5866 C   0  0  0  0  0  0  0  0  0  0  0  0
    5.7249    3.3481    0.6488 H   0  0  0  0  0  0  0  0  0  0  0  0
    6.6081    2.9894   -0.8537 H   0  0  0  0  0  0  0  0  0  0  0  0
    6.6728    1.8435    0.5002 H   0  0  0  0  0  0  0  0  0  0  0  0
    4.1244    2.5600   -1.1014 H   0  0  0  0  0  0  0  0  0  0  0  0
    4.1726    1.4161    0.2391 H   0  0  0  0  0  0  0  0  0  0  0  0
    5.7458    1.0124   -2.3886 H   0  0  0  0  0  0  0  0  0  0  0  0
    4.1230    0.3407   -2.0521 H   0  0  0  0  0  0  0  0  0  0  0  0
    7.9123   -2.2417   -2.0266 H   0  0  0  0  0  0  0  0  0  0  0  0
    7.3525   -1.3788   -3.4796 H   0  0  0  0  0  0  0  0  0  0  0  0
    7.7626   -4.1011   -3.5743 H   0  0  0  0  0  0  0  0  0  0  0  0
    6.3869   -3.3566   -4.4435 H   0  0  0  0  0  0  0  0  0  0  0  0
    6.3088   -4.6417   -1.6602 H   0  0  0  0  0  0  0  0  0  0  0  0
    5.2504   -5.0022   -3.0480 H   0  0  0  0  0  0  0  0  0  0  0  0
    4.5448   -3.2259   -1.0489 H   0  0  0  0  0  0  0  0  0  0  0  0
    2.9017   -2.1942   -0.5300 H   0  0  0  0  0  0  0  0  0  0  0  0
    1.8595   -3.6397   -0.7627 H   0  0  0  0  0  0  0  0  0  0  0  0
    1.2169   -1.9995   -1.0198 H   0  0  0  0  0  0  0  0  0  0  0  0
    0.5539   -3.2960   -3.0797 H   0  0  0  0  0  0  0  0  0  0  0  0
    1.6943   -3.1397   -4.4308 H   0  0  0  0  0  0  0  0  0  0  0  0
    0.4794   -0.7692   -2.8692 H   0  0  0  0  0  0  0  0  0  0  0  0
   -0.1883   -1.4362   -4.3544 H   0  0  0  0  0  0  0  0  0  0  0  0
    2.6459   -0.3052   -4.0689 H   0  0  0  0  0  0  0  0  0  0  0  0
    2.2822   -1.7778   -6.0888 H   0  0  0  0  0  0  0  0  0  0  0  0
    2.7751   -0.1335   -6.4431 H   0  0  0  0  0  0  0  0  0  0  0  0
   -0.1013   -1.2072   -6.6766 H   0  0  0  0  0  0  0  0  0  0  0  0
    0.9628   -0.7436   -8.0023 H   0  0  0  0  0  0  0  0  0  0  0  0
   -0.7362    1.0733   -7.3923 H   0  0  0  0  0  0  0  0  0  0  0  0
    0.9401    1.6237   -7.2761 H   0  0  0  0  0  0  0  0  0  0  0  0
   -0.8629    0.6977   -4.9605 H   0  0  0  0  0  0  0  0  0  0  0  0
   -0.3211    2.3505   -5.2470 H   0  0  0  0  0  0  0  0  0  0  0  0
    1.6992    3.0866   -4.3929 H   0  0  0  0  0  0  0  0  0  0  0  0
    2.6873    2.1746   -5.5632 H   0  0  0  0  0  0  0  0  0  0  0  0
    2.9284    1.9428   -3.8141 H   0  0  0  0  0  0  0  0  0  0  0  0
  1  2  1  0
  1 25  1  0
  1 26  1  0
  1 27  1  0
  2  3  1  0
  2 28  1  0
  2 29  1  0
  4  3  1  6
  3 30  1  0
  3 31  1  0
  4  5  2  0
  4  6  2  0
  4  7  1  0
  7  8  1  0
  7 11  1  0
  8  9  1  0
  8 32  1  0
  8 33  1  0
  9 10  1  0
  9 34  1  0
  9 35  1  0
 10 11  1  0
 10 36  1  0
 10 37  1  0
 11 12  1  0
 11 38  1  1
 12 13  2  0
 12 14  1  0
 14 15  1  0
 14 16  1  0
 15 39  1  0
 15 40  1  0
 15 41  1  0
 16 17  1  0
 16 42  1  0
 16 43  1  0
 17 18  1  0
 17 44  1  0
 17 45  1  0
 18 19  1  0
 18 23  1  0
 18 46  1  1
 19 20  1  0
 19 47  1  0
 19 48  1  0
 20 21  1  0
 20 49  1  0
 20 50  1  0
 21 22  1  0
 21 51  1  0
 21 52  1  0
 22 23  1  0
 22 53  1  0
 22 54  1  0
 23 24  1  0
 24 55  1  0
 24 56  1  0
 24 57  1  0
M  END

