
     RDKit          3D

 40 41  0  0  0  0  0  0  0  0999 V2000
    2.4148    0.3406   -1.4483 C   0  0  0  0  0  0  0  0  0  0  0  0
    3.2257   -0.1391   -0.2418 C   0  0  1  0  0  0  0  0  0  0  0  0
    4.6159   -0.6391   -0.6860 C   0  0  0  0  0  0  0  0  0  0  0  0
    3.3904    0.9473    0.8415 C   0  0  0  0  0  0  0  0  0  0  0  0
    3.3063    0.2012    2.1685 C   0  0  0  0  0  0  0  0  0  0  0  0
    3.5258    0.6253    3.2809 O   0  0  0  0  0  0  0  0  0  0  0  0
    2.8730   -1.0716    1.8669 N   0  0  0  0  0  0  0  0  0  0  0  0
    2.4274   -1.1605    0.5086 N   0  0  0  0  0  0  0  0  0  0  0  0
    2.3607   -2.5257   -0.0012 C   0  0  1  0  0  0  0  0  0  0  0  0
    2.4489   -2.4575   -1.0965 H   0  0  0  0  0  0  0  0  0  0  0  0
    3.4073   -3.5312    0.5380 C   0  0  0  0  0  0  0  0  0  0  0  0
    3.7890   -4.6395   -0.4625 C   0  0  0  0  0  0  0  0  0  0  0  0
    4.7970   -5.6148    0.1064 C   0  0  0  0  0  0  0  0  0  0  0  0
    4.3766   -6.7500    0.8173 C   0  0  0  0  0  0  0  0  0  0  0  0
    5.3087   -7.6283    1.3746 C   0  0  0  0  0  0  0  0  0  0  0  0
    6.6798   -7.3949    1.2349 C   0  0  0  0  0  0  0  0  0  0  0  0
    7.0972   -6.2659    0.5263 C   0  0  0  0  0  0  0  0  0  0  0  0
    8.9644   -5.9271    0.3129 Br  0  0  0  0  0  0  0  0  0  0  0  0
    6.1738   -5.3804   -0.0344 C   0  0  0  0  0  0  0  0  0  0  0  0
    0.9259   -3.0161    0.2420 C   0  0  1  0  0  0  0  0  0  0  0  0
    0.0256   -2.2557   -0.3877 F   0  0  0  0  0  0  0  0  0  0  0  0
    0.7490   -4.2823   -0.1854 F   0  0  0  0  0  0  0  0  0  0  0  0
    0.6254   -3.0006    1.5597 F   0  0  0  0  0  0  0  0  0  0  0  0
    2.9294    1.1762   -1.9485 H   0  0  0  0  0  0  0  0  0  0  0  0
    1.4154    0.6729   -1.1331 H   0  0  0  0  0  0  0  0  0  0  0  0
    2.2867   -0.4592   -2.1956 H   0  0  0  0  0  0  0  0  0  0  0  0
    5.1556    0.1744   -1.1951 H   0  0  0  0  0  0  0  0  0  0  0  0
    4.5443   -1.4771   -1.3966 H   0  0  0  0  0  0  0  0  0  0  0  0
    5.2271   -0.9586    0.1716 H   0  0  0  0  0  0  0  0  0  0  0  0
    2.5485    1.6599    0.8293 H   0  0  0  0  0  0  0  0  0  0  0  0
    4.3210    1.5252    0.7596 H   0  0  0  0  0  0  0  0  0  0  0  0
    2.2871   -1.5512    2.5465 H   0  0  0  0  0  0  0  0  0  0  0  0
    3.0399   -3.9864    1.4717 H   0  0  0  0  0  0  0  0  0  0  0  0
    4.3077   -2.9713    0.8224 H   0  0  0  0  0  0  0  0  0  0  0  0
    4.2033   -4.1734   -1.3731 H   0  0  0  0  0  0  0  0  0  0  0  0
    2.8861   -5.1862   -0.7709 H   0  0  0  0  0  0  0  0  0  0  0  0
    3.3073   -6.9494    0.9305 H   0  0  0  0  0  0  0  0  0  0  0  0
    4.9679   -8.5104    1.9226 H   0  0  0  0  0  0  0  0  0  0  0  0
    7.4125   -8.0793    1.6653 H   0  0  0  0  0  0  0  0  0  0  0  0
    6.5284   -4.5080   -0.5878 H   0  0  0  0  0  0  0  0  0  0  0  0
  2  1  1  6
  1 24  1  0
  1 25  1  0
  1 26  1  0
  2  3  1  0
  2  4  1  0
  2  8  1  0
  3 27  1  0
  3 28  1  0
  3 29  1  0
  4  5  1  0
  4 30  1  0
  4 31  1  0
  5  6  2  0
  5  7  1  0
  7  8  1  0
  7 32  1  0
  8  9  1  0
  9 10  1  6
  9 11  1  0
  9 20  1  0
 11 12  1  0
 11 33  1  0
 11 34  1  0
 12 13  1  0
 12 35  1  0
 12 36  1  0
 13 14  2  0
 13 19  1  0
 14 15  1  0
 14 37  1  0
 15 16  2  0
 15 38  1  0
 16 17  1  0
 16 39  1  0
 17 18  1  0
 17 19  2  0
 19 40  1  0
 20 21  1  6
 20 22  1  0
 20 23  1  0
M  END

