
     RDKit          3D

 35 37  0  0  0  0  0  0  0  0999 V2000
    1.0790    0.3634    0.5532 C   0  0  0  0  0  0  0  0  0  0  0  0
    2.5640    0.2222    0.3326 C   0  0  0  0  0  0  0  0  0  0  0  0
    3.4771    1.1487    0.8544 C   0  0  0  0  0  0  0  0  0  0  0  0
    4.8489    1.0086    0.6393 C   0  0  0  0  0  0  0  0  0  0  0  0
    5.3670   -0.0658   -0.1084 C   0  0  0  0  0  0  0  0  0  0  0  0
    6.8175   -0.1574   -0.2973 C   0  0  0  0  0  0  0  0  0  0  0  0
    7.4855   -1.0921   -1.0111 C   0  0  0  0  0  0  0  0  0  0  0  0
    8.9324   -1.1854   -1.2462 C   0  0  0  0  0  0  0  0  0  0  0  0
    9.3696   -1.8470   -2.4160 C   0  0  0  0  0  0  0  0  0  0  0  0
   10.7158   -1.9426   -2.7604 C   0  0  0  0  0  0  0  0  0  0  0  0
   11.6954   -1.3837   -1.9341 C   0  0  0  0  0  0  0  0  0  0  0  0
   11.3069   -0.7528   -0.7527 C   0  0  0  0  0  0  0  0  0  0  0  0
    9.9545   -0.6689   -0.4157 C   0  0  0  0  0  0  0  0  0  0  0  0
    9.6476   -0.0646    0.8590 N   0  0  0  0  0  0  0  0  0  0  0  0
    9.2918   -0.7122    1.9873 C   0  0  0  0  0  0  0  0  0  0  0  0
    9.1182    0.2826    2.9950 C   0  0  0  0  0  0  0  0  0  0  0  0
    8.8199    0.3156    4.1562 O   0  0  0  0  0  0  0  0  0  0  0  0
    9.4260    1.4912    2.2568 O   0  0  0  0  0  0  0  0  0  0  0  0
    9.7422    1.2334    0.9757 N   0  0  0  0  0  0  0  0  0  0  0  0
    4.4455   -0.9996   -0.6298 C   0  0  0  0  0  0  0  0  0  0  0  0
    3.0799   -0.8553   -0.4134 C   0  0  0  0  0  0  0  0  0  0  0  0
    0.8448    1.2211    1.2004 H   0  0  0  0  0  0  0  0  0  0  0  0
    0.6563   -0.5406    1.0226 H   0  0  0  0  0  0  0  0  0  0  0  0
    0.5455    0.5068   -0.4019 H   0  0  0  0  0  0  0  0  0  0  0  0
    3.1103    1.9946    1.4422 H   0  0  0  0  0  0  0  0  0  0  0  0
    5.5379    1.7449    1.0623 H   0  0  0  0  0  0  0  0  0  0  0  0
    7.3808    0.6492    0.1781 H   0  0  0  0  0  0  0  0  0  0  0  0
    6.9085   -1.8552   -1.5430 H   0  0  0  0  0  0  0  0  0  0  0  0
    8.6131   -2.2756   -3.0780 H   0  0  0  0  0  0  0  0  0  0  0  0
   11.0024   -2.4537   -3.6826 H   0  0  0  0  0  0  0  0  0  0  0  0
   12.7530   -1.4481   -2.1978 H   0  0  0  0  0  0  0  0  0  0  0  0
   12.0462   -0.3271   -0.0718 H   0  0  0  0  0  0  0  0  0  0  0  0
    9.1773   -1.7881    2.0389 H   0  0  0  0  0  0  0  0  0  0  0  0
    4.8003   -1.8543   -1.2101 H   0  0  0  0  0  0  0  0  0  0  0  0
    2.3914   -1.5968   -0.8297 H   0  0  0  0  0  0  0  0  0  0  0  0
  1  2  1  0
  1 22  1  0
  1 23  1  0
  1 24  1  0
  2  3  2  0
  2 21  1  0
  3  4  1  0
  3 25  1  0
  4  5  2  0
  4 26  1  0
  5  6  1  0
  5 20  1  0
  6  7  2  0
  6 27  1  0
  7  8  1  0
  7 28  1  0
  8  9  2  0
  8 13  1  0
  9 10  1  0
  9 29  1  0
 10 11  2  0
 10 30  1  0
 11 12  1  0
 11 31  1  0
 12 13  2  0
 12 32  1  0
 13 14  1  0
 14 15  1  0
 14 19  1  0
 15 16  2  0
 15 33  1  0
 16 17  1  0
 16 18  1  0
 18 19  2  0
 20 21  2  0
 20 34  1  0
 21 35  1  0
M  CHG  2  17  -1  18   1
M  END

