
     RDKit          3D

 35 36  0  0  0  0  0  0  0  0999 V2000
    1.7953    0.0102   -1.1542 C   0  0  0  0  0  0  0  0  0  0  0  0
    1.9502   -0.4877    0.2829 C   0  0  0  0  0  0  0  0  0  0  0  0
    3.3323   -1.0656    0.5936 C   0  0  1  0  0  0  0  0  0  0  0  0
    4.3673   -0.1474    0.3147 O   0  0  0  0  0  0  0  0  0  0  0  0
    3.4454   -1.7790    1.9800 C   0  0  0  0  0  0  0  0  0  0  0  0
    3.7027   -3.0367    1.2813 N   0  0  0  0  0  0  0  0  0  0  0  0
    3.3562   -4.2735    1.7582 C   0  0  0  0  0  0  0  0  0  0  0  0
    2.9753   -4.4109    2.9132 O   0  0  0  0  0  0  0  0  0  0  0  0
    3.4950   -5.4246    0.7962 C   0  0  0  0  0  0  0  0  0  0  0  0
    4.6286   -5.4856   -0.0261 C   0  0  0  0  0  0  0  0  0  0  0  0
    4.8459   -6.5568   -0.9112 C   0  0  0  0  0  0  0  0  0  0  0  0
    6.0097   -6.6383   -1.6667 N   0  0  0  0  0  0  0  0  0  0  0  0
    3.8675   -7.5652   -0.9622 C   0  0  0  0  0  0  0  0  0  0  0  0
    2.7408   -7.5000   -0.1433 C   0  0  0  0  0  0  0  0  0  0  0  0
    2.5213   -6.4507    0.7610 C   0  0  0  0  0  0  0  0  0  0  0  0
    1.2958   -6.4516    1.6438 C   0  0  0  0  0  0  0  0  0  0  0  0
    3.6600   -2.4376   -0.0599 C   0  0  0  0  0  0  0  0  0  0  0  0
    0.8030    0.4591   -1.3154 H   0  0  0  0  0  0  0  0  0  0  0  0
    1.9098   -0.8123   -1.8793 H   0  0  0  0  0  0  0  0  0  0  0  0
    2.5596    0.7653   -1.3913 H   0  0  0  0  0  0  0  0  0  0  0  0
    1.1891   -1.2534    0.5107 H   0  0  0  0  0  0  0  0  0  0  0  0
    1.7602    0.3408    0.9926 H   0  0  0  0  0  0  0  0  0  0  0  0
    4.2019    0.6606    0.8204 H   0  0  0  0  0  0  0  0  0  0  0  0
    2.5361   -1.8063    2.6028 H   0  0  0  0  0  0  0  0  0  0  0  0
    4.2954   -1.4254    2.5873 H   0  0  0  0  0  0  0  0  0  0  0  0
    5.3806   -4.6957    0.0450 H   0  0  0  0  0  0  0  0  0  0  0  0
    6.5016   -5.7678   -1.8318 H   0  0  0  0  0  0  0  0  0  0  0  0
    5.9708   -7.2299   -2.4886 H   0  0  0  0  0  0  0  0  0  0  0  0
    3.9972   -8.4121   -1.6424 H   0  0  0  0  0  0  0  0  0  0  0  0
    2.0000   -8.3025   -0.2066 H   0  0  0  0  0  0  0  0  0  0  0  0
    0.6216   -7.2759    1.3666 H   0  0  0  0  0  0  0  0  0  0  0  0
    0.7298   -5.5090    1.5708 H   0  0  0  0  0  0  0  0  0  0  0  0
    1.5704   -6.5566    2.7037 H   0  0  0  0  0  0  0  0  0  0  0  0
    2.8888   -2.8615   -0.7232 H   0  0  0  0  0  0  0  0  0  0  0  0
    4.6280   -2.4254   -0.5844 H   0  0  0  0  0  0  0  0  0  0  0  0
  1  2  1  0
  1 18  1  0
  1 19  1  0
  1 20  1  0
  2  3  1  0
  2 21  1  0
  2 22  1  0
  3  4  1  1
  3  5  1  0
  3 17  1  0
  4 23  1  0
  5  6  1  0
  5 24  1  0
  5 25  1  0
  6  7  1  0
  6 17  1  0
  7  8  2  0
  7  9  1  0
  9 10  2  0
  9 15  1  0
 10 11  1  0
 10 26  1  0
 11 12  1  0
 11 13  2  0
 12 27  1  0
 12 28  1  0
 13 14  1  0
 13 29  1  0
 14 15  2  0
 14 30  1  0
 15 16  1  0
 16 31  1  0
 16 32  1  0
 16 33  1  0
 17 34  1  0
 17 35  1  0
M  END

