
     RDKit          3D

 55 57  0  0  0  0  0  0  0  0999 V2000
    2.4882    0.1252   -0.0009 N   0  0  0  0  0  0  0  0  0  0  0  0
    3.1339   -1.0557    0.1319 C   0  0  0  0  0  0  0  0  0  0  0  0
    3.0246   -1.8031    1.0876 O   0  0  0  0  0  0  0  0  0  0  0  0
    4.1329   -1.4069   -1.0044 C   0  0  1  0  0  0  0  0  0  0  0  0
    3.7168   -0.9541   -2.4072 C   0  0  0  0  0  0  0  0  0  0  0  0
    3.2369    0.1577   -2.6354 O   0  0  0  0  0  0  0  0  0  0  0  0
    3.9503   -1.8551   -3.3879 N   0  0  0  0  0  0  0  0  0  0  0  0
    3.7210   -1.5943   -4.7960 C   0  0  0  0  0  0  0  0  0  0  0  0
    4.8005   -2.2872   -5.6301 C   0  0  0  0  0  0  0  0  0  0  0  0
    4.9203   -3.6966   -5.2991 N   0  0  0  0  0  0  0  0  0  0  0  0
    3.8397   -4.5636   -5.7675 C   0  0  0  0  0  0  0  0  0  0  0  0
    4.3629   -5.9880   -5.5028 C   0  0  0  0  0  0  0  0  0  0  0  0
    5.9089   -5.8339   -5.4641 C   0  0  0  0  0  0  0  0  0  0  0  0
    6.1492   -4.3433   -5.7536 C   0  0  0  0  0  0  0  0  0  0  0  0
    5.5196   -0.8778   -0.6367 C   0  0  0  0  0  0  0  0  0  0  0  0
    6.3998   -1.6876    0.0890 C   0  0  0  0  0  0  0  0  0  0  0  0
    7.6603   -1.2279    0.4875 C   0  0  0  0  0  0  0  0  0  0  0  0
    8.0599    0.0752    0.1585 C   0  0  0  0  0  0  0  0  0  0  0  0
    9.2593    0.6224    0.4907 O   0  0  0  0  0  0  0  0  0  0  0  0
   10.1952   -0.1405    1.2230 C   0  0  0  0  0  0  0  0  0  0  0  0
   11.4561    0.6620    1.4512 C   0  0  0  0  0  0  0  0  0  0  0  0
   12.3410    0.2762    2.4694 C   0  0  0  0  0  0  0  0  0  0  0  0
   13.5362    0.9689    2.6747 C   0  0  0  0  0  0  0  0  0  0  0  0
   13.8589    2.0643    1.8671 C   0  0  0  0  0  0  0  0  0  0  0  0
   12.9783    2.4581    0.8560 C   0  0  0  0  0  0  0  0  0  0  0  0
   11.7844    1.7608    0.6464 C   0  0  0  0  0  0  0  0  0  0  0  0
    7.1806    0.8999   -0.5641 C   0  0  0  0  0  0  0  0  0  0  0  0
    5.9290    0.4314   -0.9492 C   0  0  0  0  0  0  0  0  0  0  0  0
    1.8230    0.3871    0.7170 H   0  0  0  0  0  0  0  0  0  0  0  0
    2.5355    0.6141   -0.8951 H   0  0  0  0  0  0  0  0  0  0  0  0
    4.1749   -2.5045   -0.9789 H   0  0  0  0  0  0  0  0  0  0  0  0
    4.3796   -2.7526   -3.1790 H   0  0  0  0  0  0  0  0  0  0  0  0
    3.7380   -0.5069   -4.9583 H   0  0  0  0  0  0  0  0  0  0  0  0
    2.7155   -1.9423   -5.0974 H   0  0  0  0  0  0  0  0  0  0  0  0
    5.7700   -1.8068   -5.4187 H   0  0  0  0  0  0  0  0  0  0  0  0
    4.5855   -2.1261   -6.7111 H   0  0  0  0  0  0  0  0  0  0  0  0
    3.6546   -4.4132   -6.8563 H   0  0  0  0  0  0  0  0  0  0  0  0
    2.8941   -4.3497   -5.2453 H   0  0  0  0  0  0  0  0  0  0  0  0
    4.0254   -6.6878   -6.2816 H   0  0  0  0  0  0  0  0  0  0  0  0
    3.9860   -6.3685   -4.5417 H   0  0  0  0  0  0  0  0  0  0  0  0
    6.4203   -6.4766   -6.1958 H   0  0  0  0  0  0  0  0  0  0  0  0
    6.2980   -6.0987   -4.4695 H   0  0  0  0  0  0  0  0  0  0  0  0
    6.3083   -4.1827   -6.8449 H   0  0  0  0  0  0  0  0  0  0  0  0
    7.0266   -3.9297   -5.2310 H   0  0  0  0  0  0  0  0  0  0  0  0
    6.0945   -2.6999    0.3657 H   0  0  0  0  0  0  0  0  0  0  0  0
    8.3118   -1.8935    1.0536 H   0  0  0  0  0  0  0  0  0  0  0  0
   10.4395   -1.0696    0.6691 H   0  0  0  0  0  0  0  0  0  0  0  0
    9.7658   -0.4504    2.1946 H   0  0  0  0  0  0  0  0  0  0  0  0
   12.0912   -0.5737    3.1123 H   0  0  0  0  0  0  0  0  0  0  0  0
   14.2145    0.6570    3.4732 H   0  0  0  0  0  0  0  0  0  0  0  0
   14.7912    2.6112    2.0295 H   0  0  0  0  0  0  0  0  0  0  0  0
   13.2205    3.3166    0.2239 H   0  0  0  0  0  0  0  0  0  0  0  0
   11.0932    2.0703   -0.1386 H   0  0  0  0  0  0  0  0  0  0  0  0
    7.5019    1.9145   -0.8087 H   0  0  0  0  0  0  0  0  0  0  0  0
    5.2573    1.0880   -1.5056 H   0  0  0  0  0  0  0  0  0  0  0  0
  1  2  1  0
  1 29  1  0
  1 30  1  0
  2  3  2  0
  2  4  1  0
  4  5  1  0
  4 15  1  0
  4 31  1  6
  5  6  2  0
  5  7  1  0
  7  8  1  0
  7 32  1  0
  8  9  1  0
  8 33  1  0
  8 34  1  0
  9 10  1  0
  9 35  1  0
  9 36  1  0
 10 11  1  0
 10 14  1  0
 11 12  1  0
 11 37  1  0
 11 38  1  0
 12 13  1  0
 12 39  1  0
 12 40  1  0
 13 14  1  0
 13 41  1  0
 13 42  1  0
 14 43  1  0
 14 44  1  0
 15 16  2  0
 15 28  1  0
 16 17  1  0
 16 45  1  0
 17 18  2  0
 17 46  1  0
 18 19  1  0
 18 27  1  0
 19 20  1  0
 20 21  1  0
 20 47  1  0
 20 48  1  0
 21 22  2  0
 21 26  1  0
 22 23  1  0
 22 49  1  0
 23 24  2  0
 23 50  1  0
 24 25  1  0
 24 51  1  0
 25 26  2  0
 25 52  1  0
 26 53  1  0
 27 28  2  0
 27 54  1  0
 28 55  1  0
M  END

