
     RDKit          3D

 57 59  0  0  0  0  0  0  0  0999 V2000
    1.3563   -0.2992    0.8986 C   0  0  0  0  0  0  0  0  0  0  0  0
    2.6595   -0.2972    0.1351 C   0  0  0  0  0  0  0  0  0  0  0  0
    2.9641    0.7152   -0.7841 C   0  0  0  0  0  0  0  0  0  0  0  0
    4.1782    0.6989   -1.4767 C   0  0  0  0  0  0  0  0  0  0  0  0
    5.0978   -0.3267   -1.2588 C   0  0  0  0  0  0  0  0  0  0  0  0
    4.8259   -1.3583   -0.3415 C   0  0  0  0  0  0  0  0  0  0  0  0
    5.8797   -2.4391   -0.1254 C   0  0  1  0  0  0  0  0  0  0  0  0
    6.7727   -2.1841    1.1150 C   0  0  0  0  0  0  0  0  0  0  0  0
    6.0825   -2.5835    2.4220 C   0  0  0  0  0  0  0  0  0  0  0  0
    5.5877   -4.0297    2.3590 C   0  0  0  0  0  0  0  0  0  0  0  0
    4.7364   -4.2502    1.1893 N   0  0  0  0  0  0  0  0  0  0  0  0
    3.5756   -4.9812    1.3418 C   0  0  0  0  0  0  0  0  0  0  0  0
    3.1945   -5.3571    2.4409 O   0  0  0  0  0  0  0  0  0  0  0  0
    2.7656   -5.2991    0.0827 C   0  0  0  0  0  0  0  0  0  0  0  0
    1.4659   -6.0515    0.4043 C   0  0  0  0  0  0  0  0  0  0  0  0
    0.6706   -6.3961   -0.8353 C   0  0  0  0  0  0  0  0  0  0  0  0
    0.8610   -7.6122   -1.5073 C   0  0  0  0  0  0  0  0  0  0  0  0
    0.1482   -7.9151   -2.6709 C   0  0  0  0  0  0  0  0  0  0  0  0
   -0.7838   -7.0171   -3.2111 C   0  0  0  0  0  0  0  0  0  0  0  0
   -1.5600   -7.3607   -4.4766 C   0  0  1  0  0  0  0  0  0  0  0  0
   -3.0724   -7.4658   -4.2144 C   0  0  0  0  0  0  0  0  0  0  0  0
   -1.2600   -6.3795   -5.6231 C   0  0  0  0  0  0  0  0  0  0  0  0
   -0.9759   -5.7997   -2.5361 C   0  0  0  0  0  0  0  0  0  0  0  0
   -0.2643   -5.4970   -1.3741 C   0  0  0  0  0  0  0  0  0  0  0  0
    5.3394   -3.8880   -0.0886 C   0  0  0  0  0  0  0  0  0  0  0  0
    3.6008   -1.3209    0.3435 C   0  0  0  0  0  0  0  0  0  0  0  0
    0.7092    0.5381    0.5982 H   0  0  0  0  0  0  0  0  0  0  0  0
    1.5287   -0.2176    1.9850 H   0  0  0  0  0  0  0  0  0  0  0  0
    0.7957   -1.2345    0.7349 H   0  0  0  0  0  0  0  0  0  0  0  0
    2.2458    1.5207   -0.9610 H   0  0  0  0  0  0  0  0  0  0  0  0
    4.4059    1.4903   -2.1959 H   0  0  0  0  0  0  0  0  0  0  0  0
    6.0421   -0.3330   -1.8113 H   0  0  0  0  0  0  0  0  0  0  0  0
    6.5396   -2.3968   -1.0076 H   0  0  0  0  0  0  0  0  0  0  0  0
    7.0853   -1.1281    1.1390 H   0  0  0  0  0  0  0  0  0  0  0  0
    7.6945   -2.7844    1.0026 H   0  0  0  0  0  0  0  0  0  0  0  0
    5.2339   -1.9107    2.6280 H   0  0  0  0  0  0  0  0  0  0  0  0
    6.7813   -2.4780    3.2683 H   0  0  0  0  0  0  0  0  0  0  0  0
    5.0039   -4.3063    3.2448 H   0  0  0  0  0  0  0  0  0  0  0  0
    6.4582   -4.7154    2.3065 H   0  0  0  0  0  0  0  0  0  0  0  0
    3.3844   -5.9006   -0.6063 H   0  0  0  0  0  0  0  0  0  0  0  0
    2.5370   -4.3671   -0.4616 H   0  0  0  0  0  0  0  0  0  0  0  0
    0.8608   -5.4367    1.0884 H   0  0  0  0  0  0  0  0  0  0  0  0
    1.7161   -6.9641    0.9658 H   0  0  0  0  0  0  0  0  0  0  0  0
    1.5746   -8.3403   -1.1093 H   0  0  0  0  0  0  0  0  0  0  0  0
    0.3166   -8.8753   -3.1683 H   0  0  0  0  0  0  0  0  0  0  0  0
   -1.2132   -8.3580   -4.7995 H   0  0  0  0  0  0  0  0  0  0  0  0
   -3.4939   -6.4969   -3.8993 H   0  0  0  0  0  0  0  0  0  0  0  0
   -3.2911   -8.1979   -3.4213 H   0  0  0  0  0  0  0  0  0  0  0  0
   -3.6074   -7.7796   -5.1260 H   0  0  0  0  0  0  0  0  0  0  0  0
   -1.5955   -5.3585   -5.3771 H   0  0  0  0  0  0  0  0  0  0  0  0
   -1.7795   -6.6854   -6.5462 H   0  0  0  0  0  0  0  0  0  0  0  0
   -0.1810   -6.3330   -5.8383 H   0  0  0  0  0  0  0  0  0  0  0  0
   -1.6980   -5.0727   -2.9185 H   0  0  0  0  0  0  0  0  0  0  0  0
   -0.4438   -4.5430   -0.8684 H   0  0  0  0  0  0  0  0  0  0  0  0
    4.6182   -4.0304   -0.9004 H   0  0  0  0  0  0  0  0  0  0  0  0
    6.1922   -4.5685   -0.2896 H   0  0  0  0  0  0  0  0  0  0  0  0
    3.3623   -2.1078    1.0607 H   0  0  0  0  0  0  0  0  0  0  0  0
  1  2  1  0
  1 27  1  0
  1 28  1  0
  1 29  1  0
  2  3  2  0
  2 26  1  0
  3  4  1  0
  3 30  1  0
  4  5  2  0
  4 31  1  0
  5  6  1  0
  5 32  1  0
  6  7  1  0
  6 26  2  0
  7  8  1  0
  7 25  1  0
  7 33  1  6
  8  9  1  0
  8 34  1  0
  8 35  1  0
  9 10  1  0
  9 36  1  0
  9 37  1  0
 10 11  1  0
 10 38  1  0
 10 39  1  0
 11 12  1  0
 11 25  1  0
 12 13  2  0
 12 14  1  0
 14 15  1  0
 14 40  1  0
 14 41  1  0
 15 16  1  0
 15 42  1  0
 15 43  1  0
 16 17  2  0
 16 24  1  0
 17 18  1  0
 17 44  1  0
 18 19  2  0
 18 45  1  0
 19 20  1  0
 19 23  1  0
 20 21  1  0
 20 22  1  0
 20 46  1  6
 21 47  1  0
 21 48  1  0
 21 49  1  0
 22 50  1  0
 22 51  1  0
 22 52  1  0
 23 24  2  0
 23 53  1  0
 24 54  1  0
 25 55  1  0
 25 56  1  0
 26 57  1  0
M  END

