
     RDKit          3D

 42 44  0  0  0  0  0  0  0  0999 V2000
    3.2390   -0.6426    0.9403 O   0  0  0  0  0  0  0  0  0  0  0  0
    2.6498    0.3179    0.4732 C   0  0  0  0  0  0  0  0  0  0  0  0
    2.4551    0.4457   -1.0462 C   0  0  0  0  0  0  0  0  0  0  0  0
    0.8261   -0.1577   -1.6572 S   0  0  0  0  0  0  0  0  0  0  0  0
   -0.1527    1.2730   -1.4173 C   0  0  0  0  0  0  0  0  0  0  0  0
    0.2161    2.4052   -0.8377 N   0  0  0  0  0  0  0  0  0  0  0  0
   -0.8681    3.2126   -0.8409 N   0  0  0  0  0  0  0  0  0  0  0  0
   -1.8708    2.6419   -1.3871 N   0  0  0  0  0  0  0  0  0  0  0  0
   -1.4607    1.3995   -1.7745 N   0  0  0  0  0  0  0  0  0  0  0  0
   -2.3696    0.4964   -2.3982 C   0  0  0  0  0  0  0  0  0  0  0  0
   -1.9623   -0.3039   -3.4723 C   0  0  0  0  0  0  0  0  0  0  0  0
   -2.8722   -1.1777   -4.0622 C   0  0  0  0  0  0  0  0  0  0  0  0
   -4.1890   -1.2335   -3.5978 C   0  0  0  0  0  0  0  0  0  0  0  0
   -5.0069   -2.1202   -4.2783 O   0  0  0  0  0  0  0  0  0  0  0  0
   -6.2056   -2.5241   -3.7940 C   0  0  1  0  0  0  0  0  0  0  0  0
   -6.1067   -3.0337   -2.5602 F   0  0  0  0  0  0  0  0  0  0  0  0
   -7.0980   -1.5224   -3.7435 F   0  0  0  0  0  0  0  0  0  0  0  0
   -6.6702   -3.4573   -4.6084 F   0  0  0  0  0  0  0  0  0  0  0  0
   -4.6087   -0.4184   -2.5409 C   0  0  0  0  0  0  0  0  0  0  0  0
   -3.6893    0.4397   -1.9377 C   0  0  0  0  0  0  0  0  0  0  0  0
    2.1359    1.3473    1.1932 N   0  0  0  0  0  0  0  0  0  0  0  0
    2.1793    1.4043    2.6411 C   0  0  1  0  0  0  0  0  0  0  0  0
    2.9316    2.6170    3.2176 C   0  0  0  0  0  0  0  0  0  0  0  0
    2.5193    2.6008    4.6946 C   0  0  0  0  0  0  0  0  0  0  0  0
    1.0278    2.1669    4.6873 C   0  0  0  0  0  0  0  0  0  0  0  0
    0.7865    1.4960    3.3086 C   0  0  0  0  0  0  0  0  0  0  0  0
    3.1759   -0.2287   -1.5255 H   0  0  0  0  0  0  0  0  0  0  0  0
    2.5963    1.4716   -1.4137 H   0  0  0  0  0  0  0  0  0  0  0  0
   -0.9414   -0.2461   -3.8519 H   0  0  0  0  0  0  0  0  0  0  0  0
   -2.5781   -1.8173   -4.8958 H   0  0  0  0  0  0  0  0  0  0  0  0
   -5.6359   -0.4411   -2.1807 H   0  0  0  0  0  0  0  0  0  0  0  0
   -3.9978    1.0812   -1.1117 H   0  0  0  0  0  0  0  0  0  0  0  0
    1.6061    2.0589    0.6857 H   0  0  0  0  0  0  0  0  0  0  0  0
    2.6894    0.4835    2.9619 H   0  0  0  0  0  0  0  0  0  0  0  0
    2.5735    3.5384    2.7229 H   0  0  0  0  0  0  0  0  0  0  0  0
    4.0195    2.5567    3.0586 H   0  0  0  0  0  0  0  0  0  0  0  0
    2.6815    3.5658    5.1987 H   0  0  0  0  0  0  0  0  0  0  0  0
    3.1261    1.8536    5.2331 H   0  0  0  0  0  0  0  0  0  0  0  0
    0.3653    3.0375    4.8129 H   0  0  0  0  0  0  0  0  0  0  0  0
    0.8066    1.4853    5.5227 H   0  0  0  0  0  0  0  0  0  0  0  0
    0.1317    2.1241    2.6813 H   0  0  0  0  0  0  0  0  0  0  0  0
    0.3045    0.5091    3.3828 H   0  0  0  0  0  0  0  0  0  0  0  0
  1  2  2  0
  2  3  1  0
  2 21  1  0
  3  4  1  0
  3 27  1  0
  3 28  1  0
  4  5  1  0
  5  6  2  0
  5  9  1  0
  6  7  1  0
  7  8  2  0
  8  9  1  0
  9 10  1  0
 10 11  2  0
 10 20  1  0
 11 12  1  0
 11 29  1  0
 12 13  2  0
 12 30  1  0
 13 14  1  0
 13 19  1  0
 14 15  1  0
 15 16  1  1
 15 17  1  0
 15 18  1  0
 19 20  2  0
 19 31  1  0
 20 32  1  0
 21 22  1  0
 21 33  1  0
 22 23  1  0
 22 26  1  0
 22 34  1  1
 23 24  1  0
 23 35  1  0
 23 36  1  0
 24 25  1  0
 24 37  1  0
 24 38  1  0
 25 26  1  0
 25 39  1  0
 25 40  1  0
 26 41  1  0
 26 42  1  0
M  END

