
     RDKit          3D

 61 64  0  0  0  0  0  0  0  0999 V2000
   13.2653    4.1790    4.0539 O   0  0  0  0  0  0  0  0  0  0  0  0
   12.1385    4.3389    3.6719 C   0  0  0  0  0  0  0  0  0  0  0  0
   11.5874    5.5739    3.6581 O   0  0  0  0  0  0  0  0  0  0  0  0
   11.2372    3.2177    3.1792 C   0  0  0  0  0  0  0  0  0  0  0  0
   11.9236    1.8619    3.2266 C   0  0  0  0  0  0  0  0  0  0  0  0
   10.9963    0.9083    2.7479 O   0  0  0  0  0  0  0  0  0  0  0  0
   11.3574   -0.4045    2.6841 C   0  0  0  0  0  0  0  0  0  0  0  0
   12.6141   -0.8974    3.0666 C   0  0  0  0  0  0  0  0  0  0  0  0
   12.8634   -2.2701    2.9518 C   0  0  0  0  0  0  0  0  0  0  0  0
   11.8941   -3.1455    2.4692 C   0  0  0  0  0  0  0  0  0  0  0  0
   10.6299   -2.6557    2.0840 C   0  0  0  0  0  0  0  0  0  0  0  0
    9.5987   -3.5859    1.5741 C   0  0  0  0  0  0  0  0  0  0  0  0
    8.3104   -3.2679    1.2129 C   0  0  0  0  0  0  0  0  0  0  0  0
    7.4483   -4.6657    0.6591 S   0  0  0  0  0  0  0  0  0  0  0  0
    8.8973   -5.6126    0.9780 C   0  0  0  0  0  0  0  0  0  0  0  0
    8.9898   -6.9984    0.7838 N   0  0  0  0  0  0  0  0  0  0  0  0
   10.3491   -7.5694    0.8647 C   0  0  0  0  0  0  0  0  0  0  0  0
   11.1948   -7.2809   -0.3786 C   0  0  0  0  0  0  0  0  0  0  0  0
   12.5901   -7.9110   -0.2831 C   0  0  0  0  0  0  0  0  0  0  0  0
   12.5534   -9.3617   -0.1030 N   0  0  0  0  0  0  0  0  0  0  0  0
   12.2438  -10.1411   -1.3043 C   0  0  0  0  0  0  0  0  0  0  0  0
   13.4770  -10.3862   -2.1804 C   0  0  0  0  0  0  0  0  0  0  0  0
   14.5194  -10.9871   -1.4336 O   0  0  0  0  0  0  0  0  0  0  0  0
   14.8942  -10.2007   -0.3174 C   0  0  0  0  0  0  0  0  0  0  0  0
   13.6916   -9.9540    0.5987 C   0  0  0  0  0  0  0  0  0  0  0  0
    7.8690   -7.7034    0.3586 C   0  0  0  0  0  0  0  0  0  0  0  0
    6.8575   -7.1132    0.0009 O   0  0  0  0  0  0  0  0  0  0  0  0
    7.8857   -9.1913    0.3554 C   0  0  0  0  0  0  0  0  0  0  0  0
    8.3853  -10.1209    1.2483 C   0  0  0  0  0  0  0  0  0  0  0  0
    8.0084  -11.4557    0.9315 C   0  0  0  0  0  0  0  0  0  0  0  0
    7.2260  -11.5247   -0.1975 C   0  0  0  0  0  0  0  0  0  0  0  0
    6.9125   -9.9698   -0.8651 S   0  0  0  0  0  0  0  0  0  0  0  0
    9.9046   -4.9224    1.4297 N   0  0  0  0  0  0  0  0  0  0  0  0
   10.3788   -1.2817    2.1973 C   0  0  0  0  0  0  0  0  0  0  0  0
   10.6788    5.5409    3.3260 H   0  0  0  0  0  0  0  0  0  0  0  0
   10.9137    3.4361    2.1460 H   0  0  0  0  0  0  0  0  0  0  0  0
   10.3176    3.1920    3.7904 H   0  0  0  0  0  0  0  0  0  0  0  0
   12.2364    1.6309    4.2602 H   0  0  0  0  0  0  0  0  0  0  0  0
   12.8370    1.8772    2.6060 H   0  0  0  0  0  0  0  0  0  0  0  0
   13.3917   -0.2355    3.4475 H   0  0  0  0  0  0  0  0  0  0  0  0
   13.8415   -2.6573    3.2498 H   0  0  0  0  0  0  0  0  0  0  0  0
   12.0943   -4.2132    2.3847 H   0  0  0  0  0  0  0  0  0  0  0  0
    7.8209   -2.2969    1.2398 H   0  0  0  0  0  0  0  0  0  0  0  0
   10.2756   -8.6493    0.9949 H   0  0  0  0  0  0  0  0  0  0  0  0
   10.8314   -7.1476    1.7567 H   0  0  0  0  0  0  0  0  0  0  0  0
   11.3114   -6.1943   -0.5104 H   0  0  0  0  0  0  0  0  0  0  0  0
   10.6643   -7.6541   -1.2718 H   0  0  0  0  0  0  0  0  0  0  0  0
   13.1057   -7.4833    0.5931 H   0  0  0  0  0  0  0  0  0  0  0  0
   13.1815   -7.5889   -1.1667 H   0  0  0  0  0  0  0  0  0  0  0  0
   11.4531   -9.6406   -1.8848 H   0  0  0  0  0  0  0  0  0  0  0  0
   11.8406  -11.1203   -0.9889 H   0  0  0  0  0  0  0  0  0  0  0  0
   13.8303   -9.4329   -2.6281 H   0  0  0  0  0  0  0  0  0  0  0  0
   13.2379  -11.0733   -3.0076 H   0  0  0  0  0  0  0  0  0  0  0  0
   15.3258   -9.2345   -0.6563 H   0  0  0  0  0  0  0  0  0  0  0  0
   15.6860  -10.7536    0.2129 H   0  0  0  0  0  0  0  0  0  0  0  0
   13.9768   -9.3127    1.4485 H   0  0  0  0  0  0  0  0  0  0  0  0
   13.3728  -10.9282    1.0134 H   0  0  0  0  0  0  0  0  0  0  0  0
    8.9766   -9.8589    2.1258 H   0  0  0  0  0  0  0  0  0  0  0  0
    8.3034  -12.3272    1.5176 H   0  0  0  0  0  0  0  0  0  0  0  0
    6.8141  -12.4151   -0.6714 H   0  0  0  0  0  0  0  0  0  0  0  0
    9.4192   -0.8503    1.9091 H   0  0  0  0  0  0  0  0  0  0  0  0
  1  2  2  0
  2  3  1  0
  2  4  1  0
  3 35  1  0
  4  5  1  0
  4 36  1  0
  4 37  1  0
  5  6  1  0
  5 38  1  0
  5 39  1  0
  6  7  1  0
  7  8  2  0
  7 34  1  0
  8  9  1  0
  8 40  1  0
  9 10  2  0
  9 41  1  0
 10 11  1  0
 10 42  1  0
 11 12  1  0
 11 34  2  0
 12 13  2  0
 12 33  1  0
 13 14  1  0
 13 43  1  0
 14 15  1  0
 15 16  1  0
 15 33  2  0
 16 17  1  0
 16 26  1  0
 17 18  1  0
 17 44  1  0
 17 45  1  0
 18 19  1  0
 18 46  1  0
 18 47  1  0
 19 20  1  0
 19 48  1  0
 19 49  1  0
 20 21  1  0
 20 25  1  0
 21 22  1  0
 21 50  1  0
 21 51  1  0
 22 23  1  0
 22 52  1  0
 22 53  1  0
 23 24  1  0
 24 25  1  0
 24 54  1  0
 24 55  1  0
 25 56  1  0
 25 57  1  0
 26 27  2  0
 26 28  1  0
 28 29  2  0
 28 32  1  0
 29 30  1  0
 29 58  1  0
 30 31  2  0
 30 59  1  0
 31 32  1  0
 31 60  1  0
 34 61  1  0
M  END

