
     RDKit          3D

 34 36  0  0  0  0  0  0  0  0999 V2000
    1.2255    0.0094   -0.0715 N   0  0  0  0  0  0  0  0  0  0  0  0
    2.6152   -0.0007   -0.0750 C   0  0  0  0  0  0  0  0  0  0  0  0
    3.3486    1.2040   -0.0640 C   0  0  0  0  0  0  0  0  0  0  0  0
    4.7387    1.1784   -0.0212 C   0  0  0  0  0  0  0  0  0  0  0  0
    5.4585   -0.0262    0.0135 C   0  0  0  0  0  0  0  0  0  0  0  0
    4.7324   -1.2308    0.0016 C   0  0  0  0  0  0  0  0  0  0  0  0
    3.3331   -1.2078   -0.0392 C   0  0  0  0  0  0  0  0  0  0  0  0
    5.4378   -2.5747    0.0691 C   0  0  0  0  0  0  0  0  0  0  0  0
    6.8759   -2.4871   -0.1358 N   0  0  0  0  0  0  0  0  0  0  0  0
    7.4355   -3.2225   -1.1715 C   0  0  0  0  0  0  0  0  0  0  0  0
    6.7705   -3.9203   -1.9212 O   0  0  0  0  0  0  0  0  0  0  0  0
    8.8171   -3.1182   -1.3067 N   0  0  0  0  0  0  0  0  0  0  0  0
    9.4802   -3.9435   -2.2749 C   0  0  1  0  0  0  0  0  0  0  0  0
    9.5826   -3.4568   -3.6933 C   0  0  0  0  0  0  0  0  0  0  0  0
   10.8027   -3.4558   -2.8070 C   0  0  0  0  0  0  0  0  0  0  0  0
    7.5130   -1.3762    0.5580 C   0  0  0  0  0  0  0  0  0  0  0  0
    6.9729   -0.0387    0.0412 C   0  0  0  0  0  0  0  0  0  0  0  0
    0.7839    0.8478   -0.4311 H   0  0  0  0  0  0  0  0  0  0  0  0
    0.7713   -0.8388   -0.3904 H   0  0  0  0  0  0  0  0  0  0  0  0
    2.8183    2.1604   -0.0844 H   0  0  0  0  0  0  0  0  0  0  0  0
    5.2863    2.1263   -0.0135 H   0  0  0  0  0  0  0  0  0  0  0  0
    2.7842   -2.1555   -0.0472 H   0  0  0  0  0  0  0  0  0  0  0  0
    5.0437   -3.2563   -0.6960 H   0  0  0  0  0  0  0  0  0  0  0  0
    5.2318   -3.0361    1.0564 H   0  0  0  0  0  0  0  0  0  0  0  0
    9.3479   -2.9320   -0.4634 H   0  0  0  0  0  0  0  0  0  0  0  0
    9.3566   -5.0261   -2.1423 H   0  0  0  0  0  0  0  0  0  0  0  0
    9.1163   -2.4946   -3.9184 H   0  0  0  0  0  0  0  0  0  0  0  0
    9.5092   -4.1999   -4.4916 H   0  0  0  0  0  0  0  0  0  0  0  0
   11.1636   -2.4888   -2.4440 H   0  0  0  0  0  0  0  0  0  0  0  0
   11.5886   -4.1948   -2.9852 H   0  0  0  0  0  0  0  0  0  0  0  0
    8.6024   -1.4109    0.4377 H   0  0  0  0  0  0  0  0  0  0  0  0
    7.3063   -1.4711    1.6403 H   0  0  0  0  0  0  0  0  0  0  0  0
    7.3755    0.1300   -0.9751 H   0  0  0  0  0  0  0  0  0  0  0  0
    7.3527    0.7862    0.6683 H   0  0  0  0  0  0  0  0  0  0  0  0
  1  2  1  0
  1 18  1  0
  1 19  1  0
  2  3  2  0
  2  7  1  0
  3  4  1  0
  3 20  1  0
  4  5  2  0
  4 21  1  0
  5  6  1  0
  5 17  1  0
  6  7  2  0
  6  8  1  0
  7 22  1  0
  8  9  1  0
  8 23  1  0
  8 24  1  0
  9 10  1  0
  9 16  1  0
 10 11  2  0
 10 12  1  0
 12 13  1  0
 12 25  1  0
 13 14  1  0
 13 15  1  0
 13 26  1  6
 14 15  1  0
 14 27  1  0
 14 28  1  0
 15 29  1  0
 15 30  1  0
 16 17  1  0
 16 31  1  0
 16 32  1  0
 17 33  1  0
 17 34  1  0
M  END

