
     RDKit          3D

 51 54  0  0  0  0  0  0  0  0999 V2000
    1.1334    0.2350    1.0891 C   0  0  0  0  0  0  0  0  0  0  0  0
    2.5851   -0.0268    0.7711 C   0  0  0  0  0  0  0  0  0  0  0  0
    3.3463    1.0395    0.5328 N   0  0  0  0  0  0  0  0  0  0  0  0
    4.6359    0.8119    0.2182 C   0  0  0  0  0  0  0  0  0  0  0  0
    5.3463    1.9605   -0.0356 N   0  0  0  0  0  0  0  0  0  0  0  0
    6.6937    2.2066   -0.3264 C   0  0  0  0  0  0  0  0  0  0  0  0
    7.0454    3.5351   -0.6451 C   0  0  0  0  0  0  0  0  0  0  0  0
    8.3655    3.8747   -0.9329 C   0  0  0  0  0  0  0  0  0  0  0  0
    9.3677    2.8989   -0.9124 C   0  0  0  0  0  0  0  0  0  0  0  0
    9.0221    1.5827   -0.5954 C   0  0  0  0  0  0  0  0  0  0  0  0
    7.7032    1.2260   -0.3027 C   0  0  0  0  0  0  0  0  0  0  0  0
    5.2220   -0.3817    0.1479 N   0  0  0  0  0  0  0  0  0  0  0  0
    4.4818   -1.4693    0.3967 C   0  0  0  0  0  0  0  0  0  0  0  0
    5.0646   -2.7067    0.3610 N   0  0  0  0  0  0  0  0  0  0  0  0
    6.3405   -3.0744   -0.0981 C   0  0  0  0  0  0  0  0  0  0  0  0
    6.9416   -4.2049    0.4887 C   0  0  0  0  0  0  0  0  0  0  0  0
    8.1770   -4.6685    0.0369 C   0  0  0  0  0  0  0  0  0  0  0  0
    8.8419   -4.0132   -1.0039 C   0  0  0  0  0  0  0  0  0  0  0  0
    8.2456   -2.8930   -1.5912 C   0  0  0  0  0  0  0  0  0  0  0  0
    7.0061   -2.4226   -1.1525 C   0  0  0  0  0  0  0  0  0  0  0  0
    3.0923   -1.3379    0.7054 C   0  0  0  0  0  0  0  0  0  0  0  0
    2.1818   -2.4228    0.8319 N   0  0  0  0  0  0  0  0  0  0  0  0
    2.3189   -3.5855    1.5354 C   0  0  0  0  0  0  0  0  0  0  0  0
    3.3404   -3.8814    2.1529 O   0  0  0  0  0  0  0  0  0  0  0  0
    1.1284   -4.5059    1.5213 C   0  0  0  0  0  0  0  0  0  0  0  0
    0.1365   -4.4895    0.5257 C   0  0  0  0  0  0  0  0  0  0  0  0
   -0.9335   -5.3867    0.5855 C   0  0  0  0  0  0  0  0  0  0  0  0
   -1.0288   -6.3080    1.6306 C   0  0  0  0  0  0  0  0  0  0  0  0
   -0.0287   -6.3209    2.6031 C   0  0  0  0  0  0  0  0  0  0  0  0
   -0.1094   -7.2063    3.6036 F   0  0  0  0  0  0  0  0  0  0  0  0
    1.0489   -5.4442    2.5613 C   0  0  0  0  0  0  0  0  0  0  0  0
    0.9911    1.3120    1.2408 H   0  0  0  0  0  0  0  0  0  0  0  0
    0.8073   -0.3073    1.9905 H   0  0  0  0  0  0  0  0  0  0  0  0
    0.4734   -0.0747    0.2579 H   0  0  0  0  0  0  0  0  0  0  0  0
    4.7521    2.7798    0.0275 H   0  0  0  0  0  0  0  0  0  0  0  0
    6.2681    4.3053   -0.6660 H   0  0  0  0  0  0  0  0  0  0  0  0
    8.6108    4.9118   -1.1764 H   0  0  0  0  0  0  0  0  0  0  0  0
   10.4032    3.1630   -1.1393 H   0  0  0  0  0  0  0  0  0  0  0  0
    9.7921    0.8068   -0.5702 H   0  0  0  0  0  0  0  0  0  0  0  0
    7.4469    0.1997   -0.0545 H   0  0  0  0  0  0  0  0  0  0  0  0
    4.6094   -3.3813    0.9844 H   0  0  0  0  0  0  0  0  0  0  0  0
    6.4284   -4.7175    1.3070 H   0  0  0  0  0  0  0  0  0  0  0  0
    8.6243   -5.5476    0.5083 H   0  0  0  0  0  0  0  0  0  0  0  0
    9.8121   -4.3725   -1.3549 H   0  0  0  0  0  0  0  0  0  0  0  0
    8.7483   -2.3735   -2.4116 H   0  0  0  0  0  0  0  0  0  0  0  0
    6.5537   -1.5526   -1.6241 H   0  0  0  0  0  0  0  0  0  0  0  0
    1.2559   -2.2447    0.4607 H   0  0  0  0  0  0  0  0  0  0  0  0
    0.2066   -3.8080   -0.3252 H   0  0  0  0  0  0  0  0  0  0  0  0
   -1.6966   -5.3761   -0.1962 H   0  0  0  0  0  0  0  0  0  0  0  0
   -1.8545   -7.0187    1.7004 H   0  0  0  0  0  0  0  0  0  0  0  0
    1.8280   -5.4813    3.3236 H   0  0  0  0  0  0  0  0  0  0  0  0
  1  2  1  0
  1 32  1  0
  1 33  1  0
  1 34  1  0
  2  3  2  0
  2 21  1  0
  3  4  1  0
  4  5  1  0
  4 12  2  0
  5  6  1  0
  5 35  1  0
  6  7  2  0
  6 11  1  0
  7  8  1  0
  7 36  1  0
  8  9  2  0
  8 37  1  0
  9 10  1  0
  9 38  1  0
 10 11  2  0
 10 39  1  0
 11 40  1  0
 12 13  1  0
 13 14  1  0
 13 21  2  0
 14 15  1  0
 14 41  1  0
 15 16  2  0
 15 20  1  0
 16 17  1  0
 16 42  1  0
 17 18  2  0
 17 43  1  0
 18 19  1  0
 18 44  1  0
 19 20  2  0
 19 45  1  0
 20 46  1  0
 21 22  1  0
 22 23  1  0
 22 47  1  0
 23 24  2  0
 23 25  1  0
 25 26  2  0
 25 31  1  0
 26 27  1  0
 26 48  1  0
 27 28  2  0
 27 49  1  0
 28 29  1  0
 28 50  1  0
 29 30  1  0
 29 31  2  0
 31 51  1  0
M  END

