
     RDKit          3D

 53 57  0  0  0  0  0  0  0  0999 V2000
    1.0665   -0.7395   -0.7393 C   0  0  0  0  0  0  0  0  0  0  0  0
    2.4592   -0.7005   -0.6014 O   0  0  0  0  0  0  0  0  0  0  0  0
    3.0803    0.1950   -1.4874 C   0  0  0  0  0  0  0  0  0  0  0  0
    4.5829    0.1388   -1.3267 C   0  0  0  0  0  0  0  0  0  0  0  0
    5.1497   -1.0720   -1.3574 N   0  0  0  0  0  0  0  0  0  0  0  0
    6.4764   -1.1856   -1.2289 C   0  0  0  0  0  0  0  0  0  0  0  0
    6.9959   -2.4383   -1.1614 N   0  0  0  0  0  0  0  0  0  0  0  0
    6.1875   -3.6581   -1.2161 C   0  0  2  0  0  0  0  0  0  0  0  0
    6.9054   -4.7895   -0.4493 C   0  0  0  0  0  0  0  0  0  0  0  0
    8.1396   -5.3703   -1.1750 C   0  0  0  0  0  0  0  0  0  0  0  0
    7.7227   -5.7737   -2.5822 C   0  0  2  0  0  0  0  0  0  0  0  0
    8.7483   -6.1881   -3.5337 N   0  0  0  0  0  0  0  0  0  0  0  0
    8.0433   -6.2872   -4.7967 N   0  0  0  0  0  0  0  0  0  0  0  0
    7.1570   -5.0946   -4.8067 C   0  0  0  0  0  0  0  0  0  0  0  0
    7.1345   -4.5801   -3.3448 C   0  0  1  0  0  0  0  0  0  0  0  0
    5.8638   -4.0687   -2.6784 C   0  0  0  0  0  0  0  0  0  0  0  0
    7.2891   -0.0026   -1.1511 C   0  0  0  0  0  0  0  0  0  0  0  0
    8.7180    0.2272   -1.0330 C   0  0  0  0  0  0  0  0  0  0  0  0
    9.7982   -0.7929   -1.1020 C   0  0  0  0  0  0  0  0  0  0  0  0
    9.9194   -1.6495   -2.2143 C   0  0  0  0  0  0  0  0  0  0  0  0
   10.9444   -2.5976   -2.2824 C   0  0  0  0  0  0  0  0  0  0  0  0
   11.8812   -2.6935   -1.2480 C   0  0  0  0  0  0  0  0  0  0  0  0
   11.7846   -1.8371   -0.1470 C   0  0  0  0  0  0  0  0  0  0  0  0
   10.7509   -0.8997   -0.0715 C   0  0  0  0  0  0  0  0  0  0  0  0
    8.9926    1.5632   -0.8794 C   0  0  0  0  0  0  0  0  0  0  0  0
    7.5889    2.5894   -0.8959 S   0  0  0  0  0  0  0  0  0  0  0  0
    6.5455    1.1959   -1.1076 C   0  0  0  0  0  0  0  0  0  0  0  0
    5.2170    1.2998   -1.1854 N   0  0  0  0  0  0  0  0  0  0  0  0
    0.6755   -1.4622   -0.0077 H   0  0  0  0  0  0  0  0  0  0  0  0
    0.7569   -1.0637   -1.7550 H   0  0  0  0  0  0  0  0  0  0  0  0
    0.5964    0.2469   -0.5443 H   0  0  0  0  0  0  0  0  0  0  0  0
    2.7540    1.2380   -1.3137 H   0  0  0  0  0  0  0  0  0  0  0  0
    2.8279   -0.0627   -2.5404 H   0  0  0  0  0  0  0  0  0  0  0  0
    7.9997   -2.5240   -1.0671 H   0  0  0  0  0  0  0  0  0  0  0  0
    5.2396   -3.4226   -0.7118 H   0  0  0  0  0  0  0  0  0  0  0  0
    6.1732   -5.6008   -0.2984 H   0  0  0  0  0  0  0  0  0  0  0  0
    7.1798   -4.4293    0.5555 H   0  0  0  0  0  0  0  0  0  0  0  0
    8.5303   -6.2304   -0.6046 H   0  0  0  0  0  0  0  0  0  0  0  0
    8.9606   -4.6352   -1.2343 H   0  0  0  0  0  0  0  0  0  0  0  0
    6.9251   -6.5536   -2.4927 H   0  0  0  0  0  0  0  0  0  0  0  0
    9.1746   -7.0914   -3.3313 H   0  0  0  0  0  0  0  0  0  0  0  0
    7.4145   -7.0985   -4.7366 H   0  0  0  0  0  0  0  0  0  0  0  0
    6.1585   -5.3813   -5.1744 H   0  0  0  0  0  0  0  0  0  0  0  0
    7.5536   -4.3264   -5.4901 H   0  0  0  0  0  0  0  0  0  0  0  0
    7.8901   -3.7803   -3.2774 H   0  0  0  0  0  0  0  0  0  0  0  0
    5.0882   -4.8555   -2.6645 H   0  0  0  0  0  0  0  0  0  0  0  0
    5.4315   -3.2014   -3.2005 H   0  0  0  0  0  0  0  0  0  0  0  0
    9.2097   -1.5603   -3.0403 H   0  0  0  0  0  0  0  0  0  0  0  0
   11.0049   -3.2671   -3.1442 H   0  0  0  0  0  0  0  0  0  0  0  0
   12.6833   -3.4338   -1.3009 H   0  0  0  0  0  0  0  0  0  0  0  0
   12.5126   -1.9056    0.6656 H   0  0  0  0  0  0  0  0  0  0  0  0
   10.6661   -0.2477    0.8012 H   0  0  0  0  0  0  0  0  0  0  0  0
    9.9838    2.0080   -0.7975 H   0  0  0  0  0  0  0  0  0  0  0  0
  1  2  1  0
  1 29  1  0
  1 30  1  0
  1 31  1  0
  2  3  1  0
  3  4  1  0
  3 32  1  0
  3 33  1  0
  4  5  2  0
  4 28  1  0
  5  6  1  0
  6  7  1  0
  6 17  2  0
  7  8  1  0
  7 34  1  0
  8  9  1  0
  8 16  1  0
  8 35  1  1
  9 10  1  0
  9 36  1  0
  9 37  1  0
 10 11  1  0
 10 38  1  0
 10 39  1  0
 11 12  1  0
 11 15  1  0
 11 40  1  1
 12 13  1  0
 12 41  1  0
 13 14  1  0
 13 42  1  0
 14 15  1  0
 14 43  1  0
 14 44  1  0
 15 16  1  0
 15 45  1  6
 16 46  1  0
 16 47  1  0
 17 18  1  0
 17 27  1  0
 18 19  1  0
 18 25  2  0
 19 20  2  0
 19 24  1  0
 20 21  1  0
 20 48  1  0
 21 22  2  0
 21 49  1  0
 22 23  1  0
 22 50  1  0
 23 24  2  0
 23 51  1  0
 24 52  1  0
 25 26  1  0
 25 53  1  0
 26 27  1  0
 27 28  2  0
M  END

