
     RDKit          3D

 83 88  0  0  0  0  0  0  0  0999 V2000
    1.8493    3.9992    1.3735 C   0  0  0  0  0  0  0  0  0  0  0  0
    2.5204    3.3237    0.2006 C   0  0  0  0  0  0  0  0  0  0  0  0
    2.0412    2.3404   -0.3291 O   0  0  0  0  0  0  0  0  0  0  0  0
    3.8082    3.9720   -0.3018 C   0  0  0  0  0  0  0  0  0  0  0  0
    4.8919    3.0637   -0.8627 C   0  0  0  0  0  0  0  0  0  0  0  0
    4.4975    1.9815   -1.5434 N   0  0  0  0  0  0  0  0  0  0  0  0
    6.1236    3.4570   -0.6611 N   0  0  0  0  0  0  0  0  0  0  0  0
    7.1781    2.7069   -1.1673 C   0  0  0  0  0  0  0  0  0  0  0  0
    7.1008    1.6566   -1.8121 O   0  0  0  0  0  0  0  0  0  0  0  0
    8.3795    3.3037   -0.8449 N   0  0  0  0  0  0  0  0  0  0  0  0
    9.6882    2.9055   -1.1312 C   0  0  0  0  0  0  0  0  0  0  0  0
   10.0091    1.7446   -1.8620 C   0  0  0  0  0  0  0  0  0  0  0  0
   11.3437    1.4184   -2.0877 C   0  0  0  0  0  0  0  0  0  0  0  0
   12.3971    2.2210   -1.6207 C   0  0  0  0  0  0  0  0  0  0  0  0
   13.8165    1.9247   -1.9544 C   0  0  0  0  0  0  0  0  0  0  0  0
   14.5311    2.9878   -2.3116 N   0  0  0  0  0  0  0  0  0  0  0  0
   15.7824    2.7845   -2.7617 C   0  0  0  0  0  0  0  0  0  0  0  0
   16.5803    3.8764   -2.9581 N   0  0  0  0  0  0  0  0  0  0  0  0
   16.0891    5.2401   -2.7774 C   0  0  0  0  0  0  0  0  0  0  0  0
   17.2018    6.1067   -2.1760 C   0  0  1  0  0  0  0  0  0  0  0  0
   17.7542    5.5316   -0.8504 C   0  0  0  0  0  0  0  0  0  0  0  0
   18.9009    4.6030   -1.3294 C   0  0  0  0  0  0  0  0  0  0  0  0
   18.8549    4.7659   -2.8669 C   0  0  1  0  0  0  0  0  0  0  0  0
   17.9153    3.7579   -3.5391 C   0  0  0  0  0  0  0  0  0  0  0  0
   18.3277    6.0806   -3.0557 O   0  0  0  0  0  0  0  0  0  0  0  0
   16.2753    1.5820   -3.0802 N   0  0  0  0  0  0  0  0  0  0  0  0
   15.5756    0.5148   -2.7256 C   0  0  0  0  0  0  0  0  0  0  0  0
   14.3597    0.5953   -1.9936 C   0  0  0  0  0  0  0  0  0  0  0  0
   13.7326   -0.4365   -1.0983 C   0  0  0  0  0  0  0  0  0  0  0  0
   13.0788   -0.0381   -0.1409 O   0  0  0  0  0  0  0  0  0  0  0  0
   13.8297   -1.8117   -1.3250 N   0  0  0  0  0  0  0  0  0  0  0  0
   13.0769   -2.6165   -0.3087 C   0  0  1  0  0  0  0  0  0  0  0  0
   11.5532   -2.5333   -0.5492 C   0  0  0  0  0  0  0  0  0  0  0  0
   11.0982   -3.4623   -1.6685 C   0  0  0  0  0  0  0  0  0  0  0  0
   11.4403   -4.8119   -1.3966 O   0  0  0  0  0  0  0  0  0  0  0  0
   12.8318   -4.9995   -1.2887 C   0  0  0  0  0  0  0  0  0  0  0  0
   13.4570   -4.1079   -0.2058 C   0  0  0  0  0  0  0  0  0  0  0  0
   14.9747   -2.4235   -1.9859 C   0  0  0  0  0  0  0  0  0  0  0  0
   15.4173   -1.8477   -3.3358 C   0  0  1  0  0  0  0  0  0  0  0  0
   16.4735   -2.7854   -3.9323 C   0  0  0  0  0  0  0  0  0  0  0  0
   14.2658   -1.6468   -4.3254 C   0  0  0  0  0  0  0  0  0  0  0  0
   16.1550   -0.6254   -3.1309 O   0  0  0  0  0  0  0  0  0  0  0  0
   12.0647    3.3915   -0.9206 C   0  0  0  0  0  0  0  0  0  0  0  0
   10.7385    3.7214   -0.6660 C   0  0  0  0  0  0  0  0  0  0  0  0
    0.8621    3.5534    1.5512 H   0  0  0  0  0  0  0  0  0  0  0  0
    1.7534    5.0833    1.1975 H   0  0  0  0  0  0  0  0  0  0  0  0
    2.4771    3.8778    2.2730 H   0  0  0  0  0  0  0  0  0  0  0  0
    4.2701    4.6045    0.4672 H   0  0  0  0  0  0  0  0  0  0  0  0
    3.4946    4.6594   -1.1121 H   0  0  0  0  0  0  0  0  0  0  0  0
    3.5138    1.7245   -1.5171 H   0  0  0  0  0  0  0  0  0  0  0  0
    5.2451    1.3812   -1.8995 H   0  0  0  0  0  0  0  0  0  0  0  0
    8.2665    4.1587   -0.3122 H   0  0  0  0  0  0  0  0  0  0  0  0
    9.2055    1.1187   -2.2423 H   0  0  0  0  0  0  0  0  0  0  0  0
   11.5688    0.5187   -2.6652 H   0  0  0  0  0  0  0  0  0  0  0  0
   15.1997    5.2131   -2.1374 H   0  0  0  0  0  0  0  0  0  0  0  0
   15.7945    5.6730   -3.7528 H   0  0  0  0  0  0  0  0  0  0  0  0
   16.8597    7.1493   -2.0972 H   0  0  0  0  0  0  0  0  0  0  0  0
   16.9822    4.9960   -0.2785 H   0  0  0  0  0  0  0  0  0  0  0  0
   18.1383    6.3445   -0.2171 H   0  0  0  0  0  0  0  0  0  0  0  0
   18.7604    3.5568   -1.0202 H   0  0  0  0  0  0  0  0  0  0  0  0
   19.8737    4.9400   -0.9429 H   0  0  0  0  0  0  0  0  0  0  0  0
   19.8449    4.7278   -3.3453 H   0  0  0  0  0  0  0  0  0  0  0  0
   18.2626    2.7255   -3.4131 H   0  0  0  0  0  0  0  0  0  0  0  0
   17.8817    3.9762   -4.6240 H   0  0  0  0  0  0  0  0  0  0  0  0
   13.2838   -2.1451    0.6633 H   0  0  0  0  0  0  0  0  0  0  0  0
   11.2546   -1.4953   -0.7463 H   0  0  0  0  0  0  0  0  0  0  0  0
   11.0449   -2.8360    0.3822 H   0  0  0  0  0  0  0  0  0  0  0  0
   11.5439   -3.1453   -2.6355 H   0  0  0  0  0  0  0  0  0  0  0  0
   10.0041   -3.4350   -1.7837 H   0  0  0  0  0  0  0  0  0  0  0  0
   13.3101   -4.8261   -2.2773 H   0  0  0  0  0  0  0  0  0  0  0  0
   12.9904   -6.0610   -1.0408 H   0  0  0  0  0  0  0  0  0  0  0  0
   14.5455   -4.2662   -0.1527 H   0  0  0  0  0  0  0  0  0  0  0  0
   13.0568   -4.4466    0.7638 H   0  0  0  0  0  0  0  0  0  0  0  0
   14.7280   -3.4716   -2.1772 H   0  0  0  0  0  0  0  0  0  0  0  0
   15.8668   -2.4236   -1.3293 H   0  0  0  0  0  0  0  0  0  0  0  0
   16.0337   -3.7594   -4.1931 H   0  0  0  0  0  0  0  0  0  0  0  0
   17.2966   -2.9457   -3.2196 H   0  0  0  0  0  0  0  0  0  0  0  0
   16.8957   -2.3334   -4.8409 H   0  0  0  0  0  0  0  0  0  0  0  0
   13.7781   -2.6123   -4.5293 H   0  0  0  0  0  0  0  0  0  0  0  0
   14.6545   -1.2479   -5.2743 H   0  0  0  0  0  0  0  0  0  0  0  0
   13.5019   -0.9580   -3.9443 H   0  0  0  0  0  0  0  0  0  0  0  0
   12.8651    4.0406   -0.5626 H   0  0  0  0  0  0  0  0  0  0  0  0
   10.5042    4.6282   -0.1003 H   0  0  0  0  0  0  0  0  0  0  0  0
  1  2  1  0
  1 45  1  0
  1 46  1  0
  1 47  1  0
  2  3  2  0
  2  4  1  0
  4  5  1  0
  4 48  1  0
  4 49  1  0
  5  6  1  0
  5  7  2  0
  6 50  1  0
  6 51  1  0
  7  8  1  0
  8  9  2  0
  8 10  1  0
 10 11  1  0
 10 52  1  0
 11 12  2  0
 11 44  1  0
 12 13  1  0
 12 53  1  0
 13 14  2  0
 13 54  1  0
 14 15  1  0
 14 43  1  0
 15 16  2  0
 15 28  1  0
 16 17  1  0
 17 18  1  0
 17 26  2  0
 18 19  1  0
 18 24  1  0
 19 20  1  0
 19 55  1  0
 19 56  1  0
 20 21  1  0
 20 25  1  0
 20 57  1  1
 21 22  1  0
 21 58  1  0
 21 59  1  0
 22 23  1  0
 22 60  1  0
 22 61  1  0
 23 24  1  0
 23 25  1  0
 23 62  1  6
 24 63  1  0
 24 64  1  0
 26 27  1  0
 27 28  2  0
 27 42  1  0
 28 29  1  0
 29 30  2  0
 29 31  1  0
 31 32  1  0
 31 38  1  0
 32 33  1  0
 32 37  1  0
 32 65  1  1
 33 34  1  0
 33 66  1  0
 33 67  1  0
 34 35  1  0
 34 68  1  0
 34 69  1  0
 35 36  1  0
 36 37  1  0
 36 70  1  0
 36 71  1  0
 37 72  1  0
 37 73  1  0
 38 39  1  0
 38 74  1  0
 38 75  1  0
 39 40  1  6
 39 41  1  0
 39 42  1  0
 40 76  1  0
 40 77  1  0
 40 78  1  0
 41 79  1  0
 41 80  1  0
 41 81  1  0
 43 44  2  0
 43 82  1  0
 44 83  1  0
M  END

