
     RDKit          3D

 33 34  0  0  0  0  0  0  0  0999 V2000
    2.8894   -0.6073    0.7693 O   0  0  0  0  0  0  0  0  0  0  0  0
    2.2598    0.1590   -0.2973 S   0  0  1  0  0  0  0  0  0  0  0  0
    0.8600    0.5547   -0.2431 O   0  0  0  0  0  0  0  0  0  0  0  0
    3.1376    1.5547   -0.4828 N   0  0  0  0  0  0  0  0  0  0  0  0
    2.7228    2.5990   -1.4173 C   0  0  0  0  0  0  0  0  0  0  0  0
    3.2062    3.9733   -0.9532 C   0  0  0  0  0  0  0  0  0  0  0  0
    2.7865    5.1019   -1.9013 C   0  0  0  0  0  0  0  0  0  0  0  0
    3.2628    6.4694   -1.4533 C   0  0  1  0  0  0  0  0  0  0  0  0
    2.5442    7.7191   -1.8925 C   0  0  0  0  0  0  0  0  0  0  0  0
    2.4667    7.2717   -0.4532 C   0  0  0  0  0  0  0  0  0  0  0  0
    2.5300   -0.8199   -1.8415 C   0  0  0  0  0  0  0  0  0  0  0  0
    3.8420   -1.2196   -2.1836 C   0  0  0  0  0  0  0  0  0  0  0  0
    5.2417   -0.7604   -1.2344 Cl  0  0  0  0  0  0  0  0  0  0  0  0
    4.1202   -1.9961   -3.3088 C   0  0  0  0  0  0  0  0  0  0  0  0
    3.0647   -2.4051   -4.1225 C   0  0  0  0  0  0  0  0  0  0  0  0
    3.4206   -3.4661   -5.6558 Br  0  0  0  0  0  0  0  0  0  0  0  0
    1.7562   -2.0419   -3.8230 C   0  0  0  0  0  0  0  0  0  0  0  0
    1.4892   -1.2576   -2.6913 C   0  0  0  0  0  0  0  0  0  0  0  0
   -0.1950   -0.8918   -2.4476 Cl  0  0  0  0  0  0  0  0  0  0  0  0
    4.1370    1.3940   -0.3737 H   0  0  0  0  0  0  0  0  0  0  0  0
    1.6236    2.5794   -1.4550 H   0  0  0  0  0  0  0  0  0  0  0  0
    3.0907    2.3948   -2.4426 H   0  0  0  0  0  0  0  0  0  0  0  0
    4.3082    3.9621   -0.8624 H   0  0  0  0  0  0  0  0  0  0  0  0
    2.8147    4.1627    0.0599 H   0  0  0  0  0  0  0  0  0  0  0  0
    1.6852    5.1125   -1.9926 H   0  0  0  0  0  0  0  0  0  0  0  0
    3.1728    4.8943   -2.9167 H   0  0  0  0  0  0  0  0  0  0  0  0
    4.3533    6.5544   -1.3680 H   0  0  0  0  0  0  0  0  0  0  0  0
    1.6505    7.6024   -2.5138 H   0  0  0  0  0  0  0  0  0  0  0  0
    3.1383    8.6058   -2.1313 H   0  0  0  0  0  0  0  0  0  0  0  0
    1.5201    6.8503   -0.0995 H   0  0  0  0  0  0  0  0  0  0  0  0
    3.0051    7.8503    0.3028 H   0  0  0  0  0  0  0  0  0  0  0  0
    5.1491   -2.2746   -3.5333 H   0  0  0  0  0  0  0  0  0  0  0  0
    0.9265   -2.3597   -4.4531 H   0  0  0  0  0  0  0  0  0  0  0  0
  1  2  2  0
  2  3  2  0
  2  4  1  6
  2 11  1  0
  4  5  1  0
  4 20  1  0
  5  6  1  0
  5 21  1  0
  5 22  1  0
  6  7  1  0
  6 23  1  0
  6 24  1  0
  7  8  1  0
  7 25  1  0
  7 26  1  0
  8  9  1  0
  8 10  1  0
  8 27  1  1
  9 10  1  0
  9 28  1  0
  9 29  1  0
 10 30  1  0
 10 31  1  0
 11 12  2  0
 11 18  1  0
 12 13  1  0
 12 14  1  0
 14 15  2  0
 14 32  1  0
 15 16  1  0
 15 17  1  0
 17 18  2  0
 17 33  1  0
 18 19  1  0
M  END

