
     RDKit          3D

 40 40  0  0  0  0  0  0  0  0999 V2000
    6.0794    2.0484    0.7916 C   0  0  0  0  0  0  0  0  0  0  0  0
    5.3189    0.8470    0.6333 O   0  0  0  0  0  0  0  0  0  0  0  0
    5.4514    0.1999   -0.5329 C   0  0  0  0  0  0  0  0  0  0  0  0
    6.1912    0.5903   -1.4145 O   0  0  0  0  0  0  0  0  0  0  0  0
    4.5520   -1.0204   -0.6252 C   0  0  1  0  0  0  0  0  0  0  0  0
    3.2722   -0.6084   -1.3798 C   0  0  0  0  0  0  0  0  0  0  0  0
    5.3170   -2.2098   -1.3019 C   0  0  1  0  0  0  0  0  0  0  0  0
    5.6566   -1.8515   -2.6321 O   0  0  0  0  0  0  0  0  0  0  0  0
    6.5912   -2.5826   -0.5097 C   0  0  0  0  0  0  0  0  0  0  0  0
    6.2950   -3.2566    0.8337 C   0  0  0  0  0  0  0  0  0  0  0  0
    5.3830   -4.4793    0.6730 C   0  0  0  0  0  0  0  0  0  0  0  0
    4.0841   -4.1617   -0.0945 C   0  0  2  0  0  0  0  0  0  0  0  0
    3.1919   -5.4154   -0.3127 C   0  0  1  0  0  0  0  0  0  0  0  0
    2.9037   -6.1715    0.9939 C   0  0  0  0  0  0  0  0  0  0  0  0
    1.8630   -5.0773   -1.0072 C   0  0  0  0  0  0  0  0  0  0  0  0
    4.4363   -3.4669   -1.4243 C   0  0  0  0  0  0  0  0  0  0  0  0
    5.8497    2.4231    1.7965 H   0  0  0  0  0  0  0  0  0  0  0  0
    5.7961    2.7919    0.0315 H   0  0  0  0  0  0  0  0  0  0  0  0
    7.1560    1.8439    0.6952 H   0  0  0  0  0  0  0  0  0  0  0  0
    4.2789   -1.2897    0.4045 H   0  0  0  0  0  0  0  0  0  0  0  0
    3.4992   -0.4341   -2.4410 H   0  0  0  0  0  0  0  0  0  0  0  0
    2.8423    0.3098   -0.9500 H   0  0  0  0  0  0  0  0  0  0  0  0
    2.5063   -1.3939   -1.3123 H   0  0  0  0  0  0  0  0  0  0  0  0
    6.1020   -0.9873   -2.5834 H   0  0  0  0  0  0  0  0  0  0  0  0
    7.2331   -1.6959   -0.3736 H   0  0  0  0  0  0  0  0  0  0  0  0
    7.1603   -3.2728   -1.1550 H   0  0  0  0  0  0  0  0  0  0  0  0
    5.8257   -2.5347    1.5261 H   0  0  0  0  0  0  0  0  0  0  0  0
    7.2409   -3.5581    1.3145 H   0  0  0  0  0  0  0  0  0  0  0  0
    5.1544   -4.8923    1.6672 H   0  0  0  0  0  0  0  0  0  0  0  0
    5.9299   -5.2697    0.1244 H   0  0  0  0  0  0  0  0  0  0  0  0
    3.4924   -3.4584    0.5256 H   0  0  0  0  0  0  0  0  0  0  0  0
    3.7538   -6.0992   -0.9783 H   0  0  0  0  0  0  0  0  0  0  0  0
    2.4153   -5.5128    1.7336 H   0  0  0  0  0  0  0  0  0  0  0  0
    3.8131   -6.5803    1.4581 H   0  0  0  0  0  0  0  0  0  0  0  0
    2.2239   -7.0188    0.8093 H   0  0  0  0  0  0  0  0  0  0  0  0
    1.2758   -4.3606   -0.4062 H   0  0  0  0  0  0  0  0  0  0  0  0
    1.2476   -5.9830   -1.1308 H   0  0  0  0  0  0  0  0  0  0  0  0
    2.0030   -4.6416   -2.0070 H   0  0  0  0  0  0  0  0  0  0  0  0
    3.5359   -3.2069   -1.9961 H   0  0  0  0  0  0  0  0  0  0  0  0
    5.0014   -4.1704   -2.0603 H   0  0  0  0  0  0  0  0  0  0  0  0
  1  2  1  0
  1 17  1  0
  1 18  1  0
  1 19  1  0
  2  3  1  0
  3  4  2  0
  3  5  1  0
  5  6  1  0
  5  7  1  0
  5 20  1  1
  6 21  1  0
  6 22  1  0
  6 23  1  0
  7  8  1  6
  7  9  1  0
  7 16  1  0
  8 24  1  0
  9 10  1  0
  9 25  1  0
  9 26  1  0
 10 11  1  0
 10 27  1  0
 10 28  1  0
 11 12  1  0
 11 29  1  0
 11 30  1  0
 12 13  1  0
 12 16  1  0
 12 31  1  1
 13 14  1  0
 13 15  1  0
 13 32  1  6
 14 33  1  0
 14 34  1  0
 14 35  1  0
 15 36  1  0
 15 37  1  0
 15 38  1  0
 16 39  1  0
 16 40  1  0
M  END

