
     RDKit          3D

 25 26  0  0  0  0  0  0  0  0999 V2000
    0.9683    2.5321    1.1520 C   0  0  0  0  0  0  0  0  0  0  0  0
    2.4716    2.4216    1.4069 C   0  0  0  0  0  0  0  0  0  0  0  0
    3.0942    1.2310    0.6691 C   0  0  0  0  0  0  0  0  0  0  0  0
    4.5364    1.1076    0.8577 N   0  0  0  0  0  0  0  0  0  0  0  0
    5.4527    1.5436   -0.0946 C   0  0  0  0  0  0  0  0  0  0  0  0
    5.1950    2.0433   -1.1611 O   0  0  0  0  0  0  0  0  0  0  0  0
    6.8698    1.2431    0.4974 C   0  0  0  0  0  0  0  0  0  0  0  0
    7.9127    1.4844   -0.0563 O   0  0  0  0  0  0  0  0  0  0  0  0
    6.6066    0.6300    1.8134 C   0  0  0  0  0  0  0  0  0  0  0  0
    7.4838    0.1578    2.7872 C   0  0  0  0  0  0  0  0  0  0  0  0
    6.9510   -0.3844    3.9614 C   0  0  0  0  0  0  0  0  0  0  0  0
    5.5618   -0.4410    4.1347 C   0  0  0  0  0  0  0  0  0  0  0  0
    4.6932    0.0349    3.1504 C   0  0  0  0  0  0  0  0  0  0  0  0
    3.3646   -0.0330    3.3583 F   0  0  0  0  0  0  0  0  0  0  0  0
    5.2032    0.5789    1.9720 C   0  0  0  0  0  0  0  0  0  0  0  0
    0.5380    3.3942    1.6843 H   0  0  0  0  0  0  0  0  0  0  0  0
    0.4344    1.6302    1.4949 H   0  0  0  0  0  0  0  0  0  0  0  0
    0.7499    2.6607    0.0789 H   0  0  0  0  0  0  0  0  0  0  0  0
    2.6597    2.3158    2.4882 H   0  0  0  0  0  0  0  0  0  0  0  0
    2.9804    3.3447    1.0814 H   0  0  0  0  0  0  0  0  0  0  0  0
    2.9457    1.3423   -0.4156 H   0  0  0  0  0  0  0  0  0  0  0  0
    2.6152    0.2914    0.9835 H   0  0  0  0  0  0  0  0  0  0  0  0
    8.5611    0.2182    2.6185 H   0  0  0  0  0  0  0  0  0  0  0  0
    7.6075   -0.7647    4.7463 H   0  0  0  0  0  0  0  0  0  0  0  0
    5.1212   -0.8583    5.0430 H   0  0  0  0  0  0  0  0  0  0  0  0
  1  2  1  0
  1 16  1  0
  1 17  1  0
  1 18  1  0
  2  3  1  0
  2 19  1  0
  2 20  1  0
  3  4  1  0
  3 21  1  0
  3 22  1  0
  4  5  1  0
  4 15  1  0
  5  6  2  0
  5  7  1  0
  7  8  2  0
  7  9  1  0
  9 10  2  0
  9 15  1  0
 10 11  1  0
 10 23  1  0
 11 12  2  0
 11 24  1  0
 12 13  1  0
 12 25  1  0
 13 14  1  0
 13 15  2  0
M  END

