
     RDKit          3D

 35 35  0  0  0  0  0  0  0  0999 V2000
    2.7771    1.3146    0.9431 C   0  0  0  0  0  0  0  0  0  0  0  0
    2.7071    0.0970    0.2175 O   0  0  0  0  0  0  0  0  0  0  0  0
    3.0412    0.0665   -1.1005 C   0  0  0  0  0  0  0  0  0  0  0  0
    3.4553    1.2192   -1.7790 C   0  0  0  0  0  0  0  0  0  0  0  0
    3.7857    1.1315   -3.1293 C   0  0  0  0  0  0  0  0  0  0  0  0
    4.2216    2.3668   -3.8216 N   0  0  0  0  0  0  0  0  0  0  0  0
    4.2662    3.3953   -3.1649 O   0  0  0  0  0  0  0  0  0  0  0  0
    4.5077    2.2764   -5.0027 O   0  0  0  0  0  0  0  0  0  0  0  0
    3.7198   -0.0623   -3.8393 C   0  0  0  0  0  0  0  0  0  0  0  0
    3.3034   -1.1998   -3.1513 C   0  0  0  0  0  0  0  0  0  0  0  0
    2.9597   -1.1735   -1.7914 C   0  0  0  0  0  0  0  0  0  0  0  0
    2.5320   -2.5106   -1.2121 C   0  0  0  0  0  0  0  0  0  0  0  0
    2.5028   -3.5002   -1.9482 O   0  0  0  0  0  0  0  0  0  0  0  0
    2.2104   -2.5643    0.0986 N   0  0  0  0  0  0  0  0  0  0  0  0
    1.8591   -3.8060    0.7929 C   0  0  1  0  0  0  0  0  0  0  0  0
    2.4510   -3.7765    2.2032 C   0  0  0  0  0  0  0  0  0  0  0  0
    0.3435   -4.0759    0.8034 C   0  0  0  0  0  0  0  0  0  0  0  0
   -0.2846   -4.2221   -0.5901 C   0  0  0  0  0  0  0  0  0  0  0  0
    0.3472   -5.1964   -1.3784 O   0  0  0  0  0  0  0  0  0  0  0  0
    2.4683    1.0785    1.9694 H   0  0  0  0  0  0  0  0  0  0  0  0
    2.0938    2.0720    0.5241 H   0  0  0  0  0  0  0  0  0  0  0  0
    3.8038    1.7162    0.9570 H   0  0  0  0  0  0  0  0  0  0  0  0
    3.5312    2.1890   -1.2944 H   0  0  0  0  0  0  0  0  0  0  0  0
    3.9869   -0.0862   -4.8947 H   0  0  0  0  0  0  0  0  0  0  0  0
    3.2296   -2.1644   -3.6551 H   0  0  0  0  0  0  0  0  0  0  0  0
    2.2350   -1.6943    0.6214 H   0  0  0  0  0  0  0  0  0  0  0  0
    2.3289   -4.6205    0.2212 H   0  0  0  0  0  0  0  0  0  0  0  0
    2.0104   -2.9627    2.8055 H   0  0  0  0  0  0  0  0  0  0  0  0
    3.5420   -3.6314    2.1731 H   0  0  0  0  0  0  0  0  0  0  0  0
    2.2449   -4.7217    2.7273 H   0  0  0  0  0  0  0  0  0  0  0  0
   -0.1754   -3.2725    1.3592 H   0  0  0  0  0  0  0  0  0  0  0  0
    0.1796   -5.0131    1.3624 H   0  0  0  0  0  0  0  0  0  0  0  0
   -0.3021   -3.2339   -1.0948 H   0  0  0  0  0  0  0  0  0  0  0  0
   -1.3399   -4.5218   -0.4668 H   0  0  0  0  0  0  0  0  0  0  0  0
    1.1641   -4.7913   -1.7273 H   0  0  0  0  0  0  0  0  0  0  0  0
  1  2  1  0
  1 20  1  0
  1 21  1  0
  1 22  1  0
  2  3  1  0
  3  4  2  0
  3 11  1  0
  4  5  1  0
  4 23  1  0
  5  6  1  0
  5  9  2  0
  6  7  2  0
  6  8  1  0
  9 10  1  0
  9 24  1  0
 10 11  2  0
 10 25  1  0
 11 12  1  0
 12 13  2  0
 12 14  1  0
 14 15  1  0
 14 26  1  0
 15 16  1  0
 15 17  1  0
 15 27  1  6
 16 28  1  0
 16 29  1  0
 16 30  1  0
 17 18  1  0
 17 31  1  0
 17 32  1  0
 18 19  1  0
 18 33  1  0
 18 34  1  0
 19 35  1  0
M  CHG  2   6   1   8  -1
M  END

