
     RDKit          3D

 29 30  0  0  0  0  0  0  0  0999 V2000
    1.3304   -0.1134    0.5674 C   0  0  0  0  0  0  0  0  0  0  0  0
    2.7154    0.1999    0.0568 C   0  0  0  0  0  0  0  0  0  0  0  0
    3.1203    1.5119   -0.2275 C   0  0  0  0  0  0  0  0  0  0  0  0
    4.3970    1.7938   -0.7119 C   0  0  0  0  0  0  0  0  0  0  0  0
    5.3377    0.7680   -0.9020 C   0  0  0  0  0  0  0  0  0  0  0  0
    6.6247    1.0402   -1.4107 N   0  0  0  0  0  0  0  0  0  0  0  0
    7.6891    2.1886   -0.7700 S   0  0  1  0  0  0  0  0  0  0  0  0
    8.9011    2.0268   -1.5678 O   0  0  0  0  0  0  0  0  0  0  0  0
    6.9687    3.4538   -0.6621 O   0  0  0  0  0  0  0  0  0  0  0  0
    8.0648    1.6520    0.9006 C   0  0  0  0  0  0  0  0  0  0  0  0
    9.1196    0.7590    1.1280 C   0  0  0  0  0  0  0  0  0  0  0  0
    9.3723    0.3563    2.4339 C   0  0  0  0  0  0  0  0  0  0  0  0
    8.5449    0.8748    3.4450 C   0  0  0  0  0  0  0  0  0  0  0  0
    8.8315    0.3726    5.0932 Cl  0  0  0  0  0  0  0  0  0  0  0  0
    7.5603    1.7278    3.2369 N   0  0  0  0  0  0  0  0  0  0  0  0
    7.3180    2.1228    1.9845 C   0  0  0  0  0  0  0  0  0  0  0  0
    4.9311   -0.5502   -0.6090 C   0  0  0  0  0  0  0  0  0  0  0  0
    6.1552   -2.0026   -0.8604 Br  0  0  0  0  0  0  0  0  0  0  0  0
    3.6446   -0.8309   -0.1527 C   0  0  0  0  0  0  0  0  0  0  0  0
    0.7200    0.7969    0.6557 H   0  0  0  0  0  0  0  0  0  0  0  0
    1.3685   -0.5905    1.5609 H   0  0  0  0  0  0  0  0  0  0  0  0
    0.8026   -0.8098   -0.1050 H   0  0  0  0  0  0  0  0  0  0  0  0
    2.4159    2.3356   -0.0855 H   0  0  0  0  0  0  0  0  0  0  0  0
    4.6893    2.8155   -0.9541 H   0  0  0  0  0  0  0  0  0  0  0  0
    7.1424    0.2301   -1.7494 H   0  0  0  0  0  0  0  0  0  0  0  0
    9.7328    0.4071    0.2957 H   0  0  0  0  0  0  0  0  0  0  0  0
   10.1825   -0.3314    2.6776 H   0  0  0  0  0  0  0  0  0  0  0  0
    6.5136    2.8481    1.8318 H   0  0  0  0  0  0  0  0  0  0  0  0
    3.3679   -1.8675    0.0513 H   0  0  0  0  0  0  0  0  0  0  0  0
  1  2  1  0
  1 20  1  0
  1 21  1  0
  1 22  1  0
  2  3  2  0
  2 19  1  0
  3  4  1  0
  3 23  1  0
  4  5  2  0
  4 24  1  0
  5  6  1  0
  5 17  1  0
  7  6  1  6
  6 25  1  0
  7  8  2  0
  7  9  2  0
  7 10  1  0
 10 11  2  0
 10 16  1  0
 11 12  1  0
 11 26  1  0
 12 13  2  0
 12 27  1  0
 13 14  1  0
 13 15  1  0
 15 16  2  0
 16 28  1  0
 17 18  1  0
 17 19  2  0
 19 29  1  0
M  END

