
     RDKit          3D

 61 63  0  0  0  0  0  0  0  0999 V2000
    2.9673    0.3768   -1.2095 C   0  0  0  0  0  0  0  0  0  0  0  0
    2.7175   -0.6655   -0.1168 C   0  0  0  0  0  0  0  0  0  0  0  0
    3.0685   -0.1276    1.2848 C   0  0  1  0  0  0  0  0  0  0  0  0
    2.2928    1.1609    1.6829 C   0  0  0  0  0  0  0  0  0  0  0  0
    2.9086    2.2193    1.6668 O   0  0  0  0  0  0  0  0  0  0  0  0
    0.9682    1.0980    2.0299 N   0  0  0  0  0  0  0  0  0  0  0  0
    0.2923    2.3287    2.4522 C   0  0  0  0  0  0  0  0  0  0  0  0
   -0.9973    2.5419    1.6484 C   0  0  0  0  0  0  0  0  0  0  0  0
   -1.8972    1.3850    1.6717 N   0  0  0  0  0  0  0  0  0  0  0  0
   -2.6856    1.2380    2.8917 C   0  0  0  0  0  0  0  0  0  0  0  0
   -3.6004    2.4437    3.1664 C   0  0  0  0  0  0  0  0  0  0  0  0
   -3.3511    3.1709    4.1202 O   0  0  0  0  0  0  0  0  0  0  0  0
   -4.6627    2.6643    2.3268 N   0  0  0  0  0  0  0  0  0  0  0  0
   -5.5536    3.7926    2.6122 C   0  0  0  0  0  0  0  0  0  0  0  0
   -5.7684    4.6664    1.3749 C   0  0  0  0  0  0  0  0  0  0  0  0
   -6.2476    3.8256    0.1876 C   0  0  0  0  0  0  0  0  0  0  0  0
   -5.2817    2.6616   -0.0603 C   0  0  0  0  0  0  0  0  0  0  0  0
   -5.0288    1.7965    1.1930 C   0  0  2  0  0  0  0  0  0  0  0  0
   -6.2034    0.8677    1.5377 C   0  0  0  0  0  0  0  0  0  0  0  0
   -1.1792    0.1799    1.2653 C   0  0  0  0  0  0  0  0  0  0  0  0
    0.1118   -0.0845    2.0612 C   0  0  0  0  0  0  0  0  0  0  0  0
    3.1230   -1.1255    2.3550 N   0  0  0  0  0  0  0  0  0  0  0  0
    3.8799   -0.8075    3.5673 C   0  0  0  0  0  0  0  0  0  0  0  0
    4.1085   -2.1772    4.2285 C   0  0  0  0  0  0  0  0  0  0  0  0
    2.9185   -3.0069    3.7380 C   0  0  0  0  0  0  0  0  0  0  0  0
    2.5222   -2.3603    2.4098 C   0  0  0  0  0  0  0  0  0  0  0  0
    1.7696   -2.8436    1.5812 O   0  0  0  0  0  0  0  0  0  0  0  0
    2.7463   -0.0487   -2.2007 H   0  0  0  0  0  0  0  0  0  0  0  0
    4.0152    0.7183   -1.2150 H   0  0  0  0  0  0  0  0  0  0  0  0
    2.3362    1.2704   -1.0819 H   0  0  0  0  0  0  0  0  0  0  0  0
    3.3428   -1.5540   -0.2986 H   0  0  0  0  0  0  0  0  0  0  0  0
    1.6822   -1.0262   -0.1616 H   0  0  0  0  0  0  0  0  0  0  0  0
    4.0921    0.2737    1.2095 H   0  0  0  0  0  0  0  0  0  0  0  0
    0.9910    3.1611    2.3064 H   0  0  0  0  0  0  0  0  0  0  0  0
    0.0596    2.2646    3.5314 H   0  0  0  0  0  0  0  0  0  0  0  0
   -0.7310    2.7436    0.5959 H   0  0  0  0  0  0  0  0  0  0  0  0
   -1.5232    3.4286    2.0322 H   0  0  0  0  0  0  0  0  0  0  0  0
   -2.0851    1.1398    3.8160 H   0  0  0  0  0  0  0  0  0  0  0  0
   -3.2868    0.3183    2.7986 H   0  0  0  0  0  0  0  0  0  0  0  0
   -5.1005    4.3553    3.4371 H   0  0  0  0  0  0  0  0  0  0  0  0
   -6.5287    3.4115    2.9714 H   0  0  0  0  0  0  0  0  0  0  0  0
   -4.8172    5.1648    1.1165 H   0  0  0  0  0  0  0  0  0  0  0  0
   -6.4929    5.4630    1.6131 H   0  0  0  0  0  0  0  0  0  0  0  0
   -6.3324    4.4450   -0.7206 H   0  0  0  0  0  0  0  0  0  0  0  0
   -7.2631    3.4418    0.3935 H   0  0  0  0  0  0  0  0  0  0  0  0
   -4.3091    3.0673   -0.3883 H   0  0  0  0  0  0  0  0  0  0  0  0
   -5.6469    2.0147   -0.8751 H   0  0  0  0  0  0  0  0  0  0  0  0
   -4.1494    1.1833    0.9676 H   0  0  0  0  0  0  0  0  0  0  0  0
   -7.1330    1.4199    1.7454 H   0  0  0  0  0  0  0  0  0  0  0  0
   -5.9726    0.2600    2.4268 H   0  0  0  0  0  0  0  0  0  0  0  0
   -6.4057    0.1811    0.7002 H   0  0  0  0  0  0  0  0  0  0  0  0
   -0.9094    0.2844    0.1988 H   0  0  0  0  0  0  0  0  0  0  0  0
   -1.8478   -0.6920    1.3500 H   0  0  0  0  0  0  0  0  0  0  0  0
    0.6152   -0.9626    1.6446 H   0  0  0  0  0  0  0  0  0  0  0  0
   -0.1384   -0.3245    3.1131 H   0  0  0  0  0  0  0  0  0  0  0  0
    3.3045   -0.1250    4.2216 H   0  0  0  0  0  0  0  0  0  0  0  0
    4.8178   -0.2897    3.3093 H   0  0  0  0  0  0  0  0  0  0  0  0
    4.1822   -2.1063    5.3231 H   0  0  0  0  0  0  0  0  0  0  0  0
    5.0504   -2.6132    3.8590 H   0  0  0  0  0  0  0  0  0  0  0  0
    2.0484   -2.9330    4.4141 H   0  0  0  0  0  0  0  0  0  0  0  0
    3.1226   -4.0768    3.5915 H   0  0  0  0  0  0  0  0  0  0  0  0
  1  2  1  0
  1 28  1  0
  1 29  1  0
  1 30  1  0
  2  3  1  0
  2 31  1  0
  2 32  1  0
  3  4  1  0
  3 22  1  0
  3 33  1  6
  4  5  2  0
  4  6  1  0
  6  7  1  0
  6 21  1  0
  7  8  1  0
  7 34  1  0
  7 35  1  0
  8  9  1  0
  8 36  1  0
  8 37  1  0
  9 10  1  0
  9 20  1  0
 10 11  1  0
 10 38  1  0
 10 39  1  0
 11 12  2  0
 11 13  1  0
 13 14  1  0
 13 18  1  0
 14 15  1  0
 14 40  1  0
 14 41  1  0
 15 16  1  0
 15 42  1  0
 15 43  1  0
 16 17  1  0
 16 44  1  0
 16 45  1  0
 17 18  1  0
 17 46  1  0
 17 47  1  0
 18 19  1  0
 18 48  1  6
 19 49  1  0
 19 50  1  0
 19 51  1  0
 20 21  1  0
 20 52  1  0
 20 53  1  0
 21 54  1  0
 21 55  1  0
 22 23  1  0
 22 26  1  0
 23 24  1  0
 23 56  1  0
 23 57  1  0
 24 25  1  0
 24 58  1  0
 24 59  1  0
 25 26  1  0
 25 60  1  0
 25 61  1  0
 26 27  2  0
M  END

