
     RDKit          3D

 40 41  0  0  0  0  0  0  0  0999 V2000
    9.8695   -4.3971   -1.2585 C   0  0  0  0  0  0  0  0  0  0  0  0
    9.5638   -3.5096   -0.4952 C   0  0  0  0  0  0  0  0  0  0  0  0
    9.2260   -2.4305    0.4291 C   0  0  0  0  0  0  0  0  0  0  0  0
    7.8396   -2.4864    0.7331 O   0  0  0  0  0  0  0  0  0  0  0  0
    7.3090   -1.5778    1.6054 C   0  0  0  0  0  0  0  0  0  0  0  0
    8.0307   -0.5513    2.2149 C   0  0  0  0  0  0  0  0  0  0  0  0
    7.3619    0.3105    3.0879 C   0  0  0  0  0  0  0  0  0  0  0  0
    8.0650    1.2959    3.6689 F   0  0  0  0  0  0  0  0  0  0  0  0
    6.0101    0.1708    3.3614 C   0  0  0  0  0  0  0  0  0  0  0  0
    5.2904   -0.8622    2.7472 C   0  0  0  0  0  0  0  0  0  0  0  0
    5.9235   -1.7461    1.8662 C   0  0  0  0  0  0  0  0  0  0  0  0
    5.2998   -2.8130    1.1967 N   0  0  0  0  0  0  0  0  0  0  0  0
    3.9853   -3.2105    1.2909 C   0  0  0  0  0  0  0  0  0  0  0  0
    3.1398   -2.6604    1.9756 O   0  0  0  0  0  0  0  0  0  0  0  0
    3.6716   -4.3472    0.5336 N   0  0  0  0  0  0  0  0  0  0  0  0
    2.2364   -4.6759    0.3672 C   0  0  0  0  0  0  0  0  0  0  0  0
    2.2020   -5.5909   -0.8685 C   0  0  0  0  0  0  0  0  0  0  0  0
    3.6669   -6.0718   -1.0842 C   0  0  2  0  0  0  0  0  0  0  0  0
    3.9654   -6.4578   -2.5321 C   0  0  0  0  0  0  0  0  0  0  0  0
    3.9465   -7.2890   -0.1646 C   0  0  0  0  0  0  0  0  0  0  0  0
    3.9867   -8.4182   -0.5750 O   0  0  0  0  0  0  0  0  0  0  0  0
    4.1190   -7.0232    1.1432 O   0  0  0  0  0  0  0  0  0  0  0  0
    4.4517   -4.8291   -0.6137 C   0  0  0  0  0  0  0  0  0  0  0  0
   10.1419   -5.1865   -1.9345 H   0  0  0  0  0  0  0  0  0  0  0  0
    9.4787   -1.4535   -0.0253 H   0  0  0  0  0  0  0  0  0  0  0  0
    9.8242   -2.5284    1.3550 H   0  0  0  0  0  0  0  0  0  0  0  0
    9.0934   -0.3943    2.0370 H   0  0  0  0  0  0  0  0  0  0  0  0
    5.5235    0.8632    4.0500 H   0  0  0  0  0  0  0  0  0  0  0  0
    4.2296   -0.9964    2.9453 H   0  0  0  0  0  0  0  0  0  0  0  0
    5.9341   -3.3447    0.6127 H   0  0  0  0  0  0  0  0  0  0  0  0
    1.6433   -3.7582    0.2378 H   0  0  0  0  0  0  0  0  0  0  0  0
    1.8586   -5.1703    1.2756 H   0  0  0  0  0  0  0  0  0  0  0  0
    1.8946   -5.0199   -1.7590 H   0  0  0  0  0  0  0  0  0  0  0  0
    1.4979   -6.4288   -0.7600 H   0  0  0  0  0  0  0  0  0  0  0  0
    3.3679   -7.3316   -2.8247 H   0  0  0  0  0  0  0  0  0  0  0  0
    5.0239   -6.7315   -2.6609 H   0  0  0  0  0  0  0  0  0  0  0  0
    3.7348   -5.6222   -3.2113 H   0  0  0  0  0  0  0  0  0  0  0  0
    4.0491   -6.0588    1.3055 H   0  0  0  0  0  0  0  0  0  0  0  0
    4.5004   -4.0793   -1.4266 H   0  0  0  0  0  0  0  0  0  0  0  0
    5.4858   -5.0823   -0.3261 H   0  0  0  0  0  0  0  0  0  0  0  0
  1  2  3  0
  1 24  1  0
  2  3  1  0
  3  4  1  0
  3 25  1  0
  3 26  1  0
  4  5  1  0
  5  6  2  0
  5 11  1  0
  6  7  1  0
  6 27  1  0
  7  8  1  0
  7  9  2  0
  9 10  1  0
  9 28  1  0
 10 11  2  0
 10 29  1  0
 11 12  1  0
 12 13  1  0
 12 30  1  0
 13 14  2  0
 13 15  1  0
 15 16  1  0
 15 23  1  0
 16 17  1  0
 16 31  1  0
 16 32  1  0
 17 18  1  0
 17 33  1  0
 17 34  1  0
 18 19  1  0
 18 20  1  1
 18 23  1  0
 19 35  1  0
 19 36  1  0
 19 37  1  0
 20 21  2  0
 20 22  1  0
 22 38  1  0
 23 39  1  0
 23 40  1  0
M  END

