
     RDKit          3D

 48 50  0  0  0  0  0  0  0  0999 V2000
    8.5454    1.0192   -7.2636 C   0  0  0  0  0  0  0  0  0  0  0  0
    8.5476    0.9596   -5.7546 C   0  0  0  0  0  0  0  0  0  0  0  0
    7.3382    1.1578   -5.0406 C   0  0  0  0  0  0  0  0  0  0  0  0
    7.2768    1.1127   -3.6511 C   0  0  0  0  0  0  0  0  0  0  0  0
    8.4612    0.8596   -2.9362 C   0  0  0  0  0  0  0  0  0  0  0  0
    8.8231    0.7320   -1.5354 C   0  0  0  0  0  0  0  0  0  0  0  0
    7.9138    0.8412   -0.3498 C   0  0  0  0  0  0  0  0  0  0  0  0
    7.2947    2.2260   -0.0901 C   0  0  0  0  0  0  0  0  0  0  0  0
    6.1849    2.3396    0.4021 O   0  0  0  0  0  0  0  0  0  0  0  0
    8.0882    3.2889   -0.4094 N   0  0  0  0  0  0  0  0  0  0  0  0
    7.6839    4.6642   -0.1896 C   0  0  0  0  0  0  0  0  0  0  0  0
    8.4362    5.3388    0.9667 C   0  0  0  0  0  0  0  0  0  0  0  0
    8.0639    6.8100    1.1843 C   0  0  0  0  0  0  0  0  0  0  0  0
    6.6335    7.0248    1.6629 C   0  0  0  0  0  0  0  0  0  0  0  0
    6.4612    8.4107    1.9006 O   0  0  0  0  0  0  0  0  0  0  0  0
    5.2593    8.8771    2.3314 C   0  0  0  0  0  0  0  0  0  0  0  0
    5.1710   10.2670    2.5306 C   0  0  0  0  0  0  0  0  0  0  0  0
    3.9843   10.8457    2.9716 C   0  0  0  0  0  0  0  0  0  0  0  0
    2.8774   10.0310    3.2154 C   0  0  0  0  0  0  0  0  0  0  0  0
    1.7304   10.5891    3.6412 F   0  0  0  0  0  0  0  0  0  0  0  0
    2.9425    8.6565    3.0255 C   0  0  0  0  0  0  0  0  0  0  0  0
    4.1365    8.0731    2.5821 C   0  0  0  0  0  0  0  0  0  0  0  0
   10.1651    0.4808   -1.5397 C   0  0  0  0  0  0  0  0  0  0  0  0
   10.6889    0.4354   -2.8007 O   0  0  0  0  0  0  0  0  0  0  0  0
    9.6534    0.6654   -3.6573 C   0  0  0  0  0  0  0  0  0  0  0  0
    9.7294    0.7087   -5.0483 C   0  0  0  0  0  0  0  0  0  0  0  0
    8.1836    1.9963   -7.6252 H   0  0  0  0  0  0  0  0  0  0  0  0
    7.8786    0.2525   -7.6929 H   0  0  0  0  0  0  0  0  0  0  0  0
    9.5516    0.8589   -7.6779 H   0  0  0  0  0  0  0  0  0  0  0  0
    6.4233    1.3527   -5.6073 H   0  0  0  0  0  0  0  0  0  0  0  0
    6.3289    1.2711   -3.1310 H   0  0  0  0  0  0  0  0  0  0  0  0
    8.4539    0.5531    0.5682 H   0  0  0  0  0  0  0  0  0  0  0  0
    7.0601    0.1521   -0.4369 H   0  0  0  0  0  0  0  0  0  0  0  0
    8.9882    3.0996   -0.8368 H   0  0  0  0  0  0  0  0  0  0  0  0
    6.6041    4.6324    0.0140 H   0  0  0  0  0  0  0  0  0  0  0  0
    7.8316    5.2437   -1.1188 H   0  0  0  0  0  0  0  0  0  0  0  0
    9.5209    5.2753    0.7710 H   0  0  0  0  0  0  0  0  0  0  0  0
    8.2572    4.7610    1.8905 H   0  0  0  0  0  0  0  0  0  0  0  0
    8.2139    7.3854    0.2539 H   0  0  0  0  0  0  0  0  0  0  0  0
    8.7390    7.2549    1.9336 H   0  0  0  0  0  0  0  0  0  0  0  0
    6.4489    6.4493    2.5909 H   0  0  0  0  0  0  0  0  0  0  0  0
    5.9006    6.6775    0.9110 H   0  0  0  0  0  0  0  0  0  0  0  0
    6.0544   10.8765    2.3308 H   0  0  0  0  0  0  0  0  0  0  0  0
    3.9027   11.9229    3.1300 H   0  0  0  0  0  0  0  0  0  0  0  0
    2.0599    8.0454    3.2249 H   0  0  0  0  0  0  0  0  0  0  0  0
    4.1733    6.9934    2.4383 H   0  0  0  0  0  0  0  0  0  0  0  0
   10.8702    0.2979   -0.7311 H   0  0  0  0  0  0  0  0  0  0  0  0
   10.6805    0.5500   -5.5608 H   0  0  0  0  0  0  0  0  0  0  0  0
  1  2  1  0
  1 27  1  0
  1 28  1  0
  1 29  1  0
  2  3  2  0
  2 26  1  0
  3  4  1  0
  3 30  1  0
  4  5  2  0
  4 31  1  0
  5  6  1  0
  5 25  1  0
  6  7  1  0
  6 23  2  0
  7  8  1  0
  7 32  1  0
  7 33  1  0
  8  9  2  0
  8 10  1  0
 10 11  1  0
 10 34  1  0
 11 12  1  0
 11 35  1  0
 11 36  1  0
 12 13  1  0
 12 37  1  0
 12 38  1  0
 13 14  1  0
 13 39  1  0
 13 40  1  0
 14 15  1  0
 14 41  1  0
 14 42  1  0
 15 16  1  0
 16 17  2  0
 16 22  1  0
 17 18  1  0
 17 43  1  0
 18 19  2  0
 18 44  1  0
 19 20  1  0
 19 21  1  0
 21 22  2  0
 21 45  1  0
 22 46  1  0
 23 24  1  0
 23 47  1  0
 24 25  1  0
 25 26  2  0
 26 48  1  0
M  END

