
     RDKit          3D

 35 35  0  0  0  0  0  0  0  0999 V2000
    1.0556    0.2102    0.3689 C   0  0  0  0  0  0  0  0  0  0  0  0
    2.4851    0.2659    0.3775 O   0  0  0  0  0  0  0  0  0  0  0  0
    3.0380    1.4752    0.2241 C   0  0  0  0  0  0  0  0  0  0  0  0
    2.4057    2.4956    0.0925 O   0  0  0  0  0  0  0  0  0  0  0  0
    4.5613    1.3916    0.1941 C   0  0  1  0  0  0  0  0  0  0  0  0
    5.0172    0.6776   -1.1030 C   0  0  0  0  0  0  0  0  0  0  0  0
    6.5346    0.5540   -1.2213 C   0  0  0  0  0  0  0  0  0  0  0  0
    6.9597   -0.3977   -2.7291 S   0  0  0  0  0  0  0  0  0  0  0  0
    8.7750   -0.3083   -2.6383 C   0  0  0  0  0  0  0  0  0  0  0  0
    5.0923    2.7295    0.3458 N   0  0  0  0  0  0  0  0  0  0  0  0
    6.1567    2.9925    1.1510 C   0  0  0  0  0  0  0  0  0  0  0  0
    6.7606    2.1076    1.7445 O   0  0  0  0  0  0  0  0  0  0  0  0
    6.5577    4.4432    1.3495 C   0  0  0  0  0  0  0  0  0  0  0  0
    7.2210    4.7026    2.5643 C   0  0  0  0  0  0  0  0  0  0  0  0
    7.6613    5.9772    2.9090 C   0  0  0  0  0  0  0  0  0  0  0  0
    7.4632    7.0393    2.0221 C   0  0  0  0  0  0  0  0  0  0  0  0
    6.8307    6.8128    0.8007 C   0  0  0  0  0  0  0  0  0  0  0  0
    6.3810    5.5290    0.4696 C   0  0  0  0  0  0  0  0  0  0  0  0
    5.6341    5.3641   -1.1169 Cl  0  0  0  0  0  0  0  0  0  0  0  0
    0.7914   -0.8461    0.4982 H   0  0  0  0  0  0  0  0  0  0  0  0
    0.6569    0.5917   -0.5830 H   0  0  0  0  0  0  0  0  0  0  0  0
    0.6391    0.8126    1.1899 H   0  0  0  0  0  0  0  0  0  0  0  0
    4.9015    0.7968    1.0557 H   0  0  0  0  0  0  0  0  0  0  0  0
    4.6225    1.2261   -1.9758 H   0  0  0  0  0  0  0  0  0  0  0  0
    4.5571   -0.3232   -1.1154 H   0  0  0  0  0  0  0  0  0  0  0  0
    6.9543    0.0539   -0.3341 H   0  0  0  0  0  0  0  0  0  0  0  0
    6.9950    1.5522   -1.2889 H   0  0  0  0  0  0  0  0  0  0  0  0
    9.1664   -0.8564   -3.5074 H   0  0  0  0  0  0  0  0  0  0  0  0
    9.1556   -0.7821   -1.7201 H   0  0  0  0  0  0  0  0  0  0  0  0
    9.1297    0.7331   -2.6873 H   0  0  0  0  0  0  0  0  0  0  0  0
    4.5476    3.4859   -0.0561 H   0  0  0  0  0  0  0  0  0  0  0  0
    7.3836    3.8515    3.2275 H   0  0  0  0  0  0  0  0  0  0  0  0
    8.1634    6.1412    3.8651 H   0  0  0  0  0  0  0  0  0  0  0  0
    7.8063    8.0460    2.2732 H   0  0  0  0  0  0  0  0  0  0  0  0
    6.6820    7.6250    0.0876 H   0  0  0  0  0  0  0  0  0  0  0  0
  1  2  1  0
  1 20  1  0
  1 21  1  0
  1 22  1  0
  2  3  1  0
  3  4  2  0
  3  5  1  0
  5  6  1  0
  5 10  1  0
  5 23  1  1
  6  7  1  0
  6 24  1  0
  6 25  1  0
  7  8  1  0
  7 26  1  0
  7 27  1  0
  8  9  1  0
  9 28  1  0
  9 29  1  0
  9 30  1  0
 10 11  1  0
 10 31  1  0
 11 12  2  0
 11 13  1  0
 13 14  2  0
 13 18  1  0
 14 15  1  0
 14 32  1  0
 15 16  2  0
 15 33  1  0
 16 17  1  0
 16 34  1  0
 17 18  2  0
 17 35  1  0
 18 19  1  0
M  END

