
     RDKit          3D

 82 82  0  0  0  0  0  0  0  0999 V2000
    1.1556   -0.8816   -0.9131 C   0  0  0  0  0  0  0  0  0  0  0  0
    2.0776   -0.1488    0.0726 C   0  0  1  0  0  0  0  0  0  0  0  0
    1.2720    0.7969    0.9743 C   0  0  0  0  0  0  0  0  0  0  0  0
    2.7638   -1.1258    0.8976 N   0  0  0  0  0  0  0  0  0  0  0  0
    4.0388   -1.2585    0.9656 C   0  0  0  0  0  0  0  0  0  0  0  0
    5.0030   -0.3686    0.2192 C   0  0  0  0  0  0  0  0  0  0  0  0
    5.0849    1.0091    0.4723 C   0  0  0  0  0  0  0  0  0  0  0  0
    5.9370    1.8252   -0.2748 C   0  0  0  0  0  0  0  0  0  0  0  0
    6.7093    1.2942   -1.3196 C   0  0  0  0  0  0  0  0  0  0  0  0
    7.6827    2.1384   -2.1063 C   0  0  0  0  0  0  0  0  0  0  0  0
    8.7668    2.6154   -1.6060 N   0  0  0  0  0  0  0  0  0  0  0  0
    9.2165    2.3724   -0.2452 C   0  0  1  0  0  0  0  0  0  0  0  0
   10.5918    1.6913   -0.2693 C   0  0  0  0  0  0  0  0  0  0  0  0
    9.2802    3.7097    0.5054 C   0  0  0  0  0  0  0  0  0  0  0  0
    7.4603    2.3145   -3.4749 N   0  0  0  0  0  0  0  0  0  0  0  0
    6.1045    2.5835   -4.0257 C   0  0  1  0  0  0  0  0  0  0  0  0
    5.2024    1.3506   -4.1921 C   0  0  0  0  0  0  0  0  0  0  0  0
    5.3822    3.7295   -3.3018 C   0  0  0  0  0  0  0  0  0  0  0  0
    8.9139    2.7213   -4.4751 Si  0  0  1  0  0  4  0  0  0  0  0  0
    9.4863    4.5074   -4.2658 C   0  0  0  0  0  0  0  0  0  0  0  0
   10.3082    1.4886   -4.1684 C   0  0  0  0  0  0  0  0  0  0  0  0
    8.4010    2.4952   -6.2900 C   0  0  0  0  0  0  0  0  0  0  0  0
    6.6237   -0.0837   -1.5767 C   0  0  0  0  0  0  0  0  0  0  0  0
    5.7903   -0.9033   -0.8140 C   0  0  0  0  0  0  0  0  0  0  0  0
    4.6088   -2.3204    1.6732 N   0  0  0  0  0  0  0  0  0  0  0  0
    3.7683   -3.5180    1.9737 C   0  0  1  0  0  0  0  0  0  0  0  0
    2.7046   -3.2894    3.0575 C   0  0  0  0  0  0  0  0  0  0  0  0
    3.1849   -4.1621    0.7089 C   0  0  0  0  0  0  0  0  0  0  0  0
    6.2533   -2.3915    2.4079 Si  0  0  1  0  0  4  0  0  0  0  0  0
    7.3153   -3.6187    1.4384 C   0  0  0  0  0  0  0  0  0  0  0  0
    7.1367   -0.7297    2.5168 C   0  0  0  0  0  0  0  0  0  0  0  0
    6.0986   -3.0021    4.1945 C   0  0  0  0  0  0  0  0  0  0  0  0
    0.6015   -0.1643   -1.5406 H   0  0  0  0  0  0  0  0  0  0  0  0
    0.4264   -1.5048   -0.3705 H   0  0  0  0  0  0  0  0  0  0  0  0
    1.7358   -1.5398   -1.5788 H   0  0  0  0  0  0  0  0  0  0  0  0
    2.7758    0.4685   -0.5258 H   0  0  0  0  0  0  0  0  0  0  0  0
    0.5547    0.2267    1.5865 H   0  0  0  0  0  0  0  0  0  0  0  0
    0.7110    1.5313    0.3736 H   0  0  0  0  0  0  0  0  0  0  0  0
    1.9323    1.3490    1.6620 H   0  0  0  0  0  0  0  0  0  0  0  0
    4.4859    1.4457    1.2748 H   0  0  0  0  0  0  0  0  0  0  0  0
    6.0002    2.8915   -0.0451 H   0  0  0  0  0  0  0  0  0  0  0  0
    8.5269    1.7072    0.3086 H   0  0  0  0  0  0  0  0  0  0  0  0
   11.3299    2.3221   -0.7906 H   0  0  0  0  0  0  0  0  0  0  0  0
   10.5441    0.7220   -0.7895 H   0  0  0  0  0  0  0  0  0  0  0  0
   10.9548    1.5113    0.7557 H   0  0  0  0  0  0  0  0  0  0  0  0
    9.9602    4.4083   -0.0085 H   0  0  0  0  0  0  0  0  0  0  0  0
    9.6430    3.5651    1.5360 H   0  0  0  0  0  0  0  0  0  0  0  0
    8.2874    4.1841    0.5543 H   0  0  0  0  0  0  0  0  0  0  0  0
    6.2941    2.9430   -5.0462 H   0  0  0  0  0  0  0  0  0  0  0  0
    4.8026    0.9838   -3.2370 H   0  0  0  0  0  0  0  0  0  0  0  0
    5.7508    0.5268   -4.6741 H   0  0  0  0  0  0  0  0  0  0  0  0
    4.3443    1.6081   -4.8347 H   0  0  0  0  0  0  0  0  0  0  0  0
    5.0781    3.4449   -2.2837 H   0  0  0  0  0  0  0  0  0  0  0  0
    4.4686    4.0108   -3.8505 H   0  0  0  0  0  0  0  0  0  0  0  0
    6.0265    4.6196   -3.2318 H   0  0  0  0  0  0  0  0  0  0  0  0
    9.8161    4.6858   -3.2327 H   0  0  0  0  0  0  0  0  0  0  0  0
    8.6714    5.2143   -4.4951 H   0  0  0  0  0  0  0  0  0  0  0  0
   10.3224    4.7314   -4.9504 H   0  0  0  0  0  0  0  0  0  0  0  0
   10.8203    1.6656   -3.2141 H   0  0  0  0  0  0  0  0  0  0  0  0
   11.0496    1.5681   -4.9816 H   0  0  0  0  0  0  0  0  0  0  0  0
    9.9255    0.4544   -4.1693 H   0  0  0  0  0  0  0  0  0  0  0  0
    7.7179    3.2765   -6.6604 H   0  0  0  0  0  0  0  0  0  0  0  0
    7.9309    1.5150   -6.4742 H   0  0  0  0  0  0  0  0  0  0  0  0
    9.3103    2.5453   -6.9131 H   0  0  0  0  0  0  0  0  0  0  0  0
    7.2151   -0.5138   -2.3885 H   0  0  0  0  0  0  0  0  0  0  0  0
    5.7356   -1.9729   -1.0297 H   0  0  0  0  0  0  0  0  0  0  0  0
    4.4765   -4.2591    2.3808 H   0  0  0  0  0  0  0  0  0  0  0  0
    1.9259   -2.6080    2.6946 H   0  0  0  0  0  0  0  0  0  0  0  0
    3.1522   -2.8532    3.9634 H   0  0  0  0  0  0  0  0  0  0  0  0
    2.2430   -4.2509    3.3385 H   0  0  0  0  0  0  0  0  0  0  0  0
    2.4229   -3.5220    0.2468 H   0  0  0  0  0  0  0  0  0  0  0  0
    2.7161   -5.1257    0.9664 H   0  0  0  0  0  0  0  0  0  0  0  0
    3.9774   -4.3584   -0.0309 H   0  0  0  0  0  0  0  0  0  0  0  0
    7.5208   -3.2526    0.4199 H   0  0  0  0  0  0  0  0  0  0  0  0
    6.8271   -4.6030    1.3506 H   0  0  0  0  0  0  0  0  0  0  0  0
    8.2848   -3.7726    1.9417 H   0  0  0  0  0  0  0  0  0  0  0  0
    7.4879   -0.3488    1.5483 H   0  0  0  0  0  0  0  0  0  0  0  0
    8.0193   -0.8739    3.1640 H   0  0  0  0  0  0  0  0  0  0  0  0
    6.5071    0.0437    2.9836 H   0  0  0  0  0  0  0  0  0  0  0  0
    5.6416   -3.9983    4.2930 H   0  0  0  0  0  0  0  0  0  0  0  0
    5.5116   -2.2981    4.8066 H   0  0  0  0  0  0  0  0  0  0  0  0
    7.1092   -3.0600    4.6338 H   0  0  0  0  0  0  0  0  0  0  0  0
  1  2  1  0
  1 33  1  0
  1 34  1  0
  1 35  1  0
  2  3  1  0
  2  4  1  0
  2 36  1  6
  3 37  1  0
  3 38  1  0
  3 39  1  0
  4  5  2  0
  5  6  1  0
  5 25  1  0
  6  7  2  0
  6 24  1  0
  7  8  1  0
  7 40  1  0
  8  9  2  0
  8 41  1  0
  9 10  1  0
  9 23  1  0
 10 11  2  0
 10 15  1  0
 11 12  1  0
 12 13  1  0
 12 14  1  0
 12 42  1  1
 13 43  1  0
 13 44  1  0
 13 45  1  0
 14 46  1  0
 14 47  1  0
 14 48  1  0
 15 16  1  0
 19 15  1  1
 16 17  1  0
 16 18  1  0
 16 49  1  6
 17 50  1  0
 17 51  1  0
 17 52  1  0
 18 53  1  0
 18 54  1  0
 18 55  1  0
 19 20  1  0
 19 21  1  0
 19 22  1  0
 20 56  1  0
 20 57  1  0
 20 58  1  0
 21 59  1  0
 21 60  1  0
 21 61  1  0
 22 62  1  0
 22 63  1  0
 22 64  1  0
 23 24  2  0
 23 65  1  0
 24 66  1  0
 25 26  1  0
 29 25  1  6
 26 27  1  0
 26 28  1  0
 26 67  1  1
 27 68  1  0
 27 69  1  0
 27 70  1  0
 28 71  1  0
 28 72  1  0
 28 73  1  0
 29 30  1  0
 29 31  1  0
 29 32  1  0
 30 74  1  0
 30 75  1  0
 30 76  1  0
 31 77  1  0
 31 78  1  0
 31 79  1  0
 32 80  1  0
 32 81  1  0
 32 82  1  0
M  END

