
     RDKit          3D

 30 31  0  0  0  0  0  0  0  0999 V2000
    0.8367   -0.3587   -0.1299 C   0  0  0  0  0  0  0  0  0  0  0  0
    2.3527   -0.1827   -0.0448 C   0  0  1  0  0  0  0  0  0  0  0  0
    2.8994   -0.4370    1.3589 C   0  0  0  0  0  0  0  0  0  0  0  0
    4.1643    0.0552    1.7285 C   0  0  0  0  0  0  0  0  0  0  0  0
    4.6449   -0.2034    3.0111 C   0  0  0  0  0  0  0  0  0  0  0  0
    3.8493   -0.9406    3.8917 C   0  0  0  0  0  0  0  0  0  0  0  0
    2.6016   -1.3753    3.4386 C   0  0  0  0  0  0  0  0  0  0  0  0
    2.1388   -1.1304    2.2109 N   0  0  0  0  0  0  0  0  0  0  0  0
    3.1601   -0.9766   -1.1111 C   0  0  1  0  0  0  0  0  0  0  0  0
    2.9565   -2.9452   -0.8645 Br  0  0  0  0  0  0  0  0  0  0  0  0
    2.8753   -0.5641   -2.5410 C   0  0  0  0  0  0  0  0  0  0  0  0
    1.8268   -1.1308   -3.2885 C   0  0  0  0  0  0  0  0  0  0  0  0
    1.5308   -0.7263   -4.5881 C   0  0  0  0  0  0  0  0  0  0  0  0
    2.3045    0.2758   -5.1676 C   0  0  0  0  0  0  0  0  0  0  0  0
    2.0413    0.6756   -6.4168 F   0  0  0  0  0  0  0  0  0  0  0  0
    3.3551    0.8713   -4.4779 C   0  0  0  0  0  0  0  0  0  0  0  0
    3.6261    0.4459   -3.1739 C   0  0  0  0  0  0  0  0  0  0  0  0
    5.0836    1.3195   -2.2841 Br  0  0  0  0  0  0  0  0  0  0  0  0
    0.3437    0.2648    0.6297 H   0  0  0  0  0  0  0  0  0  0  0  0
    0.5486   -1.3997    0.0685 H   0  0  0  0  0  0  0  0  0  0  0  0
    0.4583   -0.0595   -1.1182 H   0  0  0  0  0  0  0  0  0  0  0  0
    2.5928    0.8697   -0.2853 H   0  0  0  0  0  0  0  0  0  0  0  0
    4.7571    0.6381    1.0191 H   0  0  0  0  0  0  0  0  0  0  0  0
    5.6244    0.1701    3.3217 H   0  0  0  0  0  0  0  0  0  0  0  0
    4.1817   -1.1677    4.9071 H   0  0  0  0  0  0  0  0  0  0  0  0
    1.9420   -1.9473    4.1023 H   0  0  0  0  0  0  0  0  0  0  0  0
    4.2263   -0.8318   -0.9116 H   0  0  0  0  0  0  0  0  0  0  0  0
    1.2423   -1.9322   -2.8342 H   0  0  0  0  0  0  0  0  0  0  0  0
    0.7176   -1.1802   -5.1570 H   0  0  0  0  0  0  0  0  0  0  0  0
    3.9475    1.6500   -4.9582 H   0  0  0  0  0  0  0  0  0  0  0  0
  1  2  1  0
  1 19  1  0
  1 20  1  0
  1 21  1  0
  2  3  1  0
  2  9  1  0
  2 22  1  6
  3  4  2  0
  3  8  1  0
  4  5  1  0
  4 23  1  0
  5  6  2  0
  5 24  1  0
  6  7  1  0
  6 25  1  0
  7  8  2  0
  7 26  1  0
  9 10  1  0
  9 11  1  0
  9 27  1  1
 11 12  2  0
 11 17  1  0
 12 13  1  0
 12 28  1  0
 13 14  2  0
 13 29  1  0
 14 15  1  0
 14 16  1  0
 16 17  2  0
 16 30  1  0
 17 18  1  0
M  END

