
     RDKit          3D

 50 53  0  0  0  0  0  0  0  0999 V2000
    8.2213   -2.6960   -0.8257 C   0  0  0  0  0  0  0  0  0  0  0  0
    7.8358   -1.3665   -0.6041 O   0  0  0  0  0  0  0  0  0  0  0  0
    6.4501   -1.1865   -0.4274 C   0  0  0  0  0  0  0  0  0  0  0  0
    6.1902    0.3075   -0.2296 C   0  0  0  0  0  0  0  0  0  0  0  0
    6.6543    1.1734   -1.2994 N   0  0  0  0  0  0  0  0  0  0  0  0
    5.9426    1.0799   -2.5624 C   0  0  0  0  0  0  0  0  0  0  0  0
    6.3705    2.1537   -3.5474 C   0  0  0  0  0  0  0  0  0  0  0  0
    6.7416    3.4310   -3.1017 C   0  0  0  0  0  0  0  0  0  0  0  0
    7.0989    4.4178   -4.0231 C   0  0  0  0  0  0  0  0  0  0  0  0
    7.0916    4.1469   -5.3927 C   0  0  0  0  0  0  0  0  0  0  0  0
    6.7312    2.8721   -5.8671 C   0  0  0  0  0  0  0  0  0  0  0  0
    6.7352    2.5628   -7.3218 C   0  0  0  0  0  0  0  0  0  0  0  0
    5.7323    1.7265   -7.8922 C   0  0  0  0  0  0  0  0  0  0  0  0
    5.7110    1.4419   -9.2406 C   0  0  0  0  0  0  0  0  0  0  0  0
    6.7002    1.9690  -10.1125 C   0  0  0  0  0  0  0  0  0  0  0  0
    6.6434    1.6857  -11.4466 N   0  0  0  0  0  0  0  0  0  0  0  0
    7.5904    2.2125  -12.1866 C   0  0  0  0  0  0  0  0  0  0  0  0
    8.6263    2.9802  -11.7856 N   0  0  0  0  0  0  0  0  0  0  0  0
    8.7147    3.2690  -10.4955 C   0  0  0  0  0  0  0  0  0  0  0  0
    9.7629    4.0375  -10.0789 N   0  0  0  0  0  0  0  0  0  0  0  0
   10.8138    4.4575  -10.9588 C   0  0  1  0  0  0  0  0  0  0  0  0
   10.6417    5.7110  -11.7738 C   0  0  0  0  0  0  0  0  0  0  0  0
   11.5742    5.7021  -10.5883 C   0  0  0  0  0  0  0  0  0  0  0  0
    7.7227    2.7910   -9.5530 C   0  0  0  0  0  0  0  0  0  0  0  0
    7.7119    3.0796   -8.1686 C   0  0  0  0  0  0  0  0  0  0  0  0
    6.3747    1.8911   -4.9230 C   0  0  0  0  0  0  0  0  0  0  0  0
    9.3130   -2.7144   -0.9596 H   0  0  0  0  0  0  0  0  0  0  0  0
    7.7477   -3.1207   -1.7346 H   0  0  0  0  0  0  0  0  0  0  0  0
    7.9608   -3.3526    0.0294 H   0  0  0  0  0  0  0  0  0  0  0  0
    6.0844   -1.7520    0.4565 H   0  0  0  0  0  0  0  0  0  0  0  0
    5.8946   -1.5760   -1.3072 H   0  0  0  0  0  0  0  0  0  0  0  0
    6.6894    0.6172    0.7046 H   0  0  0  0  0  0  0  0  0  0  0  0
    5.1073    0.4638   -0.0804 H   0  0  0  0  0  0  0  0  0  0  0  0
    7.6513    1.0167   -1.4466 H   0  0  0  0  0  0  0  0  0  0  0  0
    4.8644    1.2097   -2.3452 H   0  0  0  0  0  0  0  0  0  0  0  0
    6.0272    0.0918   -3.0650 H   0  0  0  0  0  0  0  0  0  0  0  0
    6.7523    3.6296   -2.0284 H   0  0  0  0  0  0  0  0  0  0  0  0
    7.3765    5.4150   -3.6709 H   0  0  0  0  0  0  0  0  0  0  0  0
    7.3439    4.9381   -6.1027 H   0  0  0  0  0  0  0  0  0  0  0  0
    4.9458    1.3284   -7.2470 H   0  0  0  0  0  0  0  0  0  0  0  0
    4.9317    0.8180   -9.6825 H   0  0  0  0  0  0  0  0  0  0  0  0
    7.5526    2.0041  -13.2641 H   0  0  0  0  0  0  0  0  0  0  0  0
    9.9553    4.0668   -9.0862 H   0  0  0  0  0  0  0  0  0  0  0  0
   11.3699    3.6408  -11.4349 H   0  0  0  0  0  0  0  0  0  0  0  0
    9.6924    6.2422  -11.6705 H   0  0  0  0  0  0  0  0  0  0  0  0
   11.0658    5.7220  -12.7811 H   0  0  0  0  0  0  0  0  0  0  0  0
   11.2561    6.2414   -9.6904 H   0  0  0  0  0  0  0  0  0  0  0  0
   12.6539    5.7131  -10.7599 H   0  0  0  0  0  0  0  0  0  0  0  0
    8.4892    3.7137   -7.7359 H   0  0  0  0  0  0  0  0  0  0  0  0
    6.1203    0.8852   -5.2689 H   0  0  0  0  0  0  0  0  0  0  0  0
  1  2  1  0
  1 27  1  0
  1 28  1  0
  1 29  1  0
  2  3  1  0
  3  4  1  0
  3 30  1  0
  3 31  1  0
  4  5  1  0
  4 32  1  0
  4 33  1  0
  5  6  1  0
  5 34  1  0
  6  7  1  0
  6 35  1  0
  6 36  1  0
  7  8  2  0
  7 26  1  0
  8  9  1  0
  8 37  1  0
  9 10  2  0
  9 38  1  0
 10 11  1  0
 10 39  1  0
 11 12  1  0
 11 26  2  0
 12 13  2  0
 12 25  1  0
 13 14  1  0
 13 40  1  0
 14 15  2  0
 14 41  1  0
 15 16  1  0
 15 24  1  0
 16 17  2  0
 17 18  1  0
 17 42  1  0
 18 19  2  0
 19 20  1  0
 19 24  1  0
 20 21  1  0
 20 43  1  0
 21 22  1  0
 21 23  1  0
 21 44  1  6
 22 23  1  0
 22 45  1  0
 22 46  1  0
 23 47  1  0
 23 48  1  0
 24 25  2  0
 25 49  1  0
 26 50  1  0
M  END

