
     RDKit          3D

 39 41  0  0  0  0  0  0  0  0999 V2000
    1.4532   -0.6418    1.1426 O   0  0  0  0  0  0  0  0  0  0  0  0
    1.8249   -0.0095    0.1645 C   0  0  0  0  0  0  0  0  0  0  0  0
    1.6312    1.3422    0.0075 N   0  0  0  0  0  0  0  0  0  0  0  0
    1.0314    2.2626    0.8912 C   0  0  0  0  0  0  0  0  0  0  0  0
    0.5377    1.9121    2.1606 C   0  0  0  0  0  0  0  0  0  0  0  0
   -0.0350    2.8969    2.9697 C   0  0  0  0  0  0  0  0  0  0  0  0
   -0.1293    4.2242    2.5431 C   0  0  0  0  0  0  0  0  0  0  0  0
    0.3614    4.5696    1.2801 C   0  0  0  0  0  0  0  0  0  0  0  0
    0.9371    3.5996    0.4613 C   0  0  0  0  0  0  0  0  0  0  0  0
    2.5266   -0.6942   -0.9719 C   0  0  0  0  0  0  0  0  0  0  0  0
    3.2101   -0.0600   -2.0536 C   0  0  0  0  0  0  0  0  0  0  0  0
    3.8214   -0.8045   -3.0241 C   0  0  0  0  0  0  0  0  0  0  0  0
    4.6665   -0.0554   -4.3395 Cl  0  0  0  0  0  0  0  0  0  0  0  0
    3.8086   -2.2684   -3.0210 C   0  0  0  0  0  0  0  0  0  0  0  0
    4.3093   -2.9906   -3.8661 O   0  0  0  0  0  0  0  0  0  0  0  0
    3.1354   -2.8198   -1.8972 N   0  0  0  0  0  0  0  0  0  0  0  0
    3.0864   -4.2972   -1.8092 C   0  0  0  0  0  0  0  0  0  0  0  0
    1.8574   -4.9038   -2.4549 C   0  0  0  0  0  0  0  0  0  0  0  0
    1.7743   -5.0453   -3.8505 C   0  0  0  0  0  0  0  0  0  0  0  0
    0.6380   -5.5940   -4.4457 C   0  0  0  0  0  0  0  0  0  0  0  0
   -0.4284   -6.0103   -3.6416 C   0  0  0  0  0  0  0  0  0  0  0  0
   -1.8518   -6.7021   -4.3831 Cl  0  0  0  0  0  0  0  0  0  0  0  0
   -0.3661   -5.8831   -2.2519 C   0  0  0  0  0  0  0  0  0  0  0  0
    0.7768   -5.3299   -1.6693 C   0  0  0  0  0  0  0  0  0  0  0  0
    2.5341   -2.0698   -0.9430 C   0  0  0  0  0  0  0  0  0  0  0  0
    1.9085    1.7401   -0.8804 H   0  0  0  0  0  0  0  0  0  0  0  0
    0.6052    0.8792    2.4925 H   0  0  0  0  0  0  0  0  0  0  0  0
   -0.4156    2.6130    3.9544 H   0  0  0  0  0  0  0  0  0  0  0  0
   -0.5809    4.9825    3.1869 H   0  0  0  0  0  0  0  0  0  0  0  0
    0.2976    5.6018    0.9265 H   0  0  0  0  0  0  0  0  0  0  0  0
    1.3202    3.8797   -0.5252 H   0  0  0  0  0  0  0  0  0  0  0  0
    3.2854    1.0274   -2.1273 H   0  0  0  0  0  0  0  0  0  0  0  0
    3.1263   -4.5594   -0.7434 H   0  0  0  0  0  0  0  0  0  0  0  0
    3.9976   -4.6622   -2.2987 H   0  0  0  0  0  0  0  0  0  0  0  0
    2.6102   -4.7147   -4.4710 H   0  0  0  0  0  0  0  0  0  0  0  0
    0.5751   -5.7046   -5.5295 H   0  0  0  0  0  0  0  0  0  0  0  0
   -1.2029   -6.2167   -1.6362 H   0  0  0  0  0  0  0  0  0  0  0  0
    0.8236   -5.2390   -0.5802 H   0  0  0  0  0  0  0  0  0  0  0  0
    2.0426   -2.5945   -0.1220 H   0  0  0  0  0  0  0  0  0  0  0  0
  1  2  2  0
  2  3  1  0
  2 10  1  0
  3  4  1  0
  3 26  1  0
  4  5  2  0
  4  9  1  0
  5  6  1  0
  5 27  1  0
  6  7  2  0
  6 28  1  0
  7  8  1  0
  7 29  1  0
  8  9  2  0
  8 30  1  0
  9 31  1  0
 10 11  1  0
 10 25  2  0
 11 12  2  0
 11 32  1  0
 12 13  1  0
 12 14  1  0
 14 15  2  0
 14 16  1  0
 16 17  1  0
 16 25  1  0
 17 18  1  0
 17 33  1  0
 17 34  1  0
 18 19  2  0
 18 24  1  0
 19 20  1  0
 19 35  1  0
 20 21  2  0
 20 36  1  0
 21 22  1  0
 21 23  1  0
 23 24  2  0
 23 37  1  0
 24 38  1  0
 25 39  1  0
M  END

