
     RDKit          3D

 31 32  0  0  0  0  0  0  0  0999 V2000
    1.0116    0.0132    0.2306 C   0  0  0  0  0  0  0  0  0  0  0  0
    2.5057    0.0842    0.0747 C   0  0  0  0  0  0  0  0  0  0  0  0
    3.3801    0.0477    1.1744 C   0  0  0  0  0  0  0  0  0  0  0  0
    4.7034    0.1199    1.0364 N   0  0  0  0  0  0  0  0  0  0  0  0
    5.1971    0.2269   -0.2005 C   0  0  0  0  0  0  0  0  0  0  0  0
    6.7138    0.2792   -0.3491 C   0  0  1  0  0  0  0  0  0  0  0  0
    7.3757    1.0384    0.7041 N   0  0  0  0  0  0  0  0  0  0  0  0
    7.2830   -1.1669   -0.3922 C   0  0  0  0  0  0  0  0  0  0  0  0
    8.7328   -1.2201   -0.8015 C   0  0  0  0  0  0  0  0  0  0  0  0
    9.7560   -1.1626    0.1585 C   0  0  0  0  0  0  0  0  0  0  0  0
   11.1071   -1.1898   -0.1873 C   0  0  0  0  0  0  0  0  0  0  0  0
   11.4591   -1.2717   -1.5364 C   0  0  0  0  0  0  0  0  0  0  0  0
   13.2987   -1.3174   -2.0378 Br  0  0  0  0  0  0  0  0  0  0  0  0
   10.4798   -1.3193   -2.5286 C   0  0  0  0  0  0  0  0  0  0  0  0
    9.1350   -1.2866   -2.1472 C   0  0  0  0  0  0  0  0  0  0  0  0
    7.9317   -1.3240   -3.4308 Cl  0  0  0  0  0  0  0  0  0  0  0  0
    4.3237    0.2601   -1.3016 C   0  0  0  0  0  0  0  0  0  0  0  0
    3.0022    0.1934   -1.1661 N   0  0  0  0  0  0  0  0  0  0  0  0
    0.7155   -0.1438    1.2777 H   0  0  0  0  0  0  0  0  0  0  0  0
    0.6033   -0.8059   -0.3820 H   0  0  0  0  0  0  0  0  0  0  0  0
    0.5442    0.9441   -0.1299 H   0  0  0  0  0  0  0  0  0  0  0  0
    2.9873   -0.0402    2.1941 H   0  0  0  0  0  0  0  0  0  0  0  0
    6.9438    0.7498   -1.3186 H   0  0  0  0  0  0  0  0  0  0  0  0
    6.9238    0.8073    1.5923 H   0  0  0  0  0  0  0  0  0  0  0  0
    7.2222    2.0374    0.5664 H   0  0  0  0  0  0  0  0  0  0  0  0
    6.6783   -1.7692   -1.0854 H   0  0  0  0  0  0  0  0  0  0  0  0
    7.1598   -1.6046    0.6116 H   0  0  0  0  0  0  0  0  0  0  0  0
    9.4761   -1.0849    1.2108 H   0  0  0  0  0  0  0  0  0  0  0  0
   11.8785   -1.1461    0.5827 H   0  0  0  0  0  0  0  0  0  0  0  0
   10.7472   -1.3789   -3.5832 H   0  0  0  0  0  0  0  0  0  0  0  0
    4.7212    0.3445   -2.3204 H   0  0  0  0  0  0  0  0  0  0  0  0
  1  2  1  0
  1 19  1  0
  1 20  1  0
  1 21  1  0
  2  3  2  0
  2 18  1  0
  3  4  1  0
  3 22  1  0
  4  5  2  0
  5  6  1  0
  5 17  1  0
  6  7  1  0
  6  8  1  0
  6 23  1  6
  7 24  1  0
  7 25  1  0
  8  9  1  0
  8 26  1  0
  8 27  1  0
  9 10  2  0
  9 15  1  0
 10 11  1  0
 10 28  1  0
 11 12  2  0
 11 29  1  0
 12 13  1  0
 12 14  1  0
 14 15  2  0
 14 30  1  0
 15 16  1  0
 17 18  2  0
 17 31  1  0
M  END

