
     RDKit          3D

 54 57  0  0  0  0  0  0  0  0999 V2000
    0.9231    0.1432    0.4998 O   0  0  0  0  0  0  0  0  0  0  0  0
    2.1052    0.0051    0.1974 C   0  0  0  0  0  0  0  0  0  0  0  0
    2.6628   -1.3849   -0.0762 C   0  0  0  0  0  0  0  0  0  0  0  0
    3.0161   -1.6803   -1.5585 C   0  0  2  0  0  0  0  0  0  0  0  0
    1.8849   -1.2280   -2.5241 C   0  0  0  0  0  0  0  0  0  0  0  0
    0.5863   -2.0345   -2.3833 C   0  0  0  0  0  0  0  0  0  0  0  0
    0.8403   -3.5364   -2.5588 C   0  0  0  0  0  0  0  0  0  0  0  0
    1.9343   -4.0368   -1.6075 C   0  0  0  0  0  0  0  0  0  0  0  0
    3.2195   -3.2072   -1.7267 C   0  0  0  0  0  0  0  0  0  0  0  0
    4.3155   -1.0643   -1.8729 N   0  0  0  0  0  0  0  0  0  0  0  0
    4.4990    0.3823   -1.7941 C   0  0  2  0  0  0  0  0  0  0  0  0
    3.7511    0.9463   -2.3951 H   0  0  0  0  0  0  0  0  0  0  0  0
    5.8917    0.7154   -2.3483 C   0  0  0  0  0  0  0  0  0  0  0  0
    6.1505    2.2291   -2.4478 C   0  0  0  0  0  0  0  0  0  0  0  0
    5.4742    3.0103   -1.2987 C   0  0  0  0  0  0  0  0  0  0  0  0
    5.2615    2.1227   -0.0666 C   0  0  0  0  0  0  0  0  0  0  0  0
    4.3659    0.8863   -0.3262 C   0  0  1  0  0  0  0  0  0  0  0  0
    4.7627    0.0780    0.3047 H   0  0  0  0  0  0  0  0  0  0  0  0
    2.9505    1.0801    0.0647 N   0  0  0  0  0  0  0  0  0  0  0  0
    2.3400    2.4117    0.1825 C   0  0  0  0  0  0  0  0  0  0  0  0
    2.4021    3.0572    1.5588 C   0  0  0  0  0  0  0  0  0  0  0  0
    1.9310    2.3797    2.6966 C   0  0  0  0  0  0  0  0  0  0  0  0
    1.9625    2.9928    3.9513 C   0  0  0  0  0  0  0  0  0  0  0  0
    2.4548    4.2950    4.0923 C   0  0  0  0  0  0  0  0  0  0  0  0
    2.9131    4.9825    2.9661 C   0  0  0  0  0  0  0  0  0  0  0  0
    2.8863    4.3651    1.7110 C   0  0  0  0  0  0  0  0  0  0  0  0
    1.8760   -2.0651    0.2677 H   0  0  0  0  0  0  0  0  0  0  0  0
    3.5614   -1.5836    0.5280 H   0  0  0  0  0  0  0  0  0  0  0  0
    2.2724   -1.3453   -3.5537 H   0  0  0  0  0  0  0  0  0  0  0  0
    1.6738   -0.1545   -2.3956 H   0  0  0  0  0  0  0  0  0  0  0  0
    0.1353   -1.8331   -1.3969 H   0  0  0  0  0  0  0  0  0  0  0  0
   -0.1464   -1.6838   -3.1297 H   0  0  0  0  0  0  0  0  0  0  0  0
    1.1524   -3.7306   -3.6022 H   0  0  0  0  0  0  0  0  0  0  0  0
   -0.0911   -4.1065   -2.4035 H   0  0  0  0  0  0  0  0  0  0  0  0
    2.1646   -5.0963   -1.8100 H   0  0  0  0  0  0  0  0  0  0  0  0
    1.5590   -4.0054   -0.5696 H   0  0  0  0  0  0  0  0  0  0  0  0
    3.6533   -3.3739   -2.7308 H   0  0  0  0  0  0  0  0  0  0  0  0
    3.9803   -3.5453   -1.0043 H   0  0  0  0  0  0  0  0  0  0  0  0
    4.6096   -1.3844   -2.7946 H   0  0  0  0  0  0  0  0  0  0  0  0
    6.0094    0.2484   -3.3410 H   0  0  0  0  0  0  0  0  0  0  0  0
    6.6380    0.2297   -1.6973 H   0  0  0  0  0  0  0  0  0  0  0  0
    5.7874    2.6114   -3.4161 H   0  0  0  0  0  0  0  0  0  0  0  0
    7.2386    2.4060   -2.4411 H   0  0  0  0  0  0  0  0  0  0  0  0
    4.5064    3.4102   -1.6433 H   0  0  0  0  0  0  0  0  0  0  0  0
    6.0787    3.8895   -1.0232 H   0  0  0  0  0  0  0  0  0  0  0  0
    4.8735    2.7014    0.7816 H   0  0  0  0  0  0  0  0  0  0  0  0
    6.2459    1.7512    0.2612 H   0  0  0  0  0  0  0  0  0  0  0  0
    1.2821    2.2815   -0.0895 H   0  0  0  0  0  0  0  0  0  0  0  0
    2.7922    3.0835   -0.5585 H   0  0  0  0  0  0  0  0  0  0  0  0
    1.5163    1.3761    2.5849 H   0  0  0  0  0  0  0  0  0  0  0  0
    1.5905    2.4522    4.8259 H   0  0  0  0  0  0  0  0  0  0  0  0
    2.4767    4.7723    5.0755 H   0  0  0  0  0  0  0  0  0  0  0  0
    3.2960    6.0020    3.0623 H   0  0  0  0  0  0  0  0  0  0  0  0
    3.2491    4.9115    0.8348 H   0  0  0  0  0  0  0  0  0  0  0  0
  1  2  2  0
  2  3  1  0
  2 19  1  0
  3  4  1  0
  3 27  1  0
  3 28  1  0
  4  5  1  0
  4  9  1  0
  4 10  1  6
  5  6  1  0
  5 29  1  0
  5 30  1  0
  6  7  1  0
  6 31  1  0
  6 32  1  0
  7  8  1  0
  7 33  1  0
  7 34  1  0
  8  9  1  0
  8 35  1  0
  8 36  1  0
  9 37  1  0
  9 38  1  0
 10 11  1  0
 10 39  1  0
 11 12  1  6
 11 13  1  0
 11 17  1  0
 13 14  1  0
 13 40  1  0
 13 41  1  0
 14 15  1  0
 14 42  1  0
 14 43  1  0
 15 16  1  0
 15 44  1  0
 15 45  1  0
 16 17  1  0
 16 46  1  0
 16 47  1  0
 17 18  1  1
 17 19  1  0
 19 20  1  0
 20 21  1  0
 20 48  1  0
 20 49  1  0
 21 22  2  0
 21 26  1  0
 22 23  1  0
 22 50  1  0
 23 24  2  0
 23 51  1  0
 24 25  1  0
 24 52  1  0
 25 26  2  0
 25 53  1  0
 26 54  1  0
M  END

