
     RDKit          3D

 29 30  0  0  0  0  0  0  0  0999 V2000
    1.0941   -1.7057   -2.3347 C   0  0  0  0  0  0  0  0  0  0  0  0
    2.4771   -2.6546   -3.0414 S   0  0  0  0  0  0  0  0  0  0  0  0
    3.1744   -3.4052   -1.5124 C   0  0  0  0  0  0  0  0  0  0  0  0
    4.6138   -3.8536   -1.7406 C   0  0  0  0  0  0  0  0  0  0  0  0
    5.4709   -2.7130   -2.0143 N   0  0  0  0  0  0  0  0  0  0  0  0
    6.8306   -2.9021   -2.0588 C   0  0  0  0  0  0  0  0  0  0  0  0
    7.4639   -3.9826   -1.6822 N   0  0  0  0  0  0  0  0  0  0  0  0
    8.8131   -3.6835   -1.8392 C   0  0  0  0  0  0  0  0  0  0  0  0
    9.9560   -4.4516   -1.5943 C   0  0  0  0  0  0  0  0  0  0  0  0
   11.2112   -3.8969   -1.8485 C   0  0  0  0  0  0  0  0  0  0  0  0
   11.3630   -2.5802   -2.3480 C   0  0  0  0  0  0  0  0  0  0  0  0
   12.6389   -2.0847   -2.6407 N   0  0  0  0  0  0  0  0  0  0  0  0
   10.2203   -1.7972   -2.6018 C   0  0  0  0  0  0  0  0  0  0  0  0
    8.9749   -2.3672   -2.3414 C   0  0  0  0  0  0  0  0  0  0  0  0
    7.6790   -1.8876   -2.4797 N   0  0  0  0  0  0  0  0  0  0  0  0
    7.4082   -0.9489   -2.7403 H   0  0  0  0  0  0  0  0  0  0  0  0
    0.5968   -1.1956   -3.1721 H   0  0  0  0  0  0  0  0  0  0  0  0
    1.4484   -0.9499   -1.6167 H   0  0  0  0  0  0  0  0  0  0  0  0
    0.3647   -2.3682   -1.8439 H   0  0  0  0  0  0  0  0  0  0  0  0
    2.5579   -4.2667   -1.2115 H   0  0  0  0  0  0  0  0  0  0  0  0
    3.1410   -2.6515   -0.7093 H   0  0  0  0  0  0  0  0  0  0  0  0
    4.6574   -4.6099   -2.5499 H   0  0  0  0  0  0  0  0  0  0  0  0
    4.9918   -4.3571   -0.8379 H   0  0  0  0  0  0  0  0  0  0  0  0
    5.0812   -2.0597   -2.6895 H   0  0  0  0  0  0  0  0  0  0  0  0
    9.8614   -5.4687   -1.2076 H   0  0  0  0  0  0  0  0  0  0  0  0
   12.1099   -4.4925   -1.6632 H   0  0  0  0  0  0  0  0  0  0  0  0
   13.3943   -2.5243   -2.1255 H   0  0  0  0  0  0  0  0  0  0  0  0
   12.7222   -1.0737   -2.6253 H   0  0  0  0  0  0  0  0  0  0  0  0
   10.3186   -0.7815   -2.9947 H   0  0  0  0  0  0  0  0  0  0  0  0
  1  2  1  0
  1 17  1  0
  1 18  1  0
  1 19  1  0
  2  3  1  0
  3  4  1  0
  3 20  1  0
  3 21  1  0
  4  5  1  0
  4 22  1  0
  4 23  1  0
  5  6  1  0
  5 24  1  0
  6  7  2  0
  6 15  1  0
  7  8  1  0
  8  9  2  0
  8 14  1  0
  9 10  1  0
  9 25  1  0
 10 11  2  0
 10 26  1  0
 11 12  1  0
 11 13  1  0
 12 27  1  0
 12 28  1  0
 13 14  2  0
 13 29  1  0
 14 15  1  0
 15 16  1  0
M  END

