
     RDKit          3D

 50 52  0  0  0  0  0  0  0  0999 V2000
    2.3728    1.2430   -0.0240 C   0  0  0  0  0  0  0  0  0  0  0  0
    3.4553    1.3622   -1.0986 C   0  0  0  0  0  0  0  0  0  0  0  0
    3.8429    0.0490   -1.7819 C   0  0  0  0  0  0  0  0  0  0  0  0
    4.6959   -1.1085   -0.6702 S   0  0  1  0  0  0  0  0  0  0  0  0
    5.8230   -0.3805   -0.0768 O   0  0  0  0  0  0  0  0  0  0  0  0
    3.6902   -1.7612    0.1873 O   0  0  0  0  0  0  0  0  0  0  0  0
    5.2961   -2.2809   -1.6934 N   0  0  0  0  0  0  0  0  0  0  0  0
    6.6626   -2.1679   -2.2365 C   0  0  0  0  0  0  0  0  0  0  0  0
    6.8574   -3.5122   -2.9433 C   0  0  0  0  0  0  0  0  0  0  0  0
    6.0334   -4.4856   -2.0892 C   0  0  0  0  0  0  0  0  0  0  0  0
    4.7885   -3.6690   -1.6697 C   0  0  2  0  0  0  0  0  0  0  0  0
    3.6473   -3.8403   -2.6938 C   0  0  0  0  0  0  0  0  0  0  0  0
    3.8997   -3.7147   -3.8865 O   0  0  0  0  0  0  0  0  0  0  0  0
    2.3879   -4.1460   -2.2460 N   0  0  0  0  0  0  0  0  0  0  0  0
    1.9274   -4.2636   -0.8626 C   0  0  0  0  0  0  0  0  0  0  0  0
    0.6625   -3.4257   -0.6706 C   0  0  0  0  0  0  0  0  0  0  0  0
   -0.3400   -3.7509   -1.6093 O   0  0  0  0  0  0  0  0  0  0  0  0
    0.0993   -3.5568   -2.9491 C   0  0  2  0  0  0  0  0  0  0  0  0
   -1.0311   -3.8970   -3.8721 C   0  0  0  0  0  0  0  0  0  0  0  0
   -1.7274   -2.9648   -4.5058 N   0  0  0  0  0  0  0  0  0  0  0  0
   -2.6235   -3.6962   -5.1946 N   0  0  0  0  0  0  0  0  0  0  0  0
   -3.3077   -3.2393   -5.7874 H   0  0  0  0  0  0  0  0  0  0  0  0
   -2.4459   -5.0227   -4.9647 C   0  0  0  0  0  0  0  0  0  0  0  0
   -3.2731   -6.1012   -5.5817 C   0  0  0  0  0  0  0  0  0  0  0  0
   -1.4356   -5.1743   -4.1276 N   0  0  0  0  0  0  0  0  0  0  0  0
    1.3392   -4.4138   -3.2315 C   0  0  0  0  0  0  0  0  0  0  0  0
    2.1257    2.2349    0.3856 H   0  0  0  0  0  0  0  0  0  0  0  0
    2.6965    0.5998    0.8070 H   0  0  0  0  0  0  0  0  0  0  0  0
    1.4461    0.8098   -0.4358 H   0  0  0  0  0  0  0  0  0  0  0  0
    4.3684    1.8107   -0.6740 H   0  0  0  0  0  0  0  0  0  0  0  0
    3.1164    2.0461   -1.8962 H   0  0  0  0  0  0  0  0  0  0  0  0
    4.5535    0.2203   -2.6043 H   0  0  0  0  0  0  0  0  0  0  0  0
    2.9777   -0.5047   -2.1778 H   0  0  0  0  0  0  0  0  0  0  0  0
    7.3910   -2.0159   -1.4219 H   0  0  0  0  0  0  0  0  0  0  0  0
    6.7479   -1.3135   -2.9272 H   0  0  0  0  0  0  0  0  0  0  0  0
    7.9197   -3.7914   -3.0109 H   0  0  0  0  0  0  0  0  0  0  0  0
    6.4324   -3.4693   -3.9551 H   0  0  0  0  0  0  0  0  0  0  0  0
    6.5912   -4.7702   -1.1822 H   0  0  0  0  0  0  0  0  0  0  0  0
    5.7650   -5.4062   -2.6262 H   0  0  0  0  0  0  0  0  0  0  0  0
    4.4794   -3.9374   -0.6551 H   0  0  0  0  0  0  0  0  0  0  0  0
    2.6836   -3.8965   -0.1626 H   0  0  0  0  0  0  0  0  0  0  0  0
    1.7035   -5.3236   -0.6390 H   0  0  0  0  0  0  0  0  0  0  0  0
    0.9345   -2.3532   -0.7409 H   0  0  0  0  0  0  0  0  0  0  0  0
    0.2387   -3.6078    0.3286 H   0  0  0  0  0  0  0  0  0  0  0  0
    0.3490   -2.4884   -3.1029 H   0  0  0  0  0  0  0  0  0  0  0  0
   -4.0709   -5.6879   -6.2159 H   0  0  0  0  0  0  0  0  0  0  0  0
   -3.7346   -6.7230   -4.7995 H   0  0  0  0  0  0  0  0  0  0  0  0
   -2.6448   -6.7626   -6.1983 H   0  0  0  0  0  0  0  0  0  0  0  0
    1.7472   -4.2067   -4.2276 H   0  0  0  0  0  0  0  0  0  0  0  0
    1.0392   -5.4749   -3.1801 H   0  0  0  0  0  0  0  0  0  0  0  0
  1  2  1  0
  1 27  1  0
  1 28  1  0
  1 29  1  0
  2  3  1  0
  2 30  1  0
  2 31  1  0
  4  3  1  6
  3 32  1  0
  3 33  1  0
  4  5  2  0
  4  6  2  0
  4  7  1  0
  7  8  1  0
  7 11  1  0
  8  9  1  0
  8 34  1  0
  8 35  1  0
  9 10  1  0
  9 36  1  0
  9 37  1  0
 10 11  1  0
 10 38  1  0
 10 39  1  0
 11 12  1  0
 11 40  1  1
 12 13  2  0
 12 14  1  0
 14 15  1  0
 14 26  1  0
 15 16  1  0
 15 41  1  0
 15 42  1  0
 16 17  1  0
 16 43  1  0
 16 44  1  0
 17 18  1  0
 18 19  1  0
 18 26  1  0
 18 45  1  1
 19 20  2  0
 19 25  1  0
 20 21  1  0
 21 22  1  0
 21 23  1  0
 23 24  1  0
 23 25  2  0
 24 46  1  0
 24 47  1  0
 24 48  1  0
 26 49  1  0
 26 50  1  0
M  END

