
     RDKit          3D

 34 34  0  0  0  0  0  0  0  0999 V2000
    0.6469   -1.3830   -0.0232 C   0  0  0  0  0  0  0  0  0  0  0  0
    2.1392   -1.4980    0.2321 C   0  0  0  0  0  0  0  0  0  0  0  0
    2.8314   -0.9930   -0.8881 O   0  0  0  0  0  0  0  0  0  0  0  0
    4.2499   -0.9537   -0.7816 C   0  0  1  0  0  0  0  0  0  0  0  0
    4.8843   -2.3328   -1.0424 C   0  0  0  0  0  0  0  0  0  0  0  0
    4.6748   -2.7706   -2.5038 C   0  0  0  0  0  0  0  0  0  0  0  0
    5.1438   -1.7880   -3.4818 N   0  0  0  0  0  0  0  0  0  0  0  0
    6.5816   -1.7832   -3.7166 C   0  0  0  0  0  0  0  0  0  0  0  0
    7.0320   -3.0341   -4.4211 C   0  0  0  0  0  0  0  0  0  0  0  0
    8.0456   -3.8169   -4.0311 C   0  0  0  0  0  0  0  0  0  0  0  0
    8.4877   -5.0361   -4.7655 C   0  0  0  0  0  0  0  0  0  0  0  0
    8.2927   -6.5338   -3.7364 Cl  0  0  0  0  0  0  0  0  0  0  0  0
    4.5390   -0.4785   -3.2498 C   0  0  0  0  0  0  0  0  0  0  0  0
    4.7489    0.0566   -1.8214 C   0  0  0  0  0  0  0  0  0  0  0  0
    0.0757   -1.7575    0.8407 H   0  0  0  0  0  0  0  0  0  0  0  0
    0.3591   -1.9680   -0.9105 H   0  0  0  0  0  0  0  0  0  0  0  0
    0.3656   -0.3334   -0.2011 H   0  0  0  0  0  0  0  0  0  0  0  0
    2.4091   -2.5555    0.4285 H   0  0  0  0  0  0  0  0  0  0  0  0
    2.4208   -0.9260    1.1418 H   0  0  0  0  0  0  0  0  0  0  0  0
    4.5229   -0.6056    0.2357 H   0  0  0  0  0  0  0  0  0  0  0  0
    4.4648   -3.0889   -0.3579 H   0  0  0  0  0  0  0  0  0  0  0  0
    5.9613   -2.2728   -0.8079 H   0  0  0  0  0  0  0  0  0  0  0  0
    3.5959   -2.9291   -2.6715 H   0  0  0  0  0  0  0  0  0  0  0  0
    5.1743   -3.7335   -2.6923 H   0  0  0  0  0  0  0  0  0  0  0  0
    7.2020   -1.6364   -2.8035 H   0  0  0  0  0  0  0  0  0  0  0  0
    6.7979   -0.9197   -4.3721 H   0  0  0  0  0  0  0  0  0  0  0  0
    6.4550   -3.2933   -5.3183 H   0  0  0  0  0  0  0  0  0  0  0  0
    8.6026   -3.5754   -3.1173 H   0  0  0  0  0  0  0  0  0  0  0  0
    9.5559   -5.0014   -5.0239 H   0  0  0  0  0  0  0  0  0  0  0  0
    7.9022   -5.2013   -5.6796 H   0  0  0  0  0  0  0  0  0  0  0  0
    3.4541   -0.5653   -3.4298 H   0  0  0  0  0  0  0  0  0  0  0  0
    4.9328    0.2351   -3.9919 H   0  0  0  0  0  0  0  0  0  0  0  0
    4.2112    1.0091   -1.6861 H   0  0  0  0  0  0  0  0  0  0  0  0
    5.8193    0.2550   -1.6397 H   0  0  0  0  0  0  0  0  0  0  0  0
  1  2  1  0
  1 15  1  0
  1 16  1  0
  1 17  1  0
  2  3  1  0
  2 18  1  0
  2 19  1  0
  3  4  1  0
  4  5  1  0
  4 14  1  0
  4 20  1  1
  5  6  1  0
  5 21  1  0
  5 22  1  0
  6  7  1  0
  6 23  1  0
  6 24  1  0
  7  8  1  0
  7 13  1  0
  8  9  1  0
  8 25  1  0
  8 26  1  0
  9 10  2  0
  9 27  1  0
 10 11  1  0
 10 28  1  0
 11 12  1  0
 11 29  1  0
 11 30  1  0
 13 14  1  0
 13 31  1  0
 13 32  1  0
 14 33  1  0
 14 34  1  0
M  END

