
     RDKit          3D

 29 31  0  0  0  0  0  0  0  0999 V2000
    3.4822   -0.7828    0.7442 N   0  0  0  0  0  0  0  0  0  0  0  0
    2.6387    0.1274   -0.0012 C   0  0  1  0  0  0  0  0  0  0  0  0
    2.8581   -0.1451   -1.4643 C   0  0  0  0  0  0  0  0  0  0  0  0
    3.0509    0.7820   -2.3675 N   0  0  0  0  0  0  0  0  0  0  0  0
    3.1572    0.0693   -3.5571 O   0  0  0  0  0  0  0  0  0  0  0  0
    3.0250   -1.2237   -3.2482 C   0  0  0  0  0  0  0  0  0  0  0  0
    3.0748   -2.2409   -4.3483 C   0  0  0  0  0  0  0  0  0  0  0  0
    1.7527   -2.6296   -4.8105 N   0  0  0  0  0  0  0  0  0  0  0  0
    0.7531   -3.2131   -4.0885 C   0  0  0  0  0  0  0  0  0  0  0  0
   -0.2948   -3.4188   -4.9679 C   0  0  0  0  0  0  0  0  0  0  0  0
    0.1822   -2.9198   -6.2057 C   0  0  0  0  0  0  0  0  0  0  0  0
    1.4188   -2.4454   -6.1000 N   0  0  0  0  0  0  0  0  0  0  0  0
    2.8369   -1.4246   -1.9796 N   0  0  0  0  0  0  0  0  0  0  0  0
    1.0923    0.2414    0.3075 C   0  0  0  0  0  0  0  0  0  0  0  0
    1.2234    1.7820    0.2481 C   0  0  0  0  0  0  0  0  0  0  0  0
    2.7603    1.6324    0.3687 C   0  0  0  0  0  0  0  0  0  0  0  0
    3.3424   -1.7417    0.4229 H   0  0  0  0  0  0  0  0  0  0  0  0
    3.2475   -0.7531    1.7356 H   0  0  0  0  0  0  0  0  0  0  0  0
    3.6241   -3.1207   -3.9792 H   0  0  0  0  0  0  0  0  0  0  0  0
    3.5966   -1.8282   -5.2198 H   0  0  0  0  0  0  0  0  0  0  0  0
    0.8680   -3.4185   -3.0262 H   0  0  0  0  0  0  0  0  0  0  0  0
   -1.2627   -3.8632   -4.7483 H   0  0  0  0  0  0  0  0  0  0  0  0
   -0.3295   -2.8892   -7.1676 H   0  0  0  0  0  0  0  0  0  0  0  0
    0.8947   -0.1251    1.3277 H   0  0  0  0  0  0  0  0  0  0  0  0
    0.3942   -0.2540   -0.3852 H   0  0  0  0  0  0  0  0  0  0  0  0
    0.7133    2.3546    1.0366 H   0  0  0  0  0  0  0  0  0  0  0  0
    0.9246    2.1890   -0.7290 H   0  0  0  0  0  0  0  0  0  0  0  0
    3.1099    1.7282    1.4082 H   0  0  0  0  0  0  0  0  0  0  0  0
    3.3957    2.2516   -0.2793 H   0  0  0  0  0  0  0  0  0  0  0  0
  2  1  1  1
  1 17  1  0
  1 18  1  0
  2  3  1  0
  2 14  1  0
  2 16  1  0
  3  4  2  0
  3 13  1  0
  4  5  1  0
  5  6  1  0
  6  7  1  0
  6 13  2  0
  7  8  1  0
  7 19  1  0
  7 20  1  0
  8  9  1  0
  8 12  1  0
  9 10  2  0
  9 21  1  0
 10 11  1  0
 10 22  1  0
 11 12  2  0
 11 23  1  0
 14 15  1  0
 14 24  1  0
 14 25  1  0
 15 16  1  0
 15 26  1  0
 15 27  1  0
 16 28  1  0
 16 29  1  0
M  END

