
     RDKit          3D

 55 59  0  0  0  0  0  0  0  0999 V2000
    2.8339   -3.8791   -3.8222 C   0  0  0  0  0  0  0  0  0  0  0  0
    2.1936   -3.2246   -2.7342 O   0  0  0  0  0  0  0  0  0  0  0  0
    2.9429   -2.4498   -1.9295 C   0  0  0  0  0  0  0  0  0  0  0  0
    4.2060   -2.2204   -2.2469 N   0  0  0  0  0  0  0  0  0  0  0  0
    4.9281   -1.4079   -1.4654 C   0  0  0  0  0  0  0  0  0  0  0  0
    4.4093   -0.7855   -0.3350 C   0  0  0  0  0  0  0  0  0  0  0  0
    3.0772   -1.0479    0.0093 C   0  0  0  0  0  0  0  0  0  0  0  0
    2.3042   -1.9056   -0.7784 C   0  0  0  0  0  0  0  0  0  0  0  0
    0.9096   -2.2575   -0.4471 C   0  0  0  0  0  0  0  0  0  0  0  0
   -0.1562   -1.4000   -0.2109 C   0  0  0  0  0  0  0  0  0  0  0  0
   -0.1311    0.0926   -0.2691 C   0  0  0  0  0  0  0  0  0  0  0  0
    0.5665    0.7817    0.4517 O   0  0  0  0  0  0  0  0  0  0  0  0
   -0.9987    0.6451   -1.2017 N   0  0  0  0  0  0  0  0  0  0  0  0
   -0.9620    2.3006   -1.7315 S   0  0  1  0  0  0  0  0  0  0  0  0
   -1.3876    3.1888   -0.2355 C   0  0  0  0  0  0  0  0  0  0  0  0
    0.3938    2.6595   -2.1162 O   0  0  0  0  0  0  0  0  0  0  0  0
   -2.0685    2.3509   -2.6826 O   0  0  0  0  0  0  0  0  0  0  0  0
   -1.3339   -2.1168   -0.0033 N   0  0  0  0  0  0  0  0  0  0  0  0
   -2.5752   -1.5893    0.5600 C   0  0  0  0  0  0  0  0  0  0  0  0
   -2.6733   -1.7105    2.0709 C   0  0  0  0  0  0  0  0  0  0  0  0
   -1.7948   -1.0296    2.9298 C   0  0  0  0  0  0  0  0  0  0  0  0
   -1.9004   -1.1535    4.3164 C   0  0  0  0  0  0  0  0  0  0  0  0
   -2.8958   -1.9643    4.8732 C   0  0  0  0  0  0  0  0  0  0  0  0
   -3.7819   -2.6526    4.0429 C   0  0  0  0  0  0  0  0  0  0  0  0
   -3.6528   -2.5140    2.6633 C   0  0  0  0  0  0  0  0  0  0  0  0
   -4.5112   -3.1885    1.8684 F   0  0  0  0  0  0  0  0  0  0  0  0
   -1.0352   -3.4703   -0.0637 C   0  0  0  0  0  0  0  0  0  0  0  0
   -1.8833   -4.5740    0.1396 C   0  0  0  0  0  0  0  0  0  0  0  0
   -1.3546   -5.8625    0.0138 C   0  0  0  0  0  0  0  0  0  0  0  0
    0.0011   -5.9760   -0.2923 C   0  0  0  0  0  0  0  0  0  0  0  0
    0.8383   -4.8910   -0.4693 C   0  0  0  0  0  0  0  0  0  0  0  0
    0.3568   -3.5856   -0.3639 C   0  0  0  0  0  0  0  0  0  0  0  0
    2.1109   -5.3487   -0.7184 O   0  0  0  0  0  0  0  0  0  0  0  0
    2.0431   -6.7347   -0.7308 C   0  0  2  0  0  0  0  0  0  0  0  0
    2.8939   -7.2464    0.1653 F   0  0  0  0  0  0  0  0  0  0  0  0
    2.4228   -7.1980   -1.9320 F   0  0  0  0  0  0  0  0  0  0  0  0
    0.7494   -7.1302   -0.4498 O   0  0  0  0  0  0  0  0  0  0  0  0
    2.0451   -4.4414   -4.3389 H   0  0  0  0  0  0  0  0  0  0  0  0
    3.6121   -4.5701   -3.4632 H   0  0  0  0  0  0  0  0  0  0  0  0
    3.2990   -3.1544   -4.5072 H   0  0  0  0  0  0  0  0  0  0  0  0
    5.9708   -1.2486   -1.7636 H   0  0  0  0  0  0  0  0  0  0  0  0
    5.0279   -0.1213    0.2712 H   0  0  0  0  0  0  0  0  0  0  0  0
    2.6296   -0.5903    0.8923 H   0  0  0  0  0  0  0  0  0  0  0  0
   -1.4542    0.0470   -1.8900 H   0  0  0  0  0  0  0  0  0  0  0  0
   -0.6324    2.9395    0.5205 H   0  0  0  0  0  0  0  0  0  0  0  0
   -2.4015    2.9022    0.0695 H   0  0  0  0  0  0  0  0  0  0  0  0
   -1.3436    4.2528   -0.5062 H   0  0  0  0  0  0  0  0  0  0  0  0
   -3.4169   -2.1139    0.0893 H   0  0  0  0  0  0  0  0  0  0  0  0
   -2.6555   -0.5347    0.2645 H   0  0  0  0  0  0  0  0  0  0  0  0
   -1.0105   -0.3985    2.5026 H   0  0  0  0  0  0  0  0  0  0  0  0
   -1.2045   -0.6157    4.9640 H   0  0  0  0  0  0  0  0  0  0  0  0
   -2.9834   -2.0637    5.9577 H   0  0  0  0  0  0  0  0  0  0  0  0
   -4.5684   -3.2966    4.4409 H   0  0  0  0  0  0  0  0  0  0  0  0
   -2.9331   -4.4400    0.4004 H   0  0  0  0  0  0  0  0  0  0  0  0
   -1.9726   -6.7495    0.1563 H   0  0  0  0  0  0  0  0  0  0  0  0
  1  2  1  0
  1 38  1  0
  1 39  1  0
  1 40  1  0
  2  3  1  0
  3  4  2  0
  3  8  1  0
  4  5  1  0
  5  6  2  0
  5 41  1  0
  6  7  1  0
  6 42  1  0
  7  8  2  0
  7 43  1  0
  8  9  1  0
  9 10  2  0
  9 32  1  0
 10 11  1  0
 10 18  1  0
 11 12  2  0
 11 13  1  0
 14 13  1  1
 13 44  1  0
 14 15  1  0
 14 16  2  0
 14 17  2  0
 15 45  1  0
 15 46  1  0
 15 47  1  0
 18 19  1  0
 18 27  1  0
 19 20  1  0
 19 48  1  0
 19 49  1  0
 20 21  2  0
 20 25  1  0
 21 22  1  0
 21 50  1  0
 22 23  2  0
 22 51  1  0
 23 24  1  0
 23 52  1  0
 24 25  2  0
 24 53  1  0
 25 26  1  0
 27 28  1  0
 27 32  2  0
 28 29  2  0
 28 54  1  0
 29 30  1  0
 29 55  1  0
 30 31  2  0
 30 37  1  0
 31 32  1  0
 31 33  1  0
 33 34  1  0
 34 35  1  1
 34 36  1  0
 34 37  1  0
M  END

