
     RDKit          3D

 41 43  0  0  0  0  0  0  0  0999 V2000
    4.7731   -1.5827   -1.0821 C   0  0  0  0  0  0  0  0  0  0  0  0
    4.2096   -0.5728   -0.1323 C   0  0  0  0  0  0  0  0  0  0  0  0
    3.1257   -0.8403    0.5862 N   0  0  0  0  0  0  0  0  0  0  0  0
    2.8541    0.2584    1.3451 N   0  0  0  0  0  0  0  0  0  0  0  0
    1.7262    0.2725    2.2485 C   0  0  0  0  0  0  0  0  0  0  0  0
    3.7679    1.2290    1.1130 C   0  0  0  0  0  0  0  0  0  0  0  0
    4.0839    2.8506    1.6328 S   0  0  0  0  0  0  0  0  0  0  0  0
    5.5236    2.8816    0.5832 C   0  0  0  0  0  0  0  0  0  0  0  0
    6.2076    4.2056    0.5408 C   0  0  0  0  0  0  0  0  0  0  0  0
    5.5599    5.2122    0.8093 O   0  0  0  0  0  0  0  0  0  0  0  0
    7.5338    4.2682    0.1685 N   0  0  0  0  0  0  0  0  0  0  0  0
    8.5206    3.1978    0.2837 C   0  0  0  0  0  0  0  0  0  0  0  0
    9.3628    3.0967   -0.9906 C   0  0  0  0  0  0  0  0  0  0  0  0
    9.9855    4.4565   -1.3358 C   0  0  0  0  0  0  0  0  0  0  0  0
    8.9544    5.6128   -1.3750 C   0  0  2  0  0  0  0  0  0  0  0  0
    8.0162    5.4752   -2.5881 C   0  0  0  0  0  0  0  0  0  0  0  0
    9.6932    6.9575   -1.4567 C   0  0  0  0  0  0  0  0  0  0  0  0
    8.1303    5.5807   -0.0641 C   0  0  0  0  0  0  0  0  0  0  0  0
    5.6845    1.7180   -0.1357 C   0  0  0  0  0  0  0  0  0  0  0  0
    4.6774    0.7488    0.1624 C   0  0  0  0  0  0  0  0  0  0  0  0
    4.1635   -2.4964   -1.0579 H   0  0  0  0  0  0  0  0  0  0  0  0
    5.8106   -1.8492   -0.8192 H   0  0  0  0  0  0  0  0  0  0  0  0
    4.7859   -1.2001   -2.1164 H   0  0  0  0  0  0  0  0  0  0  0  0
    1.1860   -0.6719    2.1131 H   0  0  0  0  0  0  0  0  0  0  0  0
    1.0513    1.1138    2.0211 H   0  0  0  0  0  0  0  0  0  0  0  0
    2.0562    0.3551    3.2975 H   0  0  0  0  0  0  0  0  0  0  0  0
    8.0266    2.2514    0.5245 H   0  0  0  0  0  0  0  0  0  0  0  0
    9.1897    3.4329    1.1369 H   0  0  0  0  0  0  0  0  0  0  0  0
    8.7307    2.7382   -1.8209 H   0  0  0  0  0  0  0  0  0  0  0  0
   10.1545    2.3423   -0.8471 H   0  0  0  0  0  0  0  0  0  0  0  0
   10.5231    4.4020   -2.2979 H   0  0  0  0  0  0  0  0  0  0  0  0
   10.7460    4.6961   -0.5700 H   0  0  0  0  0  0  0  0  0  0  0  0
    8.5907    5.4601   -3.5288 H   0  0  0  0  0  0  0  0  0  0  0  0
    7.3143    6.3234   -2.6358 H   0  0  0  0  0  0  0  0  0  0  0  0
    7.4139    4.5558   -2.5439 H   0  0  0  0  0  0  0  0  0  0  0  0
   10.3006    7.0170   -2.3745 H   0  0  0  0  0  0  0  0  0  0  0  0
   10.3697    7.0993   -0.5977 H   0  0  0  0  0  0  0  0  0  0  0  0
    8.9837    7.8012   -1.4693 H   0  0  0  0  0  0  0  0  0  0  0  0
    7.3210    6.3211   -0.0811 H   0  0  0  0  0  0  0  0  0  0  0  0
    8.7920    5.8368    0.7874 H   0  0  0  0  0  0  0  0  0  0  0  0
    6.4743    1.5776   -0.8736 H   0  0  0  0  0  0  0  0  0  0  0  0
  1  2  1  0
  1 21  1  0
  1 22  1  0
  1 23  1  0
  2  3  2  0
  2 20  1  0
  3  4  1  0
  4  5  1  0
  4  6  1  0
  5 24  1  0
  5 25  1  0
  5 26  1  0
  6  7  2  0
  6 20  1  0
  7  8  1  0
  8  9  2  0
  8 19  1  0
  9 10  1  0
  9 11  1  0
 11 12  1  0
 11 18  1  0
 12 13  1  0
 12 27  1  0
 12 28  1  0
 13 14  1  0
 13 29  1  0
 13 30  1  0
 14 15  1  0
 14 31  1  0
 14 32  1  0
 15 16  1  6
 15 17  1  0
 15 18  1  0
 16 33  1  0
 16 34  1  0
 16 35  1  0
 17 36  1  0
 17 37  1  0
 17 38  1  0
 18 39  1  0
 18 40  1  0
 19 20  2  0
 19 41  1  0
M  CHG  2   7   1  10  -1
M  END

