
     RDKit          3D

 42 43  0  0  0  0  0  0  0  0999 V2000
    1.0217    0.3628    0.1292 C   0  0  0  0  0  0  0  0  0  0  0  0
    2.5448    0.2045    0.0022 C   0  0  0  0  0  0  0  0  0  0  0  0
    3.0285    0.1467   -1.4312 C   0  0  0  0  0  0  0  0  0  0  0  0
    3.4542    1.2949   -2.1068 C   0  0  0  0  0  0  0  0  0  0  0  0
    3.8710    1.2471   -3.4423 C   0  0  0  0  0  0  0  0  0  0  0  0
    3.8663    0.0288   -4.1300 C   0  0  0  0  0  0  0  0  0  0  0  0
    4.2656   -0.1208   -5.4283 O   0  0  0  0  0  0  0  0  0  0  0  0
    4.6647    1.0161   -6.1640 C   0  0  0  0  0  0  0  0  0  0  0  0
    3.4361   -1.1501   -3.4787 C   0  0  0  0  0  0  0  0  0  0  0  0
    3.4327   -2.4604   -4.2267 C   0  0  0  0  0  0  0  0  0  0  0  0
    4.8564   -3.0714   -4.4466 C   0  0  1  0  0  0  0  0  0  0  0  0
    5.4792   -3.4137   -3.1611 C   0  0  0  0  0  0  0  0  0  0  0  0
    5.9416   -3.6959   -2.1367 N   0  0  0  0  0  0  0  0  0  0  0  0
    4.8158   -4.2563   -5.4069 C   0  0  0  0  0  0  0  0  0  0  0  0
    4.7182   -4.0038   -6.7863 C   0  0  0  0  0  0  0  0  0  0  0  0
    4.6336   -5.0507   -7.6991 C   0  0  0  0  0  0  0  0  0  0  0  0
    4.6279   -6.3828   -7.2553 C   0  0  0  0  0  0  0  0  0  0  0  0
    4.5452   -7.4664   -8.2952 C   0  0  0  0  0  0  0  0  0  0  0  0
    4.7691   -7.2754   -9.4614 O   0  0  0  0  0  0  0  0  0  0  0  0
    4.1926   -8.6975   -7.8603 O   0  0  0  0  0  0  0  0  0  0  0  0
    4.7417   -6.6369   -5.8808 C   0  0  0  0  0  0  0  0  0  0  0  0
    4.8337   -5.5855   -4.9657 C   0  0  0  0  0  0  0  0  0  0  0  0
    3.0306   -1.0638   -2.1450 C   0  0  0  0  0  0  0  0  0  0  0  0
    0.7131    0.3968    1.1867 H   0  0  0  0  0  0  0  0  0  0  0  0
    0.4924   -0.4764   -0.3503 H   0  0  0  0  0  0  0  0  0  0  0  0
    0.6766    1.2904   -0.3554 H   0  0  0  0  0  0  0  0  0  0  0  0
    2.8599   -0.7117    0.5296 H   0  0  0  0  0  0  0  0  0  0  0  0
    3.0415    1.0425    0.5193 H   0  0  0  0  0  0  0  0  0  0  0  0
    3.4706    2.2554   -1.5834 H   0  0  0  0  0  0  0  0  0  0  0  0
    4.2016    2.1638   -3.9307 H   0  0  0  0  0  0  0  0  0  0  0  0
    4.9159    0.6650   -7.1738 H   0  0  0  0  0  0  0  0  0  0  0  0
    5.5540    1.4996   -5.7220 H   0  0  0  0  0  0  0  0  0  0  0  0
    3.8527    1.7613   -6.2354 H   0  0  0  0  0  0  0  0  0  0  0  0
    2.9987   -2.3153   -5.2269 H   0  0  0  0  0  0  0  0  0  0  0  0
    2.8107   -3.1994   -3.6998 H   0  0  0  0  0  0  0  0  0  0  0  0
    5.4731   -2.2821   -4.9057 H   0  0  0  0  0  0  0  0  0  0  0  0
    4.7143   -2.9706   -7.1444 H   0  0  0  0  0  0  0  0  0  0  0  0
    4.5741   -4.8617   -8.7725 H   0  0  0  0  0  0  0  0  0  0  0  0
    3.9188   -8.6661   -6.9332 H   0  0  0  0  0  0  0  0  0  0  0  0
    4.7956   -7.6614   -5.4998 H   0  0  0  0  0  0  0  0  0  0  0  0
    4.9408   -5.8044   -3.9009 H   0  0  0  0  0  0  0  0  0  0  0  0
    2.7080   -1.9798   -1.6403 H   0  0  0  0  0  0  0  0  0  0  0  0
  1  2  1  0
  1 24  1  0
  1 25  1  0
  1 26  1  0
  2  3  1  0
  2 27  1  0
  2 28  1  0
  3  4  2  0
  3 23  1  0
  4  5  1  0
  4 29  1  0
  5  6  2  0
  5 30  1  0
  6  7  1  0
  6  9  1  0
  7  8  1  0
  8 31  1  0
  8 32  1  0
  8 33  1  0
  9 10  1  0
  9 23  2  0
 10 11  1  0
 10 34  1  0
 10 35  1  0
 11 12  1  0
 11 14  1  0
 11 36  1  6
 12 13  3  0
 14 15  2  0
 14 22  1  0
 15 16  1  0
 15 37  1  0
 16 17  2  0
 16 38  1  0
 17 18  1  0
 17 21  1  0
 18 19  2  0
 18 20  1  0
 20 39  1  0
 21 22  2  0
 21 40  1  0
 22 41  1  0
 23 42  1  0
M  END

