
     RDKit          3D

 47 48  0  0  0  0  0  0  0  0999 V2000
    1.7784   -0.3367   -0.4784 C   0  0  0  0  0  0  0  0  0  0  0  0
    3.2806   -0.0201   -0.5340 C   0  0  1  0  0  0  0  0  0  0  0  0
    3.8198   -0.0829   -1.9708 C   0  0  0  0  0  0  0  0  0  0  0  0
    3.5226    1.3834    0.0363 C   0  0  0  0  0  0  0  0  0  0  0  0
    3.0346    2.3720   -0.4796 O   0  0  0  0  0  0  0  0  0  0  0  0
    4.3236    1.4188    1.1607 N   0  0  0  0  0  0  0  0  0  0  0  0
    4.7378    2.5230    1.9222 C   0  0  0  0  0  0  0  0  0  0  0  0
    4.3629    3.8482    1.6299 C   0  0  0  0  0  0  0  0  0  0  0  0
    4.8217    4.8875    2.4375 C   0  0  0  0  0  0  0  0  0  0  0  0
    5.6557    4.6482    3.5414 C   0  0  0  0  0  0  0  0  0  0  0  0
    6.1816    5.7143    4.4444 C   0  0  0  0  0  0  0  0  0  0  0  0
    6.7101    5.4806    5.5294 O   0  0  0  0  0  0  0  0  0  0  0  0
    6.0518    7.0005    4.0102 N   0  0  0  0  0  0  0  0  0  0  0  0
    6.5502    8.0093    4.7987 N   0  0  0  0  0  0  0  0  0  0  0  0
    6.5846    9.2764    4.2915 C   0  0  0  0  0  0  0  0  0  0  0  0
    6.1464    9.5073    3.1663 O   0  0  0  0  0  0  0  0  0  0  0  0
    7.1700   10.2845    5.2030 C   0  0  0  0  0  0  0  0  0  0  0  0
    7.2629   11.5723    4.8166 C   0  0  0  0  0  0  0  0  0  0  0  0
    7.8077   12.7044    5.5697 C   0  0  0  0  0  0  0  0  0  0  0  0
    8.3372   12.5848    6.8722 C   0  0  0  0  0  0  0  0  0  0  0  0
    8.8427   13.6965    7.5423 C   0  0  0  0  0  0  0  0  0  0  0  0
    8.8329   14.9565    6.9299 C   0  0  0  0  0  0  0  0  0  0  0  0
    8.3125   15.0940    5.6403 C   0  0  0  0  0  0  0  0  0  0  0  0
    7.8062   13.9796    4.9694 C   0  0  0  0  0  0  0  0  0  0  0  0
    6.0123    3.3220    3.8334 C   0  0  0  0  0  0  0  0  0  0  0  0
    5.5654    2.2766    3.0358 C   0  0  0  0  0  0  0  0  0  0  0  0
    1.5741   -1.3268   -0.9153 H   0  0  0  0  0  0  0  0  0  0  0  0
    1.2137    0.4191   -1.0451 H   0  0  0  0  0  0  0  0  0  0  0  0
    1.4020   -0.3361    0.5571 H   0  0  0  0  0  0  0  0  0  0  0  0
    3.8215   -0.7627    0.0799 H   0  0  0  0  0  0  0  0  0  0  0  0
    3.3292    0.6832   -2.5901 H   0  0  0  0  0  0  0  0  0  0  0  0
    3.6243   -1.0712   -2.4158 H   0  0  0  0  0  0  0  0  0  0  0  0
    4.9061    0.0981   -2.0044 H   0  0  0  0  0  0  0  0  0  0  0  0
    4.6639    0.5221    1.4872 H   0  0  0  0  0  0  0  0  0  0  0  0
    3.7137    4.0424    0.7798 H   0  0  0  0  0  0  0  0  0  0  0  0
    4.4892    5.9008    2.1985 H   0  0  0  0  0  0  0  0  0  0  0  0
    5.7799    7.3203    3.0842 H   0  0  0  0  0  0  0  0  0  0  0  0
    6.9522    7.6784    5.6723 H   0  0  0  0  0  0  0  0  0  0  0  0
    7.5161    9.9446    6.1836 H   0  0  0  0  0  0  0  0  0  0  0  0
    6.8821   11.7954    3.8137 H   0  0  0  0  0  0  0  0  0  0  0  0
    8.3536   11.6109    7.3664 H   0  0  0  0  0  0  0  0  0  0  0  0
    9.2485   13.5829    8.5508 H   0  0  0  0  0  0  0  0  0  0  0  0
    9.2304   15.8265    7.4587 H   0  0  0  0  0  0  0  0  0  0  0  0
    8.3007   16.0730    5.1546 H   0  0  0  0  0  0  0  0  0  0  0  0
    7.3995   14.0898    3.9605 H   0  0  0  0  0  0  0  0  0  0  0  0
    6.6474    3.1350    4.7010 H   0  0  0  0  0  0  0  0  0  0  0  0
    5.8578    1.2497    3.2756 H   0  0  0  0  0  0  0  0  0  0  0  0
  1  2  1  0
  1 27  1  0
  1 28  1  0
  1 29  1  0
  2  3  1  0
  2  4  1  0
  2 30  1  1
  3 31  1  0
  3 32  1  0
  3 33  1  0
  4  5  2  0
  4  6  1  0
  6  7  1  0
  6 34  1  0
  7  8  2  0
  7 26  1  0
  8  9  1  0
  8 35  1  0
  9 10  2  0
  9 36  1  0
 10 11  1  0
 10 25  1  0
 11 12  2  0
 11 13  1  0
 13 14  1  0
 13 37  1  0
 14 15  1  0
 14 38  1  0
 15 16  2  0
 15 17  1  0
 17 18  2  0
 17 39  1  0
 18 19  1  0
 18 40  1  0
 19 20  2  0
 19 24  1  0
 20 21  1  0
 20 41  1  0
 21 22  2  0
 21 42  1  0
 22 23  1  0
 22 43  1  0
 23 24  2  0
 23 44  1  0
 24 45  1  0
 25 26  2  0
 25 46  1  0
 26 47  1  0
M  END

