
     RDKit          3D

 61 64  0  0  0  0  0  0  0  0999 V2000
   -0.9502    0.5230   -1.2836 C   0  0  0  0  0  0  0  0  0  0  0  0
   -0.4588    1.6871   -0.4773 C   0  0  0  0  0  0  0  0  0  0  0  0
    0.6949    2.3359   -0.6583 C   0  0  0  0  0  0  0  0  0  0  0  0
    1.6027    1.9373   -1.6153 O   0  0  0  0  0  0  0  0  0  0  0  0
    2.6192    2.7538   -2.0001 C   0  0  0  0  0  0  0  0  0  0  0  0
    3.8741    2.1840   -2.2521 C   0  0  0  0  0  0  0  0  0  0  0  0
    4.9348    2.9690   -2.6936 C   0  0  0  0  0  0  0  0  0  0  0  0
    4.8086    4.3582   -2.8978 C   0  0  0  0  0  0  0  0  0  0  0  0
    5.9497    5.1812   -3.3736 C   0  0  0  0  0  0  0  0  0  0  0  0
    6.8467    4.6689   -4.3288 C   0  0  0  0  0  0  0  0  0  0  0  0
    7.9402    5.4140   -4.7653 C   0  0  0  0  0  0  0  0  0  0  0  0
    8.1883    6.7075   -4.2698 C   0  0  0  0  0  0  0  0  0  0  0  0
    9.3427    7.4959   -4.7721 C   0  0  0  0  0  0  0  0  0  0  0  0
    9.7352    7.4473   -6.1240 C   0  0  0  0  0  0  0  0  0  0  0  0
   10.8250    8.1654   -6.6151 C   0  0  0  0  0  0  0  0  0  0  0  0
   11.5870    8.9826   -5.7627 C   0  0  0  0  0  0  0  0  0  0  0  0
   12.8021    9.7631   -6.2334 C   0  0  1  0  0  0  0  0  0  0  0  0
   14.0754    8.8911   -6.3163 C   0  0  0  0  0  0  0  0  0  0  0  0
   14.0516    8.0470   -7.4518 O   0  0  0  0  0  0  0  0  0  0  0  0
   13.8826    8.7161   -8.6838 C   0  0  2  0  0  0  0  0  0  0  0  0
   15.1356    9.4731   -9.1455 C   0  0  0  0  0  0  0  0  0  0  0  0
   16.3559    8.5637   -9.3147 C   0  0  0  0  0  0  0  0  0  0  0  0
   17.5982    9.3050   -9.8095 C   0  0  0  0  0  0  0  0  0  0  0  0
   12.7259    9.5287   -8.6773 O   0  0  0  0  0  0  0  0  0  0  0  0
   12.6369   10.4509   -7.6023 C   0  0  0  0  0  0  0  0  0  0  0  0
   11.2116    9.0473   -4.4128 C   0  0  0  0  0  0  0  0  0  0  0  0
   10.1206    8.3225   -3.9450 C   0  0  0  0  0  0  0  0  0  0  0  0
    9.8245    8.4239   -2.6351 F   0  0  0  0  0  0  0  0  0  0  0  0
    7.2913    7.2187   -3.3125 C   0  0  0  0  0  0  0  0  0  0  0  0
    6.1958    6.4758   -2.8787 C   0  0  0  0  0  0  0  0  0  0  0  0
    3.5433    4.9090   -2.6429 C   0  0  0  0  0  0  0  0  0  0  0  0
    3.3069    6.2123   -2.8381 F   0  0  0  0  0  0  0  0  0  0  0  0
    2.4644    4.1315   -2.2132 C   0  0  0  0  0  0  0  0  0  0  0  0
    1.2779    4.7247   -2.0343 F   0  0  0  0  0  0  0  0  0  0  0  0
   -1.9313    0.7426   -1.7396 H   0  0  0  0  0  0  0  0  0  0  0  0
   -1.0920   -0.3698   -0.6494 H   0  0  0  0  0  0  0  0  0  0  0  0
   -0.2478    0.2633   -2.0877 H   0  0  0  0  0  0  0  0  0  0  0  0
   -1.0870    2.0509    0.3416 H   0  0  0  0  0  0  0  0  0  0  0  0
    1.0059    3.1830   -0.0415 H   0  0  0  0  0  0  0  0  0  0  0  0
    3.9927    1.1126   -2.0826 H   0  0  0  0  0  0  0  0  0  0  0  0
    5.9072    2.5018   -2.8586 H   0  0  0  0  0  0  0  0  0  0  0  0
    6.6797    3.6745   -4.7491 H   0  0  0  0  0  0  0  0  0  0  0  0
    8.6224    4.9764   -5.4977 H   0  0  0  0  0  0  0  0  0  0  0  0
    9.1476    6.8395   -6.8156 H   0  0  0  0  0  0  0  0  0  0  0  0
   11.0815    8.1059   -7.6724 H   0  0  0  0  0  0  0  0  0  0  0  0
   12.9995   10.5530   -5.4892 H   0  0  0  0  0  0  0  0  0  0  0  0
   14.1614    8.2316   -5.4409 H   0  0  0  0  0  0  0  0  0  0  0  0
   14.9663    9.5503   -6.3284 H   0  0  0  0  0  0  0  0  0  0  0  0
   13.6640    7.9171   -9.4097 H   0  0  0  0  0  0  0  0  0  0  0  0
   15.3796   10.2927   -8.4487 H   0  0  0  0  0  0  0  0  0  0  0  0
   14.8805    9.9552  -10.1047 H   0  0  0  0  0  0  0  0  0  0  0  0
   16.1051    7.7503  -10.0197 H   0  0  0  0  0  0  0  0  0  0  0  0
   16.5697    8.0672   -8.3534 H   0  0  0  0  0  0  0  0  0  0  0  0
   17.4204    9.7813  -10.7883 H   0  0  0  0  0  0  0  0  0  0  0  0
   18.4555    8.6227   -9.9225 H   0  0  0  0  0  0  0  0  0  0  0  0
   17.8981   10.1008   -9.1069 H   0  0  0  0  0  0  0  0  0  0  0  0
   11.6513   10.9304   -7.6916 H   0  0  0  0  0  0  0  0  0  0  0  0
   13.4040   11.2438   -7.7024 H   0  0  0  0  0  0  0  0  0  0  0  0
   11.7614    9.6626   -3.6963 H   0  0  0  0  0  0  0  0  0  0  0  0
    7.4497    8.2166   -2.9029 H   0  0  0  0  0  0  0  0  0  0  0  0
    5.5237    6.9083   -2.1366 H   0  0  0  0  0  0  0  0  0  0  0  0
  1  2  1  0
  1 35  1  0
  1 36  1  0
  1 37  1  0
  2  3  2  0
  2 38  1  0
  3  4  1  0
  3 39  1  0
  4  5  1  0
  5  6  2  0
  5 33  1  0
  6  7  1  0
  6 40  1  0
  7  8  2  0
  7 41  1  0
  8  9  1  0
  8 31  1  0
  9 10  2  0
  9 30  1  0
 10 11  1  0
 10 42  1  0
 11 12  2  0
 11 43  1  0
 12 13  1  0
 12 29  1  0
 13 14  2  0
 13 27  1  0
 14 15  1  0
 14 44  1  0
 15 16  2  0
 15 45  1  0
 16 17  1  0
 16 26  1  0
 17 18  1  0
 17 25  1  0
 17 46  1  1
 18 19  1  0
 18 47  1  0
 18 48  1  0
 19 20  1  0
 20 21  1  0
 20 24  1  0
 20 49  1  6
 21 22  1  0
 21 50  1  0
 21 51  1  0
 22 23  1  0
 22 52  1  0
 22 53  1  0
 23 54  1  0
 23 55  1  0
 23 56  1  0
 24 25  1  0
 25 57  1  0
 25 58  1  0
 26 27  2  0
 26 59  1  0
 27 28  1  0
 29 30  2  0
 29 60  1  0
 30 61  1  0
 31 32  1  0
 31 33  2  0
 33 34  1  0
M  END

