
     RDKit          3D

 37 39  0  0  0  0  0  0  0  0999 V2000
    4.0381   -2.9022   -0.2671 C   0  0  0  0  0  0  0  0  0  0  0  0
    3.9458   -1.6975   -0.1830 C   0  0  0  0  0  0  0  0  0  0  0  0
    3.8065   -0.2411   -0.0617 C   0  0  0  0  0  0  0  0  0  0  0  0
    4.1832    0.4773   -1.2748 N   0  0  0  0  0  0  0  0  0  0  0  0
    3.3737    0.1864   -2.4545 C   0  0  0  0  0  0  0  0  0  0  0  0
    2.0181    0.9201   -2.4713 C   0  0  0  0  0  0  0  0  0  0  0  0
    2.1740    2.4409   -2.2776 C   0  0  2  0  0  0  0  0  0  0  0  0
    2.7283    3.0445   -3.4788 N   0  0  0  0  0  0  0  0  0  0  0  0
    2.5780    4.3644   -3.8555 C   0  0  0  0  0  0  0  0  0  0  0  0
    3.1023    4.7619   -5.1307 C   0  0  0  0  0  0  0  0  0  0  0  0
    2.9975    6.0570   -5.5983 C   0  0  0  0  0  0  0  0  0  0  0  0
    2.3561    7.0265   -4.7983 C   0  0  0  0  0  0  0  0  0  0  0  0
    2.0417    8.4207   -4.8861 C   0  0  0  0  0  0  0  0  0  0  0  0
    1.4067    8.8409   -3.8095 N   0  0  0  0  0  0  0  0  0  0  0  0
    1.2892    7.7588   -3.0005 N   0  0  0  0  0  0  0  0  0  0  0  0
    0.8246    7.8597   -2.1081 H   0  0  0  0  0  0  0  0  0  0  0  0
    1.8408    6.6292   -3.5373 C   0  0  0  0  0  0  0  0  0  0  0  0
    1.9381    5.3148   -3.0457 C   0  0  0  0  0  0  0  0  0  0  0  0
    3.0472    2.7088   -1.0268 C   0  0  0  0  0  0  0  0  0  0  0  0
    4.3634    1.9158   -1.0920 C   0  0  0  0  0  0  0  0  0  0  0  0
    4.1305   -3.9695   -0.3402 H   0  0  0  0  0  0  0  0  0  0  0  0
    4.4721    0.1026    0.7494 H   0  0  0  0  0  0  0  0  0  0  0  0
    2.7714   -0.0295    0.2940 H   0  0  0  0  0  0  0  0  0  0  0  0
    3.2203   -0.9012   -2.5242 H   0  0  0  0  0  0  0  0  0  0  0  0
    3.9662    0.4675   -3.3452 H   0  0  0  0  0  0  0  0  0  0  0  0
    1.3811    0.5333   -1.6589 H   0  0  0  0  0  0  0  0  0  0  0  0
    1.4803    0.7136   -3.4125 H   0  0  0  0  0  0  0  0  0  0  0  0
    1.1698    2.8715   -2.1082 H   0  0  0  0  0  0  0  0  0  0  0  0
    3.0939    2.4220   -4.1866 H   0  0  0  0  0  0  0  0  0  0  0  0
    3.5993    4.0039   -5.7432 H   0  0  0  0  0  0  0  0  0  0  0  0
    3.4082    6.3204   -6.5764 H   0  0  0  0  0  0  0  0  0  0  0  0
    2.2599    9.1164   -5.6967 H   0  0  0  0  0  0  0  0  0  0  0  0
    1.5318    5.0546   -2.0687 H   0  0  0  0  0  0  0  0  0  0  0  0
    2.4729    2.4277   -0.1262 H   0  0  0  0  0  0  0  0  0  0  0  0
    3.2642    3.7854   -0.9403 H   0  0  0  0  0  0  0  0  0  0  0  0
    4.9665    2.0895   -0.1860 H   0  0  0  0  0  0  0  0  0  0  0  0
    4.9577    2.2927   -1.9432 H   0  0  0  0  0  0  0  0  0  0  0  0
  1  2  3  0
  1 21  1  0
  2  3  1  0
  3  4  1  0
  3 22  1  0
  3 23  1  0
  4  5  1  0
  4 20  1  0
  5  6  1  0
  5 24  1  0
  5 25  1  0
  6  7  1  0
  6 26  1  0
  6 27  1  0
  7  8  1  0
  7 19  1  0
  7 28  1  1
  8  9  1  0
  8 29  1  0
  9 10  2  0
  9 18  1  0
 10 11  1  0
 10 30  1  0
 11 12  2  0
 11 31  1  0
 12 13  1  0
 12 17  1  0
 13 14  2  0
 13 32  1  0
 14 15  1  0
 15 16  1  0
 15 17  1  0
 17 18  2  0
 18 33  1  0
 19 20  1  0
 19 34  1  0
 19 35  1  0
 20 36  1  0
 20 37  1  0
M  END

