
     RDKit          3D

 31 32  0  0  0  0  0  0  0  0999 V2000
    0.9305    0.4787    0.1998 C   0  0  0  0  0  0  0  0  0  0  0  0
    2.1115    0.2175    0.1453 C   0  0  0  0  0  0  0  0  0  0  0  0
    3.5360   -0.1106    0.0560 C   0  0  0  0  0  0  0  0  0  0  0  0
    4.2676    0.1064    1.3170 N   0  0  0  0  0  0  0  0  0  0  0  0
    4.4956    1.3465    1.8539 C   0  0  0  0  0  0  0  0  0  0  0  0
    4.2536    2.5763    1.0376 C   0  0  0  0  0  0  0  0  0  0  0  0
    3.4289    3.5876    1.5535 C   0  0  0  0  0  0  0  0  0  0  0  0
    3.2359    4.7730    0.8419 C   0  0  0  0  0  0  0  0  0  0  0  0
    3.8804    4.9706   -0.3833 C   0  0  0  0  0  0  0  0  0  0  0  0
    4.7240    3.9787   -0.8916 C   0  0  0  0  0  0  0  0  0  0  0  0
    4.9089    2.7869   -0.1866 C   0  0  0  0  0  0  0  0  0  0  0  0
    4.9485    1.5218    3.0608 N   0  0  0  0  0  0  0  0  0  0  0  0
    5.2418    0.4289    3.8382 C   0  0  0  0  0  0  0  0  0  0  0  0
    5.6513    0.7572    5.0997 N   0  0  0  0  0  0  0  0  0  0  0  0
    5.1229   -0.8735    3.3734 C   0  0  0  0  0  0  0  0  0  0  0  0
    5.4618   -2.1098    4.1591 C   0  0  0  0  0  0  0  0  0  0  0  0
    4.6013   -1.0880    2.0508 C   0  0  0  0  0  0  0  0  0  0  0  0
    4.4186   -2.1846    1.5341 O   0  0  0  0  0  0  0  0  0  0  0  0
   -0.1170    0.7084    0.2515 H   0  0  0  0  0  0  0  0  0  0  0  0
    4.0015    0.4517   -0.7637 H   0  0  0  0  0  0  0  0  0  0  0  0
    3.6580   -1.1848   -0.1513 H   0  0  0  0  0  0  0  0  0  0  0  0
    2.9423    3.4340    2.5184 H   0  0  0  0  0  0  0  0  0  0  0  0
    2.5821    5.5488    1.2482 H   0  0  0  0  0  0  0  0  0  0  0  0
    3.7316    5.9005   -0.9380 H   0  0  0  0  0  0  0  0  0  0  0  0
    5.2477    4.1352   -1.8380 H   0  0  0  0  0  0  0  0  0  0  0  0
    5.5923    2.0291   -0.5784 H   0  0  0  0  0  0  0  0  0  0  0  0
    5.8717    1.7315    5.2610 H   0  0  0  0  0  0  0  0  0  0  0  0
    6.0852    0.0670    5.6944 H   0  0  0  0  0  0  0  0  0  0  0  0
    5.8244   -1.8900    5.1740 H   0  0  0  0  0  0  0  0  0  0  0  0
    6.2333   -2.7066    3.6444 H   0  0  0  0  0  0  0  0  0  0  0  0
    4.5813   -2.7669    4.2526 H   0  0  0  0  0  0  0  0  0  0  0  0
  1  2  3  0
  1 19  1  0
  2  3  1  0
  3  4  1  0
  3 20  1  0
  3 21  1  0
  4  5  1  0
  4 17  1  0
  5  6  1  0
  5 12  2  0
  6  7  2  0
  6 11  1  0
  7  8  1  0
  7 22  1  0
  8  9  2  0
  8 23  1  0
  9 10  1  0
  9 24  1  0
 10 11  2  0
 10 25  1  0
 11 26  1  0
 12 13  1  0
 13 14  1  0
 13 15  2  0
 14 27  1  0
 14 28  1  0
 15 16  1  0
 15 17  1  0
 16 29  1  0
 16 30  1  0
 16 31  1  0
 17 18  2  0
M  END

