
     RDKit          3D

 41 42  0  0  0  0  0  0  0  0999 V2000
    1.2283    5.2919   -0.5353 C   0  0  0  0  0  0  0  0  0  0  0  0
    2.7458    5.2082   -0.7389 C   0  0  1  0  0  0  0  0  0  0  0  0
    3.4201    6.5442   -0.4002 C   0  0  0  0  0  0  0  0  0  0  0  0
    3.3281    4.0369    0.0670 C   0  0  0  0  0  0  0  0  0  0  0  0
    4.7403    3.8100   -0.1954 N   0  0  0  0  0  0  0  0  0  0  0  0
    5.2969    2.6405    0.4624 C   0  0  0  0  0  0  0  0  0  0  0  0
    6.7467    2.3914    0.0903 C   0  0  0  0  0  0  0  0  0  0  0  0
    7.6144    1.7972    1.0126 C   0  0  0  0  0  0  0  0  0  0  0  0
    8.9268    1.5307    0.6212 C   0  0  0  0  0  0  0  0  0  0  0  0
    9.7604    0.9609    1.5057 F   0  0  0  0  0  0  0  0  0  0  0  0
    9.4070    1.8407   -0.6424 C   0  0  0  0  0  0  0  0  0  0  0  0
    8.5334    2.4462   -1.5627 C   0  0  0  0  0  0  0  0  0  0  0  0
    9.0699    2.7298   -2.7769 O   0  0  0  0  0  0  0  0  0  0  0  0
    8.2941    3.3986   -3.7660 C   0  0  1  0  0  0  0  0  0  0  0  0
    9.2424    3.8282   -4.9036 C   0  0  0  0  0  0  0  0  0  0  0  0
    8.5317    3.3254   -6.1671 C   0  0  0  0  0  0  0  0  0  0  0  0
    7.8394    2.1660   -5.7480 O   0  0  0  0  0  0  0  0  0  0  0  0
    7.2790    2.4730   -4.4888 C   0  0  0  0  0  0  0  0  0  0  0  0
    7.2056    2.7165   -1.1969 C   0  0  0  0  0  0  0  0  0  0  0  0
    0.7885    6.0973   -1.1449 H   0  0  0  0  0  0  0  0  0  0  0  0
    0.9784    5.5010    0.5193 H   0  0  0  0  0  0  0  0  0  0  0  0
    0.7295    4.3498   -0.8154 H   0  0  0  0  0  0  0  0  0  0  0  0
    2.9436    4.9879   -1.8037 H   0  0  0  0  0  0  0  0  0  0  0  0
    3.3014    6.7899    0.6698 H   0  0  0  0  0  0  0  0  0  0  0  0
    2.9757    7.3690   -0.9803 H   0  0  0  0  0  0  0  0  0  0  0  0
    4.4978    6.5351   -0.6306 H   0  0  0  0  0  0  0  0  0  0  0  0
    2.7857    3.1146   -0.2075 H   0  0  0  0  0  0  0  0  0  0  0  0
    3.1130    4.2028    1.1499 H   0  0  0  0  0  0  0  0  0  0  0  0
    5.2862    4.6316    0.0617 H   0  0  0  0  0  0  0  0  0  0  0  0
    4.6969    1.7640    0.1507 H   0  0  0  0  0  0  0  0  0  0  0  0
    5.2123    2.6757    1.5716 H   0  0  0  0  0  0  0  0  0  0  0  0
    7.2931    1.5391    2.0235 H   0  0  0  0  0  0  0  0  0  0  0  0
   10.4403    1.6295   -0.9184 H   0  0  0  0  0  0  0  0  0  0  0  0
    7.7866    4.2611   -3.3031 H   0  0  0  0  0  0  0  0  0  0  0  0
   10.1946    3.2977   -4.7585 H   0  0  0  0  0  0  0  0  0  0  0  0
    9.4428    4.9092   -4.9121 H   0  0  0  0  0  0  0  0  0  0  0  0
    9.2161    3.0492   -6.9825 H   0  0  0  0  0  0  0  0  0  0  0  0
    7.8237    4.0892   -6.5548 H   0  0  0  0  0  0  0  0  0  0  0  0
    7.0969    1.5376   -3.9410 H   0  0  0  0  0  0  0  0  0  0  0  0
    6.3115    3.0045   -4.6092 H   0  0  0  0  0  0  0  0  0  0  0  0
    6.4996    3.1819   -1.8827 H   0  0  0  0  0  0  0  0  0  0  0  0
  1  2  1  0
  1 20  1  0
  1 21  1  0
  1 22  1  0
  2  3  1  0
  2  4  1  0
  2 23  1  6
  3 24  1  0
  3 25  1  0
  3 26  1  0
  4  5  1  0
  4 27  1  0
  4 28  1  0
  5  6  1  0
  5 29  1  0
  6  7  1  0
  6 30  1  0
  6 31  1  0
  7  8  2  0
  7 19  1  0
  8  9  1  0
  8 32  1  0
  9 10  1  0
  9 11  2  0
 11 12  1  0
 11 33  1  0
 12 13  1  0
 12 19  2  0
 13 14  1  0
 14 15  1  0
 14 18  1  0
 14 34  1  1
 15 16  1  0
 15 35  1  0
 15 36  1  0
 16 17  1  0
 16 37  1  0
 16 38  1  0
 17 18  1  0
 18 39  1  0
 18 40  1  0
 19 41  1  0
M  END

