
     RDKit          3D

 40 42  0  0  0  0  0  0  0  0999 V2000
    6.7102   -2.7901   -1.1370 C   0  0  0  0  0  0  0  0  0  0  0  0
    6.1395   -1.9258   -0.0306 C   0  0  0  0  0  0  0  0  0  0  0  0
    6.6875   -0.6119   -0.1781 O   0  0  0  0  0  0  0  0  0  0  0  0
    6.3256    0.3351    0.7052 C   0  0  0  0  0  0  0  0  0  0  0  0
    6.8905    1.6189    0.5337 C   0  0  0  0  0  0  0  0  0  0  0  0
    6.5399    2.6242    1.4264 C   0  0  0  0  0  0  0  0  0  0  0  0
    7.1079    4.0254    1.2973 C   0  0  0  0  0  0  0  0  0  0  0  0
    6.1001    5.0369    1.0174 N   0  0  0  0  0  0  0  0  0  0  0  0
    5.6491    5.9067    1.9754 C   0  0  0  0  0  0  0  0  0  0  0  0
    6.0686    5.8925    3.1224 O   0  0  0  0  0  0  0  0  0  0  0  0
    4.6501    6.9381    1.5123 C   0  0  0  0  0  0  0  0  0  0  0  0
    4.8641    8.2364    1.9509 C   0  0  0  0  0  0  0  0  0  0  0  0
    4.1008    9.2989    1.6066 N   0  0  0  0  0  0  0  0  0  0  0  0
    3.0725    9.0837    0.8188 C   0  0  0  0  0  0  0  0  0  0  0  0
    2.6986    7.8012    0.3261 C   0  0  0  0  0  0  0  0  0  0  0  0
    1.5465    7.6198   -0.4858 C   0  0  0  0  0  0  0  0  0  0  0  0
    1.1839    6.3616   -0.9155 C   0  0  0  0  0  0  0  0  0  0  0  0
    1.9574    5.2377   -0.5319 C   0  0  0  0  0  0  0  0  0  0  0  0
    3.0861    5.3826    0.2499 C   0  0  0  0  0  0  0  0  0  0  0  0
    3.5063    6.6730    0.6896 C   0  0  0  0  0  0  0  0  0  0  0  0
    5.6352    2.3099    2.4632 C   0  0  0  0  0  0  0  0  0  0  0  0
    5.1404    1.0138    2.5359 C   0  0  0  0  0  0  0  0  0  0  0  0
    5.4734    0.0392    1.6752 N   0  0  0  0  0  0  0  0  0  0  0  0
    6.3116   -3.8137   -1.0596 H   0  0  0  0  0  0  0  0  0  0  0  0
    7.8081   -2.8402   -1.0710 H   0  0  0  0  0  0  0  0  0  0  0  0
    6.4441   -2.3890   -2.1273 H   0  0  0  0  0  0  0  0  0  0  0  0
    6.3920   -2.3179    0.9688 H   0  0  0  0  0  0  0  0  0  0  0  0
    5.0390   -1.8715   -0.0778 H   0  0  0  0  0  0  0  0  0  0  0  0
    7.5877    1.7884   -0.2897 H   0  0  0  0  0  0  0  0  0  0  0  0
    7.8748    4.0477    0.5071 H   0  0  0  0  0  0  0  0  0  0  0  0
    7.5835    4.3201    2.2445 H   0  0  0  0  0  0  0  0  0  0  0  0
    5.7535    5.1266    0.0701 H   0  0  0  0  0  0  0  0  0  0  0  0
    5.7104    8.4367    2.6151 H   0  0  0  0  0  0  0  0  0  0  0  0
    2.4629    9.9536    0.5384 H   0  0  0  0  0  0  0  0  0  0  0  0
    0.9495    8.4956   -0.7548 H   0  0  0  0  0  0  0  0  0  0  0  0
    0.2964    6.2236   -1.5375 H   0  0  0  0  0  0  0  0  0  0  0  0
    1.6498    4.2387   -0.8515 H   0  0  0  0  0  0  0  0  0  0  0  0
    3.6468    4.4976    0.5525 H   0  0  0  0  0  0  0  0  0  0  0  0
    5.3445    3.0643    3.1973 H   0  0  0  0  0  0  0  0  0  0  0  0
    4.4401    0.7345    3.3316 H   0  0  0  0  0  0  0  0  0  0  0  0
  1  2  1  0
  1 24  1  0
  1 25  1  0
  1 26  1  0
  2  3  1  0
  2 27  1  0
  2 28  1  0
  3  4  1  0
  4  5  2  0
  4 23  1  0
  5  6  1  0
  5 29  1  0
  6  7  1  0
  6 21  2  0
  7  8  1  0
  7 30  1  0
  7 31  1  0
  8  9  1  0
  8 32  1  0
  9 10  2  0
  9 11  1  0
 11 12  2  0
 11 20  1  0
 12 13  1  0
 12 33  1  0
 13 14  2  0
 14 15  1  0
 14 34  1  0
 15 16  1  0
 15 20  2  0
 16 17  2  0
 16 35  1  0
 17 18  1  0
 17 36  1  0
 18 19  2  0
 18 37  1  0
 19 20  1  0
 19 38  1  0
 21 22  1  0
 21 39  1  0
 22 23  2  0
 22 40  1  0
M  END

