
     RDKit          3D

 42 44  0  0  0  0  0  0  0  0999 V2000
    4.6971    0.9180   -1.4607 C   0  0  0  0  0  0  0  0  0  0  0  0
    4.0364    0.6076   -0.1533 C   0  0  0  0  0  0  0  0  0  0  0  0
    3.1883    1.3563    0.6664 C   0  0  0  0  0  0  0  0  0  0  0  0
    2.6467    2.7474    0.4521 C   0  0  2  0  0  0  0  0  0  0  0  0
    2.0887    3.0352    1.3606 H   0  0  0  0  0  0  0  0  0  0  0  0
    1.6598    2.8364   -0.7258 C   0  0  0  0  0  0  0  0  0  0  0  0
    3.7564    3.6948    0.3014 N   0  0  0  0  0  0  0  0  0  0  0  0
    3.6056    5.0423    0.4080 C   0  0  0  0  0  0  0  0  0  0  0  0
    2.5308    5.6089    0.5561 O   0  0  0  0  0  0  0  0  0  0  0  0
    4.8861    5.8102    0.3129 C   0  0  0  0  0  0  0  0  0  0  0  0
    5.0264    7.2218    0.3310 C   0  0  0  0  0  0  0  0  0  0  0  0
    6.3839    7.4306    0.2158 C   0  0  0  0  0  0  0  0  0  0  0  0
    6.9706    6.1915    0.1348 N   0  0  0  0  0  0  0  0  0  0  0  0
    8.3615    5.9131    0.0466 C   0  0  0  0  0  0  0  0  0  0  0  0
    9.2233    6.4400    1.0182 C   0  0  0  0  0  0  0  0  0  0  0  0
   10.5971    6.2052    0.9588 C   0  0  0  0  0  0  0  0  0  0  0  0
   11.1212    5.4211   -0.0721 C   0  0  0  0  0  0  0  0  0  0  0  0
   10.2748    4.8881   -1.0460 C   0  0  0  0  0  0  0  0  0  0  0  0
    8.8993    5.1371   -0.9987 C   0  0  0  0  0  0  0  0  0  0  0  0
    7.8917    4.5101   -2.2731 Cl  0  0  0  0  0  0  0  0  0  0  0  0
    6.0650    5.2030    0.1980 N   0  0  0  0  0  0  0  0  0  0  0  0
    2.9128    0.4938    1.7570 C   0  0  0  0  0  0  0  0  0  0  0  0
    3.5241   -0.6778    1.6335 N   0  0  0  0  0  0  0  0  0  0  0  0
    4.2014   -0.5961    0.4754 N   0  0  0  0  0  0  0  0  0  0  0  0
    5.0039   -1.7158    0.0315 C   0  0  0  0  0  0  0  0  0  0  0  0
    4.5493    1.9720   -1.7283 H   0  0  0  0  0  0  0  0  0  0  0  0
    4.2916    0.3030   -2.2831 H   0  0  0  0  0  0  0  0  0  0  0  0
    5.7847    0.7373   -1.4237 H   0  0  0  0  0  0  0  0  0  0  0  0
    1.2774    3.8629   -0.8147 H   0  0  0  0  0  0  0  0  0  0  0  0
    0.8115    2.1556   -0.5556 H   0  0  0  0  0  0  0  0  0  0  0  0
    2.1429    2.5528   -1.6739 H   0  0  0  0  0  0  0  0  0  0  0  0
    4.7078    3.3417    0.3022 H   0  0  0  0  0  0  0  0  0  0  0  0
    4.2292    7.9554    0.4088 H   0  0  0  0  0  0  0  0  0  0  0  0
    6.9794    8.3390    0.1625 H   0  0  0  0  0  0  0  0  0  0  0  0
    8.7934    7.0259    1.8333 H   0  0  0  0  0  0  0  0  0  0  0  0
   11.2533    6.6226    1.7255 H   0  0  0  0  0  0  0  0  0  0  0  0
   12.1941    5.2222   -0.1242 H   0  0  0  0  0  0  0  0  0  0  0  0
   10.6713    4.2841   -1.8637 H   0  0  0  0  0  0  0  0  0  0  0  0
    2.2855    0.6954    2.6262 H   0  0  0  0  0  0  0  0  0  0  0  0
    4.8689   -2.5210    0.7631 H   0  0  0  0  0  0  0  0  0  0  0  0
    6.0725   -1.4498   -0.0195 H   0  0  0  0  0  0  0  0  0  0  0  0
    4.6817   -2.0699   -0.9609 H   0  0  0  0  0  0  0  0  0  0  0  0
  1  2  1  0
  1 26  1  0
  1 27  1  0
  1 28  1  0
  2  3  2  0
  2 24  1  0
  3  4  1  0
  3 22  1  0
  4  5  1  1
  4  6  1  0
  4  7  1  0
  6 29  1  0
  6 30  1  0
  6 31  1  0
  7  8  1  0
  7 32  1  0
  8  9  2  0
  8 10  1  0
 10 11  1  0
 10 21  2  0
 11 12  2  0
 11 33  1  0
 12 13  1  0
 12 34  1  0
 13 14  1  0
 13 21  1  0
 14 15  2  0
 14 19  1  0
 15 16  1  0
 15 35  1  0
 16 17  2  0
 16 36  1  0
 17 18  1  0
 17 37  1  0
 18 19  2  0
 18 38  1  0
 19 20  1  0
 22 23  2  0
 22 39  1  0
 23 24  1  0
 24 25  1  0
 25 40  1  0
 25 41  1  0
 25 42  1  0
M  END

