
     RDKit          3D

 40 40  0  0  0  0  0  0  0  0999 V2000
    2.7243   -0.6527   -1.5187 C   0  0  0  0  0  0  0  0  0  0  0  0
    2.5753   -0.0540   -0.1103 C   0  0  0  0  0  0  0  0  0  0  0  0
    2.8768   -1.0484    0.9952 C   0  0  0  0  0  0  0  0  0  0  0  0
    1.9427   -1.7862    1.6253 C   0  0  0  0  0  0  0  0  0  0  0  0
    0.4541   -1.7752    1.4176 C   0  0  0  0  0  0  0  0  0  0  0  0
   -0.3258   -1.4042    2.7031 C   0  0  0  0  0  0  0  0  0  0  0  0
   -1.8252   -1.4500    2.5198 C   0  0  0  0  0  0  0  0  0  0  0  0
   -2.5369   -2.6498    2.6938 C   0  0  0  0  0  0  0  0  0  0  0  0
   -3.9134   -2.7048    2.4868 C   0  0  0  0  0  0  0  0  0  0  0  0
   -4.6175   -1.5546    2.0982 C   0  0  0  0  0  0  0  0  0  0  0  0
   -6.0909   -1.6675    1.8930 C   0  0  0  0  0  0  0  0  0  0  0  0
   -6.7278   -2.6864    2.0349 O   0  0  0  0  0  0  0  0  0  0  0  0
   -6.6539   -0.4981    1.5257 O   0  0  0  0  0  0  0  0  0  0  0  0
   -8.0628   -0.5195    1.3091 C   0  0  0  0  0  0  0  0  0  0  0  0
   -3.9187   -0.3502    1.9226 C   0  0  0  0  0  0  0  0  0  0  0  0
   -2.5404   -0.3047    2.1317 C   0  0  0  0  0  0  0  0  0  0  0  0
    4.3435   -1.2044    1.3684 C   0  0  0  0  0  0  0  0  0  0  0  0
    4.7759   -0.1048    2.3358 C   0  0  0  0  0  0  0  0  0  0  0  0
    6.9105   -0.2063    2.8455 I   0  0  0  0  0  0  0  0  0  0  0  0
    2.5472    0.1107   -2.2932 H   0  0  0  0  0  0  0  0  0  0  0  0
    2.0057   -1.4722   -1.6774 H   0  0  0  0  0  0  0  0  0  0  0  0
    3.7343   -1.0627   -1.6808 H   0  0  0  0  0  0  0  0  0  0  0  0
    1.5591    0.3546    0.0031 H   0  0  0  0  0  0  0  0  0  0  0  0
    3.2575    0.8090   -0.0166 H   0  0  0  0  0  0  0  0  0  0  0  0
    2.2917   -2.4892    2.3944 H   0  0  0  0  0  0  0  0  0  0  0  0
    0.1259   -2.7807    1.0952 H   0  0  0  0  0  0  0  0  0  0  0  0
    0.1644   -1.0888    0.6075 H   0  0  0  0  0  0  0  0  0  0  0  0
   -0.0190   -0.3955    3.0252 H   0  0  0  0  0  0  0  0  0  0  0  0
   -0.0308   -2.0950    3.5112 H   0  0  0  0  0  0  0  0  0  0  0  0
   -2.0019   -3.5526    3.0029 H   0  0  0  0  0  0  0  0  0  0  0  0
   -4.4691   -3.6343    2.6253 H   0  0  0  0  0  0  0  0  0  0  0  0
   -8.3448    0.5014    1.0227 H   0  0  0  0  0  0  0  0  0  0  0  0
   -8.5962   -0.8202    2.2239 H   0  0  0  0  0  0  0  0  0  0  0  0
   -8.3263   -1.2271    0.5081 H   0  0  0  0  0  0  0  0  0  0  0  0
   -4.4630    0.5471    1.6257 H   0  0  0  0  0  0  0  0  0  0  0  0
   -2.0072    0.6410    1.9975 H   0  0  0  0  0  0  0  0  0  0  0  0
    4.9719   -1.1629    0.4630 H   0  0  0  0  0  0  0  0  0  0  0  0
    4.5185   -2.1867    1.8329 H   0  0  0  0  0  0  0  0  0  0  0  0
    4.2548   -0.1757    3.2983 H   0  0  0  0  0  0  0  0  0  0  0  0
    4.6415    0.9041    1.9261 H   0  0  0  0  0  0  0  0  0  0  0  0
  1  2  1  0
  1 20  1  0
  1 21  1  0
  1 22  1  0
  2  3  1  0
  2 23  1  0
  2 24  1  0
  3  4  2  0
  3 17  1  0
  4  5  1  0
  4 25  1  0
  5  6  1  0
  5 26  1  0
  5 27  1  0
  6  7  1  0
  6 28  1  0
  6 29  1  0
  7  8  2  0
  7 16  1  0
  8  9  1  0
  8 30  1  0
  9 10  2  0
  9 31  1  0
 10 11  1  0
 10 15  1  0
 11 12  2  0
 11 13  1  0
 13 14  1  0
 14 32  1  0
 14 33  1  0
 14 34  1  0
 15 16  2  0
 15 35  1  0
 16 36  1  0
 17 18  1  0
 17 37  1  0
 17 38  1  0
 18 19  1  0
 18 39  1  0
 18 40  1  0
M  END

