
     RDKit          3D

 25 25  0  0  0  0  0  0  0  0999 V2000
    4.1030    2.0575    1.8600 C   0  0  0  0  0  0  0  0  0  0  0  0
    3.9133    0.9167    1.0242 O   0  0  0  0  0  0  0  0  0  0  0  0
    4.9800    0.1081    0.8680 C   0  0  0  0  0  0  0  0  0  0  0  0
    6.0502    0.3214    1.3933 O   0  0  0  0  0  0  0  0  0  0  0  0
    4.6505   -1.0424   -0.0192 C   0  0  2  0  0  0  0  0  0  0  0  0
    3.5812   -1.1560   -0.2040 H   0  0  0  0  0  0  0  0  0  0  0  0
    5.4888   -2.3026    0.0812 C   0  0  1  0  0  0  0  0  0  0  0  0
    6.3597   -2.1789    0.7376 H   0  0  0  0  0  0  0  0  0  0  0  0
    4.8900   -3.6637    0.1129 C   0  0  0  0  0  0  0  0  0  0  0  0
    3.7203   -3.9930    0.6558 C   0  0  0  0  0  0  0  0  0  0  0  0
    2.8774   -3.1593    1.2394 F   0  0  0  0  0  0  0  0  0  0  0  0
    3.2280   -5.2184    0.6774 F   0  0  0  0  0  0  0  0  0  0  0  0
    5.5704   -1.4623   -1.1750 C   0  0  1  0  0  0  0  0  0  0  0  0
    4.8674   -1.9458   -2.4317 C   0  0  0  0  0  0  0  0  0  0  0  0
    6.8530   -0.6967   -1.4471 C   0  0  0  0  0  0  0  0  0  0  0  0
    3.1434    2.5891    1.8747 H   0  0  0  0  0  0  0  0  0  0  0  0
    4.8947    2.7100    1.4611 H   0  0  0  0  0  0  0  0  0  0  0  0
    4.3866    1.7542    2.8794 H   0  0  0  0  0  0  0  0  0  0  0  0
    5.4590   -4.4948   -0.3126 H   0  0  0  0  0  0  0  0  0  0  0  0
    3.9534   -2.5138   -2.2059 H   0  0  0  0  0  0  0  0  0  0  0  0
    5.5331   -2.6006   -3.0192 H   0  0  0  0  0  0  0  0  0  0  0  0
    4.5903   -1.0926   -3.0727 H   0  0  0  0  0  0  0  0  0  0  0  0
    7.3195   -0.3333   -0.5224 H   0  0  0  0  0  0  0  0  0  0  0  0
    6.6571    0.1736   -2.0960 H   0  0  0  0  0  0  0  0  0  0  0  0
    7.5735   -1.3460   -1.9724 H   0  0  0  0  0  0  0  0  0  0  0  0
  1  2  1  0
  1 16  1  0
  1 17  1  0
  1 18  1  0
  2  3  1  0
  3  4  2  0
  3  5  1  0
  5  6  1  6
  5  7  1  0
  5 13  1  0
  7  8  1  1
  7  9  1  0
  7 13  1  0
  9 10  2  0
  9 19  1  0
 10 11  1  0
 10 12  1  0
 13 14  1  6
 13 15  1  0
 14 20  1  0
 14 21  1  0
 14 22  1  0
 15 23  1  0
 15 24  1  0
 15 25  1  0
M  END

