
     RDKit          3D

 44 43  0  0  0  0  0  0  0  0999 V2000
    1.6301    0.8207    0.3454 C   0  0  0  0  0  0  0  0  0  0  0  0
    3.1173    0.6752    0.6708 C   0  0  0  0  0  0  0  0  0  0  0  0
    3.4765   -0.6726    1.3044 C   0  0  0  0  0  0  0  0  0  0  0  0
    4.9646   -0.8246    1.6331 C   0  0  0  0  0  0  0  0  0  0  0  0
    5.3162   -2.1766    2.2664 C   0  0  0  0  0  0  0  0  0  0  0  0
    6.8051   -2.3082    2.5870 C   0  0  0  0  0  0  0  0  0  0  0  0
    7.1327   -3.9732    3.3214 S   0  0  0  0  0  0  0  0  0  0  0  0
    9.2047   -4.0312    3.4891 S   0  0  0  0  0  0  0  0  0  0  0  0
    9.5931   -3.5580    5.2808 C   0  0  1  0  0  0  0  0  0  0  0  0
    9.0384   -2.1667    5.5931 C   0  0  0  0  0  0  0  0  0  0  0  0
    8.9918   -4.6122    6.2149 C   0  0  0  0  0  0  0  0  0  0  0  0
   11.1391   -3.5832    5.2752 C   0  0  0  0  0  0  0  0  0  0  0  0
   11.8062   -3.3402    6.6344 C   0  0  0  0  0  0  0  0  0  0  0  0
   13.3166   -3.1451    6.4878 C   0  0  0  0  0  0  0  0  0  0  0  0
   13.8015   -2.5234    5.5570 O   0  0  0  0  0  0  0  0  0  0  0  0
   14.0686   -3.6938    7.4895 N   0  0  0  0  0  0  0  0  0  0  0  0
   15.5095   -3.5678    7.5499 C   0  0  0  0  0  0  0  0  0  0  0  0
    1.4085    1.8001   -0.1080 H   0  0  0  0  0  0  0  0  0  0  0  0
    1.0098    0.7263    1.2527 H   0  0  0  0  0  0  0  0  0  0  0  0
    1.2965    0.0435   -0.3625 H   0  0  0  0  0  0  0  0  0  0  0  0
    3.4279    1.4896    1.3506 H   0  0  0  0  0  0  0  0  0  0  0  0
    3.7120    0.8124   -0.2507 H   0  0  0  0  0  0  0  0  0  0  0  0
    3.1677   -1.4888    0.6249 H   0  0  0  0  0  0  0  0  0  0  0  0
    2.8828   -0.8114    2.2273 H   0  0  0  0  0  0  0  0  0  0  0  0
    5.2740   -0.0102    2.3138 H   0  0  0  0  0  0  0  0  0  0  0  0
    5.5590   -0.6884    0.7110 H   0  0  0  0  0  0  0  0  0  0  0  0
    5.0148   -2.9927    1.5858 H   0  0  0  0  0  0  0  0  0  0  0  0
    4.7269   -2.3139    3.1908 H   0  0  0  0  0  0  0  0  0  0  0  0
    7.1275   -1.5312    3.2962 H   0  0  0  0  0  0  0  0  0  0  0  0
    7.4171   -2.2160    1.6770 H   0  0  0  0  0  0  0  0  0  0  0  0
    7.9435   -2.1551    5.4817 H   0  0  0  0  0  0  0  0  0  0  0  0
    9.4697   -1.4038    4.9273 H   0  0  0  0  0  0  0  0  0  0  0  0
    9.2603   -1.8815    6.6354 H   0  0  0  0  0  0  0  0  0  0  0  0
    7.9011   -4.6723    6.0787 H   0  0  0  0  0  0  0  0  0  0  0  0
    9.1794   -4.3529    7.2710 H   0  0  0  0  0  0  0  0  0  0  0  0
    9.4171   -5.6088    6.0199 H   0  0  0  0  0  0  0  0  0  0  0  0
   11.5195   -2.8214    4.5772 H   0  0  0  0  0  0  0  0  0  0  0  0
   11.4791   -4.5589    4.8856 H   0  0  0  0  0  0  0  0  0  0  0  0
   11.5862   -4.1549    7.3431 H   0  0  0  0  0  0  0  0  0  0  0  0
   11.4179   -2.4115    7.0883 H   0  0  0  0  0  0  0  0  0  0  0  0
   13.5934   -4.2023    8.2244 H   0  0  0  0  0  0  0  0  0  0  0  0
   15.8280   -2.9926    6.6706 H   0  0  0  0  0  0  0  0  0  0  0  0
   16.0049   -4.5534    7.5272 H   0  0  0  0  0  0  0  0  0  0  0  0
   15.8349   -3.0349    8.4599 H   0  0  0  0  0  0  0  0  0  0  0  0
  1  2  1  0
  1 18  1  0
  1 19  1  0
  1 20  1  0
  2  3  1  0
  2 21  1  0
  2 22  1  0
  3  4  1  0
  3 23  1  0
  3 24  1  0
  4  5  1  0
  4 25  1  0
  4 26  1  0
  5  6  1  0
  5 27  1  0
  5 28  1  0
  6  7  1  0
  6 29  1  0
  6 30  1  0
  7  8  1  0
  9  8  1  6
  9 10  1  0
  9 11  1  0
  9 12  1  0
 10 31  1  0
 10 32  1  0
 10 33  1  0
 11 34  1  0
 11 35  1  0
 11 36  1  0
 12 13  1  0
 12 37  1  0
 12 38  1  0
 13 14  1  0
 13 39  1  0
 13 40  1  0
 14 15  2  0
 14 16  1  0
 16 17  1  0
 16 41  1  0
 17 42  1  0
 17 43  1  0
 17 44  1  0
M  END

