
     RDKit          3D

 59 64  0  0  0  0  0  0  0  0999 V2000
    3.1701   -3.6445   -0.8718 C   0  0  0  0  0  0  0  0  0  0  0  0
    2.3909   -2.3431   -0.8244 C   0  0  0  0  0  0  0  0  0  0  0  0
    1.1751   -2.3130   -0.9296 O   0  0  0  0  0  0  0  0  0  0  0  0
    3.1223   -1.1753   -0.6642 N   0  0  0  0  0  0  0  0  0  0  0  0
    2.3981    0.1116   -0.7220 C   0  0  0  0  0  0  0  0  0  0  0  0
    1.9143    0.6249    0.6220 C   0  0  0  0  0  0  0  0  0  0  0  0
    0.7720    0.0845    1.2382 C   0  0  0  0  0  0  0  0  0  0  0  0
    0.3761    0.5932    2.4754 C   0  0  0  0  0  0  0  0  0  0  0  0
    1.1273    1.6191    3.0549 C   0  0  0  0  0  0  0  0  0  0  0  0
    2.2447    2.0918    2.3608 C   0  0  0  0  0  0  0  0  0  0  0  0
    2.6306    1.6114    1.1762 N   0  0  0  0  0  0  0  0  0  0  0  0
    4.5441   -1.1497   -0.5124 C   0  0  0  0  0  0  0  0  0  0  0  0
    5.1309   -1.3496    0.7573 C   0  0  0  0  0  0  0  0  0  0  0  0
    4.3122   -1.6091    1.9041 C   0  0  0  0  0  0  0  0  0  0  0  0
    4.8663   -1.8262    3.1388 C   0  0  0  0  0  0  0  0  0  0  0  0
    6.2777   -1.7909    3.2926 C   0  0  0  0  0  0  0  0  0  0  0  0
    7.1018   -1.5361    2.2229 C   0  0  0  0  0  0  0  0  0  0  0  0
    6.5743   -1.3011    0.9097 C   0  0  0  0  0  0  0  0  0  0  0  0
    7.3857   -1.0222   -0.2329 C   0  0  0  0  0  0  0  0  0  0  0  0
    6.7776   -0.8160   -1.4919 C   0  0  0  0  0  0  0  0  0  0  0  0
    7.5611   -0.5375   -2.6575 C   0  0  0  0  0  0  0  0  0  0  0  0
    6.9681   -0.3577   -3.8912 C   0  0  0  0  0  0  0  0  0  0  0  0
    5.5641   -0.4513   -4.0393 C   0  0  0  0  0  0  0  0  0  0  0  0
    4.7753   -0.7117   -2.9438 C   0  0  0  0  0  0  0  0  0  0  0  0
    5.3463   -0.8914   -1.6452 C   0  0  0  0  0  0  0  0  0  0  0  0
    9.0374   -0.4327   -2.5765 C   0  0  0  0  0  0  0  0  0  0  0  0
    9.7361   -0.1845   -3.5428 O   0  0  0  0  0  0  0  0  0  0  0  0
    9.5870   -0.6182   -1.3082 N   0  0  0  0  0  0  0  0  0  0  0  0
   11.0408   -0.6162   -1.2030 C   0  0  0  0  0  0  0  0  0  0  0  0
   11.6434   -2.0133   -1.2424 C   0  0  0  0  0  0  0  0  0  0  0  0
   12.9778   -2.2094   -0.8516 C   0  0  0  0  0  0  0  0  0  0  0  0
   13.5212   -3.4896   -0.9351 C   0  0  0  0  0  0  0  0  0  0  0  0
   12.7167   -4.5344   -1.3993 C   0  0  0  0  0  0  0  0  0  0  0  0
   11.4004   -4.2380   -1.7578 C   0  0  0  0  0  0  0  0  0  0  0  0
   10.8769   -3.0112   -1.6842 N   0  0  0  0  0  0  0  0  0  0  0  0
    8.8758   -0.9439   -0.1416 C   0  0  0  0  0  0  0  0  0  0  0  0
    9.5156   -1.1320    0.8809 O   0  0  0  0  0  0  0  0  0  0  0  0
    2.4660   -4.4476   -1.1205 H   0  0  0  0  0  0  0  0  0  0  0  0
    3.6339   -3.8599    0.1029 H   0  0  0  0  0  0  0  0  0  0  0  0
    3.9773   -3.6114   -1.6184 H   0  0  0  0  0  0  0  0  0  0  0  0
    1.5432   -0.0371   -1.3966 H   0  0  0  0  0  0  0  0  0  0  0  0
    3.0754    0.8669   -1.1402 H   0  0  0  0  0  0  0  0  0  0  0  0
    0.2250   -0.7199    0.7426 H   0  0  0  0  0  0  0  0  0  0  0  0
   -0.5098    0.1971    2.9791 H   0  0  0  0  0  0  0  0  0  0  0  0
    0.8536    2.0493    4.0211 H   0  0  0  0  0  0  0  0  0  0  0  0
    2.8560    2.8989    2.7820 H   0  0  0  0  0  0  0  0  0  0  0  0
    3.2302   -1.6227    1.7799 H   0  0  0  0  0  0  0  0  0  0  0  0
    4.2251   -2.0209    4.0019 H   0  0  0  0  0  0  0  0  0  0  0  0
    6.7182   -1.9662    4.2775 H   0  0  0  0  0  0  0  0  0  0  0  0
    8.1789   -1.5091    2.3523 H   0  0  0  0  0  0  0  0  0  0  0  0
    7.6164   -0.1482   -4.7441 H   0  0  0  0  0  0  0  0  0  0  0  0
    5.1112   -0.3182   -5.0242 H   0  0  0  0  0  0  0  0  0  0  0  0
    3.6934   -0.7903   -3.0553 H   0  0  0  0  0  0  0  0  0  0  0  0
   11.3288   -0.1166   -0.2694 H   0  0  0  0  0  0  0  0  0  0  0  0
   11.4172   -0.0384   -2.0583 H   0  0  0  0  0  0  0  0  0  0  0  0
   13.5743   -1.3694   -0.4862 H   0  0  0  0  0  0  0  0  0  0  0  0
   14.5571   -3.6725   -0.6371 H   0  0  0  0  0  0  0  0  0  0  0  0
   13.0977   -5.5549   -1.4790 H   0  0  0  0  0  0  0  0  0  0  0  0
   10.7352   -5.0297   -2.1228 H   0  0  0  0  0  0  0  0  0  0  0  0
  1  2  1  0
  1 38  1  0
  1 39  1  0
  1 40  1  0
  2  3  2  0
  2  4  1  0
  4  5  1  0
  4 12  1  0
  5  6  1  0
  5 41  1  0
  5 42  1  0
  6  7  2  0
  6 11  1  0
  7  8  1  0
  7 43  1  0
  8  9  2  0
  8 44  1  0
  9 10  1  0
  9 45  1  0
 10 11  2  0
 10 46  1  0
 12 13  1  0
 12 25  2  0
 13 14  2  0
 13 18  1  0
 14 15  1  0
 14 47  1  0
 15 16  2  0
 15 48  1  0
 16 17  1  0
 16 49  1  0
 17 18  2  0
 17 50  1  0
 18 19  1  0
 19 20  2  0
 19 36  1  0
 20 21  1  0
 20 25  1  0
 21 22  2  0
 21 26  1  0
 22 23  1  0
 22 51  1  0
 23 24  2  0
 23 52  1  0
 24 25  1  0
 24 53  1  0
 26 27  2  0
 26 28  1  0
 28 29  1  0
 28 36  1  0
 29 30  1  0
 29 54  1  0
 29 55  1  0
 30 31  2  0
 30 35  1  0
 31 32  1  0
 31 56  1  0
 32 33  2  0
 32 57  1  0
 33 34  1  0
 33 58  1  0
 34 35  2  0
 34 59  1  0
 36 37  2  0
M  END

