
     RDKit          3D

 46 46  0  0  0  0  0  0  0  0999 V2000
    1.0665   -2.5641    1.3846 C   0  0  0  0  0  0  0  0  0  0  0  0
    2.5179   -2.3857    0.9270 C   0  0  0  0  0  0  0  0  0  0  0  0
    2.9314   -1.1409    0.0949 C   0  0  1  0  0  0  0  0  0  0  0  0
    4.4829   -1.0723    0.1071 C   0  0  0  0  0  0  0  0  0  0  0  0
    5.1643    0.0306   -0.7056 C   0  0  0  0  0  0  0  0  0  0  0  0
    2.4582   -1.1880   -1.3792 C   0  0  0  0  0  0  0  0  0  0  0  0
    1.0226   -1.3090   -1.6059 N   0  0  0  0  0  0  0  0  0  0  0  0
    0.3241   -2.6996   -2.2105 S   0  0  1  0  0  0  0  0  0  0  0  0
    1.3224   -3.7752   -2.1956 O   0  0  0  0  0  0  0  0  0  0  0  0
   -0.9783   -2.8377   -1.5467 O   0  0  0  0  0  0  0  0  0  0  0  0
   -0.0036   -2.2895   -3.9635 C   0  0  0  0  0  0  0  0  0  0  0  0
   -0.6109   -3.4521   -4.6974 C   0  0  0  0  0  0  0  0  0  0  0  0
    0.1876   -4.2963   -5.4827 C   0  0  0  0  0  0  0  0  0  0  0  0
   -0.3841   -5.3853   -6.1438 C   0  0  0  0  0  0  0  0  0  0  0  0
   -1.7493   -5.6502   -6.0151 C   0  0  0  0  0  0  0  0  0  0  0  0
   -2.5602   -4.8254   -5.2211 C   0  0  0  0  0  0  0  0  0  0  0  0
   -4.0344   -5.1403   -5.0436 C   0  0  0  0  0  0  0  0  0  0  0  0
   -4.6119   -5.8148   -6.1397 O   0  0  0  0  0  0  0  0  0  0  0  0
   -1.9806   -3.7292   -4.5717 C   0  0  0  0  0  0  0  0  0  0  0  0
    2.1960    0.4494    0.7587 S   0  0  0  0  0  0  0  0  0  0  0  0
    2.6541    0.4331    2.5202 C   0  0  0  0  0  0  0  0  0  0  0  0
    1.0107   -3.4103    2.0883 H   0  0  0  0  0  0  0  0  0  0  0  0
    0.3747   -2.7886    0.5642 H   0  0  0  0  0  0  0  0  0  0  0  0
    0.6855   -1.6716    1.9038 H   0  0  0  0  0  0  0  0  0  0  0  0
    2.8187   -3.2710    0.3396 H   0  0  0  0  0  0  0  0  0  0  0  0
    3.1632   -2.3960    1.8221 H   0  0  0  0  0  0  0  0  0  0  0  0
    4.8506   -2.0588   -0.2310 H   0  0  0  0  0  0  0  0  0  0  0  0
    4.8042   -0.9916    1.1587 H   0  0  0  0  0  0  0  0  0  0  0  0
    5.0488   -0.1102   -1.7917 H   0  0  0  0  0  0  0  0  0  0  0  0
    6.2458    0.0391   -0.4970 H   0  0  0  0  0  0  0  0  0  0  0  0
    4.7601    1.0213   -0.4469 H   0  0  0  0  0  0  0  0  0  0  0  0
    2.9396   -2.0532   -1.8602 H   0  0  0  0  0  0  0  0  0  0  0  0
    2.8183   -0.2823   -1.8933 H   0  0  0  0  0  0  0  0  0  0  0  0
    0.3995   -0.8024   -0.9795 H   0  0  0  0  0  0  0  0  0  0  0  0
    0.9682   -1.9906   -4.3801 H   0  0  0  0  0  0  0  0  0  0  0  0
   -0.6659   -1.4132   -3.9243 H   0  0  0  0  0  0  0  0  0  0  0  0
    1.2585   -4.0988   -5.5756 H   0  0  0  0  0  0  0  0  0  0  0  0
    0.2415   -6.0358   -6.7604 H   0  0  0  0  0  0  0  0  0  0  0  0
   -2.2044   -6.4992   -6.5300 H   0  0  0  0  0  0  0  0  0  0  0  0
   -4.5816   -4.2093   -4.7927 H   0  0  0  0  0  0  0  0  0  0  0  0
   -4.1612   -5.8144   -4.1785 H   0  0  0  0  0  0  0  0  0  0  0  0
   -4.5131   -5.2531   -6.9206 H   0  0  0  0  0  0  0  0  0  0  0  0
   -2.6004   -3.0825   -3.9441 H   0  0  0  0  0  0  0  0  0  0  0  0
    2.2700    1.3758    2.9363 H   0  0  0  0  0  0  0  0  0  0  0  0
    3.7449    0.4130    2.6590 H   0  0  0  0  0  0  0  0  0  0  0  0
    2.1935   -0.4045    3.0635 H   0  0  0  0  0  0  0  0  0  0  0  0
  1  2  1  0
  1 22  1  0
  1 23  1  0
  1 24  1  0
  2  3  1  0
  2 25  1  0
  2 26  1  0
  3  4  1  0
  3  6  1  0
  3 20  1  1
  4  5  1  0
  4 27  1  0
  4 28  1  0
  5 29  1  0
  5 30  1  0
  5 31  1  0
  6  7  1  0
  6 32  1  0
  6 33  1  0
  8  7  1  1
  7 34  1  0
  8  9  2  0
  8 10  2  0
  8 11  1  0
 11 12  1  0
 11 35  1  0
 11 36  1  0
 12 13  2  0
 12 19  1  0
 13 14  1  0
 13 37  1  0
 14 15  2  0
 14 38  1  0
 15 16  1  0
 15 39  1  0
 16 17  1  0
 16 19  2  0
 17 18  1  0
 17 40  1  0
 17 41  1  0
 18 42  1  0
 19 43  1  0
 20 21  1  0
 21 44  1  0
 21 45  1  0
 21 46  1  0
M  END

