
     RDKit          3D

106111  0  0  0  0  0  0  0  0999 V2000
    0.1944    0.7378    0.3225 C   0  0  0  0  0  0  0  0  0  0  0  0
    1.6844    0.5167    0.0576 C   0  0  0  0  0  0  0  0  0  0  0  0
    2.2956   -0.6132    0.8922 C   0  0  0  0  0  0  0  0  0  0  0  0
    3.7875   -0.8412    0.6331 C   0  0  0  0  0  0  0  0  0  0  0  0
    4.3982   -1.9709    1.4679 C   0  0  0  0  0  0  0  0  0  0  0  0
    5.8904   -2.1985    1.2086 C   0  0  0  0  0  0  0  0  0  0  0  0
    6.5010   -3.3279    2.0436 C   0  0  0  0  0  0  0  0  0  0  0  0
    7.9933   -3.5554    1.7848 C   0  0  0  0  0  0  0  0  0  0  0  0
    8.6039   -4.6845    2.6203 C   0  0  0  0  0  0  0  0  0  0  0  0
   10.0964   -4.9116    2.3622 C   0  0  0  0  0  0  0  0  0  0  0  0
   10.7069   -6.0402    3.1984 C   0  0  0  0  0  0  0  0  0  0  0  0
   12.1996   -6.2668    2.9412 C   0  0  0  0  0  0  0  0  0  0  0  0
   12.8098   -7.3947    3.7786 C   0  0  0  0  0  0  0  0  0  0  0  0
   14.3028   -7.6206    3.5225 C   0  0  0  0  0  0  0  0  0  0  0  0
   14.9120   -8.7477    4.3614 C   0  0  0  0  0  0  0  0  0  0  0  0
   16.4055   -8.9721    4.1061 C   0  0  0  0  0  0  0  0  0  0  0  0
   17.0069  -10.0989    4.9497 C   0  0  0  0  0  0  0  0  0  0  0  0
   18.4906  -10.3117    4.6898 C   0  0  0  0  0  0  0  0  0  0  0  0
   18.9391  -11.3678    5.5188 O   0  0  0  0  0  0  0  0  0  0  0  0
   20.2433  -11.7521    5.4760 C   0  0  0  0  0  0  0  0  0  0  0  0
   20.6084  -12.8065    6.3327 C   0  0  0  0  0  0  0  0  0  0  0  0
   21.9219  -13.2627    6.3529 C   0  0  0  0  0  0  0  0  0  0  0  0
   22.9333  -12.7073    5.5379 C   0  0  0  0  0  0  0  0  0  0  0  0
   24.4527  -13.2857    5.6257 B   0  0  1  0  0  0  0  0  0  0  0  0
   24.5075  -14.7784    5.2383 N   0  0  0  0  0  0  0  0  0  0  0  0
   24.6153  -15.1329    3.9486 C   0  0  0  0  0  0  0  0  0  0  0  0
   24.2742  -16.5275    3.5422 C   0  0  0  0  0  0  0  0  0  0  0  0
   23.4197  -17.3357    4.3118 C   0  0  0  0  0  0  0  0  0  0  0  0
   23.1239  -18.6409    3.9124 C   0  0  0  0  0  0  0  0  0  0  0  0
   23.6755  -19.1548    2.7353 C   0  0  0  0  0  0  0  0  0  0  0  0
   24.5156  -18.3526    1.9546 C   0  0  0  0  0  0  0  0  0  0  0  0
   24.8084  -17.0481    2.3508 C   0  0  0  0  0  0  0  0  0  0  0  0
   25.0308  -14.3093    3.0063 N   0  0  0  0  0  0  0  0  0  0  0  0
   25.5304  -13.0870    3.3361 C   0  0  0  0  0  0  0  0  0  0  0  0
   26.2084  -12.3315    2.3613 C   0  0  0  0  0  0  0  0  0  0  0  0
   26.8022  -11.1232    2.7164 C   0  0  0  0  0  0  0  0  0  0  0  0
   26.7572  -10.6747    4.0336 C   0  0  0  0  0  0  0  0  0  0  0  0
   26.0774  -11.4332    5.0049 C   0  0  0  0  0  0  0  0  0  0  0  0
   25.4253  -12.5796    4.6112 N   0  0  0  0  0  0  0  0  0  0  0  0
   26.1095  -11.0360    6.3062 N   0  0  0  0  0  0  0  0  0  0  0  0
   25.6857  -11.8443    7.2581 C   0  0  0  0  0  0  0  0  0  0  0  0
   25.9268  -11.4287    8.6707 C   0  0  0  0  0  0  0  0  0  0  0  0
   25.1556  -11.9313    9.7330 C   0  0  0  0  0  0  0  0  0  0  0  0
   25.4080  -11.5311   11.0471 C   0  0  0  0  0  0  0  0  0  0  0  0
   26.4329  -10.6197   11.3168 C   0  0  0  0  0  0  0  0  0  0  0  0
   27.1964  -10.1024   10.2641 C   0  0  0  0  0  0  0  0  0  0  0  0
   26.9423  -10.4984    8.9514 C   0  0  0  0  0  0  0  0  0  0  0  0
   25.0739  -13.0127    7.0117 N   0  0  0  0  0  0  0  0  0  0  0  0
   22.5370  -11.6593    4.6957 C   0  0  0  0  0  0  0  0  0  0  0  0
   21.2199  -11.1778    4.6523 C   0  0  0  0  0  0  0  0  0  0  0  0
   -0.2107    1.5562   -0.2940 H   0  0  0  0  0  0  0  0  0  0  0  0
    0.0087    0.9943    1.3792 H   0  0  0  0  0  0  0  0  0  0  0  0
   -0.3917   -0.1692    0.0976 H   0  0  0  0  0  0  0  0  0  0  0  0
    2.2372    1.4533    0.2556 H   0  0  0  0  0  0  0  0  0  0  0  0
    1.8401    0.2999   -1.0151 H   0  0  0  0  0  0  0  0  0  0  0  0
    1.7431   -1.5511    0.6947 H   0  0  0  0  0  0  0  0  0  0  0  0
    2.1403   -0.3971    1.9661 H   0  0  0  0  0  0  0  0  0  0  0  0
    4.3393    0.0969    0.8306 H   0  0  0  0  0  0  0  0  0  0  0  0
    3.9422   -1.0570   -0.4406 H   0  0  0  0  0  0  0  0  0  0  0  0
    3.8467   -2.9091    1.2705 H   0  0  0  0  0  0  0  0  0  0  0  0
    4.2436   -1.7552    2.5417 H   0  0  0  0  0  0  0  0  0  0  0  0
    6.4419   -1.2602    1.4059 H   0  0  0  0  0  0  0  0  0  0  0  0
    6.0451   -2.4143    0.1349 H   0  0  0  0  0  0  0  0  0  0  0  0
    5.9496   -4.2663    1.8463 H   0  0  0  0  0  0  0  0  0  0  0  0
    6.3460   -3.1121    3.1173 H   0  0  0  0  0  0  0  0  0  0  0  0
    8.5446   -2.6169    1.9820 H   0  0  0  0  0  0  0  0  0  0  0  0
    8.1484   -3.7714    0.7112 H   0  0  0  0  0  0  0  0  0  0  0  0
    8.0529   -5.6230    2.4230 H   0  0  0  0  0  0  0  0  0  0  0  0
    8.4485   -4.4684    3.6939 H   0  0  0  0  0  0  0  0  0  0  0  0
   10.6474   -3.9729    2.5592 H   0  0  0  0  0  0  0  0  0  0  0  0
   10.2519   -5.1281    1.2887 H   0  0  0  0  0  0  0  0  0  0  0  0
   10.1563   -6.9790    3.0011 H   0  0  0  0  0  0  0  0  0  0  0  0
   10.5508   -5.8238    4.2719 H   0  0  0  0  0  0  0  0  0  0  0  0
   12.7501   -5.3279    3.1382 H   0  0  0  0  0  0  0  0  0  0  0  0
   12.3559   -6.4838    1.8680 H   0  0  0  0  0  0  0  0  0  0  0  0
   12.2599   -8.3339    3.5813 H   0  0  0  0  0  0  0  0  0  0  0  0
   12.6529   -7.1779    4.8517 H   0  0  0  0  0  0  0  0  0  0  0  0
   14.8527   -6.6814    3.7194 H   0  0  0  0  0  0  0  0  0  0  0  0
   14.4600   -7.8385    2.4496 H   0  0  0  0  0  0  0  0  0  0  0  0
   14.3640   -9.6877    4.1642 H   0  0  0  0  0  0  0  0  0  0  0  0
   14.7552   -8.5306    5.4343 H   0  0  0  0  0  0  0  0  0  0  0  0
   16.9525   -8.0313    4.3031 H   0  0  0  0  0  0  0  0  0  0  0  0
   16.5616   -9.1903    3.0332 H   0  0  0  0  0  0  0  0  0  0  0  0
   16.4776  -11.0471    4.7514 H   0  0  0  0  0  0  0  0  0  0  0  0
   16.8675   -9.8862    6.0238 H   0  0  0  0  0  0  0  0  0  0  0  0
   19.0586   -9.3861    4.9070 H   0  0  0  0  0  0  0  0  0  0  0  0
   18.6660  -10.5594    3.6246 H   0  0  0  0  0  0  0  0  0  0  0  0
   19.8373  -13.2466    6.9694 H   0  0  0  0  0  0  0  0  0  0  0  0
   22.1630  -14.0879    7.0350 H   0  0  0  0  0  0  0  0  0  0  0  0
   24.2491  -15.5106    5.8886 H   0  0  0  0  0  0  0  0  0  0  0  0
   22.9470  -16.9378    5.2134 H   0  0  0  0  0  0  0  0  0  0  0  0
   22.4504  -19.2538    4.5166 H   0  0  0  0  0  0  0  0  0  0  0  0
   23.4448  -20.1764    2.4226 H   0  0  0  0  0  0  0  0  0  0  0  0
   24.9439  -18.7478    1.0299 H   0  0  0  0  0  0  0  0  0  0  0  0
   25.4528  -16.4034    1.7521 H   0  0  0  0  0  0  0  0  0  0  0  0
   26.2577  -12.7394    1.3527 H   0  0  0  0  0  0  0  0  0  0  0  0
   27.3282  -10.5342    1.9602 H   0  0  0  0  0  0  0  0  0  0  0  0
   27.2446   -9.7576    4.3618 H   0  0  0  0  0  0  0  0  0  0  0  0
   24.3241  -12.6132    9.5377 H   0  0  0  0  0  0  0  0  0  0  0  0
   24.7937  -11.9236   11.8613 H   0  0  0  0  0  0  0  0  0  0  0  0
   26.6313  -10.3067   12.3451 H   0  0  0  0  0  0  0  0  0  0  0  0
   27.9944   -9.3843   10.4693 H   0  0  0  0  0  0  0  0  0  0  0  0
   27.5190  -10.0999    8.1159 H   0  0  0  0  0  0  0  0  0  0  0  0
   24.8474  -13.5823    7.8180 H   0  0  0  0  0  0  0  0  0  0  0  0
   23.2715  -11.1859    4.0372 H   0  0  0  0  0  0  0  0  0  0  0  0
   20.9730  -10.3597    3.9748 H   0  0  0  0  0  0  0  0  0  0  0  0
  1  2  1  0
  1 51  1  0
  1 52  1  0
  1 53  1  0
  2  3  1  0
  2 54  1  0
  2 55  1  0
  3  4  1  0
  3 56  1  0
  3 57  1  0
  4  5  1  0
  4 58  1  0
  4 59  1  0
  5  6  1  0
  5 60  1  0
  5 61  1  0
  6  7  1  0
  6 62  1  0
  6 63  1  0
  7  8  1  0
  7 64  1  0
  7 65  1  0
  8  9  1  0
  8 66  1  0
  8 67  1  0
  9 10  1  0
  9 68  1  0
  9 69  1  0
 10 11  1  0
 10 70  1  0
 10 71  1  0
 11 12  1  0
 11 72  1  0
 11 73  1  0
 12 13  1  0
 12 74  1  0
 12 75  1  0
 13 14  1  0
 13 76  1  0
 13 77  1  0
 14 15  1  0
 14 78  1  0
 14 79  1  0
 15 16  1  0
 15 80  1  0
 15 81  1  0
 16 17  1  0
 16 82  1  0
 16 83  1  0
 17 18  1  0
 17 84  1  0
 17 85  1  0
 18 19  1  0
 18 86  1  0
 18 87  1  0
 19 20  1  0
 20 21  2  0
 20 50  1  0
 21 22  1  0
 21 88  1  0
 22 23  2  0
 22 89  1  0
 24 23  1  1
 23 49  1  0
 24 25  1  0
 24 39  1  0
 24 48  1  0
 25 26  1  0
 25 90  1  0
 26 27  1  0
 26 33  2  0
 27 28  2  0
 27 32  1  0
 28 29  1  0
 28 91  1  0
 29 30  2  0
 29 92  1  0
 30 31  1  0
 30 93  1  0
 31 32  2  0
 31 94  1  0
 32 95  1  0
 33 34  1  0
 34 35  2  0
 34 39  1  0
 35 36  1  0
 35 96  1  0
 36 37  2  0
 36 97  1  0
 37 38  1  0
 37 98  1  0
 38 39  1  0
 38 40  2  0
 40 41  1  0
 41 42  1  0
 41 48  2  0
 42 43  2  0
 42 47  1  0
 43 44  1  0
 43 99  1  0
 44 45  2  0
 44100  1  0
 45 46  1  0
 45101  1  0
 46 47  2  0
 46102  1  0
 47103  1  0
 48104  1  0
 49 50  2  0
 49105  1  0
 50106  1  0
M  CHG  2  24  -1  48   1
M  END

