
     RDKit          3D

 48 52  0  0  0  0  0  0  0  0999 V2000
    6.9457    1.7271   -2.1625 O   0  0  0  0  0  0  0  0  0  0  0  0
    6.6345    0.5778   -2.0253 C   0  0  0  0  0  0  0  0  0  0  0  0
    5.2794   -0.1262   -1.9621 C   0  0  0  0  0  0  0  0  0  0  0  0
    5.2029   -0.5203   -0.6387 C   0  0  0  0  0  0  0  0  0  0  0  0
    4.9161    0.2982    0.5150 C   0  0  0  0  0  0  0  0  0  0  0  0
    4.2272    1.5190    0.3338 C   0  0  0  0  0  0  0  0  0  0  0  0
    3.9799    2.3620    1.4098 C   0  0  0  0  0  0  0  0  0  0  0  0
    4.3762    1.9853    2.7048 C   0  0  0  0  0  0  0  0  0  0  0  0
    4.1407    2.7536    3.7903 O   0  0  0  0  0  0  0  0  0  0  0  0
    5.0322    0.7560    2.9061 C   0  0  0  0  0  0  0  0  0  0  0  0
    5.3024   -0.0701    1.8265 C   0  0  0  0  0  0  0  0  0  0  0  0
    5.8395   -1.7343   -0.3930 O   0  0  0  0  0  0  0  0  0  0  0  0
    7.1238   -1.6924   -0.9350 C   0  0  0  0  0  0  0  0  0  0  0  0
    7.9360   -2.7780   -0.6007 C   0  0  0  0  0  0  0  0  0  0  0  0
    9.2495   -2.7310   -1.0575 C   0  0  0  0  0  0  0  0  0  0  0  0
    9.7688   -1.6560   -1.7836 C   0  0  0  0  0  0  0  0  0  0  0  0
    8.9391   -0.5877   -2.1416 C   0  0  0  0  0  0  0  0  0  0  0  0
    9.3726    0.4263   -2.9113 O   0  0  0  0  0  0  0  0  0  0  0  0
    7.5913   -0.5770   -1.7050 C   0  0  0  0  0  0  0  0  0  0  0  0
   11.1614   -2.0223   -2.2222 C   0  0  2  0  0  0  0  0  0  0  0  0
   11.9156   -1.2176   -2.1158 H   0  0  0  0  0  0  0  0  0  0  0  0
   11.1048   -2.4478   -3.5820 O   0  0  0  0  0  0  0  0  0  0  0  0
   12.1608   -3.3051   -4.0199 C   0  0  2  0  0  0  0  0  0  0  0  0
   13.1407   -2.8098   -3.8604 H   0  0  0  0  0  0  0  0  0  0  0  0
   11.9621   -3.5094   -5.5162 C   0  0  0  0  0  0  0  0  0  0  0  0
   11.9808   -2.2881   -6.2120 O   0  0  0  0  0  0  0  0  0  0  0  0
   12.0987   -4.5969   -3.2043 C   0  0  1  0  0  0  0  0  0  0  0  0
   13.0586   -5.5079   -3.6805 O   0  0  0  0  0  0  0  0  0  0  0  0
   12.3621   -4.2743   -1.7317 C   0  0  2  0  0  0  0  0  0  0  0  0
   13.4058   -3.9194   -1.6718 H   0  0  0  0  0  0  0  0  0  0  0  0
   12.2948   -5.4335   -0.9280 O   0  0  0  0  0  0  0  0  0  0  0  0
   11.4605   -3.1588   -1.2123 C   0  0  2  0  0  0  0  0  0  0  0  0
   11.8903   -2.7195   -0.2954 H   0  0  0  0  0  0  0  0  0  0  0  0
   10.1709   -3.7070   -0.8461 O   0  0  0  0  0  0  0  0  0  0  0  0
    5.3613   -1.0193   -2.5976 H   0  0  0  0  0  0  0  0  0  0  0  0
    3.8888    1.7854   -0.6694 H   0  0  0  0  0  0  0  0  0  0  0  0
    3.4535    3.3092    1.2564 H   0  0  0  0  0  0  0  0  0  0  0  0
    3.7038    3.5740    3.5238 H   0  0  0  0  0  0  0  0  0  0  0  0
    5.3269    0.4818    3.9209 H   0  0  0  0  0  0  0  0  0  0  0  0
    5.8282   -1.0136    1.9797 H   0  0  0  0  0  0  0  0  0  0  0  0
    7.5494   -3.6024   -0.0035 H   0  0  0  0  0  0  0  0  0  0  0  0
   10.2657    0.2367   -3.2283 H   0  0  0  0  0  0  0  0  0  0  0  0
   11.0149   -4.0654   -5.6738 H   0  0  0  0  0  0  0  0  0  0  0  0
   12.7820   -4.1341   -5.8984 H   0  0  0  0  0  0  0  0  0  0  0  0
   11.2912   -1.7379   -5.8147 H   0  0  0  0  0  0  0  0  0  0  0  0
   11.0689   -5.0015   -3.3015 H   0  0  0  0  0  0  0  0  0  0  0  0
   13.1317   -6.2075   -3.0137 H   0  0  0  0  0  0  0  0  0  0  0  0
   11.3574   -5.6018   -0.7453 H   0  0  0  0  0  0  0  0  0  0  0  0
  1  2  2  0
  2  3  1  0
  2 19  1  0
  3  4  2  0
  3 35  1  0
  4  5  1  0
  4 12  1  0
  5  6  2  0
  5 11  1  0
  6  7  1  0
  6 36  1  0
  7  8  2  0
  7 37  1  0
  8  9  1  0
  8 10  1  0
  9 38  1  0
 10 11  2  0
 10 39  1  0
 11 40  1  0
 12 13  1  0
 13 14  1  0
 13 19  2  0
 14 15  2  0
 14 41  1  0
 15 16  1  0
 15 34  1  0
 16 17  2  0
 16 20  1  0
 17 18  1  0
 17 19  1  0
 18 42  1  0
 20 21  1  6
 20 22  1  0
 20 32  1  0
 22 23  1  0
 23 24  1  6
 23 25  1  0
 23 27  1  0
 25 26  1  0
 25 43  1  0
 25 44  1  0
 26 45  1  0
 27 28  1  0
 27 29  1  0
 27 46  1  1
 28 47  1  0
 29 30  1  6
 29 31  1  0
 29 32  1  0
 31 48  1  0
 32 33  1  1
 32 34  1  0
M  END

