
     RDKit          3D

 40 41  0  0  0  0  0  0  0  0999 V2000
    2.0211   -1.2907    0.8232 N   0  0  0  0  0  0  0  0  0  0  0  0
    2.4593   -0.1996    0.1257 C   0  0  0  0  0  0  0  0  0  0  0  0
    2.0175    0.0684   -0.9801 O   0  0  0  0  0  0  0  0  0  0  0  0
    3.5506    0.6112    0.8331 C   0  0  1  0  0  0  0  0  0  0  0  0
    3.3507    0.5369    1.9156 H   0  0  0  0  0  0  0  0  0  0  0  0
    4.9523    0.0033    0.5772 C   0  0  0  0  0  0  0  0  0  0  0  0
    5.4516    0.2461   -0.8518 C   0  0  0  0  0  0  0  0  0  0  0  0
    5.4548    1.7431   -1.1832 C   0  0  0  0  0  0  0  0  0  0  0  0
    4.0648    2.3551   -0.9653 C   0  0  0  0  0  0  0  0  0  0  0  0
    3.5124    2.1162    0.4513 C   0  0  2  0  0  0  0  0  0  0  0  0
    2.4497    2.4384    0.4537 H   0  0  0  0  0  0  0  0  0  0  0  0
    4.2880    2.8867    1.4308 N   0  0  0  0  0  0  0  0  0  0  0  0
    3.5970    3.2304    2.6607 C   0  0  0  0  0  0  0  0  0  0  0  0
    4.5172    4.0110    3.6124 C   0  0  0  0  0  0  0  0  0  0  0  0
    3.8620    4.3540    4.9308 C   0  0  0  0  0  0  0  0  0  0  0  0
    3.9978    3.5143    6.0470 C   0  0  0  0  0  0  0  0  0  0  0  0
    3.3610    3.8088    7.2567 C   0  0  0  0  0  0  0  0  0  0  0  0
    2.5761    4.9515    7.3615 C   0  0  0  0  0  0  0  0  0  0  0  0
    1.9607    5.2564    8.5084 F   0  0  0  0  0  0  0  0  0  0  0  0
    2.4313    5.7985    6.2581 C   0  0  0  0  0  0  0  0  0  0  0  0
    1.6790    6.8973    6.3742 F   0  0  0  0  0  0  0  0  0  0  0  0
    3.0652    5.5044    5.0562 C   0  0  0  0  0  0  0  0  0  0  0  0
    1.3410   -1.8998    0.3834 H   0  0  0  0  0  0  0  0  0  0  0  0
    2.3744   -1.5309    1.7389 H   0  0  0  0  0  0  0  0  0  0  0  0
    4.9386   -1.0756    0.8069 H   0  0  0  0  0  0  0  0  0  0  0  0
    5.6478    0.4770    1.2889 H   0  0  0  0  0  0  0  0  0  0  0  0
    4.8045   -0.2866   -1.5702 H   0  0  0  0  0  0  0  0  0  0  0  0
    6.4644   -0.1759   -0.9665 H   0  0  0  0  0  0  0  0  0  0  0  0
    5.7715    1.9035   -2.2274 H   0  0  0  0  0  0  0  0  0  0  0  0
    6.1988    2.2544   -0.5469 H   0  0  0  0  0  0  0  0  0  0  0  0
    3.3525    1.9110   -1.6746 H   0  0  0  0  0  0  0  0  0  0  0  0
    4.0832    3.4429   -1.1611 H   0  0  0  0  0  0  0  0  0  0  0  0
    4.6304    3.7387    0.9883 H   0  0  0  0  0  0  0  0  0  0  0  0
    3.2745    2.3041    3.1666 H   0  0  0  0  0  0  0  0  0  0  0  0
    2.6649    3.8161    2.4878 H   0  0  0  0  0  0  0  0  0  0  0  0
    4.8437    4.9389    3.1102 H   0  0  0  0  0  0  0  0  0  0  0  0
    5.4248    3.4104    3.7815 H   0  0  0  0  0  0  0  0  0  0  0  0
    4.6180    2.6172    5.9750 H   0  0  0  0  0  0  0  0  0  0  0  0
    3.4659    3.1645    8.1321 H   0  0  0  0  0  0  0  0  0  0  0  0
    2.9294    6.1961    4.2212 H   0  0  0  0  0  0  0  0  0  0  0  0
  1  2  1  0
  1 23  1  0
  1 24  1  0
  2  3  2  0
  2  4  1  0
  4  5  1  1
  4  6  1  0
  4 10  1  0
  6  7  1  0
  6 25  1  0
  6 26  1  0
  7  8  1  0
  7 27  1  0
  7 28  1  0
  8  9  1  0
  8 29  1  0
  8 30  1  0
  9 10  1  0
  9 31  1  0
  9 32  1  0
 10 11  1  6
 10 12  1  0
 12 13  1  0
 12 33  1  0
 13 14  1  0
 13 34  1  0
 13 35  1  0
 14 15  1  0
 14 36  1  0
 14 37  1  0
 15 16  2  0
 15 22  1  0
 16 17  1  0
 16 38  1  0
 17 18  2  0
 17 39  1  0
 18 19  1  0
 18 20  1  0
 20 21  1  0
 20 22  2  0
 22 40  1  0
M  END

