
     RDKit          3D

 58 60  0  0  0  0  0  0  0  0999 V2000
    1.1539   -1.4614   -4.8446 C   0  0  0  0  0  0  0  0  0  0  0  0
    2.4767   -2.2007   -4.6390 C   0  0  0  0  0  0  0  0  0  0  0  0
    3.2111   -1.7884   -3.3598 C   0  0  0  0  0  0  0  0  0  0  0  0
    4.5352   -2.5282   -3.1542 C   0  0  0  0  0  0  0  0  0  0  0  0
    5.2893   -2.0993   -1.8952 C   0  0  2  0  0  0  0  0  0  0  0  0
    5.6207   -0.6983   -1.9681 O   0  0  0  0  0  0  0  0  0  0  0  0
    6.9660   -0.4736   -1.8255 C   0  0  0  0  0  0  0  0  0  0  0  0
    7.4493    0.6226   -1.8580 O   0  0  0  0  0  0  0  0  0  0  0  0
    7.6115   -1.8012   -1.6369 C   0  0  0  0  0  0  0  0  0  0  0  0
    8.9638   -2.0850   -1.4539 C   0  0  0  0  0  0  0  0  0  0  0  0
    9.3237   -3.4362   -1.2994 C   0  0  0  0  0  0  0  0  0  0  0  0
   10.6445   -3.8695   -1.0990 N   0  0  0  0  0  0  0  0  0  0  0  0
   11.8041   -3.1170   -1.0581 C   0  0  0  0  0  0  0  0  0  0  0  0
   11.8248   -1.9120   -1.2442 O   0  0  0  0  0  0  0  0  0  0  0  0
   13.0611   -3.8930   -0.7855 C   0  0  0  0  0  0  0  0  0  0  0  0
   14.2765   -3.2774   -1.1150 C   0  0  0  0  0  0  0  0  0  0  0  0
   15.4988   -3.9118   -0.8949 C   0  0  0  0  0  0  0  0  0  0  0  0
   15.5239   -5.1920   -0.3158 C   0  0  0  0  0  0  0  0  0  0  0  0
   16.6514   -5.8945   -0.0571 O   0  0  0  0  0  0  0  0  0  0  0  0
   17.9230   -5.3447   -0.3719 C   0  0  0  0  0  0  0  0  0  0  0  0
   18.9905   -6.3550    0.0208 C   0  0  0  0  0  0  0  0  0  0  0  0
   18.9019   -7.6698   -0.7601 C   0  0  0  0  0  0  0  0  0  0  0  0
   19.9555   -8.6690   -0.3100 C   0  0  0  0  0  0  0  0  0  0  0  0
   19.7664   -9.8444   -1.1139 O   0  0  0  0  0  0  0  0  0  0  0  0
   20.6605  -10.8980   -0.8366 N   0  0  0  0  0  0  0  0  0  0  0  0
   21.4789  -10.7128    0.0297 O   0  0  0  0  0  0  0  0  0  0  0  0
   20.4746  -11.8595   -1.5235 O   0  0  0  0  0  0  0  0  0  0  0  0
   14.3122   -5.8121    0.0407 C   0  0  0  0  0  0  0  0  0  0  0  0
   13.1026   -5.1691   -0.1913 C   0  0  0  0  0  0  0  0  0  0  0  0
    8.3186   -4.4323   -1.3377 C   0  0  0  0  0  0  0  0  0  0  0  0
    6.9723   -4.1193   -1.5260 C   0  0  0  0  0  0  0  0  0  0  0  0
    6.6207   -2.7777   -1.6777 C   0  0  0  0  0  0  0  0  0  0  0  0
    0.6549   -1.7760   -5.7750 H   0  0  0  0  0  0  0  0  0  0  0  0
    1.3105   -0.3714   -4.9020 H   0  0  0  0  0  0  0  0  0  0  0  0
    0.4553   -1.6496   -4.0120 H   0  0  0  0  0  0  0  0  0  0  0  0
    3.1368   -2.0239   -5.5076 H   0  0  0  0  0  0  0  0  0  0  0  0
    2.2922   -3.2908   -4.6204 H   0  0  0  0  0  0  0  0  0  0  0  0
    2.5554   -1.9642   -2.4865 H   0  0  0  0  0  0  0  0  0  0  0  0
    3.4097   -0.7036   -3.3772 H   0  0  0  0  0  0  0  0  0  0  0  0
    5.1987   -2.3740   -4.0228 H   0  0  0  0  0  0  0  0  0  0  0  0
    4.3549   -3.6163   -3.0861 H   0  0  0  0  0  0  0  0  0  0  0  0
    4.6325   -2.2274   -1.0143 H   0  0  0  0  0  0  0  0  0  0  0  0
    9.7144   -1.2983   -1.4346 H   0  0  0  0  0  0  0  0  0  0  0  0
   10.7607   -4.8733   -1.0456 H   0  0  0  0  0  0  0  0  0  0  0  0
   14.2437   -2.2775   -1.5520 H   0  0  0  0  0  0  0  0  0  0  0  0
   16.4210   -3.4021   -1.1735 H   0  0  0  0  0  0  0  0  0  0  0  0
   18.0717   -4.3975    0.1779 H   0  0  0  0  0  0  0  0  0  0  0  0
   17.9796   -5.1190   -1.4536 H   0  0  0  0  0  0  0  0  0  0  0  0
   18.9038   -6.5501    1.1037 H   0  0  0  0  0  0  0  0  0  0  0  0
   19.9751   -5.8812   -0.1365 H   0  0  0  0  0  0  0  0  0  0  0  0
   19.0258   -7.4788   -1.8397 H   0  0  0  0  0  0  0  0  0  0  0  0
   17.9023   -8.1116   -0.6273 H   0  0  0  0  0  0  0  0  0  0  0  0
   19.8433   -8.9279    0.7556 H   0  0  0  0  0  0  0  0  0  0  0  0
   20.9780   -8.2832   -0.4557 H   0  0  0  0  0  0  0  0  0  0  0  0
   14.3500   -6.7967    0.5105 H   0  0  0  0  0  0  0  0  0  0  0  0
   12.1855   -5.6688    0.1327 H   0  0  0  0  0  0  0  0  0  0  0  0
    8.6085   -5.4804   -1.2146 H   0  0  0  0  0  0  0  0  0  0  0  0
    6.2267   -4.9181   -1.5490 H   0  0  0  0  0  0  0  0  0  0  0  0
  1  2  1  0
  1 33  1  0
  1 34  1  0
  1 35  1  0
  2  3  1  0
  2 36  1  0
  2 37  1  0
  3  4  1  0
  3 38  1  0
  3 39  1  0
  4  5  1  0
  4 40  1  0
  4 41  1  0
  5  6  1  0
  5 32  1  0
  5 42  1  1
  6  7  1  0
  7  8  2  0
  7  9  1  0
  9 10  2  0
  9 32  1  0
 10 11  1  0
 10 43  1  0
 11 12  1  0
 11 30  2  0
 12 13  1  0
 12 44  1  0
 13 14  2  0
 13 15  1  0
 15 16  2  0
 15 29  1  0
 16 17  1  0
 16 45  1  0
 17 18  2  0
 17 46  1  0
 18 19  1  0
 18 28  1  0
 19 20  1  0
 20 21  1  0
 20 47  1  0
 20 48  1  0
 21 22  1  0
 21 49  1  0
 21 50  1  0
 22 23  1  0
 22 51  1  0
 22 52  1  0
 23 24  1  0
 23 53  1  0
 23 54  1  0
 24 25  1  0
 25 26  2  0
 25 27  1  0
 28 29  2  0
 28 55  1  0
 29 56  1  0
 30 31  1  0
 30 57  1  0
 31 32  2  0
 31 58  1  0
M  CHG  2  25   1  27  -1
M  END

