
     RDKit          3D

 47 50  0  0  0  0  0  0  0  0999 V2000
    3.0036    1.2107   -0.7905 C   0  0  0  0  0  0  0  0  0  0  0  0
    2.5817   -0.1379   -0.7794 O   0  0  0  0  0  0  0  0  0  0  0  0
    3.3096   -1.0661   -0.1105 C   0  0  0  0  0  0  0  0  0  0  0  0
    4.4841   -0.7360    0.5753 C   0  0  0  0  0  0  0  0  0  0  0  0
    5.2088   -1.7282    1.2559 C   0  0  0  0  0  0  0  0  0  0  0  0
    6.3979   -1.4599    1.9548 N   0  0  0  0  0  0  0  0  0  0  0  0
    7.0528   -0.2596    2.1327 C   0  0  0  0  0  0  0  0  0  0  0  0
    6.6289    0.8090    1.7173 O   0  0  0  0  0  0  0  0  0  0  0  0
    8.3408   -0.3426    2.9041 C   0  0  0  0  0  0  0  0  0  0  0  0
    8.8259    0.8452    3.4783 C   0  0  0  0  0  0  0  0  0  0  0  0
   10.0090    0.8455    4.2100 C   0  0  0  0  0  0  0  0  0  0  0  0
   10.7450   -0.3347    4.3683 C   0  0  0  0  0  0  0  0  0  0  0  0
   10.2887   -1.5238    3.7611 C   0  0  0  0  0  0  0  0  0  0  0  0
    9.0936   -1.5192    3.0402 C   0  0  0  0  0  0  0  0  0  0  0  0
   10.9974   -2.6888    3.8509 O   0  0  0  0  0  0  0  0  0  0  0  0
   12.3440   -2.5249    4.2715 C   0  0  0  0  0  0  0  0  0  0  0  0
   12.4110   -1.5773    5.4568 C   0  0  0  0  0  0  0  0  0  0  0  0
   11.8938   -0.3029    5.0989 O   0  0  0  0  0  0  0  0  0  0  0  0
    4.7398   -3.0526    1.2406 C   0  0  0  0  0  0  0  0  0  0  0  0
    3.5714   -3.3686    0.5577 C   0  0  0  0  0  0  0  0  0  0  0  0
    2.8212   -2.4006   -0.1348 C   0  0  0  0  0  0  0  0  0  0  0  0
    1.5989   -2.7798   -0.8345 C   0  0  0  0  0  0  0  0  0  0  0  0
    0.6745   -2.1216   -1.6168 C   0  0  0  0  0  0  0  0  0  0  0  0
   -0.3046   -3.0903   -2.0010 C   0  0  0  0  0  0  0  0  0  0  0  0
    0.0775   -4.2794   -1.4437 C   0  0  0  0  0  0  0  0  0  0  0  0
   -0.4987   -5.6548   -1.4120 C   0  0  0  0  0  0  0  0  0  0  0  0
   -0.9941   -6.0340   -0.1395 O   0  0  0  0  0  0  0  0  0  0  0  0
    1.2300   -4.0970   -0.7353 O   0  0  0  0  0  0  0  0  0  0  0  0
    2.2618    1.7614   -1.3844 H   0  0  0  0  0  0  0  0  0  0  0  0
    3.9970    1.3248   -1.2578 H   0  0  0  0  0  0  0  0  0  0  0  0
    3.0396    1.6365    0.2270 H   0  0  0  0  0  0  0  0  0  0  0  0
    4.8561    0.2824    0.6043 H   0  0  0  0  0  0  0  0  0  0  0  0
    6.7920   -2.2579    2.4367 H   0  0  0  0  0  0  0  0  0  0  0  0
    8.2490    1.7608    3.3419 H   0  0  0  0  0  0  0  0  0  0  0  0
   10.3893    1.7546    4.6804 H   0  0  0  0  0  0  0  0  0  0  0  0
    8.8079   -2.4591    2.5625 H   0  0  0  0  0  0  0  0  0  0  0  0
   12.9548   -2.1295    3.4383 H   0  0  0  0  0  0  0  0  0  0  0  0
   12.7200   -3.5228    4.5399 H   0  0  0  0  0  0  0  0  0  0  0  0
   13.4493   -1.4208    5.7835 H   0  0  0  0  0  0  0  0  0  0  0  0
   11.8330   -1.9926    6.3033 H   0  0  0  0  0  0  0  0  0  0  0  0
    5.2938   -3.8377    1.7628 H   0  0  0  0  0  0  0  0  0  0  0  0
    3.2179   -4.4001    0.5504 H   0  0  0  0  0  0  0  0  0  0  0  0
    0.7048   -1.0700   -1.8766 H   0  0  0  0  0  0  0  0  0  0  0  0
   -1.1881   -2.9255   -2.6147 H   0  0  0  0  0  0  0  0  0  0  0  0
    0.2610   -6.3780   -1.7755 H   0  0  0  0  0  0  0  0  0  0  0  0
   -1.3461   -5.6952   -2.1121 H   0  0  0  0  0  0  0  0  0  0  0  0
   -0.2735   -5.9224    0.4953 H   0  0  0  0  0  0  0  0  0  0  0  0
  1  2  1  0
  1 29  1  0
  1 30  1  0
  1 31  1  0
  2  3  1  0
  3  4  2  0
  3 21  1  0
  4  5  1  0
  4 32  1  0
  5  6  1  0
  5 19  2  0
  6  7  1  0
  6 33  1  0
  7  8  2  0
  7  9  1  0
  9 10  2  0
  9 14  1  0
 10 11  1  0
 10 34  1  0
 11 12  2  0
 11 35  1  0
 12 13  1  0
 12 18  1  0
 13 14  2  0
 13 15  1  0
 14 36  1  0
 15 16  1  0
 16 17  1  0
 16 37  1  0
 16 38  1  0
 17 18  1  0
 17 39  1  0
 17 40  1  0
 19 20  1  0
 19 41  1  0
 20 21  2  0
 20 42  1  0
 21 22  1  0
 22 23  2  0
 22 28  1  0
 23 24  1  0
 23 43  1  0
 24 25  2  0
 24 44  1  0
 25 26  1  0
 25 28  1  0
 26 27  1  0
 26 45  1  0
 26 46  1  0
 27 47  1  0
M  END

