
     RDKit          3D

 32 33  0  0  0  0  0  0  0  0999 V2000
    0.9030   -0.3429   -0.2016 C   0  0  0  0  0  0  0  0  0  0  0  0
    2.4035   -0.2008   -0.2949 C   0  0  0  0  0  0  0  0  0  0  0  0
    3.0208    1.0503   -0.3747 C   0  0  0  0  0  0  0  0  0  0  0  0
    4.4111    1.1449   -0.4819 C   0  0  0  0  0  0  0  0  0  0  0  0
    5.2336    0.0117   -0.4957 C   0  0  0  0  0  0  0  0  0  0  0  0
    6.7269    0.1857   -0.6619 C   0  0  0  0  0  0  0  0  0  0  0  0
    4.6245   -1.2676   -0.3904 C   0  0  0  0  0  0  0  0  0  0  0  0
    5.4923   -2.5333   -0.3864 C   0  0  1  0  0  0  0  0  0  0  0  0
    6.1921   -2.7771    0.9833 C   0  0  0  0  0  0  0  0  0  0  0  0
    5.3779   -3.4611    1.9731 N   0  0  0  0  0  0  0  0  0  0  0  0
    4.8837   -4.7314    1.4572 C   0  0  0  0  0  0  0  0  0  0  0  0
    4.0879   -4.5639    0.1620 C   0  0  0  0  0  0  0  0  0  0  0  0
    4.8548   -3.7837   -0.8024 N   0  0  0  0  0  0  0  0  0  0  0  0
    3.2278   -1.3389   -0.3105 C   0  0  0  0  0  0  0  0  0  0  0  0
    0.4039    0.6375   -0.1895 H   0  0  0  0  0  0  0  0  0  0  0  0
    0.6045   -0.8823    0.7132 H   0  0  0  0  0  0  0  0  0  0  0  0
    0.4991   -0.9137   -1.0550 H   0  0  0  0  0  0  0  0  0  0  0  0
    2.4146    1.9607   -0.3655 H   0  0  0  0  0  0  0  0  0  0  0  0
    4.8728    2.1333   -0.5661 H   0  0  0  0  0  0  0  0  0  0  0  0
    6.9842    1.2488   -0.7765 H   0  0  0  0  0  0  0  0  0  0  0  0
    7.1034   -0.3439   -1.5540 H   0  0  0  0  0  0  0  0  0  0  0  0
    7.3003   -0.2008    0.1960 H   0  0  0  0  0  0  0  0  0  0  0  0
    6.3061   -2.3501   -1.1097 H   0  0  0  0  0  0  0  0  0  0  0  0
    6.5423   -1.8233    1.4036 H   0  0  0  0  0  0  0  0  0  0  0  0
    7.0840   -3.4008    0.7971 H   0  0  0  0  0  0  0  0  0  0  0  0
    4.5982   -2.8687    2.2623 H   0  0  0  0  0  0  0  0  0  0  0  0
    4.2646   -5.2280    2.2224 H   0  0  0  0  0  0  0  0  0  0  0  0
    5.7567   -5.3812    1.2681 H   0  0  0  0  0  0  0  0  0  0  0  0
    3.0990   -4.1259    0.4269 H   0  0  0  0  0  0  0  0  0  0  0  0
    3.8780   -5.5531   -0.2817 H   0  0  0  0  0  0  0  0  0  0  0  0
    4.3634   -3.6767   -1.6851 H   0  0  0  0  0  0  0  0  0  0  0  0
    2.7510   -2.3190   -0.2720 H   0  0  0  0  0  0  0  0  0  0  0  0
  1  2  1  0
  1 15  1  0
  1 16  1  0
  1 17  1  0
  2  3  2  0
  2 14  1  0
  3  4  1  0
  3 18  1  0
  4  5  2  0
  4 19  1  0
  5  6  1  0
  5  7  1  0
  6 20  1  0
  6 21  1  0
  6 22  1  0
  7  8  1  0
  7 14  2  0
  8  9  1  0
  8 13  1  0
  8 23  1  6
  9 10  1  0
  9 24  1  0
  9 25  1  0
 10 11  1  0
 10 26  1  0
 11 12  1  0
 11 27  1  0
 11 28  1  0
 12 13  1  0
 12 29  1  0
 12 30  1  0
 13 31  1  0
 14 32  1  0
M  END

