
     RDKit          3D

 53 57  0  0  0  0  0  0  0  0999 V2000
   -2.3459   -6.4936    0.6121 O   0  0  0  0  0  0  0  0  0  0  0  0
   -3.7092   -6.3867    0.3486 C   0  0  1  0  0  0  0  0  0  0  0  0
   -3.9153   -6.2440   -0.7310 H   0  0  0  0  0  0  0  0  0  0  0  0
   -4.4204   -7.6649    0.8351 C   0  0  1  0  0  0  0  0  0  0  0  0
   -4.3455   -8.4776    0.0867 H   0  0  0  0  0  0  0  0  0  0  0  0
   -3.8856   -8.0567    2.0717 O   0  0  0  0  0  0  0  0  0  0  0  0
   -5.8715   -7.1901    0.9758 C   0  0  1  0  0  0  0  0  0  0  0  0
   -6.3935   -7.3154    0.0102 H   0  0  0  0  0  0  0  0  0  0  0  0
   -6.6560   -7.8979    2.0703 C   0  0  0  0  0  0  0  0  0  0  0  0
   -8.2998   -7.1165    2.2730 S   0  0  0  0  0  0  0  0  0  0  0  0
   -9.1679   -8.2826    3.2975 C   0  0  0  0  0  0  0  0  0  0  0  0
   -8.5636   -9.3260    4.0176 C   0  0  0  0  0  0  0  0  0  0  0  0
   -9.3330  -10.1774    4.8162 C   0  0  0  0  0  0  0  0  0  0  0  0
  -10.7121   -9.9868    4.9104 C   0  0  0  0  0  0  0  0  0  0  0  0
  -11.6743  -11.0512    5.9116 Cl  0  0  0  0  0  0  0  0  0  0  0  0
  -11.3296   -8.9476    4.2058 C   0  0  0  0  0  0  0  0  0  0  0  0
  -10.5610   -8.1073    3.4036 C   0  0  0  0  0  0  0  0  0  0  0  0
   -5.7989   -5.7688    1.2388 O   0  0  0  0  0  0  0  0  0  0  0  0
   -4.5046   -5.2735    1.0931 C   0  0  1  0  0  0  0  0  0  0  0  0
   -4.5367   -4.3418    0.5027 H   0  0  0  0  0  0  0  0  0  0  0  0
   -3.9600   -4.9169    2.4175 N   0  0  0  0  0  0  0  0  0  0  0  0
   -4.6477   -4.8769    3.6206 C   0  0  0  0  0  0  0  0  0  0  0  0
   -3.9596   -4.3391    4.5984 N   0  0  0  0  0  0  0  0  0  0  0  0
   -2.7606   -3.9892    4.0217 C   0  0  0  0  0  0  0  0  0  0  0  0
   -1.5901   -3.3622    4.5242 C   0  0  0  0  0  0  0  0  0  0  0  0
   -1.5016   -2.9773    5.8148 N   0  0  0  0  0  0  0  0  0  0  0  0
   -0.3396   -2.3555    6.4273 C   0  0  2  0  0  0  0  0  0  0  0  0
    0.3042   -1.9998    5.6137 H   0  0  0  0  0  0  0  0  0  0  0  0
    0.4081   -3.3047    7.3981 C   0  0  0  0  0  0  0  0  0  0  0  0
   -0.2520   -3.0091    8.7712 C   0  0  0  0  0  0  0  0  0  0  0  0
   -1.2040   -1.9720    8.5461 O   0  0  0  0  0  0  0  0  0  0  0  0
   -0.7840   -1.2561    7.3996 C   0  0  0  0  0  0  0  0  0  0  0  0
   -0.5651   -3.1529    3.6752 N   0  0  0  0  0  0  0  0  0  0  0  0
   -0.6734   -3.5452    2.4039 C   0  0  0  0  0  0  0  0  0  0  0  0
   -1.7151   -4.1429    1.8168 N   0  0  0  0  0  0  0  0  0  0  0  0
   -2.7395   -4.3345    2.6668 C   0  0  0  0  0  0  0  0  0  0  0  0
   -1.9468   -5.6037    0.7795 H   0  0  0  0  0  0  0  0  0  0  0  0
   -2.9444   -7.8091    2.0275 H   0  0  0  0  0  0  0  0  0  0  0  0
   -6.7911   -8.9517    1.7801 H   0  0  0  0  0  0  0  0  0  0  0  0
   -6.0867   -7.8650    3.0087 H   0  0  0  0  0  0  0  0  0  0  0  0
   -7.4859   -9.4863    3.9761 H   0  0  0  0  0  0  0  0  0  0  0  0
   -8.8575  -10.9875    5.3720 H   0  0  0  0  0  0  0  0  0  0  0  0
  -12.4091   -8.8056    4.2815 H   0  0  0  0  0  0  0  0  0  0  0  0
  -11.0498   -7.3045    2.8455 H   0  0  0  0  0  0  0  0  0  0  0  0
   -5.6662   -5.2551    3.6868 H   0  0  0  0  0  0  0  0  0  0  0  0
   -2.3029   -3.1801    6.4051 H   0  0  0  0  0  0  0  0  0  0  0  0
    1.4809   -3.0598    7.4123 H   0  0  0  0  0  0  0  0  0  0  0  0
    0.3096   -4.3535    7.0856 H   0  0  0  0  0  0  0  0  0  0  0  0
    0.5024   -2.6828    9.5124 H   0  0  0  0  0  0  0  0  0  0  0  0
   -0.7881   -3.8722    9.1954 H   0  0  0  0  0  0  0  0  0  0  0  0
    0.0659   -0.5790    7.6269 H   0  0  0  0  0  0  0  0  0  0  0  0
   -1.6263   -0.6542    7.0294 H   0  0  0  0  0  0  0  0  0  0  0  0
    0.1996   -3.3619    1.7670 H   0  0  0  0  0  0  0  0  0  0  0  0
  1  2  1  0
  1 37  1  0
  2  3  1  6
  2  4  1  0
  2 19  1  0
  4  5  1  6
  4  6  1  0
  4  7  1  0
  6 38  1  0
  7  8  1  6
  7  9  1  0
  7 18  1  0
  9 10  1  0
  9 39  1  0
  9 40  1  0
 10 11  1  0
 11 12  2  0
 11 17  1  0
 12 13  1  0
 12 41  1  0
 13 14  2  0
 13 42  1  0
 14 15  1  0
 14 16  1  0
 16 17  2  0
 16 43  1  0
 17 44  1  0
 18 19  1  0
 19 20  1  6
 19 21  1  0
 21 22  1  0
 21 36  1  0
 22 23  2  0
 22 45  1  0
 23 24  1  0
 24 25  1  0
 24 36  2  0
 25 26  1  0
 25 33  2  0
 26 27  1  0
 26 46  1  0
 27 28  1  6
 27 29  1  0
 27 32  1  0
 29 30  1  0
 29 47  1  0
 29 48  1  0
 30 31  1  0
 30 49  1  0
 30 50  1  0
 31 32  1  0
 32 51  1  0
 32 52  1  0
 33 34  1  0
 34 35  2  0
 34 53  1  0
 35 36  1  0
M  END

