
     RDKit          3D

 63 68  0  0  0  0  0  0  0  0999 V2000
    3.7130   -4.9301    3.6551 C   0  0  0  0  0  0  0  0  0  0  0  0
    4.7451   -4.4004    2.6555 C   0  0  0  0  0  0  0  0  0  0  0  0
    4.8872   -2.8699    2.6114 C   0  0  2  0  0  0  0  0  0  0  0  0
    3.6075   -2.2213    2.6931 O   0  0  0  0  0  0  0  0  0  0  0  0
    5.4931   -2.4248    1.2462 C   0  0  0  0  0  0  0  0  0  0  0  0
    5.6095   -3.1595    0.2998 O   0  0  0  0  0  0  0  0  0  0  0  0
    5.8125   -1.1260    1.1395 O   0  0  0  0  0  0  0  0  0  0  0  0
    5.7082   -0.2423    2.2678 C   0  0  0  0  0  0  0  0  0  0  0  0
    6.0764   -0.9287    3.5453 C   0  0  0  0  0  0  0  0  0  0  0  0
    5.7317   -2.2515    3.7260 C   0  0  0  0  0  0  0  0  0  0  0  0
    6.1589   -2.9558    4.8884 C   0  0  0  0  0  0  0  0  0  0  0  0
    6.8782   -2.2598    5.8248 C   0  0  0  0  0  0  0  0  0  0  0  0
    7.1830   -0.9302    5.6529 N   0  0  0  0  0  0  0  0  0  0  0  0
    6.8269   -0.1674    4.5362 C   0  0  0  0  0  0  0  0  0  0  0  0
    7.1487    1.0133    4.4559 O   0  0  0  0  0  0  0  0  0  0  0  0
    7.9558   -0.3614    6.7638 C   0  0  0  0  0  0  0  0  0  0  0  0
    8.1104   -1.5443    7.6815 C   0  0  0  0  0  0  0  0  0  0  0  0
    8.7289   -1.6970    8.8974 C   0  0  0  0  0  0  0  0  0  0  0  0
    8.6946   -2.9763    9.5230 C   0  0  0  0  0  0  0  0  0  0  0  0
    9.3194   -3.2465   10.7815 C   0  0  0  0  0  0  0  0  0  0  0  0
   10.0052   -2.2786   11.4531 O   0  0  0  0  0  0  0  0  0  0  0  0
    9.2286   -4.5026   11.3735 C   0  0  0  0  0  0  0  0  0  0  0  0
    9.8695   -4.7624   12.7281 C   0  0  0  0  0  0  0  0  0  0  0  0
   10.2155   -6.1630   12.9332 N   0  0  0  0  0  0  0  0  0  0  0  0
   11.4292   -6.6010   12.2336 C   0  0  0  0  0  0  0  0  0  0  0  0
   12.7167   -6.2271   12.9930 C   0  0  0  0  0  0  0  0  0  0  0  0
   12.7184   -6.6845   14.3815 N   0  0  0  0  0  0  0  0  0  0  0  0
   13.0712   -8.0786   14.5724 C   0  0  0  0  0  0  0  0  0  0  0  0
   11.5088   -6.2481   15.0763 C   0  0  0  0  0  0  0  0  0  0  0  0
   10.2184   -6.6229   14.3232 C   0  0  0  0  0  0  0  0  0  0  0  0
    8.5047   -5.5217   10.7034 C   0  0  0  0  0  0  0  0  0  0  0  0
    7.9038   -5.3140    9.4815 C   0  0  0  0  0  0  0  0  0  0  0  0
    7.9823   -4.0428    8.8561 C   0  0  0  0  0  0  0  0  0  0  0  0
    7.3768   -3.8662    7.6501 N   0  0  0  0  0  0  0  0  0  0  0  0
    7.4536   -2.6749    7.1094 C   0  0  0  0  0  0  0  0  0  0  0  0
    3.6783   -6.0297    3.6127 H   0  0  0  0  0  0  0  0  0  0  0  0
    2.7050   -4.5546    3.4255 H   0  0  0  0  0  0  0  0  0  0  0  0
    3.9292   -4.6414    4.6942 H   0  0  0  0  0  0  0  0  0  0  0  0
    4.4758   -4.7278    1.6396 H   0  0  0  0  0  0  0  0  0  0  0  0
    5.7384   -4.8406    2.8411 H   0  0  0  0  0  0  0  0  0  0  0  0
    3.0602   -2.5571    1.9676 H   0  0  0  0  0  0  0  0  0  0  0  0
    4.6796    0.1533    2.3084 H   0  0  0  0  0  0  0  0  0  0  0  0
    6.3950    0.5915    2.0731 H   0  0  0  0  0  0  0  0  0  0  0  0
    5.9453   -4.0059    5.0685 H   0  0  0  0  0  0  0  0  0  0  0  0
    7.4060    0.4845    7.2105 H   0  0  0  0  0  0  0  0  0  0  0  0
    8.9098    0.0457    6.3873 H   0  0  0  0  0  0  0  0  0  0  0  0
    9.2222   -0.8427    9.3723 H   0  0  0  0  0  0  0  0  0  0  0  0
   10.1860   -1.5268   10.8763 H   0  0  0  0  0  0  0  0  0  0  0  0
    9.1438   -4.4769   13.5111 H   0  0  0  0  0  0  0  0  0  0  0  0
   10.7184   -4.0626   12.8511 H   0  0  0  0  0  0  0  0  0  0  0  0
   11.4371   -6.1710   11.2189 H   0  0  0  0  0  0  0  0  0  0  0  0
   11.3780   -7.6981   12.1096 H   0  0  0  0  0  0  0  0  0  0  0  0
   12.8337   -5.1273   12.9937 H   0  0  0  0  0  0  0  0  0  0  0  0
   13.6002   -6.6367   12.4752 H   0  0  0  0  0  0  0  0  0  0  0  0
   14.0535   -8.2764   14.1124 H   0  0  0  0  0  0  0  0  0  0  0  0
   12.3574   -8.8220   14.1522 H   0  0  0  0  0  0  0  0  0  0  0  0
   13.1639   -8.2913   15.6502 H   0  0  0  0  0  0  0  0  0  0  0  0
   11.5542   -5.1488   15.1935 H   0  0  0  0  0  0  0  0  0  0  0  0
   11.5008   -6.6755   16.0932 H   0  0  0  0  0  0  0  0  0  0  0  0
    9.3336   -6.2172   14.8411 H   0  0  0  0  0  0  0  0  0  0  0  0
   10.1045   -7.7226   14.3176 H   0  0  0  0  0  0  0  0  0  0  0  0
    8.4596   -6.4963   11.1935 H   0  0  0  0  0  0  0  0  0  0  0  0
    7.3566   -6.1026    8.9630 H   0  0  0  0  0  0  0  0  0  0  0  0
  1  2  1  0
  1 36  1  0
  1 37  1  0
  1 38  1  0
  2  3  1  0
  2 39  1  0
  2 40  1  0
  3  4  1  1
  3  5  1  0
  3 10  1  0
  4 41  1  0
  5  6  2  0
  5  7  1  0
  7  8  1  0
  8  9  1  0
  8 42  1  0
  8 43  1  0
  9 10  2  0
  9 14  1  0
 10 11  1  0
 11 12  2  0
 11 44  1  0
 12 13  1  0
 12 35  1  0
 13 14  1  0
 13 16  1  0
 14 15  2  0
 16 17  1  0
 16 45  1  0
 16 46  1  0
 17 18  1  0
 17 35  2  0
 18 19  2  0
 18 47  1  0
 19 20  1  0
 19 33  1  0
 20 21  1  0
 20 22  2  0
 21 48  1  0
 22 23  1  0
 22 31  1  0
 23 24  1  0
 23 49  1  0
 23 50  1  0
 24 25  1  0
 24 30  1  0
 25 26  1  0
 25 51  1  0
 25 52  1  0
 26 27  1  0
 26 53  1  0
 26 54  1  0
 27 28  1  0
 27 29  1  0
 28 55  1  0
 28 56  1  0
 28 57  1  0
 29 30  1  0
 29 58  1  0
 29 59  1  0
 30 60  1  0
 30 61  1  0
 31 32  2  0
 31 62  1  0
 32 33  1  0
 32 63  1  0
 33 34  2  0
 34 35  1  0
M  END

