
     RDKit          3D

 35 35  0  0  0  0  0  0  0  0999 V2000
    1.9192    0.3217    2.4245 C   0  0  0  0  0  0  0  0  0  0  0  0
    3.3131    0.0588    3.0137 C   0  0  1  0  0  0  0  0  0  0  0  0
    3.3973   -1.1377    3.8556 N   0  0  0  0  0  0  0  0  0  0  0  0
    4.4083   -0.0592    1.9388 C   0  0  0  0  0  0  0  0  0  0  0  0
    4.5531    1.1316    0.9707 C   0  0  0  0  0  0  0  0  0  0  0  0
    4.8058    2.4544    1.6843 C   0  0  0  0  0  0  0  0  0  0  0  0
    3.8996    3.1976    2.0161 O   0  0  0  0  0  0  0  0  0  0  0  0
    6.1389    2.7055    1.9544 N   0  0  0  0  0  0  0  0  0  0  0  0
    6.7176    3.7818    2.6429 C   0  0  0  0  0  0  0  0  0  0  0  0
    5.9682    4.8527    3.1682 C   0  0  0  0  0  0  0  0  0  0  0  0
    6.6191    5.8877    3.8383 C   0  0  0  0  0  0  0  0  0  0  0  0
    8.0069    5.8614    3.9942 C   0  0  0  0  0  0  0  0  0  0  0  0
    8.8298    7.1915    4.8610 S   0  0  1  0  0  0  0  0  0  0  0  0
    8.8605    6.6685    6.4711 N   0  0  0  0  0  0  0  0  0  0  0  0
   10.2231    7.2228    4.4071 O   0  0  0  0  0  0  0  0  0  0  0  0
    7.9557    8.3660    4.8050 O   0  0  0  0  0  0  0  0  0  0  0  0
    8.7649    4.8122    3.4665 C   0  0  0  0  0  0  0  0  0  0  0  0
    8.1190    3.7787    2.7971 C   0  0  0  0  0  0  0  0  0  0  0  0
    1.1610    0.3159    3.2245 H   0  0  0  0  0  0  0  0  0  0  0  0
    1.6425   -0.4604    1.6948 H   0  0  0  0  0  0  0  0  0  0  0  0
    1.8649    1.3022    1.9271 H   0  0  0  0  0  0  0  0  0  0  0  0
    3.5660    0.9157    3.6631 H   0  0  0  0  0  0  0  0  0  0  0  0
    3.0775   -1.9544    3.3297 H   0  0  0  0  0  0  0  0  0  0  0  0
    2.7608   -1.0530    4.6488 H   0  0  0  0  0  0  0  0  0  0  0  0
    4.2117   -0.9637    1.3340 H   0  0  0  0  0  0  0  0  0  0  0  0
    5.3620   -0.2454    2.4596 H   0  0  0  0  0  0  0  0  0  0  0  0
    3.6355    1.2669    0.3813 H   0  0  0  0  0  0  0  0  0  0  0  0
    5.3681    0.9184    0.2582 H   0  0  0  0  0  0  0  0  0  0  0  0
    6.7953    2.0089    1.6216 H   0  0  0  0  0  0  0  0  0  0  0  0
    4.8889    4.8613    3.0378 H   0  0  0  0  0  0  0  0  0  0  0  0
    6.0480    6.7307    4.2313 H   0  0  0  0  0  0  0  0  0  0  0  0
    9.8270    6.6196    6.7938 H   0  0  0  0  0  0  0  0  0  0  0  0
    8.3000    7.2947    7.0492 H   0  0  0  0  0  0  0  0  0  0  0  0
    9.8511    4.8190    3.5709 H   0  0  0  0  0  0  0  0  0  0  0  0
    8.7082    2.9565    2.3802 H   0  0  0  0  0  0  0  0  0  0  0  0
  1  2  1  0
  1 19  1  0
  1 20  1  0
  1 21  1  0
  2  3  1  0
  2  4  1  0
  2 22  1  1
  3 23  1  0
  3 24  1  0
  4  5  1  0
  4 25  1  0
  4 26  1  0
  5  6  1  0
  5 27  1  0
  5 28  1  0
  6  7  2  0
  6  8  1  0
  8  9  1  0
  8 29  1  0
  9 10  2  0
  9 18  1  0
 10 11  1  0
 10 30  1  0
 11 12  2  0
 11 31  1  0
 12 13  1  0
 12 17  1  0
 13 14  1  1
 13 15  2  0
 13 16  2  0
 14 32  1  0
 14 33  1  0
 17 18  2  0
 17 34  1  0
 18 35  1  0
M  END

