
     RDKit          3D

 64 67  0  0  0  0  0  0  0  0999 V2000
    5.0920    6.9874    6.1885 C   0  0  0  0  0  0  0  0  0  0  0  0
    4.3221    5.8524    5.5160 C   0  0  0  0  0  0  0  0  0  0  0  0
    5.1256    4.6583    5.2574 N   0  0  0  0  0  0  0  0  0  0  0  0
    5.4586    3.9321    6.4700 C   0  0  0  0  0  0  0  0  0  0  0  0
    4.5444    3.7928    4.2353 C   0  0  0  0  0  0  0  0  0  0  0  0
    4.7249    4.3166    2.8047 C   0  0  0  0  0  0  0  0  0  0  0  0
    6.1969    4.4651    2.4284 C   0  0  0  0  0  0  0  0  0  0  0  0
    6.3837    5.2044    0.7883 S   0  0  1  0  0  0  0  0  0  0  0  0
    5.8399    4.2477   -0.1860 O   0  0  0  0  0  0  0  0  0  0  0  0
    5.8566    6.5753    0.8662 O   0  0  0  0  0  0  0  0  0  0  0  0
    8.0564    5.2837    0.5824 N   0  0  0  0  0  0  0  0  0  0  0  0
    8.6845    4.3698   -0.3836 C   0  0  0  0  0  0  0  0  0  0  0  0
    8.7740    4.9912   -1.7783 C   0  0  0  0  0  0  0  0  0  0  0  0
    9.4981    6.3642   -1.7703 C   0  0  2  0  0  0  0  0  0  0  0  0
   11.0028    6.2323   -1.6732 C   0  0  0  0  0  0  0  0  0  0  0  0
   11.8498    6.6399   -0.6646 C   0  0  0  0  0  0  0  0  0  0  0  0
   13.1623    6.3536   -0.9913 N   0  0  0  0  0  0  0  0  0  0  0  0
   13.9652    6.5635   -0.4149 H   0  0  0  0  0  0  0  0  0  0  0  0
   13.2010    5.7568   -2.2296 C   0  0  0  0  0  0  0  0  0  0  0  0
   14.2824    5.3021   -2.9958 C   0  0  0  0  0  0  0  0  0  0  0  0
   14.0106    4.7572   -4.2450 C   0  0  0  0  0  0  0  0  0  0  0  0
   12.6869    4.6556   -4.7537 C   0  0  0  0  0  0  0  0  0  0  0  0
   12.4449    4.0756   -6.1032 C   0  0  0  0  0  0  0  0  0  0  0  0
   11.3237    3.2614   -6.3555 C   0  0  0  0  0  0  0  0  0  0  0  0
   11.0922    2.7229   -7.6230 C   0  0  0  0  0  0  0  0  0  0  0  0
   11.9794    2.9809   -8.6722 C   0  0  0  0  0  0  0  0  0  0  0  0
   13.0994    3.7846   -8.4392 C   0  0  0  0  0  0  0  0  0  0  0  0
   13.3279    4.3251   -7.1719 C   0  0  0  0  0  0  0  0  0  0  0  0
   11.6201    5.1113   -3.9686 C   0  0  0  0  0  0  0  0  0  0  0  0
   11.8588    5.6614   -2.6955 C   0  0  0  0  0  0  0  0  0  0  0  0
    8.8584    7.2702   -0.6947 C   0  0  0  0  0  0  0  0  0  0  0  0
    8.7070    6.5966    0.6772 C   0  0  0  0  0  0  0  0  0  0  0  0
    4.4477    7.8753    6.2885 H   0  0  0  0  0  0  0  0  0  0  0  0
    5.9737    7.2663    5.5903 H   0  0  0  0  0  0  0  0  0  0  0  0
    5.4378    6.7210    7.1995 H   0  0  0  0  0  0  0  0  0  0  0  0
    3.9410    6.2208    4.5516 H   0  0  0  0  0  0  0  0  0  0  0  0
    3.4213    5.5981    6.1235 H   0  0  0  0  0  0  0  0  0  0  0  0
    5.9800    4.5865    7.1839 H   0  0  0  0  0  0  0  0  0  0  0  0
    6.1359    3.0954    6.2378 H   0  0  0  0  0  0  0  0  0  0  0  0
    4.5657    3.5131    6.9903 H   0  0  0  0  0  0  0  0  0  0  0  0
    3.4608    3.6074    4.4163 H   0  0  0  0  0  0  0  0  0  0  0  0
    5.0356    2.8084    4.3102 H   0  0  0  0  0  0  0  0  0  0  0  0
    4.2294    5.2925    2.6802 H   0  0  0  0  0  0  0  0  0  0  0  0
    4.2322    3.6250    2.1030 H   0  0  0  0  0  0  0  0  0  0  0  0
    6.7189    3.4969    2.3838 H   0  0  0  0  0  0  0  0  0  0  0  0
    6.7242    5.1206    3.1355 H   0  0  0  0  0  0  0  0  0  0  0  0
    8.1089    3.4361   -0.4151 H   0  0  0  0  0  0  0  0  0  0  0  0
    9.6919    4.1312    0.0010 H   0  0  0  0  0  0  0  0  0  0  0  0
    7.7469    5.1237   -2.1569 H   0  0  0  0  0  0  0  0  0  0  0  0
    9.2834    4.2911   -2.4587 H   0  0  0  0  0  0  0  0  0  0  0  0
    9.2951    6.8344   -2.7492 H   0  0  0  0  0  0  0  0  0  0  0  0
   11.6242    7.1336    0.2778 H   0  0  0  0  0  0  0  0  0  0  0  0
   15.3089    5.3666   -2.6258 H   0  0  0  0  0  0  0  0  0  0  0  0
   14.8386    4.3753   -4.8459 H   0  0  0  0  0  0  0  0  0  0  0  0
   10.6361    3.0276   -5.5393 H   0  0  0  0  0  0  0  0  0  0  0  0
   10.2172    2.0887   -7.7890 H   0  0  0  0  0  0  0  0  0  0  0  0
   11.7997    2.5582   -9.6640 H   0  0  0  0  0  0  0  0  0  0  0  0
   13.7969    4.0011   -9.2528 H   0  0  0  0  0  0  0  0  0  0  0  0
   14.1933    4.9729   -7.0133 H   0  0  0  0  0  0  0  0  0  0  0  0
   10.6031    5.0662   -4.3640 H   0  0  0  0  0  0  0  0  0  0  0  0
    7.8472    7.5530   -1.0298 H   0  0  0  0  0  0  0  0  0  0  0  0
    9.4324    8.2057   -0.5882 H   0  0  0  0  0  0  0  0  0  0  0  0
    8.1150    7.2366    1.3440 H   0  0  0  0  0  0  0  0  0  0  0  0
    9.6860    6.4348    1.1587 H   0  0  0  0  0  0  0  0  0  0  0  0
  1  2  1  0
  1 33  1  0
  1 34  1  0
  1 35  1  0
  2  3  1  0
  2 36  1  0
  2 37  1  0
  3  4  1  0
  3  5  1  0
  4 38  1  0
  4 39  1  0
  4 40  1  0
  5  6  1  0
  5 41  1  0
  5 42  1  0
  6  7  1  0
  6 43  1  0
  6 44  1  0
  8  7  1  1
  7 45  1  0
  7 46  1  0
  8  9  2  0
  8 10  2  0
  8 11  1  0
 11 12  1  0
 11 32  1  0
 12 13  1  0
 12 47  1  0
 12 48  1  0
 13 14  1  0
 13 49  1  0
 13 50  1  0
 14 15  1  0
 14 31  1  0
 14 51  1  6
 15 16  2  0
 15 30  1  0
 16 17  1  0
 16 52  1  0
 17 18  1  0
 17 19  1  0
 19 20  1  0
 19 30  2  0
 20 21  2  0
 20 53  1  0
 21 22  1  0
 21 54  1  0
 22 23  1  0
 22 29  2  0
 23 24  2  0
 23 28  1  0
 24 25  1  0
 24 55  1  0
 25 26  2  0
 25 56  1  0
 26 27  1  0
 26 57  1  0
 27 28  2  0
 27 58  1  0
 28 59  1  0
 29 30  1  0
 29 60  1  0
 31 32  1  0
 31 61  1  0
 31 62  1  0
 32 63  1  0
 32 64  1  0
M  END

