
     RDKit          3D

 50 51  0  0  0  0  0  0  0  0999 V2000
    1.1952    0.4716    0.1169 C   0  0  0  0  0  0  0  0  0  0  0  0
    2.6996    0.4849    0.3463 C   0  0  1  0  0  0  0  0  0  0  0  0
    3.0799    1.4565    1.3185 O   0  0  0  0  0  0  0  0  0  0  0  0
    3.2243    2.7752    0.9833 C   0  0  0  0  0  0  0  0  0  0  0  0
    3.0509    3.3093   -0.2990 C   0  0  0  0  0  0  0  0  0  0  0  0
    3.2509    4.6796   -0.5220 C   0  0  0  0  0  0  0  0  0  0  0  0
    3.6204    5.5298    0.5230 C   0  0  0  0  0  0  0  0  0  0  0  0
    3.8233    6.8670    0.3608 O   0  0  0  0  0  0  0  0  0  0  0  0
    3.7919    4.9910    1.8092 C   0  0  0  0  0  0  0  0  0  0  0  0
    3.5963    3.6339    2.0335 C   0  0  0  0  0  0  0  0  0  0  0  0
    3.1864   -0.8797    0.8903 C   0  0  0  0  0  0  0  0  0  0  0  0
    2.3796   -1.7621    1.1390 O   0  0  0  0  0  0  0  0  0  0  0  0
    4.5370   -1.0472    1.0660 N   0  0  0  0  0  0  0  0  0  0  0  0
    5.0039   -2.2781    1.7021 C   0  0  0  0  0  0  0  0  0  0  0  0
    6.1625   -2.9153    0.9260 C   0  0  0  0  0  0  0  0  0  0  0  0
    7.3017   -1.9214    0.6594 C   0  0  2  0  0  0  0  0  0  0  0  0
    8.0120   -1.6213    1.9025 N   0  0  0  0  0  0  0  0  0  0  0  0
    9.2442   -1.0381    1.9227 C   0  0  0  0  0  0  0  0  0  0  0  0
    9.8575   -0.7544    0.9034 O   0  0  0  0  0  0  0  0  0  0  0  0
    9.8108   -0.7494    3.3116 C   0  0  0  0  0  0  0  0  0  0  0  0
   10.3391    0.6851    3.4226 C   0  0  0  0  0  0  0  0  0  0  0  0
    9.3073    1.7704    3.1510 C   0  0  0  0  0  0  0  0  0  0  0  0
    7.8490    1.6495    4.2360 Cl  0  0  0  0  0  0  0  0  0  0  0  0
    6.7277   -0.6517    0.0022 C   0  0  0  0  0  0  0  0  0  0  0  0
    5.5782   -0.0490    0.8157 C   0  0  0  0  0  0  0  0  0  0  0  0
    0.8471    1.4546   -0.2313 H   0  0  0  0  0  0  0  0  0  0  0  0
    0.6779    0.2142    1.0507 H   0  0  0  0  0  0  0  0  0  0  0  0
    0.9304   -0.2869   -0.6335 H   0  0  0  0  0  0  0  0  0  0  0  0
    3.2262    0.6845   -0.6060 H   0  0  0  0  0  0  0  0  0  0  0  0
    2.7525    2.6820   -1.1391 H   0  0  0  0  0  0  0  0  0  0  0  0
    3.1082    5.0835   -1.5295 H   0  0  0  0  0  0  0  0  0  0  0  0
    3.6762    7.1043   -0.5637 H   0  0  0  0  0  0  0  0  0  0  0  0
    4.0819    5.6579    2.6237 H   0  0  0  0  0  0  0  0  0  0  0  0
    3.7327    3.2053    3.0285 H   0  0  0  0  0  0  0  0  0  0  0  0
    4.1476   -2.9598    1.7669 H   0  0  0  0  0  0  0  0  0  0  0  0
    5.3106   -2.0497    2.7434 H   0  0  0  0  0  0  0  0  0  0  0  0
    5.7852   -3.2772   -0.0439 H   0  0  0  0  0  0  0  0  0  0  0  0
    6.5400   -3.7941    1.4749 H   0  0  0  0  0  0  0  0  0  0  0  0
    8.0398   -2.3645   -0.0269 H   0  0  0  0  0  0  0  0  0  0  0  0
    7.5327   -1.7539    2.7845 H   0  0  0  0  0  0  0  0  0  0  0  0
   10.6457   -1.4507    3.4771 H   0  0  0  0  0  0  0  0  0  0  0  0
    9.0631   -0.9388    4.0969 H   0  0  0  0  0  0  0  0  0  0  0  0
   11.1418    0.8225    2.6780 H   0  0  0  0  0  0  0  0  0  0  0  0
   10.7837    0.8348    4.4198 H   0  0  0  0  0  0  0  0  0  0  0  0
    8.9270    1.7174    2.1225 H   0  0  0  0  0  0  0  0  0  0  0  0
    9.7272    2.7709    3.3181 H   0  0  0  0  0  0  0  0  0  0  0  0
    6.3629   -0.9156   -1.0055 H   0  0  0  0  0  0  0  0  0  0  0  0
    7.5327    0.0872   -0.1265 H   0  0  0  0  0  0  0  0  0  0  0  0
    5.1603    0.8120    0.2858 H   0  0  0  0  0  0  0  0  0  0  0  0
    5.9588    0.3360    1.7807 H   0  0  0  0  0  0  0  0  0  0  0  0
  1  2  1  0
  1 26  1  0
  1 27  1  0
  1 28  1  0
  2  3  1  0
  2 11  1  0
  2 29  1  6
  3  4  1  0
  4  5  2  0
  4 10  1  0
  5  6  1  0
  5 30  1  0
  6  7  2  0
  6 31  1  0
  7  8  1  0
  7  9  1  0
  8 32  1  0
  9 10  2  0
  9 33  1  0
 10 34  1  0
 11 12  2  0
 11 13  1  0
 13 14  1  0
 13 25  1  0
 14 15  1  0
 14 35  1  0
 14 36  1  0
 15 16  1  0
 15 37  1  0
 15 38  1  0
 16 17  1  0
 16 24  1  0
 16 39  1  6
 17 18  1  0
 17 40  1  0
 18 19  2  0
 18 20  1  0
 20 21  1  0
 20 41  1  0
 20 42  1  0
 21 22  1  0
 21 43  1  0
 21 44  1  0
 22 23  1  0
 22 45  1  0
 22 46  1  0
 24 25  1  0
 24 47  1  0
 24 48  1  0
 25 49  1  0
 25 50  1  0
M  END

