
     RDKit          3D

 34 37  0  0  0  0  0  0  0  0999 V2000
    3.0364   -0.2191    2.1026 O   0  0  0  0  0  0  0  0  0  0  0  0
    3.2471   -0.2647    0.9188 C   0  0  0  0  0  0  0  0  0  0  0  0
    4.1111    0.7691    0.2117 C   0  0  0  0  0  0  0  0  0  0  0  0
    4.1045    0.7092   -1.2902 C   0  0  0  0  0  0  0  0  0  0  0  0
    4.7331    1.6835   -2.0788 C   0  0  0  0  0  0  0  0  0  0  0  0
    5.3676    2.6793   -1.3976 O   0  0  0  0  0  0  0  0  0  0  0  0
    5.7909    3.8399   -2.0235 C   0  0  0  0  0  0  0  0  0  0  0  0
    4.8868    4.7348   -2.5562 C   0  0  0  0  0  0  0  0  0  0  0  0
    5.3496    5.9438   -3.1327 C   0  0  0  0  0  0  0  0  0  0  0  0
    6.6946    6.2451   -3.1596 C   0  0  0  0  0  0  0  0  0  0  0  0
    7.6447    5.3425   -2.6062 C   0  0  0  0  0  0  0  0  0  0  0  0
    8.9647    5.6748   -2.6452 N   0  0  0  0  0  0  0  0  0  0  0  0
    9.8375    4.8372   -2.1323 C   0  0  0  0  0  0  0  0  0  0  0  0
    9.4902    3.5961   -1.5333 C   0  0  0  0  0  0  0  0  0  0  0  0
    8.1632    3.2338   -1.4791 C   0  0  0  0  0  0  0  0  0  0  0  0
    7.1894    4.1109   -2.0258 C   0  0  0  0  0  0  0  0  0  0  0  0
    4.7161    1.5730   -3.4765 C   0  0  0  0  0  0  0  0  0  0  0  0
    4.0632    0.4702   -4.0267 C   0  0  0  0  0  0  0  0  0  0  0  0
    3.4530   -0.4716   -3.3074 N   0  0  0  0  0  0  0  0  0  0  0  0
    3.4791   -0.3436   -1.9801 C   0  0  0  0  0  0  0  0  0  0  0  0
    2.8241   -1.3493   -1.2673 N   0  0  0  0  0  0  0  0  0  0  0  0
    2.6399   -1.4324    0.0953 C   0  0  0  0  0  0  0  0  0  0  0  0
    2.0406   -2.3386    0.6251 O   0  0  0  0  0  0  0  0  0  0  0  0
    5.1385    0.6326    0.6015 H   0  0  0  0  0  0  0  0  0  0  0  0
    3.8108    1.7647    0.5786 H   0  0  0  0  0  0  0  0  0  0  0  0
    3.8194    4.5071   -2.5270 H   0  0  0  0  0  0  0  0  0  0  0  0
    4.6218    6.6424   -3.5521 H   0  0  0  0  0  0  0  0  0  0  0  0
    7.0723    7.1718   -3.5946 H   0  0  0  0  0  0  0  0  0  0  0  0
   10.8928    5.1349   -2.1790 H   0  0  0  0  0  0  0  0  0  0  0  0
   10.2712    2.9511   -1.1251 H   0  0  0  0  0  0  0  0  0  0  0  0
    7.8464    2.2939   -1.0237 H   0  0  0  0  0  0  0  0  0  0  0  0
    5.2003    2.3136   -4.1121 H   0  0  0  0  0  0  0  0  0  0  0  0
    4.0365    0.3443   -5.1149 H   0  0  0  0  0  0  0  0  0  0  0  0
    2.4120   -2.0906   -1.8310 H   0  0  0  0  0  0  0  0  0  0  0  0
  1  2  2  0
  2  3  1  0
  2 22  1  0
  3  4  1  0
  3 24  1  0
  3 25  1  0
  4  5  1  0
  4 20  2  0
  5  6  1  0
  5 17  2  0
  6  7  1  0
  7  8  2  0
  7 16  1  0
  8  9  1  0
  8 26  1  0
  9 10  2  0
  9 27  1  0
 10 11  1  0
 10 28  1  0
 11 12  1  0
 11 16  2  0
 12 13  2  0
 13 14  1  0
 13 29  1  0
 14 15  2  0
 14 30  1  0
 15 16  1  0
 15 31  1  0
 17 18  1  0
 17 32  1  0
 18 19  2  0
 18 33  1  0
 19 20  1  0
 20 21  1  0
 21 22  1  0
 21 34  1  0
 22 23  2  0
M  END

