
     RDKit          3D

 36 36  0  0  0  0  0  0  0  0999 V2000
    0.8886    0.6343    0.9077 C   0  0  0  0  0  0  0  0  0  0  0  0
    1.9413   -0.1993    0.3649 N   0  0  0  0  0  0  0  0  0  0  0  0
    2.6248   -1.0946    1.2969 C   0  0  1  0  0  0  0  0  0  0  0  0
    2.2366   -2.5617    1.0103 C   0  0  1  0  0  0  0  0  0  0  0  0
    0.7370   -2.9467    0.8860 C   0  0  0  0  0  0  0  0  0  0  0  0
    1.1200   -3.9116   -0.2637 C   0  0  0  0  0  0  0  0  0  0  0  0
    2.4503   -3.1328   -0.4191 C   0  0  0  0  0  0  0  0  0  0  0  0
    4.1889   -0.9180    1.2208 C   0  0  1  0  0  0  0  0  0  0  0  0
    4.5523    0.3389    0.6416 O   0  0  0  0  0  0  0  0  0  0  0  0
    4.4125    1.5016    1.4293 C   0  0  0  0  0  0  0  0  0  0  0  0
    4.9600   -1.1574    2.5448 C   0  0  1  0  0  0  0  0  0  0  0  0
    4.6383   -2.4756    3.2610 C   0  0  0  0  0  0  0  0  0  0  0  0
    6.4730   -1.0597    2.2944 C   0  0  0  0  0  0  0  0  0  0  0  0
    0.5069    1.3067    0.1226 H   0  0  0  0  0  0  0  0  0  0  0  0
    1.1940    1.2678    1.7725 H   0  0  0  0  0  0  0  0  0  0  0  0
    0.0358    0.0239    1.2484 H   0  0  0  0  0  0  0  0  0  0  0  0
    2.6282    0.3534   -0.1402 H   0  0  0  0  0  0  0  0  0  0  0  0
    2.3000   -0.8560    2.3313 H   0  0  0  0  0  0  0  0  0  0  0  0
    2.7146   -3.2271    1.7427 H   0  0  0  0  0  0  0  0  0  0  0  0
    0.1458   -2.1025    0.5036 H   0  0  0  0  0  0  0  0  0  0  0  0
    0.2374   -3.3659    1.7745 H   0  0  0  0  0  0  0  0  0  0  0  0
    0.4500   -3.9539   -1.1367 H   0  0  0  0  0  0  0  0  0  0  0  0
    1.2847   -4.9395    0.0978 H   0  0  0  0  0  0  0  0  0  0  0  0
    2.3570   -2.3299   -1.1660 H   0  0  0  0  0  0  0  0  0  0  0  0
    3.3665   -3.7118   -0.6179 H   0  0  0  0  0  0  0  0  0  0  0  0
    4.5632   -1.6406    0.4761 H   0  0  0  0  0  0  0  0  0  0  0  0
    4.4661    2.3609    0.7432 H   0  0  0  0  0  0  0  0  0  0  0  0
    5.2254    1.6107    2.1707 H   0  0  0  0  0  0  0  0  0  0  0  0
    3.4488    1.5483    1.9672 H   0  0  0  0  0  0  0  0  0  0  0  0
    4.6701   -0.3453    3.2363 H   0  0  0  0  0  0  0  0  0  0  0  0
    4.8515   -3.3487    2.6222 H   0  0  0  0  0  0  0  0  0  0  0  0
    3.5906   -2.5385    3.5891 H   0  0  0  0  0  0  0  0  0  0  0  0
    5.2666   -2.5694    4.1614 H   0  0  0  0  0  0  0  0  0  0  0  0
    6.8165   -1.9039    1.6722 H   0  0  0  0  0  0  0  0  0  0  0  0
    7.0327   -1.0963    3.2427 H   0  0  0  0  0  0  0  0  0  0  0  0
    6.7440   -0.1349    1.7664 H   0  0  0  0  0  0  0  0  0  0  0  0
  1  2  1  0
  1 14  1  0
  1 15  1  0
  1 16  1  0
  2  3  1  0
  2 17  1  0
  3  4  1  0
  3  8  1  0
  3 18  1  1
  4  5  1  0
  4  7  1  0
  4 19  1  1
  5  6  1  0
  5 20  1  0
  5 21  1  0
  6  7  1  0
  6 22  1  0
  6 23  1  0
  7 24  1  0
  7 25  1  0
  8  9  1  0
  8 11  1  0
  8 26  1  6
  9 10  1  0
 10 27  1  0
 10 28  1  0
 10 29  1  0
 11 12  1  0
 11 13  1  0
 11 30  1  1
 12 31  1  0
 12 32  1  0
 12 33  1  0
 13 34  1  0
 13 35  1  0
 13 36  1  0
M  END

