
     RDKit          3D

 86 91  0  0  0  0  0  0  0  0999 V2000
    0.4233    1.2727   -0.4436 C   0  0  0  0  0  0  0  0  0  0  0  0
    1.8262    0.9629   -0.2503 N   0  0  0  0  0  0  0  0  0  0  0  0
    2.1581   -0.4568   -0.2179 C   0  0  0  0  0  0  0  0  0  0  0  0
    2.1774   -1.1494   -1.5923 C   0  0  0  0  0  0  0  0  0  0  0  0
    2.9664   -0.4046   -2.7100 C   0  0  2  0  0  0  0  0  0  0  0  0
    4.4406   -0.8922   -2.9920 C   0  0  1  0  0  0  0  0  0  0  0  0
    5.3615   -1.1184   -1.7350 C   0  0  0  0  0  0  0  0  0  0  0  0
    5.1873   -2.2922   -0.7681 C   0  0  0  0  0  0  0  0  0  0  0  0
    5.1957   -3.6537   -1.1200 C   0  0  0  0  0  0  0  0  0  0  0  0
    5.1433   -4.6545   -0.1494 C   0  0  0  0  0  0  0  0  0  0  0  0
    5.1002   -4.3531    1.2229 C   0  0  0  0  0  0  0  0  0  0  0  0
    5.0410   -5.4240    2.2514 C   0  0  0  0  0  0  0  0  0  0  0  0
    5.7224   -6.6418    2.0747 C   0  0  0  0  0  0  0  0  0  0  0  0
    5.6675   -7.6480    3.0400 C   0  0  0  0  0  0  0  0  0  0  0  0
    4.9263   -7.4570    4.2092 C   0  0  0  0  0  0  0  0  0  0  0  0
    4.8476   -8.5249    5.2702 C   0  0  1  0  0  0  0  0  0  0  0  0
    5.5541   -9.6203    4.9455 F   0  0  0  0  0  0  0  0  0  0  0  0
    5.3160   -8.0815    6.4531 F   0  0  0  0  0  0  0  0  0  0  0  0
    3.5761   -8.9161    5.4837 F   0  0  0  0  0  0  0  0  0  0  0  0
    4.2407   -6.2505    4.4037 C   0  0  0  0  0  0  0  0  0  0  0  0
    4.2989   -5.2502    3.4370 C   0  0  0  0  0  0  0  0  0  0  0  0
    5.1281   -2.9948    1.5811 C   0  0  0  0  0  0  0  0  0  0  0  0
    5.1746   -1.9975    0.6079 C   0  0  0  0  0  0  0  0  0  0  0  0
    4.3814   -2.2917   -3.6966 C   0  0  0  0  0  0  0  0  0  0  0  0
    5.5395   -2.6994   -4.2897 N   0  0  0  0  0  0  0  0  0  0  0  0
    3.3966   -3.0045   -3.6485 O   0  0  0  0  0  0  0  0  0  0  0  0
    5.1188    0.0543   -3.9906 N   0  0  0  0  0  0  0  0  0  0  0  0
    6.2484    0.8667   -3.7200 C   0  0  0  0  0  0  0  0  0  0  0  0
    6.4398    1.5173   -2.3532 C   0  0  0  0  0  0  0  0  0  0  0  0
    7.0236    2.9486   -2.3993 C   0  0  0  0  0  0  0  0  0  0  0  0
    7.0113    3.6071   -1.0381 C   0  0  0  0  0  0  0  0  0  0  0  0
    6.0912    4.6101   -0.6923 C   0  0  0  0  0  0  0  0  0  0  0  0
    6.0961    5.1919    0.5782 C   0  0  0  0  0  0  0  0  0  0  0  0
    7.0241    4.7821    1.5396 C   0  0  0  0  0  0  0  0  0  0  0  0
    7.9405    3.7882    1.2107 C   0  0  0  0  0  0  0  0  0  0  0  0
    8.8430    3.3722    2.1033 F   0  0  0  0  0  0  0  0  0  0  0  0
    7.9306    3.2106   -0.0615 C   0  0  0  0  0  0  0  0  0  0  0  0
    8.8298    2.2534   -0.3433 F   0  0  0  0  0  0  0  0  0  0  0  0
    7.1079    1.2064   -4.7276 C   0  0  0  0  0  0  0  0  0  0  0  0
    6.9151    0.8792   -6.1391 C   0  0  0  0  0  0  0  0  0  0  0  0
    7.7277    1.1382   -7.0260 O   0  0  0  0  0  0  0  0  0  0  0  0
    5.5991    0.3041   -6.3689 C   0  0  0  0  0  0  0  0  0  0  0  0
    4.7797   -0.0790   -5.3444 C   0  0  0  0  0  0  0  0  0  0  0  0
    3.4387   -0.5433   -5.9059 C   0  0  0  0  0  0  0  0  0  0  0  0
    3.7507   -0.7853   -7.3988 C   0  0  0  0  0  0  0  0  0  0  0  0
    4.9594    0.1177   -7.7163 C   0  0  0  0  0  0  0  0  0  0  0  0
    2.7621    1.1294   -2.5727 C   0  0  0  0  0  0  0  0  0  0  0  0
    2.7455    1.6672   -1.1297 C   0  0  0  0  0  0  0  0  0  0  0  0
   -0.1741    0.7785    0.3399 H   0  0  0  0  0  0  0  0  0  0  0  0
   -0.0077    0.9685   -1.4237 H   0  0  0  0  0  0  0  0  0  0  0  0
    0.2662    2.3594   -0.3419 H   0  0  0  0  0  0  0  0  0  0  0  0
    1.4425   -0.9776    0.4398 H   0  0  0  0  0  0  0  0  0  0  0  0
    3.1405   -0.5543    0.2680 H   0  0  0  0  0  0  0  0  0  0  0  0
    1.1372   -1.2310   -1.9503 H   0  0  0  0  0  0  0  0  0  0  0  0
    2.5251   -2.1851   -1.4936 H   0  0  0  0  0  0  0  0  0  0  0  0
    2.4478   -0.6822   -3.6322 H   0  0  0  0  0  0  0  0  0  0  0  0
    5.3141   -0.2226   -1.1140 H   0  0  0  0  0  0  0  0  0  0  0  0
    6.3937   -1.1776   -2.1147 H   0  0  0  0  0  0  0  0  0  0  0  0
    5.2511   -3.9610   -2.1609 H   0  0  0  0  0  0  0  0  0  0  0  0
    5.1177   -5.6971   -0.4745 H   0  0  0  0  0  0  0  0  0  0  0  0
    6.3263   -6.7982    1.1786 H   0  0  0  0  0  0  0  0  0  0  0  0
    6.2098   -8.5824    2.8879 H   0  0  0  0  0  0  0  0  0  0  0  0
    3.6521   -6.0971    5.3110 H   0  0  0  0  0  0  0  0  0  0  0  0
    3.7389   -4.3257    3.5922 H   0  0  0  0  0  0  0  0  0  0  0  0
    5.1420   -2.7087    2.6351 H   0  0  0  0  0  0  0  0  0  0  0  0
    5.2247   -0.9553    0.9337 H   0  0  0  0  0  0  0  0  0  0  0  0
    6.2997   -2.0616   -4.4900 H   0  0  0  0  0  0  0  0  0  0  0  0
    5.5129   -3.5779   -4.7960 H   0  0  0  0  0  0  0  0  0  0  0  0
    7.0936    0.9130   -1.7078 H   0  0  0  0  0  0  0  0  0  0  0  0
    5.4701    1.5795   -1.8480 H   0  0  0  0  0  0  0  0  0  0  0  0
    6.4474    3.5638   -3.1062 H   0  0  0  0  0  0  0  0  0  0  0  0
    8.0593    2.9187   -2.7683 H   0  0  0  0  0  0  0  0  0  0  0  0
    5.3665    4.9415   -1.4401 H   0  0  0  0  0  0  0  0  0  0  0  0
    5.3737    5.9732    0.8241 H   0  0  0  0  0  0  0  0  0  0  0  0
    7.0553    5.2168    2.5406 H   0  0  0  0  0  0  0  0  0  0  0  0
    7.9648    1.8428   -4.5085 H   0  0  0  0  0  0  0  0  0  0  0  0
    2.7093    0.2784   -5.7743 H   0  0  0  0  0  0  0  0  0  0  0  0
    2.9986   -1.4288   -5.4345 H   0  0  0  0  0  0  0  0  0  0  0  0
    2.8790   -0.5984   -8.0430 H   0  0  0  0  0  0  0  0  0  0  0  0
    4.0351   -1.8417   -7.5352 H   0  0  0  0  0  0  0  0  0  0  0  0
    4.6510    1.0963   -8.1302 H   0  0  0  0  0  0  0  0  0  0  0  0
    5.6593   -0.3147   -8.4477 H   0  0  0  0  0  0  0  0  0  0  0  0
    1.7814    1.3598   -3.0228 H   0  0  0  0  0  0  0  0  0  0  0  0
    3.4944    1.6825   -3.1796 H   0  0  0  0  0  0  0  0  0  0  0  0
    2.4878    2.7397   -1.1396 H   0  0  0  0  0  0  0  0  0  0  0  0
    3.7541    1.6012   -0.6804 H   0  0  0  0  0  0  0  0  0  0  0  0
  1  2  1  0
  1 49  1  0
  1 50  1  0
  1 51  1  0
  2  3  1  0
  2 48  1  0
  3  4  1  0
  3 52  1  0
  3 53  1  0
  4  5  1  0
  4 54  1  0
  4 55  1  0
  5  6  1  0
  5 47  1  0
  5 56  1  6
  6  7  1  0
  6 24  1  6
  6 27  1  0
  7  8  1  0
  7 57  1  0
  7 58  1  0
  8  9  2  0
  8 23  1  0
  9 10  1  0
  9 59  1  0
 10 11  2  0
 10 60  1  0
 11 12  1  0
 11 22  1  0
 12 13  2  0
 12 21  1  0
 13 14  1  0
 13 61  1  0
 14 15  2  0
 14 62  1  0
 15 16  1  0
 15 20  1  0
 16 17  1  6
 16 18  1  0
 16 19  1  0
 20 21  2  0
 20 63  1  0
 21 64  1  0
 22 23  2  0
 22 65  1  0
 23 66  1  0
 24 25  1  0
 24 26  2  0
 25 67  1  0
 25 68  1  0
 27 28  1  0
 27 43  1  0
 28 29  1  0
 28 39  2  0
 29 30  1  0
 29 69  1  0
 29 70  1  0
 30 31  1  0
 30 71  1  0
 30 72  1  0
 31 32  2  0
 31 37  1  0
 32 33  1  0
 32 73  1  0
 33 34  2  0
 33 74  1  0
 34 35  1  0
 34 75  1  0
 35 36  1  0
 35 37  2  0
 37 38  1  0
 39 40  1  0
 39 76  1  0
 40 41  2  0
 40 42  1  0
 42 43  2  0
 42 46  1  0
 43 44  1  0
 44 45  1  0
 44 77  1  0
 44 78  1  0
 45 46  1  0
 45 79  1  0
 45 80  1  0
 46 81  1  0
 46 82  1  0
 47 48  1  0
 47 83  1  0
 47 84  1  0
 48 85  1  0
 48 86  1  0
M  END

