
     RDKit          3D

 44 47  0  0  0  0  0  0  0  0999 V2000
    1.1105    0.3826   -0.7738 C   0  0  0  0  0  0  0  0  0  0  0  0
    2.3775    0.3572   -0.1498 O   0  0  0  0  0  0  0  0  0  0  0  0
    2.9759    1.5164    0.1813 C   0  0  0  0  0  0  0  0  0  0  0  0
    2.4472    2.7972   -0.0275 C   0  0  0  0  0  0  0  0  0  0  0  0
    3.1611    3.9433    0.3598 C   0  0  0  0  0  0  0  0  0  0  0  0
    4.4077    3.8335    0.9590 C   0  0  0  0  0  0  0  0  0  0  0  0
    4.9647    2.5557    1.1817 C   0  0  0  0  0  0  0  0  0  0  0  0
    6.2524    2.3470    1.7961 C   0  0  0  0  0  0  0  0  0  0  0  0
    6.7371    1.0833    1.9821 C   0  0  0  0  0  0  0  0  0  0  0  0
    8.0145    0.8521    2.5877 C   0  0  0  0  0  0  0  0  0  0  0  0
    9.0519    0.6749    3.0778 N   0  0  0  0  0  0  0  0  0  0  0  0
    5.9643   -0.0851    1.5645 C   0  0  0  0  0  0  0  0  0  0  0  0
    6.3944   -1.2802    1.7257 N   0  0  0  0  0  0  0  0  0  0  0  0
    5.7960   -2.4603    1.3891 C   0  0  0  0  0  0  0  0  0  0  0  0
    4.2220   -2.5972    0.5941 S   0  0  0  0  0  0  0  0  0  0  0  0
    4.3293   -4.3258    0.5795 C   0  0  0  0  0  0  0  0  0  0  0  0
    5.4978   -4.7925    1.1484 C   0  0  0  0  0  0  0  0  0  0  0  0
    6.3427   -3.7305    1.6267 C   0  0  0  0  0  0  0  0  0  0  0  0
    7.6446   -4.0203    2.3316 C   0  0  0  0  0  0  0  0  0  0  0  0
    8.4541   -2.9649    2.5945 N   0  0  0  0  0  0  0  0  0  0  0  0
    7.9500   -5.1682    2.6387 O   0  0  0  0  0  0  0  0  0  0  0  0
    5.7775   -6.2771    1.2294 C   0  0  0  0  0  0  0  0  0  0  0  0
    4.8344   -7.0982    0.3385 C   0  0  0  0  0  0  0  0  0  0  0  0
    3.3797   -6.6339    0.4578 C   0  0  0  0  0  0  0  0  0  0  0  0
    3.2380   -5.1783   -0.0096 C   0  0  0  0  0  0  0  0  0  0  0  0
    4.7425    0.1583    0.9872 O   0  0  0  0  0  0  0  0  0  0  0  0
    4.2459    1.4127    0.7919 C   0  0  0  0  0  0  0  0  0  0  0  0
    0.8343   -0.6645   -0.9517 H   0  0  0  0  0  0  0  0  0  0  0  0
    1.1426    0.9162   -1.7403 H   0  0  0  0  0  0  0  0  0  0  0  0
    0.3470    0.8516   -0.1282 H   0  0  0  0  0  0  0  0  0  0  0  0
    1.4696    2.9104   -0.4961 H   0  0  0  0  0  0  0  0  0  0  0  0
    2.7223    4.9277    0.1837 H   0  0  0  0  0  0  0  0  0  0  0  0
    4.9672    4.7210    1.2619 H   0  0  0  0  0  0  0  0  0  0  0  0
    6.8396    3.2111    2.1127 H   0  0  0  0  0  0  0  0  0  0  0  0
    8.1486   -2.0132    2.4178 H   0  0  0  0  0  0  0  0  0  0  0  0
    9.3024   -3.1517    3.1144 H   0  0  0  0  0  0  0  0  0  0  0  0
    5.6917   -6.5963    2.2826 H   0  0  0  0  0  0  0  0  0  0  0  0
    6.8285   -6.4716    0.9763 H   0  0  0  0  0  0  0  0  0  0  0  0
    4.9204   -8.1655    0.5992 H   0  0  0  0  0  0  0  0  0  0  0  0
    5.1517   -7.0100   -0.7170 H   0  0  0  0  0  0  0  0  0  0  0  0
    3.0543   -6.7143    1.5104 H   0  0  0  0  0  0  0  0  0  0  0  0
    2.7096   -7.2807   -0.1318 H   0  0  0  0  0  0  0  0  0  0  0  0
    2.2464   -4.7758    0.2603 H   0  0  0  0  0  0  0  0  0  0  0  0
    3.2899   -5.1373   -1.1147 H   0  0  0  0  0  0  0  0  0  0  0  0
  1  2  1  0
  1 28  1  0
  1 29  1  0
  1 30  1  0
  2  3  1  0
  3  4  2  0
  3 27  1  0
  4  5  1  0
  4 31  1  0
  5  6  2  0
  5 32  1  0
  6  7  1  0
  6 33  1  0
  7  8  1  0
  7 27  2  0
  8  9  2  0
  8 34  1  0
  9 10  1  0
  9 12  1  0
 10 11  3  0
 12 13  2  0
 12 26  1  0
 13 14  1  0
 14 15  2  0
 14 18  1  0
 15 16  1  0
 16 17  2  0
 16 25  1  0
 17 18  1  0
 17 22  1  0
 18 19  2  0
 19 20  1  0
 19 21  1  0
 20 35  1  0
 20 36  1  0
 22 23  1  0
 22 37  1  0
 22 38  1  0
 23 24  1  0
 23 39  1  0
 23 40  1  0
 24 25  1  0
 24 41  1  0
 24 42  1  0
 25 43  1  0
 25 44  1  0
 26 27  1  0
M  CHG  2  15   1  21  -1
M  END

