
     RDKit          3D

 44 46  0  0  0  0  0  0  0  0999 V2000
    4.9782   -2.3698    0.5945 C   0  0  0  0  0  0  0  0  0  0  0  0
    4.2443   -1.1616    0.0729 C   0  0  0  0  0  0  0  0  0  0  0  0
    4.9347    0.0119   -0.2510 C   0  0  0  0  0  0  0  0  0  0  0  0
    6.2706    0.0294   -0.0870 F   0  0  0  0  0  0  0  0  0  0  0  0
    4.3184    1.1590   -0.7321 C   0  0  0  0  0  0  0  0  0  0  0  0
    2.9324    1.1475   -0.9144 C   0  0  0  0  0  0  0  0  0  0  0  0
    2.2994    2.4130   -1.4421 C   0  0  0  0  0  0  0  0  0  0  0  0
    1.0072    2.3079   -1.8729 N   0  0  0  0  0  0  0  0  0  0  0  0
    2.9113    3.4679   -1.4739 O   0  0  0  0  0  0  0  0  0  0  0  0
    2.1932    0.0021   -0.5936 C   0  0  0  0  0  0  0  0  0  0  0  0
    2.8390   -1.1457   -0.1058 C   0  0  0  0  0  0  0  0  0  0  0  0
    2.1316   -2.3145    0.2399 N   0  0  0  0  0  0  0  0  0  0  0  0
    0.8050   -2.5893    0.0647 C   0  0  0  0  0  0  0  0  0  0  0  0
   -0.0206   -1.8449   -0.4374 O   0  0  0  0  0  0  0  0  0  0  0  0
    0.3607   -3.9534    0.6260 C   0  0  1  0  0  0  0  0  0  0  0  0
   -0.9460   -4.4707    0.0241 C   0  0  0  0  0  0  0  0  0  0  0  0
   -0.8317   -5.9943    0.1557 C   0  0  0  0  0  0  0  0  0  0  0  0
    0.6151   -6.2533    0.1722 N   0  0  0  0  0  0  0  0  0  0  0  0
    1.1330   -7.5680    0.0500 C   0  0  0  0  0  0  0  0  0  0  0  0
    2.5085   -7.8136   -0.1336 C   0  0  0  0  0  0  0  0  0  0  0  0
    2.9802   -9.1187   -0.2639 C   0  0  0  0  0  0  0  0  0  0  0  0
    2.0933  -10.1976   -0.2151 C   0  0  0  0  0  0  0  0  0  0  0  0
    2.6924  -11.8304   -0.3819 Cl  0  0  0  0  0  0  0  0  0  0  0  0
    0.7285   -9.9714   -0.0328 C   0  0  0  0  0  0  0  0  0  0  0  0
    0.2537   -8.6659    0.0996 C   0  0  0  0  0  0  0  0  0  0  0  0
    1.3383   -5.1196    0.4567 C   0  0  0  0  0  0  0  0  0  0  0  0
    2.5517   -5.0394    0.5933 O   0  0  0  0  0  0  0  0  0  0  0  0
    6.0608   -2.1963    0.5933 H   0  0  0  0  0  0  0  0  0  0  0  0
    4.7747   -3.2668   -0.0132 H   0  0  0  0  0  0  0  0  0  0  0  0
    4.6792   -2.6104    1.6295 H   0  0  0  0  0  0  0  0  0  0  0  0
    4.8956    2.0542   -0.9639 H   0  0  0  0  0  0  0  0  0  0  0  0
    0.5555    1.4160   -2.0206 H   0  0  0  0  0  0  0  0  0  0  0  0
    0.5885    3.1354   -2.2798 H   0  0  0  0  0  0  0  0  0  0  0  0
    1.1121   -0.0290   -0.6920 H   0  0  0  0  0  0  0  0  0  0  0  0
    2.6807   -3.1126    0.5685 H   0  0  0  0  0  0  0  0  0  0  0  0
    0.2602   -3.8098    1.7198 H   0  0  0  0  0  0  0  0  0  0  0  0
   -1.0026   -4.1715   -1.0326 H   0  0  0  0  0  0  0  0  0  0  0  0
   -1.8401   -4.0737    0.5212 H   0  0  0  0  0  0  0  0  0  0  0  0
   -1.3042   -6.5256   -0.6835 H   0  0  0  0  0  0  0  0  0  0  0  0
   -1.2932   -6.3643    1.0890 H   0  0  0  0  0  0  0  0  0  0  0  0
    3.2051   -6.9803   -0.1630 H   0  0  0  0  0  0  0  0  0  0  0  0
    4.0467   -9.3002   -0.4070 H   0  0  0  0  0  0  0  0  0  0  0  0
    0.0368  -10.8142    0.0085 H   0  0  0  0  0  0  0  0  0  0  0  0
   -0.8156   -8.5203    0.2500 H   0  0  0  0  0  0  0  0  0  0  0  0
  1  2  1  0
  1 28  1  0
  1 29  1  0
  1 30  1  0
  2  3  2  0
  2 11  1  0
  3  4  1  0
  3  5  1  0
  5  6  2  0
  5 31  1  0
  6  7  1  0
  6 10  1  0
  7  8  1  0
  7  9  2  0
  8 32  1  0
  8 33  1  0
 10 11  2  0
 10 34  1  0
 11 12  1  0
 12 13  1  0
 12 35  1  0
 13 14  2  0
 13 15  1  0
 15 16  1  0
 15 26  1  0
 15 36  1  1
 16 17  1  0
 16 37  1  0
 16 38  1  0
 17 18  1  0
 17 39  1  0
 17 40  1  0
 18 19  1  0
 18 26  1  0
 19 20  2  0
 19 25  1  0
 20 21  1  0
 20 41  1  0
 21 22  2  0
 21 42  1  0
 22 23  1  0
 22 24  1  0
 24 25  2  0
 24 43  1  0
 25 44  1  0
 26 27  2  0
M  END

