
     RDKit          3D

 44 48  0  0  0  0  0  0  0  0999 V2000
    1.1791   -0.3160   -0.6629 F   0  0  0  0  0  0  0  0  0  0  0  0
    2.3345   -0.1492    0.0726 B   0  0  1  0  0  0  0  0  0  0  0  0
    2.1151   -0.2281    1.4278 F   0  0  0  0  0  0  0  0  0  0  0  0
    3.3556   -1.1242   -0.3360 O   0  0  0  0  0  0  0  0  0  0  0  0
    4.1433   -0.9469   -1.3783 C   0  0  0  0  0  0  0  0  0  0  0  0
    4.8150   -2.1571   -1.8676 C   0  0  0  0  0  0  0  0  0  0  0  0
    5.7927   -2.1377   -2.8814 C   0  0  0  0  0  0  0  0  0  0  0  0
    6.4037   -3.2954   -3.3458 C   0  0  0  0  0  0  0  0  0  0  0  0
    6.0641   -4.5531   -2.7660 C   0  0  0  0  0  0  0  0  0  0  0  0
    5.0905   -4.5882   -1.7274 C   0  0  0  0  0  0  0  0  0  0  0  0
    4.4848   -3.4086   -1.3129 C   0  0  0  0  0  0  0  0  0  0  0  0
    4.7298   -5.9180   -1.1054 C   0  0  0  0  0  0  0  0  0  0  0  0
    4.8562   -7.0351   -2.1410 C   0  0  0  0  0  0  0  0  0  0  0  0
    6.2586   -7.0342   -2.7382 C   0  0  0  0  0  0  0  0  0  0  0  0
    6.6701   -5.7153   -3.2036 N   0  0  0  0  0  0  0  0  0  0  0  0
    7.7690   -5.7137   -4.1604 C   0  0  0  0  0  0  0  0  0  0  0  0
    8.4681   -4.3621   -4.2492 C   0  0  0  0  0  0  0  0  0  0  0  0
    7.4344   -3.2542   -4.4512 C   0  0  0  0  0  0  0  0  0  0  0  0
    4.3231    0.3170   -1.9198 C   0  0  0  0  0  0  0  0  0  0  0  0
    3.7684    1.4724   -1.3047 C   0  0  0  0  0  0  0  0  0  0  0  0
    4.1035    2.7968   -1.6989 C   0  0  0  0  0  0  0  0  0  0  0  0
    3.5900    3.8793   -1.0139 C   0  0  0  0  0  0  0  0  0  0  0  0
    2.7312    3.6713    0.0867 C   0  0  0  0  0  0  0  0  0  0  0  0
    2.4156    2.3714    0.4258 C   0  0  0  0  0  0  0  0  0  0  0  0
    2.9007    1.3132   -0.2583 N   0  0  0  0  0  0  0  0  0  0  0  0
    6.0961   -1.1904   -3.3325 H   0  0  0  0  0  0  0  0  0  0  0  0
    3.7284   -3.4440   -0.5272 H   0  0  0  0  0  0  0  0  0  0  0  0
    3.7114   -5.8757   -0.6895 H   0  0  0  0  0  0  0  0  0  0  0  0
    5.4033   -6.1346   -0.2543 H   0  0  0  0  0  0  0  0  0  0  0  0
    4.1128   -6.8826   -2.9420 H   0  0  0  0  0  0  0  0  0  0  0  0
    4.6554   -8.0220   -1.6950 H   0  0  0  0  0  0  0  0  0  0  0  0
    6.3023   -7.7303   -3.5951 H   0  0  0  0  0  0  0  0  0  0  0  0
    6.9863   -7.4162   -1.9921 H   0  0  0  0  0  0  0  0  0  0  0  0
    7.3996   -6.0132   -5.1634 H   0  0  0  0  0  0  0  0  0  0  0  0
    8.4932   -6.4903   -3.8551 H   0  0  0  0  0  0  0  0  0  0  0  0
    9.1976   -4.3870   -5.0740 H   0  0  0  0  0  0  0  0  0  0  0  0
    9.0329   -4.1754   -3.3198 H   0  0  0  0  0  0  0  0  0  0  0  0
    6.9444   -3.3927   -5.4340 H   0  0  0  0  0  0  0  0  0  0  0  0
    7.9169   -2.2646   -4.4837 H   0  0  0  0  0  0  0  0  0  0  0  0
    4.9723    0.4639   -2.7791 H   0  0  0  0  0  0  0  0  0  0  0  0
    4.7850    2.9321   -2.5404 H   0  0  0  0  0  0  0  0  0  0  0  0
    3.8544    4.8951   -1.3192 H   0  0  0  0  0  0  0  0  0  0  0  0
    2.3173    4.5033    0.6571 H   0  0  0  0  0  0  0  0  0  0  0  0
    1.7538    2.1176    1.2556 H   0  0  0  0  0  0  0  0  0  0  0  0
  2  1  1  6
  2  3  1  0
  2  4  1  0
  2 25  1  0
  4  5  1  0
  5  6  1  0
  5 19  2  0
  6  7  2  0
  6 11  1  0
  7  8  1  0
  7 26  1  0
  8  9  2  0
  8 18  1  0
  9 10  1  0
  9 15  1  0
 10 11  2  0
 10 12  1  0
 11 27  1  0
 12 13  1  0
 12 28  1  0
 12 29  1  0
 13 14  1  0
 13 30  1  0
 13 31  1  0
 14 15  1  0
 14 32  1  0
 14 33  1  0
 15 16  1  0
 16 17  1  0
 16 34  1  0
 16 35  1  0
 17 18  1  0
 17 36  1  0
 17 37  1  0
 18 38  1  0
 18 39  1  0
 19 20  1  0
 19 40  1  0
 20 21  1  0
 20 25  2  0
 21 22  2  0
 21 41  1  0
 22 23  1  0
 22 42  1  0
 23 24  2  0
 23 43  1  0
 24 25  1  0
 24 44  1  0
M  CHG  2   2  -1  25   1
M  END

