
     RDKit          3D

 35 36  0  0  0  0  0  0  0  0999 V2000
    1.0502   -0.6813   -0.5494 C   0  0  0  0  0  0  0  0  0  0  0  0
    2.2096   -0.0884   -0.0143 O   0  0  0  0  0  0  0  0  0  0  0  0
    2.9880   -0.7915    0.8491 C   0  0  0  0  0  0  0  0  0  0  0  0
    4.1271   -0.1383    1.3354 C   0  0  0  0  0  0  0  0  0  0  0  0
    4.9714   -0.8042    2.2245 C   0  0  0  0  0  0  0  0  0  0  0  0
    4.7218   -2.1077    2.6630 C   0  0  0  0  0  0  0  0  0  0  0  0
    5.6460   -2.8567    3.6269 C   0  0  1  0  0  0  0  0  0  0  0  0
    6.9804   -2.2923    3.8118 N   0  0  0  0  0  0  0  0  0  0  0  0
    5.0249   -3.0530    5.0105 C   0  0  0  0  0  0  0  0  0  0  0  0
    4.2046   -2.0695    5.5823 C   0  0  0  0  0  0  0  0  0  0  0  0
    3.6777   -2.1881    6.8702 C   0  0  0  0  0  0  0  0  0  0  0  0
    3.9795   -3.3295    7.6054 C   0  0  0  0  0  0  0  0  0  0  0  0
    3.4808   -3.4716    8.8423 F   0  0  0  0  0  0  0  0  0  0  0  0
    4.7868   -4.3377    7.0871 C   0  0  0  0  0  0  0  0  0  0  0  0
    5.3059   -4.1853    5.7984 C   0  0  0  0  0  0  0  0  0  0  0  0
    6.3200   -5.4766    5.1880 Cl  0  0  0  0  0  0  0  0  0  0  0  0
    3.5725   -2.7528    2.1556 C   0  0  0  0  0  0  0  0  0  0  0  0
    3.3744   -4.0239    2.5947 O   0  0  0  0  0  0  0  0  0  0  0  0
    2.2555   -4.7591    2.1577 C   0  0  0  0  0  0  0  0  0  0  0  0
    2.7082   -2.1072    1.2579 C   0  0  0  0  0  0  0  0  0  0  0  0
    0.5916    0.0667   -1.2103 H   0  0  0  0  0  0  0  0  0  0  0  0
    0.3231   -0.9532    0.2377 H   0  0  0  0  0  0  0  0  0  0  0  0
    1.2831   -1.5842   -1.1433 H   0  0  0  0  0  0  0  0  0  0  0  0
    4.3334    0.8799    1.0019 H   0  0  0  0  0  0  0  0  0  0  0  0
    5.8664   -0.2920    2.5857 H   0  0  0  0  0  0  0  0  0  0  0  0
    5.7834   -3.8650    3.2077 H   0  0  0  0  0  0  0  0  0  0  0  0
    6.9397   -1.3802    4.2656 H   0  0  0  0  0  0  0  0  0  0  0  0
    7.4542   -2.1712    2.9168 H   0  0  0  0  0  0  0  0  0  0  0  0
    3.9628   -1.1837    4.9905 H   0  0  0  0  0  0  0  0  0  0  0  0
    3.0396   -1.4165    7.3045 H   0  0  0  0  0  0  0  0  0  0  0  0
    5.0071   -5.2244    7.6817 H   0  0  0  0  0  0  0  0  0  0  0  0
    2.3162   -5.7401    2.6477 H   0  0  0  0  0  0  0  0  0  0  0  0
    2.2608   -4.9058    1.0624 H   0  0  0  0  0  0  0  0  0  0  0  0
    1.3063   -4.2735    2.4476 H   0  0  0  0  0  0  0  0  0  0  0  0
    1.8302   -2.6250    0.8804 H   0  0  0  0  0  0  0  0  0  0  0  0
  1  2  1  0
  1 21  1  0
  1 22  1  0
  1 23  1  0
  2  3  1  0
  3  4  2  0
  3 20  1  0
  4  5  1  0
  4 24  1  0
  5  6  2  0
  5 25  1  0
  6  7  1  0
  6 17  1  0
  7  8  1  0
  7  9  1  0
  7 26  1  6
  8 27  1  0
  8 28  1  0
  9 10  2  0
  9 15  1  0
 10 11  1  0
 10 29  1  0
 11 12  2  0
 11 30  1  0
 12 13  1  0
 12 14  1  0
 14 15  2  0
 14 31  1  0
 15 16  1  0
 17 18  1  0
 17 20  2  0
 18 19  1  0
 19 32  1  0
 19 33  1  0
 19 34  1  0
 20 35  1  0
M  END

