
     RDKit          3D

 71 74  0  0  0  0  0  0  0  0999 V2000
    1.0701   -1.3166    0.6820 C   0  0  0  0  0  0  0  0  0  0  0  0
    2.5829   -1.1267    0.5630 C   0  0  0  0  0  0  0  0  0  0  0  0
    3.1613   -1.6221   -0.7663 C   0  0  0  0  0  0  0  0  0  0  0  0
    4.6756   -1.4335   -0.8934 C   0  0  0  0  0  0  0  0  0  0  0  0
    5.2535   -1.9318   -2.2220 C   0  0  0  0  0  0  0  0  0  0  0  0
    6.7671   -1.7144   -2.3372 C   0  0  0  0  0  0  0  0  0  0  0  0
    7.3637   -2.3224   -3.6193 C   0  0  1  0  0  0  0  0  0  0  0  0
    6.8908   -1.7084   -4.9554 C   0  0  0  0  0  0  0  0  0  0  0  0
    7.0423   -0.2008   -5.1849 C   0  0  0  0  0  0  0  0  0  0  0  0
    6.4579    0.2453   -6.5298 C   0  0  0  0  0  0  0  0  0  0  0  0
    6.5945    1.7474   -6.7943 C   0  0  0  0  0  0  0  0  0  0  0  0
    6.0139    2.1990   -8.1380 C   0  0  0  0  0  0  0  0  0  0  0  0
    6.1561    3.7001   -8.3939 C   0  0  0  0  0  0  0  0  0  0  0  0
    8.8511   -2.4813   -3.5504 N   0  0  0  0  0  0  0  0  0  0  0  0
    9.6703   -1.4048   -3.1812 C   0  0  0  0  0  0  0  0  0  0  0  0
    9.2077   -0.3003   -2.9547 O   0  0  0  0  0  0  0  0  0  0  0  0
   11.1369   -1.6585   -3.0735 C   0  0  0  0  0  0  0  0  0  0  0  0
   11.9691   -0.6196   -2.6875 C   0  0  0  0  0  0  0  0  0  0  0  0
   13.3616   -0.8243   -2.6023 C   0  0  0  0  0  0  0  0  0  0  0  0
   13.9110   -2.0614   -2.8867 C   0  0  0  0  0  0  0  0  0  0  0  0
   13.0916   -3.1617   -3.2670 C   0  0  0  0  0  0  0  0  0  0  0  0
   13.6074   -4.4675   -3.5806 C   0  0  0  0  0  0  0  0  0  0  0  0
   15.0536   -4.8028   -3.4489 C   0  0  0  0  0  0  0  0  0  0  0  0
   15.7333   -4.6496   -2.2255 C   0  0  0  0  0  0  0  0  0  0  0  0
   17.0768   -5.0120   -2.1046 C   0  0  0  0  0  0  0  0  0  0  0  0
   17.7685   -5.5306   -3.2037 C   0  0  0  0  0  0  0  0  0  0  0  0
   17.1050   -5.6906   -4.4235 C   0  0  0  0  0  0  0  0  0  0  0  0
   15.7597   -5.3340   -4.5438 C   0  0  0  0  0  0  0  0  0  0  0  0
   12.7240   -5.4493   -4.0205 C   0  0  0  0  0  0  0  0  0  0  0  0
   11.3412   -5.2106   -4.1329 C   0  0  0  0  0  0  0  0  0  0  0  0
   10.8152   -3.9719   -3.8040 C   0  0  0  0  0  0  0  0  0  0  0  0
   11.6800   -2.9343   -3.3754 C   0  0  0  0  0  0  0  0  0  0  0  0
    9.3477   -3.7535   -3.9060 C   0  0  0  0  0  0  0  0  0  0  0  0
    8.6002   -4.6410   -4.2783 O   0  0  0  0  0  0  0  0  0  0  0  0
    0.6896   -0.9501    1.6489 H   0  0  0  0  0  0  0  0  0  0  0  0
    0.7915   -2.3806    0.5969 H   0  0  0  0  0  0  0  0  0  0  0  0
    0.5337   -0.7728   -0.1139 H   0  0  0  0  0  0  0  0  0  0  0  0
    3.0872   -1.6509    1.3953 H   0  0  0  0  0  0  0  0  0  0  0  0
    2.8318   -0.0572    0.6901 H   0  0  0  0  0  0  0  0  0  0  0  0
    2.6566   -1.0986   -1.6001 H   0  0  0  0  0  0  0  0  0  0  0  0
    2.9142   -2.6928   -0.8941 H   0  0  0  0  0  0  0  0  0  0  0  0
    5.1798   -1.9544   -0.0582 H   0  0  0  0  0  0  0  0  0  0  0  0
    4.9226   -0.3629   -0.7691 H   0  0  0  0  0  0  0  0  0  0  0  0
    4.7349   -1.4168   -3.0503 H   0  0  0  0  0  0  0  0  0  0  0  0
    5.0198   -3.0062   -2.3420 H   0  0  0  0  0  0  0  0  0  0  0  0
    7.2603   -2.1970   -1.4748 H   0  0  0  0  0  0  0  0  0  0  0  0
    7.0002   -0.6441   -2.2618 H   0  0  0  0  0  0  0  0  0  0  0  0
    7.0248   -3.3647   -3.6580 H   0  0  0  0  0  0  0  0  0  0  0  0
    5.8228   -1.9706   -5.0583 H   0  0  0  0  0  0  0  0  0  0  0  0
    7.3962   -2.2601   -5.7671 H   0  0  0  0  0  0  0  0  0  0  0  0
    8.1017    0.0927   -5.1284 H   0  0  0  0  0  0  0  0  0  0  0  0
    6.5434    0.3543   -4.3714 H   0  0  0  0  0  0  0  0  0  0  0  0
    5.3894   -0.0378   -6.5804 H   0  0  0  0  0  0  0  0  0  0  0  0
    6.9512   -0.3141   -7.3471 H   0  0  0  0  0  0  0  0  0  0  0  0
    7.6627    2.0302   -6.7453 H   0  0  0  0  0  0  0  0  0  0  0  0
    6.1018    2.3080   -5.9778 H   0  0  0  0  0  0  0  0  0  0  0  0
    4.9462    1.9164   -8.1853 H   0  0  0  0  0  0  0  0  0  0  0  0
    6.5068    1.6377   -8.9530 H   0  0  0  0  0  0  0  0  0  0  0  0
    5.6412    4.2898   -7.6168 H   0  0  0  0  0  0  0  0  0  0  0  0
    5.7287    3.9889   -9.3677 H   0  0  0  0  0  0  0  0  0  0  0  0
    7.2152    4.0087   -8.3908 H   0  0  0  0  0  0  0  0  0  0  0  0
   11.5215    0.3512   -2.4673 H   0  0  0  0  0  0  0  0  0  0  0  0
   14.0126    0.0053   -2.3168 H   0  0  0  0  0  0  0  0  0  0  0  0
   14.9916   -2.1967   -2.8327 H   0  0  0  0  0  0  0  0  0  0  0  0
   15.1963   -4.2645   -1.3555 H   0  0  0  0  0  0  0  0  0  0  0  0
   17.5840   -4.8949   -1.1435 H   0  0  0  0  0  0  0  0  0  0  0  0
   18.8203   -5.8115   -3.1085 H   0  0  0  0  0  0  0  0  0  0  0  0
   17.6377   -6.0931   -5.2888 H   0  0  0  0  0  0  0  0  0  0  0  0
   15.2491   -5.4529   -5.5026 H   0  0  0  0  0  0  0  0  0  0  0  0
   13.1131   -6.4423   -4.2564 H   0  0  0  0  0  0  0  0  0  0  0  0
   10.6599   -5.9962   -4.4645 H   0  0  0  0  0  0  0  0  0  0  0  0
  1  2  1  0
  1 35  1  0
  1 36  1  0
  1 37  1  0
  2  3  1  0
  2 38  1  0
  2 39  1  0
  3  4  1  0
  3 40  1  0
  3 41  1  0
  4  5  1  0
  4 42  1  0
  4 43  1  0
  5  6  1  0
  5 44  1  0
  5 45  1  0
  6  7  1  0
  6 46  1  0
  6 47  1  0
  7  8  1  0
  7 14  1  0
  7 48  1  6
  8  9  1  0
  8 49  1  0
  8 50  1  0
  9 10  1  0
  9 51  1  0
  9 52  1  0
 10 11  1  0
 10 53  1  0
 10 54  1  0
 11 12  1  0
 11 55  1  0
 11 56  1  0
 12 13  1  0
 12 57  1  0
 12 58  1  0
 13 59  1  0
 13 60  1  0
 13 61  1  0
 14 15  1  0
 14 33  1  0
 15 16  2  0
 15 17  1  0
 17 18  1  0
 17 32  2  0
 18 19  2  0
 18 62  1  0
 19 20  1  0
 19 63  1  0
 20 21  2  0
 20 64  1  0
 21 22  1  0
 21 32  1  0
 22 23  1  0
 22 29  2  0
 23 24  2  0
 23 28  1  0
 24 25  1  0
 24 65  1  0
 25 26  2  0
 25 66  1  0
 26 27  1  0
 26 67  1  0
 27 28  2  0
 27 68  1  0
 28 69  1  0
 29 30  1  0
 29 70  1  0
 30 31  2  0
 30 71  1  0
 31 32  1  0
 31 33  1  0
 33 34  2  0
M  END

