
     RDKit          3D

 48 49  0  0  0  0  0  0  0  0999 V2000
    5.0960    2.4025    0.5397 C   0  0  0  0  0  0  0  0  0  0  0  0
    4.5850    0.9632    0.4727 C   0  0  0  0  0  0  0  0  0  0  0  0
    5.4311    0.0863   -0.4377 C   0  0  0  0  0  0  0  0  0  0  0  0
    4.8940   -1.2273   -0.4232 O   0  0  0  0  0  0  0  0  0  0  0  0
    5.5039   -2.2118   -1.1280 C   0  0  0  0  0  0  0  0  0  0  0  0
    6.6295   -2.0323   -1.9412 C   0  0  0  0  0  0  0  0  0  0  0  0
    7.1962   -3.1145   -2.6245 C   0  0  0  0  0  0  0  0  0  0  0  0
    6.6655   -4.4000   -2.4813 C   0  0  0  0  0  0  0  0  0  0  0  0
    7.2827   -5.5089   -3.1226 N   0  0  0  0  0  0  0  0  0  0  0  0
    6.5089   -6.5148   -4.2336 S   0  0  1  0  0  0  0  0  0  0  0  0
    7.5327   -7.4811   -4.6243 O   0  0  0  0  0  0  0  0  0  0  0  0
    5.2238   -6.9006   -3.6572 O   0  0  0  0  0  0  0  0  0  0  0  0
    6.1517   -5.4942   -5.6773 C   0  0  0  0  0  0  0  0  0  0  0  0
    7.0831   -5.4449   -6.7199 C   0  0  0  0  0  0  0  0  0  0  0  0
    6.8272   -4.6362   -7.8250 C   0  0  0  0  0  0  0  0  0  0  0  0
    5.6398   -3.8807   -7.8832 C   0  0  0  0  0  0  0  0  0  0  0  0
    5.3779   -3.0419   -9.0204 C   0  0  0  0  0  0  0  0  0  0  0  0
    5.1680   -2.3611   -9.9370 N   0  0  0  0  0  0  0  0  0  0  0  0
    4.7064   -3.9515   -6.8316 C   0  0  0  0  0  0  0  0  0  0  0  0
    4.9602   -4.7635   -5.7276 C   0  0  0  0  0  0  0  0  0  0  0  0
    5.5405   -4.5899   -1.6603 C   0  0  0  0  0  0  0  0  0  0  0  0
    4.9511   -3.5141   -1.0004 C   0  0  0  0  0  0  0  0  0  0  0  0
    3.8995   -3.7486   -0.1671 O   0  0  0  0  0  0  0  0  0  0  0  0
    2.6144   -3.2614   -0.5669 C   0  0  0  0  0  0  0  0  0  0  0  0
    1.6230   -3.5523    0.5483 C   0  0  0  0  0  0  0  0  0  0  0  0
    1.9424   -2.8296    1.8572 C   0  0  0  0  0  0  0  0  0  0  0  0
    4.4656    3.0142    1.2030 H   0  0  0  0  0  0  0  0  0  0  0  0
    5.0929    2.8818   -0.4536 H   0  0  0  0  0  0  0  0  0  0  0  0
    6.1270    2.4494    0.9281 H   0  0  0  0  0  0  0  0  0  0  0  0
    3.5432    0.9432    0.1103 H   0  0  0  0  0  0  0  0  0  0  0  0
    4.5736    0.5107    1.4783 H   0  0  0  0  0  0  0  0  0  0  0  0
    6.4819    0.0670   -0.0900 H   0  0  0  0  0  0  0  0  0  0  0  0
    5.4324    0.4862   -1.4704 H   0  0  0  0  0  0  0  0  0  0  0  0
    7.0772   -1.0451   -2.0545 H   0  0  0  0  0  0  0  0  0  0  0  0
    8.0669   -2.9500   -3.2645 H   0  0  0  0  0  0  0  0  0  0  0  0
    8.2654   -5.4050   -3.3648 H   0  0  0  0  0  0  0  0  0  0  0  0
    7.9879   -6.0530   -6.6652 H   0  0  0  0  0  0  0  0  0  0  0  0
    7.5390   -4.5896   -8.6512 H   0  0  0  0  0  0  0  0  0  0  0  0
    3.7824   -3.3734   -6.8893 H   0  0  0  0  0  0  0  0  0  0  0  0
    4.2368   -4.8467   -4.9153 H   0  0  0  0  0  0  0  0  0  0  0  0
    5.1192   -5.5847   -1.5216 H   0  0  0  0  0  0  0  0  0  0  0  0
    2.3100   -3.7708   -1.5008 H   0  0  0  0  0  0  0  0  0  0  0  0
    2.6684   -2.1776   -0.7677 H   0  0  0  0  0  0  0  0  0  0  0  0
    1.5962   -4.6431    0.7148 H   0  0  0  0  0  0  0  0  0  0  0  0
    0.6198   -3.2665    0.1858 H   0  0  0  0  0  0  0  0  0  0  0  0
    2.9454   -3.1042    2.2163 H   0  0  0  0  0  0  0  0  0  0  0  0
    1.2139   -3.0856    2.6427 H   0  0  0  0  0  0  0  0  0  0  0  0
    1.9241   -1.7349    1.7241 H   0  0  0  0  0  0  0  0  0  0  0  0
  1  2  1  0
  1 27  1  0
  1 28  1  0
  1 29  1  0
  2  3  1  0
  2 30  1  0
  2 31  1  0
  3  4  1  0
  3 32  1  0
  3 33  1  0
  4  5  1  0
  5  6  2  0
  5 22  1  0
  6  7  1  0
  6 34  1  0
  7  8  2  0
  7 35  1  0
  8  9  1  0
  8 21  1  0
 10  9  1  1
  9 36  1  0
 10 11  2  0
 10 12  2  0
 10 13  1  0
 13 14  2  0
 13 20  1  0
 14 15  1  0
 14 37  1  0
 15 16  2  0
 15 38  1  0
 16 17  1  0
 16 19  1  0
 17 18  3  0
 19 20  2  0
 19 39  1  0
 20 40  1  0
 21 22  2  0
 21 41  1  0
 22 23  1  0
 23 24  1  0
 24 25  1  0
 24 42  1  0
 24 43  1  0
 25 26  1  0
 25 44  1  0
 25 45  1  0
 26 46  1  0
 26 47  1  0
 26 48  1  0
M  END

