
     RDKit          3D

 42 43  0  0  0  0  0  0  0  0999 V2000
    1.3664    0.5587   -0.7640 C   0  0  0  0  0  0  0  0  0  0  0  0
    2.0956   -0.3490    0.0379 O   0  0  0  0  0  0  0  0  0  0  0  0
    2.7490   -1.3815   -0.6676 C   0  0  1  0  0  0  0  0  0  0  0  0
    3.0863   -1.0226   -1.6567 H   0  0  0  0  0  0  0  0  0  0  0  0
    3.9908   -1.7648    0.1651 C   0  0  2  0  0  0  0  0  0  0  0  0
    4.4439   -0.8427    0.5583 H   0  0  0  0  0  0  0  0  0  0  0  0
    4.9387   -2.4571   -0.6632 O   0  0  0  0  0  0  0  0  0  0  0  0
    5.8517   -1.7984   -1.4102 C   0  0  0  0  0  0  0  0  0  0  0  0
    5.9248   -0.3974   -1.5371 C   0  0  0  0  0  0  0  0  0  0  0  0
    6.9172    0.1760   -2.3319 C   0  0  0  0  0  0  0  0  0  0  0  0
    7.8248   -0.6432   -3.0006 C   0  0  0  0  0  0  0  0  0  0  0  0
    8.8645   -0.0313   -3.8404 N   0  0  0  0  0  0  0  0  0  0  0  0
    8.8899    1.1883   -3.9134 O   0  0  0  0  0  0  0  0  0  0  0  0
    9.6407   -0.7800   -4.4149 O   0  0  0  0  0  0  0  0  0  0  0  0
    7.7619   -2.0373   -2.8911 C   0  0  0  0  0  0  0  0  0  0  0  0
    6.7779   -2.6093   -2.0985 C   0  0  0  0  0  0  0  0  0  0  0  0
    3.7278   -2.5448    1.2748 O   0  0  0  0  0  0  0  0  0  0  0  0
    2.8727   -3.6874    1.1525 C   0  0  2  0  0  0  0  0  0  0  0  0
    2.6198   -3.9428    2.1958 H   0  0  0  0  0  0  0  0  0  0  0  0
    3.6244   -4.8940    0.5555 C   0  0  0  0  0  0  0  0  0  0  0  0
    2.8166   -6.0667    0.5690 O   0  0  0  0  0  0  0  0  0  0  0  0
    1.5508   -3.2996    0.4570 C   0  0  2  0  0  0  0  0  0  0  0  0
    1.0794   -2.5399    1.1030 H   0  0  0  0  0  0  0  0  0  0  0  0
    0.6589   -4.3727    0.3364 O   0  0  0  0  0  0  0  0  0  0  0  0
    1.7880   -2.5717   -0.8684 C   0  0  2  0  0  0  0  0  0  0  0  0
    0.8286   -2.1973   -1.2513 H   0  0  0  0  0  0  0  0  0  0  0  0
    2.3152   -3.5084   -1.8239 O   0  0  0  0  0  0  0  0  0  0  0  0
    2.1104   -3.2362   -3.1157 C   0  0  0  0  0  0  0  0  0  0  0  0
    1.5527   -2.2615   -3.5553 O   0  0  0  0  0  0  0  0  0  0  0  0
    2.6343   -4.2242   -3.8478 O   0  0  0  0  0  0  0  0  0  0  0  0
    0.8797    1.2724   -0.0848 H   0  0  0  0  0  0  0  0  0  0  0  0
    0.5904    0.0592   -1.3713 H   0  0  0  0  0  0  0  0  0  0  0  0
    2.0317    1.1156   -1.4513 H   0  0  0  0  0  0  0  0  0  0  0  0
    5.2159    0.2563   -1.0299 H   0  0  0  0  0  0  0  0  0  0  0  0
    6.9949    1.2571   -2.4451 H   0  0  0  0  0  0  0  0  0  0  0  0
    8.4879   -2.6468   -3.4286 H   0  0  0  0  0  0  0  0  0  0  0  0
    6.7013   -3.6922   -1.9883 H   0  0  0  0  0  0  0  0  0  0  0  0
    4.5619   -5.0337    1.1238 H   0  0  0  0  0  0  0  0  0  0  0  0
    3.8895   -4.7171   -0.4918 H   0  0  0  0  0  0  0  0  0  0  0  0
    2.6706   -6.3374    1.4865 H   0  0  0  0  0  0  0  0  0  0  0  0
    1.1781   -5.1623    0.1008 H   0  0  0  0  0  0  0  0  0  0  0  0
    2.4733   -3.9969   -4.7770 H   0  0  0  0  0  0  0  0  0  0  0  0
  1  2  1  0
  1 31  1  0
  1 32  1  0
  1 33  1  0
  2  3  1  0
  3  4  1  6
  3  5  1  0
  3 25  1  0
  5  6  1  1
  5  7  1  0
  5 17  1  0
  7  8  1  0
  8  9  2  0
  8 16  1  0
  9 10  1  0
  9 34  1  0
 10 11  2  0
 10 35  1  0
 11 12  1  0
 11 15  1  0
 12 13  2  0
 12 14  1  0
 15 16  2  0
 15 36  1  0
 16 37  1  0
 17 18  1  0
 18 19  1  1
 18 20  1  0
 18 22  1  0
 20 21  1  0
 20 38  1  0
 20 39  1  0
 21 40  1  0
 22 23  1  1
 22 24  1  0
 22 25  1  0
 24 41  1  0
 25 26  1  6
 25 27  1  0
 27 28  1  0
 28 29  2  0
 28 30  1  0
 30 42  1  0
M  CHG  2  12   1  14  -1
M  END

