
     RDKit          3D

 47 49  0  0  0  0  0  0  0  0999 V2000
    1.5639   -0.7490    0.9031 C   0  0  0  0  0  0  0  0  0  0  0  0
    2.4595   -0.1210   -0.0032 O   0  0  0  0  0  0  0  0  0  0  0  0
    3.1303    0.9646    0.4255 C   0  0  0  0  0  0  0  0  0  0  0  0
    4.0117    1.5831   -0.4849 C   0  0  0  0  0  0  0  0  0  0  0  0
    4.7090    2.7012   -0.0515 C   0  0  0  0  0  0  0  0  0  0  0  0
    4.5311    3.1924    1.2588 C   0  0  0  0  0  0  0  0  0  0  0  0
    5.2961    4.3791    1.7936 C   0  0  0  0  0  0  0  0  0  0  0  0
    6.6422    4.0057    2.4797 C   0  0  1  0  0  0  0  0  0  0  0  0
    7.5350    3.2247    1.6254 N   0  0  0  0  0  0  0  0  0  0  0  0
    7.4153    5.2567    2.9809 C   0  0  2  0  0  0  0  0  0  0  0  0
    8.7252    4.8884    3.7081 C   0  0  0  0  0  0  0  0  0  0  0  0
    8.4662    4.4540    5.1475 C   0  0  0  0  0  0  0  0  0  0  0  0
    7.7713    5.4435    5.8852 O   0  0  0  0  0  0  0  0  0  0  0  0
    6.4951    5.8316    5.3559 C   0  0  2  0  0  0  0  0  0  0  0  0
    6.0310    6.9937    6.2496 C   0  0  0  0  0  0  0  0  0  0  0  0
    5.6023    6.3368    7.5759 C   0  0  0  0  0  0  0  0  0  0  0  0
    5.1998    4.8801    7.2056 C   0  0  0  0  0  0  0  0  0  0  0  0
    5.4312    4.7554    5.6840 C   0  0  0  0  0  0  0  0  0  0  0  0
    6.6354    6.2444    3.8788 C   0  0  0  0  0  0  0  0  0  0  0  0
    3.6230    2.4904    2.0578 C   0  0  0  0  0  0  0  0  0  0  0  0
    2.9410    1.4097    1.6592 N   0  0  0  0  0  0  0  0  0  0  0  0
    1.1303   -1.5984    0.3589 H   0  0  0  0  0  0  0  0  0  0  0  0
    0.7677   -0.0587    1.2241 H   0  0  0  0  0  0  0  0  0  0  0  0
    2.0881   -1.1048    1.8043 H   0  0  0  0  0  0  0  0  0  0  0  0
    4.1182    1.1798   -1.4931 H   0  0  0  0  0  0  0  0  0  0  0  0
    5.3916    3.2119   -0.7371 H   0  0  0  0  0  0  0  0  0  0  0  0
    4.6550    4.9159    2.5087 H   0  0  0  0  0  0  0  0  0  0  0  0
    5.5101    5.0855    0.9712 H   0  0  0  0  0  0  0  0  0  0  0  0
    6.3967    3.3601    3.3397 H   0  0  0  0  0  0  0  0  0  0  0  0
    7.7571    3.7399    0.7711 H   0  0  0  0  0  0  0  0  0  0  0  0
    7.0960    2.3516    1.3370 H   0  0  0  0  0  0  0  0  0  0  0  0
    7.6868    5.8115    2.0619 H   0  0  0  0  0  0  0  0  0  0  0  0
    9.3828    5.7744    3.7287 H   0  0  0  0  0  0  0  0  0  0  0  0
    9.2458    4.0903    3.1600 H   0  0  0  0  0  0  0  0  0  0  0  0
    9.4160    4.2925    5.6810 H   0  0  0  0  0  0  0  0  0  0  0  0
    7.9214    3.4885    5.1688 H   0  0  0  0  0  0  0  0  0  0  0  0
    5.1769    7.4932    5.7620 H   0  0  0  0  0  0  0  0  0  0  0  0
    6.8341    7.7366    6.3677 H   0  0  0  0  0  0  0  0  0  0  0  0
    4.7821    6.8892    8.0599 H   0  0  0  0  0  0  0  0  0  0  0  0
    6.4460    6.3296    8.2810 H   0  0  0  0  0  0  0  0  0  0  0  0
    4.1572    4.6494    7.4744 H   0  0  0  0  0  0  0  0  0  0  0  0
    5.8324    4.1607    7.7464 H   0  0  0  0  0  0  0  0  0  0  0  0
    4.5079    4.9932    5.1292 H   0  0  0  0  0  0  0  0  0  0  0  0
    5.7310    3.7407    5.3849 H   0  0  0  0  0  0  0  0  0  0  0  0
    7.1981    7.1934    3.8715 H   0  0  0  0  0  0  0  0  0  0  0  0
    5.6421    6.4799    3.4674 H   0  0  0  0  0  0  0  0  0  0  0  0
    3.4300    2.8269    3.0846 H   0  0  0  0  0  0  0  0  0  0  0  0
  1  2  1  0
  1 22  1  0
  1 23  1  0
  1 24  1  0
  2  3  1  0
  3  4  2  0
  3 21  1  0
  4  5  1  0
  4 25  1  0
  5  6  2  0
  5 26  1  0
  6  7  1  0
  6 20  1  0
  7  8  1  0
  7 27  1  0
  7 28  1  0
  8  9  1  0
  8 10  1  0
  8 29  1  1
  9 30  1  0
  9 31  1  0
 10 11  1  0
 10 19  1  0
 10 32  1  6
 11 12  1  0
 11 33  1  0
 11 34  1  0
 12 13  1  0
 12 35  1  0
 12 36  1  0
 14 13  1  1
 14 15  1  0
 14 18  1  0
 14 19  1  0
 15 16  1  0
 15 37  1  0
 15 38  1  0
 16 17  1  0
 16 39  1  0
 16 40  1  0
 17 18  1  0
 17 41  1  0
 17 42  1  0
 18 43  1  0
 18 44  1  0
 19 45  1  0
 19 46  1  0
 20 21  2  0
 20 47  1  0
M  END

