
     RDKit          3D

 38 39  0  0  0  0  0  0  0  0999 V2000
    2.2145    1.1565  -11.2608 C   0  0  0  0  0  0  0  0  0  0  0  0
    1.6787    2.3309  -10.6938 O   0  0  0  0  0  0  0  0  0  0  0  0
    2.1189    2.7449   -9.4794 C   0  0  0  0  0  0  0  0  0  0  0  0
    3.0928    2.0788   -8.7168 C   0  0  0  0  0  0  0  0  0  0  0  0
    3.4702    2.5918   -7.4728 C   0  0  0  0  0  0  0  0  0  0  0  0
    2.8981    3.7647   -6.9629 C   0  0  0  0  0  0  0  0  0  0  0  0
    3.3401    4.3091   -5.6308 C   0  0  0  0  0  0  0  0  0  0  0  0
    4.6518    4.8504   -5.7462 O   0  0  0  0  0  0  0  0  0  0  0  0
    5.2861    5.1749   -4.5277 C   0  0  2  0  0  0  0  0  0  0  0  0
    5.0525    4.4117   -3.7628 H   0  0  0  0  0  0  0  0  0  0  0  0
    4.9632    6.5994   -4.0559 C   0  0  0  0  0  0  0  0  0  0  0  0
    5.9162    7.4389   -4.9119 C   0  0  1  0  0  0  0  0  0  0  0  0
    5.4486    7.6056   -5.9061 H   0  0  0  0  0  0  0  0  0  0  0  0
    6.2970    8.8208   -4.4174 C   0  0  0  0  0  0  0  0  0  0  0  0
    7.2694    8.8659   -2.4526 I   0  0  0  0  0  0  0  0  0  0  0  0
    7.0799    6.6354   -5.0805 O   0  0  0  0  0  0  0  0  0  0  0  0
    6.8081    5.2737   -4.7697 C   0  0  2  0  0  0  0  0  0  0  0  0
    7.3382    5.0072   -3.8370 H   0  0  0  0  0  0  0  0  0  0  0  0
    7.3331    4.3987   -5.9188 C   0  0  0  0  0  0  0  0  0  0  0  0
    7.1081    2.9711   -5.6946 C   0  0  0  0  0  0  0  0  0  0  0  0
    6.8998    1.8462   -5.5088 N   0  0  0  0  0  0  0  0  0  0  0  0
    1.9301    4.4217   -7.7393 C   0  0  0  0  0  0  0  0  0  0  0  0
    1.5386    3.9226   -8.9780 C   0  0  0  0  0  0  0  0  0  0  0  0
    1.7163    1.0215  -12.2303 H   0  0  0  0  0  0  0  0  0  0  0  0
    2.0189    0.2689  -10.6322 H   0  0  0  0  0  0  0  0  0  0  0  0
    3.3038    1.2390  -11.4274 H   0  0  0  0  0  0  0  0  0  0  0  0
    3.5597    1.1622   -9.0777 H   0  0  0  0  0  0  0  0  0  0  0  0
    4.2312    2.0640   -6.8908 H   0  0  0  0  0  0  0  0  0  0  0  0
    3.3515    3.5036   -4.8700 H   0  0  0  0  0  0  0  0  0  0  0  0
    2.6280    5.0809   -5.2802 H   0  0  0  0  0  0  0  0  0  0  0  0
    5.2113    6.7106   -2.9883 H   0  0  0  0  0  0  0  0  0  0  0  0
    3.9055    6.8639   -4.1980 H   0  0  0  0  0  0  0  0  0  0  0  0
    7.0291    9.2835   -5.0898 H   0  0  0  0  0  0  0  0  0  0  0  0
    5.4158    9.4685   -4.3271 H   0  0  0  0  0  0  0  0  0  0  0  0
    8.4117    4.5840   -6.0427 H   0  0  0  0  0  0  0  0  0  0  0  0
    6.8242    4.6899   -6.8489 H   0  0  0  0  0  0  0  0  0  0  0  0
    1.4713    5.3418   -7.3655 H   0  0  0  0  0  0  0  0  0  0  0  0
    0.7833    4.4275   -9.5836 H   0  0  0  0  0  0  0  0  0  0  0  0
  1  2  1  0
  1 24  1  0
  1 25  1  0
  1 26  1  0
  2  3  1  0
  3  4  2  0
  3 23  1  0
  4  5  1  0
  4 27  1  0
  5  6  2  0
  5 28  1  0
  6  7  1  0
  6 22  1  0
  7  8  1  0
  7 29  1  0
  7 30  1  0
  8  9  1  0
  9 10  1  1
  9 11  1  0
  9 17  1  0
 11 12  1  0
 11 31  1  0
 11 32  1  0
 12 13  1  6
 12 14  1  0
 12 16  1  0
 14 15  1  0
 14 33  1  0
 14 34  1  0
 16 17  1  0
 17 18  1  1
 17 19  1  0
 19 20  1  0
 19 35  1  0
 19 36  1  0
 20 21  3  0
 22 23  2  0
 22 37  1  0
 23 38  1  0
M  END

