
     RDKit          3D

 30 31  0  0  0  0  0  0  0  0999 V2000
    1.3159   -0.7058   -0.4693 O   0  0  0  0  0  0  0  0  0  0  0  0
    2.3391   -0.1306   -0.1315 C   0  0  0  0  0  0  0  0  0  0  0  0
    2.7906    1.0204   -0.7375 N   0  0  0  0  0  0  0  0  0  0  0  0
    2.2117    1.7294   -1.7967 C   0  0  0  0  0  0  0  0  0  0  0  0
    1.0156    1.3423   -2.4331 C   0  0  0  0  0  0  0  0  0  0  0  0
    0.5226    2.1215   -3.4794 C   0  0  0  0  0  0  0  0  0  0  0  0
   -0.9624    1.6360   -4.2631 Cl  0  0  0  0  0  0  0  0  0  0  0  0
    1.1731    3.2760   -3.9227 C   0  0  0  0  0  0  0  0  0  0  0  0
    2.3581    3.6477   -3.2838 C   0  0  0  0  0  0  0  0  0  0  0  0
    3.1144    4.8786   -3.7219 C   0  0  1  0  0  0  0  0  0  0  0  0
    2.4781    5.5503   -4.6931 F   0  0  0  0  0  0  0  0  0  0  0  0
    3.3011    5.7321   -2.6963 F   0  0  0  0  0  0  0  0  0  0  0  0
    4.3392    4.5638   -4.1867 F   0  0  0  0  0  0  0  0  0  0  0  0
    2.8764    2.8894   -2.2330 C   0  0  0  0  0  0  0  0  0  0  0  0
    3.1799   -0.6729    1.0038 C   0  0  0  0  0  0  0  0  0  0  0  0
    2.6911   -1.8457    1.6074 C   0  0  0  0  0  0  0  0  0  0  0  0
    3.3516   -2.4661    2.6640 C   0  0  0  0  0  0  0  0  0  0  0  0
    4.5412   -1.9126    3.1480 C   0  0  0  0  0  0  0  0  0  0  0  0
    5.0521   -0.7511    2.5715 C   0  0  0  0  0  0  0  0  0  0  0  0
    4.3837   -0.1299    1.5081 C   0  0  0  0  0  0  0  0  0  0  0  0
    4.8956    1.0099    0.9515 O   0  0  0  0  0  0  0  0  0  0  0  0
    3.6560    1.4045   -0.3684 H   0  0  0  0  0  0  0  0  0  0  0  0
    0.4940    0.4481   -2.1043 H   0  0  0  0  0  0  0  0  0  0  0  0
    0.7645    3.8658   -4.7417 H   0  0  0  0  0  0  0  0  0  0  0  0
    3.8037    3.2003   -1.7461 H   0  0  0  0  0  0  0  0  0  0  0  0
    1.7611   -2.2507    1.2050 H   0  0  0  0  0  0  0  0  0  0  0  0
    2.9430   -3.3757    3.1090 H   0  0  0  0  0  0  0  0  0  0  0  0
    5.0764   -2.3830    3.9766 H   0  0  0  0  0  0  0  0  0  0  0  0
    5.9830   -0.3122    2.9451 H   0  0  0  0  0  0  0  0  0  0  0  0
    5.7162    1.2607    1.3960 H   0  0  0  0  0  0  0  0  0  0  0  0
  1  2  2  0
  2  3  1  0
  2 15  1  0
  3  4  1  0
  3 22  1  0
  4  5  2  0
  4 14  1  0
  5  6  1  0
  5 23  1  0
  6  7  1  0
  6  8  2  0
  8  9  1  0
  8 24  1  0
  9 10  1  0
  9 14  2  0
 10 11  1  6
 10 12  1  0
 10 13  1  0
 14 25  1  0
 15 16  2  0
 15 20  1  0
 16 17  1  0
 16 26  1  0
 17 18  2  0
 17 27  1  0
 18 19  1  0
 18 28  1  0
 19 20  2  0
 19 29  1  0
 20 21  1  0
 21 30  1  0
M  END

