
     RDKit          3D

 41 42  0  0  0  0  0  0  0  0999 V2000
    1.0428    0.3353    0.5046 C   0  0  0  0  0  0  0  0  0  0  0  0
    2.5208   -0.0324    0.3755 C   0  0  0  0  0  0  0  0  0  0  0  0
    3.1891   -0.3313    1.7168 C   0  0  0  0  0  0  0  0  0  0  0  0
    4.5804   -0.7196    1.5488 N   0  0  0  0  0  0  0  0  0  0  0  0
    5.2815   -1.0290    2.7821 C   0  0  0  0  0  0  0  0  0  0  0  0
    6.6923   -1.5150    2.5317 C   0  0  0  0  0  0  0  0  0  0  0  0
    7.0037   -2.3393    1.4401 C   0  0  0  0  0  0  0  0  0  0  0  0
    8.3106   -2.7907    1.2742 C   0  0  0  0  0  0  0  0  0  0  0  0
    9.2840   -2.4068    2.2096 C   0  0  0  0  0  0  0  0  0  0  0  0
   10.7267   -2.8598    2.0664 C   0  0  0  0  0  0  0  0  0  0  0  0
   11.4330   -2.1850    0.9863 N   0  0  0  0  0  0  0  0  0  0  0  0
   11.3975   -2.7169   -0.2524 N   0  0  0  0  0  0  0  0  0  0  0  0
   12.0245   -1.8536   -1.0467 C   0  0  0  0  0  0  0  0  0  0  0  0
   12.2036   -2.1114   -2.5083 C   0  0  0  0  0  0  0  0  0  0  0  0
   12.4585   -0.7380   -0.2822 C   0  0  0  0  0  0  0  0  0  0  0  0
   13.4107    0.7628   -0.9169 Br  0  0  0  0  0  0  0  0  0  0  0  0
   12.0582   -0.9713    1.0285 C   0  0  0  0  0  0  0  0  0  0  0  0
   12.2373   -0.1682    2.2743 C   0  0  0  0  0  0  0  0  0  0  0  0
    9.0004   -1.6085    3.2443 N   0  0  0  0  0  0  0  0  0  0  0  0
    7.7450   -1.1781    3.3929 C   0  0  0  0  0  0  0  0  0  0  0  0
    0.5959    0.5488   -0.4789 H   0  0  0  0  0  0  0  0  0  0  0  0
    0.9016    1.2297    1.1344 H   0  0  0  0  0  0  0  0  0  0  0  0
    0.4635   -0.4847    0.9610 H   0  0  0  0  0  0  0  0  0  0  0  0
    3.0641    0.7938   -0.1203 H   0  0  0  0  0  0  0  0  0  0  0  0
    2.6435   -0.9130   -0.2776 H   0  0  0  0  0  0  0  0  0  0  0  0
    2.6591   -1.1660    2.2120 H   0  0  0  0  0  0  0  0  0  0  0  0
    3.0657    0.5468    2.3936 H   0  0  0  0  0  0  0  0  0  0  0  0
    5.0868    0.0030    1.0360 H   0  0  0  0  0  0  0  0  0  0  0  0
    4.7139   -1.8287    3.2961 H   0  0  0  0  0  0  0  0  0  0  0  0
    5.3132   -0.1815    3.5041 H   0  0  0  0  0  0  0  0  0  0  0  0
    6.2157   -2.6045    0.7317 H   0  0  0  0  0  0  0  0  0  0  0  0
    8.5901   -3.4224    0.4280 H   0  0  0  0  0  0  0  0  0  0  0  0
   10.7792   -3.9338    1.8396 H   0  0  0  0  0  0  0  0  0  0  0  0
   11.2469   -2.6696    3.0141 H   0  0  0  0  0  0  0  0  0  0  0  0
   11.7406   -3.0716   -2.7740 H   0  0  0  0  0  0  0  0  0  0  0  0
   13.2708   -2.1468   -2.7822 H   0  0  0  0  0  0  0  0  0  0  0  0
   11.7414   -1.3158   -3.1154 H   0  0  0  0  0  0  0  0  0  0  0  0
   12.5838    0.8416    2.0158 H   0  0  0  0  0  0  0  0  0  0  0  0
   12.9929   -0.6200    2.9406 H   0  0  0  0  0  0  0  0  0  0  0  0
   11.2988   -0.0887    2.8440 H   0  0  0  0  0  0  0  0  0  0  0  0
    7.5570   -0.5177    4.2492 H   0  0  0  0  0  0  0  0  0  0  0  0
  1  2  1  0
  1 21  1  0
  1 22  1  0
  1 23  1  0
  2  3  1  0
  2 24  1  0
  2 25  1  0
  3  4  1  0
  3 26  1  0
  3 27  1  0
  4  5  1  0
  4 28  1  0
  5  6  1  0
  5 29  1  0
  5 30  1  0
  6  7  2  0
  6 20  1  0
  7  8  1  0
  7 31  1  0
  8  9  2  0
  8 32  1  0
  9 10  1  0
  9 19  1  0
 10 11  1  0
 10 33  1  0
 10 34  1  0
 11 12  1  0
 11 17  1  0
 12 13  2  0
 13 14  1  0
 13 15  1  0
 14 35  1  0
 14 36  1  0
 14 37  1  0
 15 16  1  0
 15 17  2  0
 17 18  1  0
 18 38  1  0
 18 39  1  0
 18 40  1  0
 19 20  2  0
 20 41  1  0
M  END

