
     RDKit          3D

 38 40  0  0  0  0  0  0  0  0999 V2000
    0.8345    0.3905    1.2849 O   0  0  0  0  0  0  0  0  0  0  0  0
    1.5818   -0.2171    0.5696 C   0  0  0  0  0  0  0  0  0  0  0  0
    1.4218   -0.2293   -0.7630 O   0  0  0  0  0  0  0  0  0  0  0  0
    2.8116   -0.9793    1.1278 C   0  0  1  0  0  0  0  0  0  0  0  0
    2.4577   -1.7341    2.4219 C   0  0  0  0  0  0  0  0  0  0  0  0
    2.3214   -3.1461    1.9966 N   0  0  0  0  0  0  0  0  0  0  0  0
    1.6809   -4.0129    2.8643 C   0  0  0  0  0  0  0  0  0  0  0  0
    1.2530   -3.6062    3.9282 O   0  0  0  0  0  0  0  0  0  0  0  0
    1.5016   -5.4622    2.4152 C   0  0  0  0  0  0  0  0  0  0  0  0
    0.7956   -6.2448    3.4055 N   0  0  0  0  0  0  0  0  0  0  0  0
   -0.6281   -6.0171    3.6447 C   0  0  0  0  0  0  0  0  0  0  0  0
   -0.9966   -7.0392    4.7338 C   0  0  0  0  0  0  0  0  0  0  0  0
   -0.2865   -8.3626    4.4022 C   0  0  0  0  0  0  0  0  0  0  0  0
    1.0495   -7.9314    3.2276 S   0  0  1  0  0  0  0  0  0  0  0  0
    0.6530   -8.3594    1.8775 O   0  0  0  0  0  0  0  0  0  0  0  0
    2.3899   -8.2596    3.7120 O   0  0  0  0  0  0  0  0  0  0  0  0
    2.9706   -3.3342    0.7575 C   0  0  0  0  0  0  0  0  0  0  0  0
    3.2927   -4.5001    0.0498 C   0  0  0  0  0  0  0  0  0  0  0  0
    3.9962   -4.3838   -1.1581 C   0  0  0  0  0  0  0  0  0  0  0  0
    4.3875   -3.1433   -1.6632 C   0  0  0  0  0  0  0  0  0  0  0  0
    4.0600   -1.9759   -0.9568 C   0  0  0  0  0  0  0  0  0  0  0  0
    3.3447   -2.0753    0.2344 C   0  0  0  0  0  0  0  0  0  0  0  0
    2.0464   -0.8531   -1.1701 H   0  0  0  0  0  0  0  0  0  0  0  0
    3.5625   -0.1961    1.3237 H   0  0  0  0  0  0  0  0  0  0  0  0
    1.5289   -1.3754    2.8792 H   0  0  0  0  0  0  0  0  0  0  0  0
    3.2582   -1.6559    3.1753 H   0  0  0  0  0  0  0  0  0  0  0  0
    2.4989   -5.9160    2.2957 H   0  0  0  0  0  0  0  0  0  0  0  0
    1.0121   -5.4847    1.4203 H   0  0  0  0  0  0  0  0  0  0  0  0
   -1.2322   -6.1660    2.7253 H   0  0  0  0  0  0  0  0  0  0  0  0
   -0.7661   -4.9877    3.9989 H   0  0  0  0  0  0  0  0  0  0  0  0
   -2.0854   -7.1772    4.8015 H   0  0  0  0  0  0  0  0  0  0  0  0
   -0.6373   -6.6633    5.7021 H   0  0  0  0  0  0  0  0  0  0  0  0
   -0.9117   -9.0826    3.8579 H   0  0  0  0  0  0  0  0  0  0  0  0
    0.1877   -8.8500    5.2633 H   0  0  0  0  0  0  0  0  0  0  0  0
    3.0337   -5.4932    0.4061 H   0  0  0  0  0  0  0  0  0  0  0  0
    4.2510   -5.2959   -1.7029 H   0  0  0  0  0  0  0  0  0  0  0  0
    4.9527   -3.0812   -2.5954 H   0  0  0  0  0  0  0  0  0  0  0  0
    4.3783   -0.9977   -1.3308 H   0  0  0  0  0  0  0  0  0  0  0  0
  1  2  2  0
  2  3  1  0
  2  4  1  0
  3 23  1  0
  4  5  1  0
  4 22  1  0
  4 24  1  1
  5  6  1  0
  5 25  1  0
  5 26  1  0
  6  7  1  0
  6 17  1  0
  7  8  2  0
  7  9  1  0
  9 10  1  0
  9 27  1  0
  9 28  1  0
 10 11  1  0
 14 10  1  6
 11 12  1  0
 11 29  1  0
 11 30  1  0
 12 13  1  0
 12 31  1  0
 12 32  1  0
 13 14  1  0
 13 33  1  0
 13 34  1  0
 14 15  2  0
 14 16  2  0
 17 18  2  0
 17 22  1  0
 18 19  1  0
 18 35  1  0
 19 20  2  0
 19 36  1  0
 20 21  1  0
 20 37  1  0
 21 22  2  0
 21 38  1  0
M  END

