
     RDKit          3D

 57 59  0  0  0  0  0  0  0  0999 V2000
    1.1551   -0.1694    1.3634 C   0  0  0  0  0  0  0  0  0  0  0  0
    2.5659   -0.2169    0.8328 C   0  0  0  0  0  0  0  0  0  0  0  0
    2.8672   -0.9377   -0.3317 C   0  0  0  0  0  0  0  0  0  0  0  0
    4.1634   -0.9949   -0.8427 C   0  0  0  0  0  0  0  0  0  0  0  0
    5.2192   -0.3300   -0.1929 C   0  0  0  0  0  0  0  0  0  0  0  0
    6.5874   -0.3405   -0.7422 C   0  0  0  0  0  0  0  0  0  0  0  0
    7.3270   -1.3378   -1.3450 C   0  0  0  0  0  0  0  0  0  0  0  0
    7.1208   -2.6838   -1.4170 N   0  0  0  0  0  0  0  0  0  0  0  0
    6.3797   -3.4074   -0.3831 C   0  0  0  0  0  0  0  0  0  0  0  0
    5.5057   -4.5072   -0.9941 C   0  0  2  0  0  0  0  0  0  0  0  0
    4.8374   -5.3716    0.0616 C   0  0  0  0  0  0  0  0  0  0  0  0
    6.2916   -5.3536   -1.8185 O   0  0  0  0  0  0  0  0  0  0  0  0
    6.9560   -4.6616   -2.8650 C   0  0  2  0  0  0  0  0  0  0  0  0
    7.7141   -5.6878   -3.6905 C   0  0  0  0  0  0  0  0  0  0  0  0
    7.8790   -3.5772   -2.2966 C   0  0  0  0  0  0  0  0  0  0  0  0
    8.6103   -0.7006   -1.8882 C   0  0  0  0  0  0  0  0  0  0  0  0
    9.5166   -1.2352   -2.4936 O   0  0  0  0  0  0  0  0  0  0  0  0
    8.5601    0.6303   -1.5391 N   0  0  0  0  0  0  0  0  0  0  0  0
    9.5647    1.6227   -1.8853 C   0  0  0  0  0  0  0  0  0  0  0  0
   10.4798    2.0418   -0.7189 C   0  0  1  0  0  0  0  0  0  0  0  0
   11.2533    0.8580   -0.1291 C   0  0  0  0  0  0  0  0  0  0  0  0
   11.4248    3.1535   -1.1897 C   0  0  0  0  0  0  0  0  0  0  0  0
    7.3643    0.9205   -0.8475 C   0  0  0  0  0  0  0  0  0  0  0  0
    7.0807    2.0313   -0.4524 O   0  0  0  0  0  0  0  0  0  0  0  0
    4.9106    0.4058    0.9675 C   0  0  0  0  0  0  0  0  0  0  0  0
    3.6135    0.4712    1.4894 C   0  0  0  0  0  0  0  0  0  0  0  0
    3.3405    1.2725    2.7389 C   0  0  0  0  0  0  0  0  0  0  0  0
    0.4695   -0.7542    0.7329 H   0  0  0  0  0  0  0  0  0  0  0  0
    0.7713    0.8644    1.4076 H   0  0  0  0  0  0  0  0  0  0  0  0
    1.0910   -0.5687    2.3903 H   0  0  0  0  0  0  0  0  0  0  0  0
    2.0617   -1.4585   -0.8580 H   0  0  0  0  0  0  0  0  0  0  0  0
    4.3570   -1.5438   -1.7671 H   0  0  0  0  0  0  0  0  0  0  0  0
    5.7664   -2.7133    0.1998 H   0  0  0  0  0  0  0  0  0  0  0  0
    7.1083   -3.8816    0.3046 H   0  0  0  0  0  0  0  0  0  0  0  0
    4.7293   -4.0179   -1.6190 H   0  0  0  0  0  0  0  0  0  0  0  0
    5.5928   -5.8516    0.7036 H   0  0  0  0  0  0  0  0  0  0  0  0
    4.2484   -6.1646   -0.4222 H   0  0  0  0  0  0  0  0  0  0  0  0
    4.1661   -4.7698    0.6932 H   0  0  0  0  0  0  0  0  0  0  0  0
    6.1961   -4.1580   -3.5007 H   0  0  0  0  0  0  0  0  0  0  0  0
    8.4778   -6.1887   -3.0750 H   0  0  0  0  0  0  0  0  0  0  0  0
    8.2110   -5.2119   -4.5498 H   0  0  0  0  0  0  0  0  0  0  0  0
    7.0205   -6.4547   -4.0651 H   0  0  0  0  0  0  0  0  0  0  0  0
    8.3386   -3.0024   -3.1052 H   0  0  0  0  0  0  0  0  0  0  0  0
    8.6971   -4.0634   -1.7302 H   0  0  0  0  0  0  0  0  0  0  0  0
    9.0390    2.5105   -2.2704 H   0  0  0  0  0  0  0  0  0  0  0  0
   10.1634    1.1914   -2.7027 H   0  0  0  0  0  0  0  0  0  0  0  0
    9.8247    2.4594    0.0658 H   0  0  0  0  0  0  0  0  0  0  0  0
   11.9067    0.3910   -0.8850 H   0  0  0  0  0  0  0  0  0  0  0  0
   10.5768    0.0774    0.2526 H   0  0  0  0  0  0  0  0  0  0  0  0
   11.8869    1.1847    0.7112 H   0  0  0  0  0  0  0  0  0  0  0  0
   12.0948    2.7939   -1.9899 H   0  0  0  0  0  0  0  0  0  0  0  0
   12.0586    3.5101   -0.3625 H   0  0  0  0  0  0  0  0  0  0  0  0
   10.8687    4.0206   -1.5821 H   0  0  0  0  0  0  0  0  0  0  0  0
    5.7097    0.9514    1.4719 H   0  0  0  0  0  0  0  0  0  0  0  0
    4.2582    1.7416    3.1215 H   0  0  0  0  0  0  0  0  0  0  0  0
    2.9208    0.6446    3.5435 H   0  0  0  0  0  0  0  0  0  0  0  0
    2.6061    2.0749    2.5534 H   0  0  0  0  0  0  0  0  0  0  0  0
  1  2  1  0
  1 28  1  0
  1 29  1  0
  1 30  1  0
  2  3  2  0
  2 26  1  0
  3  4  1  0
  3 31  1  0
  4  5  2  0
  4 32  1  0
  5  6  1  0
  5 25  1  0
  6  7  2  0
  6 23  1  0
  7  8  1  0
  7 16  1  0
  8  9  1  0
  8 15  1  0
  9 10  1  0
  9 33  1  0
  9 34  1  0
 10 11  1  0
 10 12  1  0
 10 35  1  6
 11 36  1  0
 11 37  1  0
 11 38  1  0
 12 13  1  0
 13 14  1  0
 13 15  1  0
 13 39  1  6
 14 40  1  0
 14 41  1  0
 14 42  1  0
 15 43  1  0
 15 44  1  0
 16 17  2  0
 16 18  1  0
 18 19  1  0
 18 23  1  0
 19 20  1  0
 19 45  1  0
 19 46  1  0
 20 21  1  0
 20 22  1  0
 20 47  1  1
 21 48  1  0
 21 49  1  0
 21 50  1  0
 22 51  1  0
 22 52  1  0
 22 53  1  0
 23 24  2  0
 25 26  2  0
 25 54  1  0
 26 27  1  0
 27 55  1  0
 27 56  1  0
 27 57  1  0
M  END

