
     RDKit          3D

 59 61  0  0  0  0  0  0  0  0999 V2000
    1.5195    1.5561   -5.1110 C   0  0  0  0  0  0  0  0  0  0  0  0
    2.9812    1.8191   -5.4193 C   0  0  0  0  0  0  0  0  0  0  0  0
    3.7292    1.5865   -4.2376 O   0  0  0  0  0  0  0  0  0  0  0  0
    5.0755    1.7591   -4.2456 C   0  0  0  0  0  0  0  0  0  0  0  0
    5.7390    1.5183   -3.0273 C   0  0  0  0  0  0  0  0  0  0  0  0
    7.1167    1.6704   -2.9327 C   0  0  0  0  0  0  0  0  0  0  0  0
    7.8824    2.0639   -4.0490 C   0  0  0  0  0  0  0  0  0  0  0  0
    9.3876    2.2134   -3.9350 C   0  0  0  0  0  0  0  0  0  0  0  0
   10.1108    0.9404   -3.8310 N   0  0  0  0  0  0  0  0  0  0  0  0
   10.2166    0.1463   -5.0433 C   0  0  0  0  0  0  0  0  0  0  0  0
   10.4563    0.4950   -2.5806 C   0  0  0  0  0  0  0  0  0  0  0  0
   10.2070    1.1353   -1.5668 O   0  0  0  0  0  0  0  0  0  0  0  0
   11.1754   -0.8578   -2.4577 C   0  0  0  0  0  0  0  0  0  0  0  0
   12.4723   -0.9061   -3.1066 N   0  0  0  0  0  0  0  0  0  0  0  0
   13.4593    0.0531   -2.6234 C   0  0  0  0  0  0  0  0  0  0  0  0
   14.7564   -0.3867   -3.3147 C   0  0  1  0  0  0  0  0  0  0  0  0
   14.7611    0.0397   -4.3322 H   0  0  0  0  0  0  0  0  0  0  0  0
   16.0355    0.0800   -2.6026 C   0  0  0  0  0  0  0  0  0  0  0  0
   17.2982   -0.2114   -3.2670 N   0  0  0  0  0  0  0  0  0  0  0  0
   14.6077   -1.9432   -3.4375 C   0  0  2  0  0  0  0  0  0  0  0  0
   15.2597   -2.4207   -2.6884 H   0  0  0  0  0  0  0  0  0  0  0  0
   14.9868   -2.5059   -4.7951 C   0  0  0  0  0  0  0  0  0  0  0  0
   16.0279   -3.4382   -4.9236 C   0  0  0  0  0  0  0  0  0  0  0  0
   16.3811   -3.9625   -6.1719 C   0  0  0  0  0  0  0  0  0  0  0  0
   15.6914   -3.5650   -7.3194 C   0  0  0  0  0  0  0  0  0  0  0  0
   14.6462   -2.6413   -7.2069 C   0  0  0  0  0  0  0  0  0  0  0  0
   14.2997   -2.1177   -5.9596 C   0  0  0  0  0  0  0  0  0  0  0  0
   13.1297   -2.2072   -3.0302 C   0  0  0  0  0  0  0  0  0  0  0  0
    7.2115    2.3006   -5.2519 C   0  0  0  0  0  0  0  0  0  0  0  0
    5.8219    2.1552   -5.3642 C   0  0  0  0  0  0  0  0  0  0  0  0
    0.9036    1.7262   -6.0077 H   0  0  0  0  0  0  0  0  0  0  0  0
    1.1648    2.2248   -4.3119 H   0  0  0  0  0  0  0  0  0  0  0  0
    1.3733    0.5168   -4.7791 H   0  0  0  0  0  0  0  0  0  0  0  0
    3.1279    2.8613   -5.7619 H   0  0  0  0  0  0  0  0  0  0  0  0
    3.3360    1.1540   -6.2300 H   0  0  0  0  0  0  0  0  0  0  0  0
    5.1405    1.2182   -2.1645 H   0  0  0  0  0  0  0  0  0  0  0  0
    7.6219    1.4892   -1.9806 H   0  0  0  0  0  0  0  0  0  0  0  0
    9.6414    2.7914   -3.0370 H   0  0  0  0  0  0  0  0  0  0  0  0
    9.7747    2.7505   -4.8167 H   0  0  0  0  0  0  0  0  0  0  0  0
   10.5071    0.7985   -5.8838 H   0  0  0  0  0  0  0  0  0  0  0  0
    9.2572   -0.3332   -5.3102 H   0  0  0  0  0  0  0  0  0  0  0  0
   10.9980   -0.6130   -4.9302 H   0  0  0  0  0  0  0  0  0  0  0  0
   10.5387   -1.6533   -2.8830 H   0  0  0  0  0  0  0  0  0  0  0  0
   11.2452   -1.0405   -1.3653 H   0  0  0  0  0  0  0  0  0  0  0  0
   13.5710    0.0025   -1.5147 H   0  0  0  0  0  0  0  0  0  0  0  0
   13.1688    1.0855   -2.8736 H   0  0  0  0  0  0  0  0  0  0  0  0
   15.9735    1.1722   -2.4465 H   0  0  0  0  0  0  0  0  0  0  0  0
   16.0652   -0.3636   -1.5903 H   0  0  0  0  0  0  0  0  0  0  0  0
   17.3127    0.2021   -4.2003 H   0  0  0  0  0  0  0  0  0  0  0  0
   17.4103   -1.2155   -3.4071 H   0  0  0  0  0  0  0  0  0  0  0  0
   16.5692   -3.7650   -4.0302 H   0  0  0  0  0  0  0  0  0  0  0  0
   17.1970   -4.6865   -6.2451 H   0  0  0  0  0  0  0  0  0  0  0  0
   15.9641   -3.9727   -8.2961 H   0  0  0  0  0  0  0  0  0  0  0  0
   14.0974   -2.3261   -8.0985 H   0  0  0  0  0  0  0  0  0  0  0  0
   13.4810   -1.3972   -5.8821 H   0  0  0  0  0  0  0  0  0  0  0  0
   13.0970   -2.6112   -1.9933 H   0  0  0  0  0  0  0  0  0  0  0  0
   12.6290   -2.9418   -3.6814 H   0  0  0  0  0  0  0  0  0  0  0  0
    7.7791    2.6151   -6.1334 H   0  0  0  0  0  0  0  0  0  0  0  0
    5.3404    2.3540   -6.3218 H   0  0  0  0  0  0  0  0  0  0  0  0
  1  2  1  0
  1 31  1  0
  1 32  1  0
  1 33  1  0
  2  3  1  0
  2 34  1  0
  2 35  1  0
  3  4  1  0
  4  5  2  0
  4 30  1  0
  5  6  1  0
  5 36  1  0
  6  7  2  0
  6 37  1  0
  7  8  1  0
  7 29  1  0
  8  9  1  0
  8 38  1  0
  8 39  1  0
  9 10  1  0
  9 11  1  0
 10 40  1  0
 10 41  1  0
 10 42  1  0
 11 12  2  0
 11 13  1  0
 13 14  1  0
 13 43  1  0
 13 44  1  0
 14 15  1  0
 14 28  1  0
 15 16  1  0
 15 45  1  0
 15 46  1  0
 16 17  1  6
 16 18  1  0
 16 20  1  0
 18 19  1  0
 18 47  1  0
 18 48  1  0
 19 49  1  0
 19 50  1  0
 20 21  1  1
 20 22  1  0
 20 28  1  0
 22 23  2  0
 22 27  1  0
 23 24  1  0
 23 51  1  0
 24 25  2  0
 24 52  1  0
 25 26  1  0
 25 53  1  0
 26 27  2  0
 26 54  1  0
 27 55  1  0
 28 56  1  0
 28 57  1  0
 29 30  2  0
 29 58  1  0
 30 59  1  0
M  END

