
     RDKit          3D

 67 69  0  0  0  0  0  0  0  0999 V2000
    1.0835    6.5617    0.2050 C   0  0  0  0  0  0  0  0  0  0  0  0
    2.3851    6.3472    0.9784 C   0  0  0  0  0  0  0  0  0  0  0  0
    3.4446    5.5712    0.1895 C   0  0  0  0  0  0  0  0  0  0  0  0
    4.7491    5.3530    0.9603 C   0  0  0  0  0  0  0  0  0  0  0  0
    5.7926    4.5687    0.1563 C   0  0  0  0  0  0  0  0  0  0  0  0
    7.0467    4.3742    0.8698 N   0  0  0  0  0  0  0  0  0  0  0  0
    7.3396    3.2197    1.5151 C   0  0  0  0  0  0  0  0  0  0  0  0
    6.6111    2.2393    1.5237 O   0  0  0  0  0  0  0  0  0  0  0  0
    8.6614    3.2132    2.3301 C   0  0  1  0  0  0  0  0  0  0  0  0
    9.4263    1.9375    2.1898 N   0  0  0  0  0  0  0  0  0  0  0  0
    9.1952    0.8114    3.1170 C   0  0  1  0  0  0  0  0  0  0  0  0
    8.7741    1.2885    4.0179 H   0  0  0  0  0  0  0  0  0  0  0  0
    8.1687   -0.2262    2.6157 C   0  0  0  0  0  0  0  0  0  0  0  0
    8.4222   -0.7734    1.2102 C   0  0  0  0  0  0  0  0  0  0  0  0
   10.5059    0.1184    3.5629 C   0  0  0  0  0  0  0  0  0  0  0  0
   11.5656    1.0042    3.8470 O   0  0  0  0  0  0  0  0  0  0  0  0
   10.4854    2.0453    1.3176 C   0  0  0  0  0  0  0  0  0  0  0  0
   11.3330    1.1989    1.0562 O   0  0  0  0  0  0  0  0  0  0  0  0
   10.4039    3.4456    0.7655 C   0  0  2  0  0  0  0  0  0  0  0  0
    9.6488    3.4323   -0.0399 H   0  0  0  0  0  0  0  0  0  0  0  0
   11.5256    4.4043    0.3588 C   0  0  1  0  0  0  0  0  0  0  0  0
   12.4873    4.1076    0.8094 H   0  0  0  0  0  0  0  0  0  0  0  0
   11.7546    4.5089   -1.1511 C   0  0  0  0  0  0  0  0  0  0  0  0
   11.6945    5.5678   -1.7537 O   0  0  0  0  0  0  0  0  0  0  0  0
   12.0477    3.3085   -1.7262 N   0  0  0  0  0  0  0  0  0  0  0  0
   12.3303    3.1437   -3.1443 C   0  0  0  0  0  0  0  0  0  0  0  0
   11.3126    2.2598   -3.8764 C   0  0  0  0  0  0  0  0  0  0  0  0
    9.8926    2.8249   -3.8997 C   0  0  0  0  0  0  0  0  0  0  0  0
   10.9893    5.7191    1.0479 C   0  0  1  0  0  0  0  0  0  0  0  0
   11.1170    6.6254    0.4490 H   0  0  0  0  0  0  0  0  0  0  0  0
    9.5785    5.4814    1.3179 O   0  0  0  0  0  0  0  0  0  0  0  0
    9.7651    4.1985    1.9257 C   0  0  1  0  0  0  0  0  0  0  0  0
   10.7704    4.5198    3.0698 C   0  0  0  0  0  0  0  0  0  0  0  0
   11.5680    5.7005    2.4678 C   0  0  2  0  0  0  0  0  0  0  0  0
   11.2538    7.4045    3.4172 Br  0  0  0  0  0  0  0  0  0  0  0  0
    0.3461    7.1219    0.8017 H   0  0  0  0  0  0  0  0  0  0  0  0
    0.6216    5.6007   -0.0774 H   0  0  0  0  0  0  0  0  0  0  0  0
    1.2579    7.1285   -0.7251 H   0  0  0  0  0  0  0  0  0  0  0  0
    2.1711    5.8108    1.9207 H   0  0  0  0  0  0  0  0  0  0  0  0
    2.8020    7.3257    1.2792 H   0  0  0  0  0  0  0  0  0  0  0  0
    3.6603    6.1073   -0.7540 H   0  0  0  0  0  0  0  0  0  0  0  0
    3.0300    4.5910   -0.1110 H   0  0  0  0  0  0  0  0  0  0  0  0
    4.5433    4.8069    1.8975 H   0  0  0  0  0  0  0  0  0  0  0  0
    5.1751    6.3291    1.2561 H   0  0  0  0  0  0  0  0  0  0  0  0
    6.0102    5.0907   -0.7910 H   0  0  0  0  0  0  0  0  0  0  0  0
    5.4021    3.5717   -0.0943 H   0  0  0  0  0  0  0  0  0  0  0  0
    7.7267    5.1323    0.8854 H   0  0  0  0  0  0  0  0  0  0  0  0
    8.3627    3.3246    3.3856 H   0  0  0  0  0  0  0  0  0  0  0  0
    7.1724    0.2348    2.6363 H   0  0  0  0  0  0  0  0  0  0  0  0
    8.1616   -1.0519    3.3502 H   0  0  0  0  0  0  0  0  0  0  0  0
    8.3084    0.0235    0.4597 H   0  0  0  0  0  0  0  0  0  0  0  0
    7.6857   -1.5558    0.9679 H   0  0  0  0  0  0  0  0  0  0  0  0
    9.4263   -1.2096    1.0923 H   0  0  0  0  0  0  0  0  0  0  0  0
   10.8100   -0.6269    2.8122 H   0  0  0  0  0  0  0  0  0  0  0  0
   10.2652   -0.4288    4.4898 H   0  0  0  0  0  0  0  0  0  0  0  0
   12.0490    1.1014    3.0132 H   0  0  0  0  0  0  0  0  0  0  0  0
   12.0755    2.4849   -1.1283 H   0  0  0  0  0  0  0  0  0  0  0  0
   13.3427    2.7190   -3.2656 H   0  0  0  0  0  0  0  0  0  0  0  0
   12.3442    4.1557   -3.5747 H   0  0  0  0  0  0  0  0  0  0  0  0
   11.3101    1.2534   -3.4186 H   0  0  0  0  0  0  0  0  0  0  0  0
   11.6776    2.1180   -4.9087 H   0  0  0  0  0  0  0  0  0  0  0  0
    9.4937    2.9485   -2.8801 H   0  0  0  0  0  0  0  0  0  0  0  0
    9.2068    2.1571   -4.4443 H   0  0  0  0  0  0  0  0  0  0  0  0
    9.8628    3.8129   -4.3872 H   0  0  0  0  0  0  0  0  0  0  0  0
   11.3959    3.6604    3.3511 H   0  0  0  0  0  0  0  0  0  0  0  0
   10.2138    4.8269    3.9649 H   0  0  0  0  0  0  0  0  0  0  0  0
   12.6553    5.5713    2.4912 H   0  0  0  0  0  0  0  0  0  0  0  0
  1  2  1  0
  1 36  1  0
  1 37  1  0
  1 38  1  0
  2  3  1  0
  2 39  1  0
  2 40  1  0
  3  4  1  0
  3 41  1  0
  3 42  1  0
  4  5  1  0
  4 43  1  0
  4 44  1  0
  5  6  1  0
  5 45  1  0
  5 46  1  0
  6  7  1  0
  6 47  1  0
  7  8  2  0
  7  9  1  0
  9 10  1  0
  9 32  1  0
  9 48  1  1
 10 11  1  0
 10 17  1  0
 11 12  1  1
 11 13  1  0
 11 15  1  0
 13 14  1  0
 13 49  1  0
 13 50  1  0
 14 51  1  0
 14 52  1  0
 14 53  1  0
 15 16  1  0
 15 54  1  0
 15 55  1  0
 16 56  1  0
 17 18  2  0
 17 19  1  0
 19 20  1  6
 19 21  1  0
 19 32  1  0
 21 22  1  1
 21 23  1  0
 21 29  1  0
 23 24  2  0
 23 25  1  0
 25 26  1  0
 25 57  1  0
 26 27  1  0
 26 58  1  0
 26 59  1  0
 27 28  1  0
 27 60  1  0
 27 61  1  0
 28 62  1  0
 28 63  1  0
 28 64  1  0
 29 30  1  6
 29 31  1  0
 29 34  1  0
 31 32  1  0
 32 33  1  1
 33 34  1  0
 33 65  1  0
 33 66  1  0
 34 35  1  0
 34 67  1  6
M  END

