
     RDKit          3D

 43 44  0  0  0  0  0  0  0  0999 V2000
    0.5625    0.2660   -0.3598 C   0  0  0  0  0  0  0  0  0  0  0  0
    2.0004    0.0837   -0.4561 N   0  0  0  0  0  0  0  0  0  0  0  0
    2.3793   -1.2815   -0.7870 C   0  0  0  0  0  0  0  0  0  0  0  0
    2.1485   -2.2676    0.3626 C   0  0  0  0  0  0  0  0  0  0  0  0
    2.8472   -3.5943    0.1171 C   0  0  0  0  0  0  0  0  0  0  0  0
    3.8805   -3.7092   -0.5163 O   0  0  0  0  0  0  0  0  0  0  0  0
    2.2427   -4.6938    0.6970 N   0  0  0  0  0  0  0  0  0  0  0  0
    2.7335   -5.9868    0.6507 C   0  0  0  0  0  0  0  0  0  0  0  0
    4.1968   -6.4312   -0.1731 S   0  0  0  0  0  0  0  0  0  0  0  0
    3.9878   -8.0988    0.2909 C   0  0  0  0  0  0  0  0  0  0  0  0
    2.8622   -8.3036    1.0331 C   0  0  0  0  0  0  0  0  0  0  0  0
    2.1251   -7.0894    1.2494 C   0  0  0  0  0  0  0  0  0  0  0  0
    0.9101   -6.9632    1.9804 C   0  0  0  0  0  0  0  0  0  0  0  0
   -0.0825   -6.7978    2.5649 N   0  0  0  0  0  0  0  0  0  0  0  0
    2.6393    1.0695   -1.3227 C   0  0  0  0  0  0  0  0  0  0  0  0
    2.6410    2.5119   -0.7820 C   0  0  1  0  0  0  0  0  0  0  0  0
    3.1997    2.6279    0.6516 C   0  0  0  0  0  0  0  0  0  0  0  0
    4.7249    2.4518    0.7019 C   0  0  0  0  0  0  0  0  0  0  0  0
    5.4159    3.3870   -0.3033 C   0  0  0  0  0  0  0  0  0  0  0  0
    4.8920    3.2872   -1.6618 N   0  0  0  0  0  0  0  0  0  0  0  0
    3.4439    3.4408   -1.7261 C   0  0  0  0  0  0  0  0  0  0  0  0
    0.1267   -0.4371    0.3655 H   0  0  0  0  0  0  0  0  0  0  0  0
    0.0422    0.1148   -1.3342 H   0  0  0  0  0  0  0  0  0  0  0  0
    0.3223    1.2785   -0.0052 H   0  0  0  0  0  0  0  0  0  0  0  0
    3.4536   -1.3019   -1.0194 H   0  0  0  0  0  0  0  0  0  0  0  0
    1.8584   -1.6540   -1.7002 H   0  0  0  0  0  0  0  0  0  0  0  0
    1.0776   -2.4360    0.5591 H   0  0  0  0  0  0  0  0  0  0  0  0
    2.5750   -1.8308    1.2838 H   0  0  0  0  0  0  0  0  0  0  0  0
    1.3779   -4.5649    1.2156 H   0  0  0  0  0  0  0  0  0  0  0  0
    4.7264   -8.8352   -0.0223 H   0  0  0  0  0  0  0  0  0  0  0  0
    2.5452   -9.2704    1.4237 H   0  0  0  0  0  0  0  0  0  0  0  0
    2.1755    1.0784   -2.3379 H   0  0  0  0  0  0  0  0  0  0  0  0
    3.6814    0.7436   -1.4697 H   0  0  0  0  0  0  0  0  0  0  0  0
    1.5997    2.8799   -0.7793 H   0  0  0  0  0  0  0  0  0  0  0  0
    2.7064    1.8926    1.3057 H   0  0  0  0  0  0  0  0  0  0  0  0
    2.9452    3.6299    1.0429 H   0  0  0  0  0  0  0  0  0  0  0  0
    4.9937    1.4044    0.4742 H   0  0  0  0  0  0  0  0  0  0  0  0
    5.0970    2.6488    1.7225 H   0  0  0  0  0  0  0  0  0  0  0  0
    6.5032    3.2050   -0.3278 H   0  0  0  0  0  0  0  0  0  0  0  0
    5.2843    4.4337    0.0324 H   0  0  0  0  0  0  0  0  0  0  0  0
    5.1849    2.4119   -2.0932 H   0  0  0  0  0  0  0  0  0  0  0  0
    3.1186    3.3003   -2.7712 H   0  0  0  0  0  0  0  0  0  0  0  0
    3.2053    4.4883   -1.4650 H   0  0  0  0  0  0  0  0  0  0  0  0
  1  2  1  0
  1 22  1  0
  1 23  1  0
  1 24  1  0
  2  3  1  0
  2 15  1  0
  3  4  1  0
  3 25  1  0
  3 26  1  0
  4  5  1  0
  4 27  1  0
  4 28  1  0
  5  6  2  0
  5  7  1  0
  7  8  1  0
  7 29  1  0
  8  9  1  0
  8 12  2  0
  9 10  1  0
 10 11  2  0
 10 30  1  0
 11 12  1  0
 11 31  1  0
 12 13  1  0
 13 14  3  0
 15 16  1  0
 15 32  1  0
 15 33  1  0
 16 17  1  0
 16 21  1  0
 16 34  1  1
 17 18  1  0
 17 35  1  0
 17 36  1  0
 18 19  1  0
 18 37  1  0
 18 38  1  0
 19 20  1  0
 19 39  1  0
 19 40  1  0
 20 21  1  0
 20 41  1  0
 21 42  1  0
 21 43  1  0
M  END

