
     RDKit          3D

 29 31  0  0  0  0  0  0  0  0999 V2000
    1.1699   -0.4034   -0.9730 C   0  0  0  0  0  0  0  0  0  0  0  0
    2.4700   -0.0775   -0.2134 C   0  0  1  0  0  0  0  0  0  0  0  0
    3.4772    0.5660   -1.1939 C   0  0  0  0  0  0  0  0  0  0  0  0
    2.2542    0.8688    0.9631 C   0  0  0  0  0  0  0  0  0  0  0  0
    2.8000    0.4161    2.1013 C   0  0  0  0  0  0  0  0  0  0  0  0
    3.3981   -0.9382    1.9148 C   0  0  1  0  0  0  0  0  0  0  0  0
    2.3890   -2.0692    1.6124 C   0  0  2  0  0  0  0  0  0  0  0  0
    0.9463   -2.0372    2.0576 C   0  0  0  0  0  0  0  0  0  0  0  0
    3.0365   -3.4317    1.6385 C   0  0  0  0  0  0  0  0  0  0  0  0
    2.6108   -4.3882    2.2438 O   0  0  0  0  0  0  0  0  0  0  0  0
    4.2638   -3.4348    0.7237 C   0  0  0  0  0  0  0  0  0  0  0  0
    4.0448   -2.2624   -0.2464 C   0  0  0  0  0  0  0  0  0  0  0  0
    3.1008   -1.3076    0.4810 C   0  0  1  0  0  0  0  0  0  0  0  0
    0.7631    0.5009   -1.4549 H   0  0  0  0  0  0  0  0  0  0  0  0
    0.3944   -0.8099   -0.3097 H   0  0  0  0  0  0  0  0  0  0  0  0
    1.3597   -1.1432   -1.7681 H   0  0  0  0  0  0  0  0  0  0  0  0
    3.0804    1.5204   -1.5759 H   0  0  0  0  0  0  0  0  0  0  0  0
    3.6670   -0.0865   -2.0615 H   0  0  0  0  0  0  0  0  0  0  0  0
    4.4384    0.7754   -0.7001 H   0  0  0  0  0  0  0  0  0  0  0  0
    1.7213    1.8173    0.8505 H   0  0  0  0  0  0  0  0  0  0  0  0
    2.7942    0.9406    3.0598 H   0  0  0  0  0  0  0  0  0  0  0  0
    4.3351   -1.1883    2.4249 H   0  0  0  0  0  0  0  0  0  0  0  0
    0.8654   -2.5118    3.0482 H   0  0  0  0  0  0  0  0  0  0  0  0
    0.3081   -2.6172    1.3723 H   0  0  0  0  0  0  0  0  0  0  0  0
    0.5515   -1.0153    2.1223 H   0  0  0  0  0  0  0  0  0  0  0  0
    4.3702   -4.4176    0.2434 H   0  0  0  0  0  0  0  0  0  0  0  0
    5.1621   -3.2876    1.3490 H   0  0  0  0  0  0  0  0  0  0  0  0
    3.5626   -2.6210   -1.1722 H   0  0  0  0  0  0  0  0  0  0  0  0
    4.9862   -1.7727   -0.5402 H   0  0  0  0  0  0  0  0  0  0  0  0
  2  1  1  6
  1 14  1  0
  1 15  1  0
  1 16  1  0
  2  3  1  0
  2  4  1  0
  2 13  1  0
  3 17  1  0
  3 18  1  0
  3 19  1  0
  4  5  2  0
  4 20  1  0
  5  6  1  0
  5 21  1  0
  6  7  1  0
  6 13  1  0
  6 22  1  1
  7  8  1  6
  7  9  1  0
  7 13  1  0
  8 23  1  0
  8 24  1  0
  8 25  1  0
  9 10  2  0
  9 11  1  0
 11 12  1  0
 11 26  1  0
 11 27  1  0
 13 12  1  6
 12 28  1  0
 12 29  1  0
M  END

