
     RDKit          3D

 58 60  0  0  0  0  0  0  0  0999 V2000
    0.8750   -1.0489   -1.0678 C   0  0  0  0  0  0  0  0  0  0  0  0
    2.3557   -1.0121   -1.4108 C   0  0  0  0  0  0  0  0  0  0  0  0
    2.7421   -0.7740   -2.5415 O   0  0  0  0  0  0  0  0  0  0  0  0
    3.1960   -1.2846   -0.3527 N   0  0  0  0  0  0  0  0  0  0  0  0
    4.6020   -1.3425   -0.3344 C   0  0  0  0  0  0  0  0  0  0  0  0
    5.2111   -1.5895    0.9072 C   0  0  0  0  0  0  0  0  0  0  0  0
    6.6077   -1.6744    0.9983 C   0  0  0  0  0  0  0  0  0  0  0  0
    7.2792   -1.9273    2.2082 N   0  0  0  0  0  0  0  0  0  0  0  0
    6.7512   -2.1309    3.4654 C   0  0  0  0  0  0  0  0  0  0  0  0
    7.7833   -2.4016    4.5487 C   0  0  0  0  0  0  0  0  0  0  0  0
    5.5588   -2.1102    3.7121 O   0  0  0  0  0  0  0  0  0  0  0  0
    7.3879   -1.5025   -0.1552 C   0  0  0  0  0  0  0  0  0  0  0  0
    6.7801   -1.2438   -1.3856 C   0  0  0  0  0  0  0  0  0  0  0  0
    7.7123   -1.0760   -2.5636 C   0  0  0  0  0  0  0  0  0  0  0  0
    8.8817   -1.3865   -2.5048 O   0  0  0  0  0  0  0  0  0  0  0  0
    7.1139   -0.5202   -3.6927 N   0  0  0  0  0  0  0  0  0  0  0  0
    7.7023   -0.2858   -4.9261 C   0  0  0  0  0  0  0  0  0  0  0  0
    8.8722   -0.6687   -5.3125 N   0  0  0  0  0  0  0  0  0  0  0  0
    9.1481   -0.2723   -6.6057 C   0  0  0  0  0  0  0  0  0  0  0  0
   10.4544   -0.6307   -7.1941 C   0  0  0  0  0  0  0  0  0  0  0  0
   10.8001   -0.3159   -8.5172 C   0  0  0  0  0  0  0  0  0  0  0  0
   12.0453   -0.6673   -9.0418 C   0  0  0  0  0  0  0  0  0  0  0  0
   13.0030   -1.3491   -8.2723 C   0  0  0  0  0  0  0  0  0  0  0  0
   14.3861   -1.7535   -8.8176 C   0  0  1  0  0  0  0  0  0  0  0  0
   14.5838   -1.3243  -10.2827 C   0  0  0  0  0  0  0  0  0  0  0  0
   15.4899   -1.0844   -7.9658 C   0  0  0  0  0  0  0  0  0  0  0  0
   14.5394   -3.2905   -8.7402 C   0  0  0  0  0  0  0  0  0  0  0  0
   12.6456   -1.6609   -6.9469 C   0  0  0  0  0  0  0  0  0  0  0  0
   11.4058   -1.3145   -6.4152 C   0  0  0  0  0  0  0  0  0  0  0  0
    8.1369    0.4363   -7.2146 C   0  0  0  0  0  0  0  0  0  0  0  0
    6.7886    0.6271   -6.1398 S   0  0  0  0  0  0  0  0  0  0  0  0
    5.3834   -1.1727   -1.4885 C   0  0  0  0  0  0  0  0  0  0  0  0
    0.4195   -1.9170   -1.5701 H   0  0  0  0  0  0  0  0  0  0  0  0
    0.3995   -0.1488   -1.4832 H   0  0  0  0  0  0  0  0  0  0  0  0
    0.6620   -1.1097    0.0094 H   0  0  0  0  0  0  0  0  0  0  0  0
    2.7535   -1.4576    0.5420 H   0  0  0  0  0  0  0  0  0  0  0  0
    4.6166   -1.7225    1.8096 H   0  0  0  0  0  0  0  0  0  0  0  0
    8.2883   -1.9683    2.1301 H   0  0  0  0  0  0  0  0  0  0  0  0
    8.8265   -2.2898    4.2193 H   0  0  0  0  0  0  0  0  0  0  0  0
    7.6355   -3.4258    4.9254 H   0  0  0  0  0  0  0  0  0  0  0  0
    7.5931   -1.7181    5.3891 H   0  0  0  0  0  0  0  0  0  0  0  0
    8.4777   -1.5692   -0.1233 H   0  0  0  0  0  0  0  0  0  0  0  0
    6.1584   -0.2005   -3.5894 H   0  0  0  0  0  0  0  0  0  0  0  0
   10.0914    0.2105   -9.1611 H   0  0  0  0  0  0  0  0  0  0  0  0
   12.2599   -0.3982  -10.0763 H   0  0  0  0  0  0  0  0  0  0  0  0
   14.5141   -0.2319  -10.4041 H   0  0  0  0  0  0  0  0  0  0  0  0
   13.8434   -1.7908  -10.9514 H   0  0  0  0  0  0  0  0  0  0  0  0
   15.5827   -1.6320  -10.6302 H   0  0  0  0  0  0  0  0  0  0  0  0
   15.4090    0.0135   -8.0069 H   0  0  0  0  0  0  0  0  0  0  0  0
   16.4888   -1.3671   -8.3379 H   0  0  0  0  0  0  0  0  0  0  0  0
   15.4308   -1.3842   -6.9085 H   0  0  0  0  0  0  0  0  0  0  0  0
   13.7678   -3.7948   -9.3434 H   0  0  0  0  0  0  0  0  0  0  0  0
   14.4504   -3.6603   -7.7074 H   0  0  0  0  0  0  0  0  0  0  0  0
   15.5268   -3.5993   -9.1218 H   0  0  0  0  0  0  0  0  0  0  0  0
   13.3524   -2.1908   -6.3035 H   0  0  0  0  0  0  0  0  0  0  0  0
   11.1507   -1.5662   -5.3844 H   0  0  0  0  0  0  0  0  0  0  0  0
    8.1018    0.8555   -8.2170 H   0  0  0  0  0  0  0  0  0  0  0  0
    4.8635   -1.0167   -2.4303 H   0  0  0  0  0  0  0  0  0  0  0  0
  1  2  1  0
  1 33  1  0
  1 34  1  0
  1 35  1  0
  2  3  2  0
  2  4  1  0
  4  5  1  0
  4 36  1  0
  5  6  2  0
  5 32  1  0
  6  7  1  0
  6 37  1  0
  7  8  1  0
  7 12  2  0
  8  9  1  0
  8 38  1  0
  9 10  1  0
  9 11  2  0
 10 39  1  0
 10 40  1  0
 10 41  1  0
 12 13  1  0
 12 42  1  0
 13 14  1  0
 13 32  2  0
 14 15  2  0
 14 16  1  0
 16 17  1  0
 16 43  1  0
 17 18  2  0
 17 31  1  0
 18 19  1  0
 19 20  1  0
 19 30  2  0
 20 21  2  0
 20 29  1  0
 21 22  1  0
 21 44  1  0
 22 23  2  0
 22 45  1  0
 23 24  1  0
 23 28  1  0
 24 25  1  6
 24 26  1  0
 24 27  1  0
 25 46  1  0
 25 47  1  0
 25 48  1  0
 26 49  1  0
 26 50  1  0
 26 51  1  0
 27 52  1  0
 27 53  1  0
 27 54  1  0
 28 29  2  0
 28 55  1  0
 29 56  1  0
 30 31  1  0
 30 57  1  0
 32 58  1  0
M  END

