
     RDKit          3D

 55 58  0  0  0  0  0  0  0  0999 V2000
    1.3122    1.9160   -0.6626 C   0  0  0  0  0  0  0  0  0  0  0  0
    2.2946    0.9964   -0.1215 N   0  0  0  0  0  0  0  0  0  0  0  0
    3.1334    1.5335    0.9452 C   0  0  0  0  0  0  0  0  0  0  0  0
    3.9252    0.3039    1.4152 C   0  0  2  0  0  0  0  0  0  0  0  0
    4.2210    0.3952    2.4680 H   0  0  0  0  0  0  0  0  0  0  0  0
    5.2151    0.0008    0.6519 C   0  0  0  0  0  0  0  0  0  0  0  0
    6.1613   -0.5235    1.2220 O   0  0  0  0  0  0  0  0  0  0  0  0
    5.1557    0.2887   -0.6858 N   0  0  0  0  0  0  0  0  0  0  0  0
    6.1264    0.0761   -1.6814 C   0  0  0  0  0  0  0  0  0  0  0  0
    7.4085   -0.4378   -1.4147 C   0  0  0  0  0  0  0  0  0  0  0  0
    8.3196   -0.6145   -2.4574 C   0  0  0  0  0  0  0  0  0  0  0  0
    7.9665   -0.2846   -3.7680 C   0  0  0  0  0  0  0  0  0  0  0  0
    9.1164   -0.5106   -5.0676 Cl  0  0  0  0  0  0  0  0  0  0  0  0
    6.6957    0.2267   -4.0461 C   0  0  0  0  0  0  0  0  0  0  0  0
    5.7857    0.4051   -3.0064 C   0  0  0  0  0  0  0  0  0  0  0  0
    2.9126   -0.8820    1.1914 C   0  0  1  0  0  0  0  0  0  0  0  0
    3.3882   -1.6435    0.5518 H   0  0  0  0  0  0  0  0  0  0  0  0
    2.5150   -1.5991    2.4862 C   0  0  0  0  0  0  0  0  0  0  0  0
    1.3618   -1.6778    2.8684 O   0  0  0  0  0  0  0  0  0  0  0  0
    3.5893   -2.1532    3.1449 N   0  0  0  0  0  0  0  0  0  0  0  0
    3.5836   -2.8890    4.3391 C   0  0  0  0  0  0  0  0  0  0  0  0
    2.4463   -3.1752    5.1145 C   0  0  0  0  0  0  0  0  0  0  0  0
    2.5543   -3.9204    6.2889 C   0  0  0  0  0  0  0  0  0  0  0  0
    3.7962   -4.3997    6.7203 C   0  0  0  0  0  0  0  0  0  0  0  0
    3.9172   -5.1884    7.9130 N   0  0  0  0  0  0  0  0  0  0  0  0
    4.5981   -6.3805    7.8551 C   0  0  0  0  0  0  0  0  0  0  0  0
    4.8130   -7.1547    8.9588 C   0  0  0  0  0  0  0  0  0  0  0  0
    4.3078   -6.7001   10.2128 C   0  0  0  0  0  0  0  0  0  0  0  0
    3.6181   -5.5246   10.2958 C   0  0  0  0  0  0  0  0  0  0  0  0
    3.3594   -4.6813    9.1391 C   0  0  0  0  0  0  0  0  0  0  0  0
    2.7414   -3.6308    9.1560 O   0  0  0  0  0  0  0  0  0  0  0  0
    4.9434   -4.1130    5.9678 C   0  0  0  0  0  0  0  0  0  0  0  0
    4.8179   -3.3791    4.7991 C   0  0  0  0  0  0  0  0  0  0  0  0
    5.9168   -3.1051    4.0690 F   0  0  0  0  0  0  0  0  0  0  0  0
    1.7329   -0.2357    0.4444 C   0  0  0  0  0  0  0  0  0  0  0  0
    1.8134    2.8038   -1.0791 H   0  0  0  0  0  0  0  0  0  0  0  0
    0.5808    2.2596    0.1013 H   0  0  0  0  0  0  0  0  0  0  0  0
    0.7499    1.4314   -1.4758 H   0  0  0  0  0  0  0  0  0  0  0  0
    2.5280    1.9325    1.7890 H   0  0  0  0  0  0  0  0  0  0  0  0
    3.7733    2.3532    0.5804 H   0  0  0  0  0  0  0  0  0  0  0  0
    4.2360    0.6111   -1.0020 H   0  0  0  0  0  0  0  0  0  0  0  0
    7.6771   -0.6976   -0.3931 H   0  0  0  0  0  0  0  0  0  0  0  0
    9.3141   -1.0134   -2.2499 H   0  0  0  0  0  0  0  0  0  0  0  0
    6.4233    0.4836   -5.0711 H   0  0  0  0  0  0  0  0  0  0  0  0
    4.7927    0.8076   -3.2262 H   0  0  0  0  0  0  0  0  0  0  0  0
    4.5130   -2.0030    2.7418 H   0  0  0  0  0  0  0  0  0  0  0  0
    1.4800   -2.8066    4.7795 H   0  0  0  0  0  0  0  0  0  0  0  0
    1.6625   -4.1210    6.8802 H   0  0  0  0  0  0  0  0  0  0  0  0
    4.9399   -6.6755    6.8618 H   0  0  0  0  0  0  0  0  0  0  0  0
    5.3481   -8.0995    8.8640 H   0  0  0  0  0  0  0  0  0  0  0  0
    4.4719   -7.3013   11.1117 H   0  0  0  0  0  0  0  0  0  0  0  0
    3.2191   -5.1487   11.2393 H   0  0  0  0  0  0  0  0  0  0  0  0
    5.9369   -4.4362    6.2817 H   0  0  0  0  0  0  0  0  0  0  0  0
    0.9150   -0.0262    1.1630 H   0  0  0  0  0  0  0  0  0  0  0  0
    1.3219   -0.8792   -0.3487 H   0  0  0  0  0  0  0  0  0  0  0  0
  1  2  1  0
  1 36  1  0
  1 37  1  0
  1 38  1  0
  2  3  1  0
  2 35  1  0
  3  4  1  0
  3 39  1  0
  3 40  1  0
  4  5  1  1
  4  6  1  0
  4 16  1  0
  6  7  2  0
  6  8  1  0
  8  9  1  0
  8 41  1  0
  9 10  2  0
  9 15  1  0
 10 11  1  0
 10 42  1  0
 11 12  2  0
 11 43  1  0
 12 13  1  0
 12 14  1  0
 14 15  2  0
 14 44  1  0
 15 45  1  0
 16 17  1  6
 16 18  1  0
 16 35  1  0
 18 19  2  0
 18 20  1  0
 20 21  1  0
 20 46  1  0
 21 22  2  0
 21 33  1  0
 22 23  1  0
 22 47  1  0
 23 24  2  0
 23 48  1  0
 24 25  1  0
 24 32  1  0
 25 26  1  0
 25 30  1  0
 26 27  2  0
 26 49  1  0
 27 28  1  0
 27 50  1  0
 28 29  2  0
 28 51  1  0
 29 30  1  0
 29 52  1  0
 30 31  2  0
 32 33  2  0
 32 53  1  0
 33 34  1  0
 35 54  1  0
 35 55  1  0
M  END

