
     RDKit          3D

 50 52  0  0  0  0  0  0  0  0999 V2000
    1.8301   -5.5092    3.7567 C   0  0  0  0  0  0  0  0  0  0  0  0
    1.0482   -4.2374    3.9088 C   0  0  0  0  0  0  0  0  0  0  0  0
    0.4133   -3.9801    5.0466 N   0  0  0  0  0  0  0  0  0  0  0  0
   -0.1411   -2.7598    4.8941 N   0  0  0  0  0  0  0  0  0  0  0  0
   -0.9362   -2.1961    5.9644 C   0  0  0  0  0  0  0  0  0  0  0  0
    0.1378   -2.2017    3.6870 C   0  0  0  0  0  0  0  0  0  0  0  0
   -0.3328   -0.8407    3.2908 C   0  0  0  0  0  0  0  0  0  0  0  0
    0.8993   -3.1466    2.9929 C   0  0  0  0  0  0  0  0  0  0  0  0
    1.5402   -2.8952    1.6717 C   0  0  0  0  0  0  0  0  0  0  0  0
    2.0596   -1.8125    1.4199 O   0  0  0  0  0  0  0  0  0  0  0  0
    1.5705   -3.9302    0.7503 N   0  0  0  0  0  0  0  0  0  0  0  0
    2.3964   -3.7537   -0.4370 C   0  0  0  0  0  0  0  0  0  0  0  0
    0.5603   -4.9724    0.6885 C   0  0  0  0  0  0  0  0  0  0  0  0
   -0.6066   -4.6629   -0.2261 C   0  0  0  0  0  0  0  0  0  0  0  0
   -0.9806   -3.4250   -0.6789 C   0  0  0  0  0  0  0  0  0  0  0  0
   -2.4068   -3.5604   -1.6637 S   0  0  0  0  0  0  0  0  0  0  0  0
   -2.4039   -5.2983   -1.3397 C   0  0  0  0  0  0  0  0  0  0  0  0
   -3.4008   -6.1001   -1.8774 N   0  0  0  0  0  0  0  0  0  0  0  0
   -3.2043   -7.4062   -2.3658 C   0  0  0  0  0  0  0  0  0  0  0  0
   -2.1181   -7.9213   -2.5056 O   0  0  0  0  0  0  0  0  0  0  0  0
   -4.3990   -8.0114   -2.7096 N   0  0  0  0  0  0  0  0  0  0  0  0
   -4.3880   -9.4077   -3.1364 C   0  0  0  0  0  0  0  0  0  0  0  0
   -4.4082  -10.4088   -2.0089 C   0  0  0  0  0  0  0  0  0  0  0  0
   -3.3646  -10.8052   -1.2068 C   0  0  0  0  0  0  0  0  0  0  0  0
   -3.7449  -11.7299   -0.1880 C   0  0  0  0  0  0  0  0  0  0  0  0
   -5.0850  -12.0217   -0.2291 C   0  0  0  0  0  0  0  0  0  0  0  0
   -5.9531  -13.0966    0.8061 Cl  0  0  0  0  0  0  0  0  0  0  0  0
   -5.8993  -11.1750   -1.5130 S   0  0  0  0  0  0  0  0  0  0  0  0
   -1.4250   -5.7041   -0.5960 N   0  0  0  0  0  0  0  0  0  0  0  0
    2.1896   -5.8430    4.7403 H   0  0  0  0  0  0  0  0  0  0  0  0
    2.6922   -5.3719    3.0882 H   0  0  0  0  0  0  0  0  0  0  0  0
    1.2158   -6.3248    3.3385 H   0  0  0  0  0  0  0  0  0  0  0  0
   -0.8560   -2.8752    6.8212 H   0  0  0  0  0  0  0  0  0  0  0  0
   -1.9957   -2.1042    5.6737 H   0  0  0  0  0  0  0  0  0  0  0  0
   -0.5626   -1.2012    6.2532 H   0  0  0  0  0  0  0  0  0  0  0  0
   -0.0710   -0.0891    4.0540 H   0  0  0  0  0  0  0  0  0  0  0  0
   -1.4279   -0.8051    3.1563 H   0  0  0  0  0  0  0  0  0  0  0  0
    0.1551   -0.5448    2.3542 H   0  0  0  0  0  0  0  0  0  0  0  0
    3.2177   -3.0670   -0.2012 H   0  0  0  0  0  0  0  0  0  0  0  0
    1.8344   -3.3310   -1.2881 H   0  0  0  0  0  0  0  0  0  0  0  0
    2.8019   -4.7304   -0.7455 H   0  0  0  0  0  0  0  0  0  0  0  0
    0.1610   -5.1611    1.6931 H   0  0  0  0  0  0  0  0  0  0  0  0
    1.0159   -5.9179    0.3501 H   0  0  0  0  0  0  0  0  0  0  0  0
   -0.5143   -2.4607   -0.4876 H   0  0  0  0  0  0  0  0  0  0  0  0
   -4.2664   -5.6386   -2.1322 H   0  0  0  0  0  0  0  0  0  0  0  0
   -5.2331   -7.6982   -2.2231 H   0  0  0  0  0  0  0  0  0  0  0  0
   -3.4689   -9.5489   -3.7211 H   0  0  0  0  0  0  0  0  0  0  0  0
   -5.2409   -9.5705   -3.8134 H   0  0  0  0  0  0  0  0  0  0  0  0
   -2.3515  -10.4243   -1.3452 H   0  0  0  0  0  0  0  0  0  0  0  0
   -3.0639  -12.1667    0.5425 H   0  0  0  0  0  0  0  0  0  0  0  0
  1  2  1  0
  1 30  1  0
  1 31  1  0
  1 32  1  0
  2  3  2  0
  2  8  1  0
  3  4  1  0
  4  5  1  0
  4  6  1  0
  5 33  1  0
  5 34  1  0
  5 35  1  0
  6  7  1  0
  6  8  2  0
  7 36  1  0
  7 37  1  0
  7 38  1  0
  8  9  1  0
  9 10  2  0
  9 11  1  0
 11 12  1  0
 11 13  1  0
 12 39  1  0
 12 40  1  0
 12 41  1  0
 13 14  1  0
 13 42  1  0
 13 43  1  0
 14 15  2  0
 14 29  1  0
 15 16  1  0
 15 44  1  0
 16 17  1  0
 17 18  1  0
 17 29  2  0
 18 19  1  0
 18 45  1  0
 19 20  2  0
 19 21  1  0
 21 22  1  0
 21 46  1  0
 22 23  1  0
 22 47  1  0
 22 48  1  0
 23 24  2  0
 23 28  1  0
 24 25  1  0
 24 49  1  0
 25 26  2  0
 25 50  1  0
 26 27  1  0
 26 28  1  0
M  END

