
     RDKit          3D

 38 39  0  0  0  0  0  0  0  0999 V2000
    4.2758   -0.5538    0.8240 C   0  0  0  0  0  0  0  0  0  0  0  0
    2.9278   -0.3250    0.1212 C   0  0  0  0  0  0  0  0  0  0  0  0
    2.9277    0.8508   -0.8397 C   0  0  0  0  0  0  0  0  0  0  0  0
    2.7516    2.1344   -0.2950 C   0  0  0  0  0  0  0  0  0  0  0  0
    2.7647    3.2753   -1.1008 C   0  0  0  0  0  0  0  0  0  0  0  0
    2.6604    4.5482   -0.5943 O   0  0  0  0  0  0  0  0  0  0  0  0
    1.8283    4.8511    0.4564 C   0  0  0  0  0  0  0  0  0  0  0  0
    2.2924    5.7906    1.3845 C   0  0  0  0  0  0  0  0  0  0  0  0
    1.4635    6.1955    2.4331 C   0  0  0  0  0  0  0  0  0  0  0  0
    0.1769    5.6633    2.5651 C   0  0  0  0  0  0  0  0  0  0  0  0
   -0.2788    4.7261    1.6321 C   0  0  0  0  0  0  0  0  0  0  0  0
    0.5374    4.3180    0.5739 C   0  0  0  0  0  0  0  0  0  0  0  0
    2.9551    3.1488   -2.4799 C   0  0  0  0  0  0  0  0  0  0  0  0
    3.1278    1.8787   -3.0234 C   0  0  0  0  0  0  0  0  0  0  0  0
    3.1209    0.7139   -2.2350 C   0  0  0  0  0  0  0  0  0  0  0  0
    3.3346   -0.6198   -2.9241 C   0  0  0  0  0  0  0  0  0  0  0  0
    4.8136   -0.9926   -3.0934 C   0  0  0  0  0  0  0  0  0  0  0  0
    5.0173   -2.3208   -3.8117 C   0  0  0  0  0  0  0  0  0  0  0  0
    4.1304   -3.0315   -4.1958 O   0  0  0  0  0  0  0  0  0  0  0  0
    6.3111   -2.6791   -4.0004 O   0  0  0  0  0  0  0  0  0  0  0  0
    4.2164   -1.4030    1.5235 H   0  0  0  0  0  0  0  0  0  0  0  0
    4.5824    0.3360    1.3965 H   0  0  0  0  0  0  0  0  0  0  0  0
    5.0788   -0.7700    0.1015 H   0  0  0  0  0  0  0  0  0  0  0  0
    2.1575   -0.1479    0.8903 H   0  0  0  0  0  0  0  0  0  0  0  0
    2.6273   -1.2472   -0.3979 H   0  0  0  0  0  0  0  0  0  0  0  0
    2.5996    2.2430    0.7815 H   0  0  0  0  0  0  0  0  0  0  0  0
    3.2998    6.1937    1.2632 H   0  0  0  0  0  0  0  0  0  0  0  0
    1.8295    6.9307    3.1545 H   0  0  0  0  0  0  0  0  0  0  0  0
   -0.4684    5.9789    3.3882 H   0  0  0  0  0  0  0  0  0  0  0  0
   -1.2862    4.3110    1.7209 H   0  0  0  0  0  0  0  0  0  0  0  0
    0.1767    3.5956   -0.1605 H   0  0  0  0  0  0  0  0  0  0  0  0
    2.9569    4.0451   -3.1029 H   0  0  0  0  0  0  0  0  0  0  0  0
    3.2597    1.7828   -4.1055 H   0  0  0  0  0  0  0  0  0  0  0  0
    2.8753   -0.5929   -3.9244 H   0  0  0  0  0  0  0  0  0  0  0  0
    2.8285   -1.4382   -2.3935 H   0  0  0  0  0  0  0  0  0  0  0  0
    5.3197   -1.0523   -2.1133 H   0  0  0  0  0  0  0  0  0  0  0  0
    5.3481   -0.2051   -3.6557 H   0  0  0  0  0  0  0  0  0  0  0  0
    6.9059   -2.0048   -3.6420 H   0  0  0  0  0  0  0  0  0  0  0  0
  1  2  1  0
  1 21  1  0
  1 22  1  0
  1 23  1  0
  2  3  1  0
  2 24  1  0
  2 25  1  0
  3  4  2  0
  3 15  1  0
  4  5  1  0
  4 26  1  0
  5  6  1  0
  5 13  2  0
  6  7  1  0
  7  8  2  0
  7 12  1  0
  8  9  1  0
  8 27  1  0
  9 10  2  0
  9 28  1  0
 10 11  1  0
 10 29  1  0
 11 12  2  0
 11 30  1  0
 12 31  1  0
 13 14  1  0
 13 32  1  0
 14 15  2  0
 14 33  1  0
 15 16  1  0
 16 17  1  0
 16 34  1  0
 16 35  1  0
 17 18  1  0
 17 36  1  0
 17 37  1  0
 18 19  2  0
 18 20  1  0
 20 38  1  0
M  END

