
     RDKit          3D

 42 43  0  0  0  0  0  0  0  0999 V2000
    2.3765    0.5370   -1.3130 C   0  0  0  0  0  0  0  0  0  0  0  0
    2.3155    1.5140   -0.1395 C   0  0  0  0  0  0  0  0  0  0  0  0
    3.0960    1.0710    1.1063 C   0  0  0  0  0  0  0  0  0  0  0  0
    4.5409    1.0011    0.9221 N   0  0  0  0  0  0  0  0  0  0  0  0
    5.3613   -0.1153    0.7904 C   0  0  0  0  0  0  0  0  0  0  0  0
    4.8639   -1.5431    0.7984 C   0  0  1  0  0  0  0  0  0  0  0  0
    5.6797   -2.4501   -0.1381 C   0  0  0  0  0  0  0  0  0  0  0  0
    5.5203   -2.1111   -1.6189 C   0  0  0  0  0  0  0  0  0  0  0  0
    4.8628   -2.1021    2.2296 C   0  0  0  0  0  0  0  0  0  0  0  0
    5.3628   -3.1435    2.5679 O   0  0  0  0  0  0  0  0  0  0  0  0
    4.2042   -1.2792    3.0714 O   0  0  0  0  0  0  0  0  0  0  0  0
    4.1381   -1.6582    4.4619 C   0  0  0  0  0  0  0  0  0  0  0  0
    2.9689   -2.5875    4.7388 C   0  0  0  0  0  0  0  0  0  0  0  0
    6.6300    0.1915    0.6864 N   0  0  0  0  0  0  0  0  0  0  0  0
    6.6910    1.5683    0.7537 C   0  0  0  0  0  0  0  0  0  0  0  0
    7.7954    2.4325    0.7053 C   0  0  0  0  0  0  0  0  0  0  0  0
    7.5722    3.8028    0.8161 C   0  0  0  0  0  0  0  0  0  0  0  0
    6.2639    4.2922    0.9738 C   0  0  0  0  0  0  0  0  0  0  0  0
    6.0916    5.6219    1.0813 F   0  0  0  0  0  0  0  0  0  0  0  0
    5.1409    3.4736    1.0233 C   0  0  0  0  0  0  0  0  0  0  0  0
    5.3843    2.0986    0.9057 C   0  0  0  0  0  0  0  0  0  0  0  0
    1.8063    0.9194   -2.1739 H   0  0  0  0  0  0  0  0  0  0  0  0
    1.9496   -0.4439   -1.0441 H   0  0  0  0  0  0  0  0  0  0  0  0
    3.4118    0.3722   -1.6506 H   0  0  0  0  0  0  0  0  0  0  0  0
    1.2661    1.6611    0.1705 H   0  0  0  0  0  0  0  0  0  0  0  0
    2.6790    2.5048   -0.4603 H   0  0  0  0  0  0  0  0  0  0  0  0
    2.7518    0.0897    1.4588 H   0  0  0  0  0  0  0  0  0  0  0  0
    2.9036    1.7738    1.9339 H   0  0  0  0  0  0  0  0  0  0  0  0
    3.8076   -1.5512    0.4787 H   0  0  0  0  0  0  0  0  0  0  0  0
    5.3748   -3.4902    0.0521 H   0  0  0  0  0  0  0  0  0  0  0  0
    6.7373   -2.3742    0.1550 H   0  0  0  0  0  0  0  0  0  0  0  0
    4.4703   -2.1939   -1.9475 H   0  0  0  0  0  0  0  0  0  0  0  0
    6.1142   -2.8007   -2.2391 H   0  0  0  0  0  0  0  0  0  0  0  0
    5.8676   -1.0895   -1.8389 H   0  0  0  0  0  0  0  0  0  0  0  0
    4.0331   -0.7072    5.0037 H   0  0  0  0  0  0  0  0  0  0  0  0
    5.0913   -2.1287    4.7437 H   0  0  0  0  0  0  0  0  0  0  0  0
    2.0166   -2.1320    4.4245 H   0  0  0  0  0  0  0  0  0  0  0  0
    2.9072   -2.7980    5.8186 H   0  0  0  0  0  0  0  0  0  0  0  0
    3.0967   -3.5448    4.2122 H   0  0  0  0  0  0  0  0  0  0  0  0
    8.8031    2.0295    0.5878 H   0  0  0  0  0  0  0  0  0  0  0  0
    8.3942    4.5205    0.7861 H   0  0  0  0  0  0  0  0  0  0  0  0
    4.1499    3.9116    1.1463 H   0  0  0  0  0  0  0  0  0  0  0  0
  1  2  1  0
  1 22  1  0
  1 23  1  0
  1 24  1  0
  2  3  1  0
  2 25  1  0
  2 26  1  0
  3  4  1  0
  3 27  1  0
  3 28  1  0
  4  5  1  0
  4 21  1  0
  5  6  1  0
  5 14  2  0
  6  7  1  0
  6  9  1  0
  6 29  1  6
  7  8  1  0
  7 30  1  0
  7 31  1  0
  8 32  1  0
  8 33  1  0
  8 34  1  0
  9 10  2  0
  9 11  1  0
 11 12  1  0
 12 13  1  0
 12 35  1  0
 12 36  1  0
 13 37  1  0
 13 38  1  0
 13 39  1  0
 14 15  1  0
 15 16  1  0
 15 21  2  0
 16 17  2  0
 16 40  1  0
 17 18  1  0
 17 41  1  0
 18 19  1  0
 18 20  2  0
 20 21  1  0
 20 42  1  0
M  END

