
     RDKit          3D

 30 31  0  0  0  0  0  0  0  0999 V2000
    2.7354    1.0926   -0.6293 C   0  0  0  0  0  0  0  0  0  0  0  0
    2.7839   -0.2163   -0.1080 O   0  0  0  0  0  0  0  0  0  0  0  0
    3.4599   -0.4538    1.0464 C   0  0  0  0  0  0  0  0  0  0  0  0
    4.1202    0.5329    1.7889 C   0  0  0  0  0  0  0  0  0  0  0  0
    4.7894    0.1889    2.9691 C   0  0  0  0  0  0  0  0  0  0  0  0
    4.8041   -1.1306    3.4254 C   0  0  0  0  0  0  0  0  0  0  0  0
    5.5501   -1.5193    4.6816 C   0  0  1  0  0  0  0  0  0  0  0  0
    6.8806   -2.0481    4.4431 C   0  0  0  0  0  0  0  0  0  0  0  0
    7.9414   -2.4766    4.2460 N   0  0  0  0  0  0  0  0  0  0  0  0
    5.3566   -0.7126    5.9641 C   0  0  0  0  0  0  0  0  0  0  0  0
    4.7758   -2.0899    5.8779 C   0  0  2  0  0  0  0  0  0  0  0  0
    5.3076   -3.2335    6.7113 C   0  0  0  0  0  0  0  0  0  0  0  0
    4.1398   -2.1080    2.6629 C   0  0  0  0  0  0  0  0  0  0  0  0
    3.4644   -1.8015    1.4818 C   0  0  0  0  0  0  0  0  0  0  0  0
    2.7518   -2.8486    0.6680 C   0  0  0  0  0  0  0  0  0  0  0  0
    2.1481    1.0392   -1.5559 H   0  0  0  0  0  0  0  0  0  0  0  0
    3.7434    1.4781   -0.8663 H   0  0  0  0  0  0  0  0  0  0  0  0
    2.2418    1.7945    0.0670 H   0  0  0  0  0  0  0  0  0  0  0  0
    4.1234    1.5717    1.4587 H   0  0  0  0  0  0  0  0  0  0  0  0
    5.3077    0.9670    3.5350 H   0  0  0  0  0  0  0  0  0  0  0  0
    4.6868    0.1484    5.8996 H   0  0  0  0  0  0  0  0  0  0  0  0
    6.2365   -0.5641    6.5960 H   0  0  0  0  0  0  0  0  0  0  0  0
    3.6974   -2.1265    5.6889 H   0  0  0  0  0  0  0  0  0  0  0  0
    6.3994   -3.1743    6.8353 H   0  0  0  0  0  0  0  0  0  0  0  0
    5.0769   -4.2062    6.2478 H   0  0  0  0  0  0  0  0  0  0  0  0
    4.8508   -3.2214    7.7143 H   0  0  0  0  0  0  0  0  0  0  0  0
    4.1518   -3.1473    3.0041 H   0  0  0  0  0  0  0  0  0  0  0  0
    2.8443   -3.8418    1.1302 H   0  0  0  0  0  0  0  0  0  0  0  0
    3.1584   -2.9007   -0.3553 H   0  0  0  0  0  0  0  0  0  0  0  0
    1.6807   -2.6102    0.5612 H   0  0  0  0  0  0  0  0  0  0  0  0
  1  2  1  0
  1 16  1  0
  1 17  1  0
  1 18  1  0
  2  3  1  0
  3  4  2  0
  3 14  1  0
  4  5  1  0
  4 19  1  0
  5  6  2  0
  5 20  1  0
  6  7  1  0
  6 13  1  0
  7  8  1  6
  7 10  1  0
  7 11  1  0
  8  9  3  0
 10 11  1  0
 10 21  1  0
 10 22  1  0
 11 12  1  0
 11 23  1  6
 12 24  1  0
 12 25  1  0
 12 26  1  0
 13 14  2  0
 13 27  1  0
 14 15  1  0
 15 28  1  0
 15 29  1  0
 15 30  1  0
M  END

