
     RDKit          3D

 61 65  0  0  0  0  0  0  0  0999 V2000
    0.3718    0.2163    0.1962 C   0  0  0  0  0  0  0  0  0  0  0  0
    1.8944    0.4437    0.1896 C   0  0  1  0  0  0  0  0  0  0  0  0
    2.1160    1.8661   -0.1352 N   0  0  0  0  0  0  0  0  0  0  0  0
    2.4563    0.1565    1.6228 C   0  0  0  0  0  0  0  0  0  0  0  0
    2.5903   -1.2738    2.1341 C   0  0  1  0  0  0  0  0  0  0  0  0
    3.1033   -1.3890    3.5959 C   0  0  0  0  0  0  0  0  0  0  0  0
    2.1908   -2.4562    4.1565 C   0  0  0  0  0  0  0  0  0  0  0  0
    1.2189   -2.6843    3.2665 C   0  0  0  0  0  0  0  0  0  0  0  0
    1.3151   -1.9695    2.1104 O   0  0  0  0  0  0  0  0  0  0  0  0
    2.5755   -0.4749   -0.8992 C   0  0  1  0  0  0  0  0  0  0  0  0
    1.8250   -0.5107   -2.2297 C   0  0  0  0  0  0  0  0  0  0  0  0
    1.4603    0.6472   -2.9439 C   0  0  0  0  0  0  0  0  0  0  0  0
    0.7853    0.5671   -4.1643 C   0  0  0  0  0  0  0  0  0  0  0  0
    0.4637   -0.6849   -4.6842 C   0  0  0  0  0  0  0  0  0  0  0  0
   -0.1824   -0.7647   -5.8577 F   0  0  0  0  0  0  0  0  0  0  0  0
    0.7894   -1.8529   -4.0020 C   0  0  0  0  0  0  0  0  0  0  0  0
    1.4607   -1.7519   -2.7800 C   0  0  0  0  0  0  0  0  0  0  0  0
    4.1304   -0.2468   -1.0049 C   0  0  1  0  0  0  0  0  0  0  0  0
    4.9446   -1.5455   -1.2340 C   0  0  0  0  0  0  0  0  0  0  0  0
    5.1337   -1.9570   -2.6969 C   0  0  0  0  0  0  0  0  0  0  0  0
    5.7200   -0.8463   -3.4490 N   0  0  0  0  0  0  0  0  0  0  0  0
    6.5852   -1.1164   -4.4776 C   0  0  0  0  0  0  0  0  0  0  0  0
    6.7249   -2.3823   -4.8542 N   0  0  0  0  0  0  0  0  0  0  0  0
    7.5096   -2.7028   -5.9100 C   0  0  0  0  0  0  0  0  0  0  0  0
    8.1932   -1.8989   -6.6865 N   0  0  0  0  0  0  0  0  0  0  0  0
    8.1521   -0.6027   -6.2951 C   0  0  0  0  0  0  0  0  0  0  0  0
    8.8814    0.3679   -6.8627 N   0  0  0  0  0  0  0  0  0  0  0  0
    8.6258    1.4391   -6.1067 N   0  0  0  0  0  0  0  0  0  0  0  0
    9.0867    2.3198   -6.3123 H   0  0  0  0  0  0  0  0  0  0  0  0
    7.7667    1.2274   -5.0834 C   0  0  0  0  0  0  0  0  0  0  0  0
    7.4851    2.6326   -3.8610 Br  0  0  0  0  0  0  0  0  0  0  0  0
    7.3803   -0.1199   -5.1668 C   0  0  0  0  0  0  0  0  0  0  0  0
    4.8671    0.3432   -3.4223 C   0  0  0  0  0  0  0  0  0  0  0  0
    4.6336    0.8376   -1.9915 C   0  0  0  0  0  0  0  0  0  0  0  0
   -0.0879    0.7796    1.0256 H   0  0  0  0  0  0  0  0  0  0  0  0
    0.1290   -0.8428    0.3456 H   0  0  0  0  0  0  0  0  0  0  0  0
   -0.0829    0.5605   -0.7414 H   0  0  0  0  0  0  0  0  0  0  0  0
    1.4944    2.4505    0.4253 H   0  0  0  0  0  0  0  0  0  0  0  0
    3.0644    2.1524    0.1093 H   0  0  0  0  0  0  0  0  0  0  0  0
    1.8284    0.7201    2.3348 H   0  0  0  0  0  0  0  0  0  0  0  0
    3.4638    0.6002    1.7057 H   0  0  0  0  0  0  0  0  0  0  0  0
    3.2619   -1.8512    1.4748 H   0  0  0  0  0  0  0  0  0  0  0  0
    2.9983   -0.4337    4.1458 H   0  0  0  0  0  0  0  0  0  0  0  0
    4.1717   -1.6580    3.6280 H   0  0  0  0  0  0  0  0  0  0  0  0
    2.2727   -2.9096    5.1429 H   0  0  0  0  0  0  0  0  0  0  0  0
    0.3526   -3.3446    3.3274 H   0  0  0  0  0  0  0  0  0  0  0  0
    2.4652   -1.4917   -0.4942 H   0  0  0  0  0  0  0  0  0  0  0  0
    1.6840    1.6232   -2.5128 H   0  0  0  0  0  0  0  0  0  0  0  0
    0.4985    1.4644   -4.7168 H   0  0  0  0  0  0  0  0  0  0  0  0
    0.5121   -2.8201   -4.4257 H   0  0  0  0  0  0  0  0  0  0  0  0
    1.7035   -2.6710   -2.2392 H   0  0  0  0  0  0  0  0  0  0  0  0
    4.4324    0.0984   -0.0047 H   0  0  0  0  0  0  0  0  0  0  0  0
    4.4912   -2.3857   -0.6818 H   0  0  0  0  0  0  0  0  0  0  0  0
    5.9511   -1.3982   -0.8053 H   0  0  0  0  0  0  0  0  0  0  0  0
    4.1759   -2.2575   -3.1596 H   0  0  0  0  0  0  0  0  0  0  0  0
    5.8042   -2.8198   -2.7761 H   0  0  0  0  0  0  0  0  0  0  0  0
    7.5484   -3.7741   -6.1463 H   0  0  0  0  0  0  0  0  0  0  0  0
    3.9059    0.0906   -3.9035 H   0  0  0  0  0  0  0  0  0  0  0  0
    5.3167    1.1405   -4.0211 H   0  0  0  0  0  0  0  0  0  0  0  0
    3.9460    1.6947   -2.0167 H   0  0  0  0  0  0  0  0  0  0  0  0
    5.5993    1.2156   -1.6140 H   0  0  0  0  0  0  0  0  0  0  0  0
  1  2  1  0
  1 35  1  0
  1 36  1  0
  1 37  1  0
  2  3  1  6
  2  4  1  0
  2 10  1  0
  3 38  1  0
  3 39  1  0
  4  5  1  0
  4 40  1  0
  4 41  1  0
  5  6  1  0
  5  9  1  0
  5 42  1  6
  6  7  1  0
  6 43  1  0
  6 44  1  0
  7  8  2  0
  7 45  1  0
  8  9  1  0
  8 46  1  0
 10 11  1  0
 10 18  1  0
 10 47  1  1
 11 12  2  0
 11 17  1  0
 12 13  1  0
 12 48  1  0
 13 14  2  0
 13 49  1  0
 14 15  1  0
 14 16  1  0
 16 17  2  0
 16 50  1  0
 17 51  1  0
 18 19  1  0
 18 34  1  0
 18 52  1  1
 19 20  1  0
 19 53  1  0
 19 54  1  0
 20 21  1  0
 20 55  1  0
 20 56  1  0
 21 22  1  0
 21 33  1  0
 22 23  2  0
 22 32  1  0
 23 24  1  0
 24 25  2  0
 24 57  1  0
 25 26  1  0
 26 27  2  0
 26 32  1  0
 27 28  1  0
 28 29  1  0
 28 30  1  0
 30 31  1  0
 30 32  2  0
 33 34  1  0
 33 58  1  0
 33 59  1  0
 34 60  1  0
 34 61  1  0
M  END

