
     RDKit          3D

 55 57  0  0  0  0  0  0  0  0999 V2000
    0.5054    1.4813   -2.1063 C   0  0  0  0  0  0  0  0  0  0  0  0
    1.9428    0.9636   -2.0205 C   0  0  0  0  0  0  0  0  0  0  0  0
    2.5102    0.9289   -0.5845 C   0  0  2  0  0  0  0  0  0  0  0  0
    1.8719    0.2272   -0.0114 H   0  0  0  0  0  0  0  0  0  0  0  0
    2.3050    2.2453    0.1260 C   0  0  0  0  0  0  0  0  0  0  0  0
    1.4118    2.4410    1.0808 N   0  0  0  0  0  0  0  0  0  0  0  0
    1.5247    3.7310    1.4569 N   0  0  0  0  0  0  0  0  0  0  0  0
    2.4473    4.3246    0.7840 N   0  0  0  0  0  0  0  0  0  0  0  0
    2.9601    3.4173   -0.0723 N   0  0  0  0  0  0  0  0  0  0  0  0
    4.0526    3.7790   -0.9752 C   0  0  0  0  0  0  0  0  0  0  0  0
    3.6115    4.5399   -2.2308 C   0  0  0  0  0  0  0  0  0  0  0  0
    2.9715    5.9273   -2.0291 C   0  0  1  0  0  0  0  0  0  0  0  0
    3.8996    6.9057   -1.2985 C   0  0  0  0  0  0  0  0  0  0  0  0
    2.5255    6.4944   -3.3834 C   0  0  0  0  0  0  0  0  0  0  0  0
    3.9390    0.5639   -0.5280 N   0  0  0  0  0  0  0  0  0  0  0  0
    4.4326    0.3171    0.8334 C   0  0  0  0  0  0  0  0  0  0  0  0
    4.0672   -1.0714    1.3776 C   0  0  0  0  0  0  0  0  0  0  0  0
    4.5449   -2.1010    0.4580 N   0  0  0  0  0  0  0  0  0  0  0  0
    4.8207   -3.4057    0.9037 C   0  0  0  0  0  0  0  0  0  0  0  0
    5.7736   -4.1979    0.2268 C   0  0  0  0  0  0  0  0  0  0  0  0
    6.0856   -5.4935    0.6359 C   0  0  0  0  0  0  0  0  0  0  0  0
    5.4701   -6.0438    1.7651 C   0  0  0  0  0  0  0  0  0  0  0  0
    4.5293   -5.2851    2.4628 C   0  0  0  0  0  0  0  0  0  0  0  0
    4.2050   -4.0048    2.0224 C   0  0  0  0  0  0  0  0  0  0  0  0
    3.2536   -3.3313    2.7026 F   0  0  0  0  0  0  0  0  0  0  0  0
    4.0706   -1.9135   -0.9111 C   0  0  0  0  0  0  0  0  0  0  0  0
    4.4195   -0.5045   -1.4055 C   0  0  0  0  0  0  0  0  0  0  0  0
    0.1248    1.3848   -3.1349 H   0  0  0  0  0  0  0  0  0  0  0  0
    0.4250    2.5405   -1.8183 H   0  0  0  0  0  0  0  0  0  0  0  0
   -0.1661    0.9133   -1.4430 H   0  0  0  0  0  0  0  0  0  0  0  0
    2.6057    1.5685   -2.6630 H   0  0  0  0  0  0  0  0  0  0  0  0
    1.9694   -0.0597   -2.4258 H   0  0  0  0  0  0  0  0  0  0  0  0
    4.5427    2.8337   -1.2437 H   0  0  0  0  0  0  0  0  0  0  0  0
    4.7639    4.3728   -0.3833 H   0  0  0  0  0  0  0  0  0  0  0  0
    2.9159    3.9028   -2.8044 H   0  0  0  0  0  0  0  0  0  0  0  0
    4.5122    4.6491   -2.8631 H   0  0  0  0  0  0  0  0  0  0  0  0
    2.0713    5.7960   -1.4033 H   0  0  0  0  0  0  0  0  0  0  0  0
    4.8563    7.0283   -1.8367 H   0  0  0  0  0  0  0  0  0  0  0  0
    4.1172    6.5748   -0.2720 H   0  0  0  0  0  0  0  0  0  0  0  0
    3.4327    7.9007   -1.2235 H   0  0  0  0  0  0  0  0  0  0  0  0
    3.3895    6.6569   -4.0514 H   0  0  0  0  0  0  0  0  0  0  0  0
    2.0154    7.4629   -3.2599 H   0  0  0  0  0  0  0  0  0  0  0  0
    1.8292    5.8135   -3.9002 H   0  0  0  0  0  0  0  0  0  0  0  0
    4.0441    1.0878    1.5158 H   0  0  0  0  0  0  0  0  0  0  0  0
    5.5321    0.4118    0.8167 H   0  0  0  0  0  0  0  0  0  0  0  0
    2.9741   -1.1379    1.5459 H   0  0  0  0  0  0  0  0  0  0  0  0
    4.5454   -1.2116    2.3570 H   0  0  0  0  0  0  0  0  0  0  0  0
    6.2914   -3.7608   -0.6299 H   0  0  0  0  0  0  0  0  0  0  0  0
    6.8312   -6.0677    0.0806 H   0  0  0  0  0  0  0  0  0  0  0  0
    5.7186   -7.0524    2.1019 H   0  0  0  0  0  0  0  0  0  0  0  0
    4.0109   -5.6737    3.3420 H   0  0  0  0  0  0  0  0  0  0  0  0
    2.9713   -2.0785   -0.9745 H   0  0  0  0  0  0  0  0  0  0  0  0
    4.5389   -2.6580   -1.5703 H   0  0  0  0  0  0  0  0  0  0  0  0
    4.0532   -0.3598   -2.4302 H   0  0  0  0  0  0  0  0  0  0  0  0
    5.5198   -0.4209   -1.4445 H   0  0  0  0  0  0  0  0  0  0  0  0
  1  2  1  0
  1 28  1  0
  1 29  1  0
  1 30  1  0
  2  3  1  0
  2 31  1  0
  2 32  1  0
  3  4  1  1
  3  5  1  0
  3 15  1  0
  5  6  2  0
  5  9  1  0
  6  7  1  0
  7  8  2  0
  8  9  1  0
  9 10  1  0
 10 11  1  0
 10 33  1  0
 10 34  1  0
 11 12  1  0
 11 35  1  0
 11 36  1  0
 12 13  1  0
 12 14  1  0
 12 37  1  1
 13 38  1  0
 13 39  1  0
 13 40  1  0
 14 41  1  0
 14 42  1  0
 14 43  1  0
 15 16  1  0
 15 27  1  0
 16 17  1  0
 16 44  1  0
 16 45  1  0
 17 18  1  0
 17 46  1  0
 17 47  1  0
 18 19  1  0
 18 26  1  0
 19 20  2  0
 19 24  1  0
 20 21  1  0
 20 48  1  0
 21 22  2  0
 21 49  1  0
 22 23  1  0
 22 50  1  0
 23 24  2  0
 23 51  1  0
 24 25  1  0
 26 27  1  0
 26 52  1  0
 26 53  1  0
 27 54  1  0
 27 55  1  0
M  END

