
     RDKit          3D

 38 39  0  0  0  0  0  0  0  0999 V2000
    1.4086   -0.0025   -1.2466 C   0  0  0  0  0  0  0  0  0  0  0  0
    2.7459   -0.0814   -0.5584 C   0  0  0  0  0  0  0  0  0  0  0  0
    3.3633    1.0759   -0.3424 N   0  0  0  0  0  0  0  0  0  0  0  0
    4.5575    1.1245    0.2170 N   0  0  0  0  0  0  0  0  0  0  0  0
    5.1794    0.0062    0.6151 C   0  0  0  0  0  0  0  0  0  0  0  0
    6.4067    0.1467    1.1976 N   0  0  0  0  0  0  0  0  0  0  0  0
    7.0839    1.4266    1.2987 C   0  0  0  0  0  0  0  0  0  0  0  0
    7.7366    1.9005   -0.0191 C   0  0  0  0  0  0  0  0  0  0  0  0
    8.4304    3.2324    0.1265 C   0  0  0  0  0  0  0  0  0  0  0  0
    7.8382    4.4378   -0.2815 C   0  0  0  0  0  0  0  0  0  0  0  0
    8.4885    5.6646   -0.1164 C   0  0  0  0  0  0  0  0  0  0  0  0
    9.7574    5.7096    0.4687 C   0  0  0  0  0  0  0  0  0  0  0  0
   10.3716    4.5269    0.8902 C   0  0  0  0  0  0  0  0  0  0  0  0
    9.6978    3.3220    0.7160 C   0  0  0  0  0  0  0  0  0  0  0  0
   10.2929    2.1842    1.1320 F   0  0  0  0  0  0  0  0  0  0  0  0
    4.5557   -1.2790    0.4786 C   0  0  0  0  0  0  0  0  0  0  0  0
    5.2205   -2.5059    1.0197 C   0  0  0  0  0  0  0  0  0  0  0  0
    4.5582   -3.1116    2.0228 N   0  0  0  0  0  0  0  0  0  0  0  0
    6.6618   -3.0863    0.4241 S   0  0  0  0  0  0  0  0  0  0  0  0
    3.3142   -1.3226   -0.1531 C   0  0  0  0  0  0  0  0  0  0  0  0
    2.5778   -2.6051   -0.4468 C   0  0  0  0  0  0  0  0  0  0  0  0
    1.1700    1.0538   -1.4269 H   0  0  0  0  0  0  0  0  0  0  0  0
    0.6017   -0.4483   -0.6404 H   0  0  0  0  0  0  0  0  0  0  0  0
    1.4115   -0.5310   -2.2153 H   0  0  0  0  0  0  0  0  0  0  0  0
    6.9814   -0.6912    1.2081 H   0  0  0  0  0  0  0  0  0  0  0  0
    7.8560    1.3343    2.0784 H   0  0  0  0  0  0  0  0  0  0  0  0
    6.3550    2.1792    1.6294 H   0  0  0  0  0  0  0  0  0  0  0  0
    6.9511    1.9776   -0.7846 H   0  0  0  0  0  0  0  0  0  0  0  0
    8.4576    1.1356   -0.3509 H   0  0  0  0  0  0  0  0  0  0  0  0
    6.8463    4.4031   -0.7407 H   0  0  0  0  0  0  0  0  0  0  0  0
    8.0037    6.5861   -0.4471 H   0  0  0  0  0  0  0  0  0  0  0  0
   10.2732    6.6642    0.5989 H   0  0  0  0  0  0  0  0  0  0  0  0
   11.3612    4.5206    1.3517 H   0  0  0  0  0  0  0  0  0  0  0  0
    3.7118   -2.7138    2.4143 H   0  0  0  0  0  0  0  0  0  0  0  0
    4.9582   -3.9456    2.4417 H   0  0  0  0  0  0  0  0  0  0  0  0
    3.1534   -3.4994   -0.1790 H   0  0  0  0  0  0  0  0  0  0  0  0
    2.3385   -2.6671   -1.5204 H   0  0  0  0  0  0  0  0  0  0  0  0
    1.6122   -2.6432    0.0858 H   0  0  0  0  0  0  0  0  0  0  0  0
  1  2  1  0
  1 22  1  0
  1 23  1  0
  1 24  1  0
  2  3  2  0
  2 20  1  0
  3  4  1  0
  4  5  2  0
  5  6  1  0
  5 16  1  0
  6  7  1  0
  6 25  1  0
  7  8  1  0
  7 26  1  0
  7 27  1  0
  8  9  1  0
  8 28  1  0
  8 29  1  0
  9 10  2  0
  9 14  1  0
 10 11  1  0
 10 30  1  0
 11 12  2  0
 11 31  1  0
 12 13  1  0
 12 32  1  0
 13 14  2  0
 13 33  1  0
 14 15  1  0
 16 17  1  0
 16 20  2  0
 17 18  1  0
 17 19  2  0
 18 34  1  0
 18 35  1  0
 20 21  1  0
 21 36  1  0
 21 37  1  0
 21 38  1  0
M  END

