
     RDKit          3D

 60 63  0  0  0  0  0  0  0  0999 V2000
    2.0411    0.0937    2.3577 C   0  0  0  0  0  0  0  0  0  0  0  0
    3.3552    0.0863    1.5594 C   0  0  2  0  0  0  0  0  0  0  0  0
    4.5301   -0.1025    2.5385 C   0  0  0  0  0  0  0  0  0  0  0  0
    3.5074    1.4042    0.7815 C   0  0  0  0  0  0  0  0  0  0  0  0
    4.6543    1.4108   -0.2232 C   0  0  0  0  0  0  0  0  0  0  0  0
    5.1921    2.4648   -0.5396 O   0  0  0  0  0  0  0  0  0  0  0  0
    5.0657    0.1345   -0.8188 C   0  0  0  0  0  0  0  0  0  0  0  0
    4.4602   -1.0477   -0.4591 C   0  0  0  0  0  0  0  0  0  0  0  0
    3.3095   -1.0651    0.5282 C   0  0  0  0  0  0  0  0  0  0  0  0
    4.9302   -2.2653   -0.9289 N   0  0  0  0  0  0  0  0  0  0  0  0
    4.2039   -3.4807   -0.8534 C   0  0  0  0  0  0  0  0  0  0  0  0
    4.8342   -4.6461   -0.3810 C   0  0  0  0  0  0  0  0  0  0  0  0
    4.1136   -5.8325   -0.3413 C   0  0  0  0  0  0  0  0  0  0  0  0
    2.7677   -5.9130   -0.7301 C   0  0  0  0  0  0  0  0  0  0  0  0
    2.1381   -7.2680   -0.5883 C   0  0  0  0  0  0  0  0  0  0  0  0
    0.7543   -7.3146   -0.4805 N   0  0  0  0  0  0  0  0  0  0  0  0
    2.7975   -8.2923   -0.5681 O   0  0  0  0  0  0  0  0  0  0  0  0
    2.1318   -4.7451   -1.2562 C   0  0  0  0  0  0  0  0  0  0  0  0
    0.8353   -4.7918   -1.7402 N   0  0  0  0  0  0  0  0  0  0  0  0
    0.1910   -3.7178   -2.4927 C   0  0  1  0  0  0  0  0  0  0  0  0
   -0.9043   -4.3041   -3.4025 C   0  0  0  0  0  0  0  0  0  0  0  0
   -2.1297   -4.7568   -2.6033 C   0  0  0  0  0  0  0  0  0  0  0  0
   -2.6422   -3.7140   -1.8021 O   0  0  0  0  0  0  0  0  0  0  0  0
   -1.6963   -3.2210   -0.8724 C   0  0  0  0  0  0  0  0  0  0  0  0
   -0.4542   -2.6623   -1.5658 C   0  0  0  0  0  0  0  0  0  0  0  0
    2.8785   -3.5474   -1.3034 C   0  0  0  0  0  0  0  0  0  0  0  0
    6.2447   -2.2881   -1.5886 C   0  0  0  0  0  0  0  0  0  0  0  0
    6.3721   -1.1192   -2.5633 C   0  0  0  0  0  0  0  0  0  0  0  0
    6.1993    0.2004   -1.8152 C   0  0  0  0  0  0  0  0  0  0  0  0
    2.0336    0.9154    3.0918 H   0  0  0  0  0  0  0  0  0  0  0  0
    1.9047   -0.8508    2.9103 H   0  0  0  0  0  0  0  0  0  0  0  0
    1.1689    0.2282    1.6969 H   0  0  0  0  0  0  0  0  0  0  0  0
    4.5542    0.7170    3.2747 H   0  0  0  0  0  0  0  0  0  0  0  0
    5.5014   -0.1146    2.0215 H   0  0  0  0  0  0  0  0  0  0  0  0
    4.4303   -1.0495    3.0941 H   0  0  0  0  0  0  0  0  0  0  0  0
    3.6458    2.2669    1.4519 H   0  0  0  0  0  0  0  0  0  0  0  0
    2.5817    1.6011    0.2079 H   0  0  0  0  0  0  0  0  0  0  0  0
    3.2874   -2.0327    1.0523 H   0  0  0  0  0  0  0  0  0  0  0  0
    2.3531   -0.9966   -0.0197 H   0  0  0  0  0  0  0  0  0  0  0  0
    5.8656   -4.6117   -0.0275 H   0  0  0  0  0  0  0  0  0  0  0  0
    4.5792   -6.7510    0.0211 H   0  0  0  0  0  0  0  0  0  0  0  0
    0.2755   -6.5241   -0.0592 H   0  0  0  0  0  0  0  0  0  0  0  0
    0.3980   -8.2307   -0.2218 H   0  0  0  0  0  0  0  0  0  0  0  0
    0.4946   -5.7282   -1.9302 H   0  0  0  0  0  0  0  0  0  0  0  0
    0.9425   -3.2229   -3.1340 H   0  0  0  0  0  0  0  0  0  0  0  0
   -0.5022   -5.1390   -4.0016 H   0  0  0  0  0  0  0  0  0  0  0  0
   -1.2200   -3.5208   -4.1100 H   0  0  0  0  0  0  0  0  0  0  0  0
   -1.8807   -5.6385   -1.9732 H   0  0  0  0  0  0  0  0  0  0  0  0
   -2.9409   -5.0646   -3.2806 H   0  0  0  0  0  0  0  0  0  0  0  0
   -1.3998   -4.0251   -0.1662 H   0  0  0  0  0  0  0  0  0  0  0  0
   -2.2066   -2.4395   -0.2895 H   0  0  0  0  0  0  0  0  0  0  0  0
    0.2689   -2.3146   -0.8109 H   0  0  0  0  0  0  0  0  0  0  0  0
   -0.7426   -1.7872   -2.1726 H   0  0  0  0  0  0  0  0  0  0  0  0
    2.4373   -2.6504   -1.7319 H   0  0  0  0  0  0  0  0  0  0  0  0
    6.3480   -3.2498   -2.1075 H   0  0  0  0  0  0  0  0  0  0  0  0
    7.0468   -2.2294   -0.8287 H   0  0  0  0  0  0  0  0  0  0  0  0
    5.5992   -1.2257   -3.3437 H   0  0  0  0  0  0  0  0  0  0  0  0
    7.3496   -1.1647   -3.0695 H   0  0  0  0  0  0  0  0  0  0  0  0
    6.0165    1.0358   -2.5095 H   0  0  0  0  0  0  0  0  0  0  0  0
    7.1339    0.4710   -1.2907 H   0  0  0  0  0  0  0  0  0  0  0  0
  2  1  1  1
  1 30  1  0
  1 31  1  0
  1 32  1  0
  2  3  1  0
  2  4  1  0
  2  9  1  0
  3 33  1  0
  3 34  1  0
  3 35  1  0
  4  5  1  0
  4 36  1  0
  4 37  1  0
  5  6  2  0
  5  7  1  0
  7  8  2  0
  7 29  1  0
  8  9  1  0
  8 10  1  0
  9 38  1  0
  9 39  1  0
 10 11  1  0
 10 27  1  0
 11 12  2  0
 11 26  1  0
 12 13  1  0
 12 40  1  0
 13 14  2  0
 13 41  1  0
 14 15  1  0
 14 18  1  0
 15 16  1  0
 15 17  2  0
 16 42  1  0
 16 43  1  0
 18 19  1  0
 18 26  2  0
 19 20  1  0
 19 44  1  0
 20 21  1  0
 20 25  1  0
 20 45  1  6
 21 22  1  0
 21 46  1  0
 21 47  1  0
 22 23  1  0
 22 48  1  0
 22 49  1  0
 23 24  1  0
 24 25  1  0
 24 50  1  0
 24 51  1  0
 25 52  1  0
 25 53  1  0
 26 54  1  0
 27 28  1  0
 27 55  1  0
 27 56  1  0
 28 29  1  0
 28 57  1  0
 28 58  1  0
 29 59  1  0
 29 60  1  0
M  END

