
     RDKit          3D

 56 59  0  0  0  0  0  0  0  0999 V2000
    4.2145   -0.6890    3.2263 C   0  0  0  0  0  0  0  0  0  0  0  0
    5.2599   -1.1570    2.2023 C   0  0  1  0  0  0  0  0  0  0  0  0
    4.6201   -1.7603    0.9317 C   0  0  0  0  0  0  0  0  0  0  0  0
    4.0418   -0.6771    0.0044 C   0  0  0  0  0  0  0  0  0  0  0  0
    5.0042    0.3599   -0.3579 N   0  0  0  0  0  0  0  0  0  0  0  0
    5.9415    0.0379   -1.4234 C   0  0  0  0  0  0  0  0  0  0  0  0
    6.0820    1.2099   -2.3926 C   0  0  0  0  0  0  0  0  0  0  0  0
    7.0404    0.8483   -3.3733 O   0  0  0  0  0  0  0  0  0  0  0  0
    7.3570    1.7147   -4.3649 C   0  0  0  0  0  0  0  0  0  0  0  0
    6.7933    2.9918   -4.5190 C   0  0  0  0  0  0  0  0  0  0  0  0
    7.1948    3.8046   -5.5795 C   0  0  0  0  0  0  0  0  0  0  0  0
    8.1560    3.3848   -6.5146 C   0  0  0  0  0  0  0  0  0  0  0  0
    8.5472    4.2898   -7.6264 C   0  0  0  0  0  0  0  0  0  0  0  0
    9.4690    3.9201   -8.6268 C   0  0  0  0  0  0  0  0  0  0  0  0
    9.7962    4.8253   -9.6303 C   0  0  0  0  0  0  0  0  0  0  0  0
    9.2087    6.1019   -9.6506 C   0  0  0  0  0  0  0  0  0  0  0  0
    9.5202    7.1076  -10.6949 C   0  0  0  0  0  0  0  0  0  0  0  0
    9.7617    6.7187  -12.0270 C   0  0  0  0  0  0  0  0  0  0  0  0
   10.0546    7.6647  -13.0110 C   0  0  0  0  0  0  0  0  0  0  0  0
   10.1112    9.0238  -12.6875 C   0  0  0  0  0  0  0  0  0  0  0  0
    9.8734    9.4267  -11.3700 C   0  0  0  0  0  0  0  0  0  0  0  0
    9.5828    8.4804  -10.3853 C   0  0  0  0  0  0  0  0  0  0  0  0
    8.2909    6.3659   -8.6146 C   0  0  0  0  0  0  0  0  0  0  0  0
    7.9772    5.5082   -7.6522 N   0  0  0  0  0  0  0  0  0  0  0  0
    8.7102    2.0992   -6.3419 C   0  0  0  0  0  0  0  0  0  0  0  0
    8.3219    1.2785   -5.2908 C   0  0  0  0  0  0  0  0  0  0  0  0
    5.5953    0.9805    0.8273 C   0  0  0  0  0  0  0  0  0  0  0  0
    6.2372   -0.0324    1.7930 C   0  0  0  0  0  0  0  0  0  0  0  0
    3.5589   -1.5223    3.5277 H   0  0  0  0  0  0  0  0  0  0  0  0
    3.5659    0.1125    2.8381 H   0  0  0  0  0  0  0  0  0  0  0  0
    4.7019   -0.3026    4.1363 H   0  0  0  0  0  0  0  0  0  0  0  0
    5.8505   -1.9521    2.6910 H   0  0  0  0  0  0  0  0  0  0  0  0
    3.8309   -2.4827    1.2047 H   0  0  0  0  0  0  0  0  0  0  0  0
    5.3874   -2.3309    0.3783 H   0  0  0  0  0  0  0  0  0  0  0  0
    3.1827   -0.1872    0.4986 H   0  0  0  0  0  0  0  0  0  0  0  0
    3.6433   -1.1315   -0.9167 H   0  0  0  0  0  0  0  0  0  0  0  0
    5.5746   -0.8318   -1.9912 H   0  0  0  0  0  0  0  0  0  0  0  0
    6.9527   -0.2390   -1.0617 H   0  0  0  0  0  0  0  0  0  0  0  0
    6.4068    2.1199   -1.8546 H   0  0  0  0  0  0  0  0  0  0  0  0
    5.1036    1.4290   -2.8566 H   0  0  0  0  0  0  0  0  0  0  0  0
    6.0418    3.3605   -3.8206 H   0  0  0  0  0  0  0  0  0  0  0  0
    6.7611    4.7976   -5.7038 H   0  0  0  0  0  0  0  0  0  0  0  0
    9.9374    2.9357   -8.6220 H   0  0  0  0  0  0  0  0  0  0  0  0
   10.5296    4.5470  -10.3912 H   0  0  0  0  0  0  0  0  0  0  0  0
    9.6949    5.6629  -12.3006 H   0  0  0  0  0  0  0  0  0  0  0  0
   10.2311    7.3385  -14.0393 H   0  0  0  0  0  0  0  0  0  0  0  0
   10.3398    9.7647  -13.4577 H   0  0  0  0  0  0  0  0  0  0  0  0
    9.9235   10.4857  -11.1035 H   0  0  0  0  0  0  0  0  0  0  0  0
    9.4264    8.8084   -9.3551 H   0  0  0  0  0  0  0  0  0  0  0  0
    7.7691    7.3302   -8.5882 H   0  0  0  0  0  0  0  0  0  0  0  0
    9.4646    1.7224   -7.0348 H   0  0  0  0  0  0  0  0  0  0  0  0
    8.7545    0.2846   -5.1594 H   0  0  0  0  0  0  0  0  0  0  0  0
    4.8045    1.5475    1.3513 H   0  0  0  0  0  0  0  0  0  0  0  0
    6.3411    1.7273    0.5105 H   0  0  0  0  0  0  0  0  0  0  0  0
    6.6170    0.4922    2.6871 H   0  0  0  0  0  0  0  0  0  0  0  0
    7.1175   -0.4853    1.3035 H   0  0  0  0  0  0  0  0  0  0  0  0
  1  2  1  0
  1 29  1  0
  1 30  1  0
  1 31  1  0
  2  3  1  0
  2 28  1  0
  2 32  1  1
  3  4  1  0
  3 33  1  0
  3 34  1  0
  4  5  1  0
  4 35  1  0
  4 36  1  0
  5  6  1  0
  5 27  1  0
  6  7  1  0
  6 37  1  0
  6 38  1  0
  7  8  1  0
  7 39  1  0
  7 40  1  0
  8  9  1  0
  9 10  2  0
  9 26  1  0
 10 11  1  0
 10 41  1  0
 11 12  2  0
 11 42  1  0
 12 13  1  0
 12 25  1  0
 13 14  2  0
 13 24  1  0
 14 15  1  0
 14 43  1  0
 15 16  2  0
 15 44  1  0
 16 17  1  0
 16 23  1  0
 17 18  2  0
 17 22  1  0
 18 19  1  0
 18 45  1  0
 19 20  2  0
 19 46  1  0
 20 21  1  0
 20 47  1  0
 21 22  2  0
 21 48  1  0
 22 49  1  0
 23 24  2  0
 23 50  1  0
 25 26  2  0
 25 51  1  0
 26 52  1  0
 27 28  1  0
 27 53  1  0
 27 54  1  0
 28 55  1  0
 28 56  1  0
M  END

