
     RDKit          3D

 27 27  0  0  0  0  0  0  0  0999 V2000
    1.1978    0.9202    0.7006 C   0  0  0  0  0  0  0  0  0  0  0  0
    2.7109    0.8106    0.5076 C   0  0  1  0  0  0  0  0  0  0  0  0
    3.3010   -0.5135    0.9801 C   0  0  0  0  0  0  0  0  0  0  0  0
    3.0578    1.0625   -1.2737 S   0  0  1  0  0  0  0  0  0  0  0  0
    2.6893   -0.1661   -1.9891 O   0  0  0  0  0  0  0  0  0  0  0  0
    2.5324    2.3687   -1.6748 O   0  0  0  0  0  0  0  0  0  0  0  0
    4.7839    1.1108   -1.3537 N   0  0  0  0  0  0  0  0  0  0  0  0
    5.4653    2.2982   -1.7116 C   0  0  0  0  0  0  0  0  0  0  0  0
    6.1879    2.3700   -2.9097 C   0  0  0  0  0  0  0  0  0  0  0  0
    6.9145    3.5170   -3.2363 C   0  0  0  0  0  0  0  0  0  0  0  0
    7.9075    3.5679   -4.8642 Br  0  0  0  0  0  0  0  0  0  0  0  0
    6.9060    4.6254   -2.3902 C   0  0  0  0  0  0  0  0  0  0  0  0
    6.1747    4.5632   -1.2015 C   0  0  0  0  0  0  0  0  0  0  0  0
    5.4673    3.4121   -0.8434 C   0  0  0  0  0  0  0  0  0  0  0  0
    4.7815    3.3114    0.3248 O   0  0  0  0  0  0  0  0  0  0  0  0
    0.9606    0.8329    1.7726 H   0  0  0  0  0  0  0  0  0  0  0  0
    0.6737    0.1132    0.1654 H   0  0  0  0  0  0  0  0  0  0  0  0
    0.8187    1.8852    0.3361 H   0  0  0  0  0  0  0  0  0  0  0  0
    3.2275    1.6620    0.9725 H   0  0  0  0  0  0  0  0  0  0  0  0
    2.8442   -1.3594    0.4451 H   0  0  0  0  0  0  0  0  0  0  0  0
    3.1049   -0.6360    2.0573 H   0  0  0  0  0  0  0  0  0  0  0  0
    4.3896   -0.5442    0.8280 H   0  0  0  0  0  0  0  0  0  0  0  0
    5.0631    0.2973   -1.8997 H   0  0  0  0  0  0  0  0  0  0  0  0
    6.1773    1.5162   -3.5898 H   0  0  0  0  0  0  0  0  0  0  0  0
    7.4623    5.5273   -2.6484 H   0  0  0  0  0  0  0  0  0  0  0  0
    6.1684    5.4244   -0.5261 H   0  0  0  0  0  0  0  0  0  0  0  0
    4.7880    4.1636    0.7800 H   0  0  0  0  0  0  0  0  0  0  0  0
  1  2  1  0
  1 16  1  0
  1 17  1  0
  1 18  1  0
  2  3  1  0
  2  4  1  0
  2 19  1  1
  3 20  1  0
  3 21  1  0
  3 22  1  0
  4  5  2  0
  4  6  2  0
  4  7  1  1
  7  8  1  0
  7 23  1  0
  8  9  2  0
  8 14  1  0
  9 10  1  0
  9 24  1  0
 10 11  1  0
 10 12  2  0
 12 13  1  0
 12 25  1  0
 13 14  2  0
 13 26  1  0
 14 15  1  0
 15 27  1  0
M  END

