
     RDKit          3D

 36 36  0  0  0  0  0  0  0  0999 V2000
    4.0729   -1.6354   -2.3220 C   0  0  0  0  0  0  0  0  0  0  0  0
    3.7668   -0.8002   -1.0924 C   0  0  0  0  0  0  0  0  0  0  0  0
    4.7035    0.2565   -1.0222 O   0  0  0  0  0  0  0  0  0  0  0  0
    4.4664    1.2160   -0.0083 C   0  0  1  0  0  0  0  0  0  0  0  0
    4.8711    0.7282    1.3995 C   0  0  0  0  0  0  0  0  0  0  0  0
    6.2706    0.1190    1.4936 C   0  0  0  0  0  0  0  0  0  0  0  0
    5.1699    2.4791   -0.4308 C   0  0  0  0  0  0  0  0  0  0  0  0
    4.4895    3.5672   -0.6880 N   0  0  0  0  0  0  0  0  0  0  0  0
    5.4671    4.4884   -1.0468 O   0  0  0  0  0  0  0  0  0  0  0  0
    6.6486    3.8565   -0.9737 C   0  0  0  0  0  0  0  0  0  0  0  0
    7.8859    4.6252   -1.2984 C   0  0  0  0  0  0  0  0  0  0  0  0
    8.2725    5.6672   -0.2302 C   0  0  0  0  0  0  0  0  0  0  0  0
    8.5770    5.1195    1.1737 C   0  0  1  0  0  0  0  0  0  0  0  0
    9.7464    4.1366    1.2149 C   0  0  0  0  0  0  0  0  0  0  0  0
    8.7754    6.1981    2.0749 O   0  0  0  0  0  0  0  0  0  0  0  0
    6.5300    2.6178   -0.5957 N   0  0  0  0  0  0  0  0  0  0  0  0
    3.3576   -2.4682   -2.4109 H   0  0  0  0  0  0  0  0  0  0  0  0
    5.0893   -2.0542   -2.2625 H   0  0  0  0  0  0  0  0  0  0  0  0
    4.0101   -1.0195   -3.2322 H   0  0  0  0  0  0  0  0  0  0  0  0
    3.8111   -1.4315   -0.1823 H   0  0  0  0  0  0  0  0  0  0  0  0
    2.7369   -0.3897   -1.1477 H   0  0  0  0  0  0  0  0  0  0  0  0
    3.3905    1.4770    0.0143 H   0  0  0  0  0  0  0  0  0  0  0  0
    4.1214   -0.0115    1.7296 H   0  0  0  0  0  0  0  0  0  0  0  0
    4.7678    1.5815    2.0921 H   0  0  0  0  0  0  0  0  0  0  0  0
    6.3680   -0.7431    0.8167 H   0  0  0  0  0  0  0  0  0  0  0  0
    6.4736   -0.2269    2.5196 H   0  0  0  0  0  0  0  0  0  0  0  0
    7.0459    0.8442    1.2089 H   0  0  0  0  0  0  0  0  0  0  0  0
    7.7260    5.1435   -2.2576 H   0  0  0  0  0  0  0  0  0  0  0  0
    8.6909    3.8932   -1.4510 H   0  0  0  0  0  0  0  0  0  0  0  0
    7.4654    6.4104   -0.1297 H   0  0  0  0  0  0  0  0  0  0  0  0
    9.1610    6.2145   -0.5955 H   0  0  0  0  0  0  0  0  0  0  0  0
    7.6769    4.6054    1.5532 H   0  0  0  0  0  0  0  0  0  0  0  0
   10.6613    4.5941    0.7966 H   0  0  0  0  0  0  0  0  0  0  0  0
    9.5340    3.2181    0.6463 H   0  0  0  0  0  0  0  0  0  0  0  0
    9.9535    3.8516    2.2573 H   0  0  0  0  0  0  0  0  0  0  0  0
    9.5862    6.6575    1.8150 H   0  0  0  0  0  0  0  0  0  0  0  0
  1  2  1  0
  1 17  1  0
  1 18  1  0
  1 19  1  0
  2  3  1  0
  2 20  1  0
  2 21  1  0
  3  4  1  0
  4  5  1  0
  4  7  1  0
  4 22  1  1
  5  6  1  0
  5 23  1  0
  5 24  1  0
  6 25  1  0
  6 26  1  0
  6 27  1  0
  7  8  2  0
  7 16  1  0
  8  9  1  0
  9 10  1  0
 10 11  1  0
 10 16  2  0
 11 12  1  0
 11 28  1  0
 11 29  1  0
 12 13  1  0
 12 30  1  0
 12 31  1  0
 13 14  1  0
 13 15  1  0
 13 32  1  1
 14 33  1  0
 14 34  1  0
 14 35  1  0
 15 36  1  0
M  END

