
     RDKit          3D

 41 42  0  0  0  0  0  0  0  0999 V2000
    1.6391    0.4566   -0.0983 C   0  0  0  0  0  0  0  0  0  0  0  0
    3.0777   -0.0961   -0.0930 C   0  0  1  0  0  0  0  0  0  0  0  0
    3.4381   -0.6405    1.2009 N   0  0  0  0  0  0  0  0  0  0  0  0
    3.9054    0.1403    2.2117 C   0  0  0  0  0  0  0  0  0  0  0  0
    4.0162    1.3578    2.0879 O   0  0  0  0  0  0  0  0  0  0  0  0
    4.2720   -0.6026    3.4978 C   0  0  1  0  0  0  0  0  0  0  0  0
    5.7758   -0.4452    3.8309 C   0  0  0  0  0  0  0  0  0  0  0  0
    6.1901    0.9528    4.2943 C   0  0  0  0  0  0  0  0  0  0  0  0
    5.3103    1.4745    5.8159 S   0  0  0  0  0  0  0  0  0  0  0  0
    3.6018    1.2433    5.1924 C   0  0  0  0  0  0  0  0  0  0  0  0
    3.3577   -0.1744    4.6720 C   0  0  0  0  0  0  0  0  0  0  0  0
    3.2345   -1.2383   -1.1134 C   0  0  0  0  0  0  0  0  0  0  0  0
    3.1718   -2.4004   -0.7277 O   0  0  0  0  0  0  0  0  0  0  0  0
    3.3891   -0.9174   -2.4332 N   0  0  0  0  0  0  0  0  0  0  0  0
    3.5047   -1.9905   -3.4221 C   0  0  0  0  0  0  0  0  0  0  0  0
    2.6061   -1.6908   -4.6189 C   0  0  0  0  0  0  0  0  0  0  0  0
    2.8818   -0.4144   -5.1640 O   0  0  0  0  0  0  0  0  0  0  0  0
    2.6989    0.6127   -4.2158 C   0  0  0  0  0  0  0  0  0  0  0  0
    3.5990    0.4153   -2.9932 C   0  0  0  0  0  0  0  0  0  0  0  0
    1.5531    1.2407    0.6675 H   0  0  0  0  0  0  0  0  0  0  0  0
    0.9232   -0.3480    0.1301 H   0  0  0  0  0  0  0  0  0  0  0  0
    1.3685    0.8924   -1.0725 H   0  0  0  0  0  0  0  0  0  0  0  0
    3.7723    0.7320   -0.3007 H   0  0  0  0  0  0  0  0  0  0  0  0
    3.3827   -1.6530    1.2745 H   0  0  0  0  0  0  0  0  0  0  0  0
    4.0908   -1.6764    3.3244 H   0  0  0  0  0  0  0  0  0  0  0  0
    6.3705   -0.7248    2.9425 H   0  0  0  0  0  0  0  0  0  0  0  0
    6.0256   -1.1714    4.6231 H   0  0  0  0  0  0  0  0  0  0  0  0
    6.0108    1.6952    3.5036 H   0  0  0  0  0  0  0  0  0  0  0  0
    7.2604    0.9701    4.5518 H   0  0  0  0  0  0  0  0  0  0  0  0
    3.4025    1.9874    4.4078 H   0  0  0  0  0  0  0  0  0  0  0  0
    2.9436    1.4566    6.0487 H   0  0  0  0  0  0  0  0  0  0  0  0
    2.3028   -0.2699    4.3570 H   0  0  0  0  0  0  0  0  0  0  0  0
    3.5096   -0.8886    5.4992 H   0  0  0  0  0  0  0  0  0  0  0  0
    3.2323   -2.9352   -2.9353 H   0  0  0  0  0  0  0  0  0  0  0  0
    4.5551   -2.0638   -3.7614 H   0  0  0  0  0  0  0  0  0  0  0  0
    1.5425   -1.7544   -4.3092 H   0  0  0  0  0  0  0  0  0  0  0  0
    2.7766   -2.4259   -5.4197 H   0  0  0  0  0  0  0  0  0  0  0  0
    1.6389    0.6529   -3.8873 H   0  0  0  0  0  0  0  0  0  0  0  0
    2.9416    1.5631   -4.7149 H   0  0  0  0  0  0  0  0  0  0  0  0
    3.3924    1.1933   -2.2495 H   0  0  0  0  0  0  0  0  0  0  0  0
    4.6558    0.5194   -3.3050 H   0  0  0  0  0  0  0  0  0  0  0  0
  1  2  1  0
  1 20  1  0
  1 21  1  0
  1 22  1  0
  2  3  1  0
  2 12  1  0
  2 23  1  6
  3  4  1  0
  3 24  1  0
  4  5  2  0
  4  6  1  0
  6  7  1  0
  6 11  1  0
  6 25  1  6
  7  8  1  0
  7 26  1  0
  7 27  1  0
  8  9  1  0
  8 28  1  0
  8 29  1  0
  9 10  1  0
 10 11  1  0
 10 30  1  0
 10 31  1  0
 11 32  1  0
 11 33  1  0
 12 13  2  0
 12 14  1  0
 14 15  1  0
 14 19  1  0
 15 16  1  0
 15 34  1  0
 15 35  1  0
 16 17  1  0
 16 36  1  0
 16 37  1  0
 17 18  1  0
 18 19  1  0
 18 38  1  0
 18 39  1  0
 19 40  1  0
 19 41  1  0
M  END

