
     RDKit          3D

 48 49  0  0  0  0  0  0  0  0999 V2000
    1.0480   -2.3762   -4.2595 C   0  0  0  0  0  0  0  0  0  0  0  0
    2.4773   -2.3256   -3.7203 C   0  0  0  0  0  0  0  0  0  0  0  0
    3.1436   -0.9618   -3.8972 C   0  0  0  0  0  0  0  0  0  0  0  0
    4.4814   -0.9411   -3.3282 N   0  0  0  0  0  0  0  0  0  0  0  0
    5.1805    0.3237   -3.4574 C   0  0  0  0  0  0  0  0  0  0  0  0
    6.4885    0.3265   -2.7103 C   0  0  0  0  0  0  0  0  0  0  0  0
    6.8362   -0.5492   -1.7099 C   0  0  0  0  0  0  0  0  0  0  0  0
    8.4123   -0.1657   -1.1138 S   0  0  0  0  0  0  0  0  0  0  0  0
    8.4921    1.1671   -2.2567 C   0  0  0  0  0  0  0  0  0  0  0  0
    9.7097    2.0702   -2.3425 C   0  0  1  0  0  0  0  0  0  0  0  0
   10.3320    1.9757   -3.6090 O   0  0  0  0  0  0  0  0  0  0  0  0
   10.9585    0.7440   -3.9033 C   0  0  0  0  0  0  0  0  0  0  0  0
   11.6248    0.8532   -5.2624 C   0  0  0  0  0  0  0  0  0  0  0  0
    9.3254    3.5537   -2.1290 C   0  0  1  0  0  0  0  0  0  0  0  0
    8.6529    3.8131   -0.7646 C   0  0  0  0  0  0  0  0  0  0  0  0
    9.6330    3.7670    0.4178 C   0  0  0  0  0  0  0  0  0  0  0  0
   10.8212    4.7145    0.2047 C   0  0  0  0  0  0  0  0  0  0  0  0
   11.5194    4.4497   -1.1359 C   0  0  0  0  0  0  0  0  0  0  0  0
   10.5311    4.4987   -2.3101 C   0  0  0  0  0  0  0  0  0  0  0  0
    7.4318    1.2812   -3.0009 N   0  0  0  0  0  0  0  0  0  0  0  0
    0.6017   -3.3734   -4.1203 H   0  0  0  0  0  0  0  0  0  0  0  0
    1.0136   -2.1448   -5.3373 H   0  0  0  0  0  0  0  0  0  0  0  0
    0.3990   -1.6479   -3.7449 H   0  0  0  0  0  0  0  0  0  0  0  0
    3.0901   -3.0938   -4.2285 H   0  0  0  0  0  0  0  0  0  0  0  0
    2.4941   -2.5831   -2.6475 H   0  0  0  0  0  0  0  0  0  0  0  0
    2.5404   -0.1914   -3.3822 H   0  0  0  0  0  0  0  0  0  0  0  0
    3.1291   -0.6826   -4.9771 H   0  0  0  0  0  0  0  0  0  0  0  0
    5.0452   -1.6850   -3.7407 H   0  0  0  0  0  0  0  0  0  0  0  0
    4.5351    1.1203   -3.0417 H   0  0  0  0  0  0  0  0  0  0  0  0
    5.3850    0.6313   -4.5070 H   0  0  0  0  0  0  0  0  0  0  0  0
    6.2365   -1.3640   -1.3116 H   0  0  0  0  0  0  0  0  0  0  0  0
   10.4234    1.7414   -1.5604 H   0  0  0  0  0  0  0  0  0  0  0  0
   10.2193   -0.0810   -3.9050 H   0  0  0  0  0  0  0  0  0  0  0  0
   11.7071    0.5002   -3.1197 H   0  0  0  0  0  0  0  0  0  0  0  0
   10.8787    1.0874   -6.0372 H   0  0  0  0  0  0  0  0  0  0  0  0
   12.1181   -0.0952   -5.5276 H   0  0  0  0  0  0  0  0  0  0  0  0
   12.3820    1.6526   -5.2638 H   0  0  0  0  0  0  0  0  0  0  0  0
    8.5918    3.7658   -2.9241 H   0  0  0  0  0  0  0  0  0  0  0  0
    7.8194    3.1114   -0.6008 H   0  0  0  0  0  0  0  0  0  0  0  0
    8.1975    4.8187   -0.8044 H   0  0  0  0  0  0  0  0  0  0  0  0
   10.0061    2.7362    0.5595 H   0  0  0  0  0  0  0  0  0  0  0  0
    9.1020    4.0235    1.3501 H   0  0  0  0  0  0  0  0  0  0  0  0
   11.5381    4.6267    1.0389 H   0  0  0  0  0  0  0  0  0  0  0  0
   10.4554    5.7583    0.2194 H   0  0  0  0  0  0  0  0  0  0  0  0
   12.0144    3.4616   -1.1026 H   0  0  0  0  0  0  0  0  0  0  0  0
   12.3271    5.1836   -1.2974 H   0  0  0  0  0  0  0  0  0  0  0  0
   11.0393    4.2681   -3.2571 H   0  0  0  0  0  0  0  0  0  0  0  0
   10.1399    5.5282   -2.4017 H   0  0  0  0  0  0  0  0  0  0  0  0
  1  2  1  0
  1 21  1  0
  1 22  1  0
  1 23  1  0
  2  3  1  0
  2 24  1  0
  2 25  1  0
  3  4  1  0
  3 26  1  0
  3 27  1  0
  4  5  1  0
  4 28  1  0
  5  6  1  0
  5 29  1  0
  5 30  1  0
  6  7  2  0
  6 20  1  0
  7  8  1  0
  7 31  1  0
  8  9  1  0
  9 10  1  0
  9 20  2  0
 10 11  1  0
 10 14  1  0
 10 32  1  1
 11 12  1  0
 12 13  1  0
 12 33  1  0
 12 34  1  0
 13 35  1  0
 13 36  1  0
 13 37  1  0
 14 15  1  0
 14 19  1  0
 14 38  1  6
 15 16  1  0
 15 39  1  0
 15 40  1  0
 16 17  1  0
 16 41  1  0
 16 42  1  0
 17 18  1  0
 17 43  1  0
 17 44  1  0
 18 19  1  0
 18 45  1  0
 18 46  1  0
 19 47  1  0
 19 48  1  0
M  END

