
     RDKit          3D

 34 35  0  0  0  0  0  0  0  0999 V2000
    8.0519   -2.1743   -0.5726 C   0  0  0  0  0  0  0  0  0  0  0  0
    6.9485   -1.3949    0.0806 C   0  0  0  0  0  0  0  0  0  0  0  0
    7.2194   -0.2348    0.6422 N   0  0  0  0  0  0  0  0  0  0  0  0
    5.8321    0.4487    1.2787 S   0  0  0  0  0  0  0  0  0  0  0  0
    4.8147   -0.8495    0.8120 C   0  0  0  0  0  0  0  0  0  0  0  0
    5.5616   -1.8089    0.1605 C   0  0  0  0  0  0  0  0  0  0  0  0
    5.0408   -3.0733   -0.4406 C   0  0  0  0  0  0  0  0  0  0  0  0
    5.5712   -3.6096   -1.3997 O   0  0  0  0  0  0  0  0  0  0  0  0
    3.9159   -3.5873    0.1687 N   0  0  0  0  0  0  0  0  0  0  0  0
    3.2294   -4.7339   -0.2435 C   0  0  0  0  0  0  0  0  0  0  0  0
    3.4689   -5.5730   -1.3595 C   0  0  0  0  0  0  0  0  0  0  0  0
    2.5727   -6.5584   -1.3877 N   0  0  0  0  0  0  0  0  0  0  0  0
    1.7542   -6.3795   -0.3400 N   0  0  0  0  0  0  0  0  0  0  0  0
    0.6921   -7.3787   -0.0650 C   0  0  1  0  0  0  0  0  0  0  0  0
    1.3554   -8.7055    0.3617 C   0  0  0  0  0  0  0  0  0  0  0  0
   -0.2436   -6.8607    1.0259 C   0  0  0  0  0  0  0  0  0  0  0  0
   -0.1488   -7.6759   -1.3579 C   0  0  0  0  0  0  0  0  0  0  0  0
   -1.3185   -7.9495   -1.2713 O   0  0  0  0  0  0  0  0  0  0  0  0
    0.5122   -7.7054   -2.5055 O   0  0  0  0  0  0  0  0  0  0  0  0
    2.1187   -5.2875    0.3881 C   0  0  0  0  0  0  0  0  0  0  0  0
    9.0048   -1.6496   -0.4254 H   0  0  0  0  0  0  0  0  0  0  0  0
    7.8516   -2.2965   -1.6470 H   0  0  0  0  0  0  0  0  0  0  0  0
    8.1223   -3.1901   -0.1537 H   0  0  0  0  0  0  0  0  0  0  0  0
    3.7393   -0.8349    0.9927 H   0  0  0  0  0  0  0  0  0  0  0  0
    3.6128   -3.1599    1.0346 H   0  0  0  0  0  0  0  0  0  0  0  0
    4.2431   -5.4813   -2.1142 H   0  0  0  0  0  0  0  0  0  0  0  0
    1.9361   -8.5582    1.2856 H   0  0  0  0  0  0  0  0  0  0  0  0
    2.0313   -9.0758   -0.4217 H   0  0  0  0  0  0  0  0  0  0  0  0
    0.5812   -9.4646    0.5455 H   0  0  0  0  0  0  0  0  0  0  0  0
    0.2779   -6.7758    1.9911 H   0  0  0  0  0  0  0  0  0  0  0  0
   -1.0730   -7.5694    1.1334 H   0  0  0  0  0  0  0  0  0  0  0  0
   -0.6777   -5.8864    0.7576 H   0  0  0  0  0  0  0  0  0  0  0  0
    1.4476   -7.3865   -2.3680 H   0  0  0  0  0  0  0  0  0  0  0  0
    1.5879   -4.9777    1.2827 H   0  0  0  0  0  0  0  0  0  0  0  0
  1  2  1  0
  1 21  1  0
  1 22  1  0
  1 23  1  0
  2  3  2  0
  2  6  1  0
  3  4  1  0
  4  5  2  0
  5  6  1  0
  5 24  1  0
  6  7  2  0
  7  8  1  0
  7  9  1  0
  9 10  1  0
  9 25  1  0
 10 11  1  0
 10 20  2  0
 11 12  2  0
 11 26  1  0
 12 13  1  0
 13 14  1  0
 13 20  1  0
 14 15  1  0
 14 16  1  0
 14 17  1  6
 15 27  1  0
 15 28  1  0
 15 29  1  0
 16 30  1  0
 16 31  1  0
 16 32  1  0
 17 18  2  0
 17 19  1  0
 19 33  1  0
 20 34  1  0
M  CHG  2   4   1   8  -1
M  END

