
     RDKit          3D

 40 40  0  0  0  0  0  0  0  0999 V2000
    3.3869    2.4910   -3.7094 C   0  0  0  0  0  0  0  0  0  0  0  0
    3.0339    3.8196   -3.0421 C   0  0  0  0  0  0  0  0  0  0  0  0
    3.2974    3.8587   -1.5258 C   0  0  2  0  0  0  0  0  0  0  0  0
    2.7599    3.0220   -1.0514 H   0  0  0  0  0  0  0  0  0  0  0  0
    2.8218    5.1738   -0.8974 C   0  0  0  0  0  0  0  0  0  0  0  0
    4.7019    3.6174   -1.2243 N   0  0  0  0  0  0  0  0  0  0  0  0
    5.1509    2.5923   -0.4544 C   0  0  0  0  0  0  0  0  0  0  0  0
    4.4440    1.7427    0.0635 O   0  0  0  0  0  0  0  0  0  0  0  0
    6.6832    2.5345   -0.3111 C   0  0  0  0  0  0  0  0  0  0  0  0
    7.3626    3.7866   -0.6163 N   0  0  0  0  0  0  0  0  0  0  0  0
    7.3684    4.7410    0.5006 C   0  0  0  0  0  0  0  0  0  0  0  0
    8.5094    4.4950    1.4992 C   0  0  2  0  0  0  0  0  0  0  0  0
    8.3454    3.5139    1.9950 H   0  0  0  0  0  0  0  0  0  0  0  0
    8.6159    5.5779    2.5586 C   0  0  0  0  0  0  0  0  0  0  0  0
    9.7506    4.4444    0.8004 O   0  0  0  0  0  0  0  0  0  0  0  0
    9.7767    3.4324   -0.1868 C   0  0  0  0  0  0  0  0  0  0  0  0
    8.6917    3.6681   -1.2522 C   0  0  2  0  0  0  0  0  0  0  0  0
    8.6556    2.7810   -1.9062 H   0  0  0  0  0  0  0  0  0  0  0  0
    9.0080    4.8889   -2.1226 C   0  0  0  0  0  0  0  0  0  0  0  0
    3.1680    2.5166   -4.7886 H   0  0  0  0  0  0  0  0  0  0  0  0
    2.8157    1.6580   -3.2684 H   0  0  0  0  0  0  0  0  0  0  0  0
    4.4562    2.2558   -3.5896 H   0  0  0  0  0  0  0  0  0  0  0  0
    1.9665    4.0472   -3.2071 H   0  0  0  0  0  0  0  0  0  0  0  0
    3.5942    4.6441   -3.5230 H   0  0  0  0  0  0  0  0  0  0  0  0
    2.9790    5.1663    0.1920 H   0  0  0  0  0  0  0  0  0  0  0  0
    1.7490    5.3363   -1.0878 H   0  0  0  0  0  0  0  0  0  0  0  0
    3.3697    6.0356   -1.3164 H   0  0  0  0  0  0  0  0  0  0  0  0
    5.4245    4.2476   -1.5682 H   0  0  0  0  0  0  0  0  0  0  0  0
    7.0215    1.7578   -1.0170 H   0  0  0  0  0  0  0  0  0  0  0  0
    6.8766    2.1291    0.7004 H   0  0  0  0  0  0  0  0  0  0  0  0
    6.3938    4.6963    1.0118 H   0  0  0  0  0  0  0  0  0  0  0  0
    7.4726    5.7654    0.1026 H   0  0  0  0  0  0  0  0  0  0  0  0
    7.6998    5.6214    3.1681 H   0  0  0  0  0  0  0  0  0  0  0  0
    8.7727    6.5621    2.0891 H   0  0  0  0  0  0  0  0  0  0  0  0
    9.4696    5.3772    3.2228 H   0  0  0  0  0  0  0  0  0  0  0  0
    9.6310    2.4370    0.2826 H   0  0  0  0  0  0  0  0  0  0  0  0
   10.7829    3.4484   -0.6346 H   0  0  0  0  0  0  0  0  0  0  0  0
    9.9306    4.7179   -2.6997 H   0  0  0  0  0  0  0  0  0  0  0  0
    9.1676    5.7897   -1.5119 H   0  0  0  0  0  0  0  0  0  0  0  0
    8.1876    5.0832   -2.8297 H   0  0  0  0  0  0  0  0  0  0  0  0
  1  2  1  0
  1 20  1  0
  1 21  1  0
  1 22  1  0
  2  3  1  0
  2 23  1  0
  2 24  1  0
  3  4  1  1
  3  5  1  0
  3  6  1  0
  5 25  1  0
  5 26  1  0
  5 27  1  0
  6  7  1  0
  6 28  1  0
  7  8  2  0
  7  9  1  0
  9 10  1  0
  9 29  1  0
  9 30  1  0
 10 11  1  0
 10 17  1  0
 11 12  1  0
 11 31  1  0
 11 32  1  0
 12 13  1  1
 12 14  1  0
 12 15  1  0
 14 33  1  0
 14 34  1  0
 14 35  1  0
 15 16  1  0
 16 17  1  0
 16 36  1  0
 16 37  1  0
 17 18  1  6
 17 19  1  0
 19 38  1  0
 19 39  1  0
 19 40  1  0
M  END

