
     RDKit          3D

 29 31  0  0  0  0  0  0  0  0999 V2000
    1.1500    0.0445    0.2454 C   0  0  0  0  0  0  0  0  0  0  0  0
    2.5817    0.1480   -0.0058 N   0  0  0  0  0  0  0  0  0  0  0  0
    3.2970   -1.0944   -0.9453 S   0  0  0  0  0  0  0  0  0  0  0  0
    4.0886   -2.0201    0.3699 C   0  0  0  0  0  0  0  0  0  0  0  0
    3.6988   -3.3255    0.6824 C   0  0  0  0  0  0  0  0  0  0  0  0
    4.3172   -3.9810    1.7517 C   0  0  0  0  0  0  0  0  0  0  0  0
    3.8402   -5.6159    2.1539 Cl  0  0  0  0  0  0  0  0  0  0  0  0
    5.2963   -3.3367    2.5105 C   0  0  0  0  0  0  0  0  0  0  0  0
    5.6763   -2.0325    2.1774 C   0  0  0  0  0  0  0  0  0  0  0  0
    5.0997   -1.3557    1.0954 C   0  0  0  0  0  0  0  0  0  0  0  0
    5.5912    0.0054    0.6476 C   0  0  0  0  0  0  0  0  0  0  0  0
    4.6806    1.2235    0.8033 C   0  0  0  0  0  0  0  0  0  0  0  0
    5.2754    2.3946    1.2961 C   0  0  0  0  0  0  0  0  0  0  0  0
    4.5762    3.5917    1.4604 C   0  0  0  0  0  0  0  0  0  0  0  0
    3.2270    3.6313    1.1134 C   0  0  0  0  0  0  0  0  0  0  0  0
    2.6058    2.4891    0.6104 C   0  0  0  0  0  0  0  0  0  0  0  0
    3.3033    1.2729    0.4450 C   0  0  0  0  0  0  0  0  0  0  0  0
    0.8579   -1.0141    0.2138 H   0  0  0  0  0  0  0  0  0  0  0  0
    0.5355    0.5873   -0.4979 H   0  0  0  0  0  0  0  0  0  0  0  0
    0.9092    0.4408    1.2451 H   0  0  0  0  0  0  0  0  0  0  0  0
    2.9148   -3.8231    0.1097 H   0  0  0  0  0  0  0  0  0  0  0  0
    5.7616   -3.8563    3.3497 H   0  0  0  0  0  0  0  0  0  0  0  0
    6.4572   -1.5415    2.7646 H   0  0  0  0  0  0  0  0  0  0  0  0
    5.8651   -0.0853   -0.4195 H   0  0  0  0  0  0  0  0  0  0  0  0
    6.5252    0.2263    1.1841 H   0  0  0  0  0  0  0  0  0  0  0  0
    6.3329    2.3565    1.5740 H   0  0  0  0  0  0  0  0  0  0  0  0
    5.0810    4.4752    1.8575 H   0  0  0  0  0  0  0  0  0  0  0  0
    2.6499    4.5530    1.2242 H   0  0  0  0  0  0  0  0  0  0  0  0
    1.5553    2.5434    0.3242 H   0  0  0  0  0  0  0  0  0  0  0  0
  1  2  1  0
  1 18  1  0
  1 19  1  0
  1 20  1  0
  2  3  1  0
  2 17  1  0
  3  4  1  0
  4  5  2  0
  4 10  1  0
  5  6  1  0
  5 21  1  0
  6  7  1  0
  6  8  2  0
  8  9  1  0
  8 22  1  0
  9 10  2  0
  9 23  1  0
 10 11  1  0
 11 12  1  0
 11 24  1  0
 11 25  1  0
 12 13  2  0
 12 17  1  0
 13 14  1  0
 13 26  1  0
 14 15  2  0
 14 27  1  0
 15 16  1  0
 15 28  1  0
 16 17  2  0
 16 29  1  0
M  END

