
     RDKit          3D

 72 75  0  0  0  0  0  0  0  0999 V2000
    0.9428   -0.9793    0.9584 C   0  0  0  0  0  0  0  0  0  0  0  0
    2.1269   -0.4474    0.5849 C   0  0  0  0  0  0  0  0  0  0  0  0
    2.7366    0.6011    1.2874 N   0  0  0  0  0  0  0  0  0  0  0  0
    2.4117    1.8341    1.1855 C   0  0  0  0  0  0  0  0  0  0  0  0
    1.3755    2.3757    0.2247 C   0  0  0  0  0  0  0  0  0  0  0  0
    3.1646    2.8325    2.0226 C   0  0  0  0  0  0  0  0  0  0  0  0
    4.5160    2.8578    2.0862 C   0  0  0  0  0  0  0  0  0  0  0  0
    5.4906    2.0002    1.3343 C   0  0  0  0  0  0  0  0  0  0  0  0
    2.3351    3.7867    2.6680 N   0  0  0  0  0  0  0  0  0  0  0  0
    2.9465    4.9956    3.1940 C   0  0  0  0  0  0  0  0  0  0  0  0
    1.9032    6.0855    3.4759 C   0  0  2  0  0  0  0  0  0  0  0  0
    2.5847    7.2674    3.9908 N   0  0  0  0  0  0  0  0  0  0  0  0
    0.7840    5.5439    4.3804 C   0  0  0  0  0  0  0  0  0  0  0  0
    0.1963    4.2473    3.8100 C   0  0  2  0  0  0  0  0  0  0  0  0
   -0.8847    3.6687    4.7059 C   0  0  1  0  0  0  0  0  0  0  0  0
   -1.8971    4.5388    4.8797 F   0  0  0  0  0  0  0  0  0  0  0  0
   -1.4130    2.5451    4.1823 F   0  0  0  0  0  0  0  0  0  0  0  0
   -0.4189    3.3527    5.9304 F   0  0  0  0  0  0  0  0  0  0  0  0
    1.3093    3.2247    3.5433 C   0  0  0  0  0  0  0  0  0  0  0  0
    2.9438   -1.0373   -0.5028 C   0  0  0  0  0  0  0  0  0  0  0  0
    3.2640   -2.3622   -0.6751 C   0  0  0  0  0  0  0  0  0  0  0  0
    2.9733   -3.5877    0.1122 C   0  0  0  0  0  0  0  0  0  0  0  0
    4.0379   -2.5560   -1.7981 O   0  0  0  0  0  0  0  0  0  0  0  0
    4.2311   -1.3384   -2.3636 C   0  0  0  0  0  0  0  0  0  0  0  0
    4.9472   -1.0367   -3.5139 C   0  0  0  0  0  0  0  0  0  0  0  0
    4.9877    0.3144   -3.8880 C   0  0  0  0  0  0  0  0  0  0  0  0
    5.7489    0.8520   -5.1011 C   0  0  1  0  0  0  0  0  0  0  0  0
    6.6442   -0.1730   -5.8347 C   0  0  0  0  0  0  0  0  0  0  0  0
    5.8650   -1.0938   -6.7992 C   0  0  0  0  0  0  0  0  0  0  0  0
    5.0057   -0.3829   -7.7379 N   0  0  0  0  0  0  0  0  0  0  0  0
    5.6830    0.1949   -8.8819 C   0  0  0  0  0  0  0  0  0  0  0  0
    4.0981    0.5173   -7.0345 C   0  0  0  0  0  0  0  0  0  0  0  0
    4.8160    1.5386   -6.1368 C   0  0  0  0  0  0  0  0  0  0  0  0
    4.3134    1.2439   -3.0535 C   0  0  0  0  0  0  0  0  0  0  0  0
    3.6294    0.9496   -1.9503 N   0  0  0  0  0  0  0  0  0  0  0  0
    3.5857   -0.3443   -1.6068 C   0  0  0  0  0  0  0  0  0  0  0  0
    0.3861   -0.5703    1.8048 H   0  0  0  0  0  0  0  0  0  0  0  0
    0.5196   -1.8342    0.4299 H   0  0  0  0  0  0  0  0  0  0  0  0
    1.8550    2.4091   -0.7690 H   0  0  0  0  0  0  0  0  0  0  0  0
    1.0599    3.3879    0.5048 H   0  0  0  0  0  0  0  0  0  0  0  0
    0.5030    1.7133    0.1458 H   0  0  0  0  0  0  0  0  0  0  0  0
    4.9715    3.6069    2.7410 H   0  0  0  0  0  0  0  0  0  0  0  0
    5.0276    1.4724    0.4920 H   0  0  0  0  0  0  0  0  0  0  0  0
    5.9360    1.2367    1.9970 H   0  0  0  0  0  0  0  0  0  0  0  0
    6.3259    2.6116    0.9513 H   0  0  0  0  0  0  0  0  0  0  0  0
    3.6666    5.3840    2.4614 H   0  0  0  0  0  0  0  0  0  0  0  0
    3.5147    4.7986    4.1336 H   0  0  0  0  0  0  0  0  0  0  0  0
    1.4558    6.3612    2.5043 H   0  0  0  0  0  0  0  0  0  0  0  0
    2.9408    7.0888    4.9318 H   0  0  0  0  0  0  0  0  0  0  0  0
    1.9321    8.0464    4.0777 H   0  0  0  0  0  0  0  0  0  0  0  0
   -0.0049    6.3029    4.5078 H   0  0  0  0  0  0  0  0  0  0  0  0
    1.2024    5.3399    5.3828 H   0  0  0  0  0  0  0  0  0  0  0  0
   -0.3049    4.4679    2.8522 H   0  0  0  0  0  0  0  0  0  0  0  0
    0.8830    2.3274    3.0746 H   0  0  0  0  0  0  0  0  0  0  0  0
    1.7458    2.8993    4.5127 H   0  0  0  0  0  0  0  0  0  0  0  0
    2.5438   -3.3208    1.0861 H   0  0  0  0  0  0  0  0  0  0  0  0
    3.8968   -4.1690    0.2662 H   0  0  0  0  0  0  0  0  0  0  0  0
    2.2581   -4.2432   -0.4143 H   0  0  0  0  0  0  0  0  0  0  0  0
    5.4481   -1.8241   -4.0765 H   0  0  0  0  0  0  0  0  0  0  0  0
    6.4146    1.6372   -4.7008 H   0  0  0  0  0  0  0  0  0  0  0  0
    7.2213   -0.7766   -5.1144 H   0  0  0  0  0  0  0  0  0  0  0  0
    7.3916    0.3929   -6.4164 H   0  0  0  0  0  0  0  0  0  0  0  0
    5.2281   -1.7897   -6.2255 H   0  0  0  0  0  0  0  0  0  0  0  0
    6.5723   -1.7207   -7.3668 H   0  0  0  0  0  0  0  0  0  0  0  0
    6.2434   -0.5900   -9.4160 H   0  0  0  0  0  0  0  0  0  0  0  0
    6.4023    1.0140   -8.6549 H   0  0  0  0  0  0  0  0  0  0  0  0
    4.9384    0.6033   -9.5848 H   0  0  0  0  0  0  0  0  0  0  0  0
    3.4171   -0.0957   -6.4154 H   0  0  0  0  0  0  0  0  0  0  0  0
    3.4665    1.0379   -7.7731 H   0  0  0  0  0  0  0  0  0  0  0  0
    4.0769    2.1792   -5.6298 H   0  0  0  0  0  0  0  0  0  0  0  0
    5.4278    2.2100   -6.7639 H   0  0  0  0  0  0  0  0  0  0  0  0
    4.3562    2.3084   -3.3143 H   0  0  0  0  0  0  0  0  0  0  0  0
  1  2  2  0
  1 37  1  0
  1 38  1  0
  2  3  1  0
  2 20  1  0
  3  4  2  0
  4  5  1  0
  4  6  1  0
  5 39  1  0
  5 40  1  0
  5 41  1  0
  6  7  2  0
  6  9  1  0
  7  8  1  0
  7 42  1  0
  8 43  1  0
  8 44  1  0
  8 45  1  0
  9 10  1  0
  9 19  1  0
 10 11  1  0
 10 46  1  0
 10 47  1  0
 11 12  1  0
 11 13  1  0
 11 48  1  6
 12 49  1  0
 12 50  1  0
 13 14  1  0
 13 51  1  0
 13 52  1  0
 14 15  1  0
 14 19  1  0
 14 53  1  6
 15 16  1  1
 15 17  1  0
 15 18  1  0
 19 54  1  0
 19 55  1  0
 20 21  2  0
 20 36  1  0
 21 22  1  0
 21 23  1  0
 22 56  1  0
 22 57  1  0
 22 58  1  0
 23 24  1  0
 24 25  1  0
 24 36  2  0
 25 26  2  0
 25 59  1  0
 26 27  1  0
 26 34  1  0
 27 28  1  0
 27 33  1  0
 27 60  1  1
 28 29  1  0
 28 61  1  0
 28 62  1  0
 29 30  1  0
 29 63  1  0
 29 64  1  0
 30 31  1  0
 30 32  1  0
 31 65  1  0
 31 66  1  0
 31 67  1  0
 32 33  1  0
 32 68  1  0
 32 69  1  0
 33 70  1  0
 33 71  1  0
 34 35  2  0
 34 72  1  0
 35 36  1  0
M  END

