
     RDKit          3D

 43 44  0  0  0  0  0  0  0  0999 V2000
    0.9426   -0.3636   -0.1676 C   0  0  0  0  0  0  0  0  0  0  0  0
    2.3883    0.1720   -0.2765 C   0  0  1  0  0  0  0  0  0  0  0  0
    3.0048   -0.3697   -1.5821 C   0  0  0  0  0  0  0  0  0  0  0  0
    2.2324    1.7301   -0.3433 C   0  0  0  0  0  0  0  0  0  0  0  0
    2.2087    2.3028    0.8673 N   0  0  0  0  0  0  0  0  0  0  0  0
    2.0150    2.5883   -1.7487 S   0  0  0  0  0  0  0  0  0  0  0  0
    3.1630   -0.1438    0.9481 N   0  0  0  0  0  0  0  0  0  0  0  0
    2.9417   -1.3713    1.7168 C   0  0  0  0  0  0  0  0  0  0  0  0
    3.8969   -2.5208    1.3462 C   0  0  0  0  0  0  0  0  0  0  0  0
    5.3035   -2.1269    1.4133 N   0  0  0  0  0  0  0  0  0  0  0  0
    5.8978   -2.1626    2.7452 C   0  0  0  0  0  0  0  0  0  0  0  0
    6.4289   -3.5530    3.0983 C   0  0  1  0  0  0  0  0  0  0  0  0
    7.6144   -4.0491    2.2644 C   0  0  0  0  0  0  0  0  0  0  0  0
    8.3033   -5.0071    3.2432 C   0  0  0  0  0  0  0  0  0  0  0  0
    8.0889   -4.2951    4.5864 C   0  0  0  0  0  0  0  0  0  0  0  0
    6.8985   -3.5252    4.4474 O   0  0  0  0  0  0  0  0  0  0  0  0
    5.5376   -0.9252    0.6174 C   0  0  0  0  0  0  0  0  0  0  0  0
    4.5826    0.2349    0.9591 C   0  0  0  0  0  0  0  0  0  0  0  0
    0.3505    0.0543   -0.9927 H   0  0  0  0  0  0  0  0  0  0  0  0
    0.4703   -0.0646    0.7802 H   0  0  0  0  0  0  0  0  0  0  0  0
    0.9114   -1.4603   -0.2518 H   0  0  0  0  0  0  0  0  0  0  0  0
    2.3802   -0.0942   -2.4413 H   0  0  0  0  0  0  0  0  0  0  0  0
    3.0808   -1.4664   -1.5314 H   0  0  0  0  0  0  0  0  0  0  0  0
    4.0039    0.0477   -1.7692 H   0  0  0  0  0  0  0  0  0  0  0  0
    2.4185    1.7118    1.6697 H   0  0  0  0  0  0  0  0  0  0  0  0
    2.0674    3.3028    0.9454 H   0  0  0  0  0  0  0  0  0  0  0  0
    1.8987   -1.6992    1.6276 H   0  0  0  0  0  0  0  0  0  0  0  0
    3.0948   -1.1286    2.7866 H   0  0  0  0  0  0  0  0  0  0  0  0
    3.6773   -2.8714    0.3213 H   0  0  0  0  0  0  0  0  0  0  0  0
    3.7232   -3.3783    2.0161 H   0  0  0  0  0  0  0  0  0  0  0  0
    5.2072   -1.8474    3.5543 H   0  0  0  0  0  0  0  0  0  0  0  0
    6.7469   -1.4611    2.7819 H   0  0  0  0  0  0  0  0  0  0  0  0
    5.5980   -4.2858    3.0201 H   0  0  0  0  0  0  0  0  0  0  0  0
    8.2793   -3.2030    2.0178 H   0  0  0  0  0  0  0  0  0  0  0  0
    7.3045   -4.5178    1.3203 H   0  0  0  0  0  0  0  0  0  0  0  0
    9.3659   -5.1824    3.0166 H   0  0  0  0  0  0  0  0  0  0  0  0
    7.7950   -5.9856    3.2402 H   0  0  0  0  0  0  0  0  0  0  0  0
    8.9359   -3.6230    4.8245 H   0  0  0  0  0  0  0  0  0  0  0  0
    7.9773   -4.9985    5.4299 H   0  0  0  0  0  0  0  0  0  0  0  0
    5.4246   -1.1921   -0.4471 H   0  0  0  0  0  0  0  0  0  0  0  0
    6.5812   -0.5985    0.7535 H   0  0  0  0  0  0  0  0  0  0  0  0
    4.7454    1.0774    0.2696 H   0  0  0  0  0  0  0  0  0  0  0  0
    4.8351    0.6070    1.9722 H   0  0  0  0  0  0  0  0  0  0  0  0
  1  2  1  0
  1 19  1  0
  1 20  1  0
  1 21  1  0
  2  3  1  0
  2  4  1  6
  2  7  1  0
  3 22  1  0
  3 23  1  0
  3 24  1  0
  4  5  1  0
  4  6  2  0
  5 25  1  0
  5 26  1  0
  7  8  1  0
  7 18  1  0
  8  9  1  0
  8 27  1  0
  8 28  1  0
  9 10  1  0
  9 29  1  0
  9 30  1  0
 10 11  1  0
 10 17  1  0
 11 12  1  0
 11 31  1  0
 11 32  1  0
 12 13  1  0
 12 16  1  0
 12 33  1  1
 13 14  1  0
 13 34  1  0
 13 35  1  0
 14 15  1  0
 14 36  1  0
 14 37  1  0
 15 16  1  0
 15 38  1  0
 15 39  1  0
 17 18  1  0
 17 40  1  0
 17 41  1  0
 18 42  1  0
 18 43  1  0
M  END

