
     RDKit          3D

 46 46  0  0  0  0  0  0  0  0999 V2000
    6.0547   -0.3563   -2.6186 C   0  0  0  0  0  0  0  0  0  0  0  0
    5.3104   -0.2928   -1.2833 C   0  0  0  0  0  0  0  0  0  0  0  0
    5.6781    0.9434   -0.4544 C   0  0  0  0  0  0  0  0  0  0  0  0
    4.8700    1.1239    0.8521 C   0  0  1  0  0  0  0  0  0  0  0  0
    5.0019   -0.0457    1.8468 C   0  0  0  0  0  0  0  0  0  0  0  0
    6.3898   -0.2818    2.2682 N   0  0  0  0  0  0  0  0  0  0  0  0
    5.1726    2.5172    1.4369 C   0  0  0  0  0  0  0  0  0  0  0  0
    4.5489    3.4948    1.0561 O   0  0  0  0  0  0  0  0  0  0  0  0
    6.2001    2.5469    2.3458 N   0  0  0  0  0  0  0  0  0  0  0  0
    6.7530    3.6532    3.0105 C   0  0  0  0  0  0  0  0  0  0  0  0
    6.3127    4.9769    2.8217 C   0  0  0  0  0  0  0  0  0  0  0  0
    6.9472    6.0169    3.5064 C   0  0  0  0  0  0  0  0  0  0  0  0
    8.0065    5.7729    4.3798 C   0  0  0  0  0  0  0  0  0  0  0  0
    8.4361    4.4548    4.5939 C   0  0  0  0  0  0  0  0  0  0  0  0
    9.5846    4.2384    5.5466 C   0  0  0  0  0  0  0  0  0  0  0  0
   10.3854    5.1272    5.7995 O   0  0  0  0  0  0  0  0  0  0  0  0
    9.6737    2.9909    6.1074 N   0  0  0  0  0  0  0  0  0  0  0  0
   10.7045    2.6462    7.0837 C   0  0  1  0  0  0  0  0  0  0  0  0
   10.2815    3.0149    8.5117 C   0  0  0  0  0  0  0  0  0  0  0  0
   11.0728    1.1678    6.9448 C   0  0  0  0  0  0  0  0  0  0  0  0
    7.8144    3.4080    3.9023 C   0  0  0  0  0  0  0  0  0  0  0  0
    5.7742   -1.2521   -3.1951 H   0  0  0  0  0  0  0  0  0  0  0  0
    7.1471   -0.3849   -2.4687 H   0  0  0  0  0  0  0  0  0  0  0  0
    5.8321    0.5256   -3.2415 H   0  0  0  0  0  0  0  0  0  0  0  0
    5.5180   -1.2148   -0.7105 H   0  0  0  0  0  0  0  0  0  0  0  0
    4.2207   -0.2938   -1.4665 H   0  0  0  0  0  0  0  0  0  0  0  0
    5.5158    1.8465   -1.0660 H   0  0  0  0  0  0  0  0  0  0  0  0
    6.7597    0.9312   -0.2254 H   0  0  0  0  0  0  0  0  0  0  0  0
    3.8060    1.1869    0.5726 H   0  0  0  0  0  0  0  0  0  0  0  0
    4.5280   -0.9417    1.4013 H   0  0  0  0  0  0  0  0  0  0  0  0
    4.4156    0.1928    2.7496 H   0  0  0  0  0  0  0  0  0  0  0  0
    6.9414   -0.6785    1.5064 H   0  0  0  0  0  0  0  0  0  0  0  0
    6.4241   -0.9577    3.0310 H   0  0  0  0  0  0  0  0  0  0  0  0
    6.6120    1.6253    2.5457 H   0  0  0  0  0  0  0  0  0  0  0  0
    5.4903    5.1667    2.1360 H   0  0  0  0  0  0  0  0  0  0  0  0
    6.6025    7.0419    3.3457 H   0  0  0  0  0  0  0  0  0  0  0  0
    8.5167    6.5812    4.9057 H   0  0  0  0  0  0  0  0  0  0  0  0
    8.8730    2.3744    6.0327 H   0  0  0  0  0  0  0  0  0  0  0  0
   11.5742    3.2661    6.8177 H   0  0  0  0  0  0  0  0  0  0  0  0
    9.3857    2.4486    8.8199 H   0  0  0  0  0  0  0  0  0  0  0  0
   10.0544    4.0892    8.5770 H   0  0  0  0  0  0  0  0  0  0  0  0
   11.0871    2.7910    9.2297 H   0  0  0  0  0  0  0  0  0  0  0  0
   10.2106    0.5179    7.1784 H   0  0  0  0  0  0  0  0  0  0  0  0
   11.8822    0.9006    7.6417 H   0  0  0  0  0  0  0  0  0  0  0  0
   11.4082    0.9378    5.9217 H   0  0  0  0  0  0  0  0  0  0  0  0
    8.1728    2.3813    4.0189 H   0  0  0  0  0  0  0  0  0  0  0  0
  1  2  1  0
  1 22  1  0
  1 23  1  0
  1 24  1  0
  2  3  1  0
  2 25  1  0
  2 26  1  0
  3  4  1  0
  3 27  1  0
  3 28  1  0
  4  5  1  0
  4  7  1  0
  4 29  1  6
  5  6  1  0
  5 30  1  0
  5 31  1  0
  6 32  1  0
  6 33  1  0
  7  8  2  0
  7  9  1  0
  9 10  1  0
  9 34  1  0
 10 11  2  0
 10 21  1  0
 11 12  1  0
 11 35  1  0
 12 13  2  0
 12 36  1  0
 13 14  1  0
 13 37  1  0
 14 15  1  0
 14 21  2  0
 15 16  2  0
 15 17  1  0
 17 18  1  0
 17 38  1  0
 18 19  1  0
 18 20  1  0
 18 39  1  6
 19 40  1  0
 19 41  1  0
 19 42  1  0
 20 43  1  0
 20 44  1  0
 20 45  1  0
 21 46  1  0
M  END

