
     RDKit          3D

 38 39  0  0  0  0  0  0  0  0999 V2000
    1.8516   -1.6519   -0.4991 C   0  0  0  0  0  0  0  0  0  0  0  0
    2.5650   -0.3844   -0.0072 C   0  0  0  0  0  0  0  0  0  0  0  0
    2.8838    0.6117   -1.0877 C   0  0  0  0  0  0  0  0  0  0  0  0
    2.6297    1.9663   -1.1262 C   0  0  0  0  0  0  0  0  0  0  0  0
    3.0995    2.6040   -2.3088 C   0  0  0  0  0  0  0  0  0  0  0  0
    3.7061    1.7334   -3.1863 C   0  0  0  0  0  0  0  0  0  0  0  0
    4.2658    2.0979   -4.5156 C   0  0  0  0  0  0  0  0  0  0  0  0
    4.4538    3.2609   -4.8337 O   0  0  0  0  0  0  0  0  0  0  0  0
    4.5318    1.0146   -5.3309 N   0  0  0  0  0  0  0  0  0  0  0  0
    5.1202    0.9748   -6.5978 C   0  0  0  0  0  0  0  0  0  0  0  0
    5.5420    2.1127   -7.3015 C   0  0  0  0  0  0  0  0  0  0  0  0
    6.1284    1.9767   -8.5606 C   0  0  0  0  0  0  0  0  0  0  0  0
    6.3192    0.7253   -9.1668 C   0  0  0  0  0  0  0  0  0  0  0  0
    6.9753    0.5928  -10.5201 C   0  0  0  0  0  0  0  0  0  0  0  0
    5.8949   -0.4063   -8.4615 C   0  0  0  0  0  0  0  0  0  0  0  0
    5.2990   -0.3095   -7.1924 C   0  0  0  0  0  0  0  0  0  0  0  0
    4.8656   -1.4744   -6.4820 C   0  0  0  0  0  0  0  0  0  0  0  0
    4.4516   -2.4088   -5.8180 C   0  0  0  0  0  0  0  0  0  0  0  0
    3.9998   -3.5250   -4.9761 C   0  0  0  0  0  0  0  0  0  0  0  0
    4.1607   -3.2921   -3.5890 O   0  0  0  0  0  0  0  0  0  0  0  0
    3.7176    0.1128   -2.5320 S   0  0  0  0  0  0  0  0  0  0  0  0
    1.6597   -2.3387    0.3402 H   0  0  0  0  0  0  0  0  0  0  0  0
    2.4560   -2.1935   -1.2453 H   0  0  0  0  0  0  0  0  0  0  0  0
    0.8857   -1.4062   -0.9680 H   0  0  0  0  0  0  0  0  0  0  0  0
    3.4995   -0.6722    0.5090 H   0  0  0  0  0  0  0  0  0  0  0  0
    1.9492    0.1307    0.7483 H   0  0  0  0  0  0  0  0  0  0  0  0
    2.1148    2.4887   -0.3174 H   0  0  0  0  0  0  0  0  0  0  0  0
    2.9931    3.6653   -2.5358 H   0  0  0  0  0  0  0  0  0  0  0  0
    4.2384    0.1020   -4.9918 H   0  0  0  0  0  0  0  0  0  0  0  0
    5.3970    3.0913   -6.8493 H   0  0  0  0  0  0  0  0  0  0  0  0
    6.4454    2.8806   -9.0889 H   0  0  0  0  0  0  0  0  0  0  0  0
    7.0148    1.5593  -11.0442 H   0  0  0  0  0  0  0  0  0  0  0  0
    6.4353   -0.1196  -11.1643 H   0  0  0  0  0  0  0  0  0  0  0  0
    8.0121    0.2242  -10.4298 H   0  0  0  0  0  0  0  0  0  0  0  0
    6.0213   -1.4005   -8.8973 H   0  0  0  0  0  0  0  0  0  0  0  0
    4.5164   -4.4511   -5.3016 H   0  0  0  0  0  0  0  0  0  0  0  0
    2.9222   -3.6991   -5.1339 H   0  0  0  0  0  0  0  0  0  0  0  0
    5.0891   -3.0745   -3.4273 H   0  0  0  0  0  0  0  0  0  0  0  0
  1  2  1  0
  1 22  1  0
  1 23  1  0
  1 24  1  0
  2  3  1  0
  2 25  1  0
  2 26  1  0
  3  4  2  0
  3 21  1  0
  4  5  1  0
  4 27  1  0
  5  6  2  0
  5 28  1  0
  6  7  1  0
  6 21  1  0
  7  8  2  0
  7  9  1  0
  9 10  1  0
  9 29  1  0
 10 11  2  0
 10 16  1  0
 11 12  1  0
 11 30  1  0
 12 13  2  0
 12 31  1  0
 13 14  1  0
 13 15  1  0
 14 32  1  0
 14 33  1  0
 14 34  1  0
 15 16  2  0
 15 35  1  0
 16 17  1  0
 17 18  3  0
 18 19  1  0
 19 20  1  0
 19 36  1  0
 19 37  1  0
 20 38  1  0
M  END

