
     RDKit          3D

 33 33  0  0  0  0  0  0  0  0999 V2000
    2.7432   -0.6676    1.2405 C   0  0  0  0  0  0  0  0  0  0  0  0
    2.4833    0.0296   -0.1048 C   0  0  0  0  0  0  0  0  0  0  0  0
    3.0215    1.4423   -0.1589 C   0  0  0  0  0  0  0  0  0  0  0  0
    2.1911    2.5287    0.1498 C   0  0  0  0  0  0  0  0  0  0  0  0
    2.6653    3.8426    0.1427 C   0  0  0  0  0  0  0  0  0  0  0  0
    4.0011    4.0982   -0.1810 C   0  0  0  0  0  0  0  0  0  0  0  0
    4.8480    3.0376   -0.4951 C   0  0  0  0  0  0  0  0  0  0  0  0
    4.3782    1.7070   -0.4865 C   0  0  0  0  0  0  0  0  0  0  0  0
    5.2785    0.6414   -0.8183 C   0  0  0  0  0  0  0  0  0  0  0  0
    6.0453   -0.2638   -1.0919 C   0  0  0  0  0  0  0  0  0  0  0  0
    6.9460   -1.3601   -1.4870 C   0  0  1  0  0  0  0  0  0  0  0  0
    6.4071   -2.0843   -2.5860 O   0  0  0  0  0  0  0  0  0  0  0  0
    8.3954   -0.8739   -1.7583 C   0  0  1  0  0  0  0  0  0  0  0  0
    8.9948   -0.1651   -0.5393 C   0  0  0  0  0  0  0  0  0  0  0  0
    9.2716   -2.0443   -2.2161 C   0  0  0  0  0  0  0  0  0  0  0  0
    2.3337   -1.6905    1.2363 H   0  0  0  0  0  0  0  0  0  0  0  0
    2.2744   -0.1167    2.0717 H   0  0  0  0  0  0  0  0  0  0  0  0
    3.8222   -0.7366    1.4485 H   0  0  0  0  0  0  0  0  0  0  0  0
    1.3980    0.0548   -0.2974 H   0  0  0  0  0  0  0  0  0  0  0  0
    2.9357   -0.5680   -0.9122 H   0  0  0  0  0  0  0  0  0  0  0  0
    1.1434    2.3360    0.3988 H   0  0  0  0  0  0  0  0  0  0  0  0
    1.9904    4.6671    0.3865 H   0  0  0  0  0  0  0  0  0  0  0  0
    4.3815    5.1225   -0.1924 H   0  0  0  0  0  0  0  0  0  0  0  0
    5.8920    3.2246   -0.7555 H   0  0  0  0  0  0  0  0  0  0  0  0
    6.9884   -2.0937   -0.6606 H   0  0  0  0  0  0  0  0  0  0  0  0
    6.2144   -1.4467   -3.2880 H   0  0  0  0  0  0  0  0  0  0  0  0
    8.3272   -0.1418   -2.5862 H   0  0  0  0  0  0  0  0  0  0  0  0
    9.0637   -0.8525    0.3215 H   0  0  0  0  0  0  0  0  0  0  0  0
    8.3921    0.7021   -0.2302 H   0  0  0  0  0  0  0  0  0  0  0  0
   10.0138    0.1905   -0.7596 H   0  0  0  0  0  0  0  0  0  0  0  0
    9.3913   -2.7842   -1.4058 H   0  0  0  0  0  0  0  0  0  0  0  0
   10.2767   -1.6934   -2.4990 H   0  0  0  0  0  0  0  0  0  0  0  0
    8.8251   -2.5621   -3.0761 H   0  0  0  0  0  0  0  0  0  0  0  0
  1  2  1  0
  1 16  1  0
  1 17  1  0
  1 18  1  0
  2  3  1  0
  2 19  1  0
  2 20  1  0
  3  4  2  0
  3  8  1  0
  4  5  1  0
  4 21  1  0
  5  6  2  0
  5 22  1  0
  6  7  1  0
  6 23  1  0
  7  8  2  0
  7 24  1  0
  8  9  1  0
  9 10  3  0
 10 11  1  0
 11 12  1  0
 11 13  1  0
 11 25  1  1
 12 26  1  0
 13 14  1  0
 13 15  1  0
 13 27  1  6
 14 28  1  0
 14 29  1  0
 14 30  1  0
 15 31  1  0
 15 32  1  0
 15 33  1  0
M  END

