
     RDKit          3D

 48 50  0  0  0  0  0  0  0  0999 V2000
    0.4172   -0.3803   -0.5034 O   0  0  0  0  0  0  0  0  0  0  0  0
    0.8803   -0.8795   -1.5117 C   0  0  0  0  0  0  0  0  0  0  0  0
    1.7336   -0.0602   -2.4731 C   0  0  0  0  0  0  0  0  0  0  0  0
    1.9436    1.3833   -2.0171 C   0  0  0  0  0  0  0  0  0  0  0  0
    2.8506    2.2162   -2.9462 C   0  0  1  0  0  0  0  0  0  0  0  0
    2.2313    2.5036   -4.3343 C   0  0  0  0  0  0  0  0  0  0  0  0
    1.1263    3.5750   -4.2746 C   0  0  0  0  0  0  0  0  0  0  0  0
    1.5548    4.8256   -3.6477 N   0  0  0  0  0  0  0  0  0  0  0  0
    2.3299    5.7106   -4.5053 C   0  0  0  0  0  0  0  0  0  0  0  0
    1.5054    6.3571   -5.6074 C   0  0  0  0  0  0  0  0  0  0  0  0
    0.2012    6.8108   -5.3534 C   0  0  0  0  0  0  0  0  0  0  0  0
   -0.5372    7.4520   -6.3503 C   0  0  0  0  0  0  0  0  0  0  0  0
    0.0159    7.6512   -7.6204 C   0  0  0  0  0  0  0  0  0  0  0  0
    1.3113    7.1996   -7.8855 C   0  0  0  0  0  0  0  0  0  0  0  0
    2.0467    6.5544   -6.8855 C   0  0  0  0  0  0  0  0  0  0  0  0
    2.1116    4.5865   -2.3186 C   0  0  0  0  0  0  0  0  0  0  0  0
    3.2586    3.5596   -2.2999 C   0  0  0  0  0  0  0  0  0  0  0  0
    0.6166   -2.3246   -1.8323 C   0  0  0  0  0  0  0  0  0  0  0  0
    1.1143   -2.9658   -2.9805 C   0  0  0  0  0  0  0  0  0  0  0  0
    0.8357   -4.3109   -3.2266 C   0  0  0  0  0  0  0  0  0  0  0  0
    0.0526   -5.0128   -2.3119 C   0  0  0  0  0  0  0  0  0  0  0  0
   -0.2176   -6.3023   -2.5424 F   0  0  0  0  0  0  0  0  0  0  0  0
   -0.4573   -4.4071   -1.1624 C   0  0  0  0  0  0  0  0  0  0  0  0
   -0.1709   -3.0650   -0.9311 C   0  0  0  0  0  0  0  0  0  0  0  0
    1.2559   -0.1035   -3.4680 H   0  0  0  0  0  0  0  0  0  0  0  0
    2.7054   -0.5727   -2.5980 H   0  0  0  0  0  0  0  0  0  0  0  0
    2.3864    1.3643   -1.0078 H   0  0  0  0  0  0  0  0  0  0  0  0
    0.9590    1.8591   -1.8851 H   0  0  0  0  0  0  0  0  0  0  0  0
    3.7734    1.6273   -3.1025 H   0  0  0  0  0  0  0  0  0  0  0  0
    1.8272    1.5833   -4.7893 H   0  0  0  0  0  0  0  0  0  0  0  0
    3.0315    2.8450   -5.0138 H   0  0  0  0  0  0  0  0  0  0  0  0
    0.2630    3.1867   -3.7043 H   0  0  0  0  0  0  0  0  0  0  0  0
    0.7517    3.7945   -5.2864 H   0  0  0  0  0  0  0  0  0  0  0  0
    3.2181    5.2290   -4.9705 H   0  0  0  0  0  0  0  0  0  0  0  0
    2.7341    6.5121   -3.8611 H   0  0  0  0  0  0  0  0  0  0  0  0
   -0.2270    6.6408   -4.3628 H   0  0  0  0  0  0  0  0  0  0  0  0
   -1.5518    7.7992   -6.1361 H   0  0  0  0  0  0  0  0  0  0  0  0
   -0.5629    8.1522   -8.4007 H   0  0  0  0  0  0  0  0  0  0  0  0
    1.7506    7.3436   -8.8763 H   0  0  0  0  0  0  0  0  0  0  0  0
    3.0584    6.1974   -7.1020 H   0  0  0  0  0  0  0  0  0  0  0  0
    1.2927    4.2348   -1.6651 H   0  0  0  0  0  0  0  0  0  0  0  0
    2.4514    5.5468   -1.8976 H   0  0  0  0  0  0  0  0  0  0  0  0
    3.5987    3.3975   -1.2625 H   0  0  0  0  0  0  0  0  0  0  0  0
    4.1224    3.9740   -2.8492 H   0  0  0  0  0  0  0  0  0  0  0  0
    1.7277   -2.4201   -3.6993 H   0  0  0  0  0  0  0  0  0  0  0  0
    1.2139   -4.8236   -4.1129 H   0  0  0  0  0  0  0  0  0  0  0  0
   -1.0665   -4.9947   -0.4728 H   0  0  0  0  0  0  0  0  0  0  0  0
   -0.5510   -2.5547   -0.0441 H   0  0  0  0  0  0  0  0  0  0  0  0
  1  2  2  0
  2  3  1  0
  2 18  1  0
  3  4  1  0
  3 25  1  0
  3 26  1  0
  4  5  1  0
  4 27  1  0
  4 28  1  0
  5  6  1  0
  5 17  1  0
  5 29  1  6
  6  7  1  0
  6 30  1  0
  6 31  1  0
  7  8  1  0
  7 32  1  0
  7 33  1  0
  8  9  1  0
  8 16  1  0
  9 10  1  0
  9 34  1  0
  9 35  1  0
 10 11  2  0
 10 15  1  0
 11 12  1  0
 11 36  1  0
 12 13  2  0
 12 37  1  0
 13 14  1  0
 13 38  1  0
 14 15  2  0
 14 39  1  0
 15 40  1  0
 16 17  1  0
 16 41  1  0
 16 42  1  0
 17 43  1  0
 17 44  1  0
 18 19  2  0
 18 24  1  0
 19 20  1  0
 19 45  1  0
 20 21  2  0
 20 46  1  0
 21 22  1  0
 21 23  1  0
 23 24  2  0
 23 47  1  0
 24 48  1  0
M  END

