
     RDKit          3D

 63 63  0  0  0  0  0  0  0  0999 V2000
   10.8397    6.7505   11.9200 C   0  0  0  0  0  0  0  0  0  0  0  0
    9.9540    7.7194   11.1611 C   0  0  0  0  0  0  0  0  0  0  0  0
   10.2274    7.5999    9.7703 O   0  0  0  0  0  0  0  0  0  0  0  0
    9.4809    8.4369    8.9371 C   0  0  1  0  0  0  0  0  0  0  0  0
    9.8002    9.8000    9.1919 O   0  0  0  0  0  0  0  0  0  0  0  0
    8.7090   10.6978    9.2690 C   0  0  0  0  0  0  0  0  0  0  0  0
    9.2408   12.0833    9.5851 C   0  0  0  0  0  0  0  0  0  0  0  0
    9.9416    8.0111    7.1173 Si  0  0  0  0  0  4  0  0  0  0  0  0
    9.1472    8.9373    6.2519 H   0  0  0  0  0  0  0  0  0  0  0  0
   11.3919    8.3066    6.9333 H   0  0  0  0  0  0  0  0  0  0  0  0
    9.5455    6.2189    6.6546 C   0  0  0  0  0  0  0  0  0  0  0  0
   10.3749    5.1420    7.3703 C   0  0  0  0  0  0  0  0  0  0  0  0
   10.0433    3.7185    6.9143 C   0  0  0  0  0  0  0  0  0  0  0  0
   10.2686    3.5117    5.5311 O   0  0  0  0  0  0  0  0  0  0  0  0
   11.5857    3.0928    5.1645 C   0  0  1  0  0  0  0  0  0  0  0  0
   11.7791    1.5727    5.2795 C   0  0  0  0  0  0  0  0  0  0  0  0
   11.0922    0.7365    4.1707 C   0  0  2  0  0  0  0  0  0  0  0  0
    9.5636    0.6538    4.3690 C   0  0  0  0  0  0  0  0  0  0  0  0
   11.6115   -0.7116    4.2540 C   0  0  0  0  0  0  0  0  0  0  0  0
   11.4114    1.2839    2.8049 N   0  0  0  0  0  0  0  0  0  0  0  0
   12.8215    1.0453    2.6038 O   0  0  0  0  0  0  0  0  0  0  0  0
   13.0362    0.1880    1.5037 C   0  0  0  0  0  0  0  0  0  0  0  0
   11.2108    2.7643    2.6109 C   0  0  2  0  0  0  0  0  0  0  0  0
    9.7063    3.0915    2.4955 C   0  0  0  0  0  0  0  0  0  0  0  0
   11.8414    3.1737    1.2662 C   0  0  0  0  0  0  0  0  0  0  0  0
   11.8979    3.5674    3.7431 C   0  0  0  0  0  0  0  0  0  0  0  0
   10.6620    6.8355   13.0037 H   0  0  0  0  0  0  0  0  0  0  0  0
   11.9013    6.9667   11.7242 H   0  0  0  0  0  0  0  0  0  0  0  0
   10.6403    5.7107   11.6169 H   0  0  0  0  0  0  0  0  0  0  0  0
   10.1425    8.7573   11.4873 H   0  0  0  0  0  0  0  0  0  0  0  0
    8.8808    7.5038   11.3470 H   0  0  0  0  0  0  0  0  0  0  0  0
    8.3919    8.2901    9.1336 H   0  0  0  0  0  0  0  0  0  0  0  0
    7.9951   10.3657   10.0516 H   0  0  0  0  0  0  0  0  0  0  0  0
    8.1493   10.7155    8.3121 H   0  0  0  0  0  0  0  0  0  0  0  0
    9.7838   12.0825   10.5431 H   0  0  0  0  0  0  0  0  0  0  0  0
    8.4141   12.8080    9.6525 H   0  0  0  0  0  0  0  0  0  0  0  0
    9.9356   12.4186    8.7998 H   0  0  0  0  0  0  0  0  0  0  0  0
    9.6771    6.1143    5.5633 H   0  0  0  0  0  0  0  0  0  0  0  0
    8.4673    6.0484    6.8363 H   0  0  0  0  0  0  0  0  0  0  0  0
   10.2208    5.2054    8.4607 H   0  0  0  0  0  0  0  0  0  0  0  0
   11.4521    5.3309    7.2135 H   0  0  0  0  0  0  0  0  0  0  0  0
    8.9725    3.5137    7.0891 H   0  0  0  0  0  0  0  0  0  0  0  0
   10.6128    2.9871    7.5194 H   0  0  0  0  0  0  0  0  0  0  0  0
   12.3096    3.5803    5.8455 H   0  0  0  0  0  0  0  0  0  0  0  0
   11.4427    1.2235    6.2701 H   0  0  0  0  0  0  0  0  0  0  0  0
   12.8627    1.3771    5.2300 H   0  0  0  0  0  0  0  0  0  0  0  0
    9.3538   -0.0088    5.2235 H   0  0  0  0  0  0  0  0  0  0  0  0
    9.0894    0.2189    3.4767 H   0  0  0  0  0  0  0  0  0  0  0  0
    9.1014    1.6181    4.5918 H   0  0  0  0  0  0  0  0  0  0  0  0
   11.3571   -1.1303    5.2400 H   0  0  0  0  0  0  0  0  0  0  0  0
   12.7003   -0.7680    4.1321 H   0  0  0  0  0  0  0  0  0  0  0  0
   11.1325   -1.3416    3.4883 H   0  0  0  0  0  0  0  0  0  0  0  0
   12.5720   -0.8022    1.6485 H   0  0  0  0  0  0  0  0  0  0  0  0
   14.1286    0.0641    1.4287 H   0  0  0  0  0  0  0  0  0  0  0  0
   12.6583    0.6163    0.5599 H   0  0  0  0  0  0  0  0  0  0  0  0
    9.2092    2.3613    1.8398 H   0  0  0  0  0  0  0  0  0  0  0  0
    9.5966    4.0883    2.0406 H   0  0  0  0  0  0  0  0  0  0  0  0
    9.1941    3.1278    3.4597 H   0  0  0  0  0  0  0  0  0  0  0  0
   11.3651    2.6342    0.4326 H   0  0  0  0  0  0  0  0  0  0  0  0
   12.9220    2.9864    1.2411 H   0  0  0  0  0  0  0  0  0  0  0  0
   11.6789    4.2505    1.1052 H   0  0  0  0  0  0  0  0  0  0  0  0
   11.6448    4.6361    3.6541 H   0  0  0  0  0  0  0  0  0  0  0  0
   12.9870    3.4780    3.6031 H   0  0  0  0  0  0  0  0  0  0  0  0
  1  2  1  0
  1 27  1  0
  1 28  1  0
  1 29  1  0
  2  3  1  0
  2 30  1  0
  2 31  1  0
  3  4  1  0
  4  5  1  0
  4  8  1  0
  4 32  1  6
  5  6  1  0
  6  7  1  0
  6 33  1  0
  6 34  1  0
  7 35  1  0
  7 36  1  0
  7 37  1  0
  8  9  1  0
  8 10  1  0
  8 11  1  0
 11 12  1  0
 11 38  1  0
 11 39  1  0
 12 13  1  0
 12 40  1  0
 12 41  1  0
 13 14  1  0
 13 42  1  0
 13 43  1  0
 14 15  1  0
 15 16  1  0
 15 26  1  0
 15 44  1  1
 16 17  1  0
 16 45  1  0
 16 46  1  0
 17 18  1  1
 17 19  1  0
 17 20  1  0
 18 47  1  0
 18 48  1  0
 18 49  1  0
 19 50  1  0
 19 51  1  0
 19 52  1  0
 20 21  1  0
 20 23  1  0
 21 22  1  0
 22 53  1  0
 22 54  1  0
 22 55  1  0
 23 24  1  6
 23 25  1  0
 23 26  1  0
 24 56  1  0
 24 57  1  0
 24 58  1  0
 25 59  1  0
 25 60  1  0
 25 61  1  0
 26 62  1  0
 26 63  1  0
M  END

