
     RDKit          3D

 45 48  0  0  0  0  0  0  0  0999 V2000
    2.3851    0.0087   -0.9548 C   0  0  0  0  0  0  0  0  0  0  0  0
    2.1303   -0.0681    0.5547 C   0  0  1  0  0  0  0  0  0  0  0  0
    0.6399   -0.1555    0.9018 C   0  0  0  0  0  0  0  0  0  0  0  0
    2.8884   -1.1689    1.1685 N   0  0  0  0  0  0  0  0  0  0  0  0
    2.7285   -2.5413    0.8909 C   0  0  0  0  0  0  0  0  0  0  0  0
    1.9284   -2.9858    0.0962 O   0  0  0  0  0  0  0  0  0  0  0  0
    3.6925   -3.2882    1.7489 C   0  0  0  0  0  0  0  0  0  0  0  0
    3.6340   -4.7423    1.7999 C   0  0  0  0  0  0  0  0  0  0  0  0
    3.3789   -5.6199    0.7622 C   0  0  0  0  0  0  0  0  0  0  0  0
    3.2703   -6.9778    1.1785 C   0  0  0  0  0  0  0  0  0  0  0  0
    3.4265   -7.1351    2.5332 C   0  0  0  0  0  0  0  0  0  0  0  0
    3.6944   -5.6213    3.3228 S   0  0  0  0  0  0  0  0  0  0  0  0
    4.4250   -2.3608    2.4619 C   0  0  0  0  0  0  0  0  0  0  0  0
    5.5273   -2.5024    3.2480 N   0  0  0  0  0  0  0  0  0  0  0  0
    6.4141   -3.6582    3.1498 C   0  0  0  0  0  0  0  0  0  0  0  0
    7.8542   -3.1837    2.9429 C   0  0  0  0  0  0  0  0  0  0  0  0
    8.2656   -2.1375    3.9542 C   0  0  0  0  0  0  0  0  0  0  0  0
    9.6201   -1.8940    4.2341 C   0  0  0  0  0  0  0  0  0  0  0  0
   10.0016   -0.9190    5.1547 C   0  0  0  0  0  0  0  0  0  0  0  0
    9.0215   -0.1684    5.8143 C   0  0  0  0  0  0  0  0  0  0  0  0
    7.6743   -0.4029    5.5438 C   0  0  0  0  0  0  0  0  0  0  0  0
    7.2838   -1.3811    4.6159 C   0  0  0  0  0  0  0  0  0  0  0  0
    5.8048   -1.6113    4.3761 C   0  0  0  0  0  0  0  0  0  0  0  0
    3.8828   -0.9759    2.1072 C   0  0  0  0  0  0  0  0  0  0  0  0
    4.2509    0.1024    2.5265 O   0  0  0  0  0  0  0  0  0  0  0  0
    1.8743    0.8885   -1.3765 H   0  0  0  0  0  0  0  0  0  0  0  0
    2.0071   -0.8899   -1.4637 H   0  0  0  0  0  0  0  0  0  0  0  0
    3.4611    0.1069   -1.1676 H   0  0  0  0  0  0  0  0  0  0  0  0
    2.5511    0.8319    1.0287 H   0  0  0  0  0  0  0  0  0  0  0  0
    0.1873   -1.0592    0.4685 H   0  0  0  0  0  0  0  0  0  0  0  0
    0.1104    0.7248    0.5045 H   0  0  0  0  0  0  0  0  0  0  0  0
    0.4908   -0.1773    1.9926 H   0  0  0  0  0  0  0  0  0  0  0  0
    3.2619   -5.2826   -0.2669 H   0  0  0  0  0  0  0  0  0  0  0  0
    3.0843   -7.8091    0.4966 H   0  0  0  0  0  0  0  0  0  0  0  0
    3.3997   -8.0565    3.1134 H   0  0  0  0  0  0  0  0  0  0  0  0
    6.0987   -4.2858    2.3100 H   0  0  0  0  0  0  0  0  0  0  0  0
    6.3396   -4.2746    4.0656 H   0  0  0  0  0  0  0  0  0  0  0  0
    7.9490   -2.7709    1.9220 H   0  0  0  0  0  0  0  0  0  0  0  0
    8.5331   -4.0512    2.9922 H   0  0  0  0  0  0  0  0  0  0  0  0
   10.3840   -2.4845    3.7193 H   0  0  0  0  0  0  0  0  0  0  0  0
   11.0607   -0.7444    5.3603 H   0  0  0  0  0  0  0  0  0  0  0  0
    9.3085    0.6001    6.5364 H   0  0  0  0  0  0  0  0  0  0  0  0
    6.9070    0.1852    6.0565 H   0  0  0  0  0  0  0  0  0  0  0  0
    5.3072   -0.6521    4.1955 H   0  0  0  0  0  0  0  0  0  0  0  0
    5.3598   -2.0502    5.2943 H   0  0  0  0  0  0  0  0  0  0  0  0
  1  2  1  0
  1 26  1  0
  1 27  1  0
  1 28  1  0
  2  3  1  0
  2  4  1  0
  2 29  1  1
  3 30  1  0
  3 31  1  0
  3 32  1  0
  4  5  1  0
  4 24  1  0
  5  6  2  0
  5  7  1  0
  7  8  2  0
  7 13  1  0
  8  9  1  0
  8 12  1  0
  9 10  2  0
  9 33  1  0
 10 11  1  0
 10 34  1  0
 11 12  2  0
 11 35  1  0
 13 14  1  0
 13 24  2  0
 14 15  1  0
 14 23  1  0
 15 16  1  0
 15 36  1  0
 15 37  1  0
 16 17  1  0
 16 38  1  0
 16 39  1  0
 17 18  2  0
 17 22  1  0
 18 19  1  0
 18 40  1  0
 19 20  2  0
 19 41  1  0
 20 21  1  0
 20 42  1  0
 21 22  2  0
 21 43  1  0
 22 23  1  0
 23 44  1  0
 23 45  1  0
 24 25  1  0
M  CHG  2  12   1  25  -1
M  END

