
     RDKit          3D

 76 77  0  0  0  0  0  0  0  0999 V2000
    1.9004   -1.1291    2.4679 C   0  0  0  0  0  0  0  0  0  0  0  0
    3.6396   -1.2924    1.9582 S   0  0  0  0  0  0  0  0  0  0  0  0
    4.0921   -2.7975    2.9084 C   0  0  0  0  0  0  0  0  0  0  0  0
    5.5541   -3.1891    2.6944 C   0  0  0  0  0  0  0  0  0  0  0  0
    6.5710   -2.0918    3.0646 C   0  0  1  0  0  0  0  0  0  0  0  0
    6.4332   -1.5137    4.3997 N   0  0  0  0  0  0  0  0  0  0  0  0
    8.0074   -2.6074    2.8378 C   0  0  0  0  0  0  0  0  0  0  0  0
    8.2711   -3.4350    1.9708 O   0  0  0  0  0  0  0  0  0  0  0  0
    8.9339   -2.0434    3.6448 N   0  0  0  0  0  0  0  0  0  0  0  0
   10.3174   -2.4753    3.6662 C   0  0  1  0  0  0  0  0  0  0  0  0
   11.1655   -1.4133    4.3873 C   0  0  0  0  0  0  0  0  0  0  0  0
   12.6877   -1.6431    4.4043 C   0  0  1  0  0  0  0  0  0  0  0  0
   13.3072   -1.6150    3.0002 C   0  0  0  0  0  0  0  0  0  0  0  0
   13.3610   -0.6084    5.3161 C   0  0  0  0  0  0  0  0  0  0  0  0
   10.4247   -3.8364    4.3894 C   0  0  0  0  0  0  0  0  0  0  0  0
    9.8618   -4.0323    5.4572 O   0  0  0  0  0  0  0  0  0  0  0  0
   11.1973   -4.7637    3.7717 N   0  0  0  0  0  0  0  0  0  0  0  0
   11.4140   -6.0874    4.3091 C   0  0  1  0  0  0  0  0  0  0  0  0
   10.2056   -7.0392    4.0501 C   0  0  0  0  0  0  0  0  0  0  0  0
    9.9557   -7.3597    2.6040 C   0  0  0  0  0  0  0  0  0  0  0  0
    9.3614   -6.5362    1.6685 C   0  0  0  0  0  0  0  0  0  0  0  0
    9.3487   -7.1620    0.4401 N   0  0  0  0  0  0  0  0  0  0  0  0
    8.9620   -6.7635   -0.4045 H   0  0  0  0  0  0  0  0  0  0  0  0
    9.9305   -8.4052    0.5444 C   0  0  0  0  0  0  0  0  0  0  0  0
   10.1402   -9.3995   -0.4214 C   0  0  0  0  0  0  0  0  0  0  0  0
   10.7598  -10.5782   -0.0144 C   0  0  0  0  0  0  0  0  0  0  0  0
   11.1580  -10.7662    1.3275 C   0  0  0  0  0  0  0  0  0  0  0  0
   10.9479   -9.7781    2.2861 C   0  0  0  0  0  0  0  0  0  0  0  0
   10.3308   -8.5687    1.9044 C   0  0  0  0  0  0  0  0  0  0  0  0
   12.7121   -6.6223    3.6919 C   0  0  0  0  0  0  0  0  0  0  0  0
   13.2623   -6.0586    2.7514 O   0  0  0  0  0  0  0  0  0  0  0  0
   13.1975   -7.7620    4.2449 N   0  0  0  0  0  0  0  0  0  0  0  0
   14.2518   -8.5391    3.6307 C   0  0  1  0  0  0  0  0  0  0  0  0
   15.6061   -7.7903    3.7071 C   0  0  0  0  0  0  0  0  0  0  0  0
   16.6592   -8.2900    2.7366 C   0  0  0  0  0  0  0  0  0  0  0  0
   16.7365   -9.4379    2.3501 O   0  0  0  0  0  0  0  0  0  0  0  0
   17.5575   -7.3978    2.3160 O   0  0  0  0  0  0  0  0  0  0  0  0
   14.2320   -9.9280    4.3163 C   0  0  0  0  0  0  0  0  0  0  0  0
   13.3997  -10.1884    5.1551 O   0  0  0  0  0  0  0  0  0  0  0  0
   15.1408  -10.7980    3.9239 O   0  0  0  0  0  0  0  0  0  0  0  0
    1.5013   -0.2358    1.9665 H   0  0  0  0  0  0  0  0  0  0  0  0
    1.8092   -0.9940    3.5571 H   0  0  0  0  0  0  0  0  0  0  0  0
    1.3082   -2.0035    2.1561 H   0  0  0  0  0  0  0  0  0  0  0  0
    3.4354   -3.6258    2.5970 H   0  0  0  0  0  0  0  0  0  0  0  0
    3.8966   -2.6036    3.9769 H   0  0  0  0  0  0  0  0  0  0  0  0
    5.7280   -3.4824    1.6486 H   0  0  0  0  0  0  0  0  0  0  0  0
    5.7589   -4.0895    3.3008 H   0  0  0  0  0  0  0  0  0  0  0  0
    6.4498   -1.2583    2.3496 H   0  0  0  0  0  0  0  0  0  0  0  0
    6.2754   -2.2377    5.1027 H   0  0  0  0  0  0  0  0  0  0  0  0
    5.6454   -0.8686    4.4357 H   0  0  0  0  0  0  0  0  0  0  0  0
    8.5562   -1.4771    4.4029 H   0  0  0  0  0  0  0  0  0  0  0  0
   10.6422   -2.5949    2.6213 H   0  0  0  0  0  0  0  0  0  0  0  0
   10.8000   -1.3575    5.4276 H   0  0  0  0  0  0  0  0  0  0  0  0
   10.9510   -0.4361    3.9188 H   0  0  0  0  0  0  0  0  0  0  0  0
   12.8784   -2.6420    4.8371 H   0  0  0  0  0  0  0  0  0  0  0  0
   13.1101   -0.6509    2.5001 H   0  0  0  0  0  0  0  0  0  0  0  0
   12.9185   -2.4147    2.3510 H   0  0  0  0  0  0  0  0  0  0  0  0
   14.4002   -1.7451    3.0508 H   0  0  0  0  0  0  0  0  0  0  0  0
   13.2042    0.4158    4.9358 H   0  0  0  0  0  0  0  0  0  0  0  0
   14.4483   -0.7767    5.3765 H   0  0  0  0  0  0  0  0  0  0  0  0
   12.9567   -0.6491    6.3403 H   0  0  0  0  0  0  0  0  0  0  0  0
   11.6321   -4.5798    2.8722 H   0  0  0  0  0  0  0  0  0  0  0  0
   11.5347   -5.9993    5.4024 H   0  0  0  0  0  0  0  0  0  0  0  0
    9.3354   -6.5438    4.5070 H   0  0  0  0  0  0  0  0  0  0  0  0
   10.3589   -7.9701    4.6205 H   0  0  0  0  0  0  0  0  0  0  0  0
    8.9463   -5.5339    1.7814 H   0  0  0  0  0  0  0  0  0  0  0  0
    9.8274   -9.2561   -1.4590 H   0  0  0  0  0  0  0  0  0  0  0  0
   10.9373  -11.3722   -0.7443 H   0  0  0  0  0  0  0  0  0  0  0  0
   11.6338  -11.7064    1.6182 H   0  0  0  0  0  0  0  0  0  0  0  0
   11.2585   -9.9485    3.3201 H   0  0  0  0  0  0  0  0  0  0  0  0
   12.6888   -8.2638    4.9718 H   0  0  0  0  0  0  0  0  0  0  0  0
   14.0149   -8.6976    2.5619 H   0  0  0  0  0  0  0  0  0  0  0  0
   16.0257   -7.8393    4.7279 H   0  0  0  0  0  0  0  0  0  0  0  0
   15.3884   -6.7352    3.4849 H   0  0  0  0  0  0  0  0  0  0  0  0
   17.3500   -6.5133    2.6521 H   0  0  0  0  0  0  0  0  0  0  0  0
   15.7485  -10.4132    3.2351 H   0  0  0  0  0  0  0  0  0  0  0  0
  1  2  1  0
  1 41  1  0
  1 42  1  0
  1 43  1  0
  2  3  1  0
  3  4  1  0
  3 44  1  0
  3 45  1  0
  4  5  1  0
  4 46  1  0
  4 47  1  0
  5  6  1  0
  5  7  1  0
  5 48  1  6
  6 49  1  0
  6 50  1  0
  7  8  2  0
  7  9  1  0
  9 10  1  0
  9 51  1  0
 10 11  1  0
 10 15  1  0
 10 52  1  6
 11 12  1  0
 11 53  1  0
 11 54  1  0
 12 13  1  0
 12 14  1  0
 12 55  1  1
 13 56  1  0
 13 57  1  0
 13 58  1  0
 14 59  1  0
 14 60  1  0
 14 61  1  0
 15 16  2  0
 15 17  1  0
 17 18  1  0
 17 62  1  0
 18 19  1  0
 18 30  1  0
 18 63  1  1
 19 20  1  0
 19 64  1  0
 19 65  1  0
 20 21  2  0
 20 29  1  0
 21 22  1  0
 21 66  1  0
 22 23  1  0
 22 24  1  0
 24 25  1  0
 24 29  2  0
 25 26  2  0
 25 67  1  0
 26 27  1  0
 26 68  1  0
 27 28  2  0
 27 69  1  0
 28 29  1  0
 28 70  1  0
 30 31  2  0
 30 32  1  0
 32 33  1  0
 32 71  1  0
 33 34  1  0
 33 38  1  0
 33 72  1  6
 34 35  1  0
 34 73  1  0
 34 74  1  0
 35 36  2  0
 35 37  1  0
 37 75  1  0
 38 39  2  0
 38 40  1  0
 40 76  1  0
M  END

