
     RDKit          3D

 76 82  0  0  0  0  0  0  0  0999 V2000
    0.9115   -0.2364   -0.9427 C   0  0  0  0  0  0  0  0  0  0  0  0
    2.4028   -0.1358   -0.7342 C   0  0  0  0  0  0  0  0  0  0  0  0
    3.3080   -0.7338   -1.6158 C   0  0  0  0  0  0  0  0  0  0  0  0
    4.6957   -0.6572   -1.4269 C   0  0  0  0  0  0  0  0  0  0  0  0
    5.5846   -1.3588   -2.4325 C   0  0  0  0  0  0  0  0  0  0  0  0
    5.2273    0.0723   -0.3279 C   0  0  0  0  0  0  0  0  0  0  0  0
    6.7939    0.1962   -0.1059 B   0  0  0  0  0  0  0  0  0  0  0  0
    7.4337    1.6289    0.0140 C   0  0  0  0  0  0  0  0  0  0  0  0
    8.6203    1.8543    0.7455 C   0  0  0  0  0  0  0  0  0  0  0  0
    9.1826    3.1240    0.8630 C   0  0  0  0  0  0  0  0  0  0  0  0
    8.6006    4.2371    0.2244 C   0  0  0  0  0  0  0  0  0  0  0  0
    9.2069    5.5906    0.3327 C   0  0  0  0  0  0  0  0  0  0  0  0
   10.6030    5.7522    0.3648 C   0  0  0  0  0  0  0  0  0  0  0  0
   11.1995    7.0196    0.4640 C   0  0  0  0  0  0  0  0  0  0  0  0
   12.6288    7.1988    0.4873 C   0  0  0  0  0  0  0  0  0  0  0  0
   13.1865    8.4400    0.5853 C   0  0  0  0  0  0  0  0  0  0  0  0
   12.3720    9.6249    0.6681 C   0  0  0  0  0  0  0  0  0  0  0  0
   12.9221   10.9155    0.7710 C   0  0  0  0  0  0  0  0  0  0  0  0
   12.0967   12.0391    0.8484 C   0  0  0  0  0  0  0  0  0  0  0  0
   10.7071   11.9038    0.8251 C   0  0  0  0  0  0  0  0  0  0  0  0
   10.1099   10.6342    0.7231 C   0  0  0  0  0  0  0  0  0  0  0  0
    8.6818   10.4498    0.6963 C   0  0  0  0  0  0  0  0  0  0  0  0
    8.1266    9.2076    0.5956 C   0  0  0  0  0  0  0  0  0  0  0  0
    8.9460    8.0257    0.5102 C   0  0  0  0  0  0  0  0  0  0  0  0
    8.3972    6.7375    0.4051 C   0  0  0  0  0  0  0  0  0  0  0  0
   10.3667    8.1788    0.5396 C   0  0  0  0  0  0  0  0  0  0  0  0
   10.9490    9.4782    0.6435 C   0  0  0  0  0  0  0  0  0  0  0  0
    7.4243    4.0225   -0.5210 C   0  0  0  0  0  0  0  0  0  0  0  0
    6.8516    2.7550   -0.6082 C   0  0  0  0  0  0  0  0  0  0  0  0
    7.7366   -1.0762   -0.0032 C   0  0  0  0  0  0  0  0  0  0  0  0
    8.8671   -1.2195   -0.8534 C   0  0  0  0  0  0  0  0  0  0  0  0
    9.2334   -0.1970   -1.9121 C   0  0  0  0  0  0  0  0  0  0  0  0
    9.6858   -2.3549   -0.7510 C   0  0  0  0  0  0  0  0  0  0  0  0
    9.4503   -3.3596    0.1903 C   0  0  0  0  0  0  0  0  0  0  0  0
   10.3508   -4.5652    0.3044 C   0  0  0  0  0  0  0  0  0  0  0  0
    8.3402   -3.2115    1.0316 C   0  0  0  0  0  0  0  0  0  0  0  0
    7.4805   -2.1107    0.9434 C   0  0  0  0  0  0  0  0  0  0  0  0
    6.2987   -2.0589    1.8885 C   0  0  0  0  0  0  0  0  0  0  0  0
    4.3082    0.6922    0.5669 C   0  0  0  0  0  0  0  0  0  0  0  0
    4.7572    1.4848    1.7796 C   0  0  0  0  0  0  0  0  0  0  0  0
    2.9291    0.5647    0.3575 C   0  0  0  0  0  0  0  0  0  0  0  0
    0.6641   -0.8736   -1.8047 H   0  0  0  0  0  0  0  0  0  0  0  0
    0.4647    0.7569   -1.1202 H   0  0  0  0  0  0  0  0  0  0  0  0
    0.4098   -0.6573   -0.0554 H   0  0  0  0  0  0  0  0  0  0  0  0
    2.9232   -1.2877   -2.4778 H   0  0  0  0  0  0  0  0  0  0  0  0
    4.9884   -1.7777   -3.2565 H   0  0  0  0  0  0  0  0  0  0  0  0
    6.1498   -2.1831   -1.9711 H   0  0  0  0  0  0  0  0  0  0  0  0
    6.3267   -0.6778   -2.8787 H   0  0  0  0  0  0  0  0  0  0  0  0
    9.1046    1.0119    1.2472 H   0  0  0  0  0  0  0  0  0  0  0  0
   10.0784    3.2613    1.4734 H   0  0  0  0  0  0  0  0  0  0  0  0
   11.2498    4.8755    0.2840 H   0  0  0  0  0  0  0  0  0  0  0  0
   13.2646    6.3115    0.4256 H   0  0  0  0  0  0  0  0  0  0  0  0
   14.2736    8.5560    0.6029 H   0  0  0  0  0  0  0  0  0  0  0  0
   14.0091   11.0312    0.7900 H   0  0  0  0  0  0  0  0  0  0  0  0
   12.5424   13.0339    0.9280 H   0  0  0  0  0  0  0  0  0  0  0  0
   10.0687   12.7893    0.8862 H   0  0  0  0  0  0  0  0  0  0  0  0
    8.0434   11.3354    0.7587 H   0  0  0  0  0  0  0  0  0  0  0  0
    7.0399    9.0888    0.5767 H   0  0  0  0  0  0  0  0  0  0  0  0
    7.3099    6.6312    0.4072 H   0  0  0  0  0  0  0  0  0  0  0  0
    6.9641    4.8586   -1.0528 H   0  0  0  0  0  0  0  0  0  0  0  0
    5.9334    2.6274   -1.1883 H   0  0  0  0  0  0  0  0  0  0  0  0
    8.3567    0.2875   -2.3642 H   0  0  0  0  0  0  0  0  0  0  0  0
    9.8097   -0.6683   -2.7228 H   0  0  0  0  0  0  0  0  0  0  0  0
    9.8545    0.6118   -1.4938 H   0  0  0  0  0  0  0  0  0  0  0  0
   10.5368   -2.4545   -1.4325 H   0  0  0  0  0  0  0  0  0  0  0  0
   11.1354   -4.5605   -0.4667 H   0  0  0  0  0  0  0  0  0  0  0  0
    9.7804   -5.5035    0.2016 H   0  0  0  0  0  0  0  0  0  0  0  0
   10.8477   -4.6007    1.2890 H   0  0  0  0  0  0  0  0  0  0  0  0
    8.1313   -3.9851    1.7777 H   0  0  0  0  0  0  0  0  0  0  0  0
    6.3327   -2.8934    2.6043 H   0  0  0  0  0  0  0  0  0  0  0  0
    5.3417   -2.1161    1.3474 H   0  0  0  0  0  0  0  0  0  0  0  0
    6.2752   -1.1263    2.4743 H   0  0  0  0  0  0  0  0  0  0  0  0
    5.6489    1.0616    2.2634 H   0  0  0  0  0  0  0  0  0  0  0  0
    3.9570    1.5277    2.5337 H   0  0  0  0  0  0  0  0  0  0  0  0
    5.0133    2.5225    1.5104 H   0  0  0  0  0  0  0  0  0  0  0  0
    2.2419    1.0294    1.0723 H   0  0  0  0  0  0  0  0  0  0  0  0
  1  2  1  0
  1 42  1  0
  1 43  1  0
  1 44  1  0
  2  3  2  0
  2 41  1  0
  3  4  1  0
  3 45  1  0
  4  5  1  0
  4  6  2  0
  5 46  1  0
  5 47  1  0
  5 48  1  0
  6  7  1  0
  6 39  1  0
  7  8  1  0
  7 30  1  0
  8  9  2  0
  8 29  1  0
  9 10  1  0
  9 49  1  0
 10 11  2  0
 10 50  1  0
 11 12  1  0
 11 28  1  0
 12 13  2  0
 12 25  1  0
 13 14  1  0
 13 51  1  0
 14 15  2  0
 14 26  1  0
 15 16  1  0
 15 52  1  0
 16 17  2  0
 16 53  1  0
 17 18  1  0
 17 27  1  0
 18 19  2  0
 18 54  1  0
 19 20  1  0
 19 55  1  0
 20 21  2  0
 20 56  1  0
 21 22  1  0
 21 27  1  0
 22 23  2  0
 22 57  1  0
 23 24  1  0
 23 58  1  0
 24 25  2  0
 24 26  1  0
 25 59  1  0
 26 27  2  0
 28 29  2  0
 28 60  1  0
 29 61  1  0
 30 31  2  0
 30 37  1  0
 31 32  1  0
 31 33  1  0
 32 62  1  0
 32 63  1  0
 32 64  1  0
 33 34  2  0
 33 65  1  0
 34 35  1  0
 34 36  1  0
 35 66  1  0
 35 67  1  0
 35 68  1  0
 36 37  2  0
 36 69  1  0
 37 38  1  0
 38 70  1  0
 38 71  1  0
 38 72  1  0
 39 40  1  0
 39 41  2  0
 40 73  1  0
 40 74  1  0
 40 75  1  0
 41 76  1  0
M  END

