
     RDKit          3D

 71 73  0  0  0  0  0  0  0  0999 V2000
    1.7360   -3.2774    1.9575 C   0  0  0  0  0  0  0  0  0  0  0  0
    3.0696   -2.8225    1.7255 O   0  0  0  0  0  0  0  0  0  0  0  0
    3.4982   -2.8600    0.4518 C   0  0  0  0  0  0  0  0  0  0  0  0
    2.8223   -3.2276   -0.4753 O   0  0  0  0  0  0  0  0  0  0  0  0
    4.9174   -2.3136    0.3109 C   0  0  1  0  0  0  0  0  0  0  0  0
    4.9261   -0.7612    0.2819 C   0  0  0  0  0  0  0  0  0  0  0  0
    6.2170   -0.3498    1.0381 C   0  0  2  0  0  0  0  0  0  0  0  0
    7.4523   -0.2528    0.1628 C   0  0  0  0  0  0  0  0  0  0  0  0
    8.1042    0.9725   -0.0268 C   0  0  0  0  0  0  0  0  0  0  0  0
    9.2020    1.1355   -0.7600 N   0  0  0  0  0  0  0  0  0  0  0  0
    9.7382    0.0848   -1.3910 C   0  0  0  0  0  0  0  0  0  0  0  0
   10.8705    0.3461   -2.1293 N   0  0  0  0  0  0  0  0  0  0  0  0
    9.1582   -1.2181   -1.3092 C   0  0  0  0  0  0  0  0  0  0  0  0
    9.6997   -2.4078   -2.0149 C   0  0  0  0  0  0  0  0  0  0  0  0
   10.1480   -2.3538   -3.3524 C   0  0  0  0  0  0  0  0  0  0  0  0
   10.5870   -3.5033   -4.0021 C   0  0  0  0  0  0  0  0  0  0  0  0
   10.6020   -4.7602   -3.3681 C   0  0  0  0  0  0  0  0  0  0  0  0
   11.0651   -5.9964   -4.0770 C   0  0  0  0  0  0  0  0  0  0  0  0
   11.0470   -7.1066   -3.5988 O   0  0  0  0  0  0  0  0  0  0  0  0
   11.5011   -5.7030   -5.3166 O   0  0  0  0  0  0  0  0  0  0  0  0
   12.0023   -6.7298   -6.2402 C   0  0  1  0  0  0  0  0  0  0  0  0
   10.8942   -7.7413   -6.5518 C   0  0  0  0  0  0  0  0  0  0  0  0
   12.3613   -5.9198   -7.4875 C   0  0  0  0  0  0  0  0  0  0  0  0
   13.2487   -7.3996   -5.6519 C   0  0  0  0  0  0  0  0  0  0  0  0
   10.1531   -4.7988   -2.0351 C   0  0  0  0  0  0  0  0  0  0  0  0
   10.1272   -5.9438   -1.3519 F   0  0  0  0  0  0  0  0  0  0  0  0
    9.7204   -3.6561   -1.3691 C   0  0  0  0  0  0  0  0  0  0  0  0
    8.0200   -1.3476   -0.5067 C   0  0  0  0  0  0  0  0  0  0  0  0
    6.3019   -1.4477    2.1187 C   0  0  0  0  0  0  0  0  0  0  0  0
    5.7988   -2.6302    1.4281 N   0  0  0  0  0  0  0  0  0  0  0  0
    6.1341   -3.8947    1.8321 C   0  0  0  0  0  0  0  0  0  0  0  0
    6.8295   -4.1329    2.7997 O   0  0  0  0  0  0  0  0  0  0  0  0
    5.5977   -4.8038    0.9896 O   0  0  0  0  0  0  0  0  0  0  0  0
    5.7518   -6.2499    1.1954 C   0  0  1  0  0  0  0  0  0  0  0  0
    5.0894   -6.6492    2.5178 C   0  0  0  0  0  0  0  0  0  0  0  0
    4.9991   -6.8436    0.0035 C   0  0  0  0  0  0  0  0  0  0  0  0
    7.2326   -6.6409    1.1540 C   0  0  0  0  0  0  0  0  0  0  0  0
    1.5569   -3.1661    3.0339 H   0  0  0  0  0  0  0  0  0  0  0  0
    1.6277   -4.3315    1.6605 H   0  0  0  0  0  0  0  0  0  0  0  0
    1.0122   -2.6788    1.3837 H   0  0  0  0  0  0  0  0  0  0  0  0
    5.2967   -2.7377   -0.6316 H   0  0  0  0  0  0  0  0  0  0  0  0
    4.0525   -0.3781    0.8322 H   0  0  0  0  0  0  0  0  0  0  0  0
    4.8787   -0.3692   -0.7430 H   0  0  0  0  0  0  0  0  0  0  0  0
    6.0684    0.6327    1.5113 H   0  0  0  0  0  0  0  0  0  0  0  0
    7.7121    1.8766    0.4579 H   0  0  0  0  0  0  0  0  0  0  0  0
   11.2867    1.2515   -1.9405 H   0  0  0  0  0  0  0  0  0  0  0  0
   11.5171   -0.4118   -2.3105 H   0  0  0  0  0  0  0  0  0  0  0  0
   10.1247   -1.4070   -3.8939 H   0  0  0  0  0  0  0  0  0  0  0  0
   10.9183   -3.4499   -5.0389 H   0  0  0  0  0  0  0  0  0  0  0  0
    9.9964   -7.2239   -6.9249 H   0  0  0  0  0  0  0  0  0  0  0  0
   10.6235   -8.3235   -5.6622 H   0  0  0  0  0  0  0  0  0  0  0  0
   11.2381   -8.4341   -7.3357 H   0  0  0  0  0  0  0  0  0  0  0  0
   11.4735   -5.4049   -7.8853 H   0  0  0  0  0  0  0  0  0  0  0  0
   12.7588   -6.5828   -8.2708 H   0  0  0  0  0  0  0  0  0  0  0  0
   13.1245   -5.1624   -7.2523 H   0  0  0  0  0  0  0  0  0  0  0  0
   13.0039   -7.9766   -4.7515 H   0  0  0  0  0  0  0  0  0  0  0  0
   14.0054   -6.6421   -5.3940 H   0  0  0  0  0  0  0  0  0  0  0  0
   13.6883   -8.0795   -6.3984 H   0  0  0  0  0  0  0  0  0  0  0  0
    9.4122   -3.7608   -0.3277 H   0  0  0  0  0  0  0  0  0  0  0  0
    7.5627   -2.3340   -0.4213 H   0  0  0  0  0  0  0  0  0  0  0  0
    5.6652   -1.1943    2.9866 H   0  0  0  0  0  0  0  0  0  0  0  0
    7.3191   -1.6289    2.4907 H   0  0  0  0  0  0  0  0  0  0  0  0
    4.0365   -6.3261    2.5313 H   0  0  0  0  0  0  0  0  0  0  0  0
    5.6104   -6.1960    3.3712 H   0  0  0  0  0  0  0  0  0  0  0  0
    5.1128   -7.7443    2.6308 H   0  0  0  0  0  0  0  0  0  0  0  0
    3.9513   -6.5078   -0.0027 H   0  0  0  0  0  0  0  0  0  0  0  0
    5.0176   -7.9430    0.0519 H   0  0  0  0  0  0  0  0  0  0  0  0
    5.4644   -6.5293   -0.9428 H   0  0  0  0  0  0  0  0  0  0  0  0
    7.7800   -6.2047    1.9988 H   0  0  0  0  0  0  0  0  0  0  0  0
    7.7031   -6.3093    0.2154 H   0  0  0  0  0  0  0  0  0  0  0  0
    7.3230   -7.7374    1.2025 H   0  0  0  0  0  0  0  0  0  0  0  0
  1  2  1  0
  1 38  1  0
  1 39  1  0
  1 40  1  0
  2  3  1  0
  3  4  2  0
  3  5  1  0
  5  6  1  0
  5 30  1  0
  5 41  1  6
  6  7  1  0
  6 42  1  0
  6 43  1  0
  7  8  1  0
  7 29  1  0
  7 44  1  1
  8  9  2  0
  8 28  1  0
  9 10  1  0
  9 45  1  0
 10 11  2  0
 11 12  1  0
 11 13  1  0
 12 46  1  0
 12 47  1  0
 13 14  1  0
 13 28  2  0
 14 15  2  0
 14 27  1  0
 15 16  1  0
 15 48  1  0
 16 17  2  0
 16 49  1  0
 17 18  1  0
 17 25  1  0
 18 19  2  0
 18 20  1  0
 21 20  1  1
 21 22  1  0
 21 23  1  0
 21 24  1  0
 22 50  1  0
 22 51  1  0
 22 52  1  0
 23 53  1  0
 23 54  1  0
 23 55  1  0
 24 56  1  0
 24 57  1  0
 24 58  1  0
 25 26  1  0
 25 27  2  0
 27 59  1  0
 28 60  1  0
 29 30  1  0
 29 61  1  0
 29 62  1  0
 30 31  1  0
 31 32  2  0
 31 33  1  0
 34 33  1  6
 34 35  1  0
 34 36  1  0
 34 37  1  0
 35 63  1  0
 35 64  1  0
 35 65  1  0
 36 66  1  0
 36 67  1  0
 36 68  1  0
 37 69  1  0
 37 70  1  0
 37 71  1  0
M  END

