
     RDKit          3D

 44 46  0  0  0  0  0  0  0  0999 V2000
    3.3467   -4.8840   -1.7570 C   0  0  0  0  0  0  0  0  0  0  0  0
    4.4655   -3.9163   -1.4591 C   0  0  0  0  0  0  0  0  0  0  0  0
    5.3990   -4.1645   -0.4397 C   0  0  0  0  0  0  0  0  0  0  0  0
    6.4261   -3.2643   -0.1606 C   0  0  0  0  0  0  0  0  0  0  0  0
    6.5560   -2.0750   -0.8984 C   0  0  0  0  0  0  0  0  0  0  0  0
    7.6440   -1.1238   -0.6030 C   0  0  0  0  0  0  0  0  0  0  0  0
    7.9273    0.1328   -1.2375 C   0  0  0  0  0  0  0  0  0  0  0  0
    9.0327    0.5939   -0.5816 C   0  0  0  0  0  0  0  0  0  0  0  0
    9.9089    1.8231   -0.6644 C   0  0  0  0  0  0  0  0  0  0  0  0
    9.6492    2.7689   -1.7248 N   0  0  0  0  0  0  0  0  0  0  0  0
    8.4285    3.5579   -1.6135 C   0  0  0  0  0  0  0  0  0  0  0  0
    8.4946    4.7634   -2.5534 C   0  0  0  0  0  0  0  0  0  0  0  0
    8.8009    4.3524   -3.9290 N   0  0  0  0  0  0  0  0  0  0  0  0
    7.5182    4.0643   -4.9895 S   0  0  1  0  0  0  0  0  0  0  0  0
    7.5752    5.4770   -6.1016 C   0  0  0  0  0  0  0  0  0  0  0  0
    7.8360    2.8758   -5.7879 O   0  0  0  0  0  0  0  0  0  0  0  0
    6.2629    4.1613   -4.2368 O   0  0  0  0  0  0  0  0  0  0  0  0
   10.0000    3.5117   -4.0327 C   0  0  0  0  0  0  0  0  0  0  0  0
    9.9267    2.3151   -3.0821 C   0  0  0  0  0  0  0  0  0  0  0  0
    9.3884   -0.2982    0.3628 O   0  0  0  0  0  0  0  0  0  0  0  0
    8.5198   -1.3719    0.3503 N   0  0  0  0  0  0  0  0  0  0  0  0
    5.6257   -1.8214   -1.9207 C   0  0  0  0  0  0  0  0  0  0  0  0
    4.6013   -2.7271   -2.1936 C   0  0  0  0  0  0  0  0  0  0  0  0
    3.4398   -5.8060   -1.1645 H   0  0  0  0  0  0  0  0  0  0  0  0
    3.3325   -5.1658   -2.8229 H   0  0  0  0  0  0  0  0  0  0  0  0
    2.3628   -4.4385   -1.5307 H   0  0  0  0  0  0  0  0  0  0  0  0
    5.3196   -5.0837    0.1478 H   0  0  0  0  0  0  0  0  0  0  0  0
    7.1434   -3.4733    0.6349 H   0  0  0  0  0  0  0  0  0  0  0  0
    7.3878    0.6074   -2.0501 H   0  0  0  0  0  0  0  0  0  0  0  0
   10.9554    1.4768   -0.7402 H   0  0  0  0  0  0  0  0  0  0  0  0
    9.8430    2.3493    0.3052 H   0  0  0  0  0  0  0  0  0  0  0  0
    8.3250    3.9106   -0.5739 H   0  0  0  0  0  0  0  0  0  0  0  0
    7.5114    2.9821   -1.8595 H   0  0  0  0  0  0  0  0  0  0  0  0
    9.2977    5.4468   -2.2268 H   0  0  0  0  0  0  0  0  0  0  0  0
    7.5423    5.3081   -2.5396 H   0  0  0  0  0  0  0  0  0  0  0  0
    8.5440    5.4823   -6.6168 H   0  0  0  0  0  0  0  0  0  0  0  0
    7.4295    6.3940   -5.5167 H   0  0  0  0  0  0  0  0  0  0  0  0
    6.7551    5.3421   -6.8204 H   0  0  0  0  0  0  0  0  0  0  0  0
   10.8679    4.1421   -3.7719 H   0  0  0  0  0  0  0  0  0  0  0  0
   10.1142    3.1676   -5.0682 H   0  0  0  0  0  0  0  0  0  0  0  0
   10.8928    1.7835   -3.0898 H   0  0  0  0  0  0  0  0  0  0  0  0
    9.1607    1.6115   -3.4712 H   0  0  0  0  0  0  0  0  0  0  0  0
    5.6986   -0.9082   -2.5153 H   0  0  0  0  0  0  0  0  0  0  0  0
    3.8918   -2.5050   -2.9961 H   0  0  0  0  0  0  0  0  0  0  0  0
  1  2  1  0
  1 24  1  0
  1 25  1  0
  1 26  1  0
  2  3  2  0
  2 23  1  0
  3  4  1  0
  3 27  1  0
  4  5  2  0
  4 28  1  0
  5  6  1  0
  5 22  1  0
  6  7  1  0
  6 21  2  0
  7  8  2  0
  7 29  1  0
  8  9  1  0
  8 20  1  0
  9 10  1  0
  9 30  1  0
  9 31  1  0
 10 11  1  0
 10 19  1  0
 11 12  1  0
 11 32  1  0
 11 33  1  0
 12 13  1  0
 12 34  1  0
 12 35  1  0
 13 14  1  0
 13 18  1  0
 14 15  1  6
 14 16  2  0
 14 17  2  0
 15 36  1  0
 15 37  1  0
 15 38  1  0
 18 19  1  0
 18 39  1  0
 18 40  1  0
 19 41  1  0
 19 42  1  0
 20 21  1  0
 22 23  2  0
 22 43  1  0
 23 44  1  0
M  END

