
     RDKit          3D

 34 36  0  0  0  0  0  0  0  0999 V2000
    5.3798   -0.8700    0.9319 O   0  0  0  0  0  0  0  0  0  0  0  0
    4.7589   -1.9028    0.7431 N   0  0  0  0  0  0  0  0  0  0  0  0
    5.2115   -3.0271    0.8781 O   0  0  0  0  0  0  0  0  0  0  0  0
    3.3455   -1.7797    0.3123 C   0  0  0  0  0  0  0  0  0  0  0  0
    2.8144   -0.5027    0.1046 C   0  0  0  0  0  0  0  0  0  0  0  0
    1.4867   -0.3981   -0.3093 C   0  0  0  0  0  0  0  0  0  0  0  0
    0.7184   -1.5491   -0.5071 C   0  0  0  0  0  0  0  0  0  0  0  0
    1.2636   -2.8283   -0.2915 C   0  0  0  0  0  0  0  0  0  0  0  0
    0.4207   -4.0123   -0.5139 C   0  0  0  0  0  0  0  0  0  0  0  0
    0.9049   -5.1841   -0.3004 N   0  0  0  0  0  0  0  0  0  0  0  0
    0.1715   -6.3092   -0.4939 N   0  0  0  0  0  0  0  0  0  0  0  0
    0.7232   -7.5647   -0.1862 C   0  0  0  0  0  0  0  0  0  0  0  0
    2.0972   -7.7670    0.3092 C   0  0  0  0  0  0  0  0  0  0  0  0
    3.1879   -7.2481   -0.4120 C   0  0  0  0  0  0  0  0  0  0  0  0
    4.5023   -7.4427    0.0018 C   0  0  0  0  0  0  0  0  0  0  0  0
    4.7424   -8.1741    1.1694 C   0  0  0  0  0  0  0  0  0  0  0  0
    6.3788   -8.4357    1.7065 Cl  0  0  0  0  0  0  0  0  0  0  0  0
    3.6864   -8.6972    1.9167 C   0  0  0  0  0  0  0  0  0  0  0  0
    2.3719   -8.4891    1.4886 C   0  0  0  0  0  0  0  0  0  0  0  0
    1.0911   -9.1246    2.4872 Cl  0  0  0  0  0  0  0  0  0  0  0  0
   -0.1375   -8.5091   -0.4213 N   0  0  0  0  0  0  0  0  0  0  0  0
   -1.2434   -7.8727   -0.8718 N   0  0  0  0  0  0  0  0  0  0  0  0
   -2.0752   -8.3901   -1.1329 H   0  0  0  0  0  0  0  0  0  0  0  0
   -1.1408   -6.5161   -0.9528 C   0  0  0  0  0  0  0  0  0  0  0  0
   -2.3214   -5.4673   -1.4802 S   0  0  0  0  0  0  0  0  0  0  0  0
    2.6018   -2.9379    0.1267 C   0  0  0  0  0  0  0  0  0  0  0  0
    3.4439    0.3715    0.2677 H   0  0  0  0  0  0  0  0  0  0  0  0
    1.0476    0.5872   -0.4800 H   0  0  0  0  0  0  0  0  0  0  0  0
   -0.3210   -1.4595   -0.8335 H   0  0  0  0  0  0  0  0  0  0  0  0
   -0.6077   -3.8567   -0.8605 H   0  0  0  0  0  0  0  0  0  0  0  0
    2.9950   -6.6825   -1.3246 H   0  0  0  0  0  0  0  0  0  0  0  0
    5.3361   -7.0338   -0.5695 H   0  0  0  0  0  0  0  0  0  0  0  0
    3.8782   -9.2564    2.8319 H   0  0  0  0  0  0  0  0  0  0  0  0
    3.0535   -3.9127    0.3033 H   0  0  0  0  0  0  0  0  0  0  0  0
  1  2  2  0
  2  3  1  0
  2  4  1  0
  4  5  2  0
  4 26  1  0
  5  6  1  0
  5 27  1  0
  6  7  2  0
  6 28  1  0
  7  8  1  0
  7 29  1  0
  8  9  1  0
  8 26  2  0
  9 10  2  0
  9 30  1  0
 10 11  1  0
 11 12  1  0
 11 24  1  0
 12 13  1  0
 12 21  2  0
 13 14  2  0
 13 19  1  0
 14 15  1  0
 14 31  1  0
 15 16  2  0
 15 32  1  0
 16 17  1  0
 16 18  1  0
 18 19  2  0
 18 33  1  0
 19 20  1  0
 21 22  1  0
 22 23  1  0
 22 24  1  0
 24 25  2  0
 26 34  1  0
M  CHG  2   2   1   3  -1
M  END

