
     RDKit          3D

 36 37  0  0  0  0  0  0  0  0999 V2000
    1.0233    0.4106   -0.4046 C   0  0  0  0  0  0  0  0  0  0  0  0
    2.4671    0.1561   -0.0163 C   0  0  0  0  0  0  0  0  0  0  0  0
    2.8379   -0.9037    0.9888 C   0  0  0  0  0  0  0  0  0  0  0  0
    3.8127   -1.6259    0.8171 O   0  0  0  0  0  0  0  0  0  0  0  0
    2.0212   -1.0781    2.0964 N   0  0  0  0  0  0  0  0  0  0  0  0
    1.3005    0.0158    2.7478 C   0  0  0  0  0  0  0  0  0  0  0  0
    0.0679   -0.5170    3.4732 C   0  0  0  0  0  0  0  0  0  0  0  0
    0.4108   -1.5635    4.3533 O   0  0  0  0  0  0  0  0  0  0  0  0
    0.9982   -2.6481    3.6563 C   0  0  0  0  0  0  0  0  0  0  0  0
    2.3007   -2.2397    2.9577 C   0  0  2  0  0  0  0  0  0  0  0  0
    3.4540   -1.9657    3.9394 C   0  0  0  0  0  0  0  0  0  0  0  0
    3.9913   -3.2265    4.6022 C   0  0  0  0  0  0  0  0  0  0  0  0
    3.5224   -4.3248    4.4730 O   0  0  0  0  0  0  0  0  0  0  0  0
    5.0750   -3.0390    5.3906 O   0  0  0  0  0  0  0  0  0  0  0  0
    3.4669    0.7902   -0.6486 C   0  0  0  0  0  0  0  0  0  0  0  0
    3.5261    1.8300   -1.7488 C   0  0  0  0  0  0  0  0  0  0  0  0
    4.9814    1.5904   -1.8615 N   0  0  0  0  0  0  0  0  0  0  0  0
    4.9817    0.7427   -0.6425 C   0  0  0  0  0  0  0  0  0  0  0  0
    0.3680   -0.4100   -0.0781 H   0  0  0  0  0  0  0  0  0  0  0  0
    0.9319    0.4926   -1.4996 H   0  0  0  0  0  0  0  0  0  0  0  0
    0.6182    1.3477    0.0160 H   0  0  0  0  0  0  0  0  0  0  0  0
    1.0086    0.7732    2.0123 H   0  0  0  0  0  0  0  0  0  0  0  0
    1.9569    0.5201    3.4843 H   0  0  0  0  0  0  0  0  0  0  0  0
   -0.6781   -0.8679    2.7298 H   0  0  0  0  0  0  0  0  0  0  0  0
   -0.3937    0.2811    4.0750 H   0  0  0  0  0  0  0  0  0  0  0  0
    0.2926   -3.0373    2.8953 H   0  0  0  0  0  0  0  0  0  0  0  0
    1.1967   -3.4441    4.3845 H   0  0  0  0  0  0  0  0  0  0  0  0
    2.6185   -3.0598    2.3012 H   0  0  0  0  0  0  0  0  0  0  0  0
    3.1362   -1.2687    4.7351 H   0  0  0  0  0  0  0  0  0  0  0  0
    4.2824   -1.4929    3.3863 H   0  0  0  0  0  0  0  0  0  0  0  0
    5.3478   -2.1105    5.3762 H   0  0  0  0  0  0  0  0  0  0  0  0
    3.2315    2.8429   -1.4033 H   0  0  0  0  0  0  0  0  0  0  0  0
    2.9464    1.6120   -2.6665 H   0  0  0  0  0  0  0  0  0  0  0  0
    5.5632    2.4239   -1.8155 H   0  0  0  0  0  0  0  0  0  0  0  0
    5.4317    1.2043    0.2598 H   0  0  0  0  0  0  0  0  0  0  0  0
    5.4244   -0.2575   -0.7691 H   0  0  0  0  0  0  0  0  0  0  0  0
  1  2  1  0
  1 19  1  0
  1 20  1  0
  1 21  1  0
  2  3  1  0
  2 15  2  0
  3  4  2  0
  3  5  1  0
  5  6  1  0
  5 10  1  0
  6  7  1  0
  6 22  1  0
  6 23  1  0
  7  8  1  0
  7 24  1  0
  7 25  1  0
  8  9  1  0
  9 10  1  0
  9 26  1  0
  9 27  1  0
 10 11  1  0
 10 28  1  6
 11 12  1  0
 11 29  1  0
 11 30  1  0
 12 13  2  0
 12 14  1  0
 14 31  1  0
 15 16  1  0
 15 18  1  0
 16 17  1  0
 16 32  1  0
 16 33  1  0
 17 18  1  0
 17 34  1  0
 18 35  1  0
 18 36  1  0
M  END

