
     RDKit          3D

 28 29  0  0  0  0  0  0  0  0999 V2000
    2.6274    0.2288   -1.0818 O   0  0  0  0  0  0  0  0  0  0  0  0
    3.5683   -0.2850   -1.6231 C   0  0  0  0  0  0  0  0  0  0  0  0
    3.7583   -0.1343   -2.9546 O   0  0  0  0  0  0  0  0  0  0  0  0
    4.5953   -1.1541   -0.9140 C   0  0  0  0  0  0  0  0  0  0  0  0
    4.4998   -1.0384    0.6108 C   0  0  0  0  0  0  0  0  0  0  0  0
    5.3783   -1.9580    1.3071 N   0  0  0  0  0  0  0  0  0  0  0  0
    6.7286   -1.8050    1.3127 C   0  0  0  0  0  0  0  0  0  0  0  0
    7.3176   -0.9213    0.7024 O   0  0  0  0  0  0  0  0  0  0  0  0
    7.4551   -2.8238    2.1364 C   0  0  0  0  0  0  0  0  0  0  0  0
    8.8217   -2.8368    2.2713 C   0  0  0  0  0  0  0  0  0  0  0  0
    9.2931   -4.1417    3.2900 S   0  0  0  0  0  0  0  0  0  0  0  0
    7.5952   -4.5926    3.4715 C   0  0  0  0  0  0  0  0  0  0  0  0
    7.1867   -5.7341    4.2882 C   0  0  0  0  0  0  0  0  0  0  0  0
    8.0762   -6.6050    5.0073 C   0  0  0  0  0  0  0  0  0  0  0  0
    7.4158   -7.5910    5.6888 C   0  0  0  0  0  0  0  0  0  0  0  0
    5.7016   -7.4796    5.4694 S   0  0  0  0  0  0  0  0  0  0  0  0
    5.8645   -6.0998    4.4554 C   0  0  0  0  0  0  0  0  0  0  0  0
    6.7832   -3.8095    2.8116 N   0  0  0  0  0  0  0  0  0  0  0  0
    4.5730   -0.5783   -3.2304 H   0  0  0  0  0  0  0  0  0  0  0  0
    5.6148   -0.8830   -1.2350 H   0  0  0  0  0  0  0  0  0  0  0  0
    4.4292   -2.2011   -1.2281 H   0  0  0  0  0  0  0  0  0  0  0  0
    3.4660   -1.2260    0.9311 H   0  0  0  0  0  0  0  0  0  0  0  0
    4.7451   -0.0040    0.9013 H   0  0  0  0  0  0  0  0  0  0  0  0
    5.0003   -2.7227    1.8562 H   0  0  0  0  0  0  0  0  0  0  0  0
    9.5311   -2.1456    1.8217 H   0  0  0  0  0  0  0  0  0  0  0  0
    9.1624   -6.4998    5.0149 H   0  0  0  0  0  0  0  0  0  0  0  0
    7.8412   -8.3786    6.3088 H   0  0  0  0  0  0  0  0  0  0  0  0
    4.9944   -5.6101    4.0233 H   0  0  0  0  0  0  0  0  0  0  0  0
  1  2  2  0
  2  3  1  0
  2  4  1  0
  3 19  1  0
  4  5  1  0
  4 20  1  0
  4 21  1  0
  5  6  1  0
  5 22  1  0
  5 23  1  0
  6  7  1  0
  6 24  1  0
  7  8  2  0
  7  9  1  0
  9 10  2  0
  9 18  1  0
 10 11  1  0
 10 25  1  0
 11 12  1  0
 12 13  1  0
 12 18  2  0
 13 14  1  0
 13 17  2  0
 14 15  2  0
 14 26  1  0
 15 16  1  0
 15 27  1  0
 16 17  1  0
 17 28  1  0
M  END

