
     RDKit          3D

 36 38  0  0  0  0  0  0  0  0999 V2000
    0.9295    0.3081   -0.1468 C   0  0  0  0  0  0  0  0  0  0  0  0
    2.0866   -0.1903    0.4886 O   0  0  0  0  0  0  0  0  0  0  0  0
    2.8284    0.6350    1.2545 C   0  0  0  0  0  0  0  0  0  0  0  0
    2.5452    1.9897    1.4811 C   0  0  0  0  0  0  0  0  0  0  0  0
    3.3764    2.7641    2.2926 C   0  0  0  0  0  0  0  0  0  0  0  0
    4.5192    2.2268    2.9104 C   0  0  0  0  0  0  0  0  0  0  0  0
    5.3522    3.0863    3.7491 C   0  0  0  0  0  0  0  0  0  0  0  0
    6.4781    2.7501    4.4165 C   0  0  0  0  0  0  0  0  0  0  0  0
    7.2452    3.6958    5.2378 C   0  0  0  0  0  0  0  0  0  0  0  0
    8.4257    3.2489    5.9103 C   0  0  0  0  0  0  0  0  0  0  0  0
    9.1432    4.1334    6.6794 C   0  0  0  0  0  0  0  0  0  0  0  0
    8.7095    5.4814    6.8015 C   0  0  0  0  0  0  0  0  0  0  0  0
    9.3957    6.4548    7.5765 C   0  0  0  0  0  0  0  0  0  0  0  0
    8.9084    7.7429    7.6427 C   0  0  0  0  0  0  0  0  0  0  0  0
    7.7303    8.1090    6.9472 C   0  0  0  0  0  0  0  0  0  0  0  0
    7.0360    7.1862    6.1822 C   0  0  0  0  0  0  0  0  0  0  0  0
    5.9088    7.4879    5.5020 O   0  0  0  0  0  0  0  0  0  0  0  0
    7.5138    5.8310    6.0883 C   0  0  0  0  0  0  0  0  0  0  0  0
    6.8231    4.9490    5.3384 N   0  0  0  0  0  0  0  0  0  0  0  0
    4.7991    0.8614    2.6780 C   0  0  0  0  0  0  0  0  0  0  0  0
    3.9785    0.0859    1.8731 C   0  0  0  0  0  0  0  0  0  0  0  0
    4.3585   -1.5977    1.6101 Cl  0  0  0  0  0  0  0  0  0  0  0  0
    0.4967   -0.5324   -0.7051 H   0  0  0  0  0  0  0  0  0  0  0  0
    1.1687    1.1232   -0.8529 H   0  0  0  0  0  0  0  0  0  0  0  0
    0.1865    0.6743    0.5841 H   0  0  0  0  0  0  0  0  0  0  0  0
    1.6701    2.4504    1.0224 H   0  0  0  0  0  0  0  0  0  0  0  0
    3.1318    3.8173    2.4520 H   0  0  0  0  0  0  0  0  0  0  0  0
    5.0254    4.1267    3.8494 H   0  0  0  0  0  0  0  0  0  0  0  0
    6.8743    1.7312    4.3704 H   0  0  0  0  0  0  0  0  0  0  0  0
    8.7455    2.2094    5.8058 H   0  0  0  0  0  0  0  0  0  0  0  0
   10.0489    3.8140    7.2024 H   0  0  0  0  0  0  0  0  0  0  0  0
   10.3044    6.1694    8.1122 H   0  0  0  0  0  0  0  0  0  0  0  0
    9.4286    8.4991    8.2358 H   0  0  0  0  0  0  0  0  0  0  0  0
    7.3598    9.1371    7.0136 H   0  0  0  0  0  0  0  0  0  0  0  0
    5.7000    8.4215    5.6400 H   0  0  0  0  0  0  0  0  0  0  0  0
    5.6708    0.3855    3.1286 H   0  0  0  0  0  0  0  0  0  0  0  0
  1  2  1  0
  1 23  1  0
  1 24  1  0
  1 25  1  0
  2  3  1  0
  3  4  2  0
  3 21  1  0
  4  5  1  0
  4 26  1  0
  5  6  2  0
  5 27  1  0
  6  7  1  0
  6 20  1  0
  7  8  2  0
  7 28  1  0
  8  9  1  0
  8 29  1  0
  9 10  2  0
  9 19  1  0
 10 11  1  0
 10 30  1  0
 11 12  2  0
 11 31  1  0
 12 13  1  0
 12 18  1  0
 13 14  2  0
 13 32  1  0
 14 15  1  0
 14 33  1  0
 15 16  2  0
 15 34  1  0
 16 17  1  0
 16 18  1  0
 17 35  1  0
 18 19  2  0
 20 21  2  0
 20 36  1  0
 21 22  1  0
M  END

