
     RDKit          3D

 90100  0  0  0  0  0  0  0  0999 V2000
    7.3659    7.8151   -1.0751 C   0  0  0  0  0  0  0  0  0  0  0  0
    8.3818    7.3060   -0.2364 O   0  0  0  0  0  0  0  0  0  0  0  0
    8.0852    6.3468    0.6675 C   0  0  0  0  0  0  0  0  0  0  0  0
    6.8059    5.7902    0.8471 C   0  0  0  0  0  0  0  0  0  0  0  0
    6.6080    4.8035    1.8112 C   0  0  0  0  0  0  0  0  0  0  0  0
    7.6707    4.3528    2.6117 C   0  0  0  0  0  0  0  0  0  0  0  0
    7.4268    3.3222    3.6096 C   0  0  0  0  0  0  0  0  0  0  0  0
    6.3151    2.6938    3.8758 N   0  0  0  0  0  0  0  0  0  0  0  0
    6.5850    1.8153    4.8966 N   0  0  0  0  0  0  0  0  0  0  0  0
    7.8444    1.9446    5.1897 C   0  0  0  0  0  0  0  0  0  0  0  0
    8.6320    1.3087    6.2469 C   0  0  0  0  0  0  0  0  0  0  0  0
    9.7303    2.0164    6.7576 C   0  0  0  0  0  0  0  0  0  0  0  0
   10.4885    1.5609    7.8421 C   0  0  0  0  0  0  0  0  0  0  0  0
   11.5842    2.3413    8.2803 N   0  0  0  0  0  0  0  0  0  0  0  0
   11.5135    3.6920    8.6528 C   0  0  0  0  0  0  0  0  0  0  0  0
   10.3939    4.5211    8.7954 C   0  0  0  0  0  0  0  0  0  0  0  0
   10.6045    5.8372    9.2125 C   0  0  0  0  0  0  0  0  0  0  0  0
   11.8967    6.3206    9.4863 C   0  0  0  0  0  0  0  0  0  0  0  0
   13.0078    5.4887    9.3497 C   0  0  0  0  0  0  0  0  0  0  0  0
   12.8234    4.1639    8.9302 C   0  0  0  0  0  0  0  0  0  0  0  0
   13.7285    3.0559    8.6919 C   0  0  0  0  0  0  0  0  0  0  0  0
   15.1219    2.9175    8.7627 C   0  0  0  0  0  0  0  0  0  0  0  0
   15.7007    1.6968    8.4190 C   0  0  0  0  0  0  0  0  0  0  0  0
   14.8997    0.6201    7.9967 C   0  0  0  0  0  0  0  0  0  0  0  0
   13.5107    0.7324    7.9196 C   0  0  0  0  0  0  0  0  0  0  0  0
   12.9331    1.9527    8.2846 C   0  0  0  0  0  0  0  0  0  0  0  0
   10.1206    0.3402    8.4631 C   0  0  0  0  0  0  0  0  0  0  0  0
   10.8063   -0.1793    9.5849 N   0  0  0  0  0  0  0  0  0  0  0  0
   11.3881   -1.4547    9.6551 C   0  0  0  0  0  0  0  0  0  0  0  0
   11.5190   -2.4322    8.6612 C   0  0  0  0  0  0  0  0  0  0  0  0
   12.1769   -3.6183    8.9941 C   0  0  0  0  0  0  0  0  0  0  0  0
   12.6975   -3.8297   10.2834 C   0  0  0  0  0  0  0  0  0  0  0  0
   12.5705   -2.8500   11.2678 C   0  0  0  0  0  0  0  0  0  0  0  0
   11.9127   -1.6514   10.9594 C   0  0  0  0  0  0  0  0  0  0  0  0
   11.6120   -0.4528   11.7189 C   0  0  0  0  0  0  0  0  0  0  0  0
   11.8400   -0.0729   13.0489 C   0  0  0  0  0  0  0  0  0  0  0  0
   11.3724    1.1638   13.4911 C   0  0  0  0  0  0  0  0  0  0  0  0
   10.6706    2.0154   12.6187 C   0  0  0  0  0  0  0  0  0  0  0  0
   10.4323    1.6603   11.2901 C   0  0  0  0  0  0  0  0  0  0  0  0
   10.9225    0.4284   10.8453 C   0  0  0  0  0  0  0  0  0  0  0  0
    9.0491   -0.3858    7.9298 C   0  0  0  0  0  0  0  0  0  0  0  0
    8.3117    0.0509    6.8204 C   0  0  0  0  0  0  0  0  0  0  0  0
    7.2651   -0.8596    6.3441 C   0  0  0  0  0  0  0  0  0  0  0  0
    6.5971   -1.7142    7.0634 N   0  0  0  0  0  0  0  0  0  0  0  0
    5.7955   -2.4209    6.2024 N   0  0  0  0  0  0  0  0  0  0  0  0
    6.0305   -1.9611    5.0042 C   0  0  0  0  0  0  0  0  0  0  0  0
    5.4367   -2.3735    3.7414 C   0  0  0  0  0  0  0  0  0  0  0  0
    4.5691   -3.4860    3.7126 C   0  0  0  0  0  0  0  0  0  0  0  0
    3.9912   -3.8955    2.5218 C   0  0  0  0  0  0  0  0  0  0  0  0
    4.2615   -3.2047    1.3234 C   0  0  0  0  0  0  0  0  0  0  0  0
    3.6514   -3.6803    0.2139 O   0  0  0  0  0  0  0  0  0  0  0  0
    3.8672   -3.0442   -1.0271 C   0  0  0  0  0  0  0  0  0  0  0  0
    5.1203   -2.0933    1.3442 C   0  0  0  0  0  0  0  0  0  0  0  0
    5.6990   -1.6859    2.5477 C   0  0  0  0  0  0  0  0  0  0  0  0
    6.9663   -0.9757    5.0267 O   0  0  0  0  0  0  0  0  0  0  0  0
    8.4398    2.8955    4.4110 O   0  0  0  0  0  0  0  0  0  0  0  0
    8.9497    4.9152    2.4249 C   0  0  0  0  0  0  0  0  0  0  0  0
    9.1540    5.8977    1.4668 C   0  0  0  0  0  0  0  0  0  0  0  0
    7.8397    8.5730   -1.7126 H   0  0  0  0  0  0  0  0  0  0  0  0
    6.5558    8.2908   -0.4942 H   0  0  0  0  0  0  0  0  0  0  0  0
    6.9316    7.0278   -1.7165 H   0  0  0  0  0  0  0  0  0  0  0  0
    5.9606    6.1197    0.2432 H   0  0  0  0  0  0  0  0  0  0  0  0
    5.6174    4.3687    1.9571 H   0  0  0  0  0  0  0  0  0  0  0  0
   10.0067    2.9658    6.2995 H   0  0  0  0  0  0  0  0  0  0  0  0
    9.3849    4.1583    8.5917 H   0  0  0  0  0  0  0  0  0  0  0  0
    9.7446    6.5017    9.3287 H   0  0  0  0  0  0  0  0  0  0  0  0
   12.0282    7.3554    9.8110 H   0  0  0  0  0  0  0  0  0  0  0  0
   14.0108    5.8633    9.5687 H   0  0  0  0  0  0  0  0  0  0  0  0
   15.7450    3.7585    9.0772 H   0  0  0  0  0  0  0  0  0  0  0  0
   16.7851    1.5745    8.4714 H   0  0  0  0  0  0  0  0  0  0  0  0
   15.3704   -0.3274    7.7232 H   0  0  0  0  0  0  0  0  0  0  0  0
   12.9061   -0.1101    7.5848 H   0  0  0  0  0  0  0  0  0  0  0  0
   11.1203   -2.2826    7.6565 H   0  0  0  0  0  0  0  0  0  0  0  0
   12.2855   -4.3966    8.2347 H   0  0  0  0  0  0  0  0  0  0  0  0
   13.2051   -4.7695   10.5129 H   0  0  0  0  0  0  0  0  0  0  0  0
   12.9792   -3.0132   12.2681 H   0  0  0  0  0  0  0  0  0  0  0  0
   12.3705   -0.7421   13.7310 H   0  0  0  0  0  0  0  0  0  0  0  0
   11.5435    1.4725   14.5250 H   0  0  0  0  0  0  0  0  0  0  0  0
   10.3008    2.9764   12.9846 H   0  0  0  0  0  0  0  0  0  0  0  0
    9.8777    2.3276   10.6311 H   0  0  0  0  0  0  0  0  0  0  0  0
    8.7674   -1.3314    8.3937 H   0  0  0  0  0  0  0  0  0  0  0  0
    4.3613   -4.0176    4.6430 H   0  0  0  0  0  0  0  0  0  0  0  0
    3.3189   -4.7546    2.4829 H   0  0  0  0  0  0  0  0  0  0  0  0
    3.2785   -3.5999   -1.7690 H   0  0  0  0  0  0  0  0  0  0  0  0
    4.9316   -3.0705   -1.3218 H   0  0  0  0  0  0  0  0  0  0  0  0
    3.5268   -1.9934   -1.0140 H   0  0  0  0  0  0  0  0  0  0  0  0
    5.3400   -1.5354    0.4342 H   0  0  0  0  0  0  0  0  0  0  0  0
    6.3528   -0.8122    2.5611 H   0  0  0  0  0  0  0  0  0  0  0  0
    9.7865    4.5748    3.0375 H   0  0  0  0  0  0  0  0  0  0  0  0
   10.1388    6.3422    1.3115 H   0  0  0  0  0  0  0  0  0  0  0  0
  1  2  1  0
  1 59  1  0
  1 60  1  0
  1 61  1  0
  2  3  1  0
  3  4  2  0
  3 58  1  0
  4  5  1  0
  4 62  1  0
  5  6  2  0
  5 63  1  0
  6  7  1  0
  6 57  1  0
  7  8  2  0
  7 56  1  0
  8  9  1  0
  9 10  2  0
 10 11  1  0
 10 56  1  0
 11 12  2  0
 11 42  1  0
 12 13  1  0
 12 64  1  0
 13 14  1  0
 13 27  2  0
 14 15  1  0
 14 26  1  0
 15 16  2  0
 15 20  1  0
 16 17  1  0
 16 65  1  0
 17 18  2  0
 17 66  1  0
 18 19  1  0
 18 67  1  0
 19 20  2  0
 19 68  1  0
 20 21  1  0
 21 22  1  0
 21 26  2  0
 22 23  2  0
 22 69  1  0
 23 24  1  0
 23 70  1  0
 24 25  2  0
 24 71  1  0
 25 26  1  0
 25 72  1  0
 27 28  1  0
 27 41  1  0
 28 29  1  0
 28 40  1  0
 29 30  2  0
 29 34  1  0
 30 31  1  0
 30 73  1  0
 31 32  2  0
 31 74  1  0
 32 33  1  0
 32 75  1  0
 33 34  2  0
 33 76  1  0
 34 35  1  0
 35 36  1  0
 35 40  2  0
 36 37  2  0
 36 77  1  0
 37 38  1  0
 37 78  1  0
 38 39  2  0
 38 79  1  0
 39 40  1  0
 39 80  1  0
 41 42  2  0
 41 81  1  0
 42 43  1  0
 43 44  2  0
 43 55  1  0
 44 45  1  0
 45 46  2  0
 46 47  1  0
 46 55  1  0
 47 48  2  0
 47 54  1  0
 48 49  1  0
 48 82  1  0
 49 50  2  0
 49 83  1  0
 50 51  1  0
 50 53  1  0
 51 52  1  0
 52 84  1  0
 52 85  1  0
 52 86  1  0
 53 54  2  0
 53 87  1  0
 54 88  1  0
 57 58  2  0
 57 89  1  0
 58 90  1  0
M  END

