
     RDKit          3D

 44 46  0  0  0  0  0  0  0  0999 V2000
    0.9332    0.0443   -0.3947 C   0  0  0  0  0  0  0  0  0  0  0  0
    2.2933    0.0300   -1.0813 C   0  0  0  0  0  0  0  0  0  0  0  0
    2.5066    0.7040   -2.0703 O   0  0  0  0  0  0  0  0  0  0  0  0
    3.2237   -0.7892   -0.4728 N   0  0  0  0  0  0  0  0  0  0  0  0
    4.5727   -1.0270   -0.8145 C   0  0  0  0  0  0  0  0  0  0  0  0
    5.2064   -0.3066   -1.8413 C   0  0  0  0  0  0  0  0  0  0  0  0
    6.5447   -0.5753   -2.1143 C   0  0  0  0  0  0  0  0  0  0  0  0
    7.2651   -1.5190   -1.3866 C   0  0  0  0  0  0  0  0  0  0  0  0
    6.6458   -2.2387   -0.3401 C   0  0  0  0  0  0  0  0  0  0  0  0
    5.2684   -2.0129   -0.0728 C   0  0  0  0  0  0  0  0  0  0  0  0
    4.5585   -2.8316    0.9896 C   0  0  0  0  0  0  0  0  0  0  0  0
    5.2961   -4.1381    1.2809 C   0  0  0  0  0  0  0  0  0  0  0  0
    6.7708   -3.8667    1.5296 C   0  0  0  0  0  0  0  0  0  0  0  0
    7.3783   -3.1744    0.4013 N   0  0  0  0  0  0  0  0  0  0  0  0
    8.8265   -3.1860    0.3576 C   0  0  0  0  0  0  0  0  0  0  0  0
    9.4523   -4.1141   -0.6793 C   0  0  0  0  0  0  0  0  0  0  0  0
   10.8437   -4.2943   -0.7078 C   0  0  0  0  0  0  0  0  0  0  0  0
   11.4350   -5.1518   -1.6393 C   0  0  0  0  0  0  0  0  0  0  0  0
   10.6456   -5.8382   -2.5631 C   0  0  0  0  0  0  0  0  0  0  0  0
    9.2569   -5.6501   -2.5659 C   0  0  0  0  0  0  0  0  0  0  0  0
    8.4424   -6.4049   -3.5809 C   0  0  0  0  0  0  0  0  0  0  0  0
    8.8425   -7.3860   -4.1503 O   0  0  0  0  0  0  0  0  0  0  0  0
    7.2064   -5.9194   -3.8387 O   0  0  0  0  0  0  0  0  0  0  0  0
    8.6715   -4.7997   -1.6141 C   0  0  0  0  0  0  0  0  0  0  0  0
    0.7625    1.0472    0.0274 H   0  0  0  0  0  0  0  0  0  0  0  0
    0.8176   -0.7027    0.4048 H   0  0  0  0  0  0  0  0  0  0  0  0
    0.1585   -0.1202   -1.1576 H   0  0  0  0  0  0  0  0  0  0  0  0
    2.8930   -1.2735    0.3498 H   0  0  0  0  0  0  0  0  0  0  0  0
    4.6436    0.4337   -2.4021 H   0  0  0  0  0  0  0  0  0  0  0  0
    7.0447   -0.0298   -2.9189 H   0  0  0  0  0  0  0  0  0  0  0  0
    8.3064   -1.7053   -1.6458 H   0  0  0  0  0  0  0  0  0  0  0  0
    3.5326   -3.0752    0.6633 H   0  0  0  0  0  0  0  0  0  0  0  0
    4.4555   -2.2528    1.9286 H   0  0  0  0  0  0  0  0  0  0  0  0
    5.1934   -4.8230    0.4221 H   0  0  0  0  0  0  0  0  0  0  0  0
    4.8595   -4.6460    2.1551 H   0  0  0  0  0  0  0  0  0  0  0  0
    7.3063   -4.8175    1.6822 H   0  0  0  0  0  0  0  0  0  0  0  0
    6.8891   -3.2800    2.4668 H   0  0  0  0  0  0  0  0  0  0  0  0
    9.1970   -3.4800    1.3542 H   0  0  0  0  0  0  0  0  0  0  0  0
    9.2103   -2.1625    0.1985 H   0  0  0  0  0  0  0  0  0  0  0  0
   11.4723   -3.7629    0.0137 H   0  0  0  0  0  0  0  0  0  0  0  0
   12.5194   -5.2880   -1.6410 H   0  0  0  0  0  0  0  0  0  0  0  0
   11.0832   -6.5215   -3.2931 H   0  0  0  0  0  0  0  0  0  0  0  0
    7.0868   -5.0552   -3.4193 H   0  0  0  0  0  0  0  0  0  0  0  0
    7.5874   -4.6714   -1.5598 H   0  0  0  0  0  0  0  0  0  0  0  0
  1  2  1  0
  1 25  1  0
  1 26  1  0
  1 27  1  0
  2  3  2  0
  2  4  1  0
  4  5  1  0
  4 28  1  0
  5  6  2  0
  5 10  1  0
  6  7  1  0
  6 29  1  0
  7  8  2  0
  7 30  1  0
  8  9  1  0
  8 31  1  0
  9 10  2  0
  9 14  1  0
 10 11  1  0
 11 12  1  0
 11 32  1  0
 11 33  1  0
 12 13  1  0
 12 34  1  0
 12 35  1  0
 13 14  1  0
 13 36  1  0
 13 37  1  0
 14 15  1  0
 15 16  1  0
 15 38  1  0
 15 39  1  0
 16 17  2  0
 16 24  1  0
 17 18  1  0
 17 40  1  0
 18 19  2  0
 18 41  1  0
 19 20  1  0
 19 42  1  0
 20 21  1  0
 20 24  2  0
 21 22  2  0
 21 23  1  0
 23 43  1  0
 24 44  1  0
M  END

