
     RDKit          3D

 49 52  0  0  0  0  0  0  0  0999 V2000
    2.8575   -9.7308   -0.8759 C   0  0  0  0  0  0  0  0  0  0  0  0
    3.3544   -8.3467   -1.1694 C   0  0  0  0  0  0  0  0  0  0  0  0
    2.6008   -7.3154   -1.6583 C   0  0  0  0  0  0  0  0  0  0  0  0
    3.5810   -5.8797   -1.8372 S   0  0  0  0  0  0  0  0  0  0  0  0
    4.9657   -6.8160   -1.2426 C   0  0  0  0  0  0  0  0  0  0  0  0
    6.2197   -6.2682   -1.1493 N   0  0  0  0  0  0  0  0  0  0  0  0
    7.2431   -6.9904   -0.3937 C   0  0  0  0  0  0  0  0  0  0  0  0
    8.6264   -6.7183   -0.9812 C   0  0  0  0  0  0  0  0  0  0  0  0
    8.8848   -5.2812   -1.1348 N   0  0  0  0  0  0  0  0  0  0  0  0
    9.6151   -4.4484    0.1425 S   0  0  1  0  0  0  0  0  0  0  0  0
    8.6740   -3.4806    0.7240 O   0  0  0  0  0  0  0  0  0  0  0  0
   10.2632   -5.4633    0.9746 O   0  0  0  0  0  0  0  0  0  0  0  0
   10.8528   -3.4893   -0.6629 C   0  0  0  0  0  0  0  0  0  0  0  0
   11.9929   -3.9109   -1.3890 C   0  0  0  0  0  0  0  0  0  0  0  0
   12.7165   -2.8662   -1.7665 N   0  0  0  0  0  0  0  0  0  0  0  0
   12.0737   -1.7782   -1.2942 N   0  0  0  0  0  0  0  0  0  0  0  0
   12.5923   -0.4186   -1.5097 C   0  0  1  0  0  0  0  0  0  0  0  0
   13.9611   -0.1921   -0.8353 C   0  0  0  0  0  0  0  0  0  0  0  0
   15.1305   -0.7076   -1.6802 C   0  0  0  0  0  0  0  0  0  0  0  0
   15.0872   -0.1731   -2.9904 O   0  0  0  0  0  0  0  0  0  0  0  0
   13.9224   -0.5628   -3.6933 C   0  0  0  0  0  0  0  0  0  0  0  0
   12.6593   -0.0375   -3.0028 C   0  0  0  0  0  0  0  0  0  0  0  0
   10.9461   -2.1051   -0.6199 C   0  0  0  0  0  0  0  0  0  0  0  0
    7.8379   -4.5774   -1.8784 C   0  0  0  0  0  0  0  0  0  0  0  0
    6.4427   -4.8370   -1.2988 C   0  0  0  0  0  0  0  0  0  0  0  0
    4.6804   -8.0510   -0.9352 N   0  0  0  0  0  0  0  0  0  0  0  0
    1.7874   -9.8330   -1.1052 H   0  0  0  0  0  0  0  0  0  0  0  0
    3.0149   -9.9801    0.1865 H   0  0  0  0  0  0  0  0  0  0  0  0
    3.4164  -10.4760   -1.4657 H   0  0  0  0  0  0  0  0  0  0  0  0
    1.5437   -7.3044   -1.9153 H   0  0  0  0  0  0  0  0  0  0  0  0
    7.0013   -8.0600   -0.4322 H   0  0  0  0  0  0  0  0  0  0  0  0
    7.2273   -6.6778    0.6698 H   0  0  0  0  0  0  0  0  0  0  0  0
    8.7036   -7.1709   -1.9850 H   0  0  0  0  0  0  0  0  0  0  0  0
    9.4059   -7.1526   -0.3434 H   0  0  0  0  0  0  0  0  0  0  0  0
   12.3003   -4.9244   -1.6425 H   0  0  0  0  0  0  0  0  0  0  0  0
   11.8483    0.2246   -1.0167 H   0  0  0  0  0  0  0  0  0  0  0  0
   13.9711   -0.6492    0.1675 H   0  0  0  0  0  0  0  0  0  0  0  0
   14.0820    0.8960   -0.7017 H   0  0  0  0  0  0  0  0  0  0  0  0
   15.1210   -1.8125   -1.7116 H   0  0  0  0  0  0  0  0  0  0  0  0
   16.0861   -0.3840   -1.2397 H   0  0  0  0  0  0  0  0  0  0  0  0
   13.8759   -1.6632   -3.7872 H   0  0  0  0  0  0  0  0  0  0  0  0
   14.0061   -0.1340   -4.7038 H   0  0  0  0  0  0  0  0  0  0  0  0
   11.7538   -0.3861   -3.5257 H   0  0  0  0  0  0  0  0  0  0  0  0
   12.6664    1.0641   -3.0574 H   0  0  0  0  0  0  0  0  0  0  0  0
   10.2937   -1.3709   -0.1535 H   0  0  0  0  0  0  0  0  0  0  0  0
    7.8781   -4.9320   -2.9229 H   0  0  0  0  0  0  0  0  0  0  0  0
    8.0481   -3.4988   -1.8811 H   0  0  0  0  0  0  0  0  0  0  0  0
    5.6897   -4.4191   -1.9839 H   0  0  0  0  0  0  0  0  0  0  0  0
    6.3514   -4.3147   -0.3270 H   0  0  0  0  0  0  0  0  0  0  0  0
  1  2  1  0
  1 27  1  0
  1 28  1  0
  1 29  1  0
  2  3  2  0
  2 26  1  0
  3  4  1  0
  3 30  1  0
  4  5  1  0
  5  6  1  0
  5 26  2  0
  6  7  1  0
  6 25  1  0
  7  8  1  0
  7 31  1  0
  7 32  1  0
  8  9  1  0
  8 33  1  0
  8 34  1  0
  9 10  1  0
  9 24  1  0
 10 11  2  0
 10 12  2  0
 10 13  1  6
 13 14  1  0
 13 23  2  0
 14 15  2  0
 14 35  1  0
 15 16  1  0
 16 17  1  0
 16 23  1  0
 17 18  1  0
 17 22  1  0
 17 36  1  1
 18 19  1  0
 18 37  1  0
 18 38  1  0
 19 20  1  0
 19 39  1  0
 19 40  1  0
 20 21  1  0
 21 22  1  0
 21 41  1  0
 21 42  1  0
 22 43  1  0
 22 44  1  0
 23 45  1  0
 24 25  1  0
 24 46  1  0
 24 47  1  0
 25 48  1  0
 25 49  1  0
M  END

