
     RDKit          3D

 63 66  0  0  0  0  0  0  0  0999 V2000
    0.0056   -2.7062   -0.4096 C   0  0  0  0  0  0  0  0  0  0  0  0
    0.9359   -2.3267   -1.5619 C   0  0  0  0  0  0  0  0  0  0  0  0
    2.1676   -3.2104   -1.6802 C   0  0  0  0  0  0  0  0  0  0  0  0
    2.9384   -3.0900   -0.4765 O   0  0  0  0  0  0  0  0  0  0  0  0
    4.0663   -3.8590   -0.3930 C   0  0  0  0  0  0  0  0  0  0  0  0
    4.1099   -4.9235    0.5156 C   0  0  0  0  0  0  0  0  0  0  0  0
    5.2533   -5.7123    0.6414 C   0  0  0  0  0  0  0  0  0  0  0  0
    6.3796   -5.4635   -0.1553 C   0  0  0  0  0  0  0  0  0  0  0  0
    7.6518   -6.3028   -0.0062 C   0  0  1  0  0  0  0  0  0  0  0  0
    8.3004   -6.1118    1.3485 C   0  0  0  0  0  0  0  0  0  0  0  0
    8.8527   -5.1841    2.2825 C   0  0  0  0  0  0  0  0  0  0  0  0
    9.1348   -3.7429    2.1618 C   0  0  0  0  0  0  0  0  0  0  0  0
    9.1596   -3.1009    0.9148 C   0  0  0  0  0  0  0  0  0  0  0  0
    9.4413   -1.7357    0.8139 C   0  0  0  0  0  0  0  0  0  0  0  0
    9.7090   -0.9624    1.9517 C   0  0  0  0  0  0  0  0  0  0  0  0
   10.0089    0.5132    1.8538 C   0  0  0  0  0  0  0  0  0  0  0  0
    9.6890   -1.6114    3.1997 C   0  0  0  0  0  0  0  0  0  0  0  0
    9.4095   -2.9704    3.3070 C   0  0  0  0  0  0  0  0  0  0  0  0
    9.1444   -5.8327    3.4248 N   0  0  0  0  0  0  0  0  0  0  0  0
    8.7921   -7.1127    3.2452 N   0  0  0  0  0  0  0  0  0  0  0  0
    8.9373   -7.7894    3.9853 H   0  0  0  0  0  0  0  0  0  0  0  0
    8.2853   -7.3121    2.0099 C   0  0  0  0  0  0  0  0  0  0  0  0
    7.7384   -8.3993    1.1772 C   0  0  0  0  0  0  0  0  0  0  0  0
    7.6124   -9.5787    1.4619 O   0  0  0  0  0  0  0  0  0  0  0  0
    7.4149   -7.7743   -0.0227 N   0  0  0  0  0  0  0  0  0  0  0  0
    6.9993   -8.5659   -1.2237 C   0  0  1  0  0  0  0  0  0  0  0  0
    5.6475   -9.2493   -0.9365 C   0  0  0  0  0  0  0  0  0  0  0  0
    6.8528   -7.6580   -2.4551 C   0  0  0  0  0  0  0  0  0  0  0  0
    8.0830   -9.6214   -1.5306 C   0  0  0  0  0  0  0  0  0  0  0  0
    6.3386   -4.3951   -1.0577 C   0  0  0  0  0  0  0  0  0  0  0  0
    5.2048   -3.5837   -1.1779 C   0  0  0  0  0  0  0  0  0  0  0  0
    5.2163   -2.5580   -2.0855 O   0  0  0  0  0  0  0  0  0  0  0  0
    5.2349   -1.2447   -1.5343 C   0  0  0  0  0  0  0  0  0  0  0  0
   -0.8665   -2.0351   -0.3631 H   0  0  0  0  0  0  0  0  0  0  0  0
    0.5335   -2.6472    0.5540 H   0  0  0  0  0  0  0  0  0  0  0  0
   -0.3711   -3.7368   -0.5233 H   0  0  0  0  0  0  0  0  0  0  0  0
    1.2644   -1.2784   -1.4529 H   0  0  0  0  0  0  0  0  0  0  0  0
    0.3968   -2.3829   -2.5240 H   0  0  0  0  0  0  0  0  0  0  0  0
    2.7816   -2.9163   -2.5482 H   0  0  0  0  0  0  0  0  0  0  0  0
    1.8745   -4.2697   -1.8133 H   0  0  0  0  0  0  0  0  0  0  0  0
    3.2226   -5.1156    1.1228 H   0  0  0  0  0  0  0  0  0  0  0  0
    5.2652   -6.5345    1.3603 H   0  0  0  0  0  0  0  0  0  0  0  0
    8.3434   -6.0332   -0.8208 H   0  0  0  0  0  0  0  0  0  0  0  0
    8.9713   -3.6727    0.0053 H   0  0  0  0  0  0  0  0  0  0  0  0
    9.4602   -1.2651   -0.1735 H   0  0  0  0  0  0  0  0  0  0  0  0
   10.0325    0.8541    0.8081 H   0  0  0  0  0  0  0  0  0  0  0  0
   10.9834    0.7561    2.3097 H   0  0  0  0  0  0  0  0  0  0  0  0
    9.2499    1.1126    2.3852 H   0  0  0  0  0  0  0  0  0  0  0  0
    9.8963   -1.0355    4.1069 H   0  0  0  0  0  0  0  0  0  0  0  0
    9.3992   -3.4580    4.2832 H   0  0  0  0  0  0  0  0  0  0  0  0
    4.8652   -8.4967   -0.7529 H   0  0  0  0  0  0  0  0  0  0  0  0
    5.7239   -9.9036   -0.0579 H   0  0  0  0  0  0  0  0  0  0  0  0
    5.3405   -9.8593   -1.8009 H   0  0  0  0  0  0  0  0  0  0  0  0
    6.0762   -6.8934   -2.3247 H   0  0  0  0  0  0  0  0  0  0  0  0
    6.5667   -8.2837   -3.3136 H   0  0  0  0  0  0  0  0  0  0  0  0
    7.7980   -7.1585   -2.7177 H   0  0  0  0  0  0  0  0  0  0  0  0
    8.2155  -10.3121   -0.6888 H   0  0  0  0  0  0  0  0  0  0  0  0
    9.0481   -9.1331   -1.7418 H   0  0  0  0  0  0  0  0  0  0  0  0
    7.7949  -10.2040   -2.4197 H   0  0  0  0  0  0  0  0  0  0  0  0
    7.1909   -4.1638   -1.7015 H   0  0  0  0  0  0  0  0  0  0  0  0
    6.1409   -1.0878   -0.9223 H   0  0  0  0  0  0  0  0  0  0  0  0
    4.3446   -1.0521   -0.9138 H   0  0  0  0  0  0  0  0  0  0  0  0
    5.2486   -0.5454   -2.3820 H   0  0  0  0  0  0  0  0  0  0  0  0
  1  2  1  0
  1 34  1  0
  1 35  1  0
  1 36  1  0
  2  3  1  0
  2 37  1  0
  2 38  1  0
  3  4  1  0
  3 39  1  0
  3 40  1  0
  4  5  1  0
  5  6  2  0
  5 31  1  0
  6  7  1  0
  6 41  1  0
  7  8  2  0
  7 42  1  0
  8  9  1  0
  8 30  1  0
  9 10  1  0
  9 25  1  0
  9 43  1  6
 10 11  1  0
 10 22  2  0
 11 12  1  0
 11 19  2  0
 12 13  2  0
 12 18  1  0
 13 14  1  0
 13 44  1  0
 14 15  2  0
 14 45  1  0
 15 16  1  0
 15 17  1  0
 16 46  1  0
 16 47  1  0
 16 48  1  0
 17 18  2  0
 17 49  1  0
 18 50  1  0
 19 20  1  0
 20 21  1  0
 20 22  1  0
 22 23  1  0
 23 24  2  0
 23 25  1  0
 25 26  1  0
 26 27  1  1
 26 28  1  0
 26 29  1  0
 27 51  1  0
 27 52  1  0
 27 53  1  0
 28 54  1  0
 28 55  1  0
 28 56  1  0
 29 57  1  0
 29 58  1  0
 29 59  1  0
 30 31  2  0
 30 60  1  0
 31 32  1  0
 32 33  1  0
 33 61  1  0
 33 62  1  0
 33 63  1  0
M  END

