
     RDKit          3D

 71 72  0  0  0  0  0  0  0  0999 V2000
    2.8731   -3.1056   -0.2176 C   0  0  0  0  0  0  0  0  0  0  0  0
    2.2675   -2.4716   -1.4746 C   0  0  1  0  0  0  0  0  0  0  0  0
    2.0327   -3.5034   -2.5834 C   0  0  0  0  0  0  0  0  0  0  0  0
    0.9695   -1.7346   -1.1376 C   0  0  0  0  0  0  0  0  0  0  0  0
    3.1349   -1.3980   -1.9628 O   0  0  0  0  0  0  0  0  0  0  0  0
    4.4011   -1.6351   -2.3728 C   0  0  0  0  0  0  0  0  0  0  0  0
    4.9587   -2.7146   -2.3928 O   0  0  0  0  0  0  0  0  0  0  0  0
    4.9829   -0.4618   -2.7642 N   0  0  0  0  0  0  0  0  0  0  0  0
    6.3312   -0.4078   -3.2862 C   0  0  0  0  0  0  0  0  0  0  0  0
    6.3987   -0.6283   -4.7971 C   0  0  0  0  0  0  0  0  0  0  0  0
    7.7392   -0.4917   -5.1963 O   0  0  0  0  0  0  0  0  0  0  0  0
    7.9702   -0.7261   -6.5619 C   0  0  0  0  0  0  0  0  0  0  0  0
    9.4569   -0.5532   -6.8238 C   0  0  0  0  0  0  0  0  0  0  0  0
    9.6892   -0.7852   -8.1905 O   0  0  0  0  0  0  0  0  0  0  0  0
   11.0323   -0.6600   -8.5813 C   0  0  0  0  0  0  0  0  0  0  0  0
   11.1149   -0.9413  -10.0721 C   0  0  0  0  0  0  0  0  0  0  0  0
   12.4601   -0.8219  -10.4653 O   0  0  0  0  0  0  0  0  0  0  0  0
   12.6922   -1.0460  -11.8309 C   0  0  0  0  0  0  0  0  0  0  0  0
   14.1795   -0.8084  -12.0932 C   0  0  0  0  0  0  0  0  0  0  0  0
   14.5676   -1.0828  -13.4649 N   0  0  0  0  0  0  0  0  0  0  0  0
   14.4674   -0.1374  -14.4454 C   0  0  0  0  0  0  0  0  0  0  0  0
   14.0396    0.9873  -14.2368 O   0  0  0  0  0  0  0  0  0  0  0  0
   14.9179   -0.5523  -15.8278 C   0  0  0  0  0  0  0  0  0  0  0  0
   14.4765    0.2322  -16.9037 C   0  0  0  0  0  0  0  0  0  0  0  0
   14.8525   -0.0765  -18.2073 C   0  0  0  0  0  0  0  0  0  0  0  0
   15.7033   -1.1701  -18.4678 C   0  0  0  0  0  0  0  0  0  0  0  0
   16.0829   -1.4937  -19.8633 C   0  0  0  0  0  0  0  0  0  0  0  0
   15.0766   -1.3801  -20.7904 N   0  0  0  0  0  0  0  0  0  0  0  0
   14.1361   -1.1571  -20.4788 H   0  0  0  0  0  0  0  0  0  0  0  0
   15.1902   -1.6083  -22.1505 C   0  0  0  0  0  0  0  0  0  0  0  0
   13.9035   -1.4471  -23.1758 S   0  0  0  0  0  0  0  0  0  0  0  0
   16.4497   -1.9802  -22.5338 N   0  0  0  0  0  0  0  0  0  0  0  0
   16.5856   -2.1626  -23.5258 H   0  0  0  0  0  0  0  0  0  0  0  0
   17.5849   -2.1573  -21.7203 C   0  0  0  0  0  0  0  0  0  0  0  0
   18.6403   -2.5025  -22.1989 O   0  0  0  0  0  0  0  0  0  0  0  0
   17.3416   -1.8709  -20.2902 C   0  0  0  0  0  0  0  0  0  0  0  0
   18.4656   -1.9615  -19.4181 C   0  0  0  0  0  0  0  0  0  0  0  0
   19.3861   -2.0460  -18.7145 N   0  0  0  0  0  0  0  0  0  0  0  0
   16.1648   -1.9419  -17.3879 C   0  0  0  0  0  0  0  0  0  0  0  0
   15.7736   -1.6338  -16.0854 C   0  0  0  0  0  0  0  0  0  0  0  0
    2.1679   -3.8368    0.2075 H   0  0  0  0  0  0  0  0  0  0  0  0
    3.0658   -2.3344    0.5448 H   0  0  0  0  0  0  0  0  0  0  0  0
    3.8159   -3.6167   -0.4501 H   0  0  0  0  0  0  0  0  0  0  0  0
    1.2948   -4.2490   -2.2480 H   0  0  0  0  0  0  0  0  0  0  0  0
    2.9648   -4.0205   -2.8436 H   0  0  0  0  0  0  0  0  0  0  0  0
    1.6346   -3.0121   -3.4853 H   0  0  0  0  0  0  0  0  0  0  0  0
    0.2183   -2.4404   -0.7519 H   0  0  0  0  0  0  0  0  0  0  0  0
    0.5594   -1.2430   -2.0329 H   0  0  0  0  0  0  0  0  0  0  0  0
    1.1494   -0.9637   -0.3729 H   0  0  0  0  0  0  0  0  0  0  0  0
    4.4084    0.3717   -2.7448 H   0  0  0  0  0  0  0  0  0  0  0  0
    6.9317   -1.1825   -2.7879 H   0  0  0  0  0  0  0  0  0  0  0  0
    6.7772    0.5699   -3.0443 H   0  0  0  0  0  0  0  0  0  0  0  0
    5.7516    0.1087   -5.3197 H   0  0  0  0  0  0  0  0  0  0  0  0
    6.0097   -1.6379   -5.0389 H   0  0  0  0  0  0  0  0  0  0  0  0
    7.3990   -0.0182   -7.1974 H   0  0  0  0  0  0  0  0  0  0  0  0
    7.6598   -1.7497   -6.8551 H   0  0  0  0  0  0  0  0  0  0  0  0
   10.0281   -1.2621   -6.1903 H   0  0  0  0  0  0  0  0  0  0  0  0
    9.7677    0.4700   -6.5290 H   0  0  0  0  0  0  0  0  0  0  0  0
   11.6820   -1.3735   -8.0341 H   0  0  0  0  0  0  0  0  0  0  0  0
   11.4218    0.3580   -8.3754 H   0  0  0  0  0  0  0  0  0  0  0  0
   10.4696   -0.2254  -10.6204 H   0  0  0  0  0  0  0  0  0  0  0  0
   10.7226   -1.9584  -10.2778 H   0  0  0  0  0  0  0  0  0  0  0  0
   12.0920   -0.3587  -12.4598 H   0  0  0  0  0  0  0  0  0  0  0  0
   12.4144   -2.0839  -12.1168 H   0  0  0  0  0  0  0  0  0  0  0  0
   14.7722   -1.4428  -11.4158 H   0  0  0  0  0  0  0  0  0  0  0  0
   14.4159    0.2414  -11.8712 H   0  0  0  0  0  0  0  0  0  0  0  0
   14.7865   -2.0368  -13.7211 H   0  0  0  0  0  0  0  0  0  0  0  0
   13.8433    1.0943  -16.6875 H   0  0  0  0  0  0  0  0  0  0  0  0
   14.5109    0.5625  -19.0256 H   0  0  0  0  0  0  0  0  0  0  0  0
   16.8280   -2.7895  -17.5611 H   0  0  0  0  0  0  0  0  0  0  0  0
   16.1717   -2.2390  -15.2678 H   0  0  0  0  0  0  0  0  0  0  0  0
  1  2  1  0
  1 41  1  0
  1 42  1  0
  1 43  1  0
  2  3  1  0
  2  4  1  0
  2  5  1  6
  3 44  1  0
  3 45  1  0
  3 46  1  0
  4 47  1  0
  4 48  1  0
  4 49  1  0
  5  6  1  0
  6  7  2  0
  6  8  1  0
  8  9  1  0
  8 50  1  0
  9 10  1  0
  9 51  1  0
  9 52  1  0
 10 11  1  0
 10 53  1  0
 10 54  1  0
 11 12  1  0
 12 13  1  0
 12 55  1  0
 12 56  1  0
 13 14  1  0
 13 57  1  0
 13 58  1  0
 14 15  1  0
 15 16  1  0
 15 59  1  0
 15 60  1  0
 16 17  1  0
 16 61  1  0
 16 62  1  0
 17 18  1  0
 18 19  1  0
 18 63  1  0
 18 64  1  0
 19 20  1  0
 19 65  1  0
 19 66  1  0
 20 21  1  0
 20 67  1  0
 21 22  2  0
 21 23  1  0
 23 24  2  0
 23 40  1  0
 24 25  1  0
 24 68  1  0
 25 26  2  0
 25 69  1  0
 26 27  1  0
 26 39  1  0
 27 28  1  0
 27 36  2  0
 28 29  1  0
 28 30  1  0
 30 31  2  0
 30 32  1  0
 32 33  1  0
 32 34  1  0
 34 35  2  0
 34 36  1  0
 36 37  1  0
 37 38  3  0
 39 40  2  0
 39 70  1  0
 40 71  1  0
M  END

