
     RDKit          3D

 41 44  0  0  0  0  0  0  0  0999 V2000
    1.2344    0.6823    0.5445 N   0  0  0  0  0  0  0  0  0  0  0  0
    2.3582    0.5103    0.3071 C   0  0  0  0  0  0  0  0  0  0  0  0
    3.7474    0.2970    0.0137 C   0  0  0  0  0  0  0  0  0  0  0  0
    4.1588   -0.0194   -1.2945 C   0  0  0  0  0  0  0  0  0  0  0  0
    5.5069   -0.2257   -1.5725 C   0  0  0  0  0  0  0  0  0  0  0  0
    6.4865   -0.1247   -0.5648 C   0  0  0  0  0  0  0  0  0  0  0  0
    7.9232   -0.3470   -0.8685 C   0  0  0  0  0  0  0  0  0  0  0  0
    8.4793    0.0587   -2.0979 C   0  0  0  0  0  0  0  0  0  0  0  0
    9.8253   -0.1491   -2.3812 C   0  0  0  0  0  0  0  0  0  0  0  0
   10.6479   -0.7728   -1.4366 C   0  0  0  0  0  0  0  0  0  0  0  0
   11.9640   -0.9303   -1.8537 O   0  0  0  0  0  0  0  0  0  0  0  0
   12.9910   -1.3747   -1.1083 C   0  0  0  0  0  0  0  0  0  0  0  0
   12.9469   -1.7260    0.0401 O   0  0  0  0  0  0  0  0  0  0  0  0
   14.2990   -1.3399   -1.9033 C   0  0  0  0  0  0  0  0  0  0  0  0
   14.1666   -1.3592   -3.3341 N   0  0  0  0  0  0  0  0  0  0  0  0
   14.2569   -0.1990   -4.0440 N   0  0  0  0  0  0  0  0  0  0  0  0
   14.0351   -0.4351   -5.2843 N   0  0  0  0  0  0  0  0  0  0  0  0
   13.7761   -1.7805   -5.4398 C   0  0  0  0  0  0  0  0  0  0  0  0
   13.4800   -2.5365   -6.5876 C   0  0  0  0  0  0  0  0  0  0  0  0
   13.2642   -3.8976   -6.4172 C   0  0  0  0  0  0  0  0  0  0  0  0
   13.3400   -4.5037   -5.1376 C   0  0  0  0  0  0  0  0  0  0  0  0
   13.6337   -3.7724   -3.9918 C   0  0  0  0  0  0  0  0  0  0  0  0
   13.8516   -2.3961   -4.1704 C   0  0  0  0  0  0  0  0  0  0  0  0
   10.1298   -1.1898   -0.2057 C   0  0  0  0  0  0  0  0  0  0  0  0
    8.7759   -0.9697    0.0598 C   0  0  0  0  0  0  0  0  0  0  0  0
    6.0598    0.1935    0.7398 C   0  0  0  0  0  0  0  0  0  0  0  0
    4.7147    0.4016    1.0306 C   0  0  0  0  0  0  0  0  0  0  0  0
    3.4137   -0.1107   -2.0871 H   0  0  0  0  0  0  0  0  0  0  0  0
    5.8027   -0.4956   -2.5883 H   0  0  0  0  0  0  0  0  0  0  0  0
    7.8569    0.5697   -2.8354 H   0  0  0  0  0  0  0  0  0  0  0  0
   10.2630    0.1745   -3.3274 H   0  0  0  0  0  0  0  0  0  0  0  0
   14.9191   -2.1780   -1.5523 H   0  0  0  0  0  0  0  0  0  0  0  0
   14.8191   -0.4057   -1.6391 H   0  0  0  0  0  0  0  0  0  0  0  0
   13.4254   -2.0579   -7.5670 H   0  0  0  0  0  0  0  0  0  0  0  0
   13.0306   -4.5213   -7.2832 H   0  0  0  0  0  0  0  0  0  0  0  0
   13.1618   -5.5784   -5.0509 H   0  0  0  0  0  0  0  0  0  0  0  0
   13.6882   -4.2502   -3.0116 H   0  0  0  0  0  0  0  0  0  0  0  0
   10.7677   -1.6768    0.5266 H   0  0  0  0  0  0  0  0  0  0  0  0
    8.3732   -1.3198    1.0127 H   0  0  0  0  0  0  0  0  0  0  0  0
    6.7975    0.3050    1.5370 H   0  0  0  0  0  0  0  0  0  0  0  0
    4.4047    0.6558    2.0460 H   0  0  0  0  0  0  0  0  0  0  0  0
  1  2  3  0
  2  3  1  0
  3  4  2  0
  3 27  1  0
  4  5  1  0
  4 28  1  0
  5  6  2  0
  5 29  1  0
  6  7  1  0
  6 26  1  0
  7  8  2  0
  7 25  1  0
  8  9  1  0
  8 30  1  0
  9 10  2  0
  9 31  1  0
 10 11  1  0
 10 24  1  0
 11 12  1  0
 12 13  2  0
 12 14  1  0
 14 15  1  0
 14 32  1  0
 14 33  1  0
 15 16  1  0
 15 23  1  0
 16 17  2  0
 17 18  1  0
 18 19  1  0
 18 23  2  0
 19 20  2  0
 19 34  1  0
 20 21  1  0
 20 35  1  0
 21 22  2  0
 21 36  1  0
 22 23  1  0
 22 37  1  0
 24 25  2  0
 24 38  1  0
 25 39  1  0
 26 27  2  0
 26 40  1  0
 27 41  1  0
M  END

