
     RDKit          3D

 40 40  0  0  0  0  0  0  0  0999 V2000
    5.6102   -0.7576   -2.0790 C   0  0  0  0  0  0  0  0  0  0  0  0
    4.6790   -0.1027   -1.0752 C   0  0  0  0  0  0  0  0  0  0  0  0
    4.4497   -1.0106   -0.0160 O   0  0  0  0  0  0  0  0  0  0  0  0
    3.7153   -0.4967    1.0805 C   0  0  1  0  0  0  0  0  0  0  0  0
    2.1984   -0.4063    0.8073 C   0  0  0  0  0  0  0  0  0  0  0  0
    1.5682   -1.6790    0.2398 C   0  0  0  0  0  0  0  0  0  0  0  0
    4.0593   -1.3484    2.2740 C   0  0  0  0  0  0  0  0  0  0  0  0
    4.6646   -0.8312    3.3132 N   0  0  0  0  0  0  0  0  0  0  0  0
    4.8111   -1.9078    4.1781 O   0  0  0  0  0  0  0  0  0  0  0  0
    4.2757   -2.9747    3.5708 C   0  0  0  0  0  0  0  0  0  0  0  0
    4.3393   -4.3227    4.2377 C   0  0  1  0  0  0  0  0  0  0  0  0
    3.5268   -4.9089    3.7675 H   0  0  0  0  0  0  0  0  0  0  0  0
    5.6720   -4.8812    3.9834 N   0  0  0  0  0  0  0  0  0  0  0  0
    4.1044   -4.2439    5.7541 C   0  0  0  0  0  0  0  0  0  0  0  0
    2.7594   -3.6571    6.2195 C   0  0  1  0  0  0  0  0  0  0  0  0
    1.5494   -4.4557    5.7148 C   0  0  0  0  0  0  0  0  0  0  0  0
    2.7414   -3.5474    7.7500 C   0  0  0  0  0  0  0  0  0  0  0  0
    3.7927   -2.6931    2.3972 N   0  0  0  0  0  0  0  0  0  0  0  0
    5.8154   -0.0744   -2.9182 H   0  0  0  0  0  0  0  0  0  0  0  0
    5.1602   -1.6783   -2.4815 H   0  0  0  0  0  0  0  0  0  0  0  0
    6.5654   -1.0246   -1.6015 H   0  0  0  0  0  0  0  0  0  0  0  0
    3.7275    0.1821   -1.5676 H   0  0  0  0  0  0  0  0  0  0  0  0
    5.1285    0.8327   -0.6812 H   0  0  0  0  0  0  0  0  0  0  0  0
    4.0808    0.5179    1.3318 H   0  0  0  0  0  0  0  0  0  0  0  0
    2.0295    0.4339    0.1117 H   0  0  0  0  0  0  0  0  0  0  0  0
    1.7054   -0.1123    1.7502 H   0  0  0  0  0  0  0  0  0  0  0  0
    2.0487   -1.9630   -0.7087 H   0  0  0  0  0  0  0  0  0  0  0  0
    0.4944   -1.5261    0.0471 H   0  0  0  0  0  0  0  0  0  0  0  0
    1.6834   -2.5276    0.9288 H   0  0  0  0  0  0  0  0  0  0  0  0
    5.7935   -5.0625    2.9865 H   0  0  0  0  0  0  0  0  0  0  0  0
    5.7625   -5.7801    4.4580 H   0  0  0  0  0  0  0  0  0  0  0  0
    4.9334   -3.6604    6.1860 H   0  0  0  0  0  0  0  0  0  0  0  0
    4.2034   -5.2700    6.1552 H   0  0  0  0  0  0  0  0  0  0  0  0
    2.6815   -2.6305    5.8171 H   0  0  0  0  0  0  0  0  0  0  0  0
    1.5982   -5.5053    6.0543 H   0  0  0  0  0  0  0  0  0  0  0  0
    1.4781   -4.4604    4.6160 H   0  0  0  0  0  0  0  0  0  0  0  0
    0.6098   -4.0279    6.1001 H   0  0  0  0  0  0  0  0  0  0  0  0
    2.8159   -4.5438    8.2195 H   0  0  0  0  0  0  0  0  0  0  0  0
    1.8081   -3.0820    8.1055 H   0  0  0  0  0  0  0  0  0  0  0  0
    3.5829   -2.9403    8.1204 H   0  0  0  0  0  0  0  0  0  0  0  0
  1  2  1  0
  1 19  1  0
  1 20  1  0
  1 21  1  0
  2  3  1  0
  2 22  1  0
  2 23  1  0
  3  4  1  0
  4  5  1  0
  4  7  1  0
  4 24  1  1
  5  6  1  0
  5 25  1  0
  5 26  1  0
  6 27  1  0
  6 28  1  0
  6 29  1  0
  7  8  2  0
  7 18  1  0
  8  9  1  0
  9 10  1  0
 10 11  1  0
 10 18  2  0
 11 12  1  6
 11 13  1  0
 11 14  1  0
 13 30  1  0
 13 31  1  0
 14 15  1  0
 14 32  1  0
 14 33  1  0
 15 16  1  0
 15 17  1  0
 15 34  1  6
 16 35  1  0
 16 36  1  0
 16 37  1  0
 17 38  1  0
 17 39  1  0
 17 40  1  0
M  END

