
     RDKit          3D

 76 79  0  0  0  0  0  0  0  0999 V2000
    7.0574   -7.7845  -16.4744 C   0  0  0  0  0  0  0  0  0  0  0  0
    6.5029   -6.8737  -15.6691 C   0  0  0  0  0  0  0  0  0  0  0  0
    5.2851   -7.1031  -14.8177 C   0  0  0  0  0  0  0  0  0  0  0  0
    7.0949   -5.4827  -15.5848 C   0  0  1  0  0  0  0  0  0  0  0  0
    8.1660   -5.3241  -16.4008 F   0  0  0  0  0  0  0  0  0  0  0  0
    6.1700   -4.5638  -16.0057 F   0  0  0  0  0  0  0  0  0  0  0  0
    7.4497   -5.2203  -14.2805 O   0  0  0  0  0  0  0  0  0  0  0  0
    8.0600   -4.0482  -13.8880 C   0  0  0  0  0  0  0  0  0  0  0  0
    8.2067   -2.9065  -14.6881 C   0  0  0  0  0  0  0  0  0  0  0  0
    8.8387   -1.7843  -14.1597 C   0  0  0  0  0  0  0  0  0  0  0  0
    9.3272   -1.7641  -12.8411 C   0  0  0  0  0  0  0  0  0  0  0  0
    9.9849   -0.5308  -12.3484 C   0  0  0  0  0  0  0  0  0  0  0  0
   10.1665    0.4796  -13.1618 N   0  0  0  0  0  0  0  0  0  0  0  0
   10.7771    1.5929  -12.6684 C   0  0  0  0  0  0  0  0  0  0  0  0
   11.2224    1.7386  -11.3771 C   0  0  0  0  0  0  0  0  0  0  0  0
   11.8875    2.9931  -10.8639 C   0  0  0  0  0  0  0  0  0  0  0  0
   10.9537    4.0617  -10.4934 N   0  0  0  0  0  0  0  0  0  0  0  0
   10.1540    4.0796   -9.3196 C   0  0  0  0  0  0  0  0  0  0  0  0
    8.8285    4.0439   -9.5470 C   0  0  0  0  0  0  0  0  0  0  0  0
    7.8158    4.9790   -8.9911 C   0  0  0  0  0  0  0  0  0  0  0  0
    7.8020    6.1097  -10.0998 C   0  0  1  0  0  0  0  0  0  0  0  0
    6.5049    6.9363  -10.0395 C   0  0  0  0  0  0  0  0  0  0  0  0
    9.1332    6.8876  -10.1292 C   0  0  0  0  0  0  0  0  0  0  0  0
    9.1808    8.1936   -9.3206 C   0  0  1  0  0  0  0  0  0  0  0  0
    8.3919    7.9933   -8.1989 F   0  0  0  0  0  0  0  0  0  0  0  0
   10.4256    8.4196   -8.7925 F   0  0  0  0  0  0  0  0  0  0  0  0
    8.7342    9.4842   -9.9911 C   0  0  0  0  0  0  0  0  0  0  0  0
    8.4879    9.5518  -11.3038 C   0  0  0  0  0  0  0  0  0  0  0  0
    8.6431   10.6665   -9.0620 C   0  0  0  0  0  0  0  0  0  0  0  0
   10.2552    6.4097  -10.7239 C   0  0  0  0  0  0  0  0  0  0  0  0
   11.4455    7.1215  -10.6884 O   0  0  0  0  0  0  0  0  0  0  0  0
   11.7885    8.0639  -11.6189 C   0  0  0  0  0  0  0  0  0  0  0  0
   12.6807    9.0502  -11.1787 C   0  0  0  0  0  0  0  0  0  0  0  0
   13.1028   10.0338  -12.0734 C   0  0  0  0  0  0  0  0  0  0  0  0
   14.2144   11.2643  -11.5269 Cl  0  0  0  0  0  0  0  0  0  0  0  0
   12.6467   10.0624  -13.3923 C   0  0  0  0  0  0  0  0  0  0  0  0
   11.7529    9.0625  -13.8142 C   0  0  0  0  0  0  0  0  0  0  0  0
   11.2754    9.0705  -15.1708 C   0  0  0  0  0  0  0  0  0  0  0  0
   10.8849    9.0854  -16.2640 N   0  0  0  0  0  0  0  0  0  0  0  0
   11.3231    8.0518  -12.9366 C   0  0  0  0  0  0  0  0  0  0  0  0
   10.6304    5.0599  -11.3926 C   0  0  0  0  0  0  0  0  0  0  0  0
   10.8618    5.0069  -12.5888 O   0  0  0  0  0  0  0  0  0  0  0  0
   11.0282    0.6360  -10.4458 C   0  0  0  0  0  0  0  0  0  0  0  0
   11.3534    0.5941   -9.2701 O   0  0  0  0  0  0  0  0  0  0  0  0
   10.3909   -0.4700  -11.0460 N   0  0  0  0  0  0  0  0  0  0  0  0
   10.2358   -1.2497  -10.4135 H   0  0  0  0  0  0  0  0  0  0  0  0
    9.1680   -2.9219  -12.0577 C   0  0  0  0  0  0  0  0  0  0  0  0
    8.5435   -4.0527  -12.5740 C   0  0  0  0  0  0  0  0  0  0  0  0
    6.6324   -8.7882  -16.5555 H   0  0  0  0  0  0  0  0  0  0  0  0
    7.9424   -7.5590  -17.0716 H   0  0  0  0  0  0  0  0  0  0  0  0
    4.8949   -8.1206  -14.9577 H   0  0  0  0  0  0  0  0  0  0  0  0
    4.4906   -6.3831  -15.0730 H   0  0  0  0  0  0  0  0  0  0  0  0
    5.5208   -6.9580  -13.7511 H   0  0  0  0  0  0  0  0  0  0  0  0
    7.8312   -2.8858  -15.7089 H   0  0  0  0  0  0  0  0  0  0  0  0
    8.9654   -0.8870  -14.7665 H   0  0  0  0  0  0  0  0  0  0  0  0
   10.9011    2.4223  -13.3735 H   0  0  0  0  0  0  0  0  0  0  0  0
   12.5627    3.4040  -11.6268 H   0  0  0  0  0  0  0  0  0  0  0  0
   12.4674    2.7394   -9.9642 H   0  0  0  0  0  0  0  0  0  0  0  0
   10.6222    4.3743   -8.3735 H   0  0  0  0  0  0  0  0  0  0  0  0
    8.5419    3.6309  -10.5221 H   0  0  0  0  0  0  0  0  0  0  0  0
    8.0905    5.4043   -8.0149 H   0  0  0  0  0  0  0  0  0  0  0  0
    6.8044    4.5478   -8.9242 H   0  0  0  0  0  0  0  0  0  0  0  0
    7.7577    5.5776  -11.0630 H   0  0  0  0  0  0  0  0  0  0  0  0
    6.3647    7.4348   -9.0725 H   0  0  0  0  0  0  0  0  0  0  0  0
    5.6514    6.2592  -10.2004 H   0  0  0  0  0  0  0  0  0  0  0  0
    6.4731    7.7020  -10.8268 H   0  0  0  0  0  0  0  0  0  0  0  0
    8.5710    8.6812  -11.9564 H   0  0  0  0  0  0  0  0  0  0  0  0
    8.2002   10.4967  -11.7723 H   0  0  0  0  0  0  0  0  0  0  0  0
    7.9042   10.4835   -8.2660 H   0  0  0  0  0  0  0  0  0  0  0  0
    8.3565   11.5757   -9.6085 H   0  0  0  0  0  0  0  0  0  0  0  0
    9.6105   10.8430   -8.5654 H   0  0  0  0  0  0  0  0  0  0  0  0
   13.0223    9.0392  -10.1442 H   0  0  0  0  0  0  0  0  0  0  0  0
   12.9801   10.8398  -14.0789 H   0  0  0  0  0  0  0  0  0  0  0  0
   10.6751    7.2475  -13.2826 H   0  0  0  0  0  0  0  0  0  0  0  0
    9.5378   -2.9737  -11.0308 H   0  0  0  0  0  0  0  0  0  0  0  0
    8.4242   -4.9556  -11.9730 H   0  0  0  0  0  0  0  0  0  0  0  0
  1  2  2  0
  1 49  1  0
  1 50  1  0
  2  3  1  0
  2  4  1  0
  3 51  1  0
  3 52  1  0
  3 53  1  0
  4  5  1  6
  4  6  1  0
  4  7  1  0
  7  8  1  0
  8  9  2  0
  8 48  1  0
  9 10  1  0
  9 54  1  0
 10 11  2  0
 10 55  1  0
 11 12  1  0
 11 47  1  0
 12 13  2  0
 12 45  1  0
 13 14  1  0
 14 15  2  0
 14 56  1  0
 15 16  1  0
 15 43  1  0
 16 17  1  0
 16 57  1  0
 16 58  1  0
 17 18  1  0
 17 41  1  0
 18 19  2  0
 18 59  1  0
 19 20  1  0
 19 60  1  0
 20 21  1  0
 20 61  1  0
 20 62  1  0
 21 22  1  0
 21 23  1  0
 21 63  1  6
 22 64  1  0
 22 65  1  0
 22 66  1  0
 23 24  1  0
 23 30  2  0
 24 25  1  1
 24 26  1  0
 24 27  1  0
 27 28  2  0
 27 29  1  0
 28 67  1  0
 28 68  1  0
 29 69  1  0
 29 70  1  0
 29 71  1  0
 30 31  1  0
 30 41  1  0
 31 32  1  0
 32 33  2  0
 32 40  1  0
 33 34  1  0
 33 72  1  0
 34 35  1  0
 34 36  2  0
 36 37  1  0
 36 73  1  0
 37 38  1  0
 37 40  2  0
 38 39  3  0
 40 74  1  0
 41 42  2  0
 43 44  2  0
 43 45  1  0
 45 46  1  0
 47 48  2  0
 47 75  1  0
 48 76  1  0
M  END

