
     RDKit          3D

 42 43  0  0  0  0  0  0  0  0999 V2000
    1.8265    1.8025   -1.5093 C   0  0  0  0  0  0  0  0  0  0  0  0
    3.0463    1.2764   -0.9431 N   0  0  0  0  0  0  0  0  0  0  0  0
    3.2403    1.1099    0.3913 C   0  0  0  0  0  0  0  0  0  0  0  0
    2.4119    1.3918    1.2444 O   0  0  0  0  0  0  0  0  0  0  0  0
    4.6546    0.5853    0.7730 C   0  0  1  0  0  0  0  0  0  0  0  0
    4.5685   -0.2946    2.0373 C   0  0  0  0  0  0  0  0  0  0  0  0
    4.0588   -1.7038    1.7213 C   0  0  0  0  0  0  0  0  0  0  0  0
    4.8950   -2.3385    0.6057 C   0  0  0  0  0  0  0  0  0  0  0  0
    4.9234   -1.4166   -0.6229 C   0  0  0  0  0  0  0  0  0  0  0  0
    5.3426   -0.0374   -0.3580 N   0  0  0  0  0  0  0  0  0  0  0  0
    6.7080    0.3370   -0.7600 C   0  0  1  0  0  0  0  0  0  0  0  0
    6.8804    1.8548   -1.0418 C   0  0  0  0  0  0  0  0  0  0  0  0
    7.3823    2.7092    0.1307 C   0  0  0  0  0  0  0  0  0  0  0  0
    8.5486    2.0845    0.7338 N   0  0  0  0  0  0  0  0  0  0  0  0
    8.2448    0.7623    1.2647 C   0  0  0  0  0  0  0  0  0  0  0  0
    7.8913   -0.2024    0.1183 C   0  0  2  0  0  0  0  0  0  0  0  0
    9.1305   -0.4996   -0.7397 C   0  0  0  0  0  0  0  0  0  0  0  0
    2.0085    2.7268   -2.0844 H   0  0  0  0  0  0  0  0  0  0  0  0
    1.1446    2.0327   -0.6790 H   0  0  0  0  0  0  0  0  0  0  0  0
    1.3371    1.0723   -2.1769 H   0  0  0  0  0  0  0  0  0  0  0  0
    3.8176    0.9672   -1.5284 H   0  0  0  0  0  0  0  0  0  0  0  0
    5.1979    1.5017    1.0428 H   0  0  0  0  0  0  0  0  0  0  0  0
    3.9088    0.2070    2.7595 H   0  0  0  0  0  0  0  0  0  0  0  0
    5.5727   -0.3604    2.4893 H   0  0  0  0  0  0  0  0  0  0  0  0
    3.0019   -1.6465    1.4036 H   0  0  0  0  0  0  0  0  0  0  0  0
    4.0760   -2.3294    2.6290 H   0  0  0  0  0  0  0  0  0  0  0  0
    4.4816   -3.3189    0.3126 H   0  0  0  0  0  0  0  0  0  0  0  0
    5.9213   -2.5233    0.9683 H   0  0  0  0  0  0  0  0  0  0  0  0
    3.8980   -1.4007   -1.0453 H   0  0  0  0  0  0  0  0  0  0  0  0
    5.5742   -1.8337   -1.4072 H   0  0  0  0  0  0  0  0  0  0  0  0
    6.8228   -0.1560   -1.7394 H   0  0  0  0  0  0  0  0  0  0  0  0
    5.9342    2.2643   -1.4299 H   0  0  0  0  0  0  0  0  0  0  0  0
    7.6226    1.9527   -1.8503 H   0  0  0  0  0  0  0  0  0  0  0  0
    6.5647    2.8800    0.8679 H   0  0  0  0  0  0  0  0  0  0  0  0
    7.6630    3.7058   -0.2486 H   0  0  0  0  0  0  0  0  0  0  0  0
    8.9485    2.6819    1.4536 H   0  0  0  0  0  0  0  0  0  0  0  0
    7.4138    0.7833    2.0051 H   0  0  0  0  0  0  0  0  0  0  0  0
    9.1305    0.3831    1.8011 H   0  0  0  0  0  0  0  0  0  0  0  0
    7.5592   -1.1511    0.5689 H   0  0  0  0  0  0  0  0  0  0  0  0
    9.5500    0.4240   -1.1655 H   0  0  0  0  0  0  0  0  0  0  0  0
    8.8923   -1.1891   -1.5661 H   0  0  0  0  0  0  0  0  0  0  0  0
    9.9224   -0.9685   -0.1330 H   0  0  0  0  0  0  0  0  0  0  0  0
  1  2  1  0
  1 18  1  0
  1 19  1  0
  1 20  1  0
  2  3  1  0
  2 21  1  0
  3  4  2  0
  3  5  1  0
  5  6  1  0
  5 10  1  0
  5 22  1  1
  6  7  1  0
  6 23  1  0
  6 24  1  0
  7  8  1  0
  7 25  1  0
  7 26  1  0
  8  9  1  0
  8 27  1  0
  8 28  1  0
  9 10  1  0
  9 29  1  0
  9 30  1  0
 10 11  1  0
 11 12  1  0
 11 16  1  0
 11 31  1  6
 12 13  1  0
 12 32  1  0
 12 33  1  0
 13 14  1  0
 13 34  1  0
 13 35  1  0
 14 15  1  0
 14 36  1  0
 15 16  1  0
 15 37  1  0
 15 38  1  0
 16 17  1  0
 16 39  1  1
 17 40  1  0
 17 41  1  0
 17 42  1  0
M  END

