
     RDKit          3D

 56 57  0  0  0  0  0  0  0  0999 V2000
    1.7253    1.0790   -0.4929 C   0  0  0  0  0  0  0  0  0  0  0  0
    2.8711    0.3453    0.2084 C   0  0  0  0  0  0  0  0  0  0  0  0
    3.3392   -0.9519   -0.4885 C   0  0  1  0  0  0  0  0  0  0  0  0
    4.6262   -1.5139    0.1425 C   0  0  0  0  0  0  0  0  0  0  0  0
    4.3518   -2.1996    1.4841 C   0  0  0  0  0  0  0  0  0  0  0  0
    3.2974   -3.3190    1.3850 C   0  0  2  0  0  0  0  0  0  0  0  0
    3.8048   -4.5739    0.6524 C   0  0  0  0  0  0  0  0  0  0  0  0
    4.9335   -5.1845    1.3562 N   0  0  0  0  0  0  0  0  0  0  0  0
    1.9730   -2.7583    0.7787 C   0  0  2  0  0  0  0  0  0  0  0  0
    0.9399   -3.8134    0.6996 N   0  0  0  0  0  0  0  0  0  0  0  0
    0.5631   -4.2886    2.0201 C   0  0  0  0  0  0  0  0  0  0  0  0
   -0.1674   -3.6130   -0.2532 C   0  0  1  0  0  0  0  0  0  0  0  0
   -0.9116   -4.9249   -0.6220 C   0  0  0  0  0  0  0  0  0  0  0  0
   -2.1728   -5.2783    0.1861 C   0  0  0  0  0  0  0  0  0  0  0  0
   -3.1667   -4.1053    0.3656 C   0  0  2  0  0  0  0  0  0  0  0  0
   -4.2623   -4.5169    1.3630 C   0  0  0  0  0  0  0  0  0  0  0  0
   -3.8402   -3.7459   -0.9739 C   0  0  0  0  0  0  0  0  0  0  0  0
   -2.3854   -2.8968    0.9358 C   0  0  0  0  0  0  0  0  0  0  0  0
   -1.1767   -2.4775    0.0861 C   0  0  0  0  0  0  0  0  0  0  0  0
    2.2561   -2.0542   -0.5662 C   0  0  0  0  0  0  0  0  0  0  0  0
    1.5103    2.0398    0.0017 H   0  0  0  0  0  0  0  0  0  0  0  0
    0.7901    0.4968   -0.4877 H   0  0  0  0  0  0  0  0  0  0  0  0
    1.9731    1.2966   -1.5458 H   0  0  0  0  0  0  0  0  0  0  0  0
    2.5842    0.1417    1.2542 H   0  0  0  0  0  0  0  0  0  0  0  0
    3.7407    1.0239    0.2680 H   0  0  0  0  0  0  0  0  0  0  0  0
    3.5730   -0.6694   -1.5317 H   0  0  0  0  0  0  0  0  0  0  0  0
    5.3688   -0.7073    0.2693 H   0  0  0  0  0  0  0  0  0  0  0  0
    5.0801   -2.2379   -0.5569 H   0  0  0  0  0  0  0  0  0  0  0  0
    4.0048   -1.4504    2.2165 H   0  0  0  0  0  0  0  0  0  0  0  0
    5.2819   -2.6106    1.9107 H   0  0  0  0  0  0  0  0  0  0  0  0
    3.1019   -3.6445    2.4182 H   0  0  0  0  0  0  0  0  0  0  0  0
    4.0211   -4.3375   -0.4107 H   0  0  0  0  0  0  0  0  0  0  0  0
    2.9779   -5.2990    0.6278 H   0  0  0  0  0  0  0  0  0  0  0  0
    5.7910   -4.6571    1.1897 H   0  0  0  0  0  0  0  0  0  0  0  0
    5.1115   -6.1181    0.9865 H   0  0  0  0  0  0  0  0  0  0  0  0
    1.6310   -1.9693    1.4893 H   0  0  0  0  0  0  0  0  0  0  0  0
    1.4226   -4.7427    2.5348 H   0  0  0  0  0  0  0  0  0  0  0  0
   -0.2007   -5.0701    1.9453 H   0  0  0  0  0  0  0  0  0  0  0  0
    0.1710   -3.4888    2.6892 H   0  0  0  0  0  0  0  0  0  0  0  0
    0.3270   -3.3154   -1.1842 H   0  0  0  0  0  0  0  0  0  0  0  0
   -0.1881   -5.7553   -0.5831 H   0  0  0  0  0  0  0  0  0  0  0  0
   -1.2057   -4.8350   -1.6815 H   0  0  0  0  0  0  0  0  0  0  0  0
   -1.8993   -5.6482    1.1881 H   0  0  0  0  0  0  0  0  0  0  0  0
   -2.6876   -6.1220   -0.3073 H   0  0  0  0  0  0  0  0  0  0  0  0
   -4.8196   -5.3975    1.0018 H   0  0  0  0  0  0  0  0  0  0  0  0
   -4.9884   -3.7010    1.5164 H   0  0  0  0  0  0  0  0  0  0  0  0
   -3.8332   -4.7720    2.3461 H   0  0  0  0  0  0  0  0  0  0  0  0
   -4.4217   -4.6003   -1.3581 H   0  0  0  0  0  0  0  0  0  0  0  0
   -3.1184   -3.4641   -1.7550 H   0  0  0  0  0  0  0  0  0  0  0  0
   -4.5359   -2.8997   -0.8475 H   0  0  0  0  0  0  0  0  0  0  0  0
   -2.0546   -3.1503    1.9570 H   0  0  0  0  0  0  0  0  0  0  0  0
   -3.0709   -2.0374    1.0451 H   0  0  0  0  0  0  0  0  0  0  0  0
   -0.6460   -1.6502    0.5864 H   0  0  0  0  0  0  0  0  0  0  0  0
   -1.5430   -2.0559   -0.8663 H   0  0  0  0  0  0  0  0  0  0  0  0
    1.3366   -1.6042   -0.9644 H   0  0  0  0  0  0  0  0  0  0  0  0
    2.5717   -2.8072   -1.3080 H   0  0  0  0  0  0  0  0  0  0  0  0
  1  2  1  0
  1 21  1  0
  1 22  1  0
  1 23  1  0
  2  3  1  0
  2 24  1  0
  2 25  1  0
  3  4  1  0
  3 20  1  0
  3 26  1  6
  4  5  1  0
  4 27  1  0
  4 28  1  0
  5  6  1  0
  5 29  1  0
  5 30  1  0
  6  7  1  0
  6  9  1  0
  6 31  1  1
  7  8  1  0
  7 32  1  0
  7 33  1  0
  8 34  1  0
  8 35  1  0
  9 10  1  0
  9 20  1  0
  9 36  1  1
 10 11  1  0
 10 12  1  0
 11 37  1  0
 11 38  1  0
 11 39  1  0
 12 13  1  0
 12 19  1  0
 12 40  1  6
 13 14  1  0
 13 41  1  0
 13 42  1  0
 14 15  1  0
 14 43  1  0
 14 44  1  0
 15 16  1  1
 15 17  1  0
 15 18  1  0
 16 45  1  0
 16 46  1  0
 16 47  1  0
 17 48  1  0
 17 49  1  0
 17 50  1  0
 18 19  1  0
 18 51  1  0
 18 52  1  0
 19 53  1  0
 19 54  1  0
 20 55  1  0
 20 56  1  0
M  END

