
     RDKit          3D

 52 52  0  0  0  0  0  0  0  0999 V2000
    1.0637    0.1837   -0.3442 C   0  0  0  0  0  0  0  0  0  0  0  0
    2.5161   -0.0088    0.0971 C   0  0  0  0  0  0  0  0  0  0  0  0
    2.9596    0.8360    1.3108 C   0  0  1  0  0  0  0  0  0  0  0  0
    2.0854    0.6116    2.5643 C   0  0  0  0  0  0  0  0  0  0  0  0
    2.0939   -0.7976    3.1617 C   0  0  0  0  0  0  0  0  0  0  0  0
    1.1526   -0.8790    4.2774 N   0  0  0  0  0  0  0  0  0  0  0  0
    4.4702    0.6405    1.5522 C   0  0  0  0  0  0  0  0  0  0  0  0
    5.0806    1.5615    2.6090 C   0  0  0  0  0  0  0  0  0  0  0  0
    6.6013    1.4061    2.7066 C   0  0  0  0  0  0  0  0  0  0  0  0
    7.1978    0.6037    2.0031 O   0  0  0  0  0  0  0  0  0  0  0  0
    7.2662    2.2025    3.6145 N   0  0  0  0  0  0  0  0  0  0  0  0
    8.7152    2.0737    3.7504 C   0  0  0  0  0  0  0  0  0  0  0  0
    9.4104    3.4284    3.5765 C   0  0  0  0  0  0  0  0  0  0  0  0
    8.8423    4.5173    4.5068 C   0  0  2  0  0  0  0  0  0  0  0  0
    9.2874    4.3647    5.9783 C   0  0  0  0  0  0  0  0  0  0  0  0
   10.7248    4.4482    6.1742 N   0  0  0  0  0  0  0  0  0  0  0  0
   11.3662    5.6524    6.2920 C   0  0  0  0  0  0  0  0  0  0  0  0
   12.8726    5.5811    6.4891 C   0  0  0  0  0  0  0  0  0  0  0  0
   10.7689    6.7147    6.2449 O   0  0  0  0  0  0  0  0  0  0  0  0
    7.3071    4.5527    4.3784 C   0  0  0  0  0  0  0  0  0  0  0  0
    6.6579    3.1675    4.5222 C   0  0  0  0  0  0  0  0  0  0  0  0
    0.8573   -0.3747   -1.2714 H   0  0  0  0  0  0  0  0  0  0  0  0
    0.8423    1.2463   -0.5423 H   0  0  0  0  0  0  0  0  0  0  0  0
    0.3454   -0.1668    0.4138 H   0  0  0  0  0  0  0  0  0  0  0  0
    3.1820    0.2415   -0.7471 H   0  0  0  0  0  0  0  0  0  0  0  0
    2.7010   -1.0783    0.3045 H   0  0  0  0  0  0  0  0  0  0  0  0
    2.8127    1.8968    1.0263 H   0  0  0  0  0  0  0  0  0  0  0  0
    1.0381    0.8694    2.3389 H   0  0  0  0  0  0  0  0  0  0  0  0
    2.3925    1.3259    3.3505 H   0  0  0  0  0  0  0  0  0  0  0  0
    3.1340   -1.0839    3.4301 H   0  0  0  0  0  0  0  0  0  0  0  0
    1.7692   -1.5243    2.3974 H   0  0  0  0  0  0  0  0  0  0  0  0
    1.4584   -0.2708    5.0391 H   0  0  0  0  0  0  0  0  0  0  0  0
    1.1379   -1.8232    4.6632 H   0  0  0  0  0  0  0  0  0  0  0  0
    5.0064    0.8044    0.6041 H   0  0  0  0  0  0  0  0  0  0  0  0
    4.6870   -0.4067    1.8192 H   0  0  0  0  0  0  0  0  0  0  0  0
    4.6436    1.3652    3.6030 H   0  0  0  0  0  0  0  0  0  0  0  0
    4.8355    2.6139    2.3781 H   0  0  0  0  0  0  0  0  0  0  0  0
    9.0501    1.3515    2.9963 H   0  0  0  0  0  0  0  0  0  0  0  0
    8.9469    1.6427    4.7449 H   0  0  0  0  0  0  0  0  0  0  0  0
    9.2863    3.7513    2.5289 H   0  0  0  0  0  0  0  0  0  0  0  0
   10.4950    3.3136    3.7403 H   0  0  0  0  0  0  0  0  0  0  0  0
    9.2322    5.4957    4.1823 H   0  0  0  0  0  0  0  0  0  0  0  0
    8.9419    3.4116    6.4092 H   0  0  0  0  0  0  0  0  0  0  0  0
    8.8295    5.1773    6.5630 H   0  0  0  0  0  0  0  0  0  0  0  0
   11.2689    3.5963    6.2107 H   0  0  0  0  0  0  0  0  0  0  0  0
   13.2704    4.5574    6.5523 H   0  0  0  0  0  0  0  0  0  0  0  0
   13.1323    6.1275    7.4081 H   0  0  0  0  0  0  0  0  0  0  0  0
   13.3617    6.1056    5.6540 H   0  0  0  0  0  0  0  0  0  0  0  0
    7.0435    4.9551    3.3854 H   0  0  0  0  0  0  0  0  0  0  0  0
    6.8729    5.2393    5.1250 H   0  0  0  0  0  0  0  0  0  0  0  0
    5.5821    3.2419    4.3292 H   0  0  0  0  0  0  0  0  0  0  0  0
    6.7632    2.8040    5.5640 H   0  0  0  0  0  0  0  0  0  0  0  0
  1  2  1  0
  1 22  1  0
  1 23  1  0
  1 24  1  0
  2  3  1  0
  2 25  1  0
  2 26  1  0
  3  4  1  0
  3  7  1  0
  3 27  1  6
  4  5  1  0
  4 28  1  0
  4 29  1  0
  5  6  1  0
  5 30  1  0
  5 31  1  0
  6 32  1  0
  6 33  1  0
  7  8  1  0
  7 34  1  0
  7 35  1  0
  8  9  1  0
  8 36  1  0
  8 37  1  0
  9 10  2  0
  9 11  1  0
 11 12  1  0
 11 21  1  0
 12 13  1  0
 12 38  1  0
 12 39  1  0
 13 14  1  0
 13 40  1  0
 13 41  1  0
 14 15  1  0
 14 20  1  0
 14 42  1  6
 15 16  1  0
 15 43  1  0
 15 44  1  0
 16 17  1  0
 16 45  1  0
 17 18  1  0
 17 19  2  0
 18 46  1  0
 18 47  1  0
 18 48  1  0
 20 21  1  0
 20 49  1  0
 20 50  1  0
 21 51  1  0
 21 52  1  0
M  END

