
     RDKit          3D

 41 43  0  0  0  0  0  0  0  0999 V2000
    2.0999   -4.0604   -3.9157 O   0  0  0  0  0  0  0  0  0  0  0  0
    2.4629   -3.8673   -2.7887 C   0  0  0  0  0  0  0  0  0  0  0  0
    2.0919   -4.7088   -1.7968 O   0  0  0  0  0  0  0  0  0  0  0  0
    3.3277   -2.6782   -2.3586 C   0  0  1  0  0  0  0  0  0  0  0  0
    4.0496   -3.0366   -1.6013 H   0  0  0  0  0  0  0  0  0  0  0  0
    4.1144   -2.0976   -3.5391 C   0  0  0  0  0  0  0  0  0  0  0  0
    4.7818   -0.7958   -3.1936 C   0  0  0  0  0  0  0  0  0  0  0  0
    4.4594   -0.0606   -2.1230 C   0  0  0  0  0  0  0  0  0  0  0  0
    3.3834   -0.4438   -1.1410 C   0  0  0  0  0  0  0  0  0  0  0  0
    2.4701   -1.5892   -1.6359 C   0  0  1  0  0  0  0  0  0  0  0  0
    1.9769   -2.0502   -0.7672 H   0  0  0  0  0  0  0  0  0  0  0  0
    1.3237   -1.1094   -2.4770 C   0  0  0  0  0  0  0  0  0  0  0  0
    0.0660   -1.3960   -2.3197 N   0  0  0  0  0  0  0  0  0  0  0  0
   -0.5348   -0.7179   -3.3595 C   0  0  0  0  0  0  0  0  0  0  0  0
   -2.0068   -0.7302   -3.6037 C   0  0  0  0  0  0  0  0  0  0  0  0
   -2.8102   -0.0987   -2.4390 C   0  0  1  0  0  0  0  0  0  0  0  0
   -2.6266    1.4230   -2.3025 C   0  0  0  0  0  0  0  0  0  0  0  0
   -3.4053    2.1986   -3.3738 C   0  0  0  0  0  0  0  0  0  0  0  0
   -4.8655    1.7320   -3.4000 C   0  0  0  0  0  0  0  0  0  0  0  0
   -4.9292    0.2116   -3.5362 C   0  0  0  0  0  0  0  0  0  0  0  0
   -4.1860   -0.4462   -2.5228 O   0  0  0  0  0  0  0  0  0  0  0  0
    0.3043   -0.0420   -4.1048 N   0  0  0  0  0  0  0  0  0  0  0  0
    1.5444   -0.3034   -3.5237 O   0  0  0  0  0  0  0  0  0  0  0  0
    2.4733   -4.4343   -0.9512 H   0  0  0  0  0  0  0  0  0  0  0  0
    3.4389   -1.9709   -4.4024 H   0  0  0  0  0  0  0  0  0  0  0  0
    4.8669   -2.8343   -3.8683 H   0  0  0  0  0  0  0  0  0  0  0  0
    5.5626   -0.4418   -3.8745 H   0  0  0  0  0  0  0  0  0  0  0  0
    4.9904    0.8768   -1.9278 H   0  0  0  0  0  0  0  0  0  0  0  0
    2.7666    0.4369   -0.8930 H   0  0  0  0  0  0  0  0  0  0  0  0
    3.8457   -0.7504   -0.1838 H   0  0  0  0  0  0  0  0  0  0  0  0
   -2.3383   -1.7768   -3.6949 H   0  0  0  0  0  0  0  0  0  0  0  0
   -2.1997   -0.2272   -4.5614 H   0  0  0  0  0  0  0  0  0  0  0  0
   -2.4590   -0.5853   -1.5157 H   0  0  0  0  0  0  0  0  0  0  0  0
   -1.5546    1.6776   -2.3338 H   0  0  0  0  0  0  0  0  0  0  0  0
   -2.9970    1.7171   -1.3056 H   0  0  0  0  0  0  0  0  0  0  0  0
   -2.9477    2.0403   -4.3669 H   0  0  0  0  0  0  0  0  0  0  0  0
   -3.3427    3.2817   -3.1785 H   0  0  0  0  0  0  0  0  0  0  0  0
   -5.4222    2.2039   -4.2273 H   0  0  0  0  0  0  0  0  0  0  0  0
   -5.3664    2.0267   -2.4609 H   0  0  0  0  0  0  0  0  0  0  0  0
   -4.5751   -0.0895   -4.5438 H   0  0  0  0  0  0  0  0  0  0  0  0
   -5.9622   -0.1557   -3.4355 H   0  0  0  0  0  0  0  0  0  0  0  0
  1  2  2  0
  2  3  1  0
  2  4  1  0
  3 24  1  0
  4  5  1  1
  4  6  1  0
  4 10  1  0
  6  7  1  0
  6 25  1  0
  6 26  1  0
  7  8  2  0
  7 27  1  0
  8  9  1  0
  8 28  1  0
  9 10  1  0
  9 29  1  0
  9 30  1  0
 10 11  1  1
 10 12  1  0
 12 13  2  0
 12 23  1  0
 13 14  1  0
 14 15  1  0
 14 22  2  0
 15 16  1  0
 15 31  1  0
 15 32  1  0
 16 17  1  0
 16 21  1  0
 16 33  1  1
 17 18  1  0
 17 34  1  0
 17 35  1  0
 18 19  1  0
 18 36  1  0
 18 37  1  0
 19 20  1  0
 19 38  1  0
 19 39  1  0
 20 21  1  0
 20 40  1  0
 20 41  1  0
 22 23  1  0
M  END

