
     RDKit          3D

 68 72  0  0  0  0  0  0  0  0999 V2000
    4.6465   -0.7251    1.0812 O   0  0  0  0  0  0  0  0  0  0  0  0
    4.3566    0.1837    0.3501 C   0  0  0  0  0  0  0  0  0  0  0  0
    5.2447    0.8399   -0.4043 O   0  0  0  0  0  0  0  0  0  0  0  0
    2.9160    0.7202    0.2171 C   0  0  1  0  0  0  0  0  0  0  0  0
    2.4214    1.2793    1.5624 C   0  0  0  0  0  0  0  0  0  0  0  0
    0.9625    1.6732    1.5466 C   0  0  0  0  0  0  0  0  0  0  0  0
   -0.0329    0.7683    1.9489 C   0  0  0  0  0  0  0  0  0  0  0  0
   -1.3842    1.1166    1.9005 C   0  0  0  0  0  0  0  0  0  0  0  0
   -1.7942    2.3822    1.4495 C   0  0  0  0  0  0  0  0  0  0  0  0
   -3.2594    2.7631    1.4308 C   0  0  0  0  0  0  0  0  0  0  0  0
   -3.8188    3.2031    2.7991 C   0  0  0  0  0  0  0  0  0  0  0  0
   -3.2129    4.4954    3.3611 C   0  0  0  0  0  0  0  0  0  0  0  0
   -3.4189    5.6577    2.4952 N   0  0  0  0  0  0  0  0  0  0  0  0
   -4.7560    6.0489    2.1899 C   0  0  0  0  0  0  0  0  0  0  0  0
   -5.7828    5.9066    3.1379 C   0  0  0  0  0  0  0  0  0  0  0  0
   -7.1111    6.1951    2.8175 C   0  0  0  0  0  0  0  0  0  0  0  0
   -7.4386    6.6430    1.5354 C   0  0  0  0  0  0  0  0  0  0  0  0
   -6.4255    6.8048    0.5921 C   0  0  0  0  0  0  0  0  0  0  0  0
   -5.0776    6.5295    0.8943 C   0  0  0  0  0  0  0  0  0  0  0  0
   -4.0651    6.7576   -0.1390 C   0  0  0  0  0  0  0  0  0  0  0  0
   -2.7727    7.1136    0.0392 C   0  0  0  0  0  0  0  0  0  0  0  0
   -2.0749    7.3459    1.3055 C   0  0  0  0  0  0  0  0  0  0  0  0
   -1.0060    8.2627    1.3313 C   0  0  0  0  0  0  0  0  0  0  0  0
   -0.3055    8.5439    2.5031 C   0  0  0  0  0  0  0  0  0  0  0  0
   -0.6709    7.8996    3.6874 C   0  0  0  0  0  0  0  0  0  0  0  0
   -1.7230    6.9810    3.6867 C   0  0  0  0  0  0  0  0  0  0  0  0
   -2.4242    6.6769    2.5079 C   0  0  0  0  0  0  0  0  0  0  0  0
   -0.7969    3.2857    1.0483 C   0  0  0  0  0  0  0  0  0  0  0  0
    0.5563    2.9380    1.0947 C   0  0  0  0  0  0  0  0  0  0  0  0
    2.8801    1.7282   -0.7883 O   0  0  0  0  0  0  0  0  0  0  0  0
    2.2146    1.3705   -2.0057 C   0  0  0  0  0  0  0  0  0  0  0  0
    2.3942    2.4794   -3.0087 C   0  0  0  0  0  0  0  0  0  0  0  0
    3.5004    2.4851   -3.8716 C   0  0  0  0  0  0  0  0  0  0  0  0
    3.6934    3.5329   -4.7758 C   0  0  0  0  0  0  0  0  0  0  0  0
    2.7791    4.5897   -4.8251 C   0  0  0  0  0  0  0  0  0  0  0  0
    1.6739    4.5941   -3.9681 C   0  0  0  0  0  0  0  0  0  0  0  0
    1.4843    3.5456   -3.0644 C   0  0  0  0  0  0  0  0  0  0  0  0
    4.7346    1.5419   -0.8615 H   0  0  0  0  0  0  0  0  0  0  0  0
    2.2812   -0.1368   -0.0673 H   0  0  0  0  0  0  0  0  0  0  0  0
    3.0520    2.1462    1.8198 H   0  0  0  0  0  0  0  0  0  0  0  0
    2.6084    0.5028    2.3192 H   0  0  0  0  0  0  0  0  0  0  0  0
    0.2546   -0.2248    2.3081 H   0  0  0  0  0  0  0  0  0  0  0  0
   -2.1368    0.3884    2.2188 H   0  0  0  0  0  0  0  0  0  0  0  0
   -3.8524    1.9009    1.0823 H   0  0  0  0  0  0  0  0  0  0  0  0
   -3.4207    3.5741    0.7039 H   0  0  0  0  0  0  0  0  0  0  0  0
   -3.6420    2.4074    3.5437 H   0  0  0  0  0  0  0  0  0  0  0  0
   -4.9128    3.3073    2.7168 H   0  0  0  0  0  0  0  0  0  0  0  0
   -2.1251    4.3650    3.4574 H   0  0  0  0  0  0  0  0  0  0  0  0
   -3.5934    4.6513    4.3912 H   0  0  0  0  0  0  0  0  0  0  0  0
   -5.5417    5.5488    4.1400 H   0  0  0  0  0  0  0  0  0  0  0  0
   -7.8904    6.0620    3.5723 H   0  0  0  0  0  0  0  0  0  0  0  0
   -8.4761    6.8609    1.2713 H   0  0  0  0  0  0  0  0  0  0  0  0
   -6.6721    7.1554   -0.4140 H   0  0  0  0  0  0  0  0  0  0  0  0
   -4.4380    6.7344   -1.1687 H   0  0  0  0  0  0  0  0  0  0  0  0
   -2.1946    7.3533   -0.8600 H   0  0  0  0  0  0  0  0  0  0  0  0
   -0.7245    8.7599    0.3988 H   0  0  0  0  0  0  0  0  0  0  0  0
    0.5218    9.2573    2.4915 H   0  0  0  0  0  0  0  0  0  0  0  0
   -0.1345    8.1060    4.6171 H   0  0  0  0  0  0  0  0  0  0  0  0
   -1.9979    6.4824    4.6175 H   0  0  0  0  0  0  0  0  0  0  0  0
   -1.0868    4.2798    0.6971 H   0  0  0  0  0  0  0  0  0  0  0  0
    1.3110    3.6607    0.7743 H   0  0  0  0  0  0  0  0  0  0  0  0
    1.1440    1.2034   -1.7952 H   0  0  0  0  0  0  0  0  0  0  0  0
    2.6369    0.4270   -2.3995 H   0  0  0  0  0  0  0  0  0  0  0  0
    4.2159    1.6576   -3.8383 H   0  0  0  0  0  0  0  0  0  0  0  0
    4.5572    3.5230   -5.4453 H   0  0  0  0  0  0  0  0  0  0  0  0
    2.9264    5.4086   -5.5339 H   0  0  0  0  0  0  0  0  0  0  0  0
    0.9559    5.4174   -4.0052 H   0  0  0  0  0  0  0  0  0  0  0  0
    0.6215    3.5508   -2.3926 H   0  0  0  0  0  0  0  0  0  0  0  0
  1  2  2  0
  2  3  1  0
  2  4  1  0
  3 38  1  0
  4  5  1  0
  4 30  1  0
  4 39  1  6
  5  6  1  0
  5 40  1  0
  5 41  1  0
  6  7  2  0
  6 29  1  0
  7  8  1  0
  7 42  1  0
  8  9  2  0
  8 43  1  0
  9 10  1  0
  9 28  1  0
 10 11  1  0
 10 44  1  0
 10 45  1  0
 11 12  1  0
 11 46  1  0
 11 47  1  0
 12 13  1  0
 12 48  1  0
 12 49  1  0
 13 14  1  0
 13 27  1  0
 14 15  2  0
 14 19  1  0
 15 16  1  0
 15 50  1  0
 16 17  2  0
 16 51  1  0
 17 18  1  0
 17 52  1  0
 18 19  2  0
 18 53  1  0
 19 20  1  0
 20 21  2  0
 20 54  1  0
 21 22  1  0
 21 55  1  0
 22 23  1  0
 22 27  2  0
 23 24  2  0
 23 56  1  0
 24 25  1  0
 24 57  1  0
 25 26  2  0
 25 58  1  0
 26 27  1  0
 26 59  1  0
 28 29  2  0
 28 60  1  0
 29 61  1  0
 30 31  1  0
 31 32  1  0
 31 62  1  0
 31 63  1  0
 32 33  2  0
 32 37  1  0
 33 34  1  0
 33 64  1  0
 34 35  2  0
 34 65  1  0
 35 36  1  0
 35 66  1  0
 36 37  2  0
 36 67  1  0
 37 68  1  0
M  END

