
     RDKit          3D

 43 43  0  0  0  0  0  0  0  0999 V2000
    1.3273    2.5337   -0.1333 C   0  0  0  0  0  0  0  0  0  0  0  0
    2.2625    2.0988    1.0054 C   0  0  1  0  0  0  0  0  0  0  0  0
    1.4541    1.3349    2.0664 C   0  0  0  0  0  0  0  0  0  0  0  0
    3.4865    1.2937    0.4880 C   0  0  1  0  0  0  0  0  0  0  0  0
    4.2823    2.0479   -0.5886 C   0  0  0  0  0  0  0  0  0  0  0  0
    4.4308    0.8239    1.6175 C   0  0  0  0  0  0  0  0  0  0  0  0
    5.0510    1.8981    2.3759 N   0  0  0  0  0  0  0  0  0  0  0  0
    6.3779    2.2222    2.2239 C   0  0  0  0  0  0  0  0  0  0  0  0
    7.1257    1.5925    1.4861 O   0  0  0  0  0  0  0  0  0  0  0  0
    6.8373    3.3178    2.9528 N   0  0  0  0  0  0  0  0  0  0  0  0
    8.2692    3.5800    2.9800 C   0  0  0  0  0  0  0  0  0  0  0  0
    8.5210    5.0736    2.8240 C   0  0  0  0  0  0  0  0  0  0  0  0
    7.8011    5.8195    3.7949 O   0  0  0  0  0  0  0  0  0  0  0  0
    6.4039    5.6030    3.7165 C   0  0  2  0  0  0  0  0  0  0  0  0
    5.7751    6.4963    4.7812 C   0  0  0  0  0  0  0  0  0  0  0  0
    4.2583    6.5860    4.7198 C   0  0  0  0  0  0  0  0  0  0  0  0
    3.5536    5.8812    4.0464 O   0  0  0  0  0  0  0  0  0  0  0  0
    3.7082    7.5298    5.5137 O   0  0  0  0  0  0  0  0  0  0  0  0
    6.0667    4.1129    3.8895 C   0  0  0  0  0  0  0  0  0  0  0  0
    0.4552    3.0767    0.2651 H   0  0  0  0  0  0  0  0  0  0  0  0
    0.9471    1.6582   -0.6887 H   0  0  0  0  0  0  0  0  0  0  0  0
    1.8241    3.1982   -0.8548 H   0  0  0  0  0  0  0  0  0  0  0  0
    2.6531    3.0212    1.4775 H   0  0  0  0  0  0  0  0  0  0  0  0
    1.0829    0.3750    1.6665 H   0  0  0  0  0  0  0  0  0  0  0  0
    0.5772    1.9213    2.3840 H   0  0  0  0  0  0  0  0  0  0  0  0
    2.0363    1.1103    2.9735 H   0  0  0  0  0  0  0  0  0  0  0  0
    3.0925    0.3636    0.0324 H   0  0  0  0  0  0  0  0  0  0  0  0
    4.5967    3.0406   -0.2259 H   0  0  0  0  0  0  0  0  0  0  0  0
    3.6958    2.1982   -1.5067 H   0  0  0  0  0  0  0  0  0  0  0  0
    5.1962    1.4976   -0.8579 H   0  0  0  0  0  0  0  0  0  0  0  0
    5.2527    0.2399    1.1821 H   0  0  0  0  0  0  0  0  0  0  0  0
    3.8942    0.1579    2.3126 H   0  0  0  0  0  0  0  0  0  0  0  0
    4.4792    2.4025    3.0374 H   0  0  0  0  0  0  0  0  0  0  0  0
    8.7351    3.0075    2.1682 H   0  0  0  0  0  0  0  0  0  0  0  0
    8.7033    3.2374    3.9412 H   0  0  0  0  0  0  0  0  0  0  0  0
    8.2271    5.3974    1.8053 H   0  0  0  0  0  0  0  0  0  0  0  0
    9.5856    5.3093    2.9725 H   0  0  0  0  0  0  0  0  0  0  0  0
    6.0347    5.9116    2.7168 H   0  0  0  0  0  0  0  0  0  0  0  0
    6.2119    7.5044    4.6780 H   0  0  0  0  0  0  0  0  0  0  0  0
    6.0673    6.1399    5.7862 H   0  0  0  0  0  0  0  0  0  0  0  0
    4.3941    8.0285    5.9806 H   0  0  0  0  0  0  0  0  0  0  0  0
    4.9898    4.0101    3.7194 H   0  0  0  0  0  0  0  0  0  0  0  0
    6.2860    3.8159    4.9371 H   0  0  0  0  0  0  0  0  0  0  0  0
  1  2  1  0
  1 20  1  0
  1 21  1  0
  1 22  1  0
  2  3  1  0
  2  4  1  0
  2 23  1  1
  3 24  1  0
  3 25  1  0
  3 26  1  0
  4  5  1  0
  4  6  1  0
  4 27  1  6
  5 28  1  0
  5 29  1  0
  5 30  1  0
  6  7  1  0
  6 31  1  0
  6 32  1  0
  7  8  1  0
  7 33  1  0
  8  9  2  0
  8 10  1  0
 10 11  1  0
 10 19  1  0
 11 12  1  0
 11 34  1  0
 11 35  1  0
 12 13  1  0
 12 36  1  0
 12 37  1  0
 13 14  1  0
 14 15  1  0
 14 19  1  0
 14 38  1  6
 15 16  1  0
 15 39  1  0
 15 40  1  0
 16 17  2  0
 16 18  1  0
 18 41  1  0
 19 42  1  0
 19 43  1  0
M  END

