
     RDKit          3D

 34 35  0  0  0  0  0  0  0  0999 V2000
    1.1149    0.0429    0.7382 C   0  0  0  0  0  0  0  0  0  0  0  0
    2.5829    0.0653    0.3868 C   0  0  0  0  0  0  0  0  0  0  0  0
    3.5293   -0.6437    1.1425 C   0  0  0  0  0  0  0  0  0  0  0  0
    4.8878   -0.6099    0.8198 C   0  0  0  0  0  0  0  0  0  0  0  0
    5.3481    0.1342   -0.2767 C   0  0  0  0  0  0  0  0  0  0  0  0
    6.8239    0.1902   -0.6128 C   0  0  0  0  0  0  0  0  0  0  0  0
    7.4098   -1.1343   -0.6588 N   0  0  0  0  0  0  0  0  0  0  0  0
    8.7576   -1.3633   -0.8836 C   0  0  0  0  0  0  0  0  0  0  0  0
    9.7199   -0.3328   -0.8383 C   0  0  0  0  0  0  0  0  0  0  0  0
   11.0719   -0.6301   -1.0315 C   0  0  0  0  0  0  0  0  0  0  0  0
   11.4986   -1.9342   -1.2818 C   0  0  0  0  0  0  0  0  0  0  0  0
   10.5499   -2.9687   -1.3498 C   0  0  0  0  0  0  0  0  0  0  0  0
   10.9794   -4.3894   -1.6686 C   0  0  0  0  0  0  0  0  0  0  0  0
   10.1085   -5.3834   -1.1728 O   0  0  0  0  0  0  0  0  0  0  0  0
    9.2002   -2.6787   -1.1508 C   0  0  0  0  0  0  0  0  0  0  0  0
    4.4050    0.8385   -1.0387 C   0  0  0  0  0  0  0  0  0  0  0  0
    3.0482    0.8069   -0.7107 C   0  0  0  0  0  0  0  0  0  0  0  0
    0.9031   -0.6702    1.5485 H   0  0  0  0  0  0  0  0  0  0  0  0
    0.4973   -0.2389   -0.1305 H   0  0  0  0  0  0  0  0  0  0  0  0
    0.7680    1.0368    1.0691 H   0  0  0  0  0  0  0  0  0  0  0  0
    3.1970   -1.2324    2.0027 H   0  0  0  0  0  0  0  0  0  0  0  0
    5.6046   -1.1721    1.4242 H   0  0  0  0  0  0  0  0  0  0  0  0
    7.3472    0.7792    0.1632 H   0  0  0  0  0  0  0  0  0  0  0  0
    6.9646    0.7457   -1.5632 H   0  0  0  0  0  0  0  0  0  0  0  0
    6.7868   -1.8644   -0.9851 H   0  0  0  0  0  0  0  0  0  0  0  0
    9.4204    0.6987   -0.6499 H   0  0  0  0  0  0  0  0  0  0  0  0
   11.8044    0.1806   -0.9832 H   0  0  0  0  0  0  0  0  0  0  0  0
   12.5608   -2.1514   -1.4243 H   0  0  0  0  0  0  0  0  0  0  0  0
   12.0208   -4.5417   -1.3192 H   0  0  0  0  0  0  0  0  0  0  0  0
   10.9982   -4.5309   -2.7637 H   0  0  0  0  0  0  0  0  0  0  0  0
   10.0423   -5.2643   -0.2153 H   0  0  0  0  0  0  0  0  0  0  0  0
    8.4742   -3.4950   -1.1977 H   0  0  0  0  0  0  0  0  0  0  0  0
    4.7372    1.4191   -1.9044 H   0  0  0  0  0  0  0  0  0  0  0  0
    2.3351    1.3651   -1.3250 H   0  0  0  0  0  0  0  0  0  0  0  0
  1  2  1  0
  1 18  1  0
  1 19  1  0
  1 20  1  0
  2  3  2  0
  2 17  1  0
  3  4  1  0
  3 21  1  0
  4  5  2  0
  4 22  1  0
  5  6  1  0
  5 16  1  0
  6  7  1  0
  6 23  1  0
  6 24  1  0
  7  8  1  0
  7 25  1  0
  8  9  2  0
  8 15  1  0
  9 10  1  0
  9 26  1  0
 10 11  2  0
 10 27  1  0
 11 12  1  0
 11 28  1  0
 12 13  1  0
 12 15  2  0
 13 14  1  0
 13 29  1  0
 13 30  1  0
 14 31  1  0
 15 32  1  0
 16 17  2  0
 16 33  1  0
 17 34  1  0
M  END

