
     RDKit          3D

 62 64  0  0  0  0  0  0  0  0999 V2000
   -0.9110    2.8055    9.1179 C   0  0  0  0  0  0  0  0  0  0  0  0
    0.1148    1.8615    8.9004 O   0  0  0  0  0  0  0  0  0  0  0  0
    1.3597    2.2881    8.5845 C   0  0  0  0  0  0  0  0  0  0  0  0
    1.7265    3.6387    8.4477 C   0  0  0  0  0  0  0  0  0  0  0  0
    3.0408    3.9703    8.1182 C   0  0  0  0  0  0  0  0  0  0  0  0
    4.0097    2.9751    7.9191 C   0  0  0  0  0  0  0  0  0  0  0  0
    5.3926    3.3228    7.5736 C   0  0  0  0  0  0  0  0  0  0  0  0
    5.8185    4.5611    7.4570 N   0  0  0  0  0  0  0  0  0  0  0  0
    7.1635    4.4177    7.1235 O   0  0  0  0  0  0  0  0  0  0  0  0
    7.4150    3.1046    7.0776 C   0  0  0  0  0  0  0  0  0  0  0  0
    8.8168    2.6717    6.7528 C   0  0  0  0  0  0  0  0  0  0  0  0
    8.9264    1.2540    6.4898 N   0  0  0  0  0  0  0  0  0  0  0  0
    8.3230    0.7480    5.2660 C   0  0  0  0  0  0  0  0  0  0  0  0
    9.3950    0.4537    7.5154 C   0  0  0  0  0  0  0  0  0  0  0  0
    9.8138    0.9323    8.5573 O   0  0  0  0  0  0  0  0  0  0  0  0
    9.3806   -1.0547    7.2804 C   0  0  0  0  0  0  0  0  0  0  0  0
    9.8652   -1.8351    8.5004 C   0  0  0  0  0  0  0  0  0  0  0  0
    9.8734   -3.3441    8.2499 C   0  0  0  0  0  0  0  0  0  0  0  0
   10.3401   -4.1286    9.4030 N   0  0  0  0  0  0  0  0  0  0  0  0
   11.7456   -4.2717    9.6414 C   0  0  0  0  0  0  0  0  0  0  0  0
   12.4752   -5.3227    9.0541 C   0  0  0  0  0  0  0  0  0  0  0  0
   13.8426   -5.4373    9.2633 C   0  0  0  0  0  0  0  0  0  0  0  0
   14.5226   -4.5008   10.0654 C   0  0  0  0  0  0  0  0  0  0  0  0
   15.8561   -4.6943   10.2057 O   0  0  0  0  0  0  0  0  0  0  0  0
   16.6061   -3.8028   11.0001 C   0  0  0  0  0  0  0  0  0  0  0  0
   13.8044   -3.4520   10.6592 C   0  0  0  0  0  0  0  0  0  0  0  0
   12.4247   -3.3502   10.4460 C   0  0  0  0  0  0  0  0  0  0  0  0
    9.2810   -5.2047   10.1677 S   0  0  1  0  0  0  0  0  0  0  0  0
    9.0693   -4.5098   11.8149 C   0  0  0  0  0  0  0  0  0  0  0  0
    7.9909   -5.1059    9.4779 O   0  0  0  0  0  0  0  0  0  0  0  0
    9.9455   -6.4976   10.3416 O   0  0  0  0  0  0  0  0  0  0  0  0
    6.3747    2.3771    7.3380 N   0  0  0  0  0  0  0  0  0  0  0  0
    3.6327    1.6259    8.0591 C   0  0  0  0  0  0  0  0  0  0  0  0
    2.3272    1.2856    8.3869 C   0  0  0  0  0  0  0  0  0  0  0  0
   -1.8166    2.2325    9.3579 H   0  0  0  0  0  0  0  0  0  0  0  0
   -1.1031    3.4180    8.2187 H   0  0  0  0  0  0  0  0  0  0  0  0
   -0.6783    3.4775    9.9633 H   0  0  0  0  0  0  0  0  0  0  0  0
    0.9982    4.4361    8.5955 H   0  0  0  0  0  0  0  0  0  0  0  0
    3.3244    5.0193    8.0125 H   0  0  0  0  0  0  0  0  0  0  0  0
    9.4611    2.9007    7.6153 H   0  0  0  0  0  0  0  0  0  0  0  0
    9.1792    3.2614    5.8932 H   0  0  0  0  0  0  0  0  0  0  0  0
    8.4474    1.4961    4.4677 H   0  0  0  0  0  0  0  0  0  0  0  0
    7.2437    0.5487    5.3828 H   0  0  0  0  0  0  0  0  0  0  0  0
    8.8209   -0.1702    4.9302 H   0  0  0  0  0  0  0  0  0  0  0  0
   10.0113   -1.2858    6.4024 H   0  0  0  0  0  0  0  0  0  0  0  0
    8.3588   -1.3674    7.0022 H   0  0  0  0  0  0  0  0  0  0  0  0
    9.2165   -1.6083    9.3615 H   0  0  0  0  0  0  0  0  0  0  0  0
   10.8714   -1.4845    8.7766 H   0  0  0  0  0  0  0  0  0  0  0  0
   10.5188   -3.5845    7.3856 H   0  0  0  0  0  0  0  0  0  0  0  0
    8.8619   -3.6955    8.0023 H   0  0  0  0  0  0  0  0  0  0  0  0
   11.9473   -6.0600    8.4475 H   0  0  0  0  0  0  0  0  0  0  0  0
   14.4176   -6.2520    8.8187 H   0  0  0  0  0  0  0  0  0  0  0  0
   17.6462   -4.1540   10.9677 H   0  0  0  0  0  0  0  0  0  0  0  0
   16.2628   -3.7994   12.0504 H   0  0  0  0  0  0  0  0  0  0  0  0
   16.5653   -2.7698   10.6098 H   0  0  0  0  0  0  0  0  0  0  0  0
   14.3013   -2.7125   11.2871 H   0  0  0  0  0  0  0  0  0  0  0  0
   11.8667   -2.5346   10.9113 H   0  0  0  0  0  0  0  0  0  0  0  0
    8.6007   -3.5219   11.7247 H   0  0  0  0  0  0  0  0  0  0  0  0
   10.0512   -4.4481   12.3013 H   0  0  0  0  0  0  0  0  0  0  0  0
    8.4158   -5.2046   12.3601 H   0  0  0  0  0  0  0  0  0  0  0  0
    4.3835    0.8484    7.9090 H   0  0  0  0  0  0  0  0  0  0  0  0
    2.0229    0.2433    8.4995 H   0  0  0  0  0  0  0  0  0  0  0  0
  1  2  1  0
  1 35  1  0
  1 36  1  0
  1 37  1  0
  2  3  1  0
  3  4  2  0
  3 34  1  0
  4  5  1  0
  4 38  1  0
  5  6  2  0
  5 39  1  0
  6  7  1  0
  6 33  1  0
  7  8  2  0
  7 32  1  0
  8  9  1  0
  9 10  1  0
 10 11  1  0
 10 32  2  0
 11 12  1  0
 11 40  1  0
 11 41  1  0
 12 13  1  0
 12 14  1  0
 13 42  1  0
 13 43  1  0
 13 44  1  0
 14 15  2  0
 14 16  1  0
 16 17  1  0
 16 45  1  0
 16 46  1  0
 17 18  1  0
 17 47  1  0
 17 48  1  0
 18 19  1  0
 18 49  1  0
 18 50  1  0
 19 20  1  0
 28 19  1  6
 20 21  2  0
 20 27  1  0
 21 22  1  0
 21 51  1  0
 22 23  2  0
 22 52  1  0
 23 24  1  0
 23 26  1  0
 24 25  1  0
 25 53  1  0
 25 54  1  0
 25 55  1  0
 26 27  2  0
 26 56  1  0
 27 57  1  0
 28 29  1  0
 28 30  2  0
 28 31  2  0
 29 58  1  0
 29 59  1  0
 29 60  1  0
 33 34  2  0
 33 61  1  0
 34 62  1  0
M  END

