
     RDKit          3D

 60 64  0  0  0  0  0  0  0  0999 V2000
    2.9315    0.3721   -4.2149 C   0  0  0  0  0  0  0  0  0  0  0  0
    3.8530    0.6586   -3.1591 O   0  0  0  0  0  0  0  0  0  0  0  0
    3.8138   -0.1461   -2.0960 C   0  0  0  0  0  0  0  0  0  0  0  0
    3.0324   -1.0553   -1.9586 O   0  0  0  0  0  0  0  0  0  0  0  0
    4.9716    0.1749   -1.0877 C   0  0  2  0  0  0  0  0  0  0  0  0
    4.8281    1.5568   -0.4429 C   0  0  0  0  0  0  0  0  0  0  0  0
    3.6324    2.2804   -0.5888 C   0  0  0  0  0  0  0  0  0  0  0  0
    3.4313    3.5308   -0.0063 C   0  0  0  0  0  0  0  0  0  0  0  0
    4.4643    4.0798    0.7448 C   0  0  0  0  0  0  0  0  0  0  0  0
    4.3058    5.2814    1.3088 F   0  0  0  0  0  0  0  0  0  0  0  0
    5.6648    3.4017    0.9321 C   0  0  0  0  0  0  0  0  0  0  0  0
    5.8392    2.1434    0.3484 C   0  0  0  0  0  0  0  0  0  0  0  0
    7.5030    1.2895    0.7199 Br  0  0  0  0  0  0  0  0  0  0  0  0
    6.1882    0.0634   -1.8304 O   0  0  0  0  0  0  0  0  0  0  0  0
    6.7511   -1.2263   -1.6180 N   0  0  0  0  0  0  0  0  0  0  0  0
    6.1045   -1.7316   -0.6166 C   0  0  0  0  0  0  0  0  0  0  0  0
    6.3846   -3.0412    0.0006 C   0  0  0  0  0  0  0  0  0  0  0  0
    7.4967   -3.7122   -0.3906 C   0  0  0  0  0  0  0  0  0  0  0  0
    7.9891   -5.0346    0.0070 C   0  0  0  0  0  0  0  0  0  0  0  0
    7.1734   -6.0951    0.4427 C   0  0  0  0  0  0  0  0  0  0  0  0
    7.7365   -7.3230    0.7900 C   0  0  0  0  0  0  0  0  0  0  0  0
    9.1140   -7.5492    0.7077 C   0  0  0  0  0  0  0  0  0  0  0  0
    9.6471   -8.8201    1.0311 N   0  0  0  0  0  0  0  0  0  0  0  0
   10.7837   -9.1080    1.7551 C   0  0  0  0  0  0  0  0  0  0  0  0
   10.9436  -10.3939    1.9343 N   0  0  0  0  0  0  0  0  0  0  0  0
    9.8785  -11.0049    1.3036 C   0  0  0  0  0  0  0  0  0  0  0  0
    9.7305  -12.4933    1.2771 C   0  0  0  0  0  0  0  0  0  0  0  0
    9.0609  -10.0493    0.7457 C   0  0  0  0  0  0  0  0  0  0  0  0
    9.9504   -6.4977    0.2500 C   0  0  0  0  0  0  0  0  0  0  0  0
   11.2755   -6.7652    0.1694 O   0  0  0  0  0  0  0  0  0  0  0  0
   12.1573   -5.7932   -0.3528 C   0  0  0  0  0  0  0  0  0  0  0  0
    9.3786   -5.2712   -0.0962 C   0  0  0  0  0  0  0  0  0  0  0  0
    5.3824   -3.4769    1.0502 C   0  0  0  0  0  0  0  0  0  0  0  0
    4.8254   -2.2824    1.8396 C   0  0  0  0  0  0  0  0  0  0  0  0
    4.1711   -1.2591    0.9141 C   0  0  0  0  0  0  0  0  0  0  0  0
    5.1108   -0.9067   -0.1336 N   0  0  0  0  0  0  0  0  0  0  0  0
    3.1124    1.1265   -4.9897 H   0  0  0  0  0  0  0  0  0  0  0  0
    1.8930    0.4308   -3.8551 H   0  0  0  0  0  0  0  0  0  0  0  0
    3.1068   -0.6374   -4.6155 H   0  0  0  0  0  0  0  0  0  0  0  0
    2.8208    1.8588   -1.1826 H   0  0  0  0  0  0  0  0  0  0  0  0
    2.4963    4.0788   -0.1317 H   0  0  0  0  0  0  0  0  0  0  0  0
    6.4517    3.8549    1.5353 H   0  0  0  0  0  0  0  0  0  0  0  0
    8.1378   -3.1786   -1.0999 H   0  0  0  0  0  0  0  0  0  0  0  0
    6.0912   -5.9823    0.4850 H   0  0  0  0  0  0  0  0  0  0  0  0
    7.0945   -8.1340    1.1385 H   0  0  0  0  0  0  0  0  0  0  0  0
   11.4395   -8.3207    2.1194 H   0  0  0  0  0  0  0  0  0  0  0  0
   10.5998  -12.9664    0.7912 H   0  0  0  0  0  0  0  0  0  0  0  0
    8.8231  -12.7983    0.7350 H   0  0  0  0  0  0  0  0  0  0  0  0
    9.6761  -12.9000    2.3006 H   0  0  0  0  0  0  0  0  0  0  0  0
    8.1548  -10.1263    0.1511 H   0  0  0  0  0  0  0  0  0  0  0  0
   13.1561   -6.2487   -0.3477 H   0  0  0  0  0  0  0  0  0  0  0  0
   12.1749   -4.8803    0.2684 H   0  0  0  0  0  0  0  0  0  0  0  0
   11.8923   -5.5170   -1.3885 H   0  0  0  0  0  0  0  0  0  0  0  0
   10.0138   -4.4630   -0.4583 H   0  0  0  0  0  0  0  0  0  0  0  0
    5.8508   -4.1940    1.7387 H   0  0  0  0  0  0  0  0  0  0  0  0
    4.5405   -4.0084    0.5660 H   0  0  0  0  0  0  0  0  0  0  0  0
    5.6424   -1.7988    2.4013 H   0  0  0  0  0  0  0  0  0  0  0  0
    4.0835   -2.6300    2.5752 H   0  0  0  0  0  0  0  0  0  0  0  0
    3.9054   -0.3467    1.4736 H   0  0  0  0  0  0  0  0  0  0  0  0
    3.2407   -1.6672    0.4803 H   0  0  0  0  0  0  0  0  0  0  0  0
  1  2  1  0
  1 37  1  0
  1 38  1  0
  1 39  1  0
  2  3  1  0
  3  4  2  0
  5  3  1  6
  5  6  1  0
  5 14  1  0
  5 36  1  0
  6  7  2  0
  6 12  1  0
  7  8  1  0
  7 40  1  0
  8  9  2  0
  8 41  1  0
  9 10  1  0
  9 11  1  0
 11 12  2  0
 11 42  1  0
 12 13  1  0
 14 15  1  0
 15 16  2  0
 16 17  1  0
 16 36  1  0
 17 18  2  0
 17 33  1  0
 18 19  1  0
 18 43  1  0
 19 20  2  0
 19 32  1  0
 20 21  1  0
 20 44  1  0
 21 22  2  0
 21 45  1  0
 22 23  1  0
 22 29  1  0
 23 24  1  0
 23 28  1  0
 24 25  2  0
 24 46  1  0
 25 26  1  0
 26 27  1  0
 26 28  2  0
 27 47  1  0
 27 48  1  0
 27 49  1  0
 28 50  1  0
 29 30  1  0
 29 32  2  0
 30 31  1  0
 31 51  1  0
 31 52  1  0
 31 53  1  0
 32 54  1  0
 33 34  1  0
 33 55  1  0
 33 56  1  0
 34 35  1  0
 34 57  1  0
 34 58  1  0
 35 36  1  0
 35 59  1  0
 35 60  1  0
M  END

