
     RDKit          3D

 66 71  0  0  0  0  0  0  0  0999 V2000
    4.6644    3.7377    0.2198 C   0  0  0  0  0  0  0  0  0  0  0  0
    5.2712    2.6461    1.0690 C   0  0  0  0  0  0  0  0  0  0  0  0
    5.3890    2.7865    2.4681 C   0  0  0  0  0  0  0  0  0  0  0  0
    5.9346    1.7839    3.2632 C   0  0  0  0  0  0  0  0  0  0  0  0
    6.3871    0.5938    2.6712 C   0  0  0  0  0  0  0  0  0  0  0  0
    6.9316   -0.4356    3.4127 N   0  0  0  0  0  0  0  0  0  0  0  0
    7.0030   -0.3387    4.4220 H   0  0  0  0  0  0  0  0  0  0  0  0
    7.4100   -1.6403    2.9206 C   0  0  0  0  0  0  0  0  0  0  0  0
    7.8762   -2.4780    3.6900 O   0  0  0  0  0  0  0  0  0  0  0  0
    7.3022   -1.8101    1.4578 C   0  0  0  0  0  0  0  0  0  0  0  0
    7.8800   -3.1186    0.9231 C   0  0  1  0  0  0  0  0  0  0  0  0
    7.8711   -3.8019    1.7859 H   0  0  0  0  0  0  0  0  0  0  0  0
    7.0536   -3.7718   -0.1616 C   0  0  0  0  0  0  0  0  0  0  0  0
    6.1220   -3.2299   -0.9262 N   0  0  0  0  0  0  0  0  0  0  0  0
    5.6859   -4.1999   -1.7546 N   0  0  0  0  0  0  0  0  0  0  0  0
    6.3107   -5.3033   -1.5318 N   0  0  0  0  0  0  0  0  0  0  0  0
    7.1878   -5.0703   -0.5385 N   0  0  0  0  0  0  0  0  0  0  0  0
    8.0837   -6.1063    0.0085 C   0  0  1  0  0  0  0  0  0  0  0  0
    7.3815   -6.9506    1.0907 C   0  0  0  0  0  0  0  0  0  0  0  0
    6.4234   -7.9981    0.5109 C   0  0  0  0  0  0  0  0  0  0  0  0
    7.1423   -8.9085   -0.4935 C   0  0  0  0  0  0  0  0  0  0  0  0
    7.7793   -8.0950   -1.6281 C   0  0  0  0  0  0  0  0  0  0  0  0
    8.7031   -6.9910   -1.0912 C   0  0  0  0  0  0  0  0  0  0  0  0
    9.2824   -3.0493    0.4881 N   0  0  0  0  0  0  0  0  0  0  0  0
   10.3118   -3.0749    1.5465 C   0  0  0  0  0  0  0  0  0  0  0  0
   11.2789   -1.8974    1.4432 C   0  0  0  0  0  0  0  0  0  0  0  0
   11.9186   -1.8868    0.1438 N   0  0  0  0  0  0  0  0  0  0  0  0
   12.7279   -0.7231   -0.1815 C   0  0  0  0  0  0  0  0  0  0  0  0
   12.8670   -0.7998   -1.7032 C   0  0  0  0  0  0  0  0  0  0  0  0
   11.4721   -1.2820   -2.1300 C   0  0  0  0  0  0  0  0  0  0  0  0
   11.0535   -2.2460   -1.0022 C   0  0  2  0  0  0  0  0  0  0  0  0
   11.2601   -3.2919   -1.3032 H   0  0  0  0  0  0  0  0  0  0  0  0
    9.5704   -2.1627   -0.6329 C   0  0  0  0  0  0  0  0  0  0  0  0
    6.7589   -0.8145    0.6982 C   0  0  0  0  0  0  0  0  0  0  0  0
    6.2870    0.4229    1.2679 C   0  0  0  0  0  0  0  0  0  0  0  0
    5.7261    1.4588    0.4947 C   0  0  0  0  0  0  0  0  0  0  0  0
    4.4344    4.6326    0.8165 H   0  0  0  0  0  0  0  0  0  0  0  0
    3.7261    3.4029   -0.2539 H   0  0  0  0  0  0  0  0  0  0  0  0
    5.3444    4.0415   -0.5930 H   0  0  0  0  0  0  0  0  0  0  0  0
    5.0405    3.7077    2.9431 H   0  0  0  0  0  0  0  0  0  0  0  0
    6.0121    1.9171    4.3455 H   0  0  0  0  0  0  0  0  0  0  0  0
    8.8951   -5.5247    0.4652 H   0  0  0  0  0  0  0  0  0  0  0  0
    6.8633   -6.2862    1.8015 H   0  0  0  0  0  0  0  0  0  0  0  0
    8.1755   -7.4605    1.6647 H   0  0  0  0  0  0  0  0  0  0  0  0
    5.5801   -7.4926    0.0101 H   0  0  0  0  0  0  0  0  0  0  0  0
    5.9911   -8.5933    1.3323 H   0  0  0  0  0  0  0  0  0  0  0  0
    6.4390   -9.6492   -0.9086 H   0  0  0  0  0  0  0  0  0  0  0  0
    7.9245   -9.4854    0.0359 H   0  0  0  0  0  0  0  0  0  0  0  0
    6.9866   -7.6386   -2.2393 H   0  0  0  0  0  0  0  0  0  0  0  0
    8.3598   -8.7564   -2.2931 H   0  0  0  0  0  0  0  0  0  0  0  0
    9.0711   -6.3523   -1.9100 H   0  0  0  0  0  0  0  0  0  0  0  0
    9.5944   -7.4580   -0.6359 H   0  0  0  0  0  0  0  0  0  0  0  0
   10.9014   -4.0092    1.4711 H   0  0  0  0  0  0  0  0  0  0  0  0
    9.8315   -3.0648    2.5350 H   0  0  0  0  0  0  0  0  0  0  0  0
   12.0430   -1.9910    2.2358 H   0  0  0  0  0  0  0  0  0  0  0  0
   10.7316   -0.9478    1.6526 H   0  0  0  0  0  0  0  0  0  0  0  0
   13.6990   -0.7496    0.3445 H   0  0  0  0  0  0  0  0  0  0  0  0
   12.2310    0.2325    0.1117 H   0  0  0  0  0  0  0  0  0  0  0  0
   13.6326   -1.5456   -1.9733 H   0  0  0  0  0  0  0  0  0  0  0  0
   13.1545    0.1598   -2.1587 H   0  0  0  0  0  0  0  0  0  0  0  0
   11.4557   -1.7588   -3.1216 H   0  0  0  0  0  0  0  0  0  0  0  0
   10.7783   -0.4241   -2.1655 H   0  0  0  0  0  0  0  0  0  0  0  0
    8.9566   -2.4549   -1.5023 H   0  0  0  0  0  0  0  0  0  0  0  0
    9.3186   -1.1020   -0.4144 H   0  0  0  0  0  0  0  0  0  0  0  0
    6.6315   -0.9656   -0.3745 H   0  0  0  0  0  0  0  0  0  0  0  0
    5.6496    1.3115   -0.5867 H   0  0  0  0  0  0  0  0  0  0  0  0
  1  2  1  0
  1 37  1  0
  1 38  1  0
  1 39  1  0
  2  3  2  0
  2 36  1  0
  3  4  1  0
  3 40  1  0
  4  5  2  0
  4 41  1  0
  5  6  1  0
  5 35  1  0
  6  7  1  0
  6  8  1  0
  8  9  2  0
  8 10  1  0
 10 11  1  0
 10 34  2  0
 11 12  1  1
 11 13  1  0
 11 24  1  0
 13 14  2  0
 13 17  1  0
 14 15  1  0
 15 16  2  0
 16 17  1  0
 17 18  1  0
 18 19  1  0
 18 23  1  0
 18 42  1  1
 19 20  1  0
 19 43  1  0
 19 44  1  0
 20 21  1  0
 20 45  1  0
 20 46  1  0
 21 22  1  0
 21 47  1  0
 21 48  1  0
 22 23  1  0
 22 49  1  0
 22 50  1  0
 23 51  1  0
 23 52  1  0
 24 25  1  0
 24 33  1  0
 25 26  1  0
 25 53  1  0
 25 54  1  0
 26 27  1  0
 26 55  1  0
 26 56  1  0
 27 28  1  0
 27 31  1  0
 28 29  1  0
 28 57  1  0
 28 58  1  0
 29 30  1  0
 29 59  1  0
 29 60  1  0
 30 31  1  0
 30 61  1  0
 30 62  1  0
 31 32  1  6
 31 33  1  0
 33 63  1  0
 33 64  1  0
 34 35  1  0
 34 65  1  0
 35 36  2  0
 36 66  1  0
M  END

