
     RDKit          3D

 64 67  0  0  0  0  0  0  0  0999 V2000
    6.3360   -0.8136    0.9591 C   0  0  0  0  0  0  0  0  0  0  0  0
    6.0523   -0.3371   -0.4562 C   0  0  0  0  0  0  0  0  0  0  0  0
    6.0724    1.0976   -0.5493 O   0  0  0  0  0  0  0  0  0  0  0  0
    4.9338    1.7489   -0.2590 C   0  0  0  0  0  0  0  0  0  0  0  0
    3.9011    1.2062    0.0662 O   0  0  0  0  0  0  0  0  0  0  0  0
    5.0681    3.2195   -0.3845 C   0  0  0  0  0  0  0  0  0  0  0  0
    4.0440    4.1620   -0.1435 C   0  0  0  0  0  0  0  0  0  0  0  0
    4.6304    5.3993   -0.3750 C   0  0  0  0  0  0  0  0  0  0  0  0
    4.0277    6.7426   -0.2655 C   0  0  0  0  0  0  0  0  0  0  0  0
    4.6187    7.7796    0.4751 C   0  0  0  0  0  0  0  0  0  0  0  0
    4.0000    9.0284    0.5886 C   0  0  0  0  0  0  0  0  0  0  0  0
    2.7651    9.2870   -0.0223 C   0  0  0  0  0  0  0  0  0  0  0  0
    2.0540   10.6251    0.0742 C   0  0  0  0  0  0  0  0  0  0  0  0
    2.7521   11.7172    0.8825 C   0  0  0  0  0  0  0  0  0  0  0  0
    2.1703    8.2416   -0.7519 C   0  0  0  0  0  0  0  0  0  0  0  0
    2.7835    6.9978   -0.8747 C   0  0  0  0  0  0  0  0  0  0  0  0
    5.9366    5.1319   -0.7403 N   0  0  0  0  0  0  0  0  0  0  0  0
    6.9652    6.0848   -1.1833 C   0  0  1  0  0  0  0  0  0  0  0  0
    8.1423    6.1844   -0.1901 C   0  0  0  0  0  0  0  0  0  0  0  0
    9.1509    5.0376   -0.3218 C   0  0  0  0  0  0  0  0  0  0  0  0
    9.6024    4.9208   -1.7084 N   0  0  0  0  0  0  0  0  0  0  0  0
   10.9482    4.9193   -1.9762 C   0  0  0  0  0  0  0  0  0  0  0  0
   11.7955    4.9661   -1.0940 O   0  0  0  0  0  0  0  0  0  0  0  0
   11.3836    4.8929   -3.4266 C   0  0  0  0  0  0  0  0  0  0  0  0
   11.1029    5.9934   -4.2478 C   0  0  0  0  0  0  0  0  0  0  0  0
   11.5963    6.0258   -5.5488 C   0  0  0  0  0  0  0  0  0  0  0  0
   11.3255    7.0890   -6.3233 F   0  0  0  0  0  0  0  0  0  0  0  0
   12.3566    4.9802   -6.0598 C   0  0  0  0  0  0  0  0  0  0  0  0
   12.6308    3.8884   -5.2316 C   0  0  0  0  0  0  0  0  0  0  0  0
   12.1674    3.8207   -3.9093 C   0  0  0  0  0  0  0  0  0  0  0  0
   12.5117    2.6429   -3.0298 C   0  0  0  0  0  0  0  0  0  0  0  0
    8.5278    4.6626   -2.6655 C   0  0  0  0  0  0  0  0  0  0  0  0
    7.4728    5.7759   -2.6083 C   0  0  0  0  0  0  0  0  0  0  0  0
    6.2019    3.8236   -0.7461 N   0  0  0  0  0  0  0  0  0  0  0  0
    6.3953   -1.9139    0.9795 H   0  0  0  0  0  0  0  0  0  0  0  0
    5.5335   -0.5020    1.6439 H   0  0  0  0  0  0  0  0  0  0  0  0
    7.2926   -0.4100    1.3258 H   0  0  0  0  0  0  0  0  0  0  0  0
    5.0764   -0.7061   -0.8055 H   0  0  0  0  0  0  0  0  0  0  0  0
    6.8344   -0.6722   -1.1531 H   0  0  0  0  0  0  0  0  0  0  0  0
    3.0278    3.9606    0.1833 H   0  0  0  0  0  0  0  0  0  0  0  0
    5.5628    7.6060    0.9967 H   0  0  0  0  0  0  0  0  0  0  0  0
    4.4929    9.8038    1.1775 H   0  0  0  0  0  0  0  0  0  0  0  0
    1.0474   10.4485    0.4944 H   0  0  0  0  0  0  0  0  0  0  0  0
    1.8735   10.9917   -0.9526 H   0  0  0  0  0  0  0  0  0  0  0  0
    2.8992   11.4188    1.9330 H   0  0  0  0  0  0  0  0  0  0  0  0
    2.1493   12.6383    0.8829 H   0  0  0  0  0  0  0  0  0  0  0  0
    3.7397   11.9692    0.4638 H   0  0  0  0  0  0  0  0  0  0  0  0
    1.2055    8.4111   -1.2395 H   0  0  0  0  0  0  0  0  0  0  0  0
    2.3029    6.2087   -1.4579 H   0  0  0  0  0  0  0  0  0  0  0  0
    6.4490    7.0525   -1.2115 H   0  0  0  0  0  0  0  0  0  0  0  0
    7.7581    6.2293    0.8416 H   0  0  0  0  0  0  0  0  0  0  0  0
    8.6625    7.1375   -0.3851 H   0  0  0  0  0  0  0  0  0  0  0  0
    8.6874    4.0880   -0.0071 H   0  0  0  0  0  0  0  0  0  0  0  0
   10.0357    5.2168    0.3008 H   0  0  0  0  0  0  0  0  0  0  0  0
   10.5132    6.8374   -3.8838 H   0  0  0  0  0  0  0  0  0  0  0  0
   12.7261    5.0309   -7.0858 H   0  0  0  0  0  0  0  0  0  0  0  0
   13.2309    3.0636   -5.6253 H   0  0  0  0  0  0  0  0  0  0  0  0
   13.0785    1.8839   -3.5882 H   0  0  0  0  0  0  0  0  0  0  0  0
   11.6069    2.1605   -2.6245 H   0  0  0  0  0  0  0  0  0  0  0  0
   13.1079    2.9679   -2.1640 H   0  0  0  0  0  0  0  0  0  0  0  0
    8.0548    3.6983   -2.4194 H   0  0  0  0  0  0  0  0  0  0  0  0
    8.9435    4.5895   -3.6771 H   0  0  0  0  0  0  0  0  0  0  0  0
    6.6212    5.5218   -3.2590 H   0  0  0  0  0  0  0  0  0  0  0  0
    7.9159    6.7058   -3.0035 H   0  0  0  0  0  0  0  0  0  0  0  0
  1  2  1  0
  1 35  1  0
  1 36  1  0
  1 37  1  0
  2  3  1  0
  2 38  1  0
  2 39  1  0
  3  4  1  0
  4  5  2  0
  4  6  1  0
  6  7  1  0
  6 34  2  0
  7  8  2  0
  7 40  1  0
  8  9  1  0
  8 17  1  0
  9 10  2  0
  9 16  1  0
 10 11  1  0
 10 41  1  0
 11 12  2  0
 11 42  1  0
 12 13  1  0
 12 15  1  0
 13 14  1  0
 13 43  1  0
 13 44  1  0
 14 45  1  0
 14 46  1  0
 14 47  1  0
 15 16  2  0
 15 48  1  0
 16 49  1  0
 17 18  1  0
 17 34  1  0
 18 19  1  0
 18 33  1  0
 18 50  1  6
 19 20  1  0
 19 51  1  0
 19 52  1  0
 20 21  1  0
 20 53  1  0
 20 54  1  0
 21 22  1  0
 21 32  1  0
 22 23  2  0
 22 24  1  0
 24 25  2  0
 24 30  1  0
 25 26  1  0
 25 55  1  0
 26 27  1  0
 26 28  2  0
 28 29  1  0
 28 56  1  0
 29 30  2  0
 29 57  1  0
 30 31  1  0
 31 58  1  0
 31 59  1  0
 31 60  1  0
 32 33  1  0
 32 61  1  0
 32 62  1  0
 33 63  1  0
 33 64  1  0
M  END

