
     RDKit          3D

 33 34  0  0  0  0  0  0  0  0999 V2000
    0.3797   -0.4794    0.6505 C   0  0  0  0  0  0  0  0  0  0  0  0
    1.6190    0.0976    0.9976 O   0  0  0  0  0  0  0  0  0  0  0  0
    2.6327   -0.6948    1.4205 C   0  0  0  0  0  0  0  0  0  0  0  0
    3.8341   -0.0402    1.7488 C   0  0  0  0  0  0  0  0  0  0  0  0
    4.9219   -0.7705    2.2171 C   0  0  0  0  0  0  0  0  0  0  0  0
    4.8400   -2.1591    2.3630 C   0  0  0  0  0  0  0  0  0  0  0  0
    3.6570   -2.8212    2.0172 C   0  0  0  0  0  0  0  0  0  0  0  0
    3.6292   -4.3154    2.1976 C   0  0  0  0  0  0  0  0  0  0  0  0
    4.3711   -4.8837    2.9791 O   0  0  0  0  0  0  0  0  0  0  0  0
    2.7161   -4.9821    1.3967 N   0  0  0  0  0  0  0  0  0  0  0  0
    2.4230   -6.3518    1.3537 C   0  0  0  0  0  0  0  0  0  0  0  0
    3.0219   -7.3054    2.2026 C   0  0  0  0  0  0  0  0  0  0  0  0
    2.6604   -8.6513    2.1096 C   0  0  0  0  0  0  0  0  0  0  0  0
    1.7129   -9.0915    1.1834 C   0  0  0  0  0  0  0  0  0  0  0  0
    1.1371   -8.1332    0.3462 C   0  0  0  0  0  0  0  0  0  0  0  0
   -0.0609   -8.6427   -0.8630 S   0  0  1  0  0  0  0  0  0  0  0  0
   -0.6583   -9.9076   -0.4868 O   0  0  0  0  0  0  0  0  0  0  0  0
   -0.8414   -7.5055   -1.3114 O   0  0  0  0  0  0  0  0  0  0  0  0
    0.9541   -8.9843   -2.0904 F   0  0  0  0  0  0  0  0  0  0  0  0
    1.4681   -6.7813    0.4154 C   0  0  0  0  0  0  0  0  0  0  0  0
    2.5468   -2.0881    1.5540 C   0  0  0  0  0  0  0  0  0  0  0  0
   -0.2728    0.3460    0.3368 H   0  0  0  0  0  0  0  0  0  0  0  0
   -0.0878   -0.9970    1.5076 H   0  0  0  0  0  0  0  0  0  0  0  0
    0.4786   -1.1930   -0.1877 H   0  0  0  0  0  0  0  0  0  0  0  0
    3.8784    1.0447    1.6343 H   0  0  0  0  0  0  0  0  0  0  0  0
    5.8477   -0.2502    2.4751 H   0  0  0  0  0  0  0  0  0  0  0  0
    5.6795   -2.7439    2.7407 H   0  0  0  0  0  0  0  0  0  0  0  0
    2.2466   -4.4199    0.6974 H   0  0  0  0  0  0  0  0  0  0  0  0
    3.7648   -6.9730    2.9237 H   0  0  0  0  0  0  0  0  0  0  0  0
    3.1318   -9.3726    2.7812 H   0  0  0  0  0  0  0  0  0  0  0  0
    1.4186  -10.1391    1.1118 H   0  0  0  0  0  0  0  0  0  0  0  0
    0.9736   -6.0722   -0.2520 H   0  0  0  0  0  0  0  0  0  0  0  0
    1.6044   -2.5939    1.3431 H   0  0  0  0  0  0  0  0  0  0  0  0
  1  2  1  0
  1 22  1  0
  1 23  1  0
  1 24  1  0
  2  3  1  0
  3  4  2  0
  3 21  1  0
  4  5  1  0
  4 25  1  0
  5  6  2  0
  5 26  1  0
  6  7  1  0
  6 27  1  0
  7  8  1  0
  7 21  2  0
  8  9  2  0
  8 10  1  0
 10 11  1  0
 10 28  1  0
 11 12  2  0
 11 20  1  0
 12 13  1  0
 12 29  1  0
 13 14  2  0
 13 30  1  0
 14 15  1  0
 14 31  1  0
 15 16  1  0
 15 20  2  0
 16 17  2  0
 16 18  2  0
 16 19  1  6
 20 32  1  0
 21 33  1  0
M  END

