
     RDKit          3D

 43 43  0  0  0  0  0  0  0  0999 V2000
    7.6042    2.3325   -7.1247 C   0  0  0  0  0  0  0  0  0  0  0  0
    7.9505    1.1475   -6.2423 C   0  0  0  0  0  0  0  0  0  0  0  0
    8.3063    1.6381   -4.9650 O   0  0  0  0  0  0  0  0  0  0  0  0
    8.6536    0.7563   -3.9825 C   0  0  0  0  0  0  0  0  0  0  0  0
    8.7053   -0.6341   -4.1303 C   0  0  0  0  0  0  0  0  0  0  0  0
    9.0786   -1.4548   -3.0562 C   0  0  0  0  0  0  0  0  0  0  0  0
    9.4042   -0.9101   -1.8011 C   0  0  0  0  0  0  0  0  0  0  0  0
    9.7297   -1.6946   -0.6964 N   0  0  0  0  0  0  0  0  0  0  0  0
   10.0890   -3.0897   -0.7967 C   0  0  0  0  0  0  0  0  0  0  0  0
   11.4650   -3.3697   -1.4359 C   0  0  0  0  0  0  0  0  0  0  0  0
   11.6193   -4.8387   -1.8166 C   0  0  0  0  0  0  0  0  0  0  0  0
   10.7011   -5.4615   -2.3294 O   0  0  0  0  0  0  0  0  0  0  0  0
   12.8406   -5.3935   -1.5535 N   0  0  0  0  0  0  0  0  0  0  0  0
   13.2052   -6.7585   -1.9254 C   0  0  1  0  0  0  0  0  0  0  0  0
   14.1466   -6.7663   -3.1357 C   0  0  0  0  0  0  0  0  0  0  0  0
   13.7980   -7.5172   -0.7260 C   0  0  0  0  0  0  0  0  0  0  0  0
   12.8504   -7.6564    0.4648 C   0  0  0  0  0  0  0  0  0  0  0  0
    9.3531    0.4970   -1.6704 C   0  0  0  0  0  0  0  0  0  0  0  0
    8.9859    1.3103   -2.7340 C   0  0  0  0  0  0  0  0  0  0  0  0
    7.3213    1.9904   -8.1324 H   0  0  0  0  0  0  0  0  0  0  0  0
    8.4646    3.0132   -7.2156 H   0  0  0  0  0  0  0  0  0  0  0  0
    6.7621    2.8999   -6.6993 H   0  0  0  0  0  0  0  0  0  0  0  0
    8.7892    0.5696   -6.6782 H   0  0  0  0  0  0  0  0  0  0  0  0
    7.0882    0.4571   -6.1608 H   0  0  0  0  0  0  0  0  0  0  0  0
    8.4607   -1.1069   -5.0820 H   0  0  0  0  0  0  0  0  0  0  0  0
    9.1097   -2.5338   -3.2158 H   0  0  0  0  0  0  0  0  0  0  0  0
   10.1561   -1.1862    0.0689 H   0  0  0  0  0  0  0  0  0  0  0  0
    9.3287   -3.6316   -1.3783 H   0  0  0  0  0  0  0  0  0  0  0  0
   10.0579   -3.5244    0.2160 H   0  0  0  0  0  0  0  0  0  0  0  0
   12.2800   -3.0290   -0.7751 H   0  0  0  0  0  0  0  0  0  0  0  0
   11.5433   -2.7876   -2.3706 H   0  0  0  0  0  0  0  0  0  0  0  0
   13.5667   -4.7967   -1.1728 H   0  0  0  0  0  0  0  0  0  0  0  0
   12.2540   -7.2315   -2.2148 H   0  0  0  0  0  0  0  0  0  0  0  0
   15.1019   -6.2654   -2.9013 H   0  0  0  0  0  0  0  0  0  0  0  0
   13.6876   -6.2461   -3.9900 H   0  0  0  0  0  0  0  0  0  0  0  0
   14.3781   -7.7974   -3.4470 H   0  0  0  0  0  0  0  0  0  0  0  0
   14.7321   -7.0138   -0.4098 H   0  0  0  0  0  0  0  0  0  0  0  0
   14.1052   -8.5175   -1.0765 H   0  0  0  0  0  0  0  0  0  0  0  0
   12.5444   -6.6711    0.8504 H   0  0  0  0  0  0  0  0  0  0  0  0
   13.3267   -8.2076    1.2909 H   0  0  0  0  0  0  0  0  0  0  0  0
   11.9331   -8.1984    0.1830 H   0  0  0  0  0  0  0  0  0  0  0  0
    9.6006    0.9539   -0.7071 H   0  0  0  0  0  0  0  0  0  0  0  0
    8.9473    2.3960   -2.6209 H   0  0  0  0  0  0  0  0  0  0  0  0
  1  2  1  0
  1 20  1  0
  1 21  1  0
  1 22  1  0
  2  3  1  0
  2 23  1  0
  2 24  1  0
  3  4  1  0
  4  5  2  0
  4 19  1  0
  5  6  1  0
  5 25  1  0
  6  7  2  0
  6 26  1  0
  7  8  1  0
  7 18  1  0
  8  9  1  0
  8 27  1  0
  9 10  1  0
  9 28  1  0
  9 29  1  0
 10 11  1  0
 10 30  1  0
 10 31  1  0
 11 12  2  0
 11 13  1  0
 13 14  1  0
 13 32  1  0
 14 15  1  0
 14 16  1  0
 14 33  1  6
 15 34  1  0
 15 35  1  0
 15 36  1  0
 16 17  1  0
 16 37  1  0
 16 38  1  0
 17 39  1  0
 17 40  1  0
 17 41  1  0
 18 19  2  0
 18 42  1  0
 19 43  1  0
M  END

