
     RDKit          3D

 30 30  0  0  0  0  0  0  0  0999 V2000
    1.8650    0.3665   -0.8011 C   0  0  0  0  0  0  0  0  0  0  0  0
    2.2004   -0.9886   -0.1588 C   0  0  1  0  0  0  0  0  0  0  0  0
    0.9289   -1.8173    0.0898 C   0  0  0  0  0  0  0  0  0  0  0  0
    3.1144   -1.7228   -0.9625 O   0  0  0  0  0  0  0  0  0  0  0  0
    2.8773   -0.7401    1.2122 C   0  0  0  0  0  0  0  0  0  0  0  0
    2.2454   -0.2354    2.1094 O   0  0  0  0  0  0  0  0  0  0  0  0
    4.3334   -1.1847    1.3805 C   0  0  1  0  0  0  0  0  0  0  0  0
    5.4610    0.2043    0.5172 Br  0  0  0  0  0  0  0  0  0  0  0  0
    4.8225   -1.5156    2.7930 C   0  0  1  0  0  0  0  0  0  0  0  0
    4.8540    0.0238    4.0360 Br  0  0  0  0  0  0  0  0  0  0  0  0
    4.0820   -2.7121    3.3675 C   0  0  0  0  0  0  0  0  0  0  0  0
    2.9002   -2.5810    4.1166 C   0  0  0  0  0  0  0  0  0  0  0  0
    2.2293   -3.6953    4.6194 C   0  0  0  0  0  0  0  0  0  0  0  0
    2.7278   -4.9795    4.3818 C   0  0  0  0  0  0  0  0  0  0  0  0
    3.8933   -5.1431    3.6338 C   0  0  0  0  0  0  0  0  0  0  0  0
    4.5546   -4.0182    3.1309 C   0  0  0  0  0  0  0  0  0  0  0  0
    6.0036   -4.2878    2.1719 Cl  0  0  0  0  0  0  0  0  0  0  0  0
    1.3141    0.2085   -1.7440 H   0  0  0  0  0  0  0  0  0  0  0  0
    2.7853    0.9270   -1.0182 H   0  0  0  0  0  0  0  0  0  0  0  0
    1.2332    0.9659   -0.1299 H   0  0  0  0  0  0  0  0  0  0  0  0
    0.4006   -1.9837   -0.8633 H   0  0  0  0  0  0  0  0  0  0  0  0
    0.2525   -1.2975    0.7826 H   0  0  0  0  0  0  0  0  0  0  0  0
    1.1872   -2.7984    0.5164 H   0  0  0  0  0  0  0  0  0  0  0  0
    2.7595   -1.7764   -1.8591 H   0  0  0  0  0  0  0  0  0  0  0  0
    4.5085   -2.0652    0.7506 H   0  0  0  0  0  0  0  0  0  0  0  0
    5.8826   -1.7716    2.7029 H   0  0  0  0  0  0  0  0  0  0  0  0
    2.5168   -1.5775    4.3040 H   0  0  0  0  0  0  0  0  0  0  0  0
    1.3158   -3.5581    5.2024 H   0  0  0  0  0  0  0  0  0  0  0  0
    2.2120   -5.8578    4.7777 H   0  0  0  0  0  0  0  0  0  0  0  0
    4.3009   -6.1351    3.4330 H   0  0  0  0  0  0  0  0  0  0  0  0
  1  2  1  0
  1 18  1  0
  1 19  1  0
  1 20  1  0
  2  3  1  0
  2  4  1  6
  2  5  1  0
  3 21  1  0
  3 22  1  0
  3 23  1  0
  4 24  1  0
  5  6  2  0
  5  7  1  0
  7  8  1  0
  7  9  1  0
  7 25  1  6
  9 10  1  0
  9 11  1  0
  9 26  1  6
 11 12  2  0
 11 16  1  0
 12 13  1  0
 12 27  1  0
 13 14  2  0
 13 28  1  0
 14 15  1  0
 14 29  1  0
 15 16  2  0
 15 30  1  0
 16 17  1  0
M  END

