
     RDKit          3D

 54 56  0  0  0  0  0  0  0  0999 V2000
    0.6591    0.0283    0.3309 C   0  0  0  0  0  0  0  0  0  0  0  0
    2.1527    0.0087    0.0127 C   0  0  0  0  0  0  0  0  0  0  0  0
    2.8473    1.2338    0.4330 N   0  0  0  0  0  0  0  0  0  0  0  0
    2.9953    2.2819   -0.4543 C   0  0  0  0  0  0  0  0  0  0  0  0
    3.5875    3.4294   -0.0277 C   0  0  0  0  0  0  0  0  0  0  0  0
    4.0647    3.5705    1.2373 N   0  0  0  0  0  0  0  0  0  0  0  0
    3.9421    2.5935    2.1080 C   0  0  0  0  0  0  0  0  0  0  0  0
    4.3898    2.7939    3.3944 N   0  0  0  0  0  0  0  0  0  0  0  0
    4.8062    1.7349    4.3217 C   0  0  0  0  0  0  0  0  0  0  0  0
    6.3363    1.6346    4.3824 C   0  0  0  0  0  0  0  0  0  0  0  0
    7.0004    2.9820    4.7339 C   0  0  2  0  0  0  0  0  0  0  0  0
    6.8144    3.3542    6.1367 N   0  0  0  0  0  0  0  0  0  0  0  0
    7.6339    2.8449    7.1189 C   0  0  0  0  0  0  0  0  0  0  0  0
    8.6002    2.1370    6.8796 O   0  0  0  0  0  0  0  0  0  0  0  0
    7.2712    3.2035    8.4099 N   0  0  0  0  0  0  0  0  0  0  0  0
    8.1128    2.8671    9.5367 C   0  0  0  0  0  0  0  0  0  0  0  0
    7.3547    2.3159   10.7295 C   0  0  0  0  0  0  0  0  0  0  0  0
    6.1987    1.5348   10.5682 C   0  0  0  0  0  0  0  0  0  0  0  0
    5.5387    0.9987   11.6713 C   0  0  0  0  0  0  0  0  0  0  0  0
    6.0059    1.2427   12.9724 C   0  0  0  0  0  0  0  0  0  0  0  0
    5.2481    0.6308   14.1170 C   0  0  0  0  0  0  0  0  0  0  0  0
    4.4578   -0.2656   13.9803 O   0  0  0  0  0  0  0  0  0  0  0  0
    5.4887    1.1451   15.3462 O   0  0  0  0  0  0  0  0  0  0  0  0
    7.1677    2.0131   13.1372 C   0  0  0  0  0  0  0  0  0  0  0  0
    7.8285    2.5456   12.0295 C   0  0  0  0  0  0  0  0  0  0  0  0
    6.4620    4.0891    3.8119 C   0  0  0  0  0  0  0  0  0  0  0  0
    4.9270    4.1032    3.7591 C   0  0  0  0  0  0  0  0  0  0  0  0
    3.2466    1.3115    1.7622 C   0  0  0  0  0  0  0  0  0  0  0  0
    3.0133    0.3862    2.5378 O   0  0  0  0  0  0  0  0  0  0  0  0
    0.1885   -0.9047   -0.0175 H   0  0  0  0  0  0  0  0  0  0  0  0
    0.1531    0.8723   -0.1645 H   0  0  0  0  0  0  0  0  0  0  0  0
    0.5005    0.1072    1.4160 H   0  0  0  0  0  0  0  0  0  0  0  0
    2.3249   -0.1065   -1.0680 H   0  0  0  0  0  0  0  0  0  0  0  0
    2.6349   -0.8303    0.5321 H   0  0  0  0  0  0  0  0  0  0  0  0
    2.6217    2.1290   -1.4671 H   0  0  0  0  0  0  0  0  0  0  0  0
    3.7135    4.2765   -0.7072 H   0  0  0  0  0  0  0  0  0  0  0  0
    4.3477    0.7889    4.0246 H   0  0  0  0  0  0  0  0  0  0  0  0
    4.4089    1.9887    5.3227 H   0  0  0  0  0  0  0  0  0  0  0  0
    6.7118    1.2997    3.3997 H   0  0  0  0  0  0  0  0  0  0  0  0
    6.6429    0.8742    5.1180 H   0  0  0  0  0  0  0  0  0  0  0  0
    8.0866    2.8801    4.6013 H   0  0  0  0  0  0  0  0  0  0  0  0
    5.9250    3.7548    6.4096 H   0  0  0  0  0  0  0  0  0  0  0  0
    6.6028    3.9552    8.5354 H   0  0  0  0  0  0  0  0  0  0  0  0
    8.7224    3.7310    9.8626 H   0  0  0  0  0  0  0  0  0  0  0  0
    8.8248    2.1140    9.1601 H   0  0  0  0  0  0  0  0  0  0  0  0
    5.8191    1.3504    9.5609 H   0  0  0  0  0  0  0  0  0  0  0  0
    4.6477    0.3797   11.5496 H   0  0  0  0  0  0  0  0  0  0  0  0
    6.0377    1.9382   15.2795 H   0  0  0  0  0  0  0  0  0  0  0  0
    7.5904    2.1900   14.1312 H   0  0  0  0  0  0  0  0  0  0  0  0
    8.7319    3.1442   12.1779 H   0  0  0  0  0  0  0  0  0  0  0  0
    6.8392    3.9174    2.7909 H   0  0  0  0  0  0  0  0  0  0  0  0
    6.8411    5.0708    4.1409 H   0  0  0  0  0  0  0  0  0  0  0  0
    4.5744    4.8425    3.0323 H   0  0  0  0  0  0  0  0  0  0  0  0
    4.5071    4.3728    4.7482 H   0  0  0  0  0  0  0  0  0  0  0  0
  1  2  1  0
  1 30  1  0
  1 31  1  0
  1 32  1  0
  2  3  1  0
  2 33  1  0
  2 34  1  0
  3  4  1  0
  3 28  1  0
  4  5  2  0
  4 35  1  0
  5  6  1  0
  5 36  1  0
  6  7  2  0
  7  8  1  0
  7 28  1  0
  8  9  1  0
  8 27  1  0
  9 10  1  0
  9 37  1  0
  9 38  1  0
 10 11  1  0
 10 39  1  0
 10 40  1  0
 11 12  1  0
 11 26  1  0
 11 41  1  1
 12 13  1  0
 12 42  1  0
 13 14  2  0
 13 15  1  0
 15 16  1  0
 15 43  1  0
 16 17  1  0
 16 44  1  0
 16 45  1  0
 17 18  2  0
 17 25  1  0
 18 19  1  0
 18 46  1  0
 19 20  2  0
 19 47  1  0
 20 21  1  0
 20 24  1  0
 21 22  2  0
 21 23  1  0
 23 48  1  0
 24 25  2  0
 24 49  1  0
 25 50  1  0
 26 27  1  0
 26 51  1  0
 26 52  1  0
 27 53  1  0
 27 54  1  0
 28 29  2  0
M  END

