
     RDKit          3D

 43 45  0  0  0  0  0  0  0  0999 V2000
    0.1044    0.0492   -0.1829 C   0  0  0  0  0  0  0  0  0  0  0  0
    0.2688   -1.1360   -1.0213 N   0  0  0  0  0  0  0  0  0  0  0  0
    0.9287   -0.9654   -2.3065 C   0  0  0  0  0  0  0  0  0  0  0  0
    2.3482   -0.3893   -2.2247 C   0  0  2  0  0  0  0  0  0  0  0  0
    2.8943   -0.9694   -1.4484 H   0  0  0  0  0  0  0  0  0  0  0  0
    2.3134    0.9765   -1.8924 O   0  0  0  0  0  0  0  0  0  0  0  0
    3.0783   -0.5523   -3.5745 C   0  0  0  0  0  0  0  0  0  0  0  0
    4.2920    0.2649   -3.5811 N   0  0  0  0  0  0  0  0  0  0  0  0
    5.4620   -0.3504   -2.9378 C   0  0  0  0  0  0  0  0  0  0  0  0
    6.2116   -1.2973   -3.8795 C   0  0  0  0  0  0  0  0  0  0  0  0
    6.5690   -0.6411   -5.0814 O   0  0  0  0  0  0  0  0  0  0  0  0
    5.4408   -0.1220   -5.7599 C   0  0  0  0  0  0  0  0  0  0  0  0
    4.6756    0.8575   -4.8671 C   0  0  0  0  0  0  0  0  0  0  0  0
   -0.0334   -2.3449   -0.4452 C   0  0  0  0  0  0  0  0  0  0  0  0
   -0.2723   -2.4374    0.7596 O   0  0  0  0  0  0  0  0  0  0  0  0
   -0.1210   -3.5913   -1.2596 C   0  0  0  0  0  0  0  0  0  0  0  0
   -0.3567   -3.9196   -2.6003 C   0  0  0  0  0  0  0  0  0  0  0  0
   -0.4814   -5.3309   -2.6427 C   0  0  0  0  0  0  0  0  0  0  0  0
   -0.7621   -6.6354   -3.7644 S   0  0  0  0  0  0  0  0  0  0  0  0
   -0.6685   -7.8028   -2.4603 C   0  0  0  0  0  0  0  0  0  0  0  0
   -0.4335   -7.2463   -1.2290 C   0  0  0  0  0  0  0  0  0  0  0  0
   -0.3282   -5.8264   -1.3366 C   0  0  0  0  0  0  0  0  0  0  0  0
   -0.1097   -4.7576   -0.5183 N   0  0  0  0  0  0  0  0  0  0  0  0
   -0.0719   -4.7216    0.4950 H   0  0  0  0  0  0  0  0  0  0  0  0
   -0.1036    0.9158   -0.8248 H   0  0  0  0  0  0  0  0  0  0  0  0
    1.0117    0.2766    0.3998 H   0  0  0  0  0  0  0  0  0  0  0  0
   -0.7220   -0.1210    0.5179 H   0  0  0  0  0  0  0  0  0  0  0  0
    0.3304   -0.2983   -2.9554 H   0  0  0  0  0  0  0  0  0  0  0  0
    0.9991   -1.9426   -2.7942 H   0  0  0  0  0  0  0  0  0  0  0  0
    3.1454    1.3255   -2.2690 H   0  0  0  0  0  0  0  0  0  0  0  0
    2.4149   -0.1762   -4.3708 H   0  0  0  0  0  0  0  0  0  0  0  0
    3.2559   -1.6266   -3.7813 H   0  0  0  0  0  0  0  0  0  0  0  0
    5.1490   -0.8797   -2.0243 H   0  0  0  0  0  0  0  0  0  0  0  0
    6.1501    0.4559   -2.6287 H   0  0  0  0  0  0  0  0  0  0  0  0
    5.5920   -2.1916   -4.1024 H   0  0  0  0  0  0  0  0  0  0  0  0
    7.1459   -1.6479   -3.4140 H   0  0  0  0  0  0  0  0  0  0  0  0
    4.7730   -0.9485   -6.0847 H   0  0  0  0  0  0  0  0  0  0  0  0
    5.8139    0.3830   -6.6648 H   0  0  0  0  0  0  0  0  0  0  0  0
    3.7770    1.2360   -5.3796 H   0  0  0  0  0  0  0  0  0  0  0  0
    5.3299    1.7239   -4.6628 H   0  0  0  0  0  0  0  0  0  0  0  0
   -0.4681   -3.2266   -3.4289 H   0  0  0  0  0  0  0  0  0  0  0  0
   -0.7975   -8.8598   -2.6908 H   0  0  0  0  0  0  0  0  0  0  0  0
   -0.3469   -7.8247   -0.3089 H   0  0  0  0  0  0  0  0  0  0  0  0
  1  2  1  0
  1 25  1  0
  1 26  1  0
  1 27  1  0
  2  3  1  0
  2 14  1  0
  3  4  1  0
  3 28  1  0
  3 29  1  0
  4  5  1  1
  4  6  1  0
  4  7  1  0
  6 30  1  0
  7  8  1  0
  7 31  1  0
  7 32  1  0
  8  9  1  0
  8 13  1  0
  9 10  1  0
  9 33  1  0
  9 34  1  0
 10 11  1  0
 10 35  1  0
 10 36  1  0
 11 12  1  0
 12 13  1  0
 12 37  1  0
 12 38  1  0
 13 39  1  0
 13 40  1  0
 14 15  2  0
 14 16  1  0
 16 17  2  0
 16 23  1  0
 17 18  1  0
 17 41  1  0
 18 19  1  0
 18 22  2  0
 19 20  1  0
 20 21  2  0
 20 42  1  0
 21 22  1  0
 21 43  1  0
 22 23  1  0
 23 24  1  0
M  END

