
     RDKit          3D

 35 36  0  0  0  0  0  0  0  0999 V2000
    4.4051   -1.7042   -4.8865 C   0  0  0  0  0  0  0  0  0  0  0  0
    5.3681   -2.1379   -3.8115 C   0  0  0  0  0  0  0  0  0  0  0  0
    6.6895   -2.5116   -4.1123 C   0  0  0  0  0  0  0  0  0  0  0  0
    7.5852   -2.8907   -3.2014 N   0  0  0  0  0  0  0  0  0  0  0  0
    7.2061   -2.9211   -1.9236 C   0  0  0  0  0  0  0  0  0  0  0  0
    5.9189   -2.5781   -1.4866 C   0  0  0  0  0  0  0  0  0  0  0  0
    5.5385   -2.6326   -0.0213 C   0  0  0  0  0  0  0  0  0  0  0  0
    4.5751   -3.6940    0.2709 N   0  0  0  0  0  0  0  0  0  0  0  0
    5.0609   -5.0691    0.1113 C   0  0  0  0  0  0  0  0  0  0  0  0
    3.9332   -5.9036    0.7121 C   0  0  0  0  0  0  0  0  0  0  0  0
    3.5419   -5.0765    1.9420 C   0  0  0  0  0  0  0  0  0  0  0  0
    3.7572   -3.5894    1.5209 C   0  0  1  0  0  0  0  0  0  0  0  0
    4.3763   -2.7812    2.6668 C   0  0  0  0  0  0  0  0  0  0  0  0
    2.3832   -2.9596    1.1427 C   0  0  0  0  0  0  0  0  0  0  0  0
    1.5861   -2.5801    1.9609 O   0  0  0  0  0  0  0  0  0  0  0  0
    2.1736   -2.9196   -0.1752 O   0  0  0  0  0  0  0  0  0  0  0  0
    4.9961   -2.1803   -2.4624 C   0  0  0  0  0  0  0  0  0  0  0  0
    4.8565   -1.7847   -5.8864 H   0  0  0  0  0  0  0  0  0  0  0  0
    4.0915   -0.6567   -4.7426 H   0  0  0  0  0  0  0  0  0  0  0  0
    3.4898   -2.3182   -4.8771 H   0  0  0  0  0  0  0  0  0  0  0  0
    7.0298   -2.4975   -5.1558 H   0  0  0  0  0  0  0  0  0  0  0  0
    7.9640   -3.2334   -1.1933 H   0  0  0  0  0  0  0  0  0  0  0  0
    5.0801   -1.6715    0.2580 H   0  0  0  0  0  0  0  0  0  0  0  0
    6.4579   -2.7370    0.5900 H   0  0  0  0  0  0  0  0  0  0  0  0
    6.0093   -5.2322    0.6681 H   0  0  0  0  0  0  0  0  0  0  0  0
    5.2616   -5.2907   -0.9482 H   0  0  0  0  0  0  0  0  0  0  0  0
    4.2454   -6.9278    0.9638 H   0  0  0  0  0  0  0  0  0  0  0  0
    3.0941   -5.9731    0.0008 H   0  0  0  0  0  0  0  0  0  0  0  0
    4.2209   -5.3066    2.7791 H   0  0  0  0  0  0  0  0  0  0  0  0
    2.5174   -5.2553    2.2982 H   0  0  0  0  0  0  0  0  0  0  0  0
    5.3522   -3.1976    2.9606 H   0  0  0  0  0  0  0  0  0  0  0  0
    3.6989   -2.8231    3.5310 H   0  0  0  0  0  0  0  0  0  0  0  0
    4.5082   -1.7198    2.4115 H   0  0  0  0  0  0  0  0  0  0  0  0
    3.0248   -3.2869   -0.5402 H   0  0  0  0  0  0  0  0  0  0  0  0
    3.9807   -1.8926   -2.1683 H   0  0  0  0  0  0  0  0  0  0  0  0
  1  2  1  0
  1 18  1  0
  1 19  1  0
  1 20  1  0
  2  3  2  0
  2 17  1  0
  3  4  1  0
  3 21  1  0
  4  5  2  0
  5  6  1  0
  5 22  1  0
  6  7  1  0
  6 17  2  0
  7  8  1  0
  7 23  1  0
  7 24  1  0
  8  9  1  0
  8 12  1  0
  9 10  1  0
  9 25  1  0
  9 26  1  0
 10 11  1  0
 10 27  1  0
 10 28  1  0
 11 12  1  0
 11 29  1  0
 11 30  1  0
 12 13  1  0
 12 14  1  6
 13 31  1  0
 13 32  1  0
 13 33  1  0
 14 15  2  0
 14 16  1  0
 16 34  1  0
 17 35  1  0
M  END

