
     RDKit          3D

 76 78  0  0  0  0  0  0  0  0999 V2000
    3.4030    0.7192   -1.3249 C   0  0  0  0  0  0  0  0  0  0  0  0
    2.6610   -0.1368   -0.2867 C   0  0  0  0  0  0  0  0  0  0  0  0
    3.1071    0.1889    1.5362 Si  0  0  1  0  0  4  0  0  0  0  0  0
    2.7569    2.0071    1.9875 C   0  0  0  0  0  0  0  0  0  0  0  0
    1.3032    2.4773    1.8234 C   0  0  0  0  0  0  0  0  0  0  0  0
    2.0629   -0.9457    2.6559 C   0  0  0  0  0  0  0  0  0  0  0  0
    2.2751   -2.4568    2.4745 C   0  0  0  0  0  0  0  0  0  0  0  0
    4.9686   -0.1520    1.7957 C   0  0  0  0  0  0  0  0  0  0  0  0
    5.4297   -0.2045    3.2627 C   0  0  0  0  0  0  0  0  0  0  0  0
    6.9537   -0.3456    3.4410 C   0  0  0  0  0  0  0  0  0  0  0  0
    7.6467   -0.6781    5.1751 Si  0  0  1  0  0  4  0  0  0  0  0  0
    7.1487    0.5830    6.2486 O   0  0  0  0  0  0  0  0  0  0  0  0
    6.1043    1.3428    6.5540 C   0  0  0  0  0  0  0  0  0  0  0  0
    6.3194    2.6842    6.9177 C   0  0  0  0  0  0  0  0  0  0  0  0
    7.5634    3.1641    6.9200 F   0  0  0  0  0  0  0  0  0  0  0  0
    5.2605    3.5399    7.2732 C   0  0  0  0  0  0  0  0  0  0  0  0
    5.5360    4.7976    7.6034 F   0  0  0  0  0  0  0  0  0  0  0  0
    3.9705    3.0508    7.2635 C   0  0  0  0  0  0  0  0  0  0  0  0
    3.7235    1.7097    6.9071 C   0  0  0  0  0  0  0  0  0  0  0  0
    4.7676    0.8676    6.5771 C   0  0  0  0  0  0  0  0  0  0  0  0
    4.5442   -0.4162    6.2606 F   0  0  0  0  0  0  0  0  0  0  0  0
    2.2689    1.4837    6.9773 C   0  0  0  0  0  0  0  0  0  0  0  0
    1.7074    0.3248    6.6789 F   0  0  0  0  0  0  0  0  0  0  0  0
    1.6464    2.6120    7.3590 C   0  0  0  0  0  0  0  0  0  0  0  0
    0.3529    2.8152    7.5295 F   0  0  0  0  0  0  0  0  0  0  0  0
    2.6519    3.7302    7.5858 C   0  0  2  0  0  0  0  0  0  0  0  0
    2.3962    4.7929    6.7785 F   0  0  0  0  0  0  0  0  0  0  0  0
    2.5980    4.1956    8.8609 F   0  0  0  0  0  0  0  0  0  0  0  0
    6.9896   -2.3393    5.8548 C   0  0  1  0  0  0  0  0  0  0  0  0
    7.7051   -3.5463    5.2186 C   0  0  0  0  0  0  0  0  0  0  0  0
    6.9650   -2.4487    7.3892 C   0  0  0  0  0  0  0  0  0  0  0  0
    9.5514   -0.6309    5.1240 C   0  0  1  0  0  0  0  0  0  0  0  0
   10.1856    0.4920    4.2664 C   0  0  0  0  0  0  0  0  0  0  0  0
   10.2238    1.8472    4.9855 C   0  0  0  0  0  0  0  0  0  0  0  0
   10.9480    1.7421    6.3340 C   0  0  0  0  0  0  0  0  0  0  0  0
   10.3313    0.6510    7.2190 C   0  0  0  0  0  0  0  0  0  0  0  0
   10.2732   -0.7027    6.4946 C   0  0  0  0  0  0  0  0  0  0  0  0
    3.0952    0.4738   -2.3552 H   0  0  0  0  0  0  0  0  0  0  0  0
    4.4946    0.5735   -1.2703 H   0  0  0  0  0  0  0  0  0  0  0  0
    3.2130    1.7955   -1.1787 H   0  0  0  0  0  0  0  0  0  0  0  0
    2.8394   -1.2084   -0.4915 H   0  0  0  0  0  0  0  0  0  0  0  0
    1.5696    0.0011   -0.3982 H   0  0  0  0  0  0  0  0  0  0  0  0
    3.4258    2.6402    1.3758 H   0  0  0  0  0  0  0  0  0  0  0  0
    3.0837    2.1679    3.0314 H   0  0  0  0  0  0  0  0  0  0  0  0
    0.9542    2.3703    0.7829 H   0  0  0  0  0  0  0  0  0  0  0  0
    1.1818    3.5386    2.0977 H   0  0  0  0  0  0  0  0  0  0  0  0
    0.6114    1.8985    2.4574 H   0  0  0  0  0  0  0  0  0  0  0  0
    0.9994   -0.6985    2.4840 H   0  0  0  0  0  0  0  0  0  0  0  0
    2.2574   -0.6629    3.7071 H   0  0  0  0  0  0  0  0  0  0  0  0
    2.0378   -2.7834    1.4485 H   0  0  0  0  0  0  0  0  0  0  0  0
    1.6389   -3.0452    3.1566 H   0  0  0  0  0  0  0  0  0  0  0  0
    3.3194   -2.7510    2.6728 H   0  0  0  0  0  0  0  0  0  0  0  0
    5.5364    0.6277    1.2543 H   0  0  0  0  0  0  0  0  0  0  0  0
    5.2281   -1.1032    1.2942 H   0  0  0  0  0  0  0  0  0  0  0  0
    4.9121   -1.0333    3.7721 H   0  0  0  0  0  0  0  0  0  0  0  0
    5.0958    0.7104    3.7820 H   0  0  0  0  0  0  0  0  0  0  0  0
    7.4515    0.5533    3.0363 H   0  0  0  0  0  0  0  0  0  0  0  0
    7.3209   -1.1808    2.8127 H   0  0  0  0  0  0  0  0  0  0  0  0
    5.9391   -2.3644    5.5143 H   0  0  0  0  0  0  0  0  0  0  0  0
    8.7529   -3.6235    5.5534 H   0  0  0  0  0  0  0  0  0  0  0  0
    7.7121   -3.5034    4.1165 H   0  0  0  0  0  0  0  0  0  0  0  0
    7.2062   -4.4891    5.5018 H   0  0  0  0  0  0  0  0  0  0  0  0
    7.9798   -2.4591    7.8190 H   0  0  0  0  0  0  0  0  0  0  0  0
    6.4717   -3.3848    7.7035 H   0  0  0  0  0  0  0  0  0  0  0  0
    6.4168   -1.6158    7.8533 H   0  0  0  0  0  0  0  0  0  0  0  0
    9.7550   -1.5857    4.5997 H   0  0  0  0  0  0  0  0  0  0  0  0
    9.6757    0.5870    3.2937 H   0  0  0  0  0  0  0  0  0  0  0  0
   11.2249    0.1944    4.0293 H   0  0  0  0  0  0  0  0  0  0  0  0
    9.1976    2.2128    5.1576 H   0  0  0  0  0  0  0  0  0  0  0  0
   10.7198    2.5950    4.3435 H   0  0  0  0  0  0  0  0  0  0  0  0
   10.9253    2.7131    6.8563 H   0  0  0  0  0  0  0  0  0  0  0  0
   12.0146    1.5085    6.1546 H   0  0  0  0  0  0  0  0  0  0  0  0
    9.3148    0.9601    7.5102 H   0  0  0  0  0  0  0  0  0  0  0  0
   10.9111    0.5448    8.1517 H   0  0  0  0  0  0  0  0  0  0  0  0
    9.8129   -1.4617    7.1477 H   0  0  0  0  0  0  0  0  0  0  0  0
   11.3093   -1.0487    6.3169 H   0  0  0  0  0  0  0  0  0  0  0  0
  1  2  1  0
  1 38  1  0
  1 39  1  0
  1 40  1  0
  3  2  1  6
  2 41  1  0
  2 42  1  0
  3  4  1  0
  3  6  1  0
  3  8  1  0
  4  5  1  0
  4 43  1  0
  4 44  1  0
  5 45  1  0
  5 46  1  0
  5 47  1  0
  6  7  1  0
  6 48  1  0
  6 49  1  0
  7 50  1  0
  7 51  1  0
  7 52  1  0
  8  9  1  0
  8 53  1  0
  8 54  1  0
  9 10  1  0
  9 55  1  0
  9 56  1  0
 10 11  1  0
 10 57  1  0
 10 58  1  0
 11 12  1  1
 11 29  1  0
 11 32  1  0
 12 13  1  0
 13 14  2  0
 13 20  1  0
 14 15  1  0
 14 16  1  0
 16 17  1  0
 16 18  2  0
 18 19  1  0
 18 26  1  0
 19 20  2  0
 19 22  1  0
 20 21  1  0
 22 23  1  0
 22 24  2  0
 24 25  1  0
 24 26  1  0
 26 27  1  6
 26 28  1  0
 29 30  1  0
 29 31  1  0
 29 59  1  6
 30 60  1  0
 30 61  1  0
 30 62  1  0
 31 63  1  0
 31 64  1  0
 31 65  1  0
 32 33  1  0
 32 37  1  0
 32 66  1  6
 33 34  1  0
 33 67  1  0
 33 68  1  0
 34 35  1  0
 34 69  1  0
 34 70  1  0
 35 36  1  0
 35 71  1  0
 35 72  1  0
 36 37  1  0
 36 73  1  0
 36 74  1  0
 37 75  1  0
 37 76  1  0
M  END

