
     RDKit          3D

 33 33  0  0  0  0  0  0  0  0999 V2000
    1.5564   -0.8009   -1.0807 C   0  0  0  0  0  0  0  0  0  0  0  0
    2.3514    0.1022   -0.1343 C   0  0  0  0  0  0  0  0  0  0  0  0
    3.1172    1.2853   -0.8008 C   0  0  1  0  0  0  0  0  0  0  0  0
    4.0482    0.7054   -1.8843 C   0  0  0  0  0  0  0  0  0  0  0  0
    4.0278    1.0164   -3.0436 O   0  0  0  0  0  0  0  0  0  0  0  0
    4.9442   -0.2214   -1.4571 O   0  0  0  0  0  0  0  0  0  0  0  0
    2.1514    2.2871   -1.4758 C   0  0  0  0  0  0  0  0  0  0  0  0
    1.2496    3.0273   -0.4812 C   0  0  0  0  0  0  0  0  0  0  0  0
    2.0436    3.7882    0.6000 C   0  0  2  0  0  0  0  0  0  0  0  0
    2.6164    5.1164    0.0810 C   0  0  0  0  0  0  0  0  0  0  0  0
    3.0849    2.8460    1.2452 C   0  0  0  0  0  0  0  0  0  0  0  0
    3.9836    2.0379    0.2769 C   0  0  2  0  0  0  0  0  0  0  0  0
    5.1261    2.8708   -0.3330 C   0  0  0  0  0  0  0  0  0  0  0  0
    1.0720   -1.6142   -0.5176 H   0  0  0  0  0  0  0  0  0  0  0  0
    2.2000   -1.2662   -1.8445 H   0  0  0  0  0  0  0  0  0  0  0  0
    0.7624   -0.2489   -1.6063 H   0  0  0  0  0  0  0  0  0  0  0  0
    3.0718   -0.5184    0.4309 H   0  0  0  0  0  0  0  0  0  0  0  0
    1.6740    0.5052    0.6332 H   0  0  0  0  0  0  0  0  0  0  0  0
    4.8463   -0.3703   -0.5058 H   0  0  0  0  0  0  0  0  0  0  0  0
    1.5434    1.7626   -2.2276 H   0  0  0  0  0  0  0  0  0  0  0  0
    2.7487    3.0058   -2.0564 H   0  0  0  0  0  0  0  0  0  0  0  0
    0.5669    2.3113    0.0087 H   0  0  0  0  0  0  0  0  0  0  0  0
    0.5997    3.7287   -1.0312 H   0  0  0  0  0  0  0  0  0  0  0  0
    1.3352    4.0565    1.4041 H   0  0  0  0  0  0  0  0  0  0  0  0
    3.2462    4.9946   -0.8123 H   0  0  0  0  0  0  0  0  0  0  0  0
    3.2281    5.6146    0.8508 H   0  0  0  0  0  0  0  0  0  0  0  0
    1.7994    5.8047   -0.1903 H   0  0  0  0  0  0  0  0  0  0  0  0
    2.5377    2.1315    1.8828 H   0  0  0  0  0  0  0  0  0  0  0  0
    3.7320    3.4170    1.9330 H   0  0  0  0  0  0  0  0  0  0  0  0
    4.4698    1.2645    0.9026 H   0  0  0  0  0  0  0  0  0  0  0  0
    4.7819    3.5606   -1.1157 H   0  0  0  0  0  0  0  0  0  0  0  0
    5.8931    2.2238   -0.7850 H   0  0  0  0  0  0  0  0  0  0  0  0
    5.6200    3.4717    0.4466 H   0  0  0  0  0  0  0  0  0  0  0  0
  1  2  1  0
  1 14  1  0
  1 15  1  0
  1 16  1  0
  2  3  1  0
  2 17  1  0
  2 18  1  0
  3  4  1  6
  3  7  1  0
  3 12  1  0
  4  5  2  0
  4  6  1  0
  6 19  1  0
  7  8  1  0
  7 20  1  0
  7 21  1  0
  8  9  1  0
  8 22  1  0
  8 23  1  0
  9 10  1  0
  9 11  1  0
  9 24  1  1
 10 25  1  0
 10 26  1  0
 10 27  1  0
 11 12  1  0
 11 28  1  0
 11 29  1  0
 12 13  1  0
 12 30  1  1
 13 31  1  0
 13 32  1  0
 13 33  1  0
M  END

