
     RDKit          3D

 35 36  0  0  0  0  0  0  0  0999 V2000
    3.5817   -0.4781    1.2091 C   0  0  0  0  0  0  0  0  0  0  0  0
    2.5814   -0.2321    0.0815 C   0  0  0  0  0  0  0  0  0  0  0  0
    2.9306   -0.9208   -1.1519 N   0  0  0  0  0  0  0  0  0  0  0  0
    3.5529   -0.3928   -2.2521 C   0  0  0  0  0  0  0  0  0  0  0  0
    3.7458   -1.4591   -3.1235 C   0  0  0  0  0  0  0  0  0  0  0  0
    4.2986   -1.4933   -4.3596 O   0  0  0  0  0  0  0  0  0  0  0  0
    4.8143   -0.2746   -4.8517 C   0  0  0  0  0  0  0  0  0  0  0  0
    5.3913   -0.5359   -6.2449 C   0  0  1  0  0  0  0  0  0  0  0  0
    5.7585    0.7985   -6.9160 C   0  0  0  0  0  0  0  0  0  0  0  0
    5.3627    1.8672   -6.5345 O   0  0  0  0  0  0  0  0  0  0  0  0
    6.5322    0.7007   -8.0133 O   0  0  0  0  0  0  0  0  0  0  0  0
    6.5300   -1.5448   -6.2496 C   0  0  0  0  0  0  0  0  0  0  0  0
    7.7942   -1.2059   -5.7345 C   0  0  0  0  0  0  0  0  0  0  0  0
    8.8325   -2.1396   -5.7179 C   0  0  0  0  0  0  0  0  0  0  0  0
    8.6235   -3.4313   -6.2122 C   0  0  0  0  0  0  0  0  0  0  0  0
    7.3714   -3.7815   -6.7238 C   0  0  0  0  0  0  0  0  0  0  0  0
    6.3336   -2.8447   -6.7405 C   0  0  0  0  0  0  0  0  0  0  0  0
    3.2103   -2.5841   -2.4495 C   0  0  0  0  0  0  0  0  0  0  0  0
    2.7272   -2.2356   -1.2591 N   0  0  0  0  0  0  0  0  0  0  0  0
    3.2574    0.0367    2.1274 H   0  0  0  0  0  0  0  0  0  0  0  0
    4.5836   -0.1073    0.9409 H   0  0  0  0  0  0  0  0  0  0  0  0
    3.6571   -1.5549    1.4216 H   0  0  0  0  0  0  0  0  0  0  0  0
    2.5047    0.8410   -0.1521 H   0  0  0  0  0  0  0  0  0  0  0  0
    1.5787   -0.5795    0.3743 H   0  0  0  0  0  0  0  0  0  0  0  0
    3.7897    0.6649   -2.3283 H   0  0  0  0  0  0  0  0  0  0  0  0
    5.5983    0.1173   -4.1756 H   0  0  0  0  0  0  0  0  0  0  0  0
    4.0233    0.4918   -4.9202 H   0  0  0  0  0  0  0  0  0  0  0  0
    4.5685   -0.9525   -6.8540 H   0  0  0  0  0  0  0  0  0  0  0  0
    6.8234   -0.2180   -8.1321 H   0  0  0  0  0  0  0  0  0  0  0  0
    7.9720   -0.1991   -5.3451 H   0  0  0  0  0  0  0  0  0  0  0  0
    9.8088   -1.8575   -5.3159 H   0  0  0  0  0  0  0  0  0  0  0  0
    9.4357   -4.1623   -6.1985 H   0  0  0  0  0  0  0  0  0  0  0  0
    7.1981   -4.7897   -7.1083 H   0  0  0  0  0  0  0  0  0  0  0  0
    5.3522   -3.1284   -7.1299 H   0  0  0  0  0  0  0  0  0  0  0  0
    3.1613   -3.6137   -2.8009 H   0  0  0  0  0  0  0  0  0  0  0  0
  1  2  1  0
  1 20  1  0
  1 21  1  0
  1 22  1  0
  2  3  1  0
  2 23  1  0
  2 24  1  0
  3  4  1  0
  3 19  1  0
  4  5  2  0
  4 25  1  0
  5  6  1  0
  5 18  1  0
  6  7  1  0
  7  8  1  0
  7 26  1  0
  7 27  1  0
  8  9  1  0
  8 12  1  0
  8 28  1  6
  9 10  2  0
  9 11  1  0
 11 29  1  0
 12 13  2  0
 12 17  1  0
 13 14  1  0
 13 30  1  0
 14 15  2  0
 14 31  1  0
 15 16  1  0
 15 32  1  0
 16 17  2  0
 16 33  1  0
 17 34  1  0
 18 19  2  0
 18 35  1  0
M  END

