
     RDKit          3D

 54 57  0  0  0  0  0  0  0  0999 V2000
    1.6373   -6.0259    1.0406 C   0  0  0  0  0  0  0  0  0  0  0  0
    1.7297   -4.9484    2.1202 C   0  0  0  0  0  0  0  0  0  0  0  0
    2.6831   -3.8878    1.8066 N   0  0  0  0  0  0  0  0  0  0  0  0
    4.0131   -3.8793    2.1845 C   0  0  0  0  0  0  0  0  0  0  0  0
    4.5528   -2.7403    1.6358 C   0  0  0  0  0  0  0  0  0  0  0  0
    3.5948   -2.0602    0.9295 N   0  0  0  0  0  0  0  0  0  0  0  0
    2.4840   -2.7646    1.0423 C   0  0  0  0  0  0  0  0  0  0  0  0
    1.1798   -2.3864    0.3799 C   0  0  0  0  0  0  0  0  0  0  0  0
    1.0059   -0.9581    0.3293 N   0  0  0  0  0  0  0  0  0  0  0  0
    0.6057   -0.2668    1.5584 C   0  0  0  0  0  0  0  0  0  0  0  0
   -0.3552    0.8373    1.0856 C   0  0  0  0  0  0  0  0  0  0  0  0
    0.0670    1.0767   -0.3685 C   0  0  0  0  0  0  0  0  0  0  0  0
    0.4387   -0.3384   -0.8576 C   0  0  1  0  0  0  0  0  0  0  0  0
   -0.4722   -0.8519   -1.2320 H   0  0  0  0  0  0  0  0  0  0  0  0
    1.3863   -0.2667   -2.0687 C   0  0  0  0  0  0  0  0  0  0  0  0
    0.9312   -0.0355   -3.1778 O   0  0  0  0  0  0  0  0  0  0  0  0
    2.7090   -0.4271   -1.7610 N   0  0  0  0  0  0  0  0  0  0  0  0
    3.8202   -0.3591   -2.6210 C   0  0  0  0  0  0  0  0  0  0  0  0
    3.7248   -0.0260   -3.9846 C   0  0  0  0  0  0  0  0  0  0  0  0
    4.8909    0.0286   -4.7512 C   0  0  0  0  0  0  0  0  0  0  0  0
    6.1424   -0.2408   -4.1965 C   0  0  0  0  0  0  0  0  0  0  0  0
    6.2522   -0.5784   -2.8341 C   0  0  0  0  0  0  0  0  0  0  0  0
    7.5748   -0.8807   -2.2222 C   0  0  0  0  0  0  0  0  0  0  0  0
    8.7316   -0.1739   -2.6031 C   0  0  0  0  0  0  0  0  0  0  0  0
    9.9767   -0.4527   -2.0368 C   0  0  0  0  0  0  0  0  0  0  0  0
   10.0706   -1.4537   -1.0733 C   0  0  0  0  0  0  0  0  0  0  0  0
   11.2644   -1.7284   -0.5234 F   0  0  0  0  0  0  0  0  0  0  0  0
    8.9508   -2.1763   -0.6688 C   0  0  0  0  0  0  0  0  0  0  0  0
    7.7130   -1.8856   -1.2450 C   0  0  0  0  0  0  0  0  0  0  0  0
    5.0820   -0.6316   -2.0627 C   0  0  0  0  0  0  0  0  0  0  0  0
    0.9244   -6.8084    1.3450 H   0  0  0  0  0  0  0  0  0  0  0  0
    2.6163   -6.4999    0.8704 H   0  0  0  0  0  0  0  0  0  0  0  0
    1.2921   -5.6059    0.0829 H   0  0  0  0  0  0  0  0  0  0  0  0
    2.0399   -5.3909    3.0792 H   0  0  0  0  0  0  0  0  0  0  0  0
    0.7443   -4.4894    2.2927 H   0  0  0  0  0  0  0  0  0  0  0  0
    4.4365   -4.6625    2.8089 H   0  0  0  0  0  0  0  0  0  0  0  0
    5.5747   -2.3730    1.7219 H   0  0  0  0  0  0  0  0  0  0  0  0
    0.3351   -2.8953    0.8956 H   0  0  0  0  0  0  0  0  0  0  0  0
    1.1804   -2.7764   -0.6533 H   0  0  0  0  0  0  0  0  0  0  0  0
    1.4845    0.1470    2.0868 H   0  0  0  0  0  0  0  0  0  0  0  0
    0.1105   -0.9634    2.2627 H   0  0  0  0  0  0  0  0  0  0  0  0
   -0.3055    1.7444    1.7065 H   0  0  0  0  0  0  0  0  0  0  0  0
   -1.3946    0.4708    1.1162 H   0  0  0  0  0  0  0  0  0  0  0  0
    0.9594    1.7231   -0.4073 H   0  0  0  0  0  0  0  0  0  0  0  0
   -0.7093    1.5368   -0.9948 H   0  0  0  0  0  0  0  0  0  0  0  0
    2.9086   -0.6585   -0.7824 H   0  0  0  0  0  0  0  0  0  0  0  0
    2.7488    0.1796   -4.4174 H   0  0  0  0  0  0  0  0  0  0  0  0
    4.8150    0.2798   -5.8127 H   0  0  0  0  0  0  0  0  0  0  0  0
    7.0337   -0.2187   -4.8273 H   0  0  0  0  0  0  0  0  0  0  0  0
    8.6536    0.6268   -3.3416 H   0  0  0  0  0  0  0  0  0  0  0  0
   10.8727    0.1009   -2.3245 H   0  0  0  0  0  0  0  0  0  0  0  0
    9.0624   -2.9622    0.0811 H   0  0  0  0  0  0  0  0  0  0  0  0
    6.8388   -2.4672   -0.9443 H   0  0  0  0  0  0  0  0  0  0  0  0
    5.1350   -0.8739   -0.9997 H   0  0  0  0  0  0  0  0  0  0  0  0
  1  2  1  0
  1 31  1  0
  1 32  1  0
  1 33  1  0
  2  3  1  0
  2 34  1  0
  2 35  1  0
  3  4  1  0
  3  7  1  0
  4  5  2  0
  4 36  1  0
  5  6  1  0
  5 37  1  0
  6  7  2  0
  7  8  1  0
  8  9  1  0
  8 38  1  0
  8 39  1  0
  9 10  1  0
  9 13  1  0
 10 11  1  0
 10 40  1  0
 10 41  1  0
 11 12  1  0
 11 42  1  0
 11 43  1  0
 12 13  1  0
 12 44  1  0
 12 45  1  0
 13 14  1  6
 13 15  1  0
 15 16  2  0
 15 17  1  0
 17 18  1  0
 17 46  1  0
 18 19  2  0
 18 30  1  0
 19 20  1  0
 19 47  1  0
 20 21  2  0
 20 48  1  0
 21 22  1  0
 21 49  1  0
 22 23  1  0
 22 30  2  0
 23 24  2  0
 23 29  1  0
 24 25  1  0
 24 50  1  0
 25 26  2  0
 25 51  1  0
 26 27  1  0
 26 28  1  0
 28 29  2  0
 28 52  1  0
 29 53  1  0
 30 54  1  0
M  END

