
     RDKit          3D

 76 79  0  0  0  0  0  0  0  0999 V2000
    8.2808    0.9263    9.7795 C   0  0  0  0  0  0  0  0  0  0  0  0
    7.6054    1.2288    8.4488 C   0  0  1  0  0  0  0  0  0  0  0  0
    6.3133    2.0272    8.6064 C   0  0  0  0  0  0  0  0  0  0  0  0
    8.5657    1.9706    7.6785 O   0  0  0  0  0  0  0  0  0  0  0  0
    8.5217    2.0198    6.3309 C   0  0  0  0  0  0  0  0  0  0  0  0
    9.5103    2.8231    5.7207 C   0  0  0  0  0  0  0  0  0  0  0  0
    9.5746    2.9384    4.3407 C   0  0  0  0  0  0  0  0  0  0  0  0
    8.6515    2.2423    3.5453 C   0  0  0  0  0  0  0  0  0  0  0  0
    8.6899    2.4346    1.7685 S   0  0  1  0  0  0  0  0  0  0  0  0
    7.5746    1.6413    1.2256 O   0  0  0  0  0  0  0  0  0  0  0  0
    8.8033    3.8616    1.4485 O   0  0  0  0  0  0  0  0  0  0  0  0
   10.1794    1.7426    1.3529 N   0  0  0  0  0  0  0  0  0  0  0  0
   10.2256    0.2763    1.2921 C   0  0  0  0  0  0  0  0  0  0  0  0
    9.8606   -0.2754   -0.0957 C   0  0  0  0  0  0  0  0  0  0  0  0
   10.6397    0.3902   -1.2518 C   0  0  2  0  0  0  0  0  0  0  0  0
   12.0615   -0.1030   -1.4192 C   0  0  0  0  0  0  0  0  0  0  0  0
   12.7782   -0.9677   -0.6178 C   0  0  0  0  0  0  0  0  0  0  0  0
   14.0468   -1.1992   -1.1380 N   0  0  0  0  0  0  0  0  0  0  0  0
   15.0535   -2.1168   -0.6269 C   0  0  0  0  0  0  0  0  0  0  0  0
   16.3088   -1.4244   -0.0539 C   0  0  0  0  0  0  0  0  0  0  0  0
   16.5870   -1.5086    1.1152 O   0  0  0  0  0  0  0  0  0  0  0  0
   17.0647   -0.7594   -0.9207 O   0  0  0  0  0  0  0  0  0  0  0  0
   14.1623   -0.4769   -2.2937 C   0  0  0  0  0  0  0  0  0  0  0  0
   15.2541   -0.4596   -3.0565 N   0  0  0  0  0  0  0  0  0  0  0  0
   15.1850    0.2779   -4.1605 C   0  0  0  0  0  0  0  0  0  0  0  0
   16.2973    0.3512   -5.0030 N   0  0  0  0  0  0  0  0  0  0  0  0
   17.5671   -0.1639   -4.7949 C   0  0  0  0  0  0  0  0  0  0  0  0
   17.9362   -0.7700   -3.8169 O   0  0  0  0  0  0  0  0  0  0  0  0
   18.3121    0.1378   -5.8762 O   0  0  0  0  0  0  0  0  0  0  0  0
   19.7318   -0.2351   -5.9711 C   0  0  1  0  0  0  0  0  0  0  0  0
   19.8724   -1.7601   -5.9412 C   0  0  0  0  0  0  0  0  0  0  0  0
   20.1350    0.3217   -7.3374 C   0  0  0  0  0  0  0  0  0  0  0  0
   20.5255    0.4426   -4.8500 C   0  0  0  0  0  0  0  0  0  0  0  0
   14.0175    1.0029   -4.5250 C   0  0  0  0  0  0  0  0  0  0  0  0
   12.8961    0.9774   -3.7027 C   0  0  0  0  0  0  0  0  0  0  0  0
   12.9445    0.2190   -2.5197 C   0  0  0  0  0  0  0  0  0  0  0  0
   10.5548    1.9325   -1.1012 C   0  0  0  0  0  0  0  0  0  0  0  0
   10.9607    2.4032    0.2976 C   0  0  0  0  0  0  0  0  0  0  0  0
    7.6629    1.4546    4.1323 C   0  0  0  0  0  0  0  0  0  0  0  0
    7.5937    1.3386    5.5241 C   0  0  0  0  0  0  0  0  0  0  0  0
    7.6106    0.3393   10.4259 H   0  0  0  0  0  0  0  0  0  0  0  0
    8.5373    1.8619   10.3008 H   0  0  0  0  0  0  0  0  0  0  0  0
    9.2071    0.3539    9.6232 H   0  0  0  0  0  0  0  0  0  0  0  0
    7.3970    0.2746    7.9323 H   0  0  0  0  0  0  0  0  0  0  0  0
    6.5152    2.9758    9.1283 H   0  0  0  0  0  0  0  0  0  0  0  0
    5.5795    1.4558    9.1963 H   0  0  0  0  0  0  0  0  0  0  0  0
    5.8576    2.2632    7.6333 H   0  0  0  0  0  0  0  0  0  0  0  0
   10.2162    3.3482    6.3669 H   0  0  0  0  0  0  0  0  0  0  0  0
   10.3357    3.5663    3.8736 H   0  0  0  0  0  0  0  0  0  0  0  0
    9.5476   -0.1352    2.0544 H   0  0  0  0  0  0  0  0  0  0  0  0
   11.2457   -0.0191    1.5894 H   0  0  0  0  0  0  0  0  0  0  0  0
    8.7866   -0.0911   -0.2500 H   0  0  0  0  0  0  0  0  0  0  0  0
   10.0065   -1.3683   -0.1107 H   0  0  0  0  0  0  0  0  0  0  0  0
   10.1122    0.1308   -2.1877 H   0  0  0  0  0  0  0  0  0  0  0  0
   12.4849   -1.4682    0.3018 H   0  0  0  0  0  0  0  0  0  0  0  0
   15.3576   -2.8011   -1.4378 H   0  0  0  0  0  0  0  0  0  0  0  0
   14.6110   -2.7034    0.1860 H   0  0  0  0  0  0  0  0  0  0  0  0
   16.7171   -0.7768   -1.8471 H   0  0  0  0  0  0  0  0  0  0  0  0
   16.1846    0.8725   -5.8640 H   0  0  0  0  0  0  0  0  0  0  0  0
   19.2537   -2.2185   -6.7286 H   0  0  0  0  0  0  0  0  0  0  0  0
   19.5695   -2.1679   -4.9686 H   0  0  0  0  0  0  0  0  0  0  0  0
   20.9215   -2.0373   -6.1279 H   0  0  0  0  0  0  0  0  0  0  0  0
   19.5300   -0.1332   -8.1364 H   0  0  0  0  0  0  0  0  0  0  0  0
   21.1953    0.1058   -7.5373 H   0  0  0  0  0  0  0  0  0  0  0  0
   19.9893    1.4121   -7.3710 H   0  0  0  0  0  0  0  0  0  0  0  0
   20.2292    0.0619   -3.8643 H   0  0  0  0  0  0  0  0  0  0  0  0
   20.3681    1.5324   -4.8724 H   0  0  0  0  0  0  0  0  0  0  0  0
   21.6004    0.2514   -4.9924 H   0  0  0  0  0  0  0  0  0  0  0  0
   14.0133    1.5889   -5.4466 H   0  0  0  0  0  0  0  0  0  0  0  0
   12.0040    1.5405   -3.9868 H   0  0  0  0  0  0  0  0  0  0  0  0
    9.5167    2.2541   -1.2903 H   0  0  0  0  0  0  0  0  0  0  0  0
   11.1870    2.4325   -1.8522 H   0  0  0  0  0  0  0  0  0  0  0  0
   10.8350    3.4881    0.4007 H   0  0  0  0  0  0  0  0  0  0  0  0
   12.0218    2.1679    0.4921 H   0  0  0  0  0  0  0  0  0  0  0  0
    6.9424    0.9398    3.4945 H   0  0  0  0  0  0  0  0  0  0  0  0
    6.8104    0.7212    5.9626 H   0  0  0  0  0  0  0  0  0  0  0  0
  1  2  1  0
  1 41  1  0
  1 42  1  0
  1 43  1  0
  2  3  1  0
  2  4  1  0
  2 44  1  6
  3 45  1  0
  3 46  1  0
  3 47  1  0
  4  5  1  0
  5  6  2  0
  5 40  1  0
  6  7  1  0
  6 48  1  0
  7  8  2  0
  7 49  1  0
  9  8  1  1
  8 39  1  0
  9 10  2  0
  9 11  2  0
  9 12  1  0
 12 13  1  0
 12 38  1  0
 13 14  1  0
 13 50  1  0
 13 51  1  0
 14 15  1  0
 14 52  1  0
 14 53  1  0
 15 16  1  0
 15 37  1  0
 15 54  1  6
 16 17  2  0
 16 36  1  0
 17 18  1  0
 17 55  1  0
 18 19  1  0
 18 23  1  0
 19 20  1  0
 19 56  1  0
 19 57  1  0
 20 21  2  0
 20 22  1  0
 22 58  1  0
 23 24  1  0
 23 36  2  0
 24 25  2  0
 25 26  1  0
 25 34  1  0
 26 27  1  0
 26 59  1  0
 27 28  2  0
 27 29  1  0
 30 29  1  1
 30 31  1  0
 30 32  1  0
 30 33  1  0
 31 60  1  0
 31 61  1  0
 31 62  1  0
 32 63  1  0
 32 64  1  0
 32 65  1  0
 33 66  1  0
 33 67  1  0
 33 68  1  0
 34 35  2  0
 34 69  1  0
 35 36  1  0
 35 70  1  0
 37 38  1  0
 37 71  1  0
 37 72  1  0
 38 73  1  0
 38 74  1  0
 39 40  2  0
 39 75  1  0
 40 76  1  0
M  END

