
     RDKit          3D

 50 52  0  0  0  0  0  0  0  0999 V2000
    1.4159    0.1030    0.3464 C   0  0  0  0  0  0  0  0  0  0  0  0
    2.5930    0.0926    0.2871 N   0  0  0  0  0  0  0  0  0  0  0  0
    3.9632    0.0615    0.2188 C   0  0  0  0  0  0  0  0  0  0  0  0
    4.8444    1.1819    0.2191 C   0  0  0  0  0  0  0  0  0  0  0  0
    4.4019    2.5937    0.2502 C   0  0  0  0  0  0  0  0  0  0  0  0
    4.9002    3.5103    1.1928 C   0  0  0  0  0  0  0  0  0  0  0  0
    4.4350    4.8238    1.2309 C   0  0  0  0  0  0  0  0  0  0  0  0
    3.4593    5.2410    0.3227 C   0  0  0  0  0  0  0  0  0  0  0  0
    2.9707    6.5277    0.4353 O   0  0  0  0  0  0  0  0  0  0  0  0
    3.0682    7.4233   -0.5883 C   0  0  0  0  0  0  0  0  0  0  0  0
    2.2416    8.5529   -0.4971 C   0  0  0  0  0  0  0  0  0  0  0  0
    2.3310    9.5208   -1.4907 C   0  0  0  0  0  0  0  0  0  0  0  0
    1.5442   10.6008   -1.4090 F   0  0  0  0  0  0  0  0  0  0  0  0
    3.2024    9.4123   -2.5745 C   0  0  0  0  0  0  0  0  0  0  0  0
    4.0041    8.2751   -2.6240 C   0  0  0  0  0  0  0  0  0  0  0  0
    4.8588    8.1380   -3.6460 F   0  0  0  0  0  0  0  0  0  0  0  0
    3.9638    7.2731   -1.6565 C   0  0  0  0  0  0  0  0  0  0  0  0
    2.9390    4.3469   -0.6175 C   0  0  0  0  0  0  0  0  0  0  0  0
    3.4104    3.0345   -0.6467 C   0  0  0  0  0  0  0  0  0  0  0  0
    6.1378    0.6385    0.1580 C   0  0  0  0  0  0  0  0  0  0  0  0
    7.3916    1.3966    0.0100 C   0  0  0  0  0  0  0  0  0  0  0  0
    7.4987    2.5870    0.2068 O   0  0  0  0  0  0  0  0  0  0  0  0
    8.4329    0.6284   -0.3932 O   0  0  0  0  0  0  0  0  0  0  0  0
    9.7028    1.2849   -0.5754 C   0  0  0  0  0  0  0  0  0  0  0  0
    9.8241    1.9078   -1.9559 C   0  0  0  0  0  0  0  0  0  0  0  0
    6.0312   -0.7556    0.1345 N   0  0  0  0  0  0  0  0  0  0  0  0
    7.1316   -1.7131    0.1015 C   0  0  0  0  0  0  0  0  0  0  0  0
    4.7142   -1.1159    0.1730 C   0  0  0  0  0  0  0  0  0  0  0  0
    4.1929   -2.5205    0.2277 C   0  0  0  0  0  0  0  0  0  0  0  0
    4.1677   -3.1309    1.6405 C   0  0  0  0  0  0  0  0  0  0  0  0
    5.6669    3.1930    1.8985 H   0  0  0  0  0  0  0  0  0  0  0  0
    4.8173    5.5370    1.9634 H   0  0  0  0  0  0  0  0  0  0  0  0
    1.5483    8.6659    0.3360 H   0  0  0  0  0  0  0  0  0  0  0  0
    3.2535   10.1809   -3.3450 H   0  0  0  0  0  0  0  0  0  0  0  0
    4.6231    6.4105   -1.7433 H   0  0  0  0  0  0  0  0  0  0  0  0
    2.1662    4.6762   -1.3148 H   0  0  0  0  0  0  0  0  0  0  0  0
    2.9994    2.3407   -1.3825 H   0  0  0  0  0  0  0  0  0  0  0  0
   10.4488    0.4899   -0.4287 H   0  0  0  0  0  0  0  0  0  0  0  0
    9.8264    2.0444    0.2101 H   0  0  0  0  0  0  0  0  0  0  0  0
    9.6616    1.1568   -2.7447 H   0  0  0  0  0  0  0  0  0  0  0  0
   10.8333    2.3304   -2.0866 H   0  0  0  0  0  0  0  0  0  0  0  0
    9.0941    2.7204   -2.0822 H   0  0  0  0  0  0  0  0  0  0  0  0
    7.8775   -1.4649    0.8663 H   0  0  0  0  0  0  0  0  0  0  0  0
    7.6323   -1.7077   -0.8758 H   0  0  0  0  0  0  0  0  0  0  0  0
    6.7375   -2.7148    0.3025 H   0  0  0  0  0  0  0  0  0  0  0  0
    4.7662   -3.1683   -0.4556 H   0  0  0  0  0  0  0  0  0  0  0  0
    3.1665   -2.4981   -0.1695 H   0  0  0  0  0  0  0  0  0  0  0  0
    5.1762   -3.1958    2.0791 H   0  0  0  0  0  0  0  0  0  0  0  0
    3.7453   -4.1475    1.6140 H   0  0  0  0  0  0  0  0  0  0  0  0
    3.5484   -2.5230    2.3174 H   0  0  0  0  0  0  0  0  0  0  0  0
  1  2  3  0
  2  3  1  0
  3  4  1  0
  3 28  2  0
  4  5  1  0
  4 20  2  0
  5  6  1  0
  5 19  1  0
  6  7  2  0
  6 31  1  0
  7  8  1  0
  7 32  1  0
  8  9  2  0
  8 18  1  0
  9 10  1  0
 10 11  2  0
 10 17  1  0
 11 12  1  0
 11 33  1  0
 12 13  1  0
 12 14  2  0
 14 15  1  0
 14 34  1  0
 15 16  1  0
 15 17  2  0
 17 35  1  0
 18 19  2  0
 18 36  1  0
 19 37  1  0
 20 21  1  0
 20 26  1  0
 21 22  1  0
 21 23  2  0
 23 24  1  0
 24 25  1  0
 24 38  1  0
 24 39  1  0
 25 40  1  0
 25 41  1  0
 25 42  1  0
 26 27  1  0
 26 28  1  0
 27 43  1  0
 27 44  1  0
 27 45  1  0
 28 29  1  0
 29 30  1  0
 29 46  1  0
 29 47  1  0
 30 48  1  0
 30 49  1  0
 30 50  1  0
M  CHG  6   1  -1   2   1   5  -1   9   1  22  -1  23   1
M  END

