
     RDKit          3D

 35 37  0  0  0  0  0  0  0  0999 V2000
    2.8133   -0.7040    1.9801 O   0  0  0  0  0  0  0  0  0  0  0  0
    1.9143   -1.5177    2.1179 C   0  0  0  0  0  0  0  0  0  0  0  0
    1.0495   -1.6960    3.2593 C   0  0  0  0  0  0  0  0  0  0  0  0
    1.0974   -0.7513    4.7121 S   0  0  0  0  0  0  0  0  0  0  0  0
   -0.2034   -1.6882    5.3813 C   0  0  0  0  0  0  0  0  0  0  0  0
   -0.6535   -2.6732    4.5434 C   0  0  0  0  0  0  0  0  0  0  0  0
    0.0671   -2.6900    3.3043 C   0  0  0  0  0  0  0  0  0  0  0  0
   -0.1491   -3.5584    2.2630 N   0  0  0  0  0  0  0  0  0  0  0  0
    0.6158   -3.4029    1.2307 C   0  0  0  0  0  0  0  0  0  0  0  0
    1.5989   -2.4532    1.0915 N   0  0  0  0  0  0  0  0  0  0  0  0
    2.4154   -2.4133   -0.1239 C   0  0  0  0  0  0  0  0  0  0  0  0
    3.6338   -3.3204   -0.0485 C   0  0  0  0  0  0  0  0  0  0  0  0
    3.1932   -4.6610    0.0501 O   0  0  0  0  0  0  0  0  0  0  0  0
    4.2128   -5.6096    0.2815 C   0  0  1  0  0  0  0  0  0  0  0  0
    4.8345   -5.2765    1.1336 H   0  0  0  0  0  0  0  0  0  0  0  0
    3.5494   -6.9542    0.5794 C   0  0  0  0  0  0  0  0  0  0  0  0
    2.9298   -7.5693   -0.6811 C   0  0  0  0  0  0  0  0  0  0  0  0
    3.9665   -7.5946   -1.8108 C   0  0  0  0  0  0  0  0  0  0  0  0
    4.5633   -6.2035   -2.0082 C   0  0  0  0  0  0  0  0  0  0  0  0
    5.1125   -5.6824   -0.7991 O   0  0  0  0  0  0  0  0  0  0  0  0
   -0.5701   -1.4510    6.3797 H   0  0  0  0  0  0  0  0  0  0  0  0
   -1.4604   -3.3683    4.7750 H   0  0  0  0  0  0  0  0  0  0  0  0
    0.5009   -4.0683    0.3690 H   0  0  0  0  0  0  0  0  0  0  0  0
    2.7478   -1.3762   -0.2606 H   0  0  0  0  0  0  0  0  0  0  0  0
    1.7846   -2.7048   -0.9768 H   0  0  0  0  0  0  0  0  0  0  0  0
    4.2514   -3.0467    0.8281 H   0  0  0  0  0  0  0  0  0  0  0  0
    4.2563   -3.1717   -0.9494 H   0  0  0  0  0  0  0  0  0  0  0  0
    2.7994   -6.8127    1.3729 H   0  0  0  0  0  0  0  0  0  0  0  0
    4.3298   -7.6243    0.9773 H   0  0  0  0  0  0  0  0  0  0  0  0
    2.0587   -6.9676   -0.9922 H   0  0  0  0  0  0  0  0  0  0  0  0
    2.5558   -8.5835   -0.4669 H   0  0  0  0  0  0  0  0  0  0  0  0
    3.5183   -7.9411   -2.7573 H   0  0  0  0  0  0  0  0  0  0  0  0
    4.7773   -8.3008   -1.5584 H   0  0  0  0  0  0  0  0  0  0  0  0
    3.7897   -5.5146   -2.3982 H   0  0  0  0  0  0  0  0  0  0  0  0
    5.3943   -6.2183   -2.7291 H   0  0  0  0  0  0  0  0  0  0  0  0
  1  2  2  0
  2  3  1  0
  2 10  1  0
  3  4  1  0
  3  7  2  0
  4  5  1  0
  5  6  2  0
  5 21  1  0
  6  7  1  0
  6 22  1  0
  7  8  1  0
  8  9  2  0
  9 10  1  0
  9 23  1  0
 10 11  1  0
 11 12  1  0
 11 24  1  0
 11 25  1  0
 12 13  1  0
 12 26  1  0
 12 27  1  0
 13 14  1  0
 14 15  1  1
 14 16  1  0
 14 20  1  0
 16 17  1  0
 16 28  1  0
 16 29  1  0
 17 18  1  0
 17 30  1  0
 17 31  1  0
 18 19  1  0
 18 32  1  0
 18 33  1  0
 19 20  1  0
 19 34  1  0
 19 35  1  0
M  END

