
     RDKit          3D

 42 44  0  0  0  0  0  0  0  0999 V2000
    1.1067   -0.0714   -0.2434 C   0  0  0  0  0  0  0  0  0  0  0  0
    2.5932   -0.0961   -0.0879 C   0  0  0  0  0  0  0  0  0  0  0  0
    3.2854    1.0297   -0.1213 N   0  0  0  0  0  0  0  0  0  0  0  0
    4.5844    0.6860    0.0544 N   0  0  0  0  0  0  0  0  0  0  0  0
    5.5855    1.6914    0.0895 C   0  0  0  0  0  0  0  0  0  0  0  0
    5.2054    3.0333    0.2360 C   0  0  0  0  0  0  0  0  0  0  0  0
    6.1754    4.0338    0.2802 C   0  0  0  0  0  0  0  0  0  0  0  0
    7.5287    3.6966    0.1819 C   0  0  0  0  0  0  0  0  0  0  0  0
    8.8540    5.0628    0.2472 Br  0  0  0  0  0  0  0  0  0  0  0  0
    7.9153    2.3626    0.0307 C   0  0  0  0  0  0  0  0  0  0  0  0
    6.9437    1.3621   -0.0217 C   0  0  0  0  0  0  0  0  0  0  0  0
    4.7362   -0.6567    0.1896 C   0  0  0  0  0  0  0  0  0  0  0  0
    3.4707   -1.2255    0.1004 C   0  0  0  0  0  0  0  0  0  0  0  0
    2.9708   -2.6139    0.2429 C   0  0  0  0  0  0  0  0  0  0  0  0
    1.7818   -2.7932    0.4796 O   0  0  0  0  0  0  0  0  0  0  0  0
    3.8354   -3.7119    0.1059 N   0  0  0  0  0  0  0  0  0  0  0  0
    5.1681   -3.5731   -0.4509 C   0  0  1  0  0  0  0  0  0  0  0  0
    6.4003   -3.4888    0.4309 C   0  0  0  0  0  0  0  0  0  0  0  0
    6.1601   -4.7063   -0.4146 C   0  0  0  0  0  0  0  0  0  0  0  0
    3.1808   -5.0366    0.0898 C   0  0  1  0  0  0  0  0  0  0  0  0
    3.1212   -5.7085   -1.2795 C   0  0  0  0  0  0  0  0  0  0  0  0
    3.7377   -5.9559    1.1864 C   0  0  0  0  0  0  0  0  0  0  0  0
    3.8094   -7.1507    1.0893 O   0  0  0  0  0  0  0  0  0  0  0  0
    4.1005   -5.3204    2.3203 O   0  0  0  0  0  0  0  0  0  0  0  0
    0.7827    0.9516   -0.4789 H   0  0  0  0  0  0  0  0  0  0  0  0
    0.6120   -0.4133    0.6775 H   0  0  0  0  0  0  0  0  0  0  0  0
    0.7766   -0.7557   -1.0391 H   0  0  0  0  0  0  0  0  0  0  0  0
    4.1458    3.2747    0.3102 H   0  0  0  0  0  0  0  0  0  0  0  0
    5.8768    5.0770    0.3951 H   0  0  0  0  0  0  0  0  0  0  0  0
    8.9713    2.1025   -0.0566 H   0  0  0  0  0  0  0  0  0  0  0  0
    7.2601    0.3281   -0.1647 H   0  0  0  0  0  0  0  0  0  0  0  0
    5.7038   -1.1019    0.3809 H   0  0  0  0  0  0  0  0  0  0  0  0
    5.1941   -2.9666   -1.3633 H   0  0  0  0  0  0  0  0  0  0  0  0
    6.2524   -3.6017    1.5083 H   0  0  0  0  0  0  0  0  0  0  0  0
    7.2019   -2.7991    0.1490 H   0  0  0  0  0  0  0  0  0  0  0  0
    5.9067   -5.6392    0.0918 H   0  0  0  0  0  0  0  0  0  0  0  0
    6.7669   -4.8504   -1.3127 H   0  0  0  0  0  0  0  0  0  0  0  0
    2.1475   -4.8209    0.4078 H   0  0  0  0  0  0  0  0  0  0  0  0
    4.1192   -5.9320   -1.6816 H   0  0  0  0  0  0  0  0  0  0  0  0
    2.5876   -5.0626   -1.9925 H   0  0  0  0  0  0  0  0  0  0  0  0
    2.5785   -6.6596   -1.1917 H   0  0  0  0  0  0  0  0  0  0  0  0
    3.9770   -4.3656    2.1884 H   0  0  0  0  0  0  0  0  0  0  0  0
  1  2  1  0
  1 25  1  0
  1 26  1  0
  1 27  1  0
  2  3  2  0
  2 13  1  0
  3  4  1  0
  4  5  1  0
  4 12  1  0
  5  6  2  0
  5 11  1  0
  6  7  1  0
  6 28  1  0
  7  8  2  0
  7 29  1  0
  8  9  1  0
  8 10  1  0
 10 11  2  0
 10 30  1  0
 11 31  1  0
 12 13  2  0
 12 32  1  0
 13 14  1  0
 14 15  2  0
 14 16  1  0
 16 17  1  0
 16 20  1  0
 17 18  1  0
 17 19  1  0
 17 33  1  6
 18 19  1  0
 18 34  1  0
 18 35  1  0
 19 36  1  0
 19 37  1  0
 20 21  1  0
 20 22  1  0
 20 38  1  1
 21 39  1  0
 21 40  1  0
 21 41  1  0
 22 23  2  0
 22 24  1  0
 24 42  1  0
M  END

