
     RDKit          3D

 57 59  0  0  0  0  0  0  0  0999 V2000
    0.7421   -0.6741    0.5173 C   0  0  0  0  0  0  0  0  0  0  0  0
    2.1910   -0.6874    0.3681 N   0  0  0  0  0  0  0  0  0  0  0  0
    2.9351   -0.3803    1.5088 C   0  0  0  0  0  0  0  0  0  0  0  0
    2.4063   -0.1322    2.5864 O   0  0  0  0  0  0  0  0  0  0  0  0
    4.3056   -0.3721    1.3730 N   0  0  0  0  0  0  0  0  0  0  0  0
    5.1682   -0.1491    2.5345 C   0  0  1  0  0  0  0  0  0  0  0  0
    6.5815   -0.6868    2.2613 C   0  0  0  0  0  0  0  0  0  0  0  0
    7.3854    0.1783    1.2763 C   0  0  0  0  0  0  0  0  0  0  0  0
    7.4252    1.6592    1.6925 C   0  0  2  0  0  0  0  0  0  0  0  0
    8.3662    1.8713    2.8886 C   0  0  0  0  0  0  0  0  0  0  0  0
    9.0904    1.0269    3.3421 O   0  0  0  0  0  0  0  0  0  0  0  0
    8.3755    3.1189    3.4132 O   0  0  0  0  0  0  0  0  0  0  0  0
    5.9930    2.1893    1.9371 C   0  0  0  0  0  0  0  0  0  0  0  0
    5.2263    1.3358    2.9518 C   0  0  0  0  0  0  0  0  0  0  0  0
    2.7912   -1.2171   -0.8416 C   0  0  1  0  0  0  0  0  0  0  0  0
    1.9797   -2.1449   -1.7780 C   0  0  0  0  0  0  0  0  0  0  0  0
    2.6882   -1.5112   -2.9918 C   0  0  2  0  0  0  0  0  0  0  0  0
    3.7442   -2.3556   -3.4139 O   0  0  0  0  0  0  0  0  0  0  0  0
    4.3405   -2.1849   -4.6281 C   0  0  0  0  0  0  0  0  0  0  0  0
    5.2762   -3.1693   -4.9911 C   0  0  0  0  0  0  0  0  0  0  0  0
    5.9388   -3.0895   -6.2136 C   0  0  0  0  0  0  0  0  0  0  0  0
    5.6801   -2.0329   -7.0966 C   0  0  0  0  0  0  0  0  0  0  0  0
    4.7515   -1.0571   -6.7335 C   0  0  0  0  0  0  0  0  0  0  0  0
    4.0809   -1.1208   -5.5053 C   0  0  0  0  0  0  0  0  0  0  0  0
    3.1303   -0.3004   -2.0862 C   0  0  1  0  0  0  0  0  0  0  0  0
    2.1772    0.8856   -2.2447 C   0  0  0  0  0  0  0  0  0  0  0  0
    4.5842    0.1524   -2.1940 C   0  0  0  0  0  0  0  0  0  0  0  0
    0.5088   -0.1848    1.4693 H   0  0  0  0  0  0  0  0  0  0  0  0
    0.3188   -1.6938    0.5456 H   0  0  0  0  0  0  0  0  0  0  0  0
    0.2566   -0.1184   -0.2996 H   0  0  0  0  0  0  0  0  0  0  0  0
    4.7341   -0.4396    0.4615 H   0  0  0  0  0  0  0  0  0  0  0  0
    4.7178   -0.7099    3.3669 H   0  0  0  0  0  0  0  0  0  0  0  0
    6.5204   -1.7248    1.8943 H   0  0  0  0  0  0  0  0  0  0  0  0
    7.1275   -0.7216    3.2163 H   0  0  0  0  0  0  0  0  0  0  0  0
    6.9525    0.1186    0.2619 H   0  0  0  0  0  0  0  0  0  0  0  0
    8.4116   -0.2092    1.2008 H   0  0  0  0  0  0  0  0  0  0  0  0
    7.8779    2.2469    0.8710 H   0  0  0  0  0  0  0  0  0  0  0  0
    7.7390    3.6840    2.9529 H   0  0  0  0  0  0  0  0  0  0  0  0
    5.4577    2.1825    0.9723 H   0  0  0  0  0  0  0  0  0  0  0  0
    5.9944    3.2487    2.2519 H   0  0  0  0  0  0  0  0  0  0  0  0
    4.1990    1.7049    3.0847 H   0  0  0  0  0  0  0  0  0  0  0  0
    5.7169    1.4004    3.9395 H   0  0  0  0  0  0  0  0  0  0  0  0
    3.7087   -1.7572   -0.5630 H   0  0  0  0  0  0  0  0  0  0  0  0
    0.9041   -1.9290   -1.7884 H   0  0  0  0  0  0  0  0  0  0  0  0
    2.1263   -3.2276   -1.6589 H   0  0  0  0  0  0  0  0  0  0  0  0
    2.0394   -1.2563   -3.8455 H   0  0  0  0  0  0  0  0  0  0  0  0
    5.4610   -3.9897   -4.2945 H   0  0  0  0  0  0  0  0  0  0  0  0
    6.6631   -3.8630   -6.4823 H   0  0  0  0  0  0  0  0  0  0  0  0
    6.1997   -1.9730   -8.0555 H   0  0  0  0  0  0  0  0  0  0  0  0
    4.5411   -0.2238   -7.4093 H   0  0  0  0  0  0  0  0  0  0  0  0
    3.3698   -0.3374   -5.2429 H   0  0  0  0  0  0  0  0  0  0  0  0
    1.1212    0.5777   -2.2889 H   0  0  0  0  0  0  0  0  0  0  0  0
    2.3985    1.4367   -3.1737 H   0  0  0  0  0  0  0  0  0  0  0  0
    2.2827    1.5869   -1.4017 H   0  0  0  0  0  0  0  0  0  0  0  0
    5.2816   -0.6929   -2.0890 H   0  0  0  0  0  0  0  0  0  0  0  0
    4.8109    0.8944   -1.4096 H   0  0  0  0  0  0  0  0  0  0  0  0
    4.7921    0.6323   -3.1632 H   0  0  0  0  0  0  0  0  0  0  0  0
  1  2  1  0
  1 28  1  0
  1 29  1  0
  1 30  1  0
  2  3  1  0
  2 15  1  0
  3  4  2  0
  3  5  1  0
  5  6  1  0
  5 31  1  0
  6  7  1  0
  6 14  1  0
  6 32  1  1
  7  8  1  0
  7 33  1  0
  7 34  1  0
  8  9  1  0
  8 35  1  0
  8 36  1  0
  9 10  1  0
  9 13  1  0
  9 37  1  6
 10 11  2  0
 10 12  1  0
 12 38  1  0
 13 14  1  0
 13 39  1  0
 13 40  1  0
 14 41  1  0
 14 42  1  0
 15 16  1  0
 15 25  1  0
 15 43  1  1
 16 17  1  0
 16 44  1  0
 16 45  1  0
 17 18  1  0
 17 25  1  0
 17 46  1  6
 18 19  1  0
 19 20  2  0
 19 24  1  0
 20 21  1  0
 20 47  1  0
 21 22  2  0
 21 48  1  0
 22 23  1  0
 22 49  1  0
 23 24  2  0
 23 50  1  0
 24 51  1  0
 25 26  1  6
 25 27  1  0
 26 52  1  0
 26 53  1  0
 26 54  1  0
 27 55  1  0
 27 56  1  0
 27 57  1  0
M  END

