
     RDKit          3D

 40 40  0  0  0  0  0  0  0  0999 V2000
    2.4806    0.8546   -0.9323 C   0  0  0  0  0  0  0  0  0  0  0  0
    2.3349    1.9157    0.1585 C   0  0  0  0  0  0  0  0  0  0  0  0
    3.0359    1.5645    1.4773 C   0  0  0  0  0  0  0  0  0  0  0  0
    4.4832    1.4255    1.3677 N   0  0  0  0  0  0  0  0  0  0  0  0
    5.3356    2.4596    1.5865 C   0  0  0  0  0  0  0  0  0  0  0  0
    4.9584    3.5789    1.9103 O   0  0  0  0  0  0  0  0  0  0  0  0
    6.8315    2.1415    1.3984 C   0  0  1  0  0  0  0  0  0  0  0  0
    7.1741    1.8027   -0.0632 C   0  0  0  0  0  0  0  0  0  0  0  0
    7.5635    3.2908    1.8808 N   0  0  0  0  0  0  0  0  0  0  0  0
    8.8403    3.1572    2.3706 C   0  0  0  0  0  0  0  0  0  0  0  0
    9.4554    2.1018    2.3136 O   0  0  0  0  0  0  0  0  0  0  0  0
    9.3448    4.3361    2.9046 N   0  0  0  0  0  0  0  0  0  0  0  0
   10.6035    4.5696    3.4901 C   0  0  0  0  0  0  0  0  0  0  0  0
   11.5786    3.5641    3.6185 C   0  0  0  0  0  0  0  0  0  0  0  0
   12.8119    3.8440    4.2091 C   0  0  0  0  0  0  0  0  0  0  0  0
   13.0707    5.1286    4.6706 C   0  0  0  0  0  0  0  0  0  0  0  0
   14.2568    5.4080    5.2410 F   0  0  0  0  0  0  0  0  0  0  0  0
   12.1204    6.1378    4.5533 C   0  0  0  0  0  0  0  0  0  0  0  0
   10.8769    5.8785    3.9648 C   0  0  0  0  0  0  0  0  0  0  0  0
    9.8521    6.9807    3.8445 C   0  0  0  0  0  0  0  0  0  0  0  0
    1.9542    1.1516   -1.8528 H   0  0  0  0  0  0  0  0  0  0  0  0
    2.0637   -0.1153   -0.6109 H   0  0  0  0  0  0  0  0  0  0  0  0
    3.5379    0.6931   -1.2003 H   0  0  0  0  0  0  0  0  0  0  0  0
    1.2656    2.0778    0.3812 H   0  0  0  0  0  0  0  0  0  0  0  0
    2.7255    2.8845   -0.1962 H   0  0  0  0  0  0  0  0  0  0  0  0
    2.6337    0.6202    1.8821 H   0  0  0  0  0  0  0  0  0  0  0  0
    2.8452    2.3542    2.2181 H   0  0  0  0  0  0  0  0  0  0  0  0
    4.8709    0.5268    1.1090 H   0  0  0  0  0  0  0  0  0  0  0  0
    7.0887    1.2659    2.0217 H   0  0  0  0  0  0  0  0  0  0  0  0
    6.9105    2.6408   -0.7267 H   0  0  0  0  0  0  0  0  0  0  0  0
    6.6458    0.9006   -0.4108 H   0  0  0  0  0  0  0  0  0  0  0  0
    8.2544    1.6142   -0.1391 H   0  0  0  0  0  0  0  0  0  0  0  0
    6.9648    4.0810    2.1161 H   0  0  0  0  0  0  0  0  0  0  0  0
    8.7414    5.1447    2.8389 H   0  0  0  0  0  0  0  0  0  0  0  0
   11.3537    2.5669    3.2479 H   0  0  0  0  0  0  0  0  0  0  0  0
   13.5739    3.0688    4.3121 H   0  0  0  0  0  0  0  0  0  0  0  0
   12.3596    7.1355    4.9280 H   0  0  0  0  0  0  0  0  0  0  0  0
   10.2306    7.9201    4.2702 H   0  0  0  0  0  0  0  0  0  0  0  0
    8.9161    6.7349    4.3778 H   0  0  0  0  0  0  0  0  0  0  0  0
    9.5860    7.1857    2.7915 H   0  0  0  0  0  0  0  0  0  0  0  0
  1  2  1  0
  1 21  1  0
  1 22  1  0
  1 23  1  0
  2  3  1  0
  2 24  1  0
  2 25  1  0
  3  4  1  0
  3 26  1  0
  3 27  1  0
  4  5  1  0
  4 28  1  0
  5  6  2  0
  5  7  1  0
  7  8  1  0
  7  9  1  0
  7 29  1  1
  8 30  1  0
  8 31  1  0
  8 32  1  0
  9 10  1  0
  9 33  1  0
 10 11  2  0
 10 12  1  0
 12 13  1  0
 12 34  1  0
 13 14  2  0
 13 19  1  0
 14 15  1  0
 14 35  1  0
 15 16  2  0
 15 36  1  0
 16 17  1  0
 16 18  1  0
 18 19  2  0
 18 37  1  0
 19 20  1  0
 20 38  1  0
 20 39  1  0
 20 40  1  0
M  END

