
     RDKit          3D

 51 54  0  0  0  0  0  0  0  0999 V2000
   -0.1243   -0.4629    2.2420 C   0  0  0  0  0  0  0  0  0  0  0  0
    1.2650   -0.5010    1.6166 C   0  0  1  0  0  0  0  0  0  0  0  0
    1.2204   -0.9040    0.1416 C   0  0  0  0  0  0  0  0  0  0  0  0
    2.0802    0.8136    1.8305 C   0  0  0  0  0  0  0  0  0  0  0  0
    3.4110    0.3013    2.3217 C   0  0  0  0  0  0  0  0  0  0  0  0
    4.6410    0.9358    2.5269 C   0  0  0  0  0  0  0  0  0  0  0  0
    5.6947    0.1874    3.0447 C   0  0  0  0  0  0  0  0  0  0  0  0
    5.5517   -1.1851    3.3579 C   0  0  0  0  0  0  0  0  0  0  0  0
    6.6439   -2.0363    3.9120 C   0  0  0  0  0  0  0  0  0  0  0  0
    6.6116   -3.2683    3.7242 O   0  0  0  0  0  0  0  0  0  0  0  0
    7.6634   -1.4970    4.6491 N   0  0  0  0  0  0  0  0  0  0  0  0
    7.6853   -0.1883    5.3255 C   0  0  0  0  0  0  0  0  0  0  0  0
    8.6852   -0.3654    6.4844 C   0  0  0  0  0  0  0  0  0  0  0  0
    8.8134   -1.8867    6.6770 C   0  0  2  0  0  0  0  0  0  0  0  0
   10.0730   -2.2880    7.2922 N   0  0  0  0  0  0  0  0  0  0  0  0
   10.3786   -1.6878    8.5941 C   0  0  0  0  0  0  0  0  0  0  0  0
    9.6622   -2.3837    9.7558 C   0  0  0  0  0  0  0  0  0  0  0  0
    9.9473   -3.7699    9.7673 O   0  0  0  0  0  0  0  0  0  0  0  0
    9.5969   -4.3975    8.5469 C   0  0  0  0  0  0  0  0  0  0  0  0
   10.3112   -3.7343    7.3647 C   0  0  0  0  0  0  0  0  0  0  0  0
    8.6726   -2.3857    5.2294 C   0  0  0  0  0  0  0  0  0  0  0  0
    4.3186   -1.8474    3.0751 C   0  0  0  0  0  0  0  0  0  0  0  0
    4.1245   -3.1561    3.2376 O   0  0  0  0  0  0  0  0  0  0  0  0
    3.2585   -1.0528    2.5946 C   0  0  0  0  0  0  0  0  0  0  0  0
    2.0240   -1.5387    2.3189 O   0  0  0  0  0  0  0  0  0  0  0  0
   -0.7479    0.3023    1.7529 H   0  0  0  0  0  0  0  0  0  0  0  0
   -0.0582   -0.2274    3.3150 H   0  0  0  0  0  0  0  0  0  0  0  0
   -0.6224   -1.4384    2.1343 H   0  0  0  0  0  0  0  0  0  0  0  0
    0.6324   -0.1785   -0.4433 H   0  0  0  0  0  0  0  0  0  0  0  0
    0.7633   -1.8988    0.0315 H   0  0  0  0  0  0  0  0  0  0  0  0
    2.2373   -0.9447   -0.2789 H   0  0  0  0  0  0  0  0  0  0  0  0
    1.6054    1.4640    2.5863 H   0  0  0  0  0  0  0  0  0  0  0  0
    2.1574    1.4009    0.9017 H   0  0  0  0  0  0  0  0  0  0  0  0
    4.7797    1.9908    2.2800 H   0  0  0  0  0  0  0  0  0  0  0  0
    6.6628    0.6673    3.1728 H   0  0  0  0  0  0  0  0  0  0  0  0
    6.6745    0.0733    5.6742 H   0  0  0  0  0  0  0  0  0  0  0  0
    8.0192    0.6201    4.6568 H   0  0  0  0  0  0  0  0  0  0  0  0
    8.3526    0.1710    7.3847 H   0  0  0  0  0  0  0  0  0  0  0  0
    9.6762    0.0261    6.2033 H   0  0  0  0  0  0  0  0  0  0  0  0
    7.9168   -2.2407    7.2340 H   0  0  0  0  0  0  0  0  0  0  0  0
   10.1448   -0.6128    8.5853 H   0  0  0  0  0  0  0  0  0  0  0  0
   11.4673   -1.7794    8.7596 H   0  0  0  0  0  0  0  0  0  0  0  0
    8.5654   -2.2181    9.6908 H   0  0  0  0  0  0  0  0  0  0  0  0
   10.0026   -1.9790   10.7223 H   0  0  0  0  0  0  0  0  0  0  0  0
    8.4961   -4.3668    8.4027 H   0  0  0  0  0  0  0  0  0  0  0  0
    9.8905   -5.4553    8.6355 H   0  0  0  0  0  0  0  0  0  0  0  0
   10.0202   -4.2181    6.4207 H   0  0  0  0  0  0  0  0  0  0  0  0
   11.3980   -3.8910    7.4871 H   0  0  0  0  0  0  0  0  0  0  0  0
    8.3332   -3.4218    5.1252 H   0  0  0  0  0  0  0  0  0  0  0  0
    9.6442   -2.2763    4.7125 H   0  0  0  0  0  0  0  0  0  0  0  0
    5.0277   -3.5353    3.4160 H   0  0  0  0  0  0  0  0  0  0  0  0
  2  1  1  1
  1 26  1  0
  1 27  1  0
  1 28  1  0
  2  3  1  0
  2  4  1  0
  2 25  1  0
  3 29  1  0
  3 30  1  0
  3 31  1  0
  4  5  1  0
  4 32  1  0
  4 33  1  0
  5  6  2  0
  5 24  1  0
  6  7  1  0
  6 34  1  0
  7  8  2  0
  7 35  1  0
  8  9  1  0
  8 22  1  0
  9 10  2  0
  9 11  1  0
 11 12  1  0
 11 21  1  0
 12 13  1  0
 12 36  1  0
 12 37  1  0
 13 14  1  0
 13 38  1  0
 13 39  1  0
 14 15  1  0
 14 21  1  0
 14 40  1  1
 15 16  1  0
 15 20  1  0
 16 17  1  0
 16 41  1  0
 16 42  1  0
 17 18  1  0
 17 43  1  0
 17 44  1  0
 18 19  1  0
 19 20  1  0
 19 45  1  0
 19 46  1  0
 20 47  1  0
 20 48  1  0
 21 49  1  0
 21 50  1  0
 22 23  1  0
 22 24  2  0
 23 51  1  0
 24 25  1  0
M  END

