
     RDKit          3D

 35 37  0  0  0  0  0  0  0  0999 V2000
    4.7002   -2.2843   -0.2889 C   0  0  0  0  0  0  0  0  0  0  0  0
    4.0370   -1.1019    0.3701 C   0  0  0  0  0  0  0  0  0  0  0  0
    4.8000   -0.0904    0.9561 C   0  0  0  0  0  0  0  0  0  0  0  0
    4.1964    1.0128    1.5687 C   0  0  0  0  0  0  0  0  0  0  0  0
    5.1937    2.2631    2.2911 Cl  0  0  0  0  0  0  0  0  0  0  0  0
    2.8084    1.1166    1.6005 C   0  0  0  0  0  0  0  0  0  0  0  0
    2.0277    0.1148    1.0191 C   0  0  0  0  0  0  0  0  0  0  0  0
    2.6153   -1.0074    0.3999 C   0  0  0  0  0  0  0  0  0  0  0  0
    1.8655   -2.0075   -0.1919 N   0  0  0  0  0  0  0  0  0  0  0  0
    0.4314   -2.1383   -0.0757 C   0  0  1  0  0  0  0  0  0  0  0  0
   -0.3312   -1.3219   -1.1407 C   0  0  0  0  0  0  0  0  0  0  0  0
    0.0813   -3.6117   -0.1610 C   0  0  0  0  0  0  0  0  0  0  0  0
    0.9415   -4.5376   -0.4247 N   0  0  0  0  0  0  0  0  0  0  0  0
    0.3615   -5.7937   -0.4545 C   0  0  0  0  0  0  0  0  0  0  0  0
    1.0315   -7.0010   -0.7123 C   0  0  0  0  0  0  0  0  0  0  0  0
    0.3068   -8.1892   -0.7064 C   0  0  0  0  0  0  0  0  0  0  0  0
   -1.0771   -8.1910   -0.4468 C   0  0  0  0  0  0  0  0  0  0  0  0
   -1.7622   -7.0040   -0.1886 C   0  0  0  0  0  0  0  0  0  0  0  0
   -1.0333   -5.8094   -0.1950 C   0  0  0  0  0  0  0  0  0  0  0  0
   -1.5827   -4.1702    0.0878 S   0  0  0  0  0  0  0  0  0  0  0  0
    5.7953   -2.2074   -0.2363 H   0  0  0  0  0  0  0  0  0  0  0  0
    4.4188   -2.3661   -1.3538 H   0  0  0  0  0  0  0  0  0  0  0  0
    4.4115   -3.2374    0.1907 H   0  0  0  0  0  0  0  0  0  0  0  0
    5.8897   -0.1596    0.9374 H   0  0  0  0  0  0  0  0  0  0  0  0
    2.3345    1.9774    2.0754 H   0  0  0  0  0  0  0  0  0  0  0  0
    0.9428    0.2218    1.0504 H   0  0  0  0  0  0  0  0  0  0  0  0
    2.3332   -2.8767   -0.4264 H   0  0  0  0  0  0  0  0  0  0  0  0
    0.1020   -1.7902    0.9238 H   0  0  0  0  0  0  0  0  0  0  0  0
   -0.0719   -1.6815   -2.1479 H   0  0  0  0  0  0  0  0  0  0  0  0
   -0.0519   -0.2605   -1.0730 H   0  0  0  0  0  0  0  0  0  0  0  0
   -1.4215   -1.4018   -1.0057 H   0  0  0  0  0  0  0  0  0  0  0  0
    2.1047   -6.9841   -0.9116 H   0  0  0  0  0  0  0  0  0  0  0  0
    0.8170   -9.1346   -0.9054 H   0  0  0  0  0  0  0  0  0  0  0  0
   -1.6250   -9.1363   -0.4470 H   0  0  0  0  0  0  0  0  0  0  0  0
   -2.8356   -7.0106    0.0122 H   0  0  0  0  0  0  0  0  0  0  0  0
  1  2  1  0
  1 21  1  0
  1 22  1  0
  1 23  1  0
  2  3  2  0
  2  8  1  0
  3  4  1  0
  3 24  1  0
  4  5  1  0
  4  6  2  0
  6  7  1  0
  6 25  1  0
  7  8  2  0
  7 26  1  0
  8  9  1  0
  9 10  1  0
  9 27  1  0
 10 11  1  0
 10 12  1  0
 10 28  1  1
 11 29  1  0
 11 30  1  0
 11 31  1  0
 12 13  2  0
 12 20  1  0
 13 14  1  0
 14 15  2  0
 14 19  1  0
 15 16  1  0
 15 32  1  0
 16 17  2  0
 16 33  1  0
 17 18  1  0
 17 34  1  0
 18 19  2  0
 18 35  1  0
 19 20  1  0
M  END

