
     RDKit          3D

154165  0  0  0  0  0  0  0  0999 V2000
   -1.6539    6.3525    1.0263 C   0  0  0  0  0  0  0  0  0  0  0  0
   -0.4625    6.4832    0.0763 C   0  0  0  0  0  0  0  0  0  0  0  0
    0.8882    6.2121    0.7464 C   0  0  0  0  0  0  0  0  0  0  0  0
    2.0866    6.3419   -0.1982 C   0  0  0  0  0  0  0  0  0  0  0  0
    3.4343    6.0705    0.4754 C   0  0  0  0  0  0  0  0  0  0  0  0
    4.6311    6.2079   -0.4843 C   0  0  0  0  0  0  0  0  0  0  0  0
    5.9692    5.9309    0.1392 C   0  0  0  0  0  0  0  0  0  0  0  0
    6.7989    4.8504   -0.0524 C   0  0  0  0  0  0  0  0  0  0  0  0
    7.9863    4.8905    0.7318 C   0  0  0  0  0  0  0  0  0  0  0  0
    8.0762    6.0106    1.5360 C   0  0  0  0  0  0  0  0  0  0  0  0
    9.1251    6.3932    2.4627 C   0  0  0  0  0  0  0  0  0  0  0  0
    9.0937    7.3359    3.4753 C   0  0  0  0  0  0  0  0  0  0  0  0
   10.3167    7.4458    4.1879 C   0  0  0  0  0  0  0  0  0  0  0  0
   11.3039    6.5895    3.7381 C   0  0  0  0  0  0  0  0  0  0  0  0
   12.6639    6.3512    4.2545 C   0  0  0  0  0  0  0  0  0  0  0  0
   13.0678    5.0302    4.4868 C   0  0  0  0  0  0  0  0  0  0  0  0
   14.3118    4.6936    5.0371 C   0  0  0  0  0  0  0  0  0  0  0  0
   14.6032    3.2746    5.3041 C   0  0  0  0  0  0  0  0  0  0  0  0
   15.1083    2.6667    6.4385 C   0  0  0  0  0  0  0  0  0  0  0  0
   15.1753    1.2517    6.3495 C   0  0  0  0  0  0  0  0  0  0  0  0
   14.7253    0.7504    5.1406 C   0  0  0  0  0  0  0  0  0  0  0  0
   14.6464   -0.6277    4.6940 C   0  0  0  0  0  0  0  0  0  0  0  0
   13.9330   -1.1651    3.6396 C   0  0  0  0  0  0  0  0  0  0  0  0
   14.0984   -2.5724    3.5031 C   0  0  0  0  0  0  0  0  0  0  0  0
   14.9341   -3.1280    4.4442 C   0  0  0  0  0  0  0  0  0  0  0  0
   15.3104   -4.5702    4.6290 C   0  0  0  0  0  0  0  0  0  0  0  0
   14.6833   -5.2446    5.8637 C   0  0  0  0  0  0  0  0  0  0  0  0
   15.0734   -6.7177    6.0095 C   0  0  0  0  0  0  0  0  0  0  0  0
   14.4579   -7.4003    7.2344 C   0  0  0  0  0  0  0  0  0  0  0  0
   14.8453   -8.8750    7.3831 C   0  0  0  0  0  0  0  0  0  0  0  0
   14.2272   -9.5494    8.6086 C   0  0  0  0  0  0  0  0  0  0  0  0
   15.5417   -1.8905    5.5165 S   0  0  0  0  0  0  0  0  0  0  0  0
   14.2251    2.0614    4.0973 S   0  0  0  0  0  0  0  0  0  0  0  0
   15.2321    5.7376    5.3471 C   0  0  0  0  0  0  0  0  0  0  0  0
   16.5514    5.4751    5.8396 C   0  0  0  0  0  0  0  0  0  0  0  0
   17.4061    6.4834    6.1784 C   0  0  0  0  0  0  0  0  0  0  0  0
   17.0390    7.8613    6.0399 C   0  0  0  0  0  0  0  0  0  0  0  0
   17.9085    8.9244    6.4198 C   0  0  0  0  0  0  0  0  0  0  0  0
   19.2003    8.7272    7.1027 C   0  0  0  0  0  0  0  0  0  0  0  0
   20.4024    9.3440    6.8131 C   0  0  0  0  0  0  0  0  0  0  0  0
   21.4504    9.0181    7.7130 C   0  0  0  0  0  0  0  0  0  0  0  0
   21.0632    8.1531    8.7209 C   0  0  0  0  0  0  0  0  0  0  0  0
   21.8527    7.5977    9.8046 C   0  0  0  0  0  0  0  0  0  0  0  0
   21.5739    6.5233   10.6289 C   0  0  0  0  0  0  0  0  0  0  0  0
   22.5899    6.2696   11.5920 C   0  0  0  0  0  0  0  0  0  0  0  0
   23.6566    7.1371   11.5177 C   0  0  0  0  0  0  0  0  0  0  0  0
   24.9102    7.1434   12.3508 C   0  0  0  0  0  0  0  0  0  0  0  0
   26.0464    6.2266   11.8470 C   0  0  0  0  0  0  0  0  0  0  0  0
   26.6995    6.6637   10.5334 C   0  0  0  0  0  0  0  0  0  0  0  0
   27.8317    5.7382   10.0777 C   0  0  0  0  0  0  0  0  0  0  0  0
   28.4958    6.1715    8.7670 C   0  0  0  0  0  0  0  0  0  0  0  0
   29.6232    5.2421    8.3154 C   0  0  0  0  0  0  0  0  0  0  0  0
   23.3945    8.3021   10.2456 S   0  0  0  0  0  0  0  0  0  0  0  0
   19.3694    7.7515    8.5512 S   0  0  0  0  0  0  0  0  0  0  0  0
   17.5436   10.2396    6.1038 C   0  0  0  0  0  0  0  0  0  0  0  0
   16.3491   10.5691    5.4500 C   0  0  0  0  0  0  0  0  0  0  0  0
   16.0984   11.9801    5.1071 C   0  0  0  0  0  0  0  0  0  0  0  0
   15.6806   12.5436    3.9160 C   0  0  0  0  0  0  0  0  0  0  0  0
   15.6303   13.9621    3.9390 C   0  0  0  0  0  0  0  0  0  0  0  0
   16.0055   14.5106    5.1529 C   0  0  0  0  0  0  0  0  0  0  0  0
   16.0763   15.9060    5.5436 C   0  0  0  0  0  0  0  0  0  0  0  0
   16.7074   16.4780    6.6318 C   0  0  0  0  0  0  0  0  0  0  0  0
   16.5620   17.8929    6.6915 C   0  0  0  0  0  0  0  0  0  0  0  0
   15.8234   18.4200    5.6575 C   0  0  0  0  0  0  0  0  0  0  0  0
   15.4975   19.8590    5.3760 C   0  0  0  0  0  0  0  0  0  0  0  0
   16.2564   20.4670    4.1814 C   0  0  0  0  0  0  0  0  0  0  0  0
   15.9131   21.9383    3.9343 C   0  0  0  0  0  0  0  0  0  0  0  0
   16.6602   22.5547    2.7481 C   0  0  0  0  0  0  0  0  0  0  0  0
   16.3193   24.0271    2.4973 C   0  0  0  0  0  0  0  0  0  0  0  0
   17.0691   24.6352    1.3112 C   0  0  0  0  0  0  0  0  0  0  0  0
   15.2840   17.1463    4.5912 S   0  0  0  0  0  0  0  0  0  0  0  0
   16.4133   13.2404    6.2835 S   0  0  0  0  0  0  0  0  0  0  0  0
   15.4201    9.5288    5.1524 C   0  0  0  0  0  0  0  0  0  0  0  0
   14.1313    9.7902    4.5851 C   0  0  0  0  0  0  0  0  0  0  0  0
   13.2543    8.7848    4.2981 C   0  0  0  0  0  0  0  0  0  0  0  0
   13.5694    7.4113    4.5546 C   0  0  0  0  0  0  0  0  0  0  0  0
   14.8534    7.1030    5.1172 C   0  0  0  0  0  0  0  0  0  0  0  0
   15.7716    8.1672    5.4396 C   0  0  0  0  0  0  0  0  0  0  0  0
   10.7035    5.6441    2.3905 S   0  0  0  0  0  0  0  0  0  0  0  0
    6.6692    7.0297    1.3025 S   0  0  0  0  0  0  0  0  0  0  0  0
   -2.6069    6.5540    0.5115 H   0  0  0  0  0  0  0  0  0  0  0  0
   -1.5748    7.0604    1.8685 H   0  0  0  0  0  0  0  0  0  0  0  0
   -1.7156    5.3382    1.4551 H   0  0  0  0  0  0  0  0  0  0  0  0
   -0.4515    7.4968   -0.3646 H   0  0  0  0  0  0  0  0  0  0  0  0
   -0.5909    5.7892   -0.7744 H   0  0  0  0  0  0  0  0  0  0  0  0
    0.8792    5.1978    1.1873 H   0  0  0  0  0  0  0  0  0  0  0  0
    1.0183    6.9060    1.5979 H   0  0  0  0  0  0  0  0  0  0  0  0
    2.0962    7.3563   -0.6390 H   0  0  0  0  0  0  0  0  0  0  0  0
    1.9572    5.6479   -1.0497 H   0  0  0  0  0  0  0  0  0  0  0  0
    3.4385    5.0555    0.9102 H   0  0  0  0  0  0  0  0  0  0  0  0
    3.5694    6.7629    1.3254 H   0  0  0  0  0  0  0  0  0  0  0  0
    4.6233    7.2216   -0.9244 H   0  0  0  0  0  0  0  0  0  0  0  0
    4.5051    5.5089   -1.3284 H   0  0  0  0  0  0  0  0  0  0  0  0
    6.5574    4.0399   -0.7430 H   0  0  0  0  0  0  0  0  0  0  0  0
    8.7499    4.1108    0.7175 H   0  0  0  0  0  0  0  0  0  0  0  0
    8.2008    7.9159    3.7144 H   0  0  0  0  0  0  0  0  0  0  0  0
   10.4550    8.1073    5.0438 H   0  0  0  0  0  0  0  0  0  0  0  0
   12.3557    4.2278    4.2852 H   0  0  0  0  0  0  0  0  0  0  0  0
   15.3810    3.2254    7.3345 H   0  0  0  0  0  0  0  0  0  0  0  0
   15.5208    0.6107    7.1623 H   0  0  0  0  0  0  0  0  0  0  0  0
   13.2958   -0.5628    2.9897 H   0  0  0  0  0  0  0  0  0  0  0  0
   13.6091   -3.1665    2.7286 H   0  0  0  0  0  0  0  0  0  0  0  0
   16.4096   -4.6685    4.6861 H   0  0  0  0  0  0  0  0  0  0  0  0
   15.0032   -5.1144    3.7199 H   0  0  0  0  0  0  0  0  0  0  0  0
   13.5846   -5.1519    5.8031 H   0  0  0  0  0  0  0  0  0  0  0  0
   14.9826   -4.6905    6.7712 H   0  0  0  0  0  0  0  0  0  0  0  0
   16.1752   -6.8006    6.0601 H   0  0  0  0  0  0  0  0  0  0  0  0
   14.7746   -7.2669    5.0970 H   0  0  0  0  0  0  0  0  0  0  0  0
   13.3562   -7.3163    7.1839 H   0  0  0  0  0  0  0  0  0  0  0  0
   14.7571   -6.8511    8.1468 H   0  0  0  0  0  0  0  0  0  0  0  0
   15.9465   -8.9572    7.4327 H   0  0  0  0  0  0  0  0  0  0  0  0
   14.5460   -9.4221    6.4705 H   0  0  0  0  0  0  0  0  0  0  0  0
   14.5379   -9.0490    9.5413 H   0  0  0  0  0  0  0  0  0  0  0  0
   14.5267  -10.6070    8.6836 H   0  0  0  0  0  0  0  0  0  0  0  0
   13.1253   -9.5178    8.5708 H   0  0  0  0  0  0  0  0  0  0  0  0
   16.8848    4.4416    5.9235 H   0  0  0  0  0  0  0  0  0  0  0  0
   18.4049    6.2362    6.5369 H   0  0  0  0  0  0  0  0  0  0  0  0
   20.5302    9.9975    5.9488 H   0  0  0  0  0  0  0  0  0  0  0  0
   22.4719    9.3886    7.6125 H   0  0  0  0  0  0  0  0  0  0  0  0
   20.6639    5.9280   10.5356 H   0  0  0  0  0  0  0  0  0  0  0  0
   22.5373    5.4637   12.3269 H   0  0  0  0  0  0  0  0  0  0  0  0
   24.6319    6.8273   13.3699 H   0  0  0  0  0  0  0  0  0  0  0  0
   25.2916    8.1747   12.4447 H   0  0  0  0  0  0  0  0  0  0  0  0
   25.6550    5.1992   11.7420 H   0  0  0  0  0  0  0  0  0  0  0  0
   26.8186    6.1810   12.6361 H   0  0  0  0  0  0  0  0  0  0  0  0
   27.0923    7.6918   10.6477 H   0  0  0  0  0  0  0  0  0  0  0  0
   25.9351    6.7212    9.7389 H   0  0  0  0  0  0  0  0  0  0  0  0
   27.4382    4.7107    9.9635 H   0  0  0  0  0  0  0  0  0  0  0  0
   28.5993    5.6772   10.8721 H   0  0  0  0  0  0  0  0  0  0  0  0
   28.8879    7.1987    8.8816 H   0  0  0  0  0  0  0  0  0  0  0  0
   27.7274    6.2321    7.9749 H   0  0  0  0  0  0  0  0  0  0  0  0
   30.4261    5.1890    9.0700 H   0  0  0  0  0  0  0  0  0  0  0  0
   30.0770    5.5839    7.3714 H   0  0  0  0  0  0  0  0  0  0  0  0
   29.2557    4.2146    8.1545 H   0  0  0  0  0  0  0  0  0  0  0  0
   18.2286   11.0450    6.3747 H   0  0  0  0  0  0  0  0  0  0  0  0
   15.4587   11.9494    3.0289 H   0  0  0  0  0  0  0  0  0  0  0  0
   15.3494   14.5708    3.0778 H   0  0  0  0  0  0  0  0  0  0  0  0
   17.2714   15.8947    7.3617 H   0  0  0  0  0  0  0  0  0  0  0  0
   16.9952   18.5125    7.4793 H   0  0  0  0  0  0  0  0  0  0  0  0
   15.7260   20.4378    6.2869 H   0  0  0  0  0  0  0  0  0  0  0  0
   14.4115   19.9731    5.2067 H   0  0  0  0  0  0  0  0  0  0  0  0
   16.0360   19.8776    3.2736 H   0  0  0  0  0  0  0  0  0  0  0  0
   17.3417   20.3593    4.3543 H   0  0  0  0  0  0  0  0  0  0  0  0
   16.1320   22.5230    4.8474 H   0  0  0  0  0  0  0  0  0  0  0  0
   14.8236   22.0367    3.7711 H   0  0  0  0  0  0  0  0  0  0  0  0
   16.4414   21.9695    1.8353 H   0  0  0  0  0  0  0  0  0  0  0  0
   17.7496   22.4557    2.9115 H   0  0  0  0  0  0  0  0  0  0  0  0
   16.5379   24.6104    3.4105 H   0  0  0  0  0  0  0  0  0  0  0  0
   15.2302   24.1244    2.3346 H   0  0  0  0  0  0  0  0  0  0  0  0
   18.1610   24.5882    1.4601 H   0  0  0  0  0  0  0  0  0  0  0  0
   16.7998   25.6929    1.1604 H   0  0  0  0  0  0  0  0  0  0  0  0
   16.8422   24.0977    0.3751 H   0  0  0  0  0  0  0  0  0  0  0  0
   13.8439   10.8216    4.3858 H   0  0  0  0  0  0  0  0  0  0  0  0
   12.2920    9.0288    3.8507 H   0  0  0  0  0  0  0  0  0  0  0  0
  1  2  1  0
  1 81  1  0
  1 82  1  0
  1 83  1  0
  2  3  1  0
  2 84  1  0
  2 85  1  0
  3  4  1  0
  3 86  1  0
  3 87  1  0
  4  5  1  0
  4 88  1  0
  4 89  1  0
  5  6  1  0
  5 90  1  0
  5 91  1  0
  6  7  1  0
  6 92  1  0
  6 93  1  0
  7  8  2  0
  7 80  1  0
  8  9  1  0
  8 94  1  0
  9 10  2  0
  9 95  1  0
 10 11  1  0
 10 80  1  0
 11 12  2  0
 11 79  1  0
 12 13  1  0
 12 96  1  0
 13 14  2  0
 13 97  1  0
 14 15  1  0
 14 79  1  0
 15 16  2  0
 15 76  1  0
 16 17  1  0
 16 98  1  0
 17 18  1  0
 17 34  2  0
 18 19  2  0
 18 33  1  0
 19 20  1  0
 19 99  1  0
 20 21  2  0
 20100  1  0
 21 22  1  0
 21 33  1  0
 22 23  2  0
 22 32  1  0
 23 24  1  0
 23101  1  0
 24 25  2  0
 24102  1  0
 25 26  1  0
 25 32  1  0
 26 27  1  0
 26103  1  0
 26104  1  0
 27 28  1  0
 27105  1  0
 27106  1  0
 28 29  1  0
 28107  1  0
 28108  1  0
 29 30  1  0
 29109  1  0
 29110  1  0
 30 31  1  0
 30111  1  0
 30112  1  0
 31113  1  0
 31114  1  0
 31115  1  0
 34 35  1  0
 34 77  1  0
 35 36  2  0
 35116  1  0
 36 37  1  0
 36117  1  0
 37 38  2  0
 37 78  1  0
 38 39  1  0
 38 55  1  0
 39 40  2  0
 39 54  1  0
 40 41  1  0
 40118  1  0
 41 42  2  0
 41119  1  0
 42 43  1  0
 42 54  1  0
 43 44  2  0
 43 53  1  0
 44 45  1  0
 44120  1  0
 45 46  2  0
 45121  1  0
 46 47  1  0
 46 53  1  0
 47 48  1  0
 47122  1  0
 47123  1  0
 48 49  1  0
 48124  1  0
 48125  1  0
 49 50  1  0
 49126  1  0
 49127  1  0
 50 51  1  0
 50128  1  0
 50129  1  0
 51 52  1  0
 51130  1  0
 51131  1  0
 52132  1  0
 52133  1  0
 52134  1  0
 55 56  2  0
 55135  1  0
 56 57  1  0
 56 73  1  0
 57 58  2  0
 57 72  1  0
 58 59  1  0
 58136  1  0
 59 60  2  0
 59137  1  0
 60 61  1  0
 60 72  1  0
 61 62  2  0
 61 71  1  0
 62 63  1  0
 62138  1  0
 63 64  2  0
 63139  1  0
 64 65  1  0
 64 71  1  0
 65 66  1  0
 65140  1  0
 65141  1  0
 66 67  1  0
 66142  1  0
 66143  1  0
 67 68  1  0
 67144  1  0
 67145  1  0
 68 69  1  0
 68146  1  0
 68147  1  0
 69 70  1  0
 69148  1  0
 69149  1  0
 70150  1  0
 70151  1  0
 70152  1  0
 73 74  2  0
 73 78  1  0
 74 75  1  0
 74153  1  0
 75 76  2  0
 75154  1  0
 76 77  1  0
 77 78  2  0
M  END

