
     RDKit          3D

 45 47  0  0  0  0  0  0  0  0999 V2000
    1.1038   -0.8111   -0.4937 C   0  0  0  0  0  0  0  0  0  0  0  0
    2.1987    0.0752    0.1208 C   0  0  0  0  0  0  0  0  0  0  0  0
    2.6292    1.2081   -0.7857 C   0  0  0  0  0  0  0  0  0  0  0  0
    1.9749    2.4499   -0.7583 C   0  0  0  0  0  0  0  0  0  0  0  0
    2.3413    3.4792   -1.6268 C   0  0  0  0  0  0  0  0  0  0  0  0
    3.3798    3.3117   -2.5570 C   0  0  0  0  0  0  0  0  0  0  0  0
    3.7847    4.4822   -3.4500 C   0  0  1  0  0  0  0  0  0  0  0  0
    4.8575    5.3760   -2.7817 C   0  0  0  0  0  0  0  0  0  0  0  0
    6.1106    4.6571   -2.5352 N   0  0  0  0  0  0  0  0  0  0  0  0
    4.1078    4.0374   -4.8930 C   0  0  0  0  0  0  0  0  0  0  0  0
    3.2154    3.9266   -5.7146 O   0  0  0  0  0  0  0  0  0  0  0  0
    5.4387    3.7844   -5.1320 N   0  0  0  0  0  0  0  0  0  0  0  0
    6.0614    3.3639   -6.3151 C   0  0  0  0  0  0  0  0  0  0  0  0
    5.3335    3.0999   -7.5174 C   0  0  0  0  0  0  0  0  0  0  0  0
    6.0023    2.6862   -8.6475 C   0  0  0  0  0  0  0  0  0  0  0  0
    7.4116    2.5120   -8.6536 C   0  0  0  0  0  0  0  0  0  0  0  0
    8.1432    2.0867   -9.7981 C   0  0  0  0  0  0  0  0  0  0  0  0
    9.4472    1.9192   -9.8239 N   0  0  0  0  0  0  0  0  0  0  0  0
   10.1377    2.1695   -8.6812 C   0  0  0  0  0  0  0  0  0  0  0  0
    9.5530    2.5864   -7.5043 C   0  0  0  0  0  0  0  0  0  0  0  0
    8.1434    2.7746   -7.4524 C   0  0  0  0  0  0  0  0  0  0  0  0
    7.4432    3.1992   -6.2977 C   0  0  0  0  0  0  0  0  0  0  0  0
    4.0350    2.0697   -2.5877 C   0  0  0  0  0  0  0  0  0  0  0  0
    3.6636    1.0404   -1.7181 C   0  0  0  0  0  0  0  0  0  0  0  0
    0.8184   -1.6222    0.1954 H   0  0  0  0  0  0  0  0  0  0  0  0
    1.4457   -1.2697   -1.4353 H   0  0  0  0  0  0  0  0  0  0  0  0
    0.1992   -0.2249   -0.7217 H   0  0  0  0  0  0  0  0  0  0  0  0
    3.0750   -0.5481    0.3666 H   0  0  0  0  0  0  0  0  0  0  0  0
    1.8359    0.4906    1.0763 H   0  0  0  0  0  0  0  0  0  0  0  0
    1.1603    2.6138   -0.0463 H   0  0  0  0  0  0  0  0  0  0  0  0
    1.8057    4.4324   -1.5851 H   0  0  0  0  0  0  0  0  0  0  0  0
    2.8913    5.1110   -3.5779 H   0  0  0  0  0  0  0  0  0  0  0  0
    4.4125    5.8028   -1.8616 H   0  0  0  0  0  0  0  0  0  0  0  0
    5.0777    6.2249   -3.4504 H   0  0  0  0  0  0  0  0  0  0  0  0
    5.9818    3.9498   -1.8098 H   0  0  0  0  0  0  0  0  0  0  0  0
    6.8371    5.2929   -2.2075 H   0  0  0  0  0  0  0  0  0  0  0  0
    6.0495    3.9561   -4.3189 H   0  0  0  0  0  0  0  0  0  0  0  0
    4.2545    3.2340   -7.5113 H   0  0  0  0  0  0  0  0  0  0  0  0
    5.4403    2.4858   -9.5643 H   0  0  0  0  0  0  0  0  0  0  0  0
    7.5933    1.8817  -10.7272 H   0  0  0  0  0  0  0  0  0  0  0  0
   11.2221    2.0205   -8.7357 H   0  0  0  0  0  0  0  0  0  0  0  0
   10.1644    2.7715   -6.6170 H   0  0  0  0  0  0  0  0  0  0  0  0
    8.0035    3.4000   -5.3800 H   0  0  0  0  0  0  0  0  0  0  0  0
    4.8376    1.8931   -3.3071 H   0  0  0  0  0  0  0  0  0  0  0  0
    4.1913    0.0831   -1.7693 H   0  0  0  0  0  0  0  0  0  0  0  0
  1  2  1  0
  1 25  1  0
  1 26  1  0
  1 27  1  0
  2  3  1  0
  2 28  1  0
  2 29  1  0
  3  4  2  0
  3 24  1  0
  4  5  1  0
  4 30  1  0
  5  6  2  0
  5 31  1  0
  6  7  1  0
  6 23  1  0
  7  8  1  0
  7 10  1  0
  7 32  1  6
  8  9  1  0
  8 33  1  0
  8 34  1  0
  9 35  1  0
  9 36  1  0
 10 11  2  0
 10 12  1  0
 12 13  1  0
 12 37  1  0
 13 14  2  0
 13 22  1  0
 14 15  1  0
 14 38  1  0
 15 16  2  0
 15 39  1  0
 16 17  1  0
 16 21  1  0
 17 18  2  0
 17 40  1  0
 18 19  1  0
 19 20  2  0
 19 41  1  0
 20 21  1  0
 20 42  1  0
 21 22  2  0
 22 43  1  0
 23 24  2  0
 23 44  1  0
 24 45  1  0
M  END

