
     RDKit          3D

 46 46  0  0  0  0  0  0  0  0999 V2000
    2.6584   -3.0361    0.6875 C   0  0  0  0  0  0  0  0  0  0  0  0
    3.8486   -2.4574   -0.0783 C   0  0  0  0  0  0  0  0  0  0  0  0
    3.4821   -1.2024   -0.8764 C   0  0  0  0  0  0  0  0  0  0  0  0
    4.6264   -0.5894   -1.5754 N   0  0  0  0  0  0  0  0  0  0  0  0
    4.8252   -0.7475   -3.0344 C   0  0  1  0  0  0  0  0  0  0  0  0
    4.3777   -2.1351   -3.5223 C   0  0  0  0  0  0  0  0  0  0  0  0
    4.1835    0.3951   -3.8801 C   0  0  0  0  0  0  0  0  0  0  0  0
    2.7380    0.5166   -3.7784 N   0  0  0  0  0  0  0  0  0  0  0  0
    1.9581   -0.0816   -4.8626 C   0  0  0  0  0  0  0  0  0  0  0  0
    1.5921    0.8929   -5.9866 C   0  0  0  0  0  0  0  0  0  0  0  0
    2.1300    1.3944   -2.8760 C   0  0  0  0  0  0  0  0  0  0  0  0
    2.8761    2.2633   -2.0386 C   0  0  0  0  0  0  0  0  0  0  0  0
    2.2373    3.1088   -1.1332 C   0  0  0  0  0  0  0  0  0  0  0  0
    0.8459    3.1353   -1.0189 C   0  0  0  0  0  0  0  0  0  0  0  0
    0.0774    2.2996   -1.8399 C   0  0  0  0  0  0  0  0  0  0  0  0
   -1.4316    2.3011   -1.7600 C   0  0  0  0  0  0  0  0  0  0  0  0
    0.7211    1.4512   -2.7513 C   0  0  0  0  0  0  0  0  0  0  0  0
    6.3627   -0.6877   -3.2943 C   0  0  0  0  0  0  0  0  0  0  0  0
    6.8316   -0.5248   -4.3931 O   0  0  0  0  0  0  0  0  0  0  0  0
    7.0894   -0.8712   -2.1960 O   0  0  0  0  0  0  0  0  0  0  0  0
    2.9459   -3.9329    1.2581 H   0  0  0  0  0  0  0  0  0  0  0  0
    1.8413   -3.3250    0.0051 H   0  0  0  0  0  0  0  0  0  0  0  0
    2.2456   -2.3051    1.4029 H   0  0  0  0  0  0  0  0  0  0  0  0
    4.2613   -3.2222   -0.7580 H   0  0  0  0  0  0  0  0  0  0  0  0
    4.6631   -2.2015    0.6220 H   0  0  0  0  0  0  0  0  0  0  0  0
    3.0795   -0.4467   -0.1824 H   0  0  0  0  0  0  0  0  0  0  0  0
    2.6555   -1.4235   -1.5718 H   0  0  0  0  0  0  0  0  0  0  0  0
    4.6491    0.4021   -1.3512 H   0  0  0  0  0  0  0  0  0  0  0  0
    3.2914   -2.2722   -3.4330 H   0  0  0  0  0  0  0  0  0  0  0  0
    4.8759   -2.9298   -2.9476 H   0  0  0  0  0  0  0  0  0  0  0  0
    4.6616   -2.2550   -4.5770 H   0  0  0  0  0  0  0  0  0  0  0  0
    4.4642    0.2212   -4.9280 H   0  0  0  0  0  0  0  0  0  0  0  0
    4.6726    1.3446   -3.6164 H   0  0  0  0  0  0  0  0  0  0  0  0
    1.0497   -0.5556   -4.4564 H   0  0  0  0  0  0  0  0  0  0  0  0
    2.5510   -0.9074   -5.2788 H   0  0  0  0  0  0  0  0  0  0  0  0
    0.9828    1.7296   -5.6130 H   0  0  0  0  0  0  0  0  0  0  0  0
    1.0184    0.3768   -6.7737 H   0  0  0  0  0  0  0  0  0  0  0  0
    2.4983    1.3154   -6.4494 H   0  0  0  0  0  0  0  0  0  0  0  0
    3.9625    2.3083   -2.1018 H   0  0  0  0  0  0  0  0  0  0  0  0
    2.8464    3.7675   -0.5078 H   0  0  0  0  0  0  0  0  0  0  0  0
    0.3607    3.8036   -0.3037 H   0  0  0  0  0  0  0  0  0  0  0  0
   -1.7948    3.0014   -0.9938 H   0  0  0  0  0  0  0  0  0  0  0  0
   -1.8222    1.2997   -1.5132 H   0  0  0  0  0  0  0  0  0  0  0  0
   -1.8832    2.5929   -2.7232 H   0  0  0  0  0  0  0  0  0  0  0  0
    0.0946    0.8146   -3.3759 H   0  0  0  0  0  0  0  0  0  0  0  0
    6.4036   -0.9360   -1.4768 H   0  0  0  0  0  0  0  0  0  0  0  0
  1  2  1  0
  1 21  1  0
  1 22  1  0
  1 23  1  0
  2  3  1  0
  2 24  1  0
  2 25  1  0
  3  4  1  0
  3 26  1  0
  3 27  1  0
  4  5  1  0
  4 28  1  0
  5  6  1  0
  5  7  1  0
  5 18  1  1
  6 29  1  0
  6 30  1  0
  6 31  1  0
  7  8  1  0
  7 32  1  0
  7 33  1  0
  8  9  1  0
  8 11  1  0
  9 10  1  0
  9 34  1  0
  9 35  1  0
 10 36  1  0
 10 37  1  0
 10 38  1  0
 11 12  2  0
 11 17  1  0
 12 13  1  0
 12 39  1  0
 13 14  2  0
 13 40  1  0
 14 15  1  0
 14 41  1  0
 15 16  1  0
 15 17  2  0
 16 42  1  0
 16 43  1  0
 16 44  1  0
 17 45  1  0
 18 19  2  0
 18 20  1  0
 20 46  1  0
M  END

