
     RDKit          3D

 41 43  0  0  0  0  0  0  0  0999 V2000
    1.1421    0.1707   -0.1224 C   0  0  0  0  0  0  0  0  0  0  0  0
    2.6603    0.0015   -0.2341 C   0  0  1  0  0  0  0  0  0  0  0  0
    3.3763    1.2942    0.2046 C   0  0  0  0  0  0  0  0  0  0  0  0
    4.6553    0.8647    0.7356 N   0  0  0  0  0  0  0  0  0  0  0  0
    5.6332    1.7311    1.1180 C   0  0  0  0  0  0  0  0  0  0  0  0
    5.4761    3.1150    1.0548 C   0  0  0  0  0  0  0  0  0  0  0  0
    6.5398    3.9875    1.4567 C   0  0  0  0  0  0  0  0  0  0  0  0
    6.5712    5.2084    1.4645 O   0  0  0  0  0  0  0  0  0  0  0  0
    7.6914    3.2650    1.8997 N   0  0  0  0  0  0  0  0  0  0  0  0
    8.4722    3.8439    2.1959 H   0  0  0  0  0  0  0  0  0  0  0  0
    7.7723    1.9128    1.9458 C   0  0  0  0  0  0  0  0  0  0  0  0
    9.0455    1.3255    2.4437 C   0  0  1  0  0  0  0  0  0  0  0  0
    9.0031    0.0416    3.2525 C   0  0  0  0  0  0  0  0  0  0  0  0
    9.5333    0.0137    1.8571 C   0  0  0  0  0  0  0  0  0  0  0  0
    6.7914    1.1391    1.5725 N   0  0  0  0  0  0  0  0  0  0  0  0
    4.7650   -0.5832    0.8345 C   0  0  0  0  0  0  0  0  0  0  0  0
    3.3221   -1.0984    0.6390 C   0  0  2  0  0  0  0  0  0  0  0  0
    3.3346   -2.4447    0.0701 N   0  0  0  0  0  0  0  0  0  0  0  0
    3.9801   -3.4049    0.9506 C   0  0  0  0  0  0  0  0  0  0  0  0
    2.0559   -2.9477   -0.3955 C   0  0  0  0  0  0  0  0  0  0  0  0
    0.8153    1.0659   -0.6766 H   0  0  0  0  0  0  0  0  0  0  0  0
    0.8418    0.3067    0.9300 H   0  0  0  0  0  0  0  0  0  0  0  0
    0.5804   -0.6831   -0.5224 H   0  0  0  0  0  0  0  0  0  0  0  0
    2.9375   -0.2132   -1.2814 H   0  0  0  0  0  0  0  0  0  0  0  0
    2.7906    1.8312    0.9772 H   0  0  0  0  0  0  0  0  0  0  0  0
    3.5031    1.9952   -0.6394 H   0  0  0  0  0  0  0  0  0  0  0  0
    4.5598    3.5882    0.7093 H   0  0  0  0  0  0  0  0  0  0  0  0
    9.8075    2.0599    2.7200 H   0  0  0  0  0  0  0  0  0  0  0  0
    8.0100   -0.3801    3.4252 H   0  0  0  0  0  0  0  0  0  0  0  0
    9.7027   -0.0442    4.0885 H   0  0  0  0  0  0  0  0  0  0  0  0
    8.8978   -0.4254    1.0842 H   0  0  0  0  0  0  0  0  0  0  0  0
   10.6101   -0.0935    1.7003 H   0  0  0  0  0  0  0  0  0  0  0  0
    5.2054   -0.8702    1.7989 H   0  0  0  0  0  0  0  0  0  0  0  0
    5.4085   -0.9997    0.0373 H   0  0  0  0  0  0  0  0  0  0  0  0
    2.8076   -1.0930    1.6316 H   0  0  0  0  0  0  0  0  0  0  0  0
    5.0097   -3.0994    1.1860 H   0  0  0  0  0  0  0  0  0  0  0  0
    4.0354   -4.3858    0.4535 H   0  0  0  0  0  0  0  0  0  0  0  0
    3.4403   -3.5463    1.9164 H   0  0  0  0  0  0  0  0  0  0  0  0
    1.6623   -2.3353   -1.2179 H   0  0  0  0  0  0  0  0  0  0  0  0
    1.2764   -3.0040    0.3998 H   0  0  0  0  0  0  0  0  0  0  0  0
    2.1942   -3.9659   -0.7913 H   0  0  0  0  0  0  0  0  0  0  0  0
  1  2  1  0
  1 21  1  0
  1 22  1  0
  1 23  1  0
  2  3  1  0
  2 17  1  0
  2 24  1  6
  3  4  1  0
  3 25  1  0
  3 26  1  0
  4  5  1  0
  4 16  1  0
  5  6  2  0
  5 15  1  0
  6  7  1  0
  6 27  1  0
  7  8  2  0
  7  9  1  0
  9 10  1  0
  9 11  1  0
 11 12  1  0
 11 15  2  0
 12 13  1  0
 12 14  1  0
 12 28  1  1
 13 14  1  0
 13 29  1  0
 13 30  1  0
 14 31  1  0
 14 32  1  0
 16 17  1  0
 16 33  1  0
 16 34  1  0
 17 18  1  0
 17 35  1  1
 18 19  1  0
 18 20  1  0
 19 36  1  0
 19 37  1  0
 19 38  1  0
 20 39  1  0
 20 40  1  0
 20 41  1  0
M  END

