
     RDKit          3D

 29 31  0  0  0  0  0  0  0  0999 V2000
    8.4119    5.5404    1.3972 Br  0  0  0  0  0  0  0  0  0  0  0  0
    8.0166    3.7484    0.8703 C   0  0  0  0  0  0  0  0  0  0  0  0
    9.0531    2.8486    0.6161 C   0  0  0  0  0  0  0  0  0  0  0  0
    8.7745    1.5358    0.2301 C   0  0  0  0  0  0  0  0  0  0  0  0
    7.4402    1.1066    0.0935 C   0  0  0  0  0  0  0  0  0  0  0  0
    7.0610   -0.1850   -0.2865 N   0  0  0  0  0  0  0  0  0  0  0  0
    7.7998   -1.3084   -0.6122 C   0  0  0  0  0  0  0  0  0  0  0  0
    7.0546   -2.4892   -0.9632 C   0  0  0  0  0  0  0  0  0  0  0  0
    7.7368   -3.6282   -1.2925 C   0  0  0  0  0  0  0  0  0  0  0  0
    9.1624   -3.6333   -1.2851 C   0  0  0  0  0  0  0  0  0  0  0  0
    9.9421   -4.7711   -1.6133 C   0  0  0  0  0  0  0  0  0  0  0  0
   11.3222   -4.7080   -1.5874 C   0  0  0  0  0  0  0  0  0  0  0  0
   11.9662   -3.4985   -1.2306 C   0  0  0  0  0  0  0  0  0  0  0  0
   11.2315   -2.3742   -0.9058 C   0  0  0  0  0  0  0  0  0  0  0  0
    9.8105   -2.4077   -0.9231 C   0  0  0  0  0  0  0  0  0  0  0  0
    9.1158   -1.2816   -0.5970 N   0  0  0  0  0  0  0  0  0  0  0  0
    6.4069    2.0309    0.3550 C   0  0  0  0  0  0  0  0  0  0  0  0
    6.6865    3.3395    0.7399 C   0  0  0  0  0  0  0  0  0  0  0  0
   10.0915    3.1691    0.7185 H   0  0  0  0  0  0  0  0  0  0  0  0
    9.5772    0.8309    0.0305 H   0  0  0  0  0  0  0  0  0  0  0  0
    6.0593   -0.3216   -0.3338 H   0  0  0  0  0  0  0  0  0  0  0  0
    5.9616   -2.4678   -0.9648 H   0  0  0  0  0  0  0  0  0  0  0  0
    7.1962   -4.5396   -1.5631 H   0  0  0  0  0  0  0  0  0  0  0  0
    9.4328   -5.6996   -1.8875 H   0  0  0  0  0  0  0  0  0  0  0  0
   11.9186   -5.5877   -1.8410 H   0  0  0  0  0  0  0  0  0  0  0  0
   13.0584   -3.4555   -1.2124 H   0  0  0  0  0  0  0  0  0  0  0  0
   11.7180   -1.4368   -0.6294 H   0  0  0  0  0  0  0  0  0  0  0  0
    5.3627    1.7184    0.2551 H   0  0  0  0  0  0  0  0  0  0  0  0
    5.8717    4.0380    0.9374 H   0  0  0  0  0  0  0  0  0  0  0  0
  1  2  1  0
  2  3  2  0
  2 18  1  0
  3  4  1  0
  3 19  1  0
  4  5  2  0
  4 20  1  0
  5  6  1  0
  5 17  1  0
  6  7  1  0
  6 21  1  0
  7  8  2  0
  7 16  1  0
  8  9  1  0
  8 22  1  0
  9 10  2  0
  9 23  1  0
 10 11  1  0
 10 15  1  0
 11 12  2  0
 11 24  1  0
 12 13  1  0
 12 25  1  0
 13 14  2  0
 13 26  1  0
 14 15  1  0
 14 27  1  0
 15 16  2  0
 17 18  2  0
 17 28  1  0
 18 29  1  0
M  END

