
     RDKit          3D

 40 40  0  0  0  0  0  0  0  0999 V2000
    0.7650    0.8339   -0.8923 C   0  0  0  0  0  0  0  0  0  0  0  0
    2.2940    0.8117   -0.9110 C   0  0  0  0  0  0  0  0  0  0  0  0
    2.8819   -0.5304   -1.3581 C   0  0  0  0  0  0  0  0  0  0  0  0
    4.4123   -0.5582   -1.3795 C   0  0  0  0  0  0  0  0  0  0  0  0
    4.9902   -1.9129   -1.8281 C   0  0  0  0  0  0  0  0  0  0  0  0
    6.4883   -1.9782   -1.8759 C   0  0  0  0  0  0  0  0  0  0  0  0
    7.3158   -2.0897   -2.9501 C   0  0  0  0  0  0  0  0  0  0  0  0
    8.7338   -2.1095   -2.6519 C   0  0  0  0  0  0  0  0  0  0  0  0
    9.8883   -2.2235   -3.5463 C   0  0  0  0  0  0  0  0  0  0  0  0
   11.0352   -2.2191   -3.0785 O   0  0  0  0  0  0  0  0  0  0  0  0
    9.7322   -2.3527   -5.0874 C   0  0  1  0  0  0  0  0  0  0  0  0
    9.0328   -1.1001   -5.6620 C   0  0  0  0  0  0  0  0  0  0  0  0
   11.1353   -2.4535   -5.7115 C   0  0  0  0  0  0  0  0  0  0  0  0
    8.9484   -3.6362   -5.4426 C   0  0  0  0  0  0  0  0  0  0  0  0
    8.9428   -2.0020   -1.2598 C   0  0  0  0  0  0  0  0  0  0  0  0
   10.1302   -1.9850   -0.6276 N   0  0  0  0  0  0  0  0  0  0  0  0
    7.4375   -1.8857   -0.3810 S   0  0  0  0  0  0  0  0  0  0  0  0
    0.3780    1.8126   -0.5665 H   0  0  0  0  0  0  0  0  0  0  0  0
    0.3609    0.0712   -0.2054 H   0  0  0  0  0  0  0  0  0  0  0  0
    0.3485    0.6281   -1.8928 H   0  0  0  0  0  0  0  0  0  0  0  0
    2.6793    1.0586    0.0951 H   0  0  0  0  0  0  0  0  0  0  0  0
    2.6669    1.6106   -1.5776 H   0  0  0  0  0  0  0  0  0  0  0  0
    2.4974   -0.7791   -2.3652 H   0  0  0  0  0  0  0  0  0  0  0  0
    2.5106   -1.3313   -0.6914 H   0  0  0  0  0  0  0  0  0  0  0  0
    4.7987   -0.3111   -0.3742 H   0  0  0  0  0  0  0  0  0  0  0  0
    4.7925    0.2324   -2.0502 H   0  0  0  0  0  0  0  0  0  0  0  0
    4.6175   -2.1527   -2.8387 H   0  0  0  0  0  0  0  0  0  0  0  0
    4.5970   -2.7063   -1.1650 H   0  0  0  0  0  0  0  0  0  0  0  0
    6.9073   -2.1613   -3.9565 H   0  0  0  0  0  0  0  0  0  0  0  0
    9.5976   -0.1875   -5.4128 H   0  0  0  0  0  0  0  0  0  0  0  0
    8.0076   -0.9678   -5.2906 H   0  0  0  0  0  0  0  0  0  0  0  0
    8.9834   -1.1721   -6.7610 H   0  0  0  0  0  0  0  0  0  0  0  0
   11.7405   -1.5652   -5.4811 H   0  0  0  0  0  0  0  0  0  0  0  0
   11.0503   -2.5464   -6.8061 H   0  0  0  0  0  0  0  0  0  0  0  0
   11.6823   -3.3262   -5.3273 H   0  0  0  0  0  0  0  0  0  0  0  0
    7.9189   -3.6351   -5.0599 H   0  0  0  0  0  0  0  0  0  0  0  0
    9.4531   -4.5278   -5.0374 H   0  0  0  0  0  0  0  0  0  0  0  0
    8.8978   -3.7507   -6.5380 H   0  0  0  0  0  0  0  0  0  0  0  0
   10.9405   -2.0660   -1.2490 H   0  0  0  0  0  0  0  0  0  0  0  0
   10.2006   -1.9231    0.3776 H   0  0  0  0  0  0  0  0  0  0  0  0
  1  2  1  0
  1 18  1  0
  1 19  1  0
  1 20  1  0
  2  3  1  0
  2 21  1  0
  2 22  1  0
  3  4  1  0
  3 23  1  0
  3 24  1  0
  4  5  1  0
  4 25  1  0
  4 26  1  0
  5  6  1  0
  5 27  1  0
  5 28  1  0
  6  7  2  0
  6 17  1  0
  7  8  1  0
  7 29  1  0
  8  9  1  0
  8 15  2  0
  9 10  2  0
 11  9  1  1
 11 12  1  0
 11 13  1  0
 11 14  1  0
 12 30  1  0
 12 31  1  0
 12 32  1  0
 13 33  1  0
 13 34  1  0
 13 35  1  0
 14 36  1  0
 14 37  1  0
 14 38  1  0
 15 16  1  0
 15 17  1  0
 16 39  1  0
 16 40  1  0
M  END

