
     RDKit          3D

 91 97  0  0  0  0  0  0  0  0999 V2000
   -8.7404   10.0013  -11.6914 C   0  0  0  0  0  0  0  0  0  0  0  0
   -7.5475    9.2096  -11.1575 C   0  0  0  0  0  0  0  0  0  0  0  0
   -7.6842    8.0068  -11.0005 O   0  0  0  0  0  0  0  0  0  0  0  0
   -6.2766    9.9467  -10.8559 C   0  0  0  0  0  0  0  0  0  0  0  0
   -6.2503   11.3406  -11.0711 C   0  0  0  0  0  0  0  0  0  0  0  0
   -5.1284   12.1126  -10.8202 C   0  0  0  0  0  0  0  0  0  0  0  0
   -3.9479   11.5189  -10.3364 C   0  0  0  0  0  0  0  0  0  0  0  0
   -2.7791   12.2962  -10.0526 C   0  0  0  0  0  0  0  0  0  0  0  0
   -1.6339   11.7112   -9.5911 C   0  0  0  0  0  0  0  0  0  0  0  0
   -1.5444   10.2971   -9.3804 C   0  0  0  0  0  0  0  0  0  0  0  0
   -0.3388    9.6702   -8.9267 C   0  0  0  0  0  0  0  0  0  0  0  0
    0.8008   10.4221   -8.7254 N   0  0  0  0  0  0  0  0  0  0  0  0
    2.0817    9.8528   -8.3539 C   0  0  0  0  0  0  0  0  0  0  0  0
    3.0972   10.9612   -8.0944 C   0  0  0  0  0  0  0  0  0  0  0  0
    4.4343   10.3959   -7.6141 C   0  0  0  0  0  0  0  0  0  0  0  0
    4.5884    9.2009   -7.4221 O   0  0  0  0  0  0  0  0  0  0  0  0
    5.4455   11.2896   -7.3883 N   0  0  0  0  0  0  0  0  0  0  0  0
    5.4782   12.7193   -7.6411 C   0  0  0  0  0  0  0  0  0  0  0  0
    6.1074   13.1085   -8.9861 C   0  0  0  0  0  0  0  0  0  0  0  0
    6.1801   14.6228   -9.1999 C   0  0  0  0  0  0  0  0  0  0  0  0
    6.8202   15.0255  -10.5318 C   0  0  0  0  0  0  0  0  0  0  0  0
    6.9136   16.5400  -10.7360 C   0  0  0  0  0  0  0  0  0  0  0  0
    7.5827   16.9261  -12.0686 C   0  0  0  0  0  0  0  0  0  0  0  0
    7.7901   18.3984  -12.2553 C   0  0  0  0  0  0  0  0  0  0  0  0
    8.9191   19.0144  -12.0144 N   0  0  0  0  0  0  0  0  0  0  0  0
    8.6865   20.3414  -12.2874 C   0  0  0  0  0  0  0  0  0  0  0  0
    9.5739   21.4806  -12.2243 C   0  0  0  0  0  0  0  0  0  0  0  0
   10.7368   21.5711  -11.8970 O   0  0  0  0  0  0  0  0  0  0  0  0
    8.8712   22.6681  -12.6481 N   0  0  0  0  0  0  0  0  0  0  0  0
    9.4629   23.4944  -12.6706 H   0  0  0  0  0  0  0  0  0  0  0  0
    7.5689   22.7438  -13.0566 C   0  0  0  0  0  0  0  0  0  0  0  0
    7.0847   23.9404  -13.4870 N   0  0  0  0  0  0  0  0  0  0  0  0
    6.7795   21.6909  -13.0801 N   0  0  0  0  0  0  0  0  0  0  0  0
    7.3700   20.5291  -12.7049 C   0  0  0  0  0  0  0  0  0  0  0  0
    6.7835   19.2841  -12.6710 N   0  0  0  0  0  0  0  0  0  0  0  0
    5.4195   18.9647  -13.0603 C   0  0  1  0  0  0  0  0  0  0  0  0
    5.3320   17.8660  -13.0184 H   0  0  0  0  0  0  0  0  0  0  0  0
    4.3161   19.6086  -12.2054 C   0  0  0  0  0  0  0  0  0  0  0  0
    3.1377   19.6314  -13.1843 C   0  0  2  0  0  0  0  0  0  0  0  0
    2.4235   20.4405  -12.9515 H   0  0  0  0  0  0  0  0  0  0  0  0
    2.4881   18.3704  -13.2626 O   0  0  0  0  0  0  0  0  0  0  0  0
    3.8315   19.8760  -14.5381 C   0  0  1  0  0  0  0  0  0  0  0  0
    3.3373   19.2480  -15.2996 H   0  0  0  0  0  0  0  0  0  0  0  0
    3.8348   21.3322  -15.0036 C   0  0  0  0  0  0  0  0  0  0  0  0
    4.2527   22.2321  -14.0090 O   0  0  0  0  0  0  0  0  0  0  0  0
    5.1862   19.4210  -14.3754 O   0  0  0  0  0  0  0  0  0  0  0  0
   -0.3473    8.2810   -8.6756 C   0  0  0  0  0  0  0  0  0  0  0  0
   -1.4905    7.5230   -8.8881 C   0  0  0  0  0  0  0  0  0  0  0  0
   -2.6803    8.0964   -9.3714 C   0  0  0  0  0  0  0  0  0  0  0  0
   -3.8575    7.3276   -9.6232 C   0  0  0  0  0  0  0  0  0  0  0  0
   -5.0080    7.8934  -10.0970 C   0  0  0  0  0  0  0  0  0  0  0  0
   -5.0926    9.3060  -10.3606 C   0  0  0  0  0  0  0  0  0  0  0  0
   -3.9199   10.1063  -10.1076 C   0  0  0  0  0  0  0  0  0  0  0  0
   -2.7112    9.5019   -9.6206 C   0  0  0  0  0  0  0  0  0  0  0  0
   -9.5612    9.2916  -11.8534 H   0  0  0  0  0  0  0  0  0  0  0  0
   -8.5051   10.5043  -12.6426 H   0  0  0  0  0  0  0  0  0  0  0  0
   -9.0690   10.7750  -10.9794 H   0  0  0  0  0  0  0  0  0  0  0  0
   -7.1419   11.8419  -11.4465 H   0  0  0  0  0  0  0  0  0  0  0  0
   -5.1528   13.1911  -10.9956 H   0  0  0  0  0  0  0  0  0  0  0  0
   -2.8253   13.3783  -10.2004 H   0  0  0  0  0  0  0  0  0  0  0  0
   -0.7815   12.3517   -9.3534 H   0  0  0  0  0  0  0  0  0  0  0  0
    0.8512   11.2844   -9.2526 H   0  0  0  0  0  0  0  0  0  0  0  0
    2.4773    9.1608   -9.1223 H   0  0  0  0  0  0  0  0  0  0  0  0
    1.9736    9.2530   -7.4378 H   0  0  0  0  0  0  0  0  0  0  0  0
    2.6983   11.6588   -7.3370 H   0  0  0  0  0  0  0  0  0  0  0  0
    3.2575   11.5591   -9.0098 H   0  0  0  0  0  0  0  0  0  0  0  0
    6.3097   10.8411   -7.0961 H   0  0  0  0  0  0  0  0  0  0  0  0
    6.0398   13.2013   -6.8219 H   0  0  0  0  0  0  0  0  0  0  0  0
    4.4555   13.1207   -7.5742 H   0  0  0  0  0  0  0  0  0  0  0  0
    5.5324   12.6386   -9.8041 H   0  0  0  0  0  0  0  0  0  0  0  0
    7.1221   12.6752   -9.0428 H   0  0  0  0  0  0  0  0  0  0  0  0
    6.7485   15.0825   -8.3703 H   0  0  0  0  0  0  0  0  0  0  0  0
    5.1622   15.0521   -9.1383 H   0  0  0  0  0  0  0  0  0  0  0  0
    6.2483   14.5758  -11.3645 H   0  0  0  0  0  0  0  0  0  0  0  0
    7.8338   14.5894  -10.5953 H   0  0  0  0  0  0  0  0  0  0  0  0
    7.4900   16.9930   -9.9110 H   0  0  0  0  0  0  0  0  0  0  0  0
    5.9020   16.9819  -10.6803 H   0  0  0  0  0  0  0  0  0  0  0  0
    7.0104   16.5030  -12.9123 H   0  0  0  0  0  0  0  0  0  0  0  0
    8.5866   16.4781  -12.1108 H   0  0  0  0  0  0  0  0  0  0  0  0
    7.5493   24.8090  -13.2621 H   0  0  0  0  0  0  0  0  0  0  0  0
    6.0991   23.9701  -13.7318 H   0  0  0  0  0  0  0  0  0  0  0  0
    4.5978   20.6337  -11.9310 H   0  0  0  0  0  0  0  0  0  0  0  0
    4.1010   19.0375  -11.2895 H   0  0  0  0  0  0  0  0  0  0  0  0
    2.0050   18.2281  -12.4383 H   0  0  0  0  0  0  0  0  0  0  0  0
    4.4650   21.3880  -15.9146 H   0  0  0  0  0  0  0  0  0  0  0  0
    2.8079   21.6070  -15.3025 H   0  0  0  0  0  0  0  0  0  0  0  0
    5.1523   21.9529  -13.7051 H   0  0  0  0  0  0  0  0  0  0  0  0
    0.5586    7.7874   -8.3247 H   0  0  0  0  0  0  0  0  0  0  0  0
   -1.4636    6.4477   -8.6917 H   0  0  0  0  0  0  0  0  0  0  0  0
   -3.8247    6.2515   -9.4289 H   0  0  0  0  0  0  0  0  0  0  0  0
   -5.8889    7.2870  -10.2836 H   0  0  0  0  0  0  0  0  0  0  0  0
  1  2  1  0
  1 55  1  0
  1 56  1  0
  1 57  1  0
  2  3  2  0
  2  4  1  0
  4  5  2  0
  4 52  1  0
  5  6  1  0
  5 58  1  0
  6  7  2  0
  6 59  1  0
  7  8  1  0
  7 53  1  0
  8  9  2  0
  8 60  1  0
  9 10  1  0
  9 61  1  0
 10 11  2  0
 10 54  1  0
 11 12  1  0
 11 47  1  0
 12 13  1  0
 12 62  1  0
 13 14  1  0
 13 63  1  0
 13 64  1  0
 14 15  1  0
 14 65  1  0
 14 66  1  0
 15 16  2  0
 15 17  1  0
 17 18  1  0
 17 67  1  0
 18 19  1  0
 18 68  1  0
 18 69  1  0
 19 20  1  0
 19 70  1  0
 19 71  1  0
 20 21  1  0
 20 72  1  0
 20 73  1  0
 21 22  1  0
 21 74  1  0
 21 75  1  0
 22 23  1  0
 22 76  1  0
 22 77  1  0
 23 24  1  0
 23 78  1  0
 23 79  1  0
 24 25  2  0
 24 35  1  0
 25 26  1  0
 26 27  1  0
 26 34  2  0
 27 28  2  0
 27 29  1  0
 29 30  1  0
 29 31  1  0
 31 32  1  0
 31 33  2  0
 32 80  1  0
 32 81  1  0
 33 34  1  0
 34 35  1  0
 35 36  1  0
 36 37  1  6
 36 38  1  0
 36 46  1  0
 38 39  1  0
 38 82  1  0
 38 83  1  0
 39 40  1  1
 39 41  1  0
 39 42  1  0
 41 84  1  0
 42 43  1  6
 42 44  1  0
 42 46  1  0
 44 45  1  0
 44 85  1  0
 44 86  1  0
 45 87  1  0
 47 48  2  0
 47 88  1  0
 48 49  1  0
 48 89  1  0
 49 50  2  0
 49 54  1  0
 50 51  1  0
 50 90  1  0
 51 52  2  0
 51 91  1  0
 52 53  1  0
 53 54  2  0
M  END

