
     RDKit          3D

 27 29  0  0  0  0  0  0  0  0999 V2000
    2.1951   -0.9547    0.6980 O   0  0  0  0  0  0  0  0  0  0  0  0
    3.2140   -0.5086    0.2367 C   0  0  0  0  0  0  0  0  0  0  0  0
    3.8124    0.8537    0.3418 C   0  0  0  0  0  0  0  0  0  0  0  0
    3.3469    1.9819    1.0080 C   0  0  0  0  0  0  0  0  0  0  0  0
    4.1282    3.1444    0.9376 C   0  0  0  0  0  0  0  0  0  0  0  0
    5.3321    3.1644    0.2175 C   0  0  0  0  0  0  0  0  0  0  0  0
    5.7927    2.0224   -0.4540 C   0  0  0  0  0  0  0  0  0  0  0  0
    5.0143    0.8731   -0.3767 C   0  0  0  0  0  0  0  0  0  0  0  0
    5.2454   -0.4746   -0.9815 C   0  0  0  0  0  0  0  0  0  0  0  0
    6.1588   -0.8710   -1.6543 O   0  0  0  0  0  0  0  0  0  0  0  0
    4.1101   -1.2306   -0.5912 N   0  0  0  0  0  0  0  0  0  0  0  0
    3.9904   -2.5701   -0.8286 N   0  0  0  0  0  0  0  0  0  0  0  0
    4.4081   -3.4444    0.1641 C   0  0  0  0  0  0  0  0  0  0  0  0
    5.1357   -3.1037    1.1779 N   0  0  0  0  0  0  0  0  0  0  0  0
    5.4443   -4.2003    1.9552 C   0  0  0  0  0  0  0  0  0  0  0  0
    6.2737   -4.0220    3.1829 C   0  0  0  0  0  0  0  0  0  0  0  0
    5.3379   -3.2570    4.5456 Cl  0  0  0  0  0  0  0  0  0  0  0  0
    4.9394   -5.3950    1.5180 C   0  0  0  0  0  0  0  0  0  0  0  0
    4.0280   -5.1624    0.0506 S   0  0  0  0  0  0  0  0  0  0  0  0
    2.4088    1.9538    1.5664 H   0  0  0  0  0  0  0  0  0  0  0  0
    3.7966    4.0496    1.4522 H   0  0  0  0  0  0  0  0  0  0  0  0
    5.9193    4.0853    0.1816 H   0  0  0  0  0  0  0  0  0  0  0  0
    6.7284    2.0256   -1.0171 H   0  0  0  0  0  0  0  0  0  0  0  0
    3.1840   -2.8359   -1.3849 H   0  0  0  0  0  0  0  0  0  0  0  0
    7.1185   -3.3508    2.9819 H   0  0  0  0  0  0  0  0  0  0  0  0
    6.6463   -4.9831    3.5569 H   0  0  0  0  0  0  0  0  0  0  0  0
    5.0375   -6.3822    1.9651 H   0  0  0  0  0  0  0  0  0  0  0  0
  1  2  2  0
  2  3  1  0
  2 11  1  0
  3  4  2  0
  3  8  1  0
  4  5  1  0
  4 20  1  0
  5  6  2  0
  5 21  1  0
  6  7  1  0
  6 22  1  0
  7  8  2  0
  7 23  1  0
  8  9  1  0
  9 10  2  0
  9 11  1  0
 11 12  1  0
 12 13  1  0
 12 24  1  0
 13 14  2  0
 13 19  1  0
 14 15  1  0
 15 16  1  0
 15 18  2  0
 16 17  1  0
 16 25  1  0
 16 26  1  0
 18 19  1  0
 18 27  1  0
M  END

