
     RDKit          3D

 44 47  0  0  0  0  0  0  0  0999 V2000
    0.1142   -2.8787   -2.0502 C   0  0  0  0  0  0  0  0  0  0  0  0
    1.4195   -3.0885   -2.6473 N   0  0  0  0  0  0  0  0  0  0  0  0
    1.6662   -2.3551   -3.8856 C   0  0  0  0  0  0  0  0  0  0  0  0
    2.0668   -0.8877   -3.6529 C   0  0  0  0  0  0  0  0  0  0  0  0
    3.2076   -0.7499   -2.7219 N   0  0  0  0  0  0  0  0  0  0  0  0
    4.5229   -1.0259   -3.3402 C   0  0  0  0  0  0  0  0  0  0  0  0
    4.9500    0.0779   -4.2889 C   0  0  0  0  0  0  0  0  0  0  0  0
    4.6714    1.4324   -3.9941 C   0  0  0  0  0  0  0  0  0  0  0  0
    3.9455    1.7727   -2.9224 O   0  0  0  0  0  0  0  0  0  0  0  0
    5.1537    2.4511   -4.8420 C   0  0  0  0  0  0  0  0  0  0  0  0
    5.8985    2.1329   -5.9645 C   0  0  0  0  0  0  0  0  0  0  0  0
    6.1912    0.7954   -6.3046 C   0  0  0  0  0  0  0  0  0  0  0  0
    5.7008   -0.2054   -5.4411 C   0  0  0  0  0  0  0  0  0  0  0  0
    5.9481   -1.5313   -5.6804 O   0  0  0  0  0  0  0  0  0  0  0  0
    6.6607   -2.0096   -6.7579 C   0  0  0  0  0  0  0  0  0  0  0  0
    6.7976   -3.2011   -6.8580 O   0  0  0  0  0  0  0  0  0  0  0  0
    7.1904   -0.9959   -7.6903 C   0  0  0  0  0  0  0  0  0  0  0  0
    7.9269   -1.4453   -8.8006 C   0  0  0  0  0  0  0  0  0  0  0  0
    8.4486   -0.5347   -9.7101 C   0  0  0  0  0  0  0  0  0  0  0  0
    8.2320    0.8385   -9.5081 C   0  0  0  0  0  0  0  0  0  0  0  0
    7.5047    1.2915   -8.4131 C   0  0  0  0  0  0  0  0  0  0  0  0
    6.9646    0.3853   -7.4752 C   0  0  0  0  0  0  0  0  0  0  0  0
    2.9533   -1.4994   -1.4773 C   0  0  0  0  0  0  0  0  0  0  0  0
    2.5516   -2.9623   -1.7352 C   0  0  0  0  0  0  0  0  0  0  0  0
   -0.6705   -3.1179   -2.7863 H   0  0  0  0  0  0  0  0  0  0  0  0
   -0.0888   -1.8494   -1.6777 H   0  0  0  0  0  0  0  0  0  0  0  0
   -0.0158   -3.5643   -1.1970 H   0  0  0  0  0  0  0  0  0  0  0  0
    0.7675   -2.4001   -4.5221 H   0  0  0  0  0  0  0  0  0  0  0  0
    2.4694   -2.8718   -4.4417 H   0  0  0  0  0  0  0  0  0  0  0  0
    1.2182   -0.3276   -3.2236 H   0  0  0  0  0  0  0  0  0  0  0  0
    2.3254   -0.3973   -4.6043 H   0  0  0  0  0  0  0  0  0  0  0  0
    4.5666   -1.9961   -3.8602 H   0  0  0  0  0  0  0  0  0  0  0  0
    5.2536   -1.0866   -2.5136 H   0  0  0  0  0  0  0  0  0  0  0  0
    3.5361    0.9196   -2.5809 H   0  0  0  0  0  0  0  0  0  0  0  0
    4.9207    3.4863   -4.5868 H   0  0  0  0  0  0  0  0  0  0  0  0
    6.2603    2.9419   -6.6011 H   0  0  0  0  0  0  0  0  0  0  0  0
    8.0716   -2.5206   -8.9195 H   0  0  0  0  0  0  0  0  0  0  0  0
    9.0213   -0.8814  -10.5732 H   0  0  0  0  0  0  0  0  0  0  0  0
    8.6386    1.5631  -10.2185 H   0  0  0  0  0  0  0  0  0  0  0  0
    7.3534    2.3641   -8.2841 H   0  0  0  0  0  0  0  0  0  0  0  0
    2.1420   -0.9811   -0.9372 H   0  0  0  0  0  0  0  0  0  0  0  0
    3.8499   -1.4433   -0.8393 H   0  0  0  0  0  0  0  0  0  0  0  0
    2.3104   -3.4601   -0.7815 H   0  0  0  0  0  0  0  0  0  0  0  0
    3.4107   -3.5077   -2.1674 H   0  0  0  0  0  0  0  0  0  0  0  0
  1  2  1  0
  1 25  1  0
  1 26  1  0
  1 27  1  0
  2  3  1  0
  2 24  1  0
  3  4  1  0
  3 28  1  0
  3 29  1  0
  4  5  1  0
  4 30  1  0
  4 31  1  0
  5  6  1  0
  5 23  1  0
  6  7  1  0
  6 32  1  0
  6 33  1  0
  7  8  2  0
  7 13  1  0
  8  9  1  0
  8 10  1  0
  9 34  1  0
 10 11  2  0
 10 35  1  0
 11 12  1  0
 11 36  1  0
 12 13  2  0
 12 22  1  0
 13 14  1  0
 14 15  1  0
 15 16  2  0
 15 17  1  0
 17 18  1  0
 17 22  2  0
 18 19  2  0
 18 37  1  0
 19 20  1  0
 19 38  1  0
 20 21  2  0
 20 39  1  0
 21 22  1  0
 21 40  1  0
 23 24  1  0
 23 41  1  0
 23 42  1  0
 24 43  1  0
 24 44  1  0
M  END

