
     RDKit          3D

 56 59  0  0  0  0  0  0  0  0999 V2000
    2.6780    0.7261   -0.4923 O   0  0  0  0  0  0  0  0  0  0  0  0
    2.2711   -0.2455    0.1317 C   0  0  0  0  0  0  0  0  0  0  0  0
    1.0826   -0.2344    0.8120 N   0  0  0  0  0  0  0  0  0  0  0  0
    0.2297    0.9466    0.8541 C   0  0  0  0  0  0  0  0  0  0  0  0
    0.4552    1.8364    2.0633 C   0  0  0  0  0  0  0  0  0  0  0  0
    1.6324    2.5985    2.1737 C   0  0  0  0  0  0  0  0  0  0  0  0
    1.8592    3.4082    3.2868 C   0  0  0  0  0  0  0  0  0  0  0  0
    0.8969    3.4565    4.2954 C   0  0  0  0  0  0  0  0  0  0  0  0
    1.1107    4.2361    5.3664 F   0  0  0  0  0  0  0  0  0  0  0  0
   -0.2802    2.7188    4.2159 C   0  0  0  0  0  0  0  0  0  0  0  0
   -0.4913    1.9100    3.0945 C   0  0  0  0  0  0  0  0  0  0  0  0
    3.0571   -1.5285    0.1910 C   0  0  0  0  0  0  0  0  0  0  0  0
    4.4255   -1.4657   -0.1130 C   0  0  0  0  0  0  0  0  0  0  0  0
    5.2113   -2.6158   -0.0854 C   0  0  0  0  0  0  0  0  0  0  0  0
    4.6498   -3.8655    0.2254 C   0  0  0  0  0  0  0  0  0  0  0  0
    5.5021   -5.1070    0.2632 C   0  0  0  0  0  0  0  0  0  0  0  0
    6.1621   -5.3348    1.9727 S   0  0  0  0  0  0  0  0  0  0  0  0
    7.1046   -6.8240    1.7869 C   0  0  0  0  0  0  0  0  0  0  0  0
    7.1409   -7.4214    0.5919 N   0  0  0  0  0  0  0  0  0  0  0  0
    7.8739   -8.5247    0.5481 C   0  0  0  0  0  0  0  0  0  0  0  0
    7.9648   -9.3477   -0.9963 Cl  0  0  0  0  0  0  0  0  0  0  0  0
    8.5640   -9.0604    1.6245 C   0  0  0  0  0  0  0  0  0  0  0  0
    8.4517   -8.3484    2.8540 C   0  0  0  0  0  0  0  0  0  0  0  0
    9.0572   -8.7477    4.0115 N   0  0  0  0  0  0  0  0  0  0  0  0
    8.9904   -7.9349    5.2291 C   0  0  0  0  0  0  0  0  0  0  0  0
    8.5428   -8.7732    6.4303 C   0  0  0  0  0  0  0  0  0  0  0  0
    9.4288  -10.0117    6.6042 C   0  0  0  0  0  0  0  0  0  0  0  0
    9.4975  -10.8107    5.2984 C   0  0  0  0  0  0  0  0  0  0  0  0
    9.9169   -9.9215    4.1204 C   0  0  0  0  0  0  0  0  0  0  0  0
    7.7119   -7.2235    2.8969 N   0  0  0  0  0  0  0  0  0  0  0  0
    3.2775   -3.9278    0.5133 C   0  0  0  0  0  0  0  0  0  0  0  0
    2.4895   -2.7764    0.4935 C   0  0  0  0  0  0  0  0  0  0  0  0
    0.9081   -0.9676    1.4883 H   0  0  0  0  0  0  0  0  0  0  0  0
   -0.8222    0.6203    0.8232 H   0  0  0  0  0  0  0  0  0  0  0  0
    0.4372    1.5069   -0.0683 H   0  0  0  0  0  0  0  0  0  0  0  0
    2.3728    2.5506    1.3713 H   0  0  0  0  0  0  0  0  0  0  0  0
    2.7668    4.0073    3.3845 H   0  0  0  0  0  0  0  0  0  0  0  0
   -1.0120    2.7854    5.0234 H   0  0  0  0  0  0  0  0  0  0  0  0
   -1.4165    1.3303    3.0233 H   0  0  0  0  0  0  0  0  0  0  0  0
    4.8527   -0.4957   -0.3737 H   0  0  0  0  0  0  0  0  0  0  0  0
    6.2783   -2.5490   -0.3148 H   0  0  0  0  0  0  0  0  0  0  0  0
    6.3555   -5.0385   -0.4244 H   0  0  0  0  0  0  0  0  0  0  0  0
    4.9300   -6.0059   -0.0022 H   0  0  0  0  0  0  0  0  0  0  0  0
    9.1482   -9.9666    1.4971 H   0  0  0  0  0  0  0  0  0  0  0  0
    8.3086   -7.0995    5.0401 H   0  0  0  0  0  0  0  0  0  0  0  0
    9.9962   -7.5127    5.4263 H   0  0  0  0  0  0  0  0  0  0  0  0
    7.4933   -9.0817    6.2797 H   0  0  0  0  0  0  0  0  0  0  0  0
    8.5654   -8.1451    7.3362 H   0  0  0  0  0  0  0  0  0  0  0  0
    9.0576  -10.6464    7.4255 H   0  0  0  0  0  0  0  0  0  0  0  0
   10.4485   -9.6939    6.8909 H   0  0  0  0  0  0  0  0  0  0  0  0
    8.5082  -11.2481    5.0768 H   0  0  0  0  0  0  0  0  0  0  0  0
   10.2083  -11.6492    5.3867 H   0  0  0  0  0  0  0  0  0  0  0  0
    9.8921  -10.4980    3.1898 H   0  0  0  0  0  0  0  0  0  0  0  0
   10.9649   -9.5891    4.2637 H   0  0  0  0  0  0  0  0  0  0  0  0
    2.8193   -4.8932    0.7444 H   0  0  0  0  0  0  0  0  0  0  0  0
    1.4173   -2.8665    0.6850 H   0  0  0  0  0  0  0  0  0  0  0  0
  1  2  2  0
  2  3  1  0
  2 12  1  0
  3  4  1  0
  3 33  1  0
  4  5  1  0
  4 34  1  0
  4 35  1  0
  5  6  2  0
  5 11  1  0
  6  7  1  0
  6 36  1  0
  7  8  2  0
  7 37  1  0
  8  9  1  0
  8 10  1  0
 10 11  2  0
 10 38  1  0
 11 39  1  0
 12 13  2  0
 12 32  1  0
 13 14  1  0
 13 40  1  0
 14 15  2  0
 14 41  1  0
 15 16  1  0
 15 31  1  0
 16 17  1  0
 16 42  1  0
 16 43  1  0
 17 18  1  0
 18 19  2  0
 18 30  1  0
 19 20  1  0
 20 21  1  0
 20 22  2  0
 22 23  1  0
 22 44  1  0
 23 24  1  0
 23 30  2  0
 24 25  1  0
 24 29  1  0
 25 26  1  0
 25 45  1  0
 25 46  1  0
 26 27  1  0
 26 47  1  0
 26 48  1  0
 27 28  1  0
 27 49  1  0
 27 50  1  0
 28 29  1  0
 28 51  1  0
 28 52  1  0
 29 53  1  0
 29 54  1  0
 31 32  2  0
 31 55  1  0
 32 56  1  0
M  END

