
     RDKit          3D

 77 81  0  0  0  0  0  0  0  0999 V2000
    3.0337   -1.6951    4.3814 C   0  0  0  0  0  0  0  0  0  0  0  0
    4.2555   -1.6188    3.6431 O   0  0  0  0  0  0  0  0  0  0  0  0
    5.0913   -0.6210    3.9693 C   0  0  0  0  0  0  0  0  0  0  0  0
    4.8393    0.2000    4.8217 O   0  0  0  0  0  0  0  0  0  0  0  0
    6.3794   -0.6801    3.1728 C   0  0  0  0  0  0  0  0  0  0  0  0
    6.9699    0.7168    2.9083 C   0  0  0  0  0  0  0  0  0  0  0  0
    8.3864    0.6960    2.4136 C   0  0  0  0  0  0  0  0  0  0  0  0
    8.8420    0.7547    1.1054 C   0  0  0  0  0  0  0  0  0  0  0  0
   10.2688    0.6884    1.1389 C   0  0  0  0  0  0  0  0  0  0  0  0
   11.1413    0.7042    0.0353 C   0  0  0  0  0  0  0  0  0  0  0  0
   11.8896    0.7037   -0.9307 C   0  0  0  0  0  0  0  0  0  0  0  0
   12.8177    0.6861   -2.0056 C   0  0  0  0  0  0  0  0  0  0  0  0
   12.4105    0.8931   -3.3458 C   0  0  0  0  0  0  0  0  0  0  0  0
   13.3338    0.8721   -4.3792 C   0  0  0  0  0  0  0  0  0  0  0  0
   14.6980    0.6426   -4.1128 C   0  0  0  0  0  0  0  0  0  0  0  0
   15.5207    0.6415   -5.1866 O   0  0  0  0  0  0  0  0  0  0  0  0
   16.9031    0.4224   -5.0053 C   0  0  0  0  0  0  0  0  0  0  0  0
   15.1183    0.4333   -2.7876 C   0  0  0  0  0  0  0  0  0  0  0  0
   14.1860    0.4560   -1.7517 C   0  0  0  0  0  0  0  0  0  0  0  0
   10.6814    0.5918    2.4290 N   0  0  0  0  0  0  0  0  0  0  0  0
    9.5558    0.5870    3.2365 C   0  0  0  0  0  0  0  0  0  0  0  0
    9.6655    0.4549    4.6208 C   0  0  0  0  0  0  0  0  0  0  0  0
   10.9048    0.3096    5.2459 C   0  0  0  0  0  0  0  0  0  0  0  0
   11.2238    0.0805    6.6255 C   0  0  0  0  0  0  0  0  0  0  0  0
   10.2671   -0.0470    7.7797 C   0  0  0  0  0  0  0  0  0  0  0  0
    9.9531    1.2670    8.5259 C   0  0  0  0  0  0  0  0  0  0  0  0
    8.9880    2.2302    7.8591 C   0  0  0  0  0  0  0  0  0  0  0  0
    9.0884    3.4303    7.8837 O   0  0  0  0  0  0  0  0  0  0  0  0
    7.9455    1.5887    7.2859 O   0  0  0  0  0  0  0  0  0  0  0  0
    6.9122    2.4163    6.7350 C   0  0  0  0  0  0  0  0  0  0  0  0
   12.6064   -0.0261    6.6825 C   0  0  0  0  0  0  0  0  0  0  0  0
   13.1136    0.1339    5.3588 C   0  0  0  0  0  0  0  0  0  0  0  0
   14.4637    0.0881    4.9633 C   0  0  0  0  0  0  0  0  0  0  0  0
   15.6424    0.0404    4.6451 C   0  0  0  0  0  0  0  0  0  0  0  0
   16.9940   -0.0094    4.2104 C   0  0  0  0  0  0  0  0  0  0  0  0
   18.0583   -0.1597    5.1218 C   0  0  0  0  0  0  0  0  0  0  0  0
   19.3826   -0.2073    4.6869 C   0  0  0  0  0  0  0  0  0  0  0  0
   19.6722   -0.1045    3.3155 C   0  0  0  0  0  0  0  0  0  0  0  0
   20.9190   -0.1387    2.7910 O   0  0  0  0  0  0  0  0  0  0  0  0
   22.0313   -0.2826    3.6474 C   0  0  0  0  0  0  0  0  0  0  0  0
   18.6170    0.0455    2.3940 C   0  0  0  0  0  0  0  0  0  0  0  0
   17.3031    0.0923    2.8311 C   0  0  0  0  0  0  0  0  0  0  0  0
   12.0761    0.3316    4.5051 N   0  0  0  0  0  0  0  0  0  0  0  0
   12.1688    0.6516    2.9603 B   0  0  1  0  0  0  0  0  0  0  0  0
   12.9407   -0.2996    2.3236 F   0  0  0  0  0  0  0  0  0  0  0  0
   12.6706    1.9255    2.7805 F   0  0  0  0  0  0  0  0  0  0  0  0
    2.4915   -2.5621    3.9848 H   0  0  0  0  0  0  0  0  0  0  0  0
    2.4397   -0.7785    4.2482 H   0  0  0  0  0  0  0  0  0  0  0  0
    3.2335   -1.8275    5.4555 H   0  0  0  0  0  0  0  0  0  0  0  0
    6.2145   -1.2420    2.2424 H   0  0  0  0  0  0  0  0  0  0  0  0
    7.0876   -1.2796    3.7723 H   0  0  0  0  0  0  0  0  0  0  0  0
    6.9072    1.2964    3.8412 H   0  0  0  0  0  0  0  0  0  0  0  0
    6.3360    1.2436    2.1772 H   0  0  0  0  0  0  0  0  0  0  0  0
    8.2482    0.8375    0.1972 H   0  0  0  0  0  0  0  0  0  0  0  0
   11.3553    1.0727   -3.5616 H   0  0  0  0  0  0  0  0  0  0  0  0
   13.0299    1.0321   -5.4156 H   0  0  0  0  0  0  0  0  0  0  0  0
   17.3593    0.4679   -6.0031 H   0  0  0  0  0  0  0  0  0  0  0  0
   17.1068   -0.5692   -4.5633 H   0  0  0  0  0  0  0  0  0  0  0  0
   17.3610    1.1986   -4.3664 H   0  0  0  0  0  0  0  0  0  0  0  0
   16.1674    0.2521   -2.5537 H   0  0  0  0  0  0  0  0  0  0  0  0
   14.5081    0.2911   -0.7215 H   0  0  0  0  0  0  0  0  0  0  0  0
    8.7655    0.4557    5.2362 H   0  0  0  0  0  0  0  0  0  0  0  0
   10.7100   -0.7438    8.5086 H   0  0  0  0  0  0  0  0  0  0  0  0
    9.3211   -0.5026    7.4515 H   0  0  0  0  0  0  0  0  0  0  0  0
   10.8686    1.8328    8.7474 H   0  0  0  0  0  0  0  0  0  0  0  0
    9.4894    1.0122    9.4962 H   0  0  0  0  0  0  0  0  0  0  0  0
    6.1808    1.7368    6.2804 H   0  0  0  0  0  0  0  0  0  0  0  0
    7.3275    3.1027    5.9821 H   0  0  0  0  0  0  0  0  0  0  0  0
    6.4426    3.0186    7.5275 H   0  0  0  0  0  0  0  0  0  0  0  0
   13.2209   -0.2173    7.5602 H   0  0  0  0  0  0  0  0  0  0  0  0
   17.8393   -0.2392    6.1887 H   0  0  0  0  0  0  0  0  0  0  0  0
   20.1791   -0.3236    5.4218 H   0  0  0  0  0  0  0  0  0  0  0  0
   22.9219   -0.2822    3.0049 H   0  0  0  0  0  0  0  0  0  0  0  0
   21.9961   -1.2329    4.2097 H   0  0  0  0  0  0  0  0  0  0  0  0
   22.1074    0.5537    4.3651 H   0  0  0  0  0  0  0  0  0  0  0  0
   18.8655    0.1239    1.3338 H   0  0  0  0  0  0  0  0  0  0  0  0
   16.4861    0.2079    2.1162 H   0  0  0  0  0  0  0  0  0  0  0  0
  1  2  1  0
  1 47  1  0
  1 48  1  0
  1 49  1  0
  2  3  1  0
  3  4  2  0
  3  5  1  0
  5  6  1  0
  5 50  1  0
  5 51  1  0
  6  7  1  0
  6 52  1  0
  6 53  1  0
  7  8  1  0
  7 21  2  0
  8  9  2  0
  8 54  1  0
  9 10  1  0
  9 20  1  0
 10 11  3  0
 11 12  1  0
 12 13  2  0
 12 19  1  0
 13 14  1  0
 13 55  1  0
 14 15  2  0
 14 56  1  0
 15 16  1  0
 15 18  1  0
 16 17  1  0
 17 57  1  0
 17 58  1  0
 17 59  1  0
 18 19  2  0
 18 60  1  0
 19 61  1  0
 20 21  1  0
 20 44  1  0
 21 22  1  0
 22 23  2  0
 22 62  1  0
 23 24  1  0
 23 43  1  0
 24 25  1  0
 24 31  2  0
 25 26  1  0
 25 63  1  0
 25 64  1  0
 26 27  1  0
 26 65  1  0
 26 66  1  0
 27 28  2  0
 27 29  1  0
 29 30  1  0
 30 67  1  0
 30 68  1  0
 30 69  1  0
 31 32  1  0
 31 70  1  0
 32 33  1  0
 32 43  2  0
 33 34  3  0
 34 35  1  0
 35 36  2  0
 35 42  1  0
 36 37  1  0
 36 71  1  0
 37 38  2  0
 37 72  1  0
 38 39  1  0
 38 41  1  0
 39 40  1  0
 40 73  1  0
 40 74  1  0
 40 75  1  0
 41 42  2  0
 41 76  1  0
 42 77  1  0
 43 44  1  0
 44 45  1  6
 44 46  1  0
M  CHG  2  43   1  44  -1
M  END

