
     RDKit          3D

 27 27  0  0  0  0  0  0  0  0999 V2000
    5.6173   -1.8270    0.6929 C   0  0  0  0  0  0  0  0  0  0  0  0
    4.6665   -0.6862    0.3244 C   0  0  1  0  0  0  0  0  0  0  0  0
    4.5445    0.3781    1.3264 N   0  0  0  0  0  0  0  0  0  0  0  0
    5.0267   -0.1031   -1.0640 C   0  0  0  0  0  0  0  0  0  0  0  0
    5.4636   -0.8073   -1.9572 O   0  0  0  0  0  0  0  0  0  0  0  0
    4.7584    1.2360   -1.1654 N   0  0  0  0  0  0  0  0  0  0  0  0
    4.8982    2.0838   -2.2693 C   0  0  0  0  0  0  0  0  0  0  0  0
    4.5427    3.4354   -2.1203 C   0  0  0  0  0  0  0  0  0  0  0  0
    4.6620    4.3224   -3.1856 C   0  0  0  0  0  0  0  0  0  0  0  0
    5.1381    3.8819   -4.4232 C   0  0  0  0  0  0  0  0  0  0  0  0
    5.2646    5.0444   -5.7206 Cl  0  0  0  0  0  0  0  0  0  0  0  0
    5.4977    2.5327   -4.5888 C   0  0  0  0  0  0  0  0  0  0  0  0
    6.0191    2.0068   -5.9127 C   0  0  1  0  0  0  0  0  0  0  0  0
    5.1221    2.1670   -6.8999 F   0  0  0  0  0  0  0  0  0  0  0  0
    7.1468    2.6333   -6.2882 F   0  0  0  0  0  0  0  0  0  0  0  0
    6.3008    0.6953   -5.8463 F   0  0  0  0  0  0  0  0  0  0  0  0
    5.3767    1.6441   -3.5159 C   0  0  0  0  0  0  0  0  0  0  0  0
    5.2766   -2.3332    1.6096 H   0  0  0  0  0  0  0  0  0  0  0  0
    6.6374   -1.4443    0.8660 H   0  0  0  0  0  0  0  0  0  0  0  0
    5.6720   -2.5610   -0.1225 H   0  0  0  0  0  0  0  0  0  0  0  0
    3.6543   -1.1080    0.1830 H   0  0  0  0  0  0  0  0  0  0  0  0
    5.4546    0.5797    1.7452 H   0  0  0  0  0  0  0  0  0  0  0  0
    3.9308    0.0955    2.0890 H   0  0  0  0  0  0  0  0  0  0  0  0
    4.4176    1.6289   -0.2856 H   0  0  0  0  0  0  0  0  0  0  0  0
    4.1672    3.7968   -1.1590 H   0  0  0  0  0  0  0  0  0  0  0  0
    4.3844    5.3707   -3.0655 H   0  0  0  0  0  0  0  0  0  0  0  0
    5.6533    0.6000   -3.6371 H   0  0  0  0  0  0  0  0  0  0  0  0
  1  2  1  0
  1 18  1  0
  1 19  1  0
  1 20  1  0
  2  3  1  0
  2  4  1  0
  2 21  1  6
  3 22  1  0
  3 23  1  0
  4  5  2  0
  4  6  1  0
  6  7  1  0
  6 24  1  0
  7  8  2  0
  7 17  1  0
  8  9  1  0
  8 25  1  0
  9 10  2  0
  9 26  1  0
 10 11  1  0
 10 12  1  0
 12 13  1  0
 12 17  2  0
 13 14  1  6
 13 15  1  0
 13 16  1  0
 17 27  1  0
M  END

