
     RDKit          3D

 34 35  0  0  0  0  0  0  0  0999 V2000
    1.2140   -4.1852   -1.7833 C   0  0  0  0  0  0  0  0  0  0  0  0
    1.3848   -3.4032   -0.5765 N   0  0  0  0  0  0  0  0  0  0  0  0
    2.6299   -3.1887   -0.0668 C   0  0  0  0  0  0  0  0  0  0  0  0
    3.7801   -3.4138   -0.6280 N   0  0  0  0  0  0  0  0  0  0  0  0
    4.7206   -2.9600    0.3059 C   0  0  0  0  0  0  0  0  0  0  0  0
    6.2066   -3.0235    0.0692 C   0  0  1  0  0  0  0  0  0  0  0  0
    6.7396   -4.4710   -0.1049 C   0  0  0  0  0  0  0  0  0  0  0  0
    6.4803   -5.0303   -1.5171 C   0  0  0  0  0  0  0  0  0  0  0  0
    6.9793   -4.1729   -2.5895 N   0  0  0  0  0  0  0  0  0  0  0  0
    8.4106   -4.2283   -2.8043 C   0  0  0  0  0  0  0  0  0  0  0  0
    6.4193   -2.8278   -2.4869 C   0  0  0  0  0  0  0  0  0  0  0  0
    6.6756   -2.1516   -1.1263 C   0  0  0  0  0  0  0  0  0  0  0  0
    4.0648   -2.4863    1.4049 C   0  0  0  0  0  0  0  0  0  0  0  0
    4.4481   -1.8941    2.7118 C   0  0  0  0  0  0  0  0  0  0  0  0
    2.7009   -2.6357    1.1619 O   0  0  0  0  0  0  0  0  0  0  0  0
    0.1817   -4.0726   -2.1445 H   0  0  0  0  0  0  0  0  0  0  0  0
    1.4264   -5.2619   -1.6400 H   0  0  0  0  0  0  0  0  0  0  0  0
    1.8979   -3.8139   -2.5596 H   0  0  0  0  0  0  0  0  0  0  0  0
    0.6356   -3.4064    0.1053 H   0  0  0  0  0  0  0  0  0  0  0  0
    6.6707   -2.6097    0.9796 H   0  0  0  0  0  0  0  0  0  0  0  0
    6.2880   -5.1335    0.6525 H   0  0  0  0  0  0  0  0  0  0  0  0
    7.8260   -4.4634    0.0936 H   0  0  0  0  0  0  0  0  0  0  0  0
    5.3944   -5.1541   -1.6556 H   0  0  0  0  0  0  0  0  0  0  0  0
    6.9402   -6.0282   -1.6171 H   0  0  0  0  0  0  0  0  0  0  0  0
    8.7178   -5.2709   -2.9922 H   0  0  0  0  0  0  0  0  0  0  0  0
    9.0430   -3.8487   -1.9691 H   0  0  0  0  0  0  0  0  0  0  0  0
    8.6744   -3.6414   -3.7000 H   0  0  0  0  0  0  0  0  0  0  0  0
    5.3319   -2.8970   -2.6498 H   0  0  0  0  0  0  0  0  0  0  0  0
    6.8337   -2.2073   -3.2996 H   0  0  0  0  0  0  0  0  0  0  0  0
    6.1787   -1.1675   -1.0939 H   0  0  0  0  0  0  0  0  0  0  0  0
    7.7572   -1.9605   -1.0093 H   0  0  0  0  0  0  0  0  0  0  0  0
    5.5420   -1.8321    2.7933 H   0  0  0  0  0  0  0  0  0  0  0  0
    4.0782   -2.4987    3.5583 H   0  0  0  0  0  0  0  0  0  0  0  0
    4.0401   -0.8757    2.8347 H   0  0  0  0  0  0  0  0  0  0  0  0
  1  2  1  0
  1 16  1  0
  1 17  1  0
  1 18  1  0
  2  3  1  0
  2 19  1  0
  3  4  2  0
  3 15  1  0
  4  5  1  0
  5  6  1  0
  5 13  2  0
  6  7  1  0
  6 12  1  0
  6 20  1  1
  7  8  1  0
  7 21  1  0
  7 22  1  0
  8  9  1  0
  8 23  1  0
  8 24  1  0
  9 10  1  0
  9 11  1  0
 10 25  1  0
 10 26  1  0
 10 27  1  0
 11 12  1  0
 11 28  1  0
 11 29  1  0
 12 30  1  0
 12 31  1  0
 13 14  1  0
 13 15  1  0
 14 32  1  0
 14 33  1  0
 14 34  1  0
M  END

