
     RDKit          3D

 55 57  0  0  0  0  0  0  0  0999 V2000
    0.8649    0.0824   -1.3376 C   0  0  0  0  0  0  0  0  0  0  0  0
    2.2438    0.1347   -1.5801 O   0  0  0  0  0  0  0  0  0  0  0  0
    2.9079   -1.0787   -1.3438 C   0  0  0  0  0  0  0  0  0  0  0  0
    4.3760   -0.9637   -1.6863 C   0  0  0  0  0  0  0  0  0  0  0  0
    4.8653    0.0994   -2.4478 C   0  0  0  0  0  0  0  0  0  0  0  0
    6.2225    0.1456   -2.7645 C   0  0  0  0  0  0  0  0  0  0  0  0
    7.1158   -0.8542   -2.3472 C   0  0  0  0  0  0  0  0  0  0  0  0
    8.5566   -0.6832   -2.7217 C   0  0  0  0  0  0  0  0  0  0  0  0
    9.3315    0.3276   -2.1193 C   0  0  0  0  0  0  0  0  0  0  0  0
   10.6665    0.5416   -2.4918 C   0  0  0  0  0  0  0  0  0  0  0  0
   11.4713    1.4933   -1.9500 O   0  0  0  0  0  0  0  0  0  0  0  0
   10.9599    2.3394   -0.9464 C   0  0  0  0  0  0  0  0  0  0  0  0
   11.2439   -0.2629   -3.4890 C   0  0  0  0  0  0  0  0  0  0  0  0
   10.4906   -1.2608   -4.0984 C   0  0  0  0  0  0  0  0  0  0  0  0
    9.1647   -1.4567   -3.7136 C   0  0  0  0  0  0  0  0  0  0  0  0
    8.4562   -2.4285   -4.3246 F   0  0  0  0  0  0  0  0  0  0  0  0
    6.6367   -1.9416   -1.5690 C   0  0  0  0  0  0  0  0  0  0  0  0
    7.6148   -2.9869   -1.0290 C   0  0  1  0  0  0  0  0  0  0  0  0
    7.9966   -2.6777    0.4477 C   0  0  0  0  0  0  0  0  0  0  0  0
    6.9842   -3.1865    1.4779 C   0  0  0  0  0  0  0  0  0  0  0  0
    6.7459   -4.6915    1.3139 C   0  0  0  0  0  0  0  0  0  0  0  0
    6.3111   -5.0432   -0.1148 C   0  0  0  0  0  0  0  0  0  0  0  0
    7.2522   -4.5104   -1.2295 C   0  0  1  0  0  0  0  0  0  0  0  0
    6.6003   -4.7541   -2.6025 C   0  0  0  0  0  0  0  0  0  0  0  0
    8.5733   -5.3144   -1.2013 C   0  0  0  0  0  0  0  0  0  0  0  0
    5.2676   -1.9547   -1.2554 C   0  0  0  0  0  0  0  0  0  0  0  0
    0.4464    1.0758   -1.5555 H   0  0  0  0  0  0  0  0  0  0  0  0
    0.6372   -0.1719   -0.2820 H   0  0  0  0  0  0  0  0  0  0  0  0
    0.3568   -0.6642   -1.9822 H   0  0  0  0  0  0  0  0  0  0  0  0
    2.4498   -1.8920   -1.9503 H   0  0  0  0  0  0  0  0  0  0  0  0
    2.7945   -1.3883   -0.2823 H   0  0  0  0  0  0  0  0  0  0  0  0
    4.1831    0.8818   -2.7819 H   0  0  0  0  0  0  0  0  0  0  0  0
    6.6075    0.9758   -3.3624 H   0  0  0  0  0  0  0  0  0  0  0  0
    8.8597    0.9383   -1.3498 H   0  0  0  0  0  0  0  0  0  0  0  0
   11.7757    3.0180   -0.6627 H   0  0  0  0  0  0  0  0  0  0  0  0
   10.6395    1.7735   -0.0526 H   0  0  0  0  0  0  0  0  0  0  0  0
   10.1058    2.9404   -1.3084 H   0  0  0  0  0  0  0  0  0  0  0  0
   12.2835   -0.0849   -3.7697 H   0  0  0  0  0  0  0  0  0  0  0  0
   10.9135   -1.8948   -4.8804 H   0  0  0  0  0  0  0  0  0  0  0  0
    8.5372   -2.8418   -1.6058 H   0  0  0  0  0  0  0  0  0  0  0  0
    8.1495   -1.5920    0.5590 H   0  0  0  0  0  0  0  0  0  0  0  0
    8.9746   -3.1428    0.6607 H   0  0  0  0  0  0  0  0  0  0  0  0
    6.0296   -2.6420    1.3724 H   0  0  0  0  0  0  0  0  0  0  0  0
    7.3480   -2.9656    2.4959 H   0  0  0  0  0  0  0  0  0  0  0  0
    5.9838   -5.0423    2.0306 H   0  0  0  0  0  0  0  0  0  0  0  0
    7.6733   -5.2345    1.5689 H   0  0  0  0  0  0  0  0  0  0  0  0
    5.2906   -4.6599   -0.2824 H   0  0  0  0  0  0  0  0  0  0  0  0
    6.2291   -6.1390   -0.2232 H   0  0  0  0  0  0  0  0  0  0  0  0
    5.6141   -4.2746   -2.6845 H   0  0  0  0  0  0  0  0  0  0  0  0
    6.4616   -5.8351   -2.7714 H   0  0  0  0  0  0  0  0  0  0  0  0
    7.2291   -4.3586   -3.4140 H   0  0  0  0  0  0  0  0  0  0  0  0
    9.1382   -5.1808   -0.2669 H   0  0  0  0  0  0  0  0  0  0  0  0
    9.2304   -5.0116   -2.0323 H   0  0  0  0  0  0  0  0  0  0  0  0
    8.3711   -6.3923   -1.3126 H   0  0  0  0  0  0  0  0  0  0  0  0
    4.8695   -2.7697   -0.6505 H   0  0  0  0  0  0  0  0  0  0  0  0
  1  2  1  0
  1 27  1  0
  1 28  1  0
  1 29  1  0
  2  3  1  0
  3  4  1  0
  3 30  1  0
  3 31  1  0
  4  5  2  0
  4 26  1  0
  5  6  1  0
  5 32  1  0
  6  7  2  0
  6 33  1  0
  7  8  1  0
  7 17  1  0
  8  9  2  0
  8 15  1  0
  9 10  1  0
  9 34  1  0
 10 11  1  0
 10 13  2  0
 11 12  1  0
 12 35  1  0
 12 36  1  0
 12 37  1  0
 13 14  1  0
 13 38  1  0
 14 15  2  0
 14 39  1  0
 15 16  1  0
 17 18  1  0
 17 26  2  0
 18 19  1  0
 18 23  1  0
 18 40  1  6
 19 20  1  0
 19 41  1  0
 19 42  1  0
 20 21  1  0
 20 43  1  0
 20 44  1  0
 21 22  1  0
 21 45  1  0
 21 46  1  0
 22 23  1  0
 22 47  1  0
 22 48  1  0
 23 24  1  6
 23 25  1  0
 24 49  1  0
 24 50  1  0
 24 51  1  0
 25 52  1  0
 25 53  1  0
 25 54  1  0
 26 55  1  0
M  END

