
     RDKit          3D

 46 49  0  0  0  0  0  0  0  0999 V2000
    0.9371   -0.0467   -0.2047 C   0  0  0  0  0  0  0  0  0  0  0  0
    0.0160    0.8695   -0.5847 C   0  0  0  0  0  0  0  0  0  0  0  0
   -1.4229    0.6851   -0.3965 C   0  0  0  0  0  0  0  0  0  0  0  0
   -2.3434    1.6684   -0.8103 C   0  0  0  0  0  0  0  0  0  0  0  0
   -3.6954    1.4141   -0.5945 C   0  0  0  0  0  0  0  0  0  0  0  0
   -4.1325    0.2897   -0.0192 N   0  0  0  0  0  0  0  0  0  0  0  0
   -3.1826   -0.5815    0.3384 C   0  0  0  0  0  0  0  0  0  0  0  0
   -1.8711   -0.4478    0.1837 N   0  0  0  0  0  0  0  0  0  0  0  0
    2.3864    0.0306   -0.3453 C   0  0  0  0  0  0  0  0  0  0  0  0
    3.0617    1.1182   -0.9428 C   0  0  0  0  0  0  0  0  0  0  0  0
    4.4447    1.1418   -1.0567 C   0  0  0  0  0  0  0  0  0  0  0  0
    5.2313    0.0753   -0.5665 C   0  0  0  0  0  0  0  0  0  0  0  0
    6.6363    0.1019   -0.6813 N   0  0  0  0  0  0  0  0  0  0  0  0
    7.3468    1.3297   -0.5652 C   0  0  0  0  0  0  0  0  0  0  0  0
    7.0387    2.2430    0.4588 C   0  0  0  0  0  0  0  0  0  0  0  0
    7.7391    3.4459    0.5645 C   0  0  0  0  0  0  0  0  0  0  0  0
    8.7670    3.7509   -0.3335 C   0  0  0  0  0  0  0  0  0  0  0  0
    9.0836    2.8402   -1.3467 C   0  0  0  0  0  0  0  0  0  0  0  0
    8.3771    1.6425   -1.4696 C   0  0  0  0  0  0  0  0  0  0  0  0
    7.3657   -1.1005   -0.9031 C   0  0  0  0  0  0  0  0  0  0  0  0
    6.9384   -2.0295   -1.8686 C   0  0  0  0  0  0  0  0  0  0  0  0
    7.6583   -3.2062   -2.0814 C   0  0  0  0  0  0  0  0  0  0  0  0
    8.8221   -3.4690   -1.3512 C   0  0  0  0  0  0  0  0  0  0  0  0
    9.2558   -2.5426   -0.3977 C   0  0  0  0  0  0  0  0  0  0  0  0
    8.5326   -1.3709   -0.1671 C   0  0  0  0  0  0  0  0  0  0  0  0
    4.5698   -1.0136    0.0350 C   0  0  0  0  0  0  0  0  0  0  0  0
    3.1827   -1.0307    0.1340 C   0  0  0  0  0  0  0  0  0  0  0  0
    0.5451   -0.9551    0.2648 H   0  0  0  0  0  0  0  0  0  0  0  0
    0.3163    1.8084   -1.0589 H   0  0  0  0  0  0  0  0  0  0  0  0
   -2.0084    2.5946   -1.2827 H   0  0  0  0  0  0  0  0  0  0  0  0
   -4.4563    2.1443   -0.8966 H   0  0  0  0  0  0  0  0  0  0  0  0
   -3.5268   -1.5099    0.8125 H   0  0  0  0  0  0  0  0  0  0  0  0
    2.4914    1.9593   -1.3433 H   0  0  0  0  0  0  0  0  0  0  0  0
    4.9329    1.9908   -1.5378 H   0  0  0  0  0  0  0  0  0  0  0  0
    6.2479    2.0034    1.1723 H   0  0  0  0  0  0  0  0  0  0  0  0
    7.4869    4.1447    1.3664 H   0  0  0  0  0  0  0  0  0  0  0  0
    9.3177    4.6902   -0.2437 H   0  0  0  0  0  0  0  0  0  0  0  0
    9.8816    3.0679   -2.0582 H   0  0  0  0  0  0  0  0  0  0  0  0
    8.6200    0.9402   -2.2693 H   0  0  0  0  0  0  0  0  0  0  0  0
    6.0390   -1.8227   -2.4518 H   0  0  0  0  0  0  0  0  0  0  0  0
    7.3123   -3.9177   -2.8357 H   0  0  0  0  0  0  0  0  0  0  0  0
    9.3869   -4.3879   -1.5249 H   0  0  0  0  0  0  0  0  0  0  0  0
   10.1609   -2.7375    0.1834 H   0  0  0  0  0  0  0  0  0  0  0  0
    8.8691   -0.6565    0.5867 H   0  0  0  0  0  0  0  0  0  0  0  0
    5.1522   -1.8473    0.4302 H   0  0  0  0  0  0  0  0  0  0  0  0
    2.6940   -1.8854    0.6099 H   0  0  0  0  0  0  0  0  0  0  0  0
  1  2  2  0
  1  9  1  0
  1 28  1  0
  2  3  1  0
  2 29  1  0
  3  4  2  0
  3  8  1  0
  4  5  1  0
  4 30  1  0
  5  6  2  0
  5 31  1  0
  6  7  1  0
  7  8  2  0
  7 32  1  0
  9 10  2  0
  9 27  1  0
 10 11  1  0
 10 33  1  0
 11 12  2  0
 11 34  1  0
 12 13  1  0
 12 26  1  0
 13 14  1  0
 13 20  1  0
 14 15  2  0
 14 19  1  0
 15 16  1  0
 15 35  1  0
 16 17  2  0
 16 36  1  0
 17 18  1  0
 17 37  1  0
 18 19  2  0
 18 38  1  0
 19 39  1  0
 20 21  2  0
 20 25  1  0
 21 22  1  0
 21 40  1  0
 22 23  2  0
 22 41  1  0
 23 24  1  0
 23 42  1  0
 24 25  2  0
 24 43  1  0
 25 44  1  0
 26 27  2  0
 26 45  1  0
 27 46  1  0
M  END

