
     RDKit          3D

 33 34  0  0  0  0  0  0  0  0999 V2000
    0.8212    1.2958    0.1540 C   0  0  0  0  0  0  0  0  0  0  0  0
    1.9965    0.3602   -0.1598 C   0  0  1  0  0  0  0  0  0  0  0  0
    2.5240    0.6443   -1.5677 C   0  0  0  0  0  0  0  0  0  0  0  0
    2.8554    1.7485   -1.9390 O   0  0  0  0  0  0  0  0  0  0  0  0
    2.6234   -0.4880   -2.3779 N   0  0  0  0  0  0  0  0  0  0  0  0
    3.1940   -0.4831   -3.6514 C   0  0  0  0  0  0  0  0  0  0  0  0
    2.7762    0.4559   -4.6216 C   0  0  0  0  0  0  0  0  0  0  0  0
    1.7592    1.2611   -4.3401 F   0  0  0  0  0  0  0  0  0  0  0  0
    3.3469    0.5342   -5.8849 C   0  0  0  0  0  0  0  0  0  0  0  0
    4.3517   -0.3706   -6.2275 C   0  0  0  0  0  0  0  0  0  0  0  0
    4.8927   -0.3058   -7.4456 F   0  0  0  0  0  0  0  0  0  0  0  0
    4.7818   -1.3431   -5.3398 C   0  0  0  0  0  0  0  0  0  0  0  0
    4.1985   -1.3890   -4.0683 C   0  0  0  0  0  0  0  0  0  0  0  0
    4.6884   -2.4472   -3.1700 N   0  0  0  0  0  0  0  0  0  0  0  0
    3.9729   -2.7860   -2.2280 O   0  0  0  0  0  0  0  0  0  0  0  0
    5.7694   -2.9459   -3.4163 O   0  0  0  0  0  0  0  0  0  0  0  0
    3.1428    0.5356    0.8418 C   0  0  1  0  0  0  0  0  0  0  0  0
    2.9428    0.0562    2.3031 C   0  0  0  0  0  0  0  0  0  0  0  0
    4.3188   -0.4671    2.2844 N   0  0  0  0  0  0  0  0  0  0  0  0
    4.3497   -0.4399    0.8126 C   0  0  0  0  0  0  0  0  0  0  0  0
   -0.0252    1.1199   -0.5282 H   0  0  0  0  0  0  0  0  0  0  0  0
    1.1338    2.3448    0.0437 H   0  0  0  0  0  0  0  0  0  0  0  0
    0.4658    1.1405    1.1845 H   0  0  0  0  0  0  0  0  0  0  0  0
    1.6472   -0.6862   -0.1117 H   0  0  0  0  0  0  0  0  0  0  0  0
    2.6263   -1.3964   -1.9223 H   0  0  0  0  0  0  0  0  0  0  0  0
    2.9886    1.2761   -6.5995 H   0  0  0  0  0  0  0  0  0  0  0  0
    5.5591   -2.0551   -5.6106 H   0  0  0  0  0  0  0  0  0  0  0  0
    3.4886    1.5801    0.8098 H   0  0  0  0  0  0  0  0  0  0  0  0
    2.1504   -0.7183    2.3732 H   0  0  0  0  0  0  0  0  0  0  0  0
    2.7430    0.8232    3.0714 H   0  0  0  0  0  0  0  0  0  0  0  0
    4.4698   -1.3717    2.7273 H   0  0  0  0  0  0  0  0  0  0  0  0
    4.0988   -1.4031    0.3224 H   0  0  0  0  0  0  0  0  0  0  0  0
    5.2910   -0.0684    0.3712 H   0  0  0  0  0  0  0  0  0  0  0  0
  1  2  1  0
  1 21  1  0
  1 22  1  0
  1 23  1  0
  2  3  1  0
  2 17  1  0
  2 24  1  6
  3  4  2  0
  3  5  1  0
  5  6  1  0
  5 25  1  0
  6  7  2  0
  6 13  1  0
  7  8  1  0
  7  9  1  0
  9 10  2  0
  9 26  1  0
 10 11  1  0
 10 12  1  0
 12 13  2  0
 12 27  1  0
 13 14  1  0
 14 15  2  0
 14 16  1  0
 17 18  1  0
 17 20  1  0
 17 28  1  1
 18 19  1  0
 18 29  1  0
 18 30  1  0
 19 20  1  0
 19 31  1  0
 20 32  1  0
 20 33  1  0
M  CHG  2  14   1  16  -1
M  END

