
     RDKit          3D

 27 27  0  0  0  0  0  0  0  0999 V2000
    0.9922    0.1524   -0.1025 C   0  0  0  0  0  0  0  0  0  0  0  0
    2.4952    0.1576   -0.0870 C   0  0  0  0  0  0  0  0  0  0  0  0
    3.2534    1.2410    0.3852 C   0  0  0  0  0  0  0  0  0  0  0  0
    4.6461    1.2136    0.3799 C   0  0  0  0  0  0  0  0  0  0  0  0
    5.3360    0.0843   -0.0962 C   0  0  0  0  0  0  0  0  0  0  0  0
    6.8239    0.1063   -0.0707 C   0  0  0  0  0  0  0  0  0  0  0  0
    7.4232    1.1239    0.2750 O   0  0  0  0  0  0  0  0  0  0  0  0
    7.6354   -1.0903   -0.5202 C   0  0  0  0  0  0  0  0  0  0  0  0
    8.0422   -0.9210   -2.3096 S   0  0  0  0  0  0  0  0  0  0  0  0
    8.9985    0.6494   -2.3493 C   0  0  0  0  0  0  0  0  0  0  0  0
   10.2748    0.6180   -1.5035 C   0  0  0  0  0  0  0  0  0  0  0  0
   11.3563    0.3751   -1.9679 O   0  0  0  0  0  0  0  0  0  0  0  0
   10.1035    0.8642   -0.1967 O   0  0  0  0  0  0  0  0  0  0  0  0
    4.5956   -1.0125   -0.5737 C   0  0  0  0  0  0  0  0  0  0  0  0
    3.2097   -0.9520   -0.5620 C   0  0  0  0  0  0  0  0  0  0  0  0
    2.5147   -2.0034   -1.0265 F   0  0  0  0  0  0  0  0  0  0  0  0
    0.5874    1.0788    0.3275 H   0  0  0  0  0  0  0  0  0  0  0  0
    0.5927   -0.7017    0.4679 H   0  0  0  0  0  0  0  0  0  0  0  0
    0.6081    0.0496   -1.1309 H   0  0  0  0  0  0  0  0  0  0  0  0
    2.7309    2.1235    0.7635 H   0  0  0  0  0  0  0  0  0  0  0  0
    5.2263    2.0616    0.7461 H   0  0  0  0  0  0  0  0  0  0  0  0
    7.0979   -2.0434   -0.4438 H   0  0  0  0  0  0  0  0  0  0  0  0
    8.5568   -1.1535    0.0752 H   0  0  0  0  0  0  0  0  0  0  0  0
    8.3485    1.4953   -2.0771 H   0  0  0  0  0  0  0  0  0  0  0  0
    9.2928    0.7448   -3.4030 H   0  0  0  0  0  0  0  0  0  0  0  0
    9.1631    1.0704    0.0234 H   0  0  0  0  0  0  0  0  0  0  0  0
    5.0650   -1.9112   -0.9732 H   0  0  0  0  0  0  0  0  0  0  0  0
  1  2  1  0
  1 17  1  0
  1 18  1  0
  1 19  1  0
  2  3  2  0
  2 15  1  0
  3  4  1  0
  3 20  1  0
  4  5  2  0
  4 21  1  0
  5  6  1  0
  5 14  1  0
  6  7  2  0
  6  8  1  0
  8  9  1  0
  8 22  1  0
  8 23  1  0
  9 10  1  0
 10 11  1  0
 10 24  1  0
 10 25  1  0
 11 12  2  0
 11 13  1  0
 13 26  1  0
 14 15  2  0
 14 27  1  0
 15 16  1  0
M  END

