
     RDKit          3D

 35 37  0  0  0  0  0  0  0  0999 V2000
    1.4584   -0.2241   -0.7447 C   0  0  0  0  0  0  0  0  0  0  0  0
    2.5007    0.0182    0.1793 O   0  0  0  0  0  0  0  0  0  0  0  0
    3.0116   -0.9926    0.9215 C   0  0  0  0  0  0  0  0  0  0  0  0
    2.5728   -2.3369    0.8054 C   0  0  0  0  0  0  0  0  0  0  0  0
    3.1580   -3.3146    1.5788 C   0  0  0  0  0  0  0  0  0  0  0  0
    4.1978   -3.0189    2.4968 C   0  0  0  0  0  0  0  0  0  0  0  0
    4.8036   -4.0449    3.2752 C   0  0  0  0  0  0  0  0  0  0  0  0
    5.8193   -3.7574    4.1590 C   0  0  0  0  0  0  0  0  0  0  0  0
    6.2649   -2.4200    4.3000 C   0  0  0  0  0  0  0  0  0  0  0  0
    5.7026   -1.3954    3.5668 C   0  0  0  0  0  0  0  0  0  0  0  0
    4.6516   -1.6574    2.6347 C   0  0  0  0  0  0  0  0  0  0  0  0
    4.0280   -0.6598    1.8204 C   0  0  0  0  0  0  0  0  0  0  0  0
    4.3791    1.1399    1.8925 S   0  0  0  0  0  0  0  0  0  0  0  0
    5.1848    1.4420    3.1187 O   0  0  0  0  0  0  0  0  0  0  0  0
    5.4318    1.1363    0.5001 N   0  0  0  0  0  0  0  0  0  0  0  0
    5.5730    2.2610   -0.3103 C   0  0  0  0  0  0  0  0  0  0  0  0
    6.7793    2.5031   -0.9933 C   0  0  0  0  0  0  0  0  0  0  0  0
    6.8681    3.6083   -1.8394 C   0  0  0  0  0  0  0  0  0  0  0  0
    5.8756    4.4785   -2.0446 N   0  0  0  0  0  0  0  0  0  0  0  0
    4.7338    4.2467   -1.3897 C   0  0  0  0  0  0  0  0  0  0  0  0
    4.5203    3.1700   -0.5295 C   0  0  0  0  0  0  0  0  0  0  0  0
    1.2226    0.7452   -1.2024 H   0  0  0  0  0  0  0  0  0  0  0  0
    0.5540   -0.6167   -0.2481 H   0  0  0  0  0  0  0  0  0  0  0  0
    1.7714   -0.9259   -1.5369 H   0  0  0  0  0  0  0  0  0  0  0  0
    1.7803   -2.5998    0.1054 H   0  0  0  0  0  0  0  0  0  0  0  0
    2.8202   -4.3502    1.4850 H   0  0  0  0  0  0  0  0  0  0  0  0
    4.4445   -5.0706    3.1539 H   0  0  0  0  0  0  0  0  0  0  0  0
    6.2788   -4.5525    4.7512 H   0  0  0  0  0  0  0  0  0  0  0  0
    7.0663   -2.1916    5.0075 H   0  0  0  0  0  0  0  0  0  0  0  0
    6.0380   -0.3686    3.6995 H   0  0  0  0  0  0  0  0  0  0  0  0
    6.2731    0.5777    0.6404 H   0  0  0  0  0  0  0  0  0  0  0  0
    7.6362    1.8365   -0.8646 H   0  0  0  0  0  0  0  0  0  0  0  0
    7.8059    3.7983   -2.3760 H   0  0  0  0  0  0  0  0  0  0  0  0
    3.9196    4.9617   -1.5609 H   0  0  0  0  0  0  0  0  0  0  0  0
    3.5524    3.0329   -0.0457 H   0  0  0  0  0  0  0  0  0  0  0  0
  1  2  1  0
  1 22  1  0
  1 23  1  0
  1 24  1  0
  2  3  1  0
  3  4  2  0
  3 12  1  0
  4  5  1  0
  4 25  1  0
  5  6  2  0
  5 26  1  0
  6  7  1  0
  6 11  1  0
  7  8  2  0
  7 27  1  0
  8  9  1  0
  8 28  1  0
  9 10  2  0
  9 29  1  0
 10 11  1  0
 10 30  1  0
 11 12  2  0
 12 13  1  0
 13 14  1  1
 13 15  1  0
 15 16  1  0
 15 31  1  0
 16 17  2  0
 16 21  1  0
 17 18  1  0
 17 32  1  0
 18 19  2  0
 18 33  1  0
 19 20  1  0
 20 21  2  0
 20 34  1  0
 21 35  1  0
M  CHG  2  13   1  14  -1
M  END

