
     RDKit          3D

 58 60  0  0  0  0  0  0  0  0999 V2000
    8.0054   -1.9396    6.9709 C   0  0  0  0  0  0  0  0  0  0  0  0
    7.1119   -0.7534    7.3324 C   0  0  0  0  0  0  0  0  0  0  0  0
    5.8348   -0.7094    6.5070 C   0  0  0  0  0  0  0  0  0  0  0  0
    5.0764    0.4147    6.9200 O   0  0  0  0  0  0  0  0  0  0  0  0
    3.8700    0.6694    6.3558 C   0  0  0  0  0  0  0  0  0  0  0  0
    3.1721    1.7800    6.8629 C   0  0  0  0  0  0  0  0  0  0  0  0
    1.9313    2.1224    6.3342 C   0  0  0  0  0  0  0  0  0  0  0  0
    1.3641    1.3705    5.3013 C   0  0  0  0  0  0  0  0  0  0  0  0
    2.0430    0.2552    4.7962 C   0  0  0  0  0  0  0  0  0  0  0  0
    1.3498   -0.4952    3.6804 C   0  0  0  0  0  0  0  0  0  0  0  0
    0.3945   -0.0331    3.1031 O   0  0  0  0  0  0  0  0  0  0  0  0
    1.9059   -1.7461    3.3829 N   0  0  0  0  0  0  0  0  0  0  0  0
    1.4350   -2.7354    2.5222 C   0  0  0  0  0  0  0  0  0  0  0  0
   -0.1152   -2.8719    1.9639 S   0  0  0  0  0  0  0  0  0  0  0  0
    2.3726   -3.6982    2.2139 N   0  0  0  0  0  0  0  0  0  0  0  0
    3.7595   -3.7400    2.3841 C   0  0  0  0  0  0  0  0  0  0  0  0
    4.5695   -2.5869    2.3160 C   0  0  0  0  0  0  0  0  0  0  0  0
    5.9553   -2.6751    2.4490 C   0  0  0  0  0  0  0  0  0  0  0  0
    6.5756   -3.9131    2.6366 C   0  0  0  0  0  0  0  0  0  0  0  0
    5.7867   -5.0627    2.6896 C   0  0  0  0  0  0  0  0  0  0  0  0
    4.3897   -5.0038    2.5787 C   0  0  0  0  0  0  0  0  0  0  0  0
    3.5610   -6.2578    2.6124 C   0  0  0  0  0  0  0  0  0  0  0  0
    2.5393   -6.3736    1.9380 O   0  0  0  0  0  0  0  0  0  0  0  0
    4.0252   -7.2654    3.4090 N   0  0  0  0  0  0  0  0  0  0  0  0
    3.1964   -8.4236    3.6786 C   0  0  0  0  0  0  0  0  0  0  0  0
    2.2997   -8.2411    4.9274 C   0  0  2  0  0  0  0  0  0  0  0  0
    2.9230   -8.3738    5.8315 H   0  0  0  0  0  0  0  0  0  0  0  0
    1.0917   -9.1913    4.9206 C   0  0  0  0  0  0  0  0  0  0  0  0
    0.0375   -8.3543    4.1791 C   0  0  0  0  0  0  0  0  0  0  0  0
    0.3603   -6.9349    4.6567 C   0  0  0  0  0  0  0  0  0  0  0  0
    1.7567   -6.9299    4.9720 O   0  0  0  0  0  0  0  0  0  0  0  0
    3.3040   -0.0905    5.3216 C   0  0  0  0  0  0  0  0  0  0  0  0
    8.9224   -1.9428    7.5798 H   0  0  0  0  0  0  0  0  0  0  0  0
    8.3113   -1.9100    5.9118 H   0  0  0  0  0  0  0  0  0  0  0  0
    7.4920   -2.9008    7.1404 H   0  0  0  0  0  0  0  0  0  0  0  0
    7.6534    0.1963    7.1860 H   0  0  0  0  0  0  0  0  0  0  0  0
    6.8345   -0.7910    8.3993 H   0  0  0  0  0  0  0  0  0  0  0  0
    5.2483   -1.6381    6.6497 H   0  0  0  0  0  0  0  0  0  0  0  0
    6.0743   -0.6353    5.4282 H   0  0  0  0  0  0  0  0  0  0  0  0
    3.6317    2.3553    7.6691 H   0  0  0  0  0  0  0  0  0  0  0  0
    1.3970    2.9884    6.7330 H   0  0  0  0  0  0  0  0  0  0  0  0
    0.3958    1.6278    4.8709 H   0  0  0  0  0  0  0  0  0  0  0  0
    2.7196   -2.0065    3.9284 H   0  0  0  0  0  0  0  0  0  0  0  0
    1.9777   -4.5706    1.8483 H   0  0  0  0  0  0  0  0  0  0  0  0
    4.1104   -1.6199    2.1112 H   0  0  0  0  0  0  0  0  0  0  0  0
    6.5559   -1.7650    2.3716 H   0  0  0  0  0  0  0  0  0  0  0  0
    7.6622   -3.9862    2.7159 H   0  0  0  0  0  0  0  0  0  0  0  0
    6.2675   -6.0384    2.7947 H   0  0  0  0  0  0  0  0  0  0  0  0
    4.7298   -7.0214    4.0953 H   0  0  0  0  0  0  0  0  0  0  0  0
    3.8336   -9.3139    3.8117 H   0  0  0  0  0  0  0  0  0  0  0  0
    2.5757   -8.5788    2.7863 H   0  0  0  0  0  0  0  0  0  0  0  0
    0.7681   -9.3973    5.9536 H   0  0  0  0  0  0  0  0  0  0  0  0
    1.3064  -10.1574    4.4376 H   0  0  0  0  0  0  0  0  0  0  0  0
   -0.9949   -8.6573    4.4081 H   0  0  0  0  0  0  0  0  0  0  0  0
    0.1757   -8.4300    3.0892 H   0  0  0  0  0  0  0  0  0  0  0  0
   -0.2133   -6.6739    5.5661 H   0  0  0  0  0  0  0  0  0  0  0  0
    0.1597   -6.1676    3.8925 H   0  0  0  0  0  0  0  0  0  0  0  0
    3.8707   -0.9299    4.9194 H   0  0  0  0  0  0  0  0  0  0  0  0
  1  2  1  0
  1 33  1  0
  1 34  1  0
  1 35  1  0
  2  3  1  0
  2 36  1  0
  2 37  1  0
  3  4  1  0
  3 38  1  0
  3 39  1  0
  4  5  1  0
  5  6  2  0
  5 32  1  0
  6  7  1  0
  6 40  1  0
  7  8  2  0
  7 41  1  0
  8  9  1  0
  8 42  1  0
  9 10  1  0
  9 32  2  0
 10 11  2  0
 10 12  1  0
 12 13  1  0
 12 43  1  0
 13 14  2  0
 13 15  1  0
 15 16  1  0
 15 44  1  0
 16 17  2  0
 16 21  1  0
 17 18  1  0
 17 45  1  0
 18 19  2  0
 18 46  1  0
 19 20  1  0
 19 47  1  0
 20 21  2  0
 20 48  1  0
 21 22  1  0
 22 23  2  0
 22 24  1  0
 24 25  1  0
 24 49  1  0
 25 26  1  0
 25 50  1  0
 25 51  1  0
 26 27  1  1
 26 28  1  0
 26 31  1  0
 28 29  1  0
 28 52  1  0
 28 53  1  0
 29 30  1  0
 29 54  1  0
 29 55  1  0
 30 31  1  0
 30 56  1  0
 30 57  1  0
 32 58  1  0
M  END

