
     RDKit          3D

 55 59  0  0  0  0  0  0  0  0999 V2000
    1.3458    0.1885    0.9043 C   0  0  0  0  0  0  0  0  0  0  0  0
    2.7617   -0.0542    0.4592 C   0  0  0  0  0  0  0  0  0  0  0  0
    3.5820    1.0066    0.6388 N   0  0  0  0  0  0  0  0  0  0  0  0
    4.8484    0.9410    0.2849 C   0  0  0  0  0  0  0  0  0  0  0  0
    5.7307    2.0741    0.4750 C   0  0  0  0  0  0  0  0  0  0  0  0
    5.2427    3.2354    0.9708 O   0  0  0  0  0  0  0  0  0  0  0  0
    4.7216    3.2660    2.3055 C   0  0  0  0  0  0  0  0  0  0  0  0
    3.7509    4.4116    2.4328 C   0  0  0  0  0  0  0  0  0  0  0  0
    2.7810    4.6233    1.4397 C   0  0  0  0  0  0  0  0  0  0  0  0
    1.8530    5.6532    1.5640 C   0  0  0  0  0  0  0  0  0  0  0  0
    1.8765    6.4924    2.6955 C   0  0  0  0  0  0  0  0  0  0  0  0
    0.9200    7.5560    2.8289 C   0  0  0  0  0  0  0  0  0  0  0  0
    0.1467    8.4156    2.9378 N   0  0  0  0  0  0  0  0  0  0  0  0
    2.8456    6.2834    3.6930 C   0  0  0  0  0  0  0  0  0  0  0  0
    3.7748    5.2531    3.5530 C   0  0  0  0  0  0  0  0  0  0  0  0
    7.0399    2.0073    0.0610 C   0  0  0  0  0  0  0  0  0  0  0  0
    7.5362    0.8211   -0.5435 C   0  0  0  0  0  0  0  0  0  0  0  0
    6.7109   -0.2526   -0.7030 C   0  0  0  0  0  0  0  0  0  0  0  0
    5.3947   -0.1948   -0.2951 N   0  0  0  0  0  0  0  0  0  0  0  0
    4.5834   -1.3858   -0.5202 C   0  0  0  0  0  0  0  0  0  0  0  0
    5.1335   -2.3454   -1.0377 O   0  0  0  0  0  0  0  0  0  0  0  0
    3.2043   -1.2691   -0.0952 C   0  0  0  0  0  0  0  0  0  0  0  0
    2.3458   -2.4527   -0.2868 C   0  0  0  0  0  0  0  0  0  0  0  0
    2.6355   -3.6486   -1.0150 C   0  0  0  0  0  0  0  0  0  0  0  0
    1.5112   -4.4405   -0.9009 C   0  0  0  0  0  0  0  0  0  0  0  0
    1.2366   -5.8170   -1.4130 C   0  0  0  0  0  0  0  0  0  0  0  0
    0.6208   -3.7168   -0.1412 N   0  0  0  0  0  0  0  0  0  0  0  0
   -0.6612   -4.1117    0.3306 C   0  0  0  0  0  0  0  0  0  0  0  0
   -0.8402   -4.3428    1.7016 C   0  0  0  0  0  0  0  0  0  0  0  0
   -2.0841   -4.7192    2.2067 C   0  0  0  0  0  0  0  0  0  0  0  0
   -3.1684   -4.8737    1.3373 C   0  0  0  0  0  0  0  0  0  0  0  0
   -3.0110   -4.6369   -0.0289 C   0  0  0  0  0  0  0  0  0  0  0  0
   -1.7646   -4.2474   -0.5308 C   0  0  0  0  0  0  0  0  0  0  0  0
   -1.6178   -3.8909   -2.2337 Cl  0  0  0  0  0  0  0  0  0  0  0  0
    1.1182   -2.5249    0.2431 N   0  0  0  0  0  0  0  0  0  0  0  0
    1.2386    1.2439    1.1855 H   0  0  0  0  0  0  0  0  0  0  0  0
    1.0851   -0.4545    1.7579 H   0  0  0  0  0  0  0  0  0  0  0  0
    0.6255   -0.0775    0.1179 H   0  0  0  0  0  0  0  0  0  0  0  0
    5.5585    3.3848    3.0165 H   0  0  0  0  0  0  0  0  0  0  0  0
    4.2030    2.3188    2.5210 H   0  0  0  0  0  0  0  0  0  0  0  0
    2.7665    3.9670    0.5680 H   0  0  0  0  0  0  0  0  0  0  0  0
    1.1011    5.8155    0.7892 H   0  0  0  0  0  0  0  0  0  0  0  0
    2.8706    6.9359    4.5678 H   0  0  0  0  0  0  0  0  0  0  0  0
    4.5325    5.1055    4.3274 H   0  0  0  0  0  0  0  0  0  0  0  0
    7.6758    2.8837    0.1990 H   0  0  0  0  0  0  0  0  0  0  0  0
    8.5727    0.7564   -0.8769 H   0  0  0  0  0  0  0  0  0  0  0  0
    6.9911   -1.2063   -1.1469 H   0  0  0  0  0  0  0  0  0  0  0  0
    3.5568   -3.8879   -1.5319 H   0  0  0  0  0  0  0  0  0  0  0  0
    2.1498   -6.2312   -1.8615 H   0  0  0  0  0  0  0  0  0  0  0  0
    0.4463   -5.8182   -2.1805 H   0  0  0  0  0  0  0  0  0  0  0  0
    0.9149   -6.4952   -0.6054 H   0  0  0  0  0  0  0  0  0  0  0  0
    0.0209   -4.2146    2.3598 H   0  0  0  0  0  0  0  0  0  0  0  0
   -2.2058   -4.8960    3.2777 H   0  0  0  0  0  0  0  0  0  0  0  0
   -4.1462   -5.1731    1.7220 H   0  0  0  0  0  0  0  0  0  0  0  0
   -3.8515   -4.7363   -0.7174 H   0  0  0  0  0  0  0  0  0  0  0  0
  1  2  1  0
  1 36  1  0
  1 37  1  0
  1 38  1  0
  2  3  1  0
  2 22  2  0
  3  4  2  0
  4  5  1  0
  4 19  1  0
  5  6  1  0
  5 16  2  0
  6  7  1  0
  7  8  1  0
  7 39  1  0
  7 40  1  0
  8  9  2  0
  8 15  1  0
  9 10  1  0
  9 41  1  0
 10 11  2  0
 10 42  1  0
 11 12  1  0
 11 14  1  0
 12 13  3  0
 14 15  2  0
 14 43  1  0
 15 44  1  0
 16 17  1  0
 16 45  1  0
 17 18  2  0
 17 46  1  0
 18 19  1  0
 18 47  1  0
 19 20  1  0
 20 21  2  0
 20 22  1  0
 22 23  1  0
 23 24  1  0
 23 35  2  0
 24 25  2  0
 24 48  1  0
 25 26  1  0
 25 27  1  0
 26 49  1  0
 26 50  1  0
 26 51  1  0
 27 28  1  0
 27 35  1  0
 28 29  2  0
 28 33  1  0
 29 30  1  0
 29 52  1  0
 30 31  2  0
 30 53  1  0
 31 32  1  0
 31 54  1  0
 32 33  2  0
 32 55  1  0
 33 34  1  0
M  END

