
     RDKit          3D

 40 45  0  0  0  0  0  0  0  0999 V2000
   -1.7793   -1.8073    1.5938 C   0  0  0  0  0  0  0  0  0  0  0  0
   -1.6840   -0.8162    2.5794 C   0  0  0  0  0  0  0  0  0  0  0  0
   -0.8421    0.2897    2.3985 C   0  0  0  0  0  0  0  0  0  0  0  0
   -0.1023    0.3871    1.2238 C   0  0  0  0  0  0  0  0  0  0  0  0
   -0.1969   -0.6074    0.2287 C   0  0  0  0  0  0  0  0  0  0  0  0
   -1.0373   -1.7102    0.4117 C   0  0  0  0  0  0  0  0  0  0  0  0
    0.6829   -0.2383   -0.8899 C   0  0  0  0  0  0  0  0  0  0  0  0
    0.9428   -0.8799   -2.1053 C   0  0  0  0  0  0  0  0  0  0  0  0
    1.8378   -0.2903   -3.0043 C   0  0  0  0  0  0  0  0  0  0  0  0
    2.4643    0.9241   -2.6945 C   0  0  0  0  0  0  0  0  0  0  0  0
    2.2060    1.5686   -1.4771 C   0  0  0  0  0  0  0  0  0  0  0  0
    1.3170    0.9825   -0.5809 C   0  0  0  0  0  0  0  0  0  0  0  0
    0.8816    1.4815    0.7999 C   0  0  1  0  0  0  0  0  0  0  0  0
    0.2971    2.8952    0.8071 C   0  0  0  0  0  0  0  0  0  0  0  0
   -0.8008    3.3844    0.1040 C   0  0  0  0  0  0  0  0  0  0  0  0
   -1.1646    4.7282    0.2614 C   0  0  0  0  0  0  0  0  0  0  0  0
   -0.4369    5.5708    1.1130 C   0  0  0  0  0  0  0  0  0  0  0  0
    0.6665    5.0847    1.8213 C   0  0  0  0  0  0  0  0  0  0  0  0
    1.0317    3.7429    1.6656 C   0  0  0  0  0  0  0  0  0  0  0  0
    2.1218    2.9650    2.2664 C   0  0  0  0  0  0  0  0  0  0  0  0
    3.1362    3.2839    3.1712 C   0  0  0  0  0  0  0  0  0  0  0  0
    4.0228    2.2636    3.5318 C   0  0  0  0  0  0  0  0  0  0  0  0
    3.8598    0.9857    2.9804 C   0  0  0  0  0  0  0  0  0  0  0  0
    2.8893    0.6709    2.1119 N   0  0  0  0  0  0  0  0  0  0  0  0
    2.0553    1.6417    1.7761 C   0  0  0  0  0  0  0  0  0  0  0  0
   -2.4396   -2.6643    1.7499 H   0  0  0  0  0  0  0  0  0  0  0  0
   -2.2706   -0.9058    3.4973 H   0  0  0  0  0  0  0  0  0  0  0  0
   -0.7709    1.0610    3.1698 H   0  0  0  0  0  0  0  0  0  0  0  0
   -1.1155   -2.4864   -0.3539 H   0  0  0  0  0  0  0  0  0  0  0  0
    0.4567   -1.8273   -2.3520 H   0  0  0  0  0  0  0  0  0  0  0  0
    2.0503   -0.7812   -3.9575 H   0  0  0  0  0  0  0  0  0  0  0  0
    3.1606    1.3725   -3.4078 H   0  0  0  0  0  0  0  0  0  0  0  0
    2.6965    2.5161   -1.2392 H   0  0  0  0  0  0  0  0  0  0  0  0
   -1.3705    2.7306   -0.5610 H   0  0  0  0  0  0  0  0  0  0  0  0
   -2.0245    5.1233   -0.2853 H   0  0  0  0  0  0  0  0  0  0  0  0
   -0.7345    6.6165    1.2242 H   0  0  0  0  0  0  0  0  0  0  0  0
    1.2316    5.7449    2.4843 H   0  0  0  0  0  0  0  0  0  0  0  0
    3.2387    4.2905    3.5853 H   0  0  0  0  0  0  0  0  0  0  0  0
    4.8367    2.4520    4.2355 H   0  0  0  0  0  0  0  0  0  0  0  0
    4.5485    0.1787    3.2556 H   0  0  0  0  0  0  0  0  0  0  0  0
  1  2  2  0
  1  6  1  0
  1 26  1  0
  2  3  1  0
  2 27  1  0
  3  4  2  0
  3 28  1  0
  4  5  1  0
 13  4  1  1
  5  6  2  0
  5  7  1  0
  6 29  1  0
  7  8  2  0
  7 12  1  0
  8  9  1  0
  8 30  1  0
  9 10  2  0
  9 31  1  0
 10 11  1  0
 10 32  1  0
 11 12  2  0
 11 33  1  0
 12 13  1  0
 13 14  1  0
 13 25  1  0
 14 15  2  0
 14 19  1  0
 15 16  1  0
 15 34  1  0
 16 17  2  0
 16 35  1  0
 17 18  1  0
 17 36  1  0
 18 19  2  0
 18 37  1  0
 19 20  1  0
 20 21  2  0
 20 25  1  0
 21 22  1  0
 21 38  1  0
 22 23  2  0
 22 39  1  0
 23 24  1  0
 23 40  1  0
 24 25  2  0
M  END

