
     RDKit          3D

 36 38  0  0  0  0  0  0  0  0999 V2000
    1.1884   -0.4046    0.6528 C   0  0  0  0  0  0  0  0  0  0  0  0
    2.5487   -0.0683    0.0113 C   0  0  1  0  0  0  0  0  0  0  0  0
    3.0999    1.2408    0.6070 C   0  0  0  0  0  0  0  0  0  0  0  0
    3.8768    1.2021    1.5439 O   0  0  0  0  0  0  0  0  0  0  0  0
    2.6574    2.4500    0.0743 N   0  0  0  0  0  0  0  0  0  0  0  0
    1.7964    2.5649   -1.1006 C   0  0  0  0  0  0  0  0  0  0  0  0
    2.5942    2.9385   -2.3443 C   0  0  0  0  0  0  0  0  0  0  0  0
    3.4470    4.5481   -2.1329 S   0  0  0  0  0  0  0  0  0  0  0  0
    3.5216    4.7080   -0.3600 C   0  0  0  0  0  0  0  0  0  0  0  0
    3.9800    5.9468    0.1225 C   0  0  0  0  0  0  0  0  0  0  0  0
    4.1074    6.1778    1.4892 C   0  0  0  0  0  0  0  0  0  0  0  0
    3.7575    5.1741    2.3989 C   0  0  0  0  0  0  0  0  0  0  0  0
    3.2847    3.9487    1.9353 C   0  0  0  0  0  0  0  0  0  0  0  0
    3.1702    3.6940    0.5582 C   0  0  0  0  0  0  0  0  0  0  0  0
    3.5566   -1.1920    0.2401 C   0  0  1  0  0  0  0  0  0  0  0  0
    3.3359   -2.5491   -0.4784 C   0  0  0  0  0  0  0  0  0  0  0  0
    4.7825   -2.6038   -0.7447 N   0  0  0  0  0  0  0  0  0  0  0  0
    4.9179   -1.1571   -0.4973 C   0  0  0  0  0  0  0  0  0  0  0  0
    0.4326    0.3748    0.4678 H   0  0  0  0  0  0  0  0  0  0  0  0
    1.2990   -0.5100    1.7434 H   0  0  0  0  0  0  0  0  0  0  0  0
    0.7966   -1.3546    0.2566 H   0  0  0  0  0  0  0  0  0  0  0  0
    2.4118    0.0360   -1.0774 H   0  0  0  0  0  0  0  0  0  0  0  0
    1.0318    3.3334   -0.9007 H   0  0  0  0  0  0  0  0  0  0  0  0
    1.2634    1.6240   -1.2728 H   0  0  0  0  0  0  0  0  0  0  0  0
    1.9317    3.0491   -3.2167 H   0  0  0  0  0  0  0  0  0  0  0  0
    3.3360    2.1566   -2.5707 H   0  0  0  0  0  0  0  0  0  0  0  0
    4.2415    6.7307   -0.5933 H   0  0  0  0  0  0  0  0  0  0  0  0
    4.4736    7.1446    1.8432 H   0  0  0  0  0  0  0  0  0  0  0  0
    3.8470    5.3461    3.4739 H   0  0  0  0  0  0  0  0  0  0  0  0
    3.0143    3.1637    2.6388 H   0  0  0  0  0  0  0  0  0  0  0  0
    3.7125   -1.3294    1.3189 H   0  0  0  0  0  0  0  0  0  0  0  0
    2.7005   -2.4370   -1.3831 H   0  0  0  0  0  0  0  0  0  0  0  0
    2.9367   -3.3886    0.1176 H   0  0  0  0  0  0  0  0  0  0  0  0
    5.0654   -2.9409   -1.6632 H   0  0  0  0  0  0  0  0  0  0  0  0
    4.8753   -0.5252   -1.4103 H   0  0  0  0  0  0  0  0  0  0  0  0
    5.8017   -0.8564    0.0885 H   0  0  0  0  0  0  0  0  0  0  0  0
  1  2  1  0
  1 19  1  0
  1 20  1  0
  1 21  1  0
  2  3  1  0
  2 15  1  0
  2 22  1  6
  3  4  2  0
  3  5  1  0
  5  6  1  0
  5 14  1  0
  6  7  1  0
  6 23  1  0
  6 24  1  0
  7  8  1  0
  7 25  1  0
  7 26  1  0
  8  9  1  0
  9 10  2  0
  9 14  1  0
 10 11  1  0
 10 27  1  0
 11 12  2  0
 11 28  1  0
 12 13  1  0
 12 29  1  0
 13 14  2  0
 13 30  1  0
 15 16  1  0
 15 18  1  0
 15 31  1  1
 16 17  1  0
 16 32  1  0
 16 33  1  0
 17 18  1  0
 17 34  1  0
 18 35  1  0
 18 36  1  0
M  END

