
     RDKit          3D

 31 31  0  0  0  0  0  0  0  0999 V2000
    3.1052    0.0998   -1.1786 N   0  0  0  0  0  0  0  0  0  0  0  0
    4.1120   -0.7881   -0.9967 C   0  0  0  0  0  0  0  0  0  0  0  0
    4.1857   -1.8782   -1.5302 O   0  0  0  0  0  0  0  0  0  0  0  0
    5.2180   -0.3391   -0.0393 C   0  0  0  0  0  0  0  0  0  0  0  0
    4.9483    0.9440    0.4905 O   0  0  0  0  0  0  0  0  0  0  0  0
    5.8242    1.5175    1.3616 C   0  0  0  0  0  0  0  0  0  0  0  0
    5.4806    2.7944    1.8394 C   0  0  0  0  0  0  0  0  0  0  0  0
    6.3190    3.4691    2.7178 C   0  0  0  0  0  0  0  0  0  0  0  0
    7.5111    2.8674    3.1564 C   0  0  0  0  0  0  0  0  0  0  0  0
    8.3897    3.5739    4.0322 N   0  0  0  0  0  0  0  0  0  0  0  0
    7.9571    3.8973    5.6213 S   0  0  1  0  0  0  0  0  0  0  0  0
    9.0733    4.6263    6.2158 O   0  0  0  0  0  0  0  0  0  0  0  0
    6.5881    4.4009    5.6353 O   0  0  0  0  0  0  0  0  0  0  0  0
    7.9122    2.2645    6.4717 C   0  0  0  0  0  0  0  0  0  0  0  0
    9.3039    1.6517    6.4929 C   0  0  0  0  0  0  0  0  0  0  0  0
    9.8707    1.3206    5.4832 O   0  0  0  0  0  0  0  0  0  0  0  0
    9.8872    1.5047    7.6898 O   0  0  0  0  0  0  0  0  0  0  0  0
    7.8432    1.5873    2.6979 C   0  0  0  0  0  0  0  0  0  0  0  0
    7.0152    0.9162    1.7912 C   0  0  0  0  0  0  0  0  0  0  0  0
    2.3479   -0.1455   -1.8045 H   0  0  0  0  0  0  0  0  0  0  0  0
    3.1112    0.9910   -0.6999 H   0  0  0  0  0  0  0  0  0  0  0  0
    6.1679   -0.3529   -0.6034 H   0  0  0  0  0  0  0  0  0  0  0  0
    5.2920   -1.0999    0.7582 H   0  0  0  0  0  0  0  0  0  0  0  0
    4.5510    3.2509    1.4937 H   0  0  0  0  0  0  0  0  0  0  0  0
    6.0603    4.4648    3.0782 H   0  0  0  0  0  0  0  0  0  0  0  0
    9.3617    3.2656    4.0069 H   0  0  0  0  0  0  0  0  0  0  0  0
    7.2253    1.6248    5.8994 H   0  0  0  0  0  0  0  0  0  0  0  0
    7.4765    2.4783    7.4582 H   0  0  0  0  0  0  0  0  0  0  0  0
    9.3428    1.8789    8.3970 H   0  0  0  0  0  0  0  0  0  0  0  0
    8.7569    1.1086    3.0577 H   0  0  0  0  0  0  0  0  0  0  0  0
    7.3074   -0.0735    1.4405 H   0  0  0  0  0  0  0  0  0  0  0  0
  1  2  1  0
  1 20  1  0
  1 21  1  0
  2  3  2  0
  2  4  1  0
  4  5  1  0
  4 22  1  0
  4 23  1  0
  5  6  1  0
  6  7  2  0
  6 19  1  0
  7  8  1  0
  7 24  1  0
  8  9  2  0
  8 25  1  0
  9 10  1  0
  9 18  1  0
 11 10  1  6
 10 26  1  0
 11 12  2  0
 11 13  2  0
 11 14  1  0
 14 15  1  0
 14 27  1  0
 14 28  1  0
 15 16  2  0
 15 17  1  0
 17 29  1  0
 18 19  2  0
 18 30  1  0
 19 31  1  0
M  END

