
     RDKit          3D

 92102  0  0  0  0  0  0  0  0999 V2000
    2.4809   -0.6461   -1.4118 C   0  0  0  0  0  0  0  0  0  0  0  0
    2.7990    0.4907   -0.4045 C   0  0  1  0  0  0  0  0  0  0  0  0
    2.0653    1.7866   -0.8418 C   0  0  0  0  0  0  0  0  0  0  0  0
    2.3004    0.0805    0.9885 C   0  0  0  0  0  0  0  0  0  0  0  0
    0.9414   -0.2177    1.1728 C   0  0  0  0  0  0  0  0  0  0  0  0
    0.4114   -0.5932    2.4067 C   0  0  0  0  0  0  0  0  0  0  0  0
    1.2664   -0.6768    3.5067 C   0  0  0  0  0  0  0  0  0  0  0  0
    2.6198   -0.3872    3.3614 C   0  0  0  0  0  0  0  0  0  0  0  0
    3.1554   -0.0061    2.1110 C   0  0  0  0  0  0  0  0  0  0  0  0
    4.5270    0.2833    1.9947 N   0  0  0  0  0  0  0  0  0  0  0  0
    5.3647    0.1721    3.1524 C   0  0  0  0  0  0  0  0  0  0  0  0
    5.9887   -1.0506    3.4595 C   0  0  0  0  0  0  0  0  0  0  0  0
    6.7974   -1.1446    4.5813 C   0  0  0  0  0  0  0  0  0  0  0  0
    7.0049   -0.0323    5.4217 C   0  0  0  0  0  0  0  0  0  0  0  0
    6.3802    1.2075    5.1237 C   0  0  0  0  0  0  0  0  0  0  0  0
    5.5625    1.2763    3.9756 C   0  0  0  0  0  0  0  0  0  0  0  0
    6.5947    2.3722    6.0017 C   0  0  0  0  0  0  0  0  0  0  0  0
    5.9936    3.6230    5.7458 C   0  0  0  0  0  0  0  0  0  0  0  0
    6.2012    4.7175    6.5797 C   0  0  0  0  0  0  0  0  0  0  0  0
    5.5722    5.9713    6.2850 N   0  0  0  0  0  0  0  0  0  0  0  0
    4.3078    6.2494    6.8351 C   0  0  0  0  0  0  0  0  0  0  0  0
    3.6702    5.2915    7.6544 C   0  0  0  0  0  0  0  0  0  0  0  0
    2.4182    5.5382    8.2097 C   0  0  0  0  0  0  0  0  0  0  0  0
    1.7692    6.7486    7.9611 C   0  0  0  0  0  0  0  0  0  0  0  0
    2.3999    7.6937    7.1527 C   0  0  0  0  0  0  0  0  0  0  0  0
    3.6619    7.4802    6.5770 C   0  0  0  0  0  0  0  0  0  0  0  0
    4.2812    8.5731    5.6943 C   0  0  1  0  0  0  0  0  0  0  0  0
    3.3495    8.8286    4.4794 C   0  0  0  0  0  0  0  0  0  0  0  0
    4.4163    9.8781    6.5230 C   0  0  0  0  0  0  0  0  0  0  0  0
    5.6677    8.1586    5.1815 C   0  0  0  0  0  0  0  0  0  0  0  0
    6.3958    9.0452    4.3730 C   0  0  0  0  0  0  0  0  0  0  0  0
    7.6580    8.7403    3.8648 C   0  0  0  0  0  0  0  0  0  0  0  0
    8.2236    7.5017    4.1714 C   0  0  0  0  0  0  0  0  0  0  0  0
    7.5300    6.5970    4.9696 C   0  0  0  0  0  0  0  0  0  0  0  0
    6.2510    6.9066    5.4832 C   0  0  0  0  0  0  0  0  0  0  0  0
    7.0284    4.5892    7.7101 C   0  0  0  0  0  0  0  0  0  0  0  0
    7.6306    3.3711    7.9840 C   0  0  0  0  0  0  0  0  0  0  0  0
    7.4272    2.2563    7.1461 C   0  0  0  0  0  0  0  0  0  0  0  0
    8.0771    0.9793    7.4598 C   0  0  0  0  0  0  0  0  0  0  0  0
    8.8509    0.8923    8.5314 N   0  0  0  0  0  0  0  0  0  0  0  0
    9.4410   -0.2884    8.8057 C   0  0  0  0  0  0  0  0  0  0  0  0
   10.2811   -0.4235    9.9487 C   0  0  0  0  0  0  0  0  0  0  0  0
   10.8811   -1.6318   10.2238 C   0  0  0  0  0  0  0  0  0  0  0  0
   10.6728   -2.7572    9.3763 C   0  0  0  0  0  0  0  0  0  0  0  0
    9.8672   -2.6607    8.2640 C   0  0  0  0  0  0  0  0  0  0  0  0
    9.2308   -1.4253    7.9496 C   0  0  0  0  0  0  0  0  0  0  0  0
    8.4410   -1.3249    6.8615 N   0  0  0  0  0  0  0  0  0  0  0  0
    7.8667   -0.1598    6.6017 C   0  0  0  0  0  0  0  0  0  0  0  0
    5.1042    0.6429    0.7635 C   0  0  0  0  0  0  0  0  0  0  0  0
    6.4906    0.9026    0.6849 C   0  0  0  0  0  0  0  0  0  0  0  0
    7.0884    1.2628   -0.5191 C   0  0  0  0  0  0  0  0  0  0  0  0
    6.3172    1.3739   -1.6770 C   0  0  0  0  0  0  0  0  0  0  0  0
    4.9489    1.1169   -1.5984 C   0  0  0  0  0  0  0  0  0  0  0  0
    4.3121    0.7502   -0.4026 C   0  0  0  0  0  0  0  0  0  0  0  0
    1.4002   -0.8491   -1.4558 H   0  0  0  0  0  0  0  0  0  0  0  0
    2.9904   -1.5777   -1.1223 H   0  0  0  0  0  0  0  0  0  0  0  0
    2.8086   -0.3811   -2.4285 H   0  0  0  0  0  0  0  0  0  0  0  0
    0.9752    1.6361   -0.8707 H   0  0  0  0  0  0  0  0  0  0  0  0
    2.3844    2.1047   -1.8461 H   0  0  0  0  0  0  0  0  0  0  0  0
    2.2761    2.6094   -0.1419 H   0  0  0  0  0  0  0  0  0  0  0  0
    0.2684   -0.1525    0.3150 H   0  0  0  0  0  0  0  0  0  0  0  0
   -0.6533   -0.8160    2.5050 H   0  0  0  0  0  0  0  0  0  0  0  0
    0.8836   -0.9684    4.4881 H   0  0  0  0  0  0  0  0  0  0  0  0
    3.2736   -0.4566    4.2295 H   0  0  0  0  0  0  0  0  0  0  0  0
    5.8282   -1.9125    2.8088 H   0  0  0  0  0  0  0  0  0  0  0  0
    7.2935   -2.0799    4.8424 H   0  0  0  0  0  0  0  0  0  0  0  0
    5.0610    2.2037    3.7018 H   0  0  0  0  0  0  0  0  0  0  0  0
    5.3460    3.7652    4.8816 H   0  0  0  0  0  0  0  0  0  0  0  0
    4.1629    4.3419    7.8574 H   0  0  0  0  0  0  0  0  0  0  0  0
    1.9519    4.7758    8.8391 H   0  0  0  0  0  0  0  0  0  0  0  0
    0.7858    6.9565    8.3885 H   0  0  0  0  0  0  0  0  0  0  0  0
    1.8877    8.6389    6.9598 H   0  0  0  0  0  0  0  0  0  0  0  0
    2.3471    9.1446    4.8065 H   0  0  0  0  0  0  0  0  0  0  0  0
    3.2376    7.9158    3.8749 H   0  0  0  0  0  0  0  0  0  0  0  0
    3.7524    9.6198    3.8287 H   0  0  0  0  0  0  0  0  0  0  0  0
    3.4376   10.2178    6.8942 H   0  0  0  0  0  0  0  0  0  0  0  0
    4.8406   10.6930    5.9173 H   0  0  0  0  0  0  0  0  0  0  0  0
    5.0739    9.7222    7.3917 H   0  0  0  0  0  0  0  0  0  0  0  0
    5.9565   10.0150    4.1294 H   0  0  0  0  0  0  0  0  0  0  0  0
    8.1893    9.4605    3.2387 H   0  0  0  0  0  0  0  0  0  0  0  0
    9.2113    7.2311    3.7895 H   0  0  0  0  0  0  0  0  0  0  0  0
    7.9849    5.6346    5.1994 H   0  0  0  0  0  0  0  0  0  0  0  0
    7.1862    5.4526    8.3595 H   0  0  0  0  0  0  0  0  0  0  0  0
    8.2762    3.2439    8.8535 H   0  0  0  0  0  0  0  0  0  0  0  0
   10.4248    0.4537   10.5826 H   0  0  0  0  0  0  0  0  0  0  0  0
   11.5252   -1.7345   11.1006 H   0  0  0  0  0  0  0  0  0  0  0  0
   11.1606   -3.7052    9.6166 H   0  0  0  0  0  0  0  0  0  0  0  0
    9.6918   -3.5086    7.5989 H   0  0  0  0  0  0  0  0  0  0  0  0
    7.1062    0.8210    1.5795 H   0  0  0  0  0  0  0  0  0  0  0  0
    8.1637    1.4573   -0.5459 H   0  0  0  0  0  0  0  0  0  0  0  0
    6.7714    1.6571   -2.6291 H   0  0  0  0  0  0  0  0  0  0  0  0
    4.3490    1.2063   -2.5067 H   0  0  0  0  0  0  0  0  0  0  0  0
  2  1  1  6
  1 55  1  0
  1 56  1  0
  1 57  1  0
  2  3  1  0
  2  4  1  0
  2 54  1  0
  3 58  1  0
  3 59  1  0
  3 60  1  0
  4  5  1  0
  4  9  2  0
  5  6  2  0
  5 61  1  0
  6  7  1  0
  6 62  1  0
  7  8  2  0
  7 63  1  0
  8  9  1  0
  8 64  1  0
  9 10  1  0
 10 11  1  0
 10 49  1  0
 11 12  2  0
 11 16  1  0
 12 13  1  0
 12 65  1  0
 13 14  2  0
 13 66  1  0
 14 15  1  0
 14 48  1  0
 15 16  2  0
 15 17  1  0
 16 67  1  0
 17 18  2  0
 17 38  1  0
 18 19  1  0
 18 68  1  0
 19 20  1  0
 19 36  2  0
 20 21  1  0
 20 35  1  0
 21 22  2  0
 21 26  1  0
 22 23  1  0
 22 69  1  0
 23 24  2  0
 23 70  1  0
 24 25  1  0
 24 71  1  0
 25 26  2  0
 25 72  1  0
 26 27  1  0
 27 28  1  6
 27 29  1  0
 27 30  1  0
 28 73  1  0
 28 74  1  0
 28 75  1  0
 29 76  1  0
 29 77  1  0
 29 78  1  0
 30 31  2  0
 30 35  1  0
 31 32  1  0
 31 79  1  0
 32 33  2  0
 32 80  1  0
 33 34  1  0
 33 81  1  0
 34 35  2  0
 34 82  1  0
 36 37  1  0
 36 83  1  0
 37 38  2  0
 37 84  1  0
 38 39  1  0
 39 40  1  0
 39 48  2  0
 40 41  2  0
 41 42  1  0
 41 46  1  0
 42 43  2  0
 42 85  1  0
 43 44  1  0
 43 86  1  0
 44 45  2  0
 44 87  1  0
 45 46  1  0
 45 88  1  0
 46 47  2  0
 47 48  1  0
 49 50  1  0
 49 54  2  0
 50 51  2  0
 50 89  1  0
 51 52  1  0
 51 90  1  0
 52 53  2  0
 52 91  1  0
 53 54  1  0
 53 92  1  0
M  END

