
     RDKit          3D

 47 49  0  0  0  0  0  0  0  0999 V2000
    4.5440   -4.4176   -2.1675 C   0  0  0  0  0  0  0  0  0  0  0  0
    3.2203   -4.1716   -1.6163 N   0  0  0  0  0  0  0  0  0  0  0  0
    2.6187   -5.3785   -1.0609 C   0  0  0  0  0  0  0  0  0  0  0  0
    2.3937   -3.2953   -2.3406 C   0  0  0  0  0  0  0  0  0  0  0  0
    2.7358   -3.0439   -3.6089 N   0  0  0  0  0  0  0  0  0  0  0  0
    1.9848   -2.2237   -4.3449 C   0  0  0  0  0  0  0  0  0  0  0  0
    0.8273   -1.6165   -3.8634 C   0  0  0  0  0  0  0  0  0  0  0  0
    0.4946   -1.8314   -2.5218 C   0  0  0  0  0  0  0  0  0  0  0  0
    1.2821   -2.6547   -1.7168 C   0  0  0  0  0  0  0  0  0  0  0  0
    1.0223   -2.7821   -0.2264 C   0  0  0  0  0  0  0  0  0  0  0  0
    0.3385   -1.6406    0.3439 N   0  0  0  0  0  0  0  0  0  0  0  0
   -0.7881   -1.7909    1.1315 C   0  0  0  0  0  0  0  0  0  0  0  0
   -1.3257   -2.8729    1.3173 O   0  0  0  0  0  0  0  0  0  0  0  0
   -1.2544   -0.6169    1.6834 N   0  0  0  0  0  0  0  0  0  0  0  0
   -2.4597   -0.5669    2.4879 C   0  0  0  0  0  0  0  0  0  0  0  0
   -2.2861    0.2113    3.7786 C   0  0  0  0  0  0  0  0  0  0  0  0
   -1.1861   -0.0197    4.6228 C   0  0  0  0  0  0  0  0  0  0  0  0
   -1.0466    0.6835    5.8179 C   0  0  0  0  0  0  0  0  0  0  0  0
   -2.0053    1.6269    6.2029 C   0  0  0  0  0  0  0  0  0  0  0  0
   -3.1211    1.8528    5.3743 C   0  0  0  0  0  0  0  0  0  0  0  0
   -3.2442    1.1525    4.1697 C   0  0  0  0  0  0  0  0  0  0  0  0
   -4.0931    2.7538    5.7132 O   0  0  0  0  0  0  0  0  0  0  0  0
   -4.0715    3.1539    7.0744 C   0  0  0  0  0  0  0  0  0  0  0  0
   -2.6484    3.4610    7.5109 C   0  0  0  0  0  0  0  0  0  0  0  0
   -1.8321    2.3087    7.3761 O   0  0  0  0  0  0  0  0  0  0  0  0
    5.1673   -4.8872   -1.3895 H   0  0  0  0  0  0  0  0  0  0  0  0
    5.0093   -3.4732   -2.4768 H   0  0  0  0  0  0  0  0  0  0  0  0
    4.5253   -5.0832   -3.0523 H   0  0  0  0  0  0  0  0  0  0  0  0
    3.2302   -5.7564   -0.2254 H   0  0  0  0  0  0  0  0  0  0  0  0
    2.5438   -6.1852   -1.8197 H   0  0  0  0  0  0  0  0  0  0  0  0
    1.6088   -5.1899   -0.6802 H   0  0  0  0  0  0  0  0  0  0  0  0
    2.3222   -2.0459   -5.3735 H   0  0  0  0  0  0  0  0  0  0  0  0
    0.2220   -0.9719   -4.5041 H   0  0  0  0  0  0  0  0  0  0  0  0
   -0.3638   -1.3244   -2.0747 H   0  0  0  0  0  0  0  0  0  0  0  0
    1.9910   -2.9617    0.2751 H   0  0  0  0  0  0  0  0  0  0  0  0
    0.3817   -3.6474    0.0078 H   0  0  0  0  0  0  0  0  0  0  0  0
    0.8177   -0.7481    0.3280 H   0  0  0  0  0  0  0  0  0  0  0  0
   -0.8174    0.2627    1.4355 H   0  0  0  0  0  0  0  0  0  0  0  0
   -2.7216   -1.6167    2.6933 H   0  0  0  0  0  0  0  0  0  0  0  0
   -3.3033   -0.1378    1.9160 H   0  0  0  0  0  0  0  0  0  0  0  0
   -0.4291   -0.7524    4.3340 H   0  0  0  0  0  0  0  0  0  0  0  0
   -0.1923    0.5214    6.4789 H   0  0  0  0  0  0  0  0  0  0  0  0
   -4.1193    1.3605    3.5487 H   0  0  0  0  0  0  0  0  0  0  0  0
   -4.4933    2.3535    7.7114 H   0  0  0  0  0  0  0  0  0  0  0  0
   -4.7130    4.0435    7.1583 H   0  0  0  0  0  0  0  0  0  0  0  0
   -2.6135    3.7582    8.5694 H   0  0  0  0  0  0  0  0  0  0  0  0
   -2.2408    4.2883    6.8991 H   0  0  0  0  0  0  0  0  0  0  0  0
  1  2  1  0
  1 26  1  0
  1 27  1  0
  1 28  1  0
  2  3  1  0
  2  4  1  0
  3 29  1  0
  3 30  1  0
  3 31  1  0
  4  5  2  0
  4  9  1  0
  5  6  1  0
  6  7  2  0
  6 32  1  0
  7  8  1  0
  7 33  1  0
  8  9  2  0
  8 34  1  0
  9 10  1  0
 10 11  1  0
 10 35  1  0
 10 36  1  0
 11 12  1  0
 11 37  1  0
 12 13  2  0
 12 14  1  0
 14 15  1  0
 14 38  1  0
 15 16  1  0
 15 39  1  0
 15 40  1  0
 16 17  2  0
 16 21  1  0
 17 18  1  0
 17 41  1  0
 18 19  2  0
 18 42  1  0
 19 20  1  0
 19 25  1  0
 20 21  2  0
 20 22  1  0
 21 43  1  0
 22 23  1  0
 23 24  1  0
 23 44  1  0
 23 45  1  0
 24 25  1  0
 24 46  1  0
 24 47  1  0
M  END

