
     RDKit          3D

 44 44  0  0  0  0  0  0  0  0999 V2000
    3.5494    1.8025   -1.6405 C   0  0  0  0  0  0  0  0  0  0  0  0
    3.8296    0.7052   -0.6140 C   0  0  0  0  0  0  0  0  0  0  0  0
    4.6061    1.2142    0.5912 C   0  0  0  0  0  0  0  0  0  0  0  0
    4.8129    0.1290    1.4785 O   0  0  0  0  0  0  0  0  0  0  0  0
    5.4933    0.3274    2.6371 C   0  0  0  0  0  0  0  0  0  0  0  0
    6.0250    1.5519    3.0575 C   0  0  0  0  0  0  0  0  0  0  0  0
    6.7071    1.6412    4.2756 C   0  0  0  0  0  0  0  0  0  0  0  0
    6.8761    0.5141    5.0882 C   0  0  0  0  0  0  0  0  0  0  0  0
    7.5606    0.5503    6.3294 N   0  0  0  0  0  0  0  0  0  0  0  0
    8.2666    1.5806    6.8976 C   0  0  0  0  0  0  0  0  0  0  0  0
    8.3249    2.7200    6.4260 O   0  0  0  0  0  0  0  0  0  0  0  0
    8.9207    1.2594    8.0619 N   0  0  0  0  0  0  0  0  0  0  0  0
    9.4966    2.2804    8.9245 C   0  0  0  0  0  0  0  0  0  0  0  0
   10.8240    2.9074    8.4339 C   0  0  1  0  0  0  0  0  0  0  0  0
   11.8782    1.8473    8.0986 C   0  0  0  0  0  0  0  0  0  0  0  0
   10.6197    3.7758    7.3281 O   0  0  0  0  0  0  0  0  0  0  0  0
   11.3491    3.7825    9.6045 C   0  0  0  0  0  0  0  0  0  0  0  0
   11.6171    3.3277   10.6882 O   0  0  0  0  0  0  0  0  0  0  0  0
   11.4612    5.0693    9.2891 O   0  0  0  0  0  0  0  0  0  0  0  0
    6.3416   -0.7329    4.6725 C   0  0  0  0  0  0  0  0  0  0  0  0
    6.5014   -1.9737    5.5194 C   0  0  0  0  0  0  0  0  0  0  0  0
    5.6601   -0.7997    3.4580 C   0  0  0  0  0  0  0  0  0  0  0  0
    2.9874    1.4058   -2.4999 H   0  0  0  0  0  0  0  0  0  0  0  0
    4.4830    2.2416   -2.0304 H   0  0  0  0  0  0  0  0  0  0  0  0
    2.9535    2.6224   -1.2059 H   0  0  0  0  0  0  0  0  0  0  0  0
    4.4031   -0.1166   -1.0752 H   0  0  0  0  0  0  0  0  0  0  0  0
    2.8849    0.2615   -0.2567 H   0  0  0  0  0  0  0  0  0  0  0  0
    4.0451    2.0224    1.1001 H   0  0  0  0  0  0  0  0  0  0  0  0
    5.5785    1.6394    0.2745 H   0  0  0  0  0  0  0  0  0  0  0  0
    5.9169    2.4528    2.4537 H   0  0  0  0  0  0  0  0  0  0  0  0
    7.1137    2.5950    4.6024 H   0  0  0  0  0  0  0  0  0  0  0  0
    7.5146   -0.3078    6.8625 H   0  0  0  0  0  0  0  0  0  0  0  0
    8.9443    0.2996    8.3812 H   0  0  0  0  0  0  0  0  0  0  0  0
    9.6843    1.8291    9.9079 H   0  0  0  0  0  0  0  0  0  0  0  0
    8.7658    3.0949    9.0641 H   0  0  0  0  0  0  0  0  0  0  0  0
   11.5021    1.1724    7.3151 H   0  0  0  0  0  0  0  0  0  0  0  0
   12.1420    1.2625    8.9920 H   0  0  0  0  0  0  0  0  0  0  0  0
   12.7860    2.3392    7.7196 H   0  0  0  0  0  0  0  0  0  0  0  0
    9.7713    3.5383    6.8818 H   0  0  0  0  0  0  0  0  0  0  0  0
   11.1484    5.1238    8.3553 H   0  0  0  0  0  0  0  0  0  0  0  0
    7.5638   -2.2220    5.6938 H   0  0  0  0  0  0  0  0  0  0  0  0
    6.0415   -2.8441    5.0321 H   0  0  0  0  0  0  0  0  0  0  0  0
    6.0189   -1.8678    6.5086 H   0  0  0  0  0  0  0  0  0  0  0  0
    5.2391   -1.7476    3.1155 H   0  0  0  0  0  0  0  0  0  0  0  0
  1  2  1  0
  1 23  1  0
  1 24  1  0
  1 25  1  0
  2  3  1  0
  2 26  1  0
  2 27  1  0
  3  4  1  0
  3 28  1  0
  3 29  1  0
  4  5  1  0
  5  6  2  0
  5 22  1  0
  6  7  1  0
  6 30  1  0
  7  8  2  0
  7 31  1  0
  8  9  1  0
  8 20  1  0
  9 10  1  0
  9 32  1  0
 10 11  2  0
 10 12  1  0
 12 13  1  0
 12 33  1  0
 13 14  1  0
 13 34  1  0
 13 35  1  0
 14 15  1  0
 14 16  1  6
 14 17  1  0
 15 36  1  0
 15 37  1  0
 15 38  1  0
 16 39  1  0
 17 18  2  0
 17 19  1  0
 19 40  1  0
 20 21  1  0
 20 22  2  0
 21 41  1  0
 21 42  1  0
 21 43  1  0
 22 44  1  0
M  END

