
     RDKit          3D

 65 65  0  0  0  0  0  0  0  0999 V2000
    0.7811   -3.0821    5.8350 N   0  0  0  0  0  0  0  0  0  0  0  0
    2.1088   -2.7146    6.0269 C   0  0  0  0  0  0  0  0  0  0  0  0
    2.5245   -2.7758    7.3523 N   0  0  0  0  0  0  0  0  0  0  0  0
    2.8348   -2.3641    5.0308 N   0  0  0  0  0  0  0  0  0  0  0  0
    4.1929   -1.9502    5.2768 C   0  0  0  0  0  0  0  0  0  0  0  0
    4.8888   -1.5246    3.9808 C   0  0  0  0  0  0  0  0  0  0  0  0
    6.3961   -1.2975    4.1406 C   0  0  0  0  0  0  0  0  0  0  0  0
    7.2133   -2.5991    4.2483 C   0  0  1  0  0  0  0  0  0  0  0  0
    7.2632   -3.4034    3.0235 N   0  0  0  0  0  0  0  0  0  0  0  0
    8.6284   -2.3184    4.7931 C   0  0  0  0  0  0  0  0  0  0  0  0
    8.8199   -1.5522    5.7343 O   0  0  0  0  0  0  0  0  0  0  0  0
    9.6111   -3.0384    4.1966 N   0  0  0  0  0  0  0  0  0  0  0  0
   11.0191   -2.9688    4.5646 C   0  0  1  0  0  0  0  0  0  0  0  0
   11.6592   -1.6148    4.2047 C   0  0  0  0  0  0  0  0  0  0  0  0
   11.5731   -1.3573    2.8220 O   0  0  0  0  0  0  0  0  0  0  0  0
   11.2918   -3.3270    6.0380 C   0  0  0  0  0  0  0  0  0  0  0  0
   12.2898   -2.9213    6.6142 O   0  0  0  0  0  0  0  0  0  0  0  0
   10.3878   -4.1504    6.6305 N   0  0  0  0  0  0  0  0  0  0  0  0
   10.5054   -4.5490    8.0102 C   0  0  1  0  0  0  0  0  0  0  0  0
   10.2854   -3.3768    8.9971 C   0  0  0  0  0  0  0  0  0  0  0  0
    8.6103   -2.6307    9.0013 S   0  0  0  0  0  0  0  0  0  0  0  0
    9.5229   -5.7062    8.2437 C   0  0  0  0  0  0  0  0  0  0  0  0
    8.6510   -5.9623    7.4093 O   0  0  0  0  0  0  0  0  0  0  0  0
    9.6859   -6.3807    9.3994 N   0  0  0  0  0  0  0  0  0  0  0  0
    8.8363   -7.4162   10.0195 C   0  0  1  0  0  0  0  0  0  0  0  0
    7.5783   -6.8583   10.7513 C   0  0  0  0  0  0  0  0  0  0  0  0
    6.3722   -6.5002    9.9418 C   0  0  0  0  0  0  0  0  0  0  0  0
    5.2008   -7.2046    9.7290 C   0  0  0  0  0  0  0  0  0  0  0  0
    4.3273   -6.4835    8.9599 N   0  0  0  0  0  0  0  0  0  0  0  0
    4.9468   -5.3527    8.7004 C   0  0  0  0  0  0  0  0  0  0  0  0
    6.1852   -5.3057    9.2728 N   0  0  0  0  0  0  0  0  0  0  0  0
    6.8618   -4.5471    9.1777 H   0  0  0  0  0  0  0  0  0  0  0  0
    8.4629   -8.6554    9.1653 C   0  0  0  0  0  0  0  0  0  0  0  0
    8.4004   -9.7259    9.7155 O   0  0  0  0  0  0  0  0  0  0  0  0
    8.1697   -8.4874    7.8867 O   0  0  0  0  0  0  0  0  0  0  0  0
    0.4673   -3.8700    6.3963 H   0  0  0  0  0  0  0  0  0  0  0  0
    0.5710   -3.2054    4.8490 H   0  0  0  0  0  0  0  0  0  0  0  0
    1.7974   -2.7315    8.0585 H   0  0  0  0  0  0  0  0  0  0  0  0
    3.3364   -2.2172    7.5879 H   0  0  0  0  0  0  0  0  0  0  0  0
    4.7728   -2.7757    5.7466 H   0  0  0  0  0  0  0  0  0  0  0  0
    4.2594   -1.1013    5.9971 H   0  0  0  0  0  0  0  0  0  0  0  0
    4.4055   -0.6064    3.6093 H   0  0  0  0  0  0  0  0  0  0  0  0
    4.6932   -2.2953    3.2156 H   0  0  0  0  0  0  0  0  0  0  0  0
    6.6026   -0.6868    5.0335 H   0  0  0  0  0  0  0  0  0  0  0  0
    6.7867   -0.7216    3.2810 H   0  0  0  0  0  0  0  0  0  0  0  0
    6.7632   -3.2279    5.0373 H   0  0  0  0  0  0  0  0  0  0  0  0
    7.1584   -2.8157    2.1954 H   0  0  0  0  0  0  0  0  0  0  0  0
    6.5124   -4.0899    2.9914 H   0  0  0  0  0  0  0  0  0  0  0  0
    9.2812   -3.6257    3.4292 H   0  0  0  0  0  0  0  0  0  0  0  0
   11.5328   -3.7340    3.9584 H   0  0  0  0  0  0  0  0  0  0  0  0
   12.7230   -1.6584    4.4713 H   0  0  0  0  0  0  0  0  0  0  0  0
   11.1927   -0.8201    4.8131 H   0  0  0  0  0  0  0  0  0  0  0  0
   10.6425   -1.2150    2.6057 H   0  0  0  0  0  0  0  0  0  0  0  0
    9.5727   -4.4912    6.1299 H   0  0  0  0  0  0  0  0  0  0  0  0
   11.5356   -4.9110    8.1903 H   0  0  0  0  0  0  0  0  0  0  0  0
   11.0313   -2.6033    8.7704 H   0  0  0  0  0  0  0  0  0  0  0  0
   10.4604   -3.7089   10.0318 H   0  0  0  0  0  0  0  0  0  0  0  0
    8.6447   -2.1397    7.7320 H   0  0  0  0  0  0  0  0  0  0  0  0
   10.4820   -6.1048    9.9633 H   0  0  0  0  0  0  0  0  0  0  0  0
    9.4721   -7.8458   10.8044 H   0  0  0  0  0  0  0  0  0  0  0  0
    7.9071   -6.0022   11.3666 H   0  0  0  0  0  0  0  0  0  0  0  0
    7.2747   -7.6498   11.4528 H   0  0  0  0  0  0  0  0  0  0  0  0
    4.9563   -8.1984   10.1051 H   0  0  0  0  0  0  0  0  0  0  0  0
    4.5345   -4.5276    8.1183 H   0  0  0  0  0  0  0  0  0  0  0  0
    8.2053   -7.5320    7.6183 H   0  0  0  0  0  0  0  0  0  0  0  0
  1  2  1  0
  1 36  1  0
  1 37  1  0
  2  3  1  0
  2  4  2  0
  3 38  1  0
  3 39  1  0
  4  5  1  0
  5  6  1  0
  5 40  1  0
  5 41  1  0
  6  7  1  0
  6 42  1  0
  6 43  1  0
  7  8  1  0
  7 44  1  0
  7 45  1  0
  8  9  1  0
  8 10  1  0
  8 46  1  1
  9 47  1  0
  9 48  1  0
 10 11  2  0
 10 12  1  0
 12 13  1  0
 12 49  1  0
 13 14  1  0
 13 16  1  0
 13 50  1  6
 14 15  1  0
 14 51  1  0
 14 52  1  0
 15 53  1  0
 16 17  2  0
 16 18  1  0
 18 19  1  0
 18 54  1  0
 19 20  1  0
 19 22  1  0
 19 55  1  6
 20 21  1  0
 20 56  1  0
 20 57  1  0
 21 58  1  0
 22 23  2  0
 22 24  1  0
 24 25  1  0
 24 59  1  0
 25 26  1  0
 25 33  1  0
 25 60  1  1
 26 27  1  0
 26 61  1  0
 26 62  1  0
 27 28  2  0
 27 31  1  0
 28 29  1  0
 28 63  1  0
 29 30  2  0
 30 31  1  0
 30 64  1  0
 31 32  1  0
 33 34  2  0
 33 35  1  0
 35 65  1  0
M  END

