
     RDKit          3D

 62 65  0  0  0  0  0  0  0  0999 V2000
    3.2888   -2.6372    1.6214 C   0  0  0  0  0  0  0  0  0  0  0  0
    3.4559   -1.2573    0.9752 C   0  0  1  0  0  0  0  0  0  0  0  0
    2.1614   -0.7780    0.3103 C   0  0  0  0  0  0  0  0  0  0  0  0
    3.9679   -0.2487    2.0054 C   0  0  0  0  0  0  0  0  0  0  0  0
    4.2309    0.9847    1.3730 O   0  0  0  0  0  0  0  0  0  0  0  0
    4.5475    2.0770    2.2263 C   0  0  1  0  0  0  0  0  0  0  0  0
    5.9902    2.0059    2.7549 C   0  0  0  0  0  0  0  0  0  0  0  0
    7.0045    2.1405    1.6168 C   0  0  0  0  0  0  0  0  0  0  0  0
    6.7637    3.3436    0.8237 N   0  0  0  0  0  0  0  0  0  0  0  0
    7.8103    4.2261    0.6250 C   0  0  0  0  0  0  0  0  0  0  0  0
    8.8726    4.1311    1.2305 O   0  0  0  0  0  0  0  0  0  0  0  0
    7.5913    5.2475   -0.2862 N   0  0  0  0  0  0  0  0  0  0  0  0
    8.6789    6.1612   -0.6114 C   0  0  1  0  0  0  0  0  0  0  0  0
    9.6986    5.5541   -1.5883 C   0  0  0  0  0  0  0  0  0  0  0  0
   10.7129    6.5970   -2.0444 C   0  0  2  0  0  0  0  0  0  0  0  0
   11.7427    6.0948   -3.0630 C   0  0  0  0  0  0  0  0  0  0  0  0
   12.8118    7.1967   -3.0846 C   0  0  0  0  0  0  0  0  0  0  0  0
   12.8942    7.6920   -1.6172 C   0  0  0  0  0  0  0  0  0  0  0  0
   11.5978    7.1926   -0.9230 C   0  0  0  0  0  0  0  0  0  0  0  0
   10.0152    7.6772   -2.7146 O   0  0  0  0  0  0  0  0  0  0  0  0
    8.8615    8.1490   -2.1749 C   0  0  0  0  0  0  0  0  0  0  0  0
    8.3754    9.3604   -2.6951 C   0  0  0  0  0  0  0  0  0  0  0  0
    7.1919    9.9106   -2.2099 C   0  0  0  0  0  0  0  0  0  0  0  0
    6.4796    9.2612   -1.1943 C   0  0  0  0  0  0  0  0  0  0  0  0
    6.9629    8.0562   -0.6834 C   0  0  0  0  0  0  0  0  0  0  0  0
    8.1483    7.4754   -1.1603 C   0  0  0  0  0  0  0  0  0  0  0  0
    5.4135    3.4773    0.2897 C   0  0  0  0  0  0  0  0  0  0  0  0
    4.3638    3.3545    1.4045 C   0  0  0  0  0  0  0  0  0  0  0  0
    2.9583   -3.3820    0.8803 H   0  0  0  0  0  0  0  0  0  0  0  0
    2.5314   -2.6126    2.4240 H   0  0  0  0  0  0  0  0  0  0  0  0
    4.2318   -3.0004    2.0619 H   0  0  0  0  0  0  0  0  0  0  0  0
    4.2360   -1.3313    0.1952 H   0  0  0  0  0  0  0  0  0  0  0  0
    1.3431   -0.7070    1.0482 H   0  0  0  0  0  0  0  0  0  0  0  0
    1.8386   -1.4756   -0.4793 H   0  0  0  0  0  0  0  0  0  0  0  0
    2.2971    0.2155   -0.1405 H   0  0  0  0  0  0  0  0  0  0  0  0
    4.8792   -0.6498    2.4925 H   0  0  0  0  0  0  0  0  0  0  0  0
    3.2092   -0.1113    2.8065 H   0  0  0  0  0  0  0  0  0  0  0  0
    3.8397    2.0849    3.0798 H   0  0  0  0  0  0  0  0  0  0  0  0
    6.1606    1.0606    3.2953 H   0  0  0  0  0  0  0  0  0  0  0  0
    6.1392    2.8204    3.4838 H   0  0  0  0  0  0  0  0  0  0  0  0
    6.9324    1.2527    0.9606 H   0  0  0  0  0  0  0  0  0  0  0  0
    8.0286    2.2022    2.0025 H   0  0  0  0  0  0  0  0  0  0  0  0
    6.8987    5.1134   -1.0131 H   0  0  0  0  0  0  0  0  0  0  0  0
    9.2000    6.3419    0.3425 H   0  0  0  0  0  0  0  0  0  0  0  0
    9.1701    5.1636   -2.4758 H   0  0  0  0  0  0  0  0  0  0  0  0
   10.2082    4.7120   -1.0987 H   0  0  0  0  0  0  0  0  0  0  0  0
   11.2803    5.9009   -4.0427 H   0  0  0  0  0  0  0  0  0  0  0  0
   12.1641    5.1456   -2.6904 H   0  0  0  0  0  0  0  0  0  0  0  0
   12.4737    8.0127   -3.7406 H   0  0  0  0  0  0  0  0  0  0  0  0
   13.7793    6.8427   -3.4723 H   0  0  0  0  0  0  0  0  0  0  0  0
   12.9862    8.7874   -1.5713 H   0  0  0  0  0  0  0  0  0  0  0  0
   13.7818    7.2830   -1.1093 H   0  0  0  0  0  0  0  0  0  0  0  0
   11.0679    7.9887   -0.3796 H   0  0  0  0  0  0  0  0  0  0  0  0
   11.8232    6.4008   -0.1908 H   0  0  0  0  0  0  0  0  0  0  0  0
    8.9521    9.8485   -3.4836 H   0  0  0  0  0  0  0  0  0  0  0  0
    6.8256   10.8538   -2.6239 H   0  0  0  0  0  0  0  0  0  0  0  0
    5.5542    9.6915   -0.8043 H   0  0  0  0  0  0  0  0  0  0  0  0
    6.4142    7.5365    0.1056 H   0  0  0  0  0  0  0  0  0  0  0  0
    5.2250    2.6976   -0.4719 H   0  0  0  0  0  0  0  0  0  0  0  0
    5.2949    4.4546   -0.1943 H   0  0  0  0  0  0  0  0  0  0  0  0
    3.3540    3.3635    0.9643 H   0  0  0  0  0  0  0  0  0  0  0  0
    4.4472    4.2232    2.0784 H   0  0  0  0  0  0  0  0  0  0  0  0
  1  2  1  0
  1 29  1  0
  1 30  1  0
  1 31  1  0
  2  3  1  0
  2  4  1  0
  2 32  1  6
  3 33  1  0
  3 34  1  0
  3 35  1  0
  4  5  1  0
  4 36  1  0
  4 37  1  0
  5  6  1  0
  6  7  1  0
  6 28  1  0
  6 38  1  1
  7  8  1  0
  7 39  1  0
  7 40  1  0
  8  9  1  0
  8 41  1  0
  8 42  1  0
  9 10  1  0
  9 27  1  0
 10 11  2  0
 10 12  1  0
 12 13  1  0
 12 43  1  0
 13 14  1  0
 13 26  1  0
 13 44  1  1
 14 15  1  0
 14 45  1  0
 14 46  1  0
 15 16  1  0
 15 19  1  0
 15 20  1  6
 16 17  1  0
 16 47  1  0
 16 48  1  0
 17 18  1  0
 17 49  1  0
 17 50  1  0
 18 19  1  0
 18 51  1  0
 18 52  1  0
 19 53  1  0
 19 54  1  0
 20 21  1  0
 21 22  2  0
 21 26  1  0
 22 23  1  0
 22 55  1  0
 23 24  2  0
 23 56  1  0
 24 25  1  0
 24 57  1  0
 25 26  2  0
 25 58  1  0
 27 28  1  0
 27 59  1  0
 27 60  1  0
 28 61  1  0
 28 62  1  0
M  END

