
     RDKit          3D

 56 58  0  0  0  0  0  0  0  0999 V2000
    3.7948    1.5900   -1.6303 C   0  0  0  0  0  0  0  0  0  0  0  0
    3.3756    0.1317   -1.5377 C   0  0  0  0  0  0  0  0  0  0  0  0
    3.7052   -0.4389   -0.2606 O   0  0  0  0  0  0  0  0  0  0  0  0
    4.9488   -0.9399   -0.1048 C   0  0  0  0  0  0  0  0  0  0  0  0
    5.7833   -0.9295   -0.9826 O   0  0  0  0  0  0  0  0  0  0  0  0
    5.1694   -1.5054    1.2578 C   0  0  0  0  0  0  0  0  0  0  0  0
    6.4234   -2.0684    1.5467 C   0  0  0  0  0  0  0  0  0  0  0  0
    6.6770   -2.6110    2.8028 C   0  0  0  0  0  0  0  0  0  0  0  0
    5.6904   -2.6022    3.8033 C   0  0  0  0  0  0  0  0  0  0  0  0
    5.9882   -3.2156    5.1709 C   0  0  1  0  0  0  0  0  0  0  0  0
    4.9593   -2.8408    6.0708 O   0  0  0  0  0  0  0  0  0  0  0  0
    5.3132   -2.5704    7.4385 C   0  0  1  0  0  0  0  0  0  0  0  0
    5.6675   -3.8475    8.1967 C   0  0  0  0  0  0  0  0  0  0  0  0
    6.3309   -1.5408    7.4896 N   0  0  0  0  0  0  0  0  0  0  0  0
    5.8569   -0.2078    7.1094 C   0  0  0  0  0  0  0  0  0  0  0  0
    5.2770    0.5841    8.2931 C   0  0  0  0  0  0  0  0  0  0  0  0
    6.2878    0.6619    9.4451 C   0  0  0  0  0  0  0  0  0  0  0  0
    6.7942   -0.7371    9.8224 C   0  0  0  0  0  0  0  0  0  0  0  0
    7.3047   -1.4813    8.5762 C   0  0  0  0  0  0  0  0  0  0  0  0
    6.1349   -4.7344    5.0657 C   0  0  0  0  0  0  0  0  0  0  0  0
    7.4000   -5.3367    5.0759 C   0  0  0  0  0  0  0  0  0  0  0  0
    7.5334   -6.7241    4.9499 C   0  0  0  0  0  0  0  0  0  0  0  0
    6.3976   -7.5263    4.8179 C   0  0  0  0  0  0  0  0  0  0  0  0
    5.1293   -6.9335    4.8124 C   0  0  0  0  0  0  0  0  0  0  0  0
    4.9996   -5.5487    4.9332 C   0  0  0  0  0  0  0  0  0  0  0  0
    4.4415   -2.0352    3.5129 C   0  0  0  0  0  0  0  0  0  0  0  0
    4.1807   -1.4941    2.2524 C   0  0  0  0  0  0  0  0  0  0  0  0
    3.4571    2.0171   -2.5885 H   0  0  0  0  0  0  0  0  0  0  0  0
    4.8896    1.6844   -1.5808 H   0  0  0  0  0  0  0  0  0  0  0  0
    3.3500    2.1807   -0.8143 H   0  0  0  0  0  0  0  0  0  0  0  0
    3.8542   -0.4637   -2.3293 H   0  0  0  0  0  0  0  0  0  0  0  0
    2.2837    0.0256   -1.6182 H   0  0  0  0  0  0  0  0  0  0  0  0
    7.1878   -2.0684    0.7673 H   0  0  0  0  0  0  0  0  0  0  0  0
    7.6561   -3.0507    3.0106 H   0  0  0  0  0  0  0  0  0  0  0  0
    6.9458   -2.7941    5.5225 H   0  0  0  0  0  0  0  0  0  0  0  0
    4.3435   -2.2057    7.8336 H   0  0  0  0  0  0  0  0  0  0  0  0
    6.6310   -4.2705    7.8780 H   0  0  0  0  0  0  0  0  0  0  0  0
    4.8896   -4.5973    7.9983 H   0  0  0  0  0  0  0  0  0  0  0  0
    5.7025   -3.6704    9.2823 H   0  0  0  0  0  0  0  0  0  0  0  0
    5.1192   -0.3168    6.3019 H   0  0  0  0  0  0  0  0  0  0  0  0
    6.7093    0.3533    6.6824 H   0  0  0  0  0  0  0  0  0  0  0  0
    4.3514    0.0935    8.6458 H   0  0  0  0  0  0  0  0  0  0  0  0
    4.9851    1.5945    7.9592 H   0  0  0  0  0  0  0  0  0  0  0  0
    5.8462    1.1672   10.3203 H   0  0  0  0  0  0  0  0  0  0  0  0
    7.1479    1.2820    9.1295 H   0  0  0  0  0  0  0  0  0  0  0  0
    5.9757   -1.3154   10.2886 H   0  0  0  0  0  0  0  0  0  0  0  0
    7.6003   -0.6706   10.5735 H   0  0  0  0  0  0  0  0  0  0  0  0
    7.6465   -2.4920    8.8341 H   0  0  0  0  0  0  0  0  0  0  0  0
    8.1957   -0.9480    8.1922 H   0  0  0  0  0  0  0  0  0  0  0  0
    8.2933   -4.7154    5.1915 H   0  0  0  0  0  0  0  0  0  0  0  0
    8.5278   -7.1783    4.9611 H   0  0  0  0  0  0  0  0  0  0  0  0
    6.4981   -8.6104    4.7218 H   0  0  0  0  0  0  0  0  0  0  0  0
    4.2363   -7.5560    4.7108 H   0  0  0  0  0  0  0  0  0  0  0  0
    4.0098   -5.0863    4.9331 H   0  0  0  0  0  0  0  0  0  0  0  0
    3.6777   -2.0178    4.2907 H   0  0  0  0  0  0  0  0  0  0  0  0
    3.2062   -1.0560    2.0328 H   0  0  0  0  0  0  0  0  0  0  0  0
  1  2  1  0
  1 28  1  0
  1 29  1  0
  1 30  1  0
  2  3  1  0
  2 31  1  0
  2 32  1  0
  3  4  1  0
  4  5  2  0
  4  6  1  0
  6  7  2  0
  6 27  1  0
  7  8  1  0
  7 33  1  0
  8  9  2  0
  8 34  1  0
  9 10  1  0
  9 26  1  0
 10 11  1  0
 10 20  1  0
 10 35  1  1
 11 12  1  0
 12 13  1  0
 12 14  1  0
 12 36  1  1
 13 37  1  0
 13 38  1  0
 13 39  1  0
 14 15  1  0
 14 19  1  0
 15 16  1  0
 15 40  1  0
 15 41  1  0
 16 17  1  0
 16 42  1  0
 16 43  1  0
 17 18  1  0
 17 44  1  0
 17 45  1  0
 18 19  1  0
 18 46  1  0
 18 47  1  0
 19 48  1  0
 19 49  1  0
 20 21  2  0
 20 25  1  0
 21 22  1  0
 21 50  1  0
 22 23  2  0
 22 51  1  0
 23 24  1  0
 23 52  1  0
 24 25  2  0
 24 53  1  0
 25 54  1  0
 26 27  2  0
 26 55  1  0
 27 56  1  0
M  END

