
     RDKit          3D

 71 75  0  0  0  0  0  0  0  0999 V2000
    2.7755    0.7128   -3.0268 C   0  0  0  0  0  0  0  0  0  0  0  0
    3.9689    1.1818   -2.1931 C   0  0  0  0  0  0  0  0  0  0  0  0
    3.6780    1.2192   -0.6901 C   0  0  0  0  0  0  0  0  0  0  0  0
    4.8624    1.6779    0.1859 C   0  0  0  0  0  0  0  0  0  0  0  0
    5.2754    3.1194   -0.0196 C   0  0  0  0  0  0  0  0  0  0  0  0
    4.5130    4.1682    0.5251 C   0  0  0  0  0  0  0  0  0  0  0  0
    4.8654    5.5005    0.3286 C   0  0  0  0  0  0  0  0  0  0  0  0
    6.0089    5.8378   -0.4288 C   0  0  0  0  0  0  0  0  0  0  0  0
    6.3784    7.2010   -0.6327 C   0  0  0  0  0  0  0  0  0  0  0  0
    6.6991    8.3652   -0.8104 C   0  0  0  0  0  0  0  0  0  0  0  0
    7.0669    9.7276   -1.0124 C   0  0  0  0  0  0  0  0  0  0  0  0
    6.2818   10.7805   -0.4511 C   0  0  0  0  0  0  0  0  0  0  0  0
    6.6208   12.1043   -0.6340 C   0  0  0  0  0  0  0  0  0  0  0  0
    7.7675   12.4645   -1.3900 C   0  0  0  0  0  0  0  0  0  0  0  0
    8.0743   13.7828   -1.5505 N   0  0  0  0  0  0  0  0  0  0  0  0
    9.1320   14.1084   -2.2470 C   0  0  0  0  0  0  0  0  0  0  0  0
    9.4887   15.4893   -2.4377 C   0  0  0  0  0  0  0  0  0  0  0  0
   10.5834   15.8592   -3.1565 C   0  0  0  0  0  0  0  0  0  0  0  0
   11.4330   14.8573   -3.7593 C   0  0  0  0  0  0  0  0  0  0  0  0
   12.5836   15.2228   -4.5144 C   0  0  0  0  0  0  0  0  0  0  0  0
   13.5653   15.5576   -5.1567 C   0  0  0  0  0  0  0  0  0  0  0  0
   14.7170   15.9376   -5.9090 C   0  0  0  0  0  0  0  0  0  0  0  0
   15.0620   17.2976   -6.0701 C   0  0  0  0  0  0  0  0  0  0  0  0
   16.1864   17.6596   -6.8064 C   0  0  0  0  0  0  0  0  0  0  0  0
   17.0112   16.6931   -7.4094 C   0  0  0  0  0  0  0  0  0  0  0  0
   18.2428   17.1063   -8.1856 C   0  0  0  0  0  0  0  0  0  0  0  0
   19.4417   17.5244   -7.3088 C   0  0  0  0  0  0  0  0  0  0  0  0
   20.0448   16.3962   -6.4671 C   0  0  0  0  0  0  0  0  0  0  0  0
   21.2366   16.8463   -5.6209 C   0  0  0  0  0  0  0  0  0  0  0  0
   16.6613   15.3423   -7.2489 C   0  0  0  0  0  0  0  0  0  0  0  0
   15.5386   14.9640   -6.5149 C   0  0  0  0  0  0  0  0  0  0  0  0
   11.0926   13.5384   -3.5782 C   0  0  0  0  0  0  0  0  0  0  0  0
    9.9849   13.1613   -2.8507 N   0  0  0  0  0  0  0  0  0  0  0  0
    9.7364   11.7405   -2.7336 C   0  0  0  0  0  0  0  0  0  0  0  0
   10.4913   10.9512   -3.2667 O   0  0  0  0  0  0  0  0  0  0  0  0
    8.5515   11.4178   -1.9508 C   0  0  0  0  0  0  0  0  0  0  0  0
    8.1985   10.0701   -1.7595 C   0  0  0  0  0  0  0  0  0  0  0  0
    6.7788    4.7888   -0.9743 C   0  0  0  0  0  0  0  0  0  0  0  0
    6.4132    3.4595   -0.7694 C   0  0  0  0  0  0  0  0  0  0  0  0
    3.0168    0.6914   -4.1015 H   0  0  0  0  0  0  0  0  0  0  0  0
    1.9078    1.3809   -2.8950 H   0  0  0  0  0  0  0  0  0  0  0  0
    2.4555   -0.3026   -2.7375 H   0  0  0  0  0  0  0  0  0  0  0  0
    4.2836    2.1840   -2.5326 H   0  0  0  0  0  0  0  0  0  0  0  0
    4.8324    0.5162   -2.3773 H   0  0  0  0  0  0  0  0  0  0  0  0
    3.3694    0.2122   -0.3558 H   0  0  0  0  0  0  0  0  0  0  0  0
    2.8115    1.8790   -0.5013 H   0  0  0  0  0  0  0  0  0  0  0  0
    5.7271    1.0196   -0.0038 H   0  0  0  0  0  0  0  0  0  0  0  0
    4.5883    1.5326    1.2448 H   0  0  0  0  0  0  0  0  0  0  0  0
    3.6264    3.9341    1.1220 H   0  0  0  0  0  0  0  0  0  0  0  0
    4.2609    6.2988    0.7645 H   0  0  0  0  0  0  0  0  0  0  0  0
    5.3970   10.5184    0.1330 H   0  0  0  0  0  0  0  0  0  0  0  0
    6.0223   12.9104   -0.2058 H   0  0  0  0  0  0  0  0  0  0  0  0
    8.8242   16.2149   -1.9682 H   0  0  0  0  0  0  0  0  0  0  0  0
   10.8355   16.9130   -3.2884 H   0  0  0  0  0  0  0  0  0  0  0  0
   14.4336   18.0653   -5.6137 H   0  0  0  0  0  0  0  0  0  0  0  0
   16.4285   18.7202   -6.9223 H   0  0  0  0  0  0  0  0  0  0  0  0
   17.9819   17.9520   -8.8446 H   0  0  0  0  0  0  0  0  0  0  0  0
   18.5513   16.2800   -8.8481 H   0  0  0  0  0  0  0  0  0  0  0  0
   19.1331   18.3522   -6.6445 H   0  0  0  0  0  0  0  0  0  0  0  0
   20.2235   17.9421   -7.9684 H   0  0  0  0  0  0  0  0  0  0  0  0
   20.3570   15.5735   -7.1367 H   0  0  0  0  0  0  0  0  0  0  0  0
   19.2669   15.9705   -5.8096 H   0  0  0  0  0  0  0  0  0  0  0  0
   22.0499   17.2459   -6.2501 H   0  0  0  0  0  0  0  0  0  0  0  0
   21.6513   16.0129   -5.0317 H   0  0  0  0  0  0  0  0  0  0  0  0
   20.9476   17.6414   -4.9131 H   0  0  0  0  0  0  0  0  0  0  0  0
   17.2804   14.5695   -7.7130 H   0  0  0  0  0  0  0  0  0  0  0  0
   15.2850   13.9076   -6.4048 H   0  0  0  0  0  0  0  0  0  0  0  0
   11.6592   12.7027   -3.9862 H   0  0  0  0  0  0  0  0  0  0  0  0
    8.8269    9.2985   -2.2064 H   0  0  0  0  0  0  0  0  0  0  0  0
    7.6689    5.0296   -1.5593 H   0  0  0  0  0  0  0  0  0  0  0  0
    7.0292    2.6644   -1.1990 H   0  0  0  0  0  0  0  0  0  0  0  0
  1  2  1  0
  1 40  1  0
  1 41  1  0
  1 42  1  0
  2  3  1  0
  2 43  1  0
  2 44  1  0
  3  4  1  0
  3 45  1  0
  3 46  1  0
  4  5  1  0
  4 47  1  0
  4 48  1  0
  5  6  2  0
  5 39  1  0
  6  7  1  0
  6 49  1  0
  7  8  2  0
  7 50  1  0
  8  9  1  0
  8 38  1  0
  9 10  3  0
 10 11  1  0
 11 12  2  0
 11 37  1  0
 12 13  1  0
 12 51  1  0
 13 14  2  0
 13 52  1  0
 14 15  1  0
 14 36  1  0
 15 16  2  0
 16 17  1  0
 16 33  1  0
 17 18  2  0
 17 53  1  0
 18 19  1  0
 18 54  1  0
 19 20  1  0
 19 32  2  0
 20 21  3  0
 21 22  1  0
 22 23  2  0
 22 31  1  0
 23 24  1  0
 23 55  1  0
 24 25  2  0
 24 56  1  0
 25 26  1  0
 25 30  1  0
 26 27  1  0
 26 57  1  0
 26 58  1  0
 27 28  1  0
 27 59  1  0
 27 60  1  0
 28 29  1  0
 28 61  1  0
 28 62  1  0
 29 63  1  0
 29 64  1  0
 29 65  1  0
 30 31  2  0
 30 66  1  0
 31 67  1  0
 32 33  1  0
 32 68  1  0
 33 34  1  0
 34 35  2  0
 34 36  1  0
 36 37  2  0
 37 69  1  0
 38 39  2  0
 38 70  1  0
 39 71  1  0
M  END

