
     RDKit          3D

 29 30  0  0  0  0  0  0  0  0999 V2000
    4.1227    4.3514   -1.4034 O   0  0  0  0  0  0  0  0  0  0  0  0
    4.6639    3.6272   -0.6179 C   0  0  0  0  0  0  0  0  0  0  0  0
    5.7853    3.9932    0.0262 O   0  0  0  0  0  0  0  0  0  0  0  0
    4.0817    2.2492   -0.2392 C   0  0  0  0  0  0  0  0  0  0  0  0
    5.0595    1.2368    0.2789 C   0  0  0  0  0  0  0  0  0  0  0  0
    5.4269    1.0096    1.5921 C   0  0  0  0  0  0  0  0  0  0  0  0
    6.4322    0.0121    1.7337 C   0  0  0  0  0  0  0  0  0  0  0  0
    6.8163   -0.5034    0.5182 C   0  0  0  0  0  0  0  0  0  0  0  0
    7.9972   -1.8019    0.2567 S   0  0  1  0  0  0  0  0  0  0  0  0
    8.5612   -1.6193   -1.0730 O   0  0  0  0  0  0  0  0  0  0  0  0
    8.7971   -1.8886    1.4742 O   0  0  0  0  0  0  0  0  0  0  0  0
    7.1088   -3.2384    0.1310 N   0  0  0  0  0  0  0  0  0  0  0  0
    6.3603   -3.8211    1.1653 C   0  0  0  0  0  0  0  0  0  0  0  0
    6.8620   -4.0001    2.4633 C   0  0  0  0  0  0  0  0  0  0  0  0
    6.0596   -4.6126    3.4273 C   0  0  0  0  0  0  0  0  0  0  0  0
    4.7861   -5.0534    3.0661 C   0  0  0  0  0  0  0  0  0  0  0  0
    4.3088   -4.9054    1.8261 N   0  0  0  0  0  0  0  0  0  0  0  0
    5.0534   -4.3127    0.9266 C   0  0  0  0  0  0  0  0  0  0  0  0
    4.3822   -4.1500   -0.6992 Cl  0  0  0  0  0  0  0  0  0  0  0  0
    5.9661    0.2256   -0.8099 S   0  0  0  0  0  0  0  0  0  0  0  0
    6.1076    3.2658    0.5834 H   0  0  0  0  0  0  0  0  0  0  0  0
    3.5360    1.8893   -1.1224 H   0  0  0  0  0  0  0  0  0  0  0  0
    3.3228    2.4416    0.5385 H   0  0  0  0  0  0  0  0  0  0  0  0
    4.9734    1.5364    2.4346 H   0  0  0  0  0  0  0  0  0  0  0  0
    6.8655   -0.3146    2.6789 H   0  0  0  0  0  0  0  0  0  0  0  0
    6.6990   -3.3323   -0.7983 H   0  0  0  0  0  0  0  0  0  0  0  0
    7.8717   -3.6592    2.6923 H   0  0  0  0  0  0  0  0  0  0  0  0
    6.4302   -4.7590    4.4440 H   0  0  0  0  0  0  0  0  0  0  0  0
    4.1275   -5.5435    3.7905 H   0  0  0  0  0  0  0  0  0  0  0  0
  1  2  2  0
  2  3  1  0
  2  4  1  0
  3 21  1  0
  4  5  1  0
  4 22  1  0
  4 23  1  0
  5  6  2  0
  5 20  1  0
  6  7  1  0
  6 24  1  0
  7  8  2  0
  7 25  1  0
  8  9  1  0
  8 20  1  0
  9 10  2  0
  9 11  2  0
  9 12  1  6
 12 13  1  0
 12 26  1  0
 13 14  2  0
 13 18  1  0
 14 15  1  0
 14 27  1  0
 15 16  2  0
 15 28  1  0
 16 17  1  0
 16 29  1  0
 17 18  2  0
 18 19  1  0
M  END

