
     RDKit          3D

 22 22  0  0  0  0  0  0  0  0999 V2000
    1.8917   -0.5311   -3.2001 C   0  0  0  0  0  0  0  0  0  0  0  0
    2.5476   -1.1378   -2.2068 C   0  0  0  0  0  0  0  0  0  0  0  0
    3.0302   -0.4378   -0.9483 C   0  0  1  0  0  0  0  0  0  0  0  0
    2.3906   -0.9031    0.2877 N   0  0  0  0  0  0  0  0  0  0  0  0
    4.5411   -0.5125   -0.8072 C   0  0  0  0  0  0  0  0  0  0  0  0
    5.5149    0.9000   -0.7533 S   0  0  0  0  0  0  0  0  0  0  0  0
    6.9698   -0.0261   -0.5932 N   0  0  0  0  0  0  0  0  0  0  0  0
    6.7053   -1.2668   -0.5791 N   0  0  0  0  0  0  0  0  0  0  0  0
    5.3793   -1.6099   -0.6921 C   0  0  0  0  0  0  0  0  0  0  0  0
    5.0409   -3.0789   -0.6954 C   0  0  0  0  0  0  0  0  0  0  0  0
    5.5502   -3.8106   -1.9451 C   0  0  0  0  0  0  0  0  0  0  0  0
    1.5351   -1.0828   -4.0743 H   0  0  0  0  0  0  0  0  0  0  0  0
    1.6896    0.5456   -3.1791 H   0  0  0  0  0  0  0  0  0  0  0  0
    2.7333   -2.2171   -2.2629 H   0  0  0  0  0  0  0  0  0  0  0  0
    2.7646    0.6271   -1.0580 H   0  0  0  0  0  0  0  0  0  0  0  0
    2.6732   -1.8568    0.5121 H   0  0  0  0  0  0  0  0  0  0  0  0
    1.3774   -0.9161    0.1642 H   0  0  0  0  0  0  0  0  0  0  0  0
    3.9541   -3.2176   -0.5925 H   0  0  0  0  0  0  0  0  0  0  0  0
    5.4988   -3.5315    0.2003 H   0  0  0  0  0  0  0  0  0  0  0  0
    5.0756   -3.4200   -2.8596 H   0  0  0  0  0  0  0  0  0  0  0  0
    5.3387   -4.8897   -1.8821 H   0  0  0  0  0  0  0  0  0  0  0  0
    6.6376   -3.6776   -2.0478 H   0  0  0  0  0  0  0  0  0  0  0  0
  1  2  2  0
  1 12  1  0
  1 13  1  0
  2  3  1  0
  2 14  1  0
  3  4  1  0
  3  5  1  0
  3 15  1  6
  4 16  1  0
  4 17  1  0
  5  6  1  0
  5  9  2  0
  6  7  1  0
  7  8  2  0
  8  9  1  0
  9 10  1  0
 10 11  1  0
 10 18  1  0
 10 19  1  0
 11 20  1  0
 11 21  1  0
 11 22  1  0
M  END

