
     RDKit          3D

 27 28  0  0  0  0  0  0  0  0999 V2000
    1.0917    0.0130   -0.5410 N   0  0  0  0  0  0  0  0  0  0  0  0
    2.5035    0.1183   -0.2030 C   0  0  1  0  0  0  0  0  0  0  0  0
    3.3141    0.1193   -1.5243 C   0  0  0  0  0  0  0  0  0  0  0  0
    4.1294    0.9835   -1.7595 O   0  0  0  0  0  0  0  0  0  0  0  0
    3.0488   -1.0039   -2.5217 C   0  0  0  0  0  0  0  0  0  0  0  0
    2.7079   -0.4627   -3.8994 C   0  0  1  0  0  0  0  0  0  0  0  0
    1.9583   -1.3183   -4.8858 C   0  0  0  0  0  0  0  0  0  0  0  0
    1.2773   -0.1313   -4.2484 C   0  0  0  0  0  0  0  0  0  0  0  0
    2.9385    1.2917    0.7044 C   0  0  0  0  0  0  0  0  0  0  0  0
    4.1669    0.7445    1.4531 C   0  0  0  0  0  0  0  0  0  0  0  0
    4.1787   -0.6733    1.2461 O   0  0  0  0  0  0  0  0  0  0  0  0
    2.9653   -1.0746    0.6679 C   0  0  0  0  0  0  0  0  0  0  0  0
    0.7560    0.8732   -0.9744 H   0  0  0  0  0  0  0  0  0  0  0  0
    0.5299   -0.1360    0.2977 H   0  0  0  0  0  0  0  0  0  0  0  0
    2.2469   -1.6612   -2.1595 H   0  0  0  0  0  0  0  0  0  0  0  0
    3.9806   -1.5958   -2.5804 H   0  0  0  0  0  0  0  0  0  0  0  0
    3.4752    0.2043   -4.3055 H   0  0  0  0  0  0  0  0  0  0  0  0
    1.6488   -2.3182   -4.5656 H   0  0  0  0  0  0  0  0  0  0  0  0
    2.2351   -1.2552   -5.9422 H   0  0  0  0  0  0  0  0  0  0  0  0
    0.5162   -0.3282   -3.4871 H   0  0  0  0  0  0  0  0  0  0  0  0
    1.0832    0.7504   -4.8661 H   0  0  0  0  0  0  0  0  0  0  0  0
    2.1141    1.5191    1.3988 H   0  0  0  0  0  0  0  0  0  0  0  0
    3.1705    2.1929    0.1212 H   0  0  0  0  0  0  0  0  0  0  0  0
    4.1242    0.9669    2.5350 H   0  0  0  0  0  0  0  0  0  0  0  0
    5.1103    1.1505    1.0559 H   0  0  0  0  0  0  0  0  0  0  0  0
    2.1789   -1.2784    1.4300 H   0  0  0  0  0  0  0  0  0  0  0  0
    3.1300   -2.0063    0.1052 H   0  0  0  0  0  0  0  0  0  0  0  0
  1  2  1  0
  1 13  1  0
  1 14  1  0
  2  3  1  6
  2  9  1  0
  2 12  1  0
  3  4  2  0
  3  5  1  0
  5  6  1  0
  5 15  1  0
  5 16  1  0
  6  7  1  0
  6  8  1  0
  6 17  1  6
  7  8  1  0
  7 18  1  0
  7 19  1  0
  8 20  1  0
  8 21  1  0
  9 10  1  0
  9 22  1  0
  9 23  1  0
 10 11  1  0
 10 24  1  0
 10 25  1  0
 11 12  1  0
 12 26  1  0
 12 27  1  0
M  END

