
     RDKit          3D

 60 62  0  0  0  0  0  0  0  0999 V2000
    0.7728    0.4661   -1.0981 C   0  0  0  0  0  0  0  0  0  0  0  0
    1.6359   -0.2603   -0.0615 C   0  0  1  0  0  0  0  0  0  0  0  0
    2.1887   -1.5923   -0.5966 C   0  0  0  0  0  0  0  0  0  0  0  0
    2.8452   -2.4216    0.5092 C   0  0  0  0  0  0  0  0  0  0  0  0
    2.8545   -2.0242    1.6712 O   0  0  0  0  0  0  0  0  0  0  0  0
    3.4117   -3.6209    0.1569 N   0  0  0  0  0  0  0  0  0  0  0  0
    4.0346   -4.4547    1.1822 C   0  0  0  0  0  0  0  0  0  0  0  0
    3.3765   -5.8368    1.2278 C   0  0  0  0  0  0  0  0  0  0  0  0
    3.3613   -6.4963   -0.1564 C   0  0  0  0  0  0  0  0  0  0  0  0
    2.7397   -5.5597   -1.2173 C   0  0  2  0  0  0  0  0  0  0  0  0
    2.8580   -6.1668   -2.6189 C   0  0  0  0  0  0  0  0  0  0  0  0
    3.7846   -5.8439   -3.3505 O   0  0  0  0  0  0  0  0  0  0  0  0
    1.9196   -7.0924   -3.0145 N   0  0  0  0  0  0  0  0  0  0  0  0
    0.8006   -7.6082   -2.2344 C   0  0  0  0  0  0  0  0  0  0  0  0
   -0.4793   -7.5775   -3.0756 C   0  0  0  0  0  0  0  0  0  0  0  0
   -0.3113   -8.2563   -4.2989 O   0  0  0  0  0  0  0  0  0  0  0  0
    0.7368   -7.6982   -5.0709 C   0  0  0  0  0  0  0  0  0  0  0  0
    2.0641   -7.7392   -4.3192 C   0  0  0  0  0  0  0  0  0  0  0  0
    3.4474   -4.1901   -1.1843 C   0  0  0  0  0  0  0  0  0  0  0  0
    2.7061    0.5912    0.4669 N   0  0  0  0  0  0  0  0  0  0  0  0
    3.7193    1.1068   -0.2878 C   0  0  0  0  0  0  0  0  0  0  0  0
    3.7424    1.0491   -1.5118 O   0  0  0  0  0  0  0  0  0  0  0  0
    4.8594    1.7397    0.5123 C   0  0  1  0  0  0  0  0  0  0  0  0
    6.0649    0.7797    0.6541 C   0  0  0  0  0  0  0  0  0  0  0  0
    7.2189    1.7226    1.0122 C   0  0  0  0  0  0  0  0  0  0  0  0
    6.9938    2.9411    0.0934 C   0  0  0  0  0  0  0  0  0  0  0  0
    5.4610    2.9976   -0.1627 C   0  0  0  0  0  0  0  0  0  0  0  0
   -0.0858   -0.1619   -1.3861 H   0  0  0  0  0  0  0  0  0  0  0  0
    1.3569    0.7092   -1.9955 H   0  0  0  0  0  0  0  0  0  0  0  0
    0.3829    1.4051   -0.6759 H   0  0  0  0  0  0  0  0  0  0  0  0
    1.0091   -0.4945    0.8119 H   0  0  0  0  0  0  0  0  0  0  0  0
    2.9070   -1.3818   -1.4051 H   0  0  0  0  0  0  0  0  0  0  0  0
    1.3667   -2.1734   -1.0492 H   0  0  0  0  0  0  0  0  0  0  0  0
    3.9426   -3.9284    2.1394 H   0  0  0  0  0  0  0  0  0  0  0  0
    5.1113   -4.5619    0.9489 H   0  0  0  0  0  0  0  0  0  0  0  0
    2.3431   -5.7282    1.6014 H   0  0  0  0  0  0  0  0  0  0  0  0
    3.9117   -6.4773    1.9483 H   0  0  0  0  0  0  0  0  0  0  0  0
    2.8219   -7.4568   -0.1197 H   0  0  0  0  0  0  0  0  0  0  0  0
    4.3944   -6.7301   -0.4701 H   0  0  0  0  0  0  0  0  0  0  0  0
    1.6820   -5.3885   -0.9567 H   0  0  0  0  0  0  0  0  0  0  0  0
    0.6550   -7.0207   -1.3202 H   0  0  0  0  0  0  0  0  0  0  0  0
    1.0065   -8.6538   -1.9340 H   0  0  0  0  0  0  0  0  0  0  0  0
   -0.7709   -6.5209   -3.2543 H   0  0  0  0  0  0  0  0  0  0  0  0
   -1.2999   -8.0760   -2.5371 H   0  0  0  0  0  0  0  0  0  0  0  0
    0.4960   -6.6496   -5.3420 H   0  0  0  0  0  0  0  0  0  0  0  0
    0.8011   -8.2881   -5.9975 H   0  0  0  0  0  0  0  0  0  0  0  0
    2.8577   -7.2190   -4.8699 H   0  0  0  0  0  0  0  0  0  0  0  0
    2.3704   -8.7927   -4.1750 H   0  0  0  0  0  0  0  0  0  0  0  0
    2.9889   -3.5074   -1.9065 H   0  0  0  0  0  0  0  0  0  0  0  0
    4.4931   -4.3279   -1.5066 H   0  0  0  0  0  0  0  0  0  0  0  0
    2.8929    0.4641    1.4551 H   0  0  0  0  0  0  0  0  0  0  0  0
    4.4975    1.9938    1.5233 H   0  0  0  0  0  0  0  0  0  0  0  0
    6.2546    0.3004   -0.3220 H   0  0  0  0  0  0  0  0  0  0  0  0
    5.8920   -0.0194    1.3926 H   0  0  0  0  0  0  0  0  0  0  0  0
    8.2111    1.2611    0.8848 H   0  0  0  0  0  0  0  0  0  0  0  0
    7.1343    2.0209    2.0719 H   0  0  0  0  0  0  0  0  0  0  0  0
    7.5299    2.7954   -0.8584 H   0  0  0  0  0  0  0  0  0  0  0  0
    7.3844    3.8715    0.5342 H   0  0  0  0  0  0  0  0  0  0  0  0
    5.2382    2.9602   -1.2388 H   0  0  0  0  0  0  0  0  0  0  0  0
    5.0030    3.9162    0.2354 H   0  0  0  0  0  0  0  0  0  0  0  0
  1  2  1  0
  1 28  1  0
  1 29  1  0
  1 30  1  0
  2  3  1  0
  2 20  1  0
  2 31  1  1
  3  4  1  0
  3 32  1  0
  3 33  1  0
  4  5  2  0
  4  6  1  0
  6  7  1  0
  6 19  1  0
  7  8  1  0
  7 34  1  0
  7 35  1  0
  8  9  1  0
  8 36  1  0
  8 37  1  0
  9 10  1  0
  9 38  1  0
  9 39  1  0
 10 11  1  0
 10 19  1  0
 10 40  1  1
 11 12  2  0
 11 13  1  0
 13 14  1  0
 13 18  1  0
 14 15  1  0
 14 41  1  0
 14 42  1  0
 15 16  1  0
 15 43  1  0
 15 44  1  0
 16 17  1  0
 17 18  1  0
 17 45  1  0
 17 46  1  0
 18 47  1  0
 18 48  1  0
 19 49  1  0
 19 50  1  0
 20 21  1  0
 20 51  1  0
 21 22  2  0
 21 23  1  0
 23 24  1  0
 23 27  1  0
 23 52  1  1
 24 25  1  0
 24 53  1  0
 24 54  1  0
 25 26  1  0
 25 55  1  0
 25 56  1  0
 26 27  1  0
 26 57  1  0
 26 58  1  0
 27 59  1  0
 27 60  1  0
M  END

