
     RDKit          3D

 20 21  0  0  0  0  0  0  0  0999 V2000
    2.9370    1.0674   -1.0973 O   0  0  0  0  0  0  0  0  0  0  0  0
    2.4181    0.0389   -1.4433 C   0  0  0  0  0  0  0  0  0  0  0  0
    3.0104   -1.3177   -1.2427 C   0  0  0  0  0  0  0  0  0  0  0  0
    4.1726   -1.5241   -0.6644 N   0  0  0  0  0  0  0  0  0  0  0  0
    4.3030   -2.8933   -0.7010 O   0  0  0  0  0  0  0  0  0  0  0  0
    3.2023   -3.3961   -1.3009 C   0  0  0  0  0  0  0  0  0  0  0  0
    3.0838   -4.8436   -1.4705 C   0  0  0  0  0  0  0  0  0  0  0  0
    4.1003   -5.7075   -1.0227 C   0  0  0  0  0  0  0  0  0  0  0  0
    3.9482   -7.0811   -1.2041 C   0  0  0  0  0  0  0  0  0  0  0  0
    2.8055   -7.5980   -1.8206 C   0  0  0  0  0  0  0  0  0  0  0  0
    1.7928   -6.7337   -2.2665 C   0  0  0  0  0  0  0  0  0  0  0  0
    0.6638   -7.1765   -2.8702 O   0  0  0  0  0  0  0  0  0  0  0  0
    1.9339   -5.3524   -2.0903 C   0  0  0  0  0  0  0  0  0  0  0  0
    2.3705   -2.4559   -1.6556 N   0  0  0  0  0  0  0  0  0  0  0  0
    1.4260   -0.0002   -1.9566 H   0  0  0  0  0  0  0  0  0  0  0  0
    4.9912   -5.3025   -0.5418 H   0  0  0  0  0  0  0  0  0  0  0  0
    4.7286   -7.7647   -0.8618 H   0  0  0  0  0  0  0  0  0  0  0  0
    2.6963   -8.6784   -1.9578 H   0  0  0  0  0  0  0  0  0  0  0  0
    0.6822   -8.1404   -2.9367 H   0  0  0  0  0  0  0  0  0  0  0  0
    1.1483   -4.6799   -2.4362 H   0  0  0  0  0  0  0  0  0  0  0  0
  1  2  2  0
  2  3  1  0
  2 15  1  0
  3  4  2  0
  3 14  1  0
  4  5  1  0
  5  6  1  0
  6  7  1  0
  6 14  2  0
  7  8  2  0
  7 13  1  0
  8  9  1  0
  8 16  1  0
  9 10  2  0
  9 17  1  0
 10 11  1  0
 10 18  1  0
 11 12  1  0
 11 13  2  0
 12 19  1  0
 13 20  1  0
M  END

