
     RDKit          3D

 69 72  0  0  0  0  0  0  0  0999 V2000
    2.4727   -4.9859   -2.7439 C   0  0  0  0  0  0  0  0  0  0  0  0
    3.9881   -5.0465   -2.5071 C   0  0  2  0  0  0  0  0  0  0  0  0
    4.4112   -5.8407   -3.1362 H   0  0  0  0  0  0  0  0  0  0  0  0
    4.3393   -5.4162   -1.1247 N   0  0  0  0  0  0  0  0  0  0  0  0
    3.8972   -4.8089    0.0094 C   0  0  0  0  0  0  0  0  0  0  0  0
    3.2871   -3.7426    0.0098 O   0  0  0  0  0  0  0  0  0  0  0  0
    4.1829   -5.5603    1.3107 C   0  0  0  0  0  0  0  0  0  0  0  0
    3.1405   -6.6310    1.5837 C   0  0  0  0  0  0  0  0  0  0  0  0
    3.5007   -7.9814    1.6967 C   0  0  0  0  0  0  0  0  0  0  0  0
    2.5334   -8.9618    1.9430 C   0  0  0  0  0  0  0  0  0  0  0  0
    1.1904   -8.6020    2.0771 C   0  0  0  0  0  0  0  0  0  0  0  0
    0.8206   -7.2570    1.9649 C   0  0  0  0  0  0  0  0  0  0  0  0
    1.7867   -6.2792    1.7202 C   0  0  0  0  0  0  0  0  0  0  0  0
    4.7109   -3.7775   -3.0307 C   0  0  0  0  0  0  0  0  0  0  0  0
    5.3592   -3.8330   -4.0642 O   0  0  0  0  0  0  0  0  0  0  0  0
    4.5428   -2.6525   -2.2843 N   0  0  0  0  0  0  0  0  0  0  0  0
    5.0223   -1.3288   -2.6691 C   0  0  2  0  0  0  0  0  0  0  0  0
    4.5537   -0.6342   -1.9518 H   0  0  0  0  0  0  0  0  0  0  0  0
    4.6154   -0.8765   -4.0937 C   0  0  0  0  0  0  0  0  0  0  0  0
    3.1387   -0.8960   -4.3485 C   0  0  0  0  0  0  0  0  0  0  0  0
    2.4624   -1.7941   -5.1437 C   0  0  0  0  0  0  0  0  0  0  0  0
    1.1085   -1.5147   -5.1375 N   0  0  0  0  0  0  0  0  0  0  0  0
    0.4065   -2.0118   -5.6675 H   0  0  0  0  0  0  0  0  0  0  0  0
    0.8753   -0.4187   -4.3361 C   0  0  0  0  0  0  0  0  0  0  0  0
   -0.3190    0.2459   -4.0239 C   0  0  0  0  0  0  0  0  0  0  0  0
   -0.2428    1.3504   -3.1793 C   0  0  0  0  0  0  0  0  0  0  0  0
    0.9949    1.7886   -2.6592 C   0  0  0  0  0  0  0  0  0  0  0  0
    2.1792    1.1275   -2.9714 C   0  0  0  0  0  0  0  0  0  0  0  0
    2.1363    0.0015   -3.8178 C   0  0  0  0  0  0  0  0  0  0  0  0
    6.5424   -1.1220   -2.4694 C   0  0  0  0  0  0  0  0  0  0  0  0
    7.1085   -0.1488   -2.9427 O   0  0  0  0  0  0  0  0  0  0  0  0
    7.1781   -2.0457   -1.7008 N   0  0  0  0  0  0  0  0  0  0  0  0
    8.5936   -1.9475   -1.4008 C   0  0  0  0  0  0  0  0  0  0  0  0
    8.9033   -1.0496   -0.1841 C   0  0  0  0  0  0  0  0  0  0  0  0
   10.3865   -0.9203    0.0774 C   0  0  0  0  0  0  0  0  0  0  0  0
   11.1639   -0.0141   -0.6640 C   0  0  0  0  0  0  0  0  0  0  0  0
   12.5423    0.0848   -0.4587 C   0  0  0  0  0  0  0  0  0  0  0  0
   13.1713   -0.7230    0.4942 C   0  0  0  0  0  0  0  0  0  0  0  0
   12.4109   -1.6288    1.2390 C   0  0  0  0  0  0  0  0  0  0  0  0
   11.0318   -1.7254    1.0294 C   0  0  0  0  0  0  0  0  0  0  0  0
    1.9989   -4.2080   -2.1309 H   0  0  0  0  0  0  0  0  0  0  0  0
    2.0118   -5.9551   -2.4972 H   0  0  0  0  0  0  0  0  0  0  0  0
    2.2743   -4.7641   -3.8029 H   0  0  0  0  0  0  0  0  0  0  0  0
    4.8069   -6.3079   -1.0124 H   0  0  0  0  0  0  0  0  0  0  0  0
    4.1752   -4.8021    2.1076 H   0  0  0  0  0  0  0  0  0  0  0  0
    5.1873   -6.0116    1.2818 H   0  0  0  0  0  0  0  0  0  0  0  0
    4.5515   -8.2715    1.6013 H   0  0  0  0  0  0  0  0  0  0  0  0
    2.8331  -10.0091    2.0327 H   0  0  0  0  0  0  0  0  0  0  0  0
    0.4334   -9.3660    2.2712 H   0  0  0  0  0  0  0  0  0  0  0  0
   -0.2280   -6.9672    2.0709 H   0  0  0  0  0  0  0  0  0  0  0  0
    1.4951   -5.2294    1.6301 H   0  0  0  0  0  0  0  0  0  0  0  0
    3.9305   -2.7330   -1.4681 H   0  0  0  0  0  0  0  0  0  0  0  0
    5.1292   -1.5197   -4.8197 H   0  0  0  0  0  0  0  0  0  0  0  0
    5.0239    0.1377   -4.2159 H   0  0  0  0  0  0  0  0  0  0  0  0
    2.8623   -2.6220   -5.7272 H   0  0  0  0  0  0  0  0  0  0  0  0
   -1.2774   -0.0879   -4.4304 H   0  0  0  0  0  0  0  0  0  0  0  0
   -1.1567    1.8898   -2.9174 H   0  0  0  0  0  0  0  0  0  0  0  0
    1.0196    2.6633   -2.0045 H   0  0  0  0  0  0  0  0  0  0  0  0
    3.1314    1.4857   -2.5707 H   0  0  0  0  0  0  0  0  0  0  0  0
    6.6303   -2.8119   -1.3309 H   0  0  0  0  0  0  0  0  0  0  0  0
    9.0976   -1.5349   -2.2875 H   0  0  0  0  0  0  0  0  0  0  0  0
    8.9904   -2.9618   -1.2347 H   0  0  0  0  0  0  0  0  0  0  0  0
    8.3950   -1.4584    0.7053 H   0  0  0  0  0  0  0  0  0  0  0  0
    8.4670   -0.0580   -0.3826 H   0  0  0  0  0  0  0  0  0  0  0  0
   10.6779    0.6243   -1.4079 H   0  0  0  0  0  0  0  0  0  0  0  0
   13.1280    0.7995   -1.0430 H   0  0  0  0  0  0  0  0  0  0  0  0
   14.2492   -0.6437    0.6580 H   0  0  0  0  0  0  0  0  0  0  0  0
   12.8924   -2.2612    1.9898 H   0  0  0  0  0  0  0  0  0  0  0  0
   10.4435   -2.4332    1.6215 H   0  0  0  0  0  0  0  0  0  0  0  0
  1  2  1  0
  1 41  1  0
  1 42  1  0
  1 43  1  0
  2  3  1  6
  2  4  1  0
  2 14  1  0
  4  5  1  0
  4 44  1  0
  5  6  2  0
  5  7  1  0
  7  8  1  0
  7 45  1  0
  7 46  1  0
  8  9  2  0
  8 13  1  0
  9 10  1  0
  9 47  1  0
 10 11  2  0
 10 48  1  0
 11 12  1  0
 11 49  1  0
 12 13  2  0
 12 50  1  0
 13 51  1  0
 14 15  2  0
 14 16  1  0
 16 17  1  0
 16 52  1  0
 17 18  1  1
 17 19  1  0
 17 30  1  0
 19 20  1  0
 19 53  1  0
 19 54  1  0
 20 21  2  0
 20 29  1  0
 21 22  1  0
 21 55  1  0
 22 23  1  0
 22 24  1  0
 24 25  1  0
 24 29  2  0
 25 26  2  0
 25 56  1  0
 26 27  1  0
 26 57  1  0
 27 28  2  0
 27 58  1  0
 28 29  1  0
 28 59  1  0
 30 31  2  0
 30 32  1  0
 32 33  1  0
 32 60  1  0
 33 34  1  0
 33 61  1  0
 33 62  1  0
 34 35  1  0
 34 63  1  0
 34 64  1  0
 35 36  2  0
 35 40  1  0
 36 37  1  0
 36 65  1  0
 37 38  2  0
 37 66  1  0
 38 39  1  0
 38 67  1  0
 39 40  2  0
 39 68  1  0
 40 69  1  0
M  END

