
     RDKit          3D

 64 69  0  0  0  0  0  0  0  0999 V2000
    0.9769    0.2891   -0.2950 O   0  0  0  0  0  0  0  0  0  0  0  0
    2.1770    0.1644   -0.1769 C   0  0  0  0  0  0  0  0  0  0  0  0
    3.0083    1.1012    0.6958 C   0  0  0  0  0  0  0  0  0  0  0  0
    4.0260    0.4271    1.4956 N   0  0  0  0  0  0  0  0  0  0  0  0
    4.9365   -0.4658    0.7503 C   0  0  1  0  0  0  0  0  0  0  0  0
    5.8997    0.3828   -0.1181 C   0  0  0  0  0  0  0  0  0  0  0  0
    6.8264    1.2825    0.7113 C   0  0  0  0  0  0  0  0  0  0  0  0
    7.6560    0.5123    1.7547 C   0  0  2  0  0  0  0  0  0  0  0  0
    8.7978   -0.3459    1.1473 C   0  0  0  0  0  0  0  0  0  0  0  0
    9.8281    0.4353    0.3718 C   0  0  0  0  0  0  0  0  0  0  0  0
   10.8217    1.1920    1.0051 C   0  0  0  0  0  0  0  0  0  0  0  0
   10.8343    1.2107    2.3502 F   0  0  0  0  0  0  0  0  0  0  0  0
   11.7903    1.9219    0.3263 C   0  0  0  0  0  0  0  0  0  0  0  0
   11.8000    1.9300   -1.0805 C   0  0  0  0  0  0  0  0  0  0  0  0
   12.8183    2.7088   -1.8338 C   0  0  0  0  0  0  0  0  0  0  0  0
   14.1395    2.8673   -1.3119 C   0  0  0  0  0  0  0  0  0  0  0  0
   15.0970    3.5843   -1.9932 C   0  0  0  0  0  0  0  0  0  0  0  0
   14.7980    4.1944   -3.2418 C   0  0  0  0  0  0  0  0  0  0  0  0
   15.7343    4.9483   -3.9972 C   0  0  0  0  0  0  0  0  0  0  0  0
   15.3412    5.5000   -5.1965 C   0  0  0  0  0  0  0  0  0  0  0  0
   14.0054    5.2936   -5.6367 C   0  0  0  0  0  0  0  0  0  0  0  0
   13.1092    4.6023   -4.9690 N   0  0  0  0  0  0  0  0  0  0  0  0
   13.4780    4.0457   -3.7806 C   0  0  0  0  0  0  0  0  0  0  0  0
   12.5145    3.2981   -3.0526 C   0  0  0  0  0  0  0  0  0  0  0  0
   10.8182    1.1828   -1.7545 C   0  0  0  0  0  0  0  0  0  0  0  0
    9.8722    0.4694   -1.0268 C   0  0  0  0  0  0  0  0  0  0  0  0
    8.9547   -0.2428   -1.7090 F   0  0  0  0  0  0  0  0  0  0  0  0
    6.7119   -0.3438    2.6199 C   0  0  0  0  0  0  0  0  0  0  0  0
    5.7843   -1.2386    1.7880 C   0  0  0  0  0  0  0  0  0  0  0  0
    4.1278   -1.4945   -0.0848 C   0  0  0  0  0  0  0  0  0  0  0  0
    2.9480   -0.9338   -0.9160 C   0  0  2  0  0  0  0  0  0  0  0  0
    3.3315   -0.4374   -2.3120 C   0  0  1  0  0  0  0  0  0  0  0  0
    3.3314   -1.4074   -3.4696 C   0  0  0  0  0  0  0  0  0  0  0  0
    2.2756   -0.3342   -3.3815 C   0  0  0  0  0  0  0  0  0  0  0  0
    2.3216    1.6610    1.3484 H   0  0  0  0  0  0  0  0  0  0  0  0
    3.4872    1.8464    0.0337 H   0  0  0  0  0  0  0  0  0  0  0  0
    3.5721   -0.1034    2.2391 H   0  0  0  0  0  0  0  0  0  0  0  0
    5.3344    1.0135   -0.8207 H   0  0  0  0  0  0  0  0  0  0  0  0
    6.4917   -0.2998   -0.7486 H   0  0  0  0  0  0  0  0  0  0  0  0
    6.2093    2.0232    1.2447 H   0  0  0  0  0  0  0  0  0  0  0  0
    7.4878    1.8520    0.0374 H   0  0  0  0  0  0  0  0  0  0  0  0
    8.1415    1.2504    2.4151 H   0  0  0  0  0  0  0  0  0  0  0  0
    8.3885   -1.1272    0.4914 H   0  0  0  0  0  0  0  0  0  0  0  0
    9.3067   -0.8612    1.9780 H   0  0  0  0  0  0  0  0  0  0  0  0
   12.5086    2.4984    0.9098 H   0  0  0  0  0  0  0  0  0  0  0  0
   14.4006    2.3878   -0.3664 H   0  0  0  0  0  0  0  0  0  0  0  0
   16.1054    3.6841   -1.5819 H   0  0  0  0  0  0  0  0  0  0  0  0
   16.7518    5.0814   -3.6183 H   0  0  0  0  0  0  0  0  0  0  0  0
   16.0308    6.0872   -5.8070 H   0  0  0  0  0  0  0  0  0  0  0  0
   13.6816    5.7298   -6.5906 H   0  0  0  0  0  0  0  0  0  0  0  0
   11.5164    3.2310   -3.4883 H   0  0  0  0  0  0  0  0  0  0  0  0
   10.7900    1.1257   -2.8429 H   0  0  0  0  0  0  0  0  0  0  0  0
    6.0935    0.3320    3.2314 H   0  0  0  0  0  0  0  0  0  0  0  0
    7.2949   -0.9645    3.3220 H   0  0  0  0  0  0  0  0  0  0  0  0
    5.1069   -1.7979    2.4585 H   0  0  0  0  0  0  0  0  0  0  0  0
    6.3681   -2.0047    1.2501 H   0  0  0  0  0  0  0  0  0  0  0  0
    3.7092   -2.2221    0.6331 H   0  0  0  0  0  0  0  0  0  0  0  0
    4.7996   -2.0691   -0.7454 H   0  0  0  0  0  0  0  0  0  0  0  0
    2.2129   -1.7410   -1.0679 H   0  0  0  0  0  0  0  0  0  0  0  0
    4.1132    0.3270   -2.3391 H   0  0  0  0  0  0  0  0  0  0  0  0
    3.0313   -2.4403   -3.2672 H   0  0  0  0  0  0  0  0  0  0  0  0
    4.1145   -1.3112   -4.2270 H   0  0  0  0  0  0  0  0  0  0  0  0
    1.2580   -0.6275   -3.1089 H   0  0  0  0  0  0  0  0  0  0  0  0
    2.3263    0.5058   -4.0797 H   0  0  0  0  0  0  0  0  0  0  0  0
  1  2  2  0
  2  3  1  0
  2 31  1  0
  3  4  1  0
  3 35  1  0
  3 36  1  0
  5  4  1  1
  4 37  1  0
  5  6  1  0
  5 29  1  0
  5 30  1  0
  6  7  1  0
  6 38  1  0
  6 39  1  0
  7  8  1  0
  7 40  1  0
  7 41  1  0
  8  9  1  0
  8 28  1  0
  8 42  1  1
  9 10  1  0
  9 43  1  0
  9 44  1  0
 10 11  2  0
 10 26  1  0
 11 12  1  0
 11 13  1  0
 13 14  2  0
 13 45  1  0
 14 15  1  0
 14 25  1  0
 15 16  2  0
 15 24  1  0
 16 17  1  0
 16 46  1  0
 17 18  2  0
 17 47  1  0
 18 19  1  0
 18 23  1  0
 19 20  2  0
 19 48  1  0
 20 21  1  0
 20 49  1  0
 21 22  2  0
 21 50  1  0
 22 23  1  0
 23 24  2  0
 24 51  1  0
 25 26  2  0
 25 52  1  0
 26 27  1  0
 28 29  1  0
 28 53  1  0
 28 54  1  0
 29 55  1  0
 29 56  1  0
 30 31  1  0
 30 57  1  0
 30 58  1  0
 31 32  1  0
 31 59  1  6
 32 33  1  0
 32 34  1  0
 32 60  1  1
 33 34  1  0
 33 61  1  0
 33 62  1  0
 34 63  1  0
 34 64  1  0
M  END

