
     RDKit          3D

 64 68  0  0  0  0  0  0  0  0999 V2000
   11.3149   -1.7371    0.1425 C   0  0  0  0  0  0  0  0  0  0  0  0
   10.0617   -1.0009   -0.3253 C   0  0  0  0  0  0  0  0  0  0  0  0
    9.4240   -0.2297    0.7336 N   0  0  0  0  0  0  0  0  0  0  0  0
    9.4663    1.1206    0.9277 C   0  0  0  0  0  0  0  0  0  0  0  0
    8.7676    1.3790    2.0885 C   0  0  0  0  0  0  0  0  0  0  0  0
    8.3340    0.1030    2.5380 C   0  0  0  0  0  0  0  0  0  0  0  0
    7.5160   -0.0386    3.7931 C   0  0  0  0  0  0  0  0  0  0  0  0
    7.2534    0.9995    4.3959 O   0  0  0  0  0  0  0  0  0  0  0  0
    7.0870   -1.2606    4.2451 N   0  0  0  0  0  0  0  0  0  0  0  0
    6.2856   -1.3081    5.4687 C   0  0  0  0  0  0  0  0  0  0  0  0
    4.9242   -1.9654    5.2153 C   0  0  0  0  0  0  0  0  0  0  0  0
    5.0284   -3.3418    4.5336 C   0  0  2  0  0  0  0  0  0  0  0  0
    5.5105   -4.3791    5.4444 N   0  0  0  0  0  0  0  0  0  0  0  0
    5.5317   -5.7639    4.9411 C   0  0  0  0  0  0  0  0  0  0  0  0
    5.0023   -6.2791    6.3076 C   0  0  2  0  0  0  0  0  0  0  0  0
    6.0959   -6.8918    7.1955 C   0  0  0  0  0  0  0  0  0  0  0  0
    6.4607   -8.3202    6.7640 C   0  0  0  0  0  0  0  0  0  0  0  0
    5.2302   -9.2332    6.7225 C   0  0  0  0  0  0  0  0  0  0  0  0
    4.1346   -8.6354    5.8326 C   0  0  0  0  0  0  0  0  0  0  0  0
    3.7801   -7.2053    6.2625 C   0  0  0  0  0  0  0  0  0  0  0  0
    4.6666   -4.7646    6.5932 C   0  0  1  0  0  0  0  0  0  0  0  0
    4.9693   -4.1698    7.9489 C   0  0  0  0  0  0  0  0  0  0  0  0
    6.2610   -3.7464    8.2993 C   0  0  0  0  0  0  0  0  0  0  0  0
    6.5278   -3.2441    9.5758 C   0  0  0  0  0  0  0  0  0  0  0  0
    5.5072   -3.1611   10.5283 C   0  0  0  0  0  0  0  0  0  0  0  0
    4.2162   -3.5792   10.1922 C   0  0  0  0  0  0  0  0  0  0  0  0
    3.9517   -4.0747    8.9123 C   0  0  0  0  0  0  0  0  0  0  0  0
    5.9492   -3.2287    3.3053 C   0  0  0  0  0  0  0  0  0  0  0  0
    7.2951   -2.5713    3.6340 C   0  0  0  0  0  0  0  0  0  0  0  0
    8.7474   -0.8561    1.7000 N   0  0  0  0  0  0  0  0  0  0  0  0
   11.7446   -2.3200   -0.6873 H   0  0  0  0  0  0  0  0  0  0  0  0
   11.0718   -2.4282    0.9630 H   0  0  0  0  0  0  0  0  0  0  0  0
   12.0798   -1.0307    0.5011 H   0  0  0  0  0  0  0  0  0  0  0  0
    9.3152   -1.7124   -0.7111 H   0  0  0  0  0  0  0  0  0  0  0  0
   10.2981   -0.2976   -1.1382 H   0  0  0  0  0  0  0  0  0  0  0  0
    9.9794    1.7780    0.2288 H   0  0  0  0  0  0  0  0  0  0  0  0
    8.5694    2.3305    2.5716 H   0  0  0  0  0  0  0  0  0  0  0  0
    6.1645   -0.2801    5.8280 H   0  0  0  0  0  0  0  0  0  0  0  0
    6.8411   -1.8754    6.2342 H   0  0  0  0  0  0  0  0  0  0  0  0
    4.3293   -1.3073    4.5594 H   0  0  0  0  0  0  0  0  0  0  0  0
    4.3735   -2.0443    6.1661 H   0  0  0  0  0  0  0  0  0  0  0  0
    4.0094   -3.6217    4.1743 H   0  0  0  0  0  0  0  0  0  0  0  0
    6.5215   -6.1247    4.6116 H   0  0  0  0  0  0  0  0  0  0  0  0
    4.8072   -5.9388    4.1187 H   0  0  0  0  0  0  0  0  0  0  0  0
    5.7378   -6.9079    8.2402 H   0  0  0  0  0  0  0  0  0  0  0  0
    6.9932   -6.2540    7.1880 H   0  0  0  0  0  0  0  0  0  0  0  0
    7.2239   -8.7314    7.4459 H   0  0  0  0  0  0  0  0  0  0  0  0
    6.9272   -8.2957    5.7619 H   0  0  0  0  0  0  0  0  0  0  0  0
    4.8364   -9.3602    7.7481 H   0  0  0  0  0  0  0  0  0  0  0  0
    5.5077  -10.2407    6.3690 H   0  0  0  0  0  0  0  0  0  0  0  0
    3.2318   -9.2690    5.8495 H   0  0  0  0  0  0  0  0  0  0  0  0
    4.4835   -8.6248    4.7831 H   0  0  0  0  0  0  0  0  0  0  0  0
    3.3277   -7.2303    7.2719 H   0  0  0  0  0  0  0  0  0  0  0  0
    3.0143   -6.7837    5.5897 H   0  0  0  0  0  0  0  0  0  0  0  0
    3.5892   -4.6017    6.3761 H   0  0  0  0  0  0  0  0  0  0  0  0
    7.0536   -3.8081    7.5515 H   0  0  0  0  0  0  0  0  0  0  0  0
    7.5388   -2.9131    9.8279 H   0  0  0  0  0  0  0  0  0  0  0  0
    5.7156   -2.7663   11.5261 H   0  0  0  0  0  0  0  0  0  0  0  0
    3.4091   -3.5112   10.9266 H   0  0  0  0  0  0  0  0  0  0  0  0
    2.9355   -4.3869    8.6525 H   0  0  0  0  0  0  0  0  0  0  0  0
    5.4364   -2.6240    2.5383 H   0  0  0  0  0  0  0  0  0  0  0  0
    6.1232   -4.2217    2.8595 H   0  0  0  0  0  0  0  0  0  0  0  0
    7.9042   -2.4666    2.7331 H   0  0  0  0  0  0  0  0  0  0  0  0
    7.8459   -3.2077    4.3507 H   0  0  0  0  0  0  0  0  0  0  0  0
  1  2  1  0
  1 31  1  0
  1 32  1  0
  1 33  1  0
  2  3  1  0
  2 34  1  0
  2 35  1  0
  3  4  1  0
  3 30  1  0
  4  5  2  0
  4 36  1  0
  5  6  1  0
  5 37  1  0
  6  7  1  0
  6 30  2  0
  7  8  2  0
  7  9  1  0
  9 10  1  0
  9 29  1  0
 10 11  1  0
 10 38  1  0
 10 39  1  0
 11 12  1  0
 11 40  1  0
 11 41  1  0
 12 13  1  0
 12 28  1  0
 12 42  1  6
 13 14  1  0
 13 21  1  0
 15 14  1  6
 14 43  1  0
 14 44  1  0
 15 16  1  0
 15 20  1  0
 15 21  1  0
 16 17  1  0
 16 45  1  0
 16 46  1  0
 17 18  1  0
 17 47  1  0
 17 48  1  0
 18 19  1  0
 18 49  1  0
 18 50  1  0
 19 20  1  0
 19 51  1  0
 19 52  1  0
 20 53  1  0
 20 54  1  0
 21 22  1  0
 21 55  1  6
 22 23  2  0
 22 27  1  0
 23 24  1  0
 23 56  1  0
 24 25  2  0
 24 57  1  0
 25 26  1  0
 25 58  1  0
 26 27  2  0
 26 59  1  0
 27 60  1  0
 28 29  1  0
 28 61  1  0
 28 62  1  0
 29 63  1  0
 29 64  1  0
M  END

