
     RDKit          3D

 37 37  0  0  0  0  0  0  0  0999 V2000
    3.1578    1.3576   -0.0874 C   0  0  0  0  0  0  0  0  0  0  0  0
    2.3874    0.0529    0.1771 C   0  0  1  0  0  0  0  0  0  0  0  0
    0.8905    0.3092   -0.0198 C   0  0  0  0  0  0  0  0  0  0  0  0
    2.9333   -1.0218   -0.6769 N   0  0  0  0  0  0  0  0  0  0  0  0
    4.2045   -1.5662   -0.1934 C   0  0  0  0  0  0  0  0  0  0  0  0
    4.0174   -2.6983    0.8324 C   0  0  0  0  0  0  0  0  0  0  0  0
    3.1693   -3.7759    0.3287 N   0  0  0  0  0  0  0  0  0  0  0  0
    3.8423   -4.8234   -0.4231 C   0  0  0  0  0  0  0  0  0  0  0  0
    4.4655   -5.8763    0.5012 C   0  0  0  0  0  0  0  0  0  0  0  0
    5.1014   -7.0327   -0.2548 C   0  0  0  0  0  0  0  0  0  0  0  0
    5.0799   -7.1604   -1.4483 O   0  0  0  0  0  0  0  0  0  0  0  0
    5.7145   -7.9626    0.5187 O   0  0  0  0  0  0  0  0  0  0  0  0
    1.9104   -3.2533   -0.1943 C   0  0  0  0  0  0  0  0  0  0  0  0
    2.0558   -2.0845   -1.2011 C   0  0  2  0  0  0  0  0  0  0  0  0
    2.5192   -2.5324   -2.5962 C   0  0  0  0  0  0  0  0  0  0  0  0
    2.8345    2.1528    0.6040 H   0  0  0  0  0  0  0  0  0  0  0  0
    2.9820    1.6951   -1.1214 H   0  0  0  0  0  0  0  0  0  0  0  0
    4.2433    1.2313    0.0404 H   0  0  0  0  0  0  0  0  0  0  0  0
    2.5226   -0.1996    1.2529 H   0  0  0  0  0  0  0  0  0  0  0  0
    0.6578    0.5455   -1.0712 H   0  0  0  0  0  0  0  0  0  0  0  0
    0.5906    1.1762    0.5886 H   0  0  0  0  0  0  0  0  0  0  0  0
    0.2640   -0.5394    0.2931 H   0  0  0  0  0  0  0  0  0  0  0  0
    4.8080   -0.7575    0.2456 H   0  0  0  0  0  0  0  0  0  0  0  0
    4.7882   -1.9459   -1.0505 H   0  0  0  0  0  0  0  0  0  0  0  0
    3.5557   -2.2880    1.7506 H   0  0  0  0  0  0  0  0  0  0  0  0
    4.9963   -3.1065    1.1346 H   0  0  0  0  0  0  0  0  0  0  0  0
    4.6292   -4.4502   -1.1094 H   0  0  0  0  0  0  0  0  0  0  0  0
    3.1106   -5.3290   -1.0697 H   0  0  0  0  0  0  0  0  0  0  0  0
    3.6893   -6.2738    1.1795 H   0  0  0  0  0  0  0  0  0  0  0  0
    5.2318   -5.4211    1.1547 H   0  0  0  0  0  0  0  0  0  0  0  0
    5.6426   -7.7238    1.4539 H   0  0  0  0  0  0  0  0  0  0  0  0
    1.3176   -2.8857    0.6658 H   0  0  0  0  0  0  0  0  0  0  0  0
    1.3352   -4.0807   -0.6413 H   0  0  0  0  0  0  0  0  0  0  0  0
    1.0539   -1.6569   -1.3376 H   0  0  0  0  0  0  0  0  0  0  0  0
    3.5208   -2.9867   -2.5904 H   0  0  0  0  0  0  0  0  0  0  0  0
    2.5521   -1.6652   -3.2729 H   0  0  0  0  0  0  0  0  0  0  0  0
    1.8243   -3.2777   -3.0164 H   0  0  0  0  0  0  0  0  0  0  0  0
  1  2  1  0
  1 16  1  0
  1 17  1  0
  1 18  1  0
  2  3  1  0
  2  4  1  0
  2 19  1  1
  3 20  1  0
  3 21  1  0
  3 22  1  0
  4  5  1  0
  4 14  1  0
  5  6  1  0
  5 23  1  0
  5 24  1  0
  6  7  1  0
  6 25  1  0
  6 26  1  0
  7  8  1  0
  7 13  1  0
  8  9  1  0
  8 27  1  0
  8 28  1  0
  9 10  1  0
  9 29  1  0
  9 30  1  0
 10 11  2  0
 10 12  1  0
 12 31  1  0
 13 14  1  0
 13 32  1  0
 13 33  1  0
 14 15  1  0
 14 34  1  6
 15 35  1  0
 15 36  1  0
 15 37  1  0
M  END

