
     RDKit          3D

 52 53  0  0  0  0  0  0  0  0999 V2000
    2.3453   -1.0783    1.6785 C   0  0  0  0  0  0  0  0  0  0  0  0
    3.2679   -0.6925    0.5106 C   0  0  1  0  0  0  0  0  0  0  0  0
    3.9411   -1.9491   -0.0576 C   0  0  0  0  0  0  0  0  0  0  0  0
    2.5254    0.1056   -0.6007 C   0  0  1  0  0  0  0  0  0  0  0  0
    1.6921    1.2989   -0.0640 C   0  0  0  0  0  0  0  0  0  0  0  0
    2.4207    2.2822    0.7233 N   0  0  0  0  0  0  0  0  0  0  0  0
    2.7003    3.5419    0.2538 C   0  0  0  0  0  0  0  0  0  0  0  0
    2.3601    3.9239   -0.8575 O   0  0  0  0  0  0  0  0  0  0  0  0
    3.4252    4.3787    1.1150 N   0  0  0  0  0  0  0  0  0  0  0  0
    3.6295    5.7497    0.6536 C   0  0  0  0  0  0  0  0  0  0  0  0
    2.4907    6.6798    1.0899 C   0  0  0  0  0  0  0  0  0  0  0  0
    2.3443    6.6997    2.8997 S   0  0  2  0  0  0  0  0  0  0  0  0
    1.0627    7.3033    3.2880 O   0  0  0  0  0  0  0  0  0  0  0  0
    3.6173    7.2201    3.4350 O   0  0  0  0  0  0  0  0  0  0  0  0
    2.3011    4.9004    3.2914 C   0  0  2  0  0  0  0  0  0  0  0  0
    2.3339    4.7445    4.8076 C   0  0  0  0  0  0  0  0  0  0  0  0
    3.4752    4.2191    2.5619 C   0  0  0  0  0  0  0  0  0  0  0  0
    3.3551    0.5141   -1.7310 N   0  0  0  0  0  0  0  0  0  0  0  0
    3.3020   -0.2397   -2.9708 C   0  0  0  0  0  0  0  0  0  0  0  0
    3.7079    0.6626   -4.1373 C   0  0  0  0  0  0  0  0  0  0  0  0
    4.9788    1.2404   -3.9189 O   0  0  0  0  0  0  0  0  0  0  0  0
    5.0081    1.9970   -2.7230 C   0  0  0  0  0  0  0  0  0  0  0  0
    4.6530    1.1300   -1.5148 C   0  0  0  0  0  0  0  0  0  0  0  0
    2.8861   -1.6995    2.4103 H   0  0  0  0  0  0  0  0  0  0  0  0
    1.4810   -1.6664    1.3246 H   0  0  0  0  0  0  0  0  0  0  0  0
    1.9465   -0.2090    2.2250 H   0  0  0  0  0  0  0  0  0  0  0  0
    4.0665   -0.0428    0.9147 H   0  0  0  0  0  0  0  0  0  0  0  0
    3.1924   -2.6410   -0.4799 H   0  0  0  0  0  0  0  0  0  0  0  0
    4.4863   -2.4925    0.7310 H   0  0  0  0  0  0  0  0  0  0  0  0
    4.6597   -1.7093   -0.8535 H   0  0  0  0  0  0  0  0  0  0  0  0
    1.7682   -0.5819   -1.0191 H   0  0  0  0  0  0  0  0  0  0  0  0
    0.8478    0.9176    0.5354 H   0  0  0  0  0  0  0  0  0  0  0  0
    1.2787    1.8351   -0.9269 H   0  0  0  0  0  0  0  0  0  0  0  0
    2.8007    1.9841    1.6100 H   0  0  0  0  0  0  0  0  0  0  0  0
    3.6831    5.7398   -0.4413 H   0  0  0  0  0  0  0  0  0  0  0  0
    4.5826    6.1244    1.0581 H   0  0  0  0  0  0  0  0  0  0  0  0
    1.5197    6.3629    0.6827 H   0  0  0  0  0  0  0  0  0  0  0  0
    2.6755    7.7314    0.8213 H   0  0  0  0  0  0  0  0  0  0  0  0
    1.3420    4.5500    2.8766 H   0  0  0  0  0  0  0  0  0  0  0  0
    3.2720    5.1450    5.2203 H   0  0  0  0  0  0  0  0  0  0  0  0
    2.2517    3.6807    5.0822 H   0  0  0  0  0  0  0  0  0  0  0  0
    1.4956    5.2856    5.2698 H   0  0  0  0  0  0  0  0  0  0  0  0
    3.5081    3.1578    2.8494 H   0  0  0  0  0  0  0  0  0  0  0  0
    4.4166    4.6578    2.9324 H   0  0  0  0  0  0  0  0  0  0  0  0
    2.2764   -0.6075   -3.1378 H   0  0  0  0  0  0  0  0  0  0  0  0
    3.9765   -1.1271   -2.9655 H   0  0  0  0  0  0  0  0  0  0  0  0
    2.9422    1.4550   -4.2651 H   0  0  0  0  0  0  0  0  0  0  0  0
    3.7750    0.0827   -5.0715 H   0  0  0  0  0  0  0  0  0  0  0  0
    4.2918    2.8404   -2.7770 H   0  0  0  0  0  0  0  0  0  0  0  0
    6.0290    2.3991   -2.6269 H   0  0  0  0  0  0  0  0  0  0  0  0
    4.6322    1.7596   -0.6146 H   0  0  0  0  0  0  0  0  0  0  0  0
    5.4627    0.3762   -1.3758 H   0  0  0  0  0  0  0  0  0  0  0  0
  1  2  1  0
  1 24  1  0
  1 25  1  0
  1 26  1  0
  2  3  1  0
  2  4  1  0
  2 27  1  1
  3 28  1  0
  3 29  1  0
  3 30  1  0
  4  5  1  0
  4 18  1  0
  4 31  1  6
  5  6  1  0
  5 32  1  0
  5 33  1  0
  6  7  1  0
  6 34  1  0
  7  8  2  0
  7  9  1  0
  9 10  1  0
  9 17  1  0
 10 11  1  0
 10 35  1  0
 10 36  1  0
 12 11  1  6
 11 37  1  0
 11 38  1  0
 12 13  2  0
 12 14  2  0
 12 15  1  0
 15 16  1  0
 15 17  1  0
 15 39  1  6
 16 40  1  0
 16 41  1  0
 16 42  1  0
 17 43  1  0
 17 44  1  0
 18 19  1  0
 18 23  1  0
 19 20  1  0
 19 45  1  0
 19 46  1  0
 20 21  1  0
 20 47  1  0
 20 48  1  0
 21 22  1  0
 22 23  1  0
 22 49  1  0
 22 50  1  0
 23 51  1  0
 23 52  1  0
M  END

