
     RDKit          3D

 54 57  0  0  0  0  0  0  0  0999 V2000
    1.3809    1.4750   -1.3883 C   0  0  0  0  0  0  0  0  0  0  0  0
    2.8241    1.1060   -1.7292 C   0  0  0  0  0  0  0  0  0  0  0  0
    3.2195   -0.2984   -1.2390 C   0  0  0  0  0  0  0  0  0  0  0  0
    4.6615   -0.6337   -1.5281 C   0  0  0  0  0  0  0  0  0  0  0  0
    5.0504   -1.4902   -2.5722 C   0  0  0  0  0  0  0  0  0  0  0  0
    6.4057   -1.7043   -2.7645 C   0  0  0  0  0  0  0  0  0  0  0  0
    7.3003   -1.0492   -1.9023 C   0  0  0  0  0  0  0  0  0  0  0  0
    8.7995   -1.1779   -2.0256 C   0  0  0  0  0  0  0  0  0  0  0  0
    9.4411    0.0565   -2.6780 C   0  0  0  0  0  0  0  0  0  0  0  0
   10.9584   -0.0355   -2.7281 C   0  0  0  0  0  0  0  0  0  0  0  0
   11.4472    1.1280   -3.3729 O   0  0  0  0  0  0  0  0  0  0  0  0
   12.7786    1.2996   -3.5523 C   0  0  0  0  0  0  0  0  0  0  0  0
   13.1719    2.4794   -4.2075 C   0  0  0  0  0  0  0  0  0  0  0  0
   14.5168    2.7212   -4.4254 C   0  0  0  0  0  0  0  0  0  0  0  0
   15.5186    1.8157   -4.0083 C   0  0  0  0  0  0  0  0  0  0  0  0
   16.9175    2.1792   -4.2976 C   0  0  0  0  0  0  0  0  0  0  0  0
   17.2154    3.2611   -4.9916 N   0  0  0  0  0  0  0  0  0  0  0  0
   18.6031    3.2607   -5.0367 O   0  0  0  0  0  0  0  0  0  0  0  0
   19.0182    2.1783   -4.3686 C   0  0  0  0  0  0  0  0  0  0  0  0
   20.4637    1.9391   -4.2644 C   0  0  1  0  0  0  0  0  0  0  0  0
   21.0185    1.3119   -2.9966 C   0  0  0  0  0  0  0  0  0  0  0  0
   20.9771    0.5094   -4.2560 C   0  0  0  0  0  0  0  0  0  0  0  0
   18.0336    1.4741   -3.8920 N   0  0  0  0  0  0  0  0  0  0  0  0
   15.1300    0.6252   -3.3482 C   0  0  0  0  0  0  0  0  0  0  0  0
   16.1047   -0.4205   -2.8592 C   0  0  0  0  0  0  0  0  0  0  0  0
   13.7595    0.3919   -3.1333 C   0  0  0  0  0  0  0  0  0  0  0  0
    6.8621   -0.2451   -0.9250 N   0  0  0  0  0  0  0  0  0  0  0  0
    5.5711   -0.0416   -0.7414 N   0  0  0  0  0  0  0  0  0  0  0  0
    1.1308    2.4858   -1.7476 H   0  0  0  0  0  0  0  0  0  0  0  0
    1.2104    1.4569   -0.2990 H   0  0  0  0  0  0  0  0  0  0  0  0
    0.6642    0.7724   -1.8464 H   0  0  0  0  0  0  0  0  0  0  0  0
    3.5198    1.8334   -1.2785 H   0  0  0  0  0  0  0  0  0  0  0  0
    2.9795    1.1667   -2.8213 H   0  0  0  0  0  0  0  0  0  0  0  0
    2.5618   -1.0553   -1.6989 H   0  0  0  0  0  0  0  0  0  0  0  0
    3.0687   -0.3512   -0.1481 H   0  0  0  0  0  0  0  0  0  0  0  0
    4.3009   -1.9726   -3.2048 H   0  0  0  0  0  0  0  0  0  0  0  0
    6.7734   -2.3630   -3.5556 H   0  0  0  0  0  0  0  0  0  0  0  0
    9.0481   -2.0851   -2.6016 H   0  0  0  0  0  0  0  0  0  0  0  0
    9.2113   -1.3080   -1.0111 H   0  0  0  0  0  0  0  0  0  0  0  0
    9.1506    0.9554   -2.1114 H   0  0  0  0  0  0  0  0  0  0  0  0
    9.0597    0.1882   -3.7047 H   0  0  0  0  0  0  0  0  0  0  0  0
   11.2773   -0.9398   -3.2821 H   0  0  0  0  0  0  0  0  0  0  0  0
   11.3753   -0.1113   -1.7057 H   0  0  0  0  0  0  0  0  0  0  0  0
   12.4040    3.1845   -4.5305 H   0  0  0  0  0  0  0  0  0  0  0  0
   14.8255    3.6367   -4.9324 H   0  0  0  0  0  0  0  0  0  0  0  0
   21.0674    2.6979   -4.7673 H   0  0  0  0  0  0  0  0  0  0  0  0
   20.2929    1.0740   -2.2148 H   0  0  0  0  0  0  0  0  0  0  0  0
   21.9809    1.6881   -2.6394 H   0  0  0  0  0  0  0  0  0  0  0  0
   20.2230   -0.2777   -4.3355 H   0  0  0  0  0  0  0  0  0  0  0  0
   21.9101    0.3157   -4.7920 H   0  0  0  0  0  0  0  0  0  0  0  0
   16.8035   -0.0085   -2.1170 H   0  0  0  0  0  0  0  0  0  0  0  0
   16.7330   -0.8050   -3.6758 H   0  0  0  0  0  0  0  0  0  0  0  0
   15.5648   -1.2641   -2.4045 H   0  0  0  0  0  0  0  0  0  0  0  0
   13.4729   -0.5281   -2.6238 H   0  0  0  0  0  0  0  0  0  0  0  0
  1  2  1  0
  1 29  1  0
  1 30  1  0
  1 31  1  0
  2  3  1  0
  2 32  1  0
  2 33  1  0
  3  4  1  0
  3 34  1  0
  3 35  1  0
  4  5  2  0
  4 28  1  0
  5  6  1  0
  5 36  1  0
  6  7  2  0
  6 37  1  0
  7  8  1  0
  7 27  1  0
  8  9  1  0
  8 38  1  0
  8 39  1  0
  9 10  1  0
  9 40  1  0
  9 41  1  0
 10 11  1  0
 10 42  1  0
 10 43  1  0
 11 12  1  0
 12 13  2  0
 12 26  1  0
 13 14  1  0
 13 44  1  0
 14 15  2  0
 14 45  1  0
 15 16  1  0
 15 24  1  0
 16 17  2  0
 16 23  1  0
 17 18  1  0
 18 19  1  0
 19 20  1  0
 19 23  2  0
 20 21  1  0
 20 22  1  0
 20 46  1  6
 21 22  1  0
 21 47  1  0
 21 48  1  0
 22 49  1  0
 22 50  1  0
 24 25  1  0
 24 26  2  0
 25 51  1  0
 25 52  1  0
 25 53  1  0
 26 54  1  0
 27 28  2  0
M  END

