
     RDKit          3D

 35 36  0  0  0  0  0  0  0  0999 V2000
    0.9272   -0.6289   -0.7675 N   0  0  0  0  0  0  0  0  0  0  0  0
    2.0301   -0.3839   -0.4861 C   0  0  0  0  0  0  0  0  0  0  0  0
    3.3911   -0.1771   -0.1477 C   0  0  0  0  0  0  0  0  0  0  0  0
    4.1061    1.0377    0.0435 C   0  0  0  0  0  0  0  0  0  0  0  0
    3.6903    2.4421   -0.0120 C   0  0  0  0  0  0  0  0  0  0  0  0
    2.4257    2.7810   -0.5312 C   0  0  0  0  0  0  0  0  0  0  0  0
    1.9733    4.0979   -0.5779 C   0  0  0  0  0  0  0  0  0  0  0  0
    2.7915    5.1208   -0.1002 C   0  0  0  0  0  0  0  0  0  0  0  0
    4.0550    4.8259    0.4178 C   0  0  0  0  0  0  0  0  0  0  0  0
    4.5161    3.5037    0.4670 C   0  0  0  0  0  0  0  0  0  0  0  0
    5.7538    3.1847    0.9668 O   0  0  0  0  0  0  0  0  0  0  0  0
    6.5840    4.2140    1.4880 C   0  0  0  0  0  0  0  0  0  0  0  0
    7.9517    3.7429    1.9935 C   0  0  0  0  0  0  0  0  0  0  0  0
    8.2038    2.4201    2.0969 N   0  0  0  0  0  0  0  0  0  0  0  0
    8.7490    4.6132    2.2978 O   0  0  0  0  0  0  0  0  0  0  0  0
    5.3739    0.6770    0.3405 N   0  0  0  0  0  0  0  0  0  0  0  0
    6.1136    1.3490    0.5056 H   0  0  0  0  0  0  0  0  0  0  0  0
    5.5345   -0.6836    0.3978 C   0  0  0  0  0  0  0  0  0  0  0  0
    6.7953   -1.2030    0.9424 C   0  0  0  0  0  0  0  0  0  0  0  0
    6.8821   -2.5573    1.0622 N   0  0  0  0  0  0  0  0  0  0  0  0
    7.6980   -0.4327    1.2751 O   0  0  0  0  0  0  0  0  0  0  0  0
    4.3073   -1.2580    0.0692 C   0  0  0  0  0  0  0  0  0  0  0  0
    4.0347   -2.6333    0.0210 N   0  0  0  0  0  0  0  0  0  0  0  0
    1.7803    1.9888   -0.9102 H   0  0  0  0  0  0  0  0  0  0  0  0
    0.9859    4.3191   -0.9879 H   0  0  0  0  0  0  0  0  0  0  0  0
    2.4554    6.1601   -0.1287 H   0  0  0  0  0  0  0  0  0  0  0  0
    4.6789    5.6394    0.7835 H   0  0  0  0  0  0  0  0  0  0  0  0
    6.0864    4.7194    2.3342 H   0  0  0  0  0  0  0  0  0  0  0  0
    6.7944    4.9761    0.7200 H   0  0  0  0  0  0  0  0  0  0  0  0
    7.5881    1.6493    1.8578 H   0  0  0  0  0  0  0  0  0  0  0  0
    9.1339    2.1612    2.4083 H   0  0  0  0  0  0  0  0  0  0  0  0
    6.0286   -3.1096    1.0203 H   0  0  0  0  0  0  0  0  0  0  0  0
    7.6738   -2.9201    1.5812 H   0  0  0  0  0  0  0  0  0  0  0  0
    4.5160   -3.1026   -0.7464 H   0  0  0  0  0  0  0  0  0  0  0  0
    3.0386   -2.8339   -0.0500 H   0  0  0  0  0  0  0  0  0  0  0  0
  1  2  3  0
  2  3  1  0
  3  4  2  0
  3 22  1  0
  4  5  1  0
  4 16  1  0
  5  6  2  0
  5 10  1  0
  6  7  1  0
  6 24  1  0
  7  8  2  0
  7 25  1  0
  8  9  1  0
  8 26  1  0
  9 10  2  0
  9 27  1  0
 10 11  1  0
 11 12  1  0
 12 13  1  0
 12 28  1  0
 12 29  1  0
 13 14  1  0
 13 15  2  0
 14 30  1  0
 14 31  1  0
 16 17  1  0
 16 18  1  0
 18 19  1  0
 18 22  2  0
 19 20  1  0
 19 21  2  0
 20 32  1  0
 20 33  1  0
 22 23  1  0
 23 34  1  0
 23 35  1  0
M  END

