
     RDKit          3D

 45 47  0  0  0  0  0  0  0  0999 V2000
    2.5336    0.3977    1.1106 N   0  0  0  0  0  0  0  0  0  0  0  0
    3.7134    1.0560    0.9957 C   0  0  0  0  0  0  0  0  0  0  0  0
    3.8386    2.2655    1.0211 O   0  0  0  0  0  0  0  0  0  0  0  0
    4.9476    0.1654    0.8447 C   0  0  0  0  0  0  0  0  0  0  0  0
    4.5824   -1.1919    0.7105 O   0  0  0  0  0  0  0  0  0  0  0  0
    5.5485   -2.1512    0.5649 C   0  0  0  0  0  0  0  0  0  0  0  0
    6.9187   -1.8667    0.6127 C   0  0  0  0  0  0  0  0  0  0  0  0
    7.8170   -2.9270    0.4715 C   0  0  0  0  0  0  0  0  0  0  0  0
    7.3776   -4.2331    0.2891 C   0  0  0  0  0  0  0  0  0  0  0  0
    5.9926   -4.5223    0.2229 C   0  0  0  0  0  0  0  0  0  0  0  0
    5.0643   -3.4579    0.3577 C   0  0  0  0  0  0  0  0  0  0  0  0
    3.5714   -3.6947    0.2737 C   0  0  0  0  0  0  0  0  0  0  0  0
    3.2456   -5.0353   -0.3827 C   0  0  0  0  0  0  0  0  0  0  0  0
    4.1228   -6.1344    0.2076 C   0  0  0  0  0  0  0  0  0  0  0  0
    5.5359   -5.8269    0.0257 N   0  0  0  0  0  0  0  0  0  0  0  0
    6.4396   -6.9209   -0.2377 C   0  0  0  0  0  0  0  0  0  0  0  0
    7.0101   -7.6559    0.9727 C   0  0  0  0  0  0  0  0  0  0  0  0
    6.8343   -7.1892    2.2828 C   0  0  0  0  0  0  0  0  0  0  0  0
    7.3672   -7.8870    3.3666 C   0  0  0  0  0  0  0  0  0  0  0  0
    8.1079   -9.0606    3.1671 C   0  0  0  0  0  0  0  0  0  0  0  0
    8.6455   -9.7690    4.3785 C   0  0  0  0  0  0  0  0  0  0  0  0
    8.2341   -9.5769    5.4921 O   0  0  0  0  0  0  0  0  0  0  0  0
    9.6459  -10.6562    4.1643 O   0  0  0  0  0  0  0  0  0  0  0  0
    8.2766   -9.5371    1.8559 C   0  0  0  0  0  0  0  0  0  0  0  0
    7.7330   -8.8432    0.7760 C   0  0  0  0  0  0  0  0  0  0  0  0
    1.6850    0.9382    1.2251 H   0  0  0  0  0  0  0  0  0  0  0  0
    2.5041   -0.6131    1.0883 H   0  0  0  0  0  0  0  0  0  0  0  0
    5.5809    0.3294    1.7356 H   0  0  0  0  0  0  0  0  0  0  0  0
    5.5110    0.5256   -0.0339 H   0  0  0  0  0  0  0  0  0  0  0  0
    7.2865   -0.8536    0.7669 H   0  0  0  0  0  0  0  0  0  0  0  0
    8.8908   -2.7285    0.5206 H   0  0  0  0  0  0  0  0  0  0  0  0
    8.1145   -5.0320    0.2242 H   0  0  0  0  0  0  0  0  0  0  0  0
    3.1010   -2.8703   -0.2850 H   0  0  0  0  0  0  0  0  0  0  0  0
    3.1289   -3.6589    1.2876 H   0  0  0  0  0  0  0  0  0  0  0  0
    3.4293   -4.9789   -1.4691 H   0  0  0  0  0  0  0  0  0  0  0  0
    2.1827   -5.2896   -0.2437 H   0  0  0  0  0  0  0  0  0  0  0  0
    3.9171   -7.0968   -0.2861 H   0  0  0  0  0  0  0  0  0  0  0  0
    3.8739   -6.2726    1.2804 H   0  0  0  0  0  0  0  0  0  0  0  0
    7.2759   -6.5634   -0.8624 H   0  0  0  0  0  0  0  0  0  0  0  0
    5.9080   -7.6589   -0.8634 H   0  0  0  0  0  0  0  0  0  0  0  0
    6.2739   -6.2683    2.4536 H   0  0  0  0  0  0  0  0  0  0  0  0
    7.2216   -7.5337    4.3892 H   0  0  0  0  0  0  0  0  0  0  0  0
    9.9615  -10.5959    3.2522 H   0  0  0  0  0  0  0  0  0  0  0  0
    8.8040  -10.4765    1.6633 H   0  0  0  0  0  0  0  0  0  0  0  0
    7.8640   -9.2371   -0.2365 H   0  0  0  0  0  0  0  0  0  0  0  0
  1  2  1  0
  1 26  1  0
  1 27  1  0
  2  3  2  0
  2  4  1  0
  4  5  1  0
  4 28  1  0
  4 29  1  0
  5  6  1  0
  6  7  2  0
  6 11  1  0
  7  8  1  0
  7 30  1  0
  8  9  2  0
  8 31  1  0
  9 10  1  0
  9 32  1  0
 10 11  2  0
 10 15  1  0
 11 12  1  0
 12 13  1  0
 12 33  1  0
 12 34  1  0
 13 14  1  0
 13 35  1  0
 13 36  1  0
 14 15  1  0
 14 37  1  0
 14 38  1  0
 15 16  1  0
 16 17  1  0
 16 39  1  0
 16 40  1  0
 17 18  2  0
 17 25  1  0
 18 19  1  0
 18 41  1  0
 19 20  2  0
 19 42  1  0
 20 21  1  0
 20 24  1  0
 21 22  2  0
 21 23  1  0
 23 43  1  0
 24 25  2  0
 24 44  1  0
 25 45  1  0
M  END

