
     RDKit          3D

 49 50  0  0  0  0  0  0  0  0999 V2000
    1.5101   -0.0824    0.5804 C   0  0  0  0  0  0  0  0  0  0  0  0
    2.8752    0.0835   -0.0847 C   0  0  0  0  0  0  0  0  0  0  0  0
    3.3876    1.4384    0.0706 N   0  0  0  0  0  0  0  0  0  0  0  0
    4.6305    1.8200    0.5278 C   0  0  0  0  0  0  0  0  0  0  0  0
    5.7571    1.2085    0.3717 N   0  0  0  0  0  0  0  0  0  0  0  0
    5.9641    0.1561   -0.5947 C   0  0  0  0  0  0  0  0  0  0  0  0
    6.1244   -1.2409   -0.0039 C   0  0  0  0  0  0  0  0  0  0  0  0
    6.2325   -1.4557    1.3734 C   0  0  0  0  0  0  0  0  0  0  0  0
    6.4062   -2.7600    1.8592 C   0  0  0  0  0  0  0  0  0  0  0  0
    6.4716   -3.8444    0.9922 C   0  0  0  0  0  0  0  0  0  0  0  0
    6.3633   -3.6382   -0.3965 C   0  0  0  0  0  0  0  0  0  0  0  0
    6.4165   -4.7609   -1.1620 O   0  0  0  0  0  0  0  0  0  0  0  0
    6.4011   -4.7032   -2.5913 C   0  0  1  0  0  0  0  0  0  0  0  0
    7.7795   -4.3300   -3.1358 C   0  0  0  0  0  0  0  0  0  0  0  0
    5.9361   -6.0757   -3.0619 C   0  0  0  0  0  0  0  0  0  0  0  0
    6.1926   -2.3361   -0.8855 C   0  0  0  0  0  0  0  0  0  0  0  0
    4.5878    3.0469    1.2098 N   0  0  0  0  0  0  0  0  0  0  0  0
    3.8442    3.1112    2.4853 C   0  0  0  0  0  0  0  0  0  0  0  0
    4.9309    3.1330    3.6018 C   0  0  0  0  0  0  0  0  0  0  0  0
    6.2922    3.2391    2.8546 C   0  0  1  0  0  0  0  0  0  0  0  0
    6.9600    3.9588    3.3606 H   0  0  0  0  0  0  0  0  0  0  0  0
    6.9647    2.0061    2.7668 O   0  0  0  0  0  0  0  0  0  0  0  0
    5.8496    3.7467    1.4715 C   0  0  0  0  0  0  0  0  0  0  0  0
    1.1251   -1.1016    0.4192 H   0  0  0  0  0  0  0  0  0  0  0  0
    0.7700    0.6196    0.1597 H   0  0  0  0  0  0  0  0  0  0  0  0
    1.5686    0.0936    1.6664 H   0  0  0  0  0  0  0  0  0  0  0  0
    2.7958   -0.1909   -1.1534 H   0  0  0  0  0  0  0  0  0  0  0  0
    3.5944   -0.6143    0.3658 H   0  0  0  0  0  0  0  0  0  0  0  0
    2.7055    2.1877    0.0407 H   0  0  0  0  0  0  0  0  0  0  0  0
    6.9024    0.3865   -1.1358 H   0  0  0  0  0  0  0  0  0  0  0  0
    5.1781    0.1285   -1.3735 H   0  0  0  0  0  0  0  0  0  0  0  0
    6.1963   -0.6092    2.0604 H   0  0  0  0  0  0  0  0  0  0  0  0
    6.4953   -2.9268    2.9361 H   0  0  0  0  0  0  0  0  0  0  0  0
    6.6037   -4.8655    1.3557 H   0  0  0  0  0  0  0  0  0  0  0  0
    5.6580   -3.9509   -2.9145 H   0  0  0  0  0  0  0  0  0  0  0  0
    8.5225   -5.0851   -2.8334 H   0  0  0  0  0  0  0  0  0  0  0  0
    8.1140   -3.3528   -2.7576 H   0  0  0  0  0  0  0  0  0  0  0  0
    7.7605   -4.2824   -4.2362 H   0  0  0  0  0  0  0  0  0  0  0  0
    6.6378   -6.8540   -2.7228 H   0  0  0  0  0  0  0  0  0  0  0  0
    5.8807   -6.1104   -4.1609 H   0  0  0  0  0  0  0  0  0  0  0  0
    4.9418   -6.3086   -2.6523 H   0  0  0  0  0  0  0  0  0  0  0  0
    6.1113   -2.1503   -1.9580 H   0  0  0  0  0  0  0  0  0  0  0  0
    3.1525    2.2616    2.5632 H   0  0  0  0  0  0  0  0  0  0  0  0
    3.2392    4.0340    2.5143 H   0  0  0  0  0  0  0  0  0  0  0  0
    4.9337    2.2145    4.2051 H   0  0  0  0  0  0  0  0  0  0  0  0
    4.7756    3.9852    4.2820 H   0  0  0  0  0  0  0  0  0  0  0  0
    6.7342    1.6060    1.8946 H   0  0  0  0  0  0  0  0  0  0  0  0
    6.5846    3.5511    0.6821 H   0  0  0  0  0  0  0  0  0  0  0  0
    5.6411    4.8314    1.5076 H   0  0  0  0  0  0  0  0  0  0  0  0
  1  2  1  0
  1 24  1  0
  1 25  1  0
  1 26  1  0
  2  3  1  0
  2 27  1  0
  2 28  1  0
  3  4  1  0
  3 29  1  0
  4  5  2  0
  4 17  1  0
  5  6  1  0
  6  7  1  0
  6 30  1  0
  6 31  1  0
  7  8  2  0
  7 16  1  0
  8  9  1  0
  8 32  1  0
  9 10  2  0
  9 33  1  0
 10 11  1  0
 10 34  1  0
 11 12  1  0
 11 16  2  0
 12 13  1  0
 13 14  1  0
 13 15  1  0
 13 35  1  1
 14 36  1  0
 14 37  1  0
 14 38  1  0
 15 39  1  0
 15 40  1  0
 15 41  1  0
 16 42  1  0
 17 18  1  0
 17 23  1  0
 18 19  1  0
 18 43  1  0
 18 44  1  0
 19 20  1  0
 19 45  1  0
 19 46  1  0
 20 21  1  1
 20 22  1  0
 20 23  1  0
 22 47  1  0
 23 48  1  0
 23 49  1  0
M  END

