
     RDKit          3D

 43 45  0  0  0  0  0  0  0  0999 V2000
    2.6747    1.2482   -2.8341 C   0  0  0  0  0  0  0  0  0  0  0  0
    3.3866    0.7507   -1.5990 C   0  0  0  0  0  0  0  0  0  0  0  0
    3.5595    1.5570   -0.4704 C   0  0  0  0  0  0  0  0  0  0  0  0
    4.2236    1.0619    0.6539 C   0  0  0  0  0  0  0  0  0  0  0  0
    4.7344   -0.2434    0.7167 C   0  0  0  0  0  0  0  0  0  0  0  0
    5.4632   -0.6710    1.9710 C   0  0  0  0  0  0  0  0  0  0  0  0
    4.5542   -1.0799   -0.4155 C   0  0  0  0  0  0  0  0  0  0  0  0
    5.0541   -2.5253   -0.5250 C   0  0  1  0  0  0  0  0  0  0  0  0
    6.3720   -2.7294    0.0985 N   0  0  0  0  0  0  0  0  0  0  0  0
    7.2322   -3.6448   -0.5480 N   0  0  0  0  0  0  0  0  0  0  0  0
    4.0715   -3.6659   -0.1197 C   0  0  2  0  0  0  0  0  0  0  0  0
    2.7464   -3.8082   -0.9294 C   0  0  0  0  0  0  0  0  0  0  0  0
    1.6911   -4.3467   -0.0602 N   0  0  0  0  0  0  0  0  0  0  0  0
    2.1822   -5.5323    0.6524 C   0  0  0  0  0  0  0  0  0  0  0  0
    3.3537   -5.1272    1.6119 C   0  0  0  0  0  0  0  0  0  0  0  0
    3.7518   -3.7388    1.3241 N   0  0  0  0  0  0  0  0  0  0  0  0
    2.6167   -2.8637    1.6841 C   0  0  0  0  0  0  0  0  0  0  0  0
    1.3318   -3.3217    0.9247 C   0  0  0  0  0  0  0  0  0  0  0  0
    3.9002   -0.5537   -1.5413 C   0  0  0  0  0  0  0  0  0  0  0  0
    2.5126    2.3358   -2.7957 H   0  0  0  0  0  0  0  0  0  0  0  0
    1.6864    0.7701   -2.9493 H   0  0  0  0  0  0  0  0  0  0  0  0
    3.2475    1.0238   -3.7488 H   0  0  0  0  0  0  0  0  0  0  0  0
    3.1825    2.5838   -0.4688 H   0  0  0  0  0  0  0  0  0  0  0  0
    4.3573    1.7161    1.5205 H   0  0  0  0  0  0  0  0  0  0  0  0
    5.2962    0.0562    2.7798 H   0  0  0  0  0  0  0  0  0  0  0  0
    6.5457   -0.7432    1.7870 H   0  0  0  0  0  0  0  0  0  0  0  0
    5.1315   -1.6580    2.3270 H   0  0  0  0  0  0  0  0  0  0  0  0
    5.2229   -2.6839   -1.6035 H   0  0  0  0  0  0  0  0  0  0  0  0
    6.2464   -3.0504    1.0569 H   0  0  0  0  0  0  0  0  0  0  0  0
    7.6908   -3.1689   -1.3248 H   0  0  0  0  0  0  0  0  0  0  0  0
    6.7304   -4.4515   -0.9409 H   0  0  0  0  0  0  0  0  0  0  0  0
    4.6632   -4.5772   -0.3176 H   0  0  0  0  0  0  0  0  0  0  0  0
    2.8878   -4.4763   -1.7965 H   0  0  0  0  0  0  0  0  0  0  0  0
    2.3989   -2.8382   -1.3173 H   0  0  0  0  0  0  0  0  0  0  0  0
    2.5121   -6.2748   -0.0930 H   0  0  0  0  0  0  0  0  0  0  0  0
    1.3445   -5.9840    1.2087 H   0  0  0  0  0  0  0  0  0  0  0  0
    4.2270   -5.7883    1.4880 H   0  0  0  0  0  0  0  0  0  0  0  0
    3.0485   -5.1866    2.6693 H   0  0  0  0  0  0  0  0  0  0  0  0
    2.8711   -1.8269    1.4365 H   0  0  0  0  0  0  0  0  0  0  0  0
    2.4836   -2.9128    2.7772 H   0  0  0  0  0  0  0  0  0  0  0  0
    0.8540   -2.4763    0.4034 H   0  0  0  0  0  0  0  0  0  0  0  0
    0.5807   -3.7468    1.6107 H   0  0  0  0  0  0  0  0  0  0  0  0
    3.7991   -1.1879   -2.4284 H   0  0  0  0  0  0  0  0  0  0  0  0
  1  2  1  0
  1 20  1  0
  1 21  1  0
  1 22  1  0
  2  3  2  0
  2 19  1  0
  3  4  1  0
  3 23  1  0
  4  5  2  0
  4 24  1  0
  5  6  1  0
  5  7  1  0
  6 25  1  0
  6 26  1  0
  6 27  1  0
  7  8  1  0
  7 19  2  0
  8  9  1  0
  8 11  1  0
  8 28  1  6
  9 10  1  0
  9 29  1  0
 10 30  1  0
 10 31  1  0
 11 12  1  0
 11 16  1  0
 11 32  1  6
 12 13  1  0
 12 33  1  0
 12 34  1  0
 13 14  1  0
 13 18  1  0
 14 15  1  0
 14 35  1  0
 14 36  1  0
 15 16  1  0
 15 37  1  0
 15 38  1  0
 16 17  1  0
 17 18  1  0
 17 39  1  0
 17 40  1  0
 18 41  1  0
 18 42  1  0
 19 43  1  0
M  END

