
     RDKit          3D

 48 49  0  0  0  0  0  0  0  0999 V2000
    0.9727   -0.7583    0.5415 C   0  0  0  0  0  0  0  0  0  0  0  0
    2.5159   -0.6889    0.4172 C   0  0  1  0  0  0  0  0  0  0  0  0
    2.9114    0.5593   -0.3828 C   0  0  0  0  0  0  0  0  0  0  0  0
    3.1005   -0.5415    1.8642 C   0  0  0  0  0  0  0  0  0  0  0  0
    3.5019    0.5402    2.2658 O   0  0  0  0  0  0  0  0  0  0  0  0
    3.0769   -1.6584    2.6315 N   0  0  0  0  0  0  0  0  0  0  0  0
    3.5345   -1.6470    4.0095 C   0  0  0  0  0  0  0  0  0  0  0  0
    2.4530   -1.1846    5.0085 C   0  0  0  0  0  0  0  0  0  0  0  0
    2.9610   -1.1336    6.4314 C   0  0  0  0  0  0  0  0  0  0  0  0
    3.6780   -0.0172    6.8953 C   0  0  0  0  0  0  0  0  0  0  0  0
    4.1882    0.0301    8.1943 C   0  0  0  0  0  0  0  0  0  0  0  0
    3.9781   -1.0572    9.0397 C   0  0  0  0  0  0  0  0  0  0  0  0
    4.4621   -1.0185   10.2911 F   0  0  0  0  0  0  0  0  0  0  0  0
    3.2730   -2.1809    8.6168 C   0  0  0  0  0  0  0  0  0  0  0  0
    2.7710   -2.2098    7.3129 C   0  0  0  0  0  0  0  0  0  0  0  0
    2.9884   -2.0257   -0.2005 C   0  0  0  0  0  0  0  0  0  0  0  0
    2.6244   -3.0957    0.2740 O   0  0  0  0  0  0  0  0  0  0  0  0
    3.8228   -1.9343   -1.2828 N   0  0  0  0  0  0  0  0  0  0  0  0
    4.4133   -2.9617   -2.0419 C   0  0  0  0  0  0  0  0  0  0  0  0
    5.2582   -2.5756   -3.1000 C   0  0  0  0  0  0  0  0  0  0  0  0
    5.8782   -3.5300   -3.8993 C   0  0  0  0  0  0  0  0  0  0  0  0
    5.6663   -4.8927   -3.6572 C   0  0  0  0  0  0  0  0  0  0  0  0
    6.3785   -5.9297   -4.4856 C   0  0  1  0  0  0  0  0  0  0  0  0
    6.6173   -5.4927   -5.7360 F   0  0  0  0  0  0  0  0  0  0  0  0
    7.5733   -6.2596   -3.9549 F   0  0  0  0  0  0  0  0  0  0  0  0
    5.6688   -7.0679   -4.5822 F   0  0  0  0  0  0  0  0  0  0  0  0
    4.8243   -5.2790   -2.6092 C   0  0  0  0  0  0  0  0  0  0  0  0
    4.1975   -4.3307   -1.8012 C   0  0  0  0  0  0  0  0  0  0  0  0
    0.6018    0.1228    1.0863 H   0  0  0  0  0  0  0  0  0  0  0  0
    0.6581   -1.6649    1.0743 H   0  0  0  0  0  0  0  0  0  0  0  0
    0.5062   -0.7683   -0.4565 H   0  0  0  0  0  0  0  0  0  0  0  0
    2.5340    1.4541    0.1276 H   0  0  0  0  0  0  0  0  0  0  0  0
    2.4838    0.5324   -1.3978 H   0  0  0  0  0  0  0  0  0  0  0  0
    4.0037    0.6882   -0.4418 H   0  0  0  0  0  0  0  0  0  0  0  0
    2.7577   -2.5222    2.1978 H   0  0  0  0  0  0  0  0  0  0  0  0
    4.3997   -0.9703    4.0803 H   0  0  0  0  0  0  0  0  0  0  0  0
    3.8805   -2.6598    4.2687 H   0  0  0  0  0  0  0  0  0  0  0  0
    1.5864   -1.8625    4.9383 H   0  0  0  0  0  0  0  0  0  0  0  0
    2.1112   -0.1856    4.6948 H   0  0  0  0  0  0  0  0  0  0  0  0
    3.8358    0.8351    6.2281 H   0  0  0  0  0  0  0  0  0  0  0  0
    4.7414    0.8965    8.5624 H   0  0  0  0  0  0  0  0  0  0  0  0
    3.1230   -3.0121    9.3086 H   0  0  0  0  0  0  0  0  0  0  0  0
    2.2119   -3.0886    6.9784 H   0  0  0  0  0  0  0  0  0  0  0  0
    4.0600   -0.9957   -1.5798 H   0  0  0  0  0  0  0  0  0  0  0  0
    5.4283   -1.5134   -3.2987 H   0  0  0  0  0  0  0  0  0  0  0  0
    6.5249   -3.2146   -4.7200 H   0  0  0  0  0  0  0  0  0  0  0  0
    4.6464   -6.3397   -2.4216 H   0  0  0  0  0  0  0  0  0  0  0  0
    3.5418   -4.6338   -0.9894 H   0  0  0  0  0  0  0  0  0  0  0  0
  1  2  1  0
  1 29  1  0
  1 30  1  0
  1 31  1  0
  2  3  1  0
  2  4  1  1
  2 16  1  0
  3 32  1  0
  3 33  1  0
  3 34  1  0
  4  5  2  0
  4  6  1  0
  6  7  1  0
  6 35  1  0
  7  8  1  0
  7 36  1  0
  7 37  1  0
  8  9  1  0
  8 38  1  0
  8 39  1  0
  9 10  2  0
  9 15  1  0
 10 11  1  0
 10 40  1  0
 11 12  2  0
 11 41  1  0
 12 13  1  0
 12 14  1  0
 14 15  2  0
 14 42  1  0
 15 43  1  0
 16 17  2  0
 16 18  1  0
 18 19  1  0
 18 44  1  0
 19 20  2  0
 19 28  1  0
 20 21  1  0
 20 45  1  0
 21 22  2  0
 21 46  1  0
 22 23  1  0
 22 27  1  0
 23 24  1  6
 23 25  1  0
 23 26  1  0
 27 28  2  0
 27 47  1  0
 28 48  1  0
M  END

