
     RDKit          3D

 47 50  0  0  0  0  0  0  0  0999 V2000
    4.2026    0.6579    2.1990 N   0  0  0  0  0  0  0  0  0  0  0  0
    3.8676    0.4035    0.5526 S   0  0  1  0  0  0  0  0  0  0  0  0
    5.0006   -0.3865    0.0616 O   0  0  0  0  0  0  0  0  0  0  0  0
    2.4832   -0.0627    0.4143 O   0  0  0  0  0  0  0  0  0  0  0  0
    3.9598    2.0388   -0.1443 C   0  0  0  0  0  0  0  0  0  0  0  0
    5.2110    2.6262   -0.3789 C   0  0  0  0  0  0  0  0  0  0  0  0
    5.2889    3.8975   -0.9278 C   0  0  0  0  0  0  0  0  0  0  0  0
    4.1093    4.6075   -1.2637 C   0  0  0  0  0  0  0  0  0  0  0  0
    4.1860    5.8789   -1.8038 N   0  0  0  0  0  0  0  0  0  0  0  0
    5.3894    6.4922   -1.9837 N   0  0  0  0  0  0  0  0  0  0  0  0
    5.2153    7.7253   -2.3283 C   0  0  0  0  0  0  0  0  0  0  0  0
    6.3272    8.6364   -2.6015 C   0  0  0  0  0  0  0  0  0  0  0  0
    7.6642    8.1941   -2.5294 C   0  0  0  0  0  0  0  0  0  0  0  0
    8.7212    9.0607   -2.7819 C   0  0  0  0  0  0  0  0  0  0  0  0
    8.4744   10.4037   -3.1168 C   0  0  0  0  0  0  0  0  0  0  0  0
    9.4684   11.2886   -3.3727 O   0  0  0  0  0  0  0  0  0  0  0  0
    7.1513   10.8598   -3.1942 C   0  0  0  0  0  0  0  0  0  0  0  0
    6.0978    9.9850   -2.9403 C   0  0  0  0  0  0  0  0  0  0  0  0
    3.7481    8.1092   -2.3813 C   0  0  0  0  0  0  0  0  0  0  0  0
    3.0397    6.7464   -2.1451 C   0  0  1  0  0  0  0  0  0  0  0  0
    2.2484    6.2620   -3.3533 C   0  0  0  0  0  0  0  0  0  0  0  0
    2.8818    5.6198   -4.4275 C   0  0  0  0  0  0  0  0  0  0  0  0
    2.1496    5.2353   -5.5536 C   0  0  0  0  0  0  0  0  0  0  0  0
    0.7756    5.4875   -5.6214 C   0  0  0  0  0  0  0  0  0  0  0  0
    0.1364    6.1242   -4.5540 C   0  0  0  0  0  0  0  0  0  0  0  0
    0.8697    6.5069   -3.4270 C   0  0  0  0  0  0  0  0  0  0  0  0
    2.8567    3.9947   -1.0341 C   0  0  0  0  0  0  0  0  0  0  0  0
    2.7873    2.7195   -0.4776 C   0  0  0  0  0  0  0  0  0  0  0  0
    4.8010   -0.1061    2.5172 H   0  0  0  0  0  0  0  0  0  0  0  0
    3.3345    0.6885    2.7349 H   0  0  0  0  0  0  0  0  0  0  0  0
    6.1220    2.0762   -0.1351 H   0  0  0  0  0  0  0  0  0  0  0  0
    6.2541    4.3662   -1.1112 H   0  0  0  0  0  0  0  0  0  0  0  0
    7.8615    7.1524   -2.2711 H   0  0  0  0  0  0  0  0  0  0  0  0
    9.7524    8.6976   -2.7212 H   0  0  0  0  0  0  0  0  0  0  0  0
   10.3251   10.8492   -3.2889 H   0  0  0  0  0  0  0  0  0  0  0  0
    6.9696   11.9039   -3.4561 H   0  0  0  0  0  0  0  0  0  0  0  0
    5.0762   10.3655   -3.0081 H   0  0  0  0  0  0  0  0  0  0  0  0
    3.4635    8.5545   -3.3461 H   0  0  0  0  0  0  0  0  0  0  0  0
    3.5090    8.8469   -1.5971 H   0  0  0  0  0  0  0  0  0  0  0  0
    2.3588    6.8083   -1.2805 H   0  0  0  0  0  0  0  0  0  0  0  0
    3.9527    5.4085   -4.3754 H   0  0  0  0  0  0  0  0  0  0  0  0
    2.6547    4.7306   -6.3810 H   0  0  0  0  0  0  0  0  0  0  0  0
    0.2037    5.1821   -6.5011 H   0  0  0  0  0  0  0  0  0  0  0  0
   -0.9386    6.3181   -4.5946 H   0  0  0  0  0  0  0  0  0  0  0  0
    0.3617    6.9990   -2.5918 H   0  0  0  0  0  0  0  0  0  0  0  0
    1.9323    4.5016   -1.3081 H   0  0  0  0  0  0  0  0  0  0  0  0
    1.8218    2.2384   -0.3127 H   0  0  0  0  0  0  0  0  0  0  0  0
  2  1  1  1
  1 29  1  0
  1 30  1  0
  2  3  2  0
  2  4  2  0
  2  5  1  0
  5  6  2  0
  5 28  1  0
  6  7  1  0
  6 31  1  0
  7  8  2  0
  7 32  1  0
  8  9  1  0
  8 27  1  0
  9 10  1  0
  9 20  1  0
 10 11  2  0
 11 12  1  0
 11 19  1  0
 12 13  2  0
 12 18  1  0
 13 14  1  0
 13 33  1  0
 14 15  2  0
 14 34  1  0
 15 16  1  0
 15 17  1  0
 16 35  1  0
 17 18  2  0
 17 36  1  0
 18 37  1  0
 19 20  1  0
 19 38  1  0
 19 39  1  0
 20 21  1  0
 20 40  1  1
 21 22  2  0
 21 26  1  0
 22 23  1  0
 22 41  1  0
 23 24  2  0
 23 42  1  0
 24 25  1  0
 24 43  1  0
 25 26  2  0
 25 44  1  0
 26 45  1  0
 27 28  2  0
 27 46  1  0
 28 47  1  0
M  END

