
     RDKit          3D

 25 26  0  0  0  0  0  0  0  0999 V2000
    1.1607    0.1849    0.3323 C   0  0  0  0  0  0  0  0  0  0  0  0
    2.6519    0.2115    0.1363 C   0  0  0  0  0  0  0  0  0  0  0  0
    3.3564    1.3745   -0.1919 C   0  0  0  0  0  0  0  0  0  0  0  0
    2.6792    2.5210   -0.3234 F   0  0  0  0  0  0  0  0  0  0  0  0
    4.7334    1.3970   -0.3993 C   0  0  0  0  0  0  0  0  0  0  0  0
    5.4458    0.2082   -0.2662 C   0  0  0  0  0  0  0  0  0  0  0  0
    7.1702    0.2425   -0.5279 Cl  0  0  0  0  0  0  0  0  0  0  0  0
    4.8170   -1.0067    0.0938 C   0  0  0  0  0  0  0  0  0  0  0  0
    5.5793   -2.2569    0.1576 C   0  0  0  0  0  0  0  0  0  0  0  0
    5.5117   -3.2771    1.0561 C   0  0  0  0  0  0  0  0  0  0  0  0
    6.3260   -4.4381    0.8025 C   0  0  0  0  0  0  0  0  0  0  0  0
    6.9975   -5.3547    0.5674 N   0  0  0  0  0  0  0  0  0  0  0  0
    4.7418   -3.3107    2.3070 C   0  0  0  0  0  0  0  0  0  0  0  0
    4.5298   -4.4598    3.0098 N   0  0  0  0  0  0  0  0  0  0  0  0
    3.8630   -4.1306    4.0728 N   0  0  0  0  0  0  0  0  0  0  0  0
    3.6911   -2.8192    3.9965 N   0  0  0  0  0  0  0  0  0  0  0  0
    3.1989   -2.2941    4.7147 H   0  0  0  0  0  0  0  0  0  0  0  0
    4.2169   -2.2549    2.9280 N   0  0  0  0  0  0  0  0  0  0  0  0
    3.4215   -0.9474    0.2633 C   0  0  0  0  0  0  0  0  0  0  0  0
    2.7627   -2.0810    0.5316 F   0  0  0  0  0  0  0  0  0  0  0  0
    0.7216    1.1659    0.1133 H   0  0  0  0  0  0  0  0  0  0  0  0
    0.9042   -0.0866    1.3693 H   0  0  0  0  0  0  0  0  0  0  0  0
    0.6909   -0.5660   -0.3218 H   0  0  0  0  0  0  0  0  0  0  0  0
    5.2311    2.3308   -0.6587 H   0  0  0  0  0  0  0  0  0  0  0  0
    6.3235   -2.3753   -0.6350 H   0  0  0  0  0  0  0  0  0  0  0  0
  1  2  1  0
  1 21  1  0
  1 22  1  0
  1 23  1  0
  2  3  2  0
  2 19  1  0
  3  4  1  0
  3  5  1  0
  5  6  2  0
  5 24  1  0
  6  7  1  0
  6  8  1  0
  8  9  1  0
  8 19  2  0
  9 10  2  0
  9 25  1  0
 10 11  1  0
 10 13  1  0
 11 12  3  0
 13 14  1  0
 13 18  2  0
 14 15  2  0
 15 16  1  0
 16 17  1  0
 16 18  1  0
 19 20  1  0
M  END

