
     RDKit          3D

 51 52  0  0  0  0  0  0  0  0999 V2000
    1.0865   -0.0096    0.1820 C   0  0  0  0  0  0  0  0  0  0  0  0
    2.5806    0.0415   -0.0229 C   0  0  0  0  0  0  0  0  0  0  0  0
    3.2779    1.2565   -0.0602 C   0  0  0  0  0  0  0  0  0  0  0  0
    4.6602    1.3040   -0.2561 C   0  0  0  0  0  0  0  0  0  0  0  0
    5.3850    0.1169   -0.4221 C   0  0  0  0  0  0  0  0  0  0  0  0
    6.7902    0.1375   -0.6240 N   0  0  0  0  0  0  0  0  0  0  0  0
    7.6183    1.2186   -0.7121 C   0  0  0  0  0  0  0  0  0  0  0  0
    8.9025    0.7445   -0.8985 C   0  0  0  0  0  0  0  0  0  0  0  0
   10.1167    1.6179   -1.0971 C   0  0  0  0  0  0  0  0  0  0  0  0
   10.0014    2.9049   -0.4123 N   0  0  0  0  0  0  0  0  0  0  0  0
   10.1433    2.7891    1.0351 C   0  0  0  0  0  0  0  0  0  0  0  0
   10.7470    4.0102   -1.0313 C   0  0  1  0  0  0  0  0  0  0  0  0
   10.2539    5.3820   -0.5775 C   0  0  0  0  0  0  0  0  0  0  0  0
   12.2665    3.8719   -0.7714 C   0  0  0  0  0  0  0  0  0  0  0  0
   12.8458    4.4105    0.1318 O   0  0  0  0  0  0  0  0  0  0  0  0
   12.9260    3.0048   -1.5809 O   0  0  0  0  0  0  0  0  0  0  0  0
    8.7532   -0.6845   -0.9172 C   0  0  0  0  0  0  0  0  0  0  0  0
    9.8065   -1.7757   -1.0861 C   0  0  1  0  0  0  0  0  0  0  0  0
   10.7777   -1.7525    0.1168 C   0  0  0  0  0  0  0  0  0  0  0  0
    9.1308   -3.1581   -1.1461 C   0  0  0  0  0  0  0  0  0  0  0  0
   10.5924   -1.5547   -2.3980 C   0  0  0  0  0  0  0  0  0  0  0  0
    7.4769   -1.0146   -0.7514 N   0  0  0  0  0  0  0  0  0  0  0  0
    4.7062   -1.1110   -0.3870 C   0  0  0  0  0  0  0  0  0  0  0  0
    3.3278   -1.1371   -0.1899 C   0  0  0  0  0  0  0  0  0  0  0  0
    0.6687    0.9912    0.3664 H   0  0  0  0  0  0  0  0  0  0  0  0
    0.8195   -0.6493    1.0396 H   0  0  0  0  0  0  0  0  0  0  0  0
    0.5742   -0.4280   -0.7012 H   0  0  0  0  0  0  0  0  0  0  0  0
    2.7316    2.1952    0.0683 H   0  0  0  0  0  0  0  0  0  0  0  0
    5.1600    2.2730   -0.2747 H   0  0  0  0  0  0  0  0  0  0  0  0
    7.2699    2.2432   -0.6310 H   0  0  0  0  0  0  0  0  0  0  0  0
   10.2223    1.8249   -2.1792 H   0  0  0  0  0  0  0  0  0  0  0  0
   11.0343    1.0683   -0.8021 H   0  0  0  0  0  0  0  0  0  0  0  0
    9.4399    2.0293    1.4044 H   0  0  0  0  0  0  0  0  0  0  0  0
    9.8950    3.7407    1.5247 H   0  0  0  0  0  0  0  0  0  0  0  0
   11.1645    2.4974    1.3578 H   0  0  0  0  0  0  0  0  0  0  0  0
   10.5727    3.9236   -2.1190 H   0  0  0  0  0  0  0  0  0  0  0  0
   10.5486    5.5882    0.4604 H   0  0  0  0  0  0  0  0  0  0  0  0
    9.1591    5.4327   -0.6669 H   0  0  0  0  0  0  0  0  0  0  0  0
   10.6996    6.1713   -1.2018 H   0  0  0  0  0  0  0  0  0  0  0  0
   12.3378    2.6798   -2.2768 H   0  0  0  0  0  0  0  0  0  0  0  0
   10.2363   -1.9261    1.0598 H   0  0  0  0  0  0  0  0  0  0  0  0
   11.3083   -0.7922    0.2050 H   0  0  0  0  0  0  0  0  0  0  0  0
   11.5386   -2.5431    0.0106 H   0  0  0  0  0  0  0  0  0  0  0  0
    8.5617   -3.3653   -0.2288 H   0  0  0  0  0  0  0  0  0  0  0  0
    9.8958   -3.9420   -1.2669 H   0  0  0  0  0  0  0  0  0  0  0  0
    8.4282   -3.2242   -1.9897 H   0  0  0  0  0  0  0  0  0  0  0  0
   11.1426   -0.6014   -2.3992 H   0  0  0  0  0  0  0  0  0  0  0  0
    9.9171   -1.5587   -3.2684 H   0  0  0  0  0  0  0  0  0  0  0  0
   11.3325   -2.3591   -2.5396 H   0  0  0  0  0  0  0  0  0  0  0  0
    5.2776   -2.0292   -0.5151 H   0  0  0  0  0  0  0  0  0  0  0  0
    2.8178   -2.1048   -0.1649 H   0  0  0  0  0  0  0  0  0  0  0  0
  1  2  1  0
  1 25  1  0
  1 26  1  0
  1 27  1  0
  2  3  2  0
  2 24  1  0
  3  4  1  0
  3 28  1  0
  4  5  2  0
  4 29  1  0
  5  6  1  0
  5 23  1  0
  6  7  1  0
  6 22  1  0
  7  8  2  0
  7 30  1  0
  8  9  1  0
  8 17  1  0
  9 10  1  0
  9 31  1  0
  9 32  1  0
 10 11  1  0
 10 12  1  0
 11 33  1  0
 11 34  1  0
 11 35  1  0
 12 13  1  0
 12 14  1  0
 12 36  1  6
 13 37  1  0
 13 38  1  0
 13 39  1  0
 14 15  2  0
 14 16  1  0
 16 40  1  0
 17 18  1  0
 17 22  2  0
 18 19  1  1
 18 20  1  0
 18 21  1  0
 19 41  1  0
 19 42  1  0
 19 43  1  0
 20 44  1  0
 20 45  1  0
 20 46  1  0
 21 47  1  0
 21 48  1  0
 21 49  1  0
 23 24  2  0
 23 50  1  0
 24 51  1  0
M  END

