
     RDKit          3D

 33 34  0  0  0  0  0  0  0  0999 V2000
    3.2517    1.7847   -0.2173 C   0  0  0  0  0  0  0  0  0  0  0  0
    2.8529    0.3220   -0.1964 C   0  0  0  0  0  0  0  0  0  0  0  0
    2.1120   -0.1606   -1.0321 O   0  0  0  0  0  0  0  0  0  0  0  0
    3.4031   -0.5179    0.8930 C   0  0  0  0  0  0  0  0  0  0  0  0
    4.2476   -0.2000    1.9432 C   0  0  0  0  0  0  0  0  0  0  0  0
    4.5311   -1.3054    2.7807 C   0  0  0  0  0  0  0  0  0  0  0  0
    3.9066   -2.4659    2.3629 C   0  0  0  0  0  0  0  0  0  0  0  0
    4.0472   -3.7717    3.0768 C   0  0  0  0  0  0  0  0  0  0  0  0
    4.5572   -3.8361    4.1719 O   0  0  0  0  0  0  0  0  0  0  0  0
    3.5640   -4.8724    2.3690 N   0  0  0  0  0  0  0  0  0  0  0  0
    3.5090   -6.1851    2.8246 C   0  0  0  0  0  0  0  0  0  0  0  0
    3.4601   -6.5653    4.0589 N   0  0  0  0  0  0  0  0  0  0  0  0
    3.4148   -7.9382    4.1699 C   0  0  0  0  0  0  0  0  0  0  0  0
    3.3610   -8.5596    5.5468 C   0  0  1  0  0  0  0  0  0  0  0  0
    4.6247   -8.2057    6.3492 C   0  0  0  0  0  0  0  0  0  0  0  0
    2.0858   -8.1297    6.2916 C   0  0  0  0  0  0  0  0  0  0  0  0
    3.4139   -8.6155    2.9778 C   0  0  0  0  0  0  0  0  0  0  0  0
    3.5037   -7.5023    1.6442 S   0  0  0  0  0  0  0  0  0  0  0  0
    2.9428   -2.1952    0.9415 S   0  0  0  0  0  0  0  0  0  0  0  0
    2.7748    2.2694   -1.0785 H   0  0  0  0  0  0  0  0  0  0  0  0
    4.3458    1.8916   -0.2939 H   0  0  0  0  0  0  0  0  0  0  0  0
    2.9351    2.2890    0.7100 H   0  0  0  0  0  0  0  0  0  0  0  0
    4.6482    0.8018    2.1041 H   0  0  0  0  0  0  0  0  0  0  0  0
    5.1683   -1.2840    3.6650 H   0  0  0  0  0  0  0  0  0  0  0  0
    3.3186   -4.7299    1.3952 H   0  0  0  0  0  0  0  0  0  0  0  0
    3.3303   -9.6540    5.4071 H   0  0  0  0  0  0  0  0  0  0  0  0
    4.7163   -7.1136    6.4561 H   0  0  0  0  0  0  0  0  0  0  0  0
    5.5336   -8.5729    5.8470 H   0  0  0  0  0  0  0  0  0  0  0  0
    4.5851   -8.6525    7.3558 H   0  0  0  0  0  0  0  0  0  0  0  0
    2.0627   -7.0353    6.4108 H   0  0  0  0  0  0  0  0  0  0  0  0
    2.0465   -8.5876    7.2932 H   0  0  0  0  0  0  0  0  0  0  0  0
    1.1796   -8.4302    5.7421 H   0  0  0  0  0  0  0  0  0  0  0  0
    3.3602   -9.6889    2.8073 H   0  0  0  0  0  0  0  0  0  0  0  0
  1  2  1  0
  1 20  1  0
  1 21  1  0
  1 22  1  0
  2  3  2  0
  2  4  1  0
  4  5  2  0
  4 19  1  0
  5  6  1  0
  5 23  1  0
  6  7  2  0
  6 24  1  0
  7  8  1  0
  7 19  1  0
  8  9  2  0
  8 10  1  0
 10 11  1  0
 10 25  1  0
 11 12  2  0
 11 18  1  0
 12 13  1  0
 13 14  1  0
 13 17  2  0
 14 15  1  0
 14 16  1  0
 14 26  1  6
 15 27  1  0
 15 28  1  0
 15 29  1  0
 16 30  1  0
 16 31  1  0
 16 32  1  0
 17 18  1  0
 17 33  1  0
M  END

