
     RDKit          3D

 37 37  0  0  0  0  0  0  0  0999 V2000
    1.1798   -0.5749    0.4984 C   0  0  0  0  0  0  0  0  0  0  0  0
    2.6761   -0.3240    0.6893 C   0  0  0  0  0  0  0  0  0  0  0  0
    3.1099    1.0978    0.3181 C   0  0  0  0  0  0  0  0  0  0  0  0
    4.6074    1.3545    0.5083 C   0  0  0  0  0  0  0  0  0  0  0  0
    5.0123    2.7879    0.1360 C   0  0  0  0  0  0  0  0  0  0  0  0
    6.4396    3.0685    0.2959 N   0  0  0  0  0  0  0  0  0  0  0  0
    7.3449    2.3974   -0.6285 C   0  0  0  0  0  0  0  0  0  0  0  0
    7.0127    3.5886    1.4359 C   0  0  0  0  0  0  0  0  0  0  0  0
    8.2006    3.4374    1.6863 O   0  0  0  0  0  0  0  0  0  0  0  0
    6.1554    4.4059    2.3732 C   0  0  0  0  0  0  0  0  0  0  0  0
    6.2801    4.1789    3.7536 C   0  0  0  0  0  0  0  0  0  0  0  0
    5.5640    4.9597    4.6601 C   0  0  0  0  0  0  0  0  0  0  0  0
    4.7357    5.9892    4.2011 C   0  0  0  0  0  0  0  0  0  0  0  0
    4.6297    6.2553    2.8294 C   0  0  0  0  0  0  0  0  0  0  0  0
    3.7505    7.3621    2.3235 C   0  0  0  0  0  0  0  0  0  0  0  0
    2.2336    6.7186    1.5334 Cl  0  0  0  0  0  0  0  0  0  0  0  0
    5.3452    5.4553    1.9254 C   0  0  0  0  0  0  0  0  0  0  0  0
    0.9039   -1.6050    0.7752 H   0  0  0  0  0  0  0  0  0  0  0  0
    0.8775   -0.4204   -0.5511 H   0  0  0  0  0  0  0  0  0  0  0  0
    0.5762    0.1091    1.1183 H   0  0  0  0  0  0  0  0  0  0  0  0
    3.2525   -1.0483    0.0851 H   0  0  0  0  0  0  0  0  0  0  0  0
    2.9534   -0.5239    1.7402 H   0  0  0  0  0  0  0  0  0  0  0  0
    2.5337    1.8236    0.9217 H   0  0  0  0  0  0  0  0  0  0  0  0
    2.8338    1.2988   -0.7342 H   0  0  0  0  0  0  0  0  0  0  0  0
    5.1830    0.6319   -0.0963 H   0  0  0  0  0  0  0  0  0  0  0  0
    4.8882    1.1693    1.5607 H   0  0  0  0  0  0  0  0  0  0  0  0
    4.4330    3.4921    0.7451 H   0  0  0  0  0  0  0  0  0  0  0  0
    4.7398    2.9885   -0.9158 H   0  0  0  0  0  0  0  0  0  0  0  0
    6.8872    2.3744   -1.6291 H   0  0  0  0  0  0  0  0  0  0  0  0
    7.5748    1.3616   -0.3212 H   0  0  0  0  0  0  0  0  0  0  0  0
    8.2958    2.9431   -0.6698 H   0  0  0  0  0  0  0  0  0  0  0  0
    6.9499    3.3899    4.1015 H   0  0  0  0  0  0  0  0  0  0  0  0
    5.6531    4.7707    5.7328 H   0  0  0  0  0  0  0  0  0  0  0  0
    4.1740    6.5974    4.9156 H   0  0  0  0  0  0  0  0  0  0  0  0
    4.2501    7.9643    1.5531 H   0  0  0  0  0  0  0  0  0  0  0  0
    3.4189    8.0227    3.1341 H   0  0  0  0  0  0  0  0  0  0  0  0
    5.2677    5.6608    0.8545 H   0  0  0  0  0  0  0  0  0  0  0  0
  1  2  1  0
  1 18  1  0
  1 19  1  0
  1 20  1  0
  2  3  1  0
  2 21  1  0
  2 22  1  0
  3  4  1  0
  3 23  1  0
  3 24  1  0
  4  5  1  0
  4 25  1  0
  4 26  1  0
  5  6  1  0
  5 27  1  0
  5 28  1  0
  6  7  1  0
  6  8  1  0
  7 29  1  0
  7 30  1  0
  7 31  1  0
  8  9  2  0
  8 10  1  0
 10 11  2  0
 10 17  1  0
 11 12  1  0
 11 32  1  0
 12 13  2  0
 12 33  1  0
 13 14  1  0
 13 34  1  0
 14 15  1  0
 14 17  2  0
 15 16  1  0
 15 35  1  0
 15 36  1  0
 17 37  1  0
M  END

