
     RDKit          3D

 40 43  0  0  0  0  0  0  0  0999 V2000
    1.1957    0.0974    0.1778 O   0  0  0  0  0  0  0  0  0  0  0  0
    2.6012    0.0012    0.1464 C   0  0  1  0  0  0  0  0  0  0  0  0
    3.1363    0.8127   -1.0671 C   0  0  0  0  0  0  0  0  0  0  0  0
    2.6995    0.2509   -2.3337 N   0  0  0  0  0  0  0  0  0  0  0  0
    3.4176   -0.1237   -3.4177 C   0  0  0  0  0  0  0  0  0  0  0  0
    2.6192   -0.5972   -4.3565 N   0  0  0  0  0  0  0  0  0  0  0  0
    1.3914   -0.4996   -3.7925 C   0  0  0  0  0  0  0  0  0  0  0  0
    1.3893    0.0115   -2.5686 N   0  0  0  0  0  0  0  0  0  0  0  0
    3.1148    0.7026    1.4294 C   0  0  0  0  0  0  0  0  0  0  0  0
    2.7409    0.0410    2.6587 N   0  0  0  0  0  0  0  0  0  0  0  0
    3.6846   -0.6686    3.3443 N   0  0  0  0  0  0  0  0  0  0  0  0
    3.1762   -1.1368    4.4240 N   0  0  0  0  0  0  0  0  0  0  0  0
    1.8593   -0.7436    4.4961 C   0  0  0  0  0  0  0  0  0  0  0  0
    0.8804   -0.9766    5.4789 C   0  0  0  0  0  0  0  0  0  0  0  0
   -0.3762   -0.4262    5.2823 C   0  0  0  0  0  0  0  0  0  0  0  0
   -0.6551    0.3395    4.1198 C   0  0  0  0  0  0  0  0  0  0  0  0
   -2.2677    0.9937    3.9313 Cl  0  0  0  0  0  0  0  0  0  0  0  0
    0.2872    0.5811    3.1283 C   0  0  0  0  0  0  0  0  0  0  0  0
    1.5578    0.0235    3.3482 C   0  0  0  0  0  0  0  0  0  0  0  0
    3.0650   -1.4638    0.0982 C   0  0  0  0  0  0  0  0  0  0  0  0
    2.1380   -2.5134    0.1633 C   0  0  0  0  0  0  0  0  0  0  0  0
    2.5335   -3.8522    0.1439 C   0  0  0  0  0  0  0  0  0  0  0  0
    3.8914   -4.1489    0.0641 C   0  0  0  0  0  0  0  0  0  0  0  0
    4.2890   -5.4246    0.0445 F   0  0  0  0  0  0  0  0  0  0  0  0
    4.8547   -3.1443    0.0048 C   0  0  0  0  0  0  0  0  0  0  0  0
    4.4165   -1.8258    0.0268 C   0  0  0  0  0  0  0  0  0  0  0  0
    5.3583   -0.8557   -0.0268 F   0  0  0  0  0  0  0  0  0  0  0  0
    0.8653   -0.0118   -0.7402 H   0  0  0  0  0  0  0  0  0  0  0  0
    4.2322    0.8336   -1.0772 H   0  0  0  0  0  0  0  0  0  0  0  0
    2.7574    1.8442   -0.9851 H   0  0  0  0  0  0  0  0  0  0  0  0
    4.5025   -0.0302   -3.4684 H   0  0  0  0  0  0  0  0  0  0  0  0
    0.4708   -0.8087   -4.2873 H   0  0  0  0  0  0  0  0  0  0  0  0
    2.7178    1.7300    1.4414 H   0  0  0  0  0  0  0  0  0  0  0  0
    4.2114    0.7394    1.4276 H   0  0  0  0  0  0  0  0  0  0  0  0
    1.1129   -1.5701    6.3648 H   0  0  0  0  0  0  0  0  0  0  0  0
   -1.1720   -0.5747    6.0134 H   0  0  0  0  0  0  0  0  0  0  0  0
    0.0438    1.1358    2.2244 H   0  0  0  0  0  0  0  0  0  0  0  0
    1.0809   -2.2585    0.2407 H   0  0  0  0  0  0  0  0  0  0  0  0
    1.8067   -4.6642    0.1961 H   0  0  0  0  0  0  0  0  0  0  0  0
    5.9181   -3.3790   -0.0477 H   0  0  0  0  0  0  0  0  0  0  0  0
  2  1  1  1
  1 28  1  0
  2  3  1  0
  2  9  1  0
  2 20  1  0
  3  4  1  0
  3 29  1  0
  3 30  1  0
  4  5  1  0
  4  8  1  0
  5  6  2  0
  5 31  1  0
  6  7  1  0
  7  8  2  0
  7 32  1  0
  9 10  1  0
  9 33  1  0
  9 34  1  0
 10 11  1  0
 10 19  1  0
 11 12  2  0
 12 13  1  0
 13 14  1  0
 13 19  2  0
 14 15  2  0
 14 35  1  0
 15 16  1  0
 15 36  1  0
 16 17  1  0
 16 18  2  0
 18 19  1  0
 18 37  1  0
 20 21  2  0
 20 26  1  0
 21 22  1  0
 21 38  1  0
 22 23  2  0
 22 39  1  0
 23 24  1  0
 23 25  1  0
 25 26  2  0
 25 40  1  0
 26 27  1  0
M  END

