
     RDKit          3D

 28 27  0  0  0  0  0  0  0  0999 V2000
    2.8346   -3.6996   -0.3742 C   0  0  0  0  0  0  0  0  0  0  0  0
    3.2799   -2.6482    0.6432 C   0  0  0  0  0  0  0  0  0  0  0  0
    4.4565   -1.7954    0.1588 C   0  0  0  0  0  0  0  0  0  0  0  0
    4.9124   -0.7168    1.1504 C   0  0  0  0  0  0  0  0  0  0  0  0
    5.4067   -1.2421    2.4106 N   0  0  0  0  0  0  0  0  0  0  0  0
    6.7151   -1.3472    2.7140 C   0  0  0  0  0  0  0  0  0  0  0  0
    7.6574   -1.0105    2.0103 O   0  0  0  0  0  0  0  0  0  0  0  0
    6.9311   -1.9602    4.1176 C   0  0  0  0  0  0  0  0  0  0  0  0
    5.9934   -2.3121    4.8212 O   0  0  0  0  0  0  0  0  0  0  0  0
    8.2395   -2.0382    4.4338 N   0  0  0  0  0  0  0  0  0  0  0  0
    8.7309   -2.5825    5.6774 C   0  0  0  0  0  0  0  0  0  0  0  0
    9.6161   -3.8055    5.4869 C   0  0  0  0  0  0  0  0  0  0  0  0
   11.1029   -3.4031    4.5324 Cl  0  0  0  0  0  0  0  0  0  0  0  0
    1.9893   -4.2958    0.0044 H   0  0  0  0  0  0  0  0  0  0  0  0
    3.6544   -4.3977   -0.6122 H   0  0  0  0  0  0  0  0  0  0  0  0
    2.5153   -3.2322   -1.3208 H   0  0  0  0  0  0  0  0  0  0  0  0
    3.5563   -3.1511    1.5872 H   0  0  0  0  0  0  0  0  0  0  0  0
    2.4279   -1.9868    0.8879 H   0  0  0  0  0  0  0  0  0  0  0  0
    4.1810   -1.2905   -0.7847 H   0  0  0  0  0  0  0  0  0  0  0  0
    5.3174   -2.4449   -0.0790 H   0  0  0  0  0  0  0  0  0  0  0  0
    4.0790   -0.0243    1.3623 H   0  0  0  0  0  0  0  0  0  0  0  0
    5.7316   -0.1293    0.7109 H   0  0  0  0  0  0  0  0  0  0  0  0
    4.7730   -1.5848    3.1289 H   0  0  0  0  0  0  0  0  0  0  0  0
    8.8898   -1.7187    3.7175 H   0  0  0  0  0  0  0  0  0  0  0  0
    7.8506   -2.8675    6.2754 H   0  0  0  0  0  0  0  0  0  0  0  0
    9.2883   -1.8134    6.2402 H   0  0  0  0  0  0  0  0  0  0  0  0
    9.0919   -4.5997    4.9384 H   0  0  0  0  0  0  0  0  0  0  0  0
    9.9544   -4.1952    6.4566 H   0  0  0  0  0  0  0  0  0  0  0  0
  1  2  1  0
  1 14  1  0
  1 15  1  0
  1 16  1  0
  2  3  1  0
  2 17  1  0
  2 18  1  0
  3  4  1  0
  3 19  1  0
  3 20  1  0
  4  5  1  0
  4 21  1  0
  4 22  1  0
  5  6  1  0
  5 23  1  0
  6  7  2  0
  6  8  1  0
  8  9  2  0
  8 10  1  0
 10 11  1  0
 10 24  1  0
 11 12  1  0
 11 25  1  0
 11 26  1  0
 12 13  1  0
 12 27  1  0
 12 28  1  0
M  END

