
     RDKit          3D

 73 77  0  0  0  0  0  0  0  0999 V2000
   11.2840    2.1082    2.5629 C   0  0  0  0  0  0  0  0  0  0  0  0
   11.0598    1.2300    1.3312 C   0  0  0  0  0  0  0  0  0  0  0  0
   10.5900    2.0107    0.0996 C   0  0  0  0  0  0  0  0  0  0  0  0
   10.3633    1.1379   -1.1382 C   0  0  0  0  0  0  0  0  0  0  0  0
    9.8947    1.9218   -2.3671 C   0  0  0  0  0  0  0  0  0  0  0  0
    9.6690    1.0367   -3.6073 C   0  0  0  0  0  0  0  0  0  0  0  0
    9.2083    1.8121   -4.8204 C   0  0  0  0  0  0  0  0  0  0  0  0
   10.1356    2.3726   -5.7148 C   0  0  0  0  0  0  0  0  0  0  0  0
    9.7190    3.1215   -6.8163 C   0  0  0  0  0  0  0  0  0  0  0  0
    8.3536    3.3246   -7.0366 C   0  0  0  0  0  0  0  0  0  0  0  0
    7.9166    4.0816   -8.1758 N   0  0  0  0  0  0  0  0  0  0  0  0
    7.5558    3.5375   -9.3731 C   0  0  0  0  0  0  0  0  0  0  0  0
    7.2379    4.4998  -10.2488 N   0  0  0  0  0  0  0  0  0  0  0  0
    7.3925    5.7140   -9.6074 C   0  0  0  0  0  0  0  0  0  0  0  0
    7.1396    7.0608  -10.1096 C   0  0  0  0  0  0  0  0  0  0  0  0
    6.8715    7.2931  -11.4270 C   0  0  0  0  0  0  0  0  0  0  0  0
    6.6739    8.5389  -12.0711 C   0  0  0  0  0  0  0  0  0  0  0  0
    6.5010    9.5603  -12.7104 C   0  0  0  0  0  0  0  0  0  0  0  0
    6.4866    9.2386   -9.0816 C   0  0  0  0  0  0  0  0  0  0  0  0
    7.2357    8.1185   -9.0640 C   0  0  0  0  0  0  0  0  0  0  0  0
    8.1826    7.8632   -7.9381 C   0  0  0  0  0  0  0  0  0  0  0  0
    9.0385    8.8527   -7.5615 C   0  0  0  0  0  0  0  0  0  0  0  0
   10.0245    8.8239   -6.5395 C   0  0  0  0  0  0  0  0  0  0  0  0
   10.8957    8.8844   -5.6925 C   0  0  0  0  0  0  0  0  0  0  0  0
    8.3131    6.3113   -5.9971 C   0  0  0  0  0  0  0  0  0  0  0  0
    8.1306    6.5064   -7.3224 C   0  0  0  0  0  0  0  0  0  0  0  0
    7.8229    5.4702   -8.3047 C   0  0  0  0  0  0  0  0  0  0  0  0
    6.7582    3.8044  -11.6972 B   0  0  2  0  0  0  0  0  0  0  0  0
    7.7993    4.1692  -12.9000 C   0  0  0  0  0  0  0  0  0  0  0  0
    5.1969    4.1565  -11.9981 C   0  0  0  0  0  0  0  0  0  0  0  0
    6.9640    2.2685  -11.2076 C   0  0  0  0  0  0  0  0  0  0  0  0
    6.7632    1.0685  -11.9008 C   0  0  0  0  0  0  0  0  0  0  0  0
    7.0234   -0.1619  -11.2880 C   0  0  0  0  0  0  0  0  0  0  0  0
    7.4955   -0.2205   -9.9675 C   0  0  0  0  0  0  0  0  0  0  0  0
    7.7071    0.9535   -9.2451 C   0  0  0  0  0  0  0  0  0  0  0  0
    7.4347    2.1805   -9.8744 C   0  0  0  0  0  0  0  0  0  0  0  0
    7.4109    2.7751   -6.1620 C   0  0  0  0  0  0  0  0  0  0  0  0
    7.8413    2.0260   -5.0658 C   0  0  0  0  0  0  0  0  0  0  0  0
   11.6205    1.5145    3.4277 H   0  0  0  0  0  0  0  0  0  0  0  0
   10.3579    2.6298    2.8578 H   0  0  0  0  0  0  0  0  0  0  0  0
   12.0487    2.8798    2.3717 H   0  0  0  0  0  0  0  0  0  0  0  0
   10.3181    0.4452    1.5674 H   0  0  0  0  0  0  0  0  0  0  0  0
   11.9943    0.6933    1.0853 H   0  0  0  0  0  0  0  0  0  0  0  0
   11.3316    2.7961   -0.1385 H   0  0  0  0  0  0  0  0  0  0  0  0
    9.6545    2.5480    0.3438 H   0  0  0  0  0  0  0  0  0  0  0  0
    9.6211    0.3529   -0.9013 H   0  0  0  0  0  0  0  0  0  0  0  0
   11.2983    0.6004   -1.3831 H   0  0  0  0  0  0  0  0  0  0  0  0
   10.6344    2.7049   -2.6125 H   0  0  0  0  0  0  0  0  0  0  0  0
    8.9579    2.4579   -2.1309 H   0  0  0  0  0  0  0  0  0  0  0  0
    8.9246    0.2595   -3.3642 H   0  0  0  0  0  0  0  0  0  0  0  0
   10.6063    0.5059   -3.8459 H   0  0  0  0  0  0  0  0  0  0  0  0
   11.2051    2.2141   -5.5511 H   0  0  0  0  0  0  0  0  0  0  0  0
   10.4472    3.5485   -7.5087 H   0  0  0  0  0  0  0  0  0  0  0  0
    6.8340    6.4261  -12.0879 H   0  0  0  0  0  0  0  0  0  0  0  0
    5.7783    9.4437   -9.8843 H   0  0  0  0  0  0  0  0  0  0  0  0
    6.3650   10.4737  -13.2580 H   0  0  0  0  0  0  0  0  0  0  0  0
    6.5529    9.9645   -8.2679 H   0  0  0  0  0  0  0  0  0  0  0  0
    8.9997    9.7840   -8.1368 H   0  0  0  0  0  0  0  0  0  0  0  0
    8.5063    7.1565   -5.3377 H   0  0  0  0  0  0  0  0  0  0  0  0
   11.6484    8.9178   -4.9278 H   0  0  0  0  0  0  0  0  0  0  0  0
    8.2589    5.3255   -5.5394 H   0  0  0  0  0  0  0  0  0  0  0  0
    7.7028    5.1878  -13.3129 H   0  0  0  0  0  0  0  0  0  0  0  0
    7.6109    3.4837  -13.7455 H   0  0  0  0  0  0  0  0  0  0  0  0
    8.8568    4.0315  -12.6134 H   0  0  0  0  0  0  0  0  0  0  0  0
    5.0177    5.2062  -12.2861 H   0  0  0  0  0  0  0  0  0  0  0  0
    4.5324    3.9331  -11.1449 H   0  0  0  0  0  0  0  0  0  0  0  0
    4.8450    3.5386  -12.8437 H   0  0  0  0  0  0  0  0  0  0  0  0
    6.4002    1.0890  -12.9331 H   0  0  0  0  0  0  0  0  0  0  0  0
    6.8609   -1.0911  -11.8418 H   0  0  0  0  0  0  0  0  0  0  0  0
    7.6994   -1.1882   -9.5024 H   0  0  0  0  0  0  0  0  0  0  0  0
    8.0773    0.9051   -8.2205 H   0  0  0  0  0  0  0  0  0  0  0  0
    6.3464    2.9325   -6.3471 H   0  0  0  0  0  0  0  0  0  0  0  0
    7.0986    1.5936   -4.3897 H   0  0  0  0  0  0  0  0  0  0  0  0
  1  2  1  0
  1 39  1  0
  1 40  1  0
  1 41  1  0
  2  3  1  0
  2 42  1  0
  2 43  1  0
  3  4  1  0
  3 44  1  0
  3 45  1  0
  4  5  1  0
  4 46  1  0
  4 47  1  0
  5  6  1  0
  5 48  1  0
  5 49  1  0
  6  7  1  0
  6 50  1  0
  6 51  1  0
  7  8  2  0
  7 38  1  0
  8  9  1  0
  8 52  1  0
  9 10  2  0
  9 53  1  0
 10 11  1  0
 10 37  1  0
 11 12  1  0
 11 27  1  0
 12 13  2  0
 12 36  1  0
 13 14  1  0
 13 28  1  0
 14 15  1  0
 14 27  2  0
 15 16  2  0
 15 20  1  0
 16 17  1  0
 16 54  1  0
 17 18  3  0
 18 56  1  0
 19 20  2  0
 19 55  1  0
 19 57  1  0
 20 21  1  0
 21 22  2  0
 21 26  1  0
 22 23  1  0
 22 58  1  0
 23 24  3  0
 24 60  1  0
 25 26  2  0
 25 59  1  0
 25 61  1  0
 26 27  1  0
 28 29  1  6
 28 30  1  0
 28 31  1  0
 29 62  1  0
 29 63  1  0
 29 64  1  0
 30 65  1  0
 30 66  1  0
 30 67  1  0
 31 32  1  0
 31 36  2  0
 32 33  2  0
 32 68  1  0
 33 34  1  0
 33 69  1  0
 34 35  2  0
 34 70  1  0
 35 36  1  0
 35 71  1  0
 37 38  2  0
 37 72  1  0
 38 73  1  0
M  CHG  2  13   1  28  -1
M  END

