
     RDKit          3D

 29 30  0  0  0  0  0  0  0  0999 V2000
    2.6595    1.2824   -0.8226 C   0  0  0  0  0  0  0  0  0  0  0  0
    2.2892    0.0083   -0.0836 C   0  0  1  0  0  0  0  0  0  0  0  0
    2.4838    0.0934    1.3459 N   0  0  0  0  0  0  0  0  0  0  0  0
    3.8467   -0.0740    1.8289 C   0  0  0  0  0  0  0  0  0  0  0  0
    3.9173    0.0826    3.3484 C   0  0  0  0  0  0  0  0  0  0  0  0
    5.3252   -0.0430    3.9092 C   0  0  1  0  0  0  0  0  0  0  0  0
    5.5310   -0.0407    5.4457 C   0  0  0  0  0  0  0  0  0  0  0  0
    6.5424   -1.1001    5.2831 N   0  0  0  0  0  0  0  0  0  0  0  0
    6.0257   -1.4286    3.9431 C   0  0  0  0  0  0  0  0  0  0  0  0
    1.0958   -0.7677   -0.5671 C   0  0  0  0  0  0  0  0  0  0  0  0
    2.4852   -1.3223   -0.7977 C   0  0  0  0  0  0  0  0  0  0  0  0
    2.0695    2.1286   -0.4355 H   0  0  0  0  0  0  0  0  0  0  0  0
    2.4729    1.1876   -1.9032 H   0  0  0  0  0  0  0  0  0  0  0  0
    3.7266    1.5276   -0.6932 H   0  0  0  0  0  0  0  0  0  0  0  0
    1.8578   -0.5442    1.8329 H   0  0  0  0  0  0  0  0  0  0  0  0
    4.4832    0.6966    1.3604 H   0  0  0  0  0  0  0  0  0  0  0  0
    4.2927   -1.0517    1.5349 H   0  0  0  0  0  0  0  0  0  0  0  0
    3.2673   -0.6770    3.8239 H   0  0  0  0  0  0  0  0  0  0  0  0
    3.4903    1.0643    3.6187 H   0  0  0  0  0  0  0  0  0  0  0  0
    5.9874    0.7027    3.4387 H   0  0  0  0  0  0  0  0  0  0  0  0
    4.6091   -0.3559    5.9775 H   0  0  0  0  0  0  0  0  0  0  0  0
    5.8966    0.8904    5.9137 H   0  0  0  0  0  0  0  0  0  0  0  0
    6.5293   -1.8507    5.9719 H   0  0  0  0  0  0  0  0  0  0  0  0
    5.2850   -2.2556    3.9206 H   0  0  0  0  0  0  0  0  0  0  0  0
    6.7973   -1.6380    3.1814 H   0  0  0  0  0  0  0  0  0  0  0  0
    0.5385   -0.3768   -1.4236 H   0  0  0  0  0  0  0  0  0  0  0  0
    0.4637   -1.2608    0.1794 H   0  0  0  0  0  0  0  0  0  0  0  0
    2.8827   -1.3264   -1.8175 H   0  0  0  0  0  0  0  0  0  0  0  0
    2.7929   -2.1816   -0.1940 H   0  0  0  0  0  0  0  0  0  0  0  0
  1  2  1  0
  1 12  1  0
  1 13  1  0
  1 14  1  0
  2  3  1  1
  2 10  1  0
  2 11  1  0
  3  4  1  0
  3 15  1  0
  4  5  1  0
  4 16  1  0
  4 17  1  0
  5  6  1  0
  5 18  1  0
  5 19  1  0
  6  7  1  0
  6  9  1  0
  6 20  1  6
  7  8  1  0
  7 21  1  0
  7 22  1  0
  8  9  1  0
  8 23  1  0
  9 24  1  0
  9 25  1  0
 10 11  1  0
 10 26  1  0
 10 27  1  0
 11 28  1  0
 11 29  1  0
M  END

