
     RDKit          3D

 42 42  0  0  0  0  0  0  0  0999 V2000
    4.1137    0.0800   -1.9193 C   0  0  0  0  0  0  0  0  0  0  0  0
    3.2310   -0.0238   -0.6759 C   0  0  0  0  0  0  0  0  0  0  0  0
    3.3772   -1.3548    0.0747 C   0  0  0  0  0  0  0  0  0  0  0  0
    4.7254   -1.5737    0.5998 N   0  0  0  0  0  0  0  0  0  0  0  0
    5.0573   -0.8479    1.8013 C   0  0  0  0  0  0  0  0  0  0  0  0
    4.3297   -1.3157    3.0651 C   0  0  0  0  0  0  0  0  0  0  0  0
    3.5933   -2.2695    3.1407 O   0  0  0  0  0  0  0  0  0  0  0  0
    4.6310   -0.5220    4.1067 O   0  0  0  0  0  0  0  0  0  0  0  0
    4.0495   -0.8698    5.3647 C   0  0  0  0  0  0  0  0  0  0  0  0
    5.2612   -2.9310    0.5522 C   0  0  0  0  0  0  0  0  0  0  0  0
    6.7248   -2.9231    0.2433 C   0  0  0  0  0  0  0  0  0  0  0  0
    7.7223   -2.9863    1.0650 N   0  0  0  0  0  0  0  0  0  0  0  0
    8.8770   -2.8612    0.3035 N   0  0  0  0  0  0  0  0  0  0  0  0
    8.4995   -2.7285   -0.9279 C   0  0  0  0  0  0  0  0  0  0  0  0
    9.3342   -2.5658   -2.1705 C   0  0  1  0  0  0  0  0  0  0  0  0
   10.8200   -2.5707   -1.7748 C   0  0  0  0  0  0  0  0  0  0  0  0
    9.0339   -3.7377   -3.1323 C   0  0  0  0  0  0  0  0  0  0  0  0
    8.9667   -1.2271   -2.8498 C   0  0  0  0  0  0  0  0  0  0  0  0
    7.1419   -2.7575   -1.0419 O   0  0  0  0  0  0  0  0  0  0  0  0
    4.0287    1.0692   -2.3965 H   0  0  0  0  0  0  0  0  0  0  0  0
    3.8325   -0.6779   -2.6705 H   0  0  0  0  0  0  0  0  0  0  0  0
    5.1701   -0.0893   -1.6599 H   0  0  0  0  0  0  0  0  0  0  0  0
    2.1679    0.0931   -0.9510 H   0  0  0  0  0  0  0  0  0  0  0  0
    3.4501    0.8147    0.0095 H   0  0  0  0  0  0  0  0  0  0  0  0
    3.1550   -2.1761   -0.6260 H   0  0  0  0  0  0  0  0  0  0  0  0
    2.6131   -1.4216    0.8741 H   0  0  0  0  0  0  0  0  0  0  0  0
    4.8589    0.2291    1.6791 H   0  0  0  0  0  0  0  0  0  0  0  0
    6.1385   -0.9264    2.0083 H   0  0  0  0  0  0  0  0  0  0  0  0
    4.4066   -0.1232    6.0846 H   0  0  0  0  0  0  0  0  0  0  0  0
    4.3631   -1.8783    5.6740 H   0  0  0  0  0  0  0  0  0  0  0  0
    2.9506   -0.8494    5.3066 H   0  0  0  0  0  0  0  0  0  0  0  0
    4.7423   -3.4840   -0.2436 H   0  0  0  0  0  0  0  0  0  0  0  0
    5.1167   -3.4914    1.4932 H   0  0  0  0  0  0  0  0  0  0  0  0
   11.0972   -3.5118   -1.2781 H   0  0  0  0  0  0  0  0  0  0  0  0
   11.0496   -1.7513   -1.0782 H   0  0  0  0  0  0  0  0  0  0  0  0
   11.4437   -2.4515   -2.6746 H   0  0  0  0  0  0  0  0  0  0  0  0
    9.2898   -4.7047   -2.6713 H   0  0  0  0  0  0  0  0  0  0  0  0
    9.6295   -3.6303   -4.0526 H   0  0  0  0  0  0  0  0  0  0  0  0
    7.9702   -3.7620   -3.4143 H   0  0  0  0  0  0  0  0  0  0  0  0
    9.1746   -0.3747   -2.1842 H   0  0  0  0  0  0  0  0  0  0  0  0
    7.9014   -1.1957   -3.1250 H   0  0  0  0  0  0  0  0  0  0  0  0
    9.5614   -1.0961   -3.7677 H   0  0  0  0  0  0  0  0  0  0  0  0
  1  2  1  0
  1 20  1  0
  1 21  1  0
  1 22  1  0
  2  3  1  0
  2 23  1  0
  2 24  1  0
  3  4  1  0
  3 25  1  0
  3 26  1  0
  4  5  1  0
  4 10  1  0
  5  6  1  0
  5 27  1  0
  5 28  1  0
  6  7  2  0
  6  8  1  0
  8  9  1  0
  9 29  1  0
  9 30  1  0
  9 31  1  0
 10 11  1  0
 10 32  1  0
 10 33  1  0
 11 12  2  0
 11 19  1  0
 12 13  1  0
 13 14  2  0
 14 15  1  0
 14 19  1  0
 15 16  1  1
 15 17  1  0
 15 18  1  0
 16 34  1  0
 16 35  1  0
 16 36  1  0
 17 37  1  0
 17 38  1  0
 17 39  1  0
 18 40  1  0
 18 41  1  0
 18 42  1  0
M  END

