
     RDKit          3D

 21 22  0  0  0  0  0  0  0  0999 V2000
    1.0566    0.0933   -0.0808 O   0  0  0  0  0  0  0  0  0  0  0  0
    2.2505    0.0621   -0.2121 C   0  0  0  0  0  0  0  0  0  0  0  0
    2.8839   -1.0984   -0.4901 O   0  0  0  0  0  0  0  0  0  0  0  0
    3.1106    1.2862   -0.0815 C   0  0  0  0  0  0  0  0  0  0  0  0
    2.5015    2.5477   -0.1593 C   0  0  0  0  0  0  0  0  0  0  0  0
    3.1843    3.6788   -0.0645 N   0  0  0  0  0  0  0  0  0  0  0  0
    4.5015    3.6661    0.1455 C   0  0  0  0  0  0  0  0  0  0  0  0
    5.0851    4.9478    0.2069 N   0  0  0  0  0  0  0  0  0  0  0  0
    4.3834    6.1236    0.3532 C   0  0  0  0  0  0  0  0  0  0  0  0
    5.3245    7.1257    0.3072 C   0  0  0  0  0  0  0  0  0  0  0  0
    5.0278    8.9728    0.4624 Br  0  0  0  0  0  0  0  0  0  0  0  0
    6.5726    6.4661    0.1174 C   0  0  0  0  0  0  0  0  0  0  0  0
    6.4129    5.1583    0.0566 N   0  0  0  0  0  0  0  0  0  0  0  0
    5.2090    2.4495    0.3132 C   0  0  0  0  0  0  0  0  0  0  0  0
    6.8868    2.3146    0.7356 Cl  0  0  0  0  0  0  0  0  0  0  0  0
    4.4843    1.2625    0.1784 C   0  0  0  0  0  0  0  0  0  0  0  0
    3.8127   -0.9474   -0.7137 H   0  0  0  0  0  0  0  0  0  0  0  0
    1.4206    2.6164   -0.3133 H   0  0  0  0  0  0  0  0  0  0  0  0
    3.3050    6.1325    0.4678 H   0  0  0  0  0  0  0  0  0  0  0  0
    7.5618    6.9121    0.0210 H   0  0  0  0  0  0  0  0  0  0  0  0
    5.0281    0.3262    0.3260 H   0  0  0  0  0  0  0  0  0  0  0  0
  1  2  2  0
  2  3  1  0
  2  4  1  0
  3 17  1  0
  4  5  2  0
  4 16  1  0
  5  6  1  0
  5 18  1  0
  6  7  2  0
  7  8  1  0
  7 14  1  0
  8  9  1  0
  8 13  1  0
  9 10  2  0
  9 19  1  0
 10 11  1  0
 10 12  1  0
 12 13  2  0
 12 20  1  0
 14 15  1  0
 14 16  2  0
 16 21  1  0
M  END

