
     RDKit          3D

 48 50  0  0  0  0  0  0  0  0999 V2000
    1.7771    3.1654   -1.9767 C   0  0  0  0  0  0  0  0  0  0  0  0
    2.5009    2.5371   -0.8133 C   0  0  1  0  0  0  0  0  0  0  0  0
    2.9928    3.2412   -0.1261 H   0  0  0  0  0  0  0  0  0  0  0  0
    2.1021    1.2740   -0.1313 C   0  0  1  0  0  0  0  0  0  0  0  0
    2.3469    1.2896    0.9415 H   0  0  0  0  0  0  0  0  0  0  0  0
    0.9220    0.4183   -0.5142 C   0  0  0  0  0  0  0  0  0  0  0  0
    3.2564    1.2875   -1.0571 N   0  0  0  0  0  0  0  0  0  0  0  0
    4.8804    0.9642   -0.8328 P   0  0  1  0  0  0  0  0  0  0  0  0
    3.3824    2.9377    3.0737 I   0  0  0  0  0  0  0  0  0  0  0  0
    5.0892   -0.4396    0.3018 C   0  0  0  0  0  0  0  0  0  0  0  0
    5.6132   -1.6587   -0.1704 C   0  0  0  0  0  0  0  0  0  0  0  0
    5.7391   -2.7443    0.6980 C   0  0  0  0  0  0  0  0  0  0  0  0
    5.3437   -2.6246    2.0345 C   0  0  0  0  0  0  0  0  0  0  0  0
    4.8192   -1.4168    2.5022 C   0  0  0  0  0  0  0  0  0  0  0  0
    4.6854   -0.3220    1.6448 C   0  0  0  0  0  0  0  0  0  0  0  0
    5.4962    0.4527   -2.4726 C   0  0  0  0  0  0  0  0  0  0  0  0
    4.5928    0.0720   -3.4758 C   0  0  0  0  0  0  0  0  0  0  0  0
    5.0703   -0.3553   -4.7185 C   0  0  0  0  0  0  0  0  0  0  0  0
    6.4454   -0.4078   -4.9620 C   0  0  0  0  0  0  0  0  0  0  0  0
    7.3494   -0.0296   -3.9625 C   0  0  0  0  0  0  0  0  0  0  0  0
    6.8797    0.4022   -2.7211 C   0  0  0  0  0  0  0  0  0  0  0  0
    5.8476    2.4270   -0.3727 C   0  0  0  0  0  0  0  0  0  0  0  0
    6.3065    2.6473    0.9361 C   0  0  0  0  0  0  0  0  0  0  0  0
    6.9989    3.8250    1.2358 C   0  0  0  0  0  0  0  0  0  0  0  0
    7.2187    4.7855    0.2492 C   0  0  0  0  0  0  0  0  0  0  0  0
    6.7440    4.5796   -1.0532 C   0  0  0  0  0  0  0  0  0  0  0  0
    6.0619    3.4058   -1.3665 C   0  0  0  0  0  0  0  0  0  0  0  0
    1.0064    3.8567   -1.5993 H   0  0  0  0  0  0  0  0  0  0  0  0
    1.2918    2.4177   -2.6202 H   0  0  0  0  0  0  0  0  0  0  0  0
    2.4726    3.7531   -2.5972 H   0  0  0  0  0  0  0  0  0  0  0  0
    0.0350    0.7447    0.0525 H   0  0  0  0  0  0  0  0  0  0  0  0
    1.1112   -0.6353   -0.2541 H   0  0  0  0  0  0  0  0  0  0  0  0
    0.6928    0.4709   -1.5884 H   0  0  0  0  0  0  0  0  0  0  0  0
    5.9203   -1.7674   -1.2115 H   0  0  0  0  0  0  0  0  0  0  0  0
    6.1459   -3.6878    0.3263 H   0  0  0  0  0  0  0  0  0  0  0  0
    5.4442   -3.4774    2.7111 H   0  0  0  0  0  0  0  0  0  0  0  0
    4.5058   -1.3090    3.5435 H   0  0  0  0  0  0  0  0  0  0  0  0
    4.2707    0.6165    2.0472 H   0  0  0  0  0  0  0  0  0  0  0  0
    3.5215    0.1227   -3.2745 H   0  0  0  0  0  0  0  0  0  0  0  0
    4.3634   -0.6464   -5.4992 H   0  0  0  0  0  0  0  0  0  0  0  0
    6.8161   -0.7411   -5.9346 H   0  0  0  0  0  0  0  0  0  0  0  0
    8.4248   -0.0661   -4.1523 H   0  0  0  0  0  0  0  0  0  0  0  0
    7.5905    0.7050   -1.9483 H   0  0  0  0  0  0  0  0  0  0  0  0
    6.1216    1.9263    1.7302 H   0  0  0  0  0  0  0  0  0  0  0  0
    7.3385    3.9933    2.2595 H   0  0  0  0  0  0  0  0  0  0  0  0
    7.7533    5.7067    0.4941 H   0  0  0  0  0  0  0  0  0  0  0  0
    6.9069    5.3351   -1.8255 H   0  0  0  0  0  0  0  0  0  0  0  0
    5.7032    3.2487   -2.3866 H   0  0  0  0  0  0  0  0  0  0  0  0
  1  2  1  0
  1 28  1  0
  1 29  1  0
  1 30  1  0
  2  3  1  1
  2  4  1  0
  2  7  1  0
  4  5  1  1
  4  6  1  0
  4  7  1  0
  6 31  1  0
  6 32  1  0
  6 33  1  0
  7  8  2  0
  8 10  1  1
  8 16  1  0
  8 22  1  0
 10 11  2  0
 10 15  1  0
 11 12  1  0
 11 34  1  0
 12 13  2  0
 12 35  1  0
 13 14  1  0
 13 36  1  0
 14 15  2  0
 14 37  1  0
 15 38  1  0
 16 17  2  0
 16 21  1  0
 17 18  1  0
 17 39  1  0
 18 19  2  0
 18 40  1  0
 19 20  1  0
 19 41  1  0
 20 21  2  0
 20 42  1  0
 21 43  1  0
 22 23  2  0
 22 27  1  0
 23 24  1  0
 23 44  1  0
 24 25  2  0
 24 45  1  0
 25 26  1  0
 25 46  1  0
 26 27  2  0
 26 47  1  0
 27 48  1  0
M  CHG  2   7   1   9  -1
M  END

