
     RDKit          3D

 36 37  0  0  0  0  0  0  0  0999 V2000
    1.1402    0.1706   -1.2275 C   0  0  0  0  0  0  0  0  0  0  0  0
    2.1065    1.1160   -1.9613 C   0  0  1  0  0  0  0  0  0  0  0  0
    1.5837    2.5545   -1.9528 C   0  0  0  0  0  0  0  0  0  0  0  0
    3.4748    1.0975   -1.4322 N   0  0  0  0  0  0  0  0  0  0  0  0
    4.2572   -0.1061   -1.6547 C   0  0  0  0  0  0  0  0  0  0  0  0
    4.9747   -0.1143   -3.0002 C   0  0  0  0  0  0  0  0  0  0  0  0
    5.1890    1.0838   -3.6945 C   0  0  0  0  0  0  0  0  0  0  0  0
    5.8227    1.1244   -4.9376 C   0  0  0  0  0  0  0  0  0  0  0  0
    6.2685   -0.0672   -5.5112 C   0  0  0  0  0  0  0  0  0  0  0  0
    7.1390   -0.0463   -7.2067 Br  0  0  0  0  0  0  0  0  0  0  0  0
    6.0974   -1.2793   -4.8434 C   0  0  0  0  0  0  0  0  0  0  0  0
    5.4514   -1.2977   -3.6002 C   0  0  0  0  0  0  0  0  0  0  0  0
    5.2903   -2.5646   -2.9589 N   0  0  0  0  0  0  0  0  0  0  0  0
    4.8505   -3.7194   -3.5321 C   0  0  0  0  0  0  0  0  0  0  0  0
    4.9273   -4.6962   -2.5563 C   0  0  0  0  0  0  0  0  0  0  0  0
    4.5426   -6.1299   -2.6835 C   0  0  1  0  0  0  0  0  0  0  0  0
    4.1324   -6.4157   -3.9331 F   0  0  0  0  0  0  0  0  0  0  0  0
    5.5684   -6.9525   -2.3952 F   0  0  0  0  0  0  0  0  0  0  0  0
    3.5409   -6.4593   -1.8455 F   0  0  0  0  0  0  0  0  0  0  0  0
    5.4341   -4.0241   -1.4139 C   0  0  0  0  0  0  0  0  0  0  0  0
    5.6512   -2.7434   -1.6688 N   0  0  0  0  0  0  0  0  0  0  0  0
    0.1456    0.1696   -1.7020 H   0  0  0  0  0  0  0  0  0  0  0  0
    1.0098    0.4873   -0.1779 H   0  0  0  0  0  0  0  0  0  0  0  0
    1.5039   -0.8689   -1.2235 H   0  0  0  0  0  0  0  0  0  0  0  0
    2.1763    0.7854   -3.0137 H   0  0  0  0  0  0  0  0  0  0  0  0
    1.5330    2.9438   -0.9208 H   0  0  0  0  0  0  0  0  0  0  0  0
    0.5697    2.6146   -2.3786 H   0  0  0  0  0  0  0  0  0  0  0  0
    2.2465    3.2172   -2.5290 H   0  0  0  0  0  0  0  0  0  0  0  0
    3.4734    1.3443   -0.4449 H   0  0  0  0  0  0  0  0  0  0  0  0
    3.6667   -1.0381   -1.5646 H   0  0  0  0  0  0  0  0  0  0  0  0
    5.0188   -0.1860   -0.8629 H   0  0  0  0  0  0  0  0  0  0  0  0
    4.8227    2.0011   -3.2299 H   0  0  0  0  0  0  0  0  0  0  0  0
    5.9680    2.0738   -5.4557 H   0  0  0  0  0  0  0  0  0  0  0  0
    6.4801   -2.2057   -5.2727 H   0  0  0  0  0  0  0  0  0  0  0  0
    4.5049   -3.7613   -4.5618 H   0  0  0  0  0  0  0  0  0  0  0  0
    5.6468   -4.4338   -0.4269 H   0  0  0  0  0  0  0  0  0  0  0  0
  1  2  1  0
  1 22  1  0
  1 23  1  0
  1 24  1  0
  2  3  1  0
  2  4  1  0
  2 25  1  6
  3 26  1  0
  3 27  1  0
  3 28  1  0
  4  5  1  0
  4 29  1  0
  5  6  1  0
  5 30  1  0
  5 31  1  0
  6  7  2  0
  6 12  1  0
  7  8  1  0
  7 32  1  0
  8  9  2  0
  8 33  1  0
  9 10  1  0
  9 11  1  0
 11 12  2  0
 11 34  1  0
 12 13  1  0
 13 14  1  0
 13 21  1  0
 14 15  2  0
 14 35  1  0
 15 16  1  0
 15 20  1  0
 16 17  1  6
 16 18  1  0
 16 19  1  0
 20 21  2  0
 20 36  1  0
M  END

