
     RDKit          3D

 51 53  0  0  0  0  0  0  0  0999 V2000
    0.0072    0.3516   -8.2056 C   0  0  0  0  0  0  0  0  0  0  0  0
   -0.0410    1.8308   -7.8206 C   0  0  0  0  0  0  0  0  0  0  0  0
   -0.3904    2.0708   -6.4112 N   0  0  0  0  0  0  0  0  0  0  0  0
    0.6132    1.8590   -5.4962 C   0  0  0  0  0  0  0  0  0  0  0  0
    1.7198    1.4726   -5.8483 O   0  0  0  0  0  0  0  0  0  0  0  0
    0.3094    2.0710   -3.9906 C   0  0  2  0  0  0  0  0  0  0  0  0
   -0.2256    3.0210   -3.8352 H   0  0  0  0  0  0  0  0  0  0  0  0
    1.6021    2.0318   -3.1395 C   0  0  0  0  0  0  0  0  0  0  0  0
    1.7341    0.5654   -2.7081 C   0  0  0  0  0  0  0  0  0  0  0  0
    0.3069    0.0195   -2.7595 C   0  0  0  0  0  0  0  0  0  0  0  0
   -0.1105   -1.0261   -2.3122 O   0  0  0  0  0  0  0  0  0  0  0  0
   -0.4459    0.9496   -3.4434 N   0  0  0  0  0  0  0  0  0  0  0  0
   -1.7001    2.6296   -6.0844 C   0  0  2  0  0  0  0  0  0  0  0  0
   -1.8302    2.5739   -4.9995 H   0  0  0  0  0  0  0  0  0  0  0  0
   -2.9297    1.9293   -6.7306 C   0  0  0  0  0  0  0  0  0  0  0  0
   -3.8782    3.0865   -7.1128 C   0  0  0  0  0  0  0  0  0  0  0  0
   -3.3426    4.2582   -6.4165 N   0  0  0  0  0  0  0  0  0  0  0  0
   -3.8513    5.5624   -6.8366 C   0  0  1  0  0  0  0  0  0  0  0  0
   -3.4998    5.7877   -7.8719 H   0  0  0  0  0  0  0  0  0  0  0  0
   -5.3884    5.5911   -6.8619 C   0  0  0  0  0  0  0  0  0  0  0  0
   -3.3263    6.6702   -5.9284 C   0  0  0  0  0  0  0  0  0  0  0  0
   -2.8471    7.8715   -6.4683 C   0  0  0  0  0  0  0  0  0  0  0  0
   -2.4190    8.9120   -5.6369 C   0  0  0  0  0  0  0  0  0  0  0  0
   -2.4617    8.7618   -4.2486 C   0  0  0  0  0  0  0  0  0  0  0  0
   -2.9344    7.5650   -3.6986 C   0  0  0  0  0  0  0  0  0  0  0  0
   -3.3639    6.5294   -4.5316 C   0  0  0  0  0  0  0  0  0  0  0  0
   -1.8970    4.1078   -6.4682 C   0  0  0  0  0  0  0  0  0  0  0  0
    0.2676    0.2480   -9.2715 H   0  0  0  0  0  0  0  0  0  0  0  0
   -0.9603   -0.1483   -8.0408 H   0  0  0  0  0  0  0  0  0  0  0  0
    0.7743   -0.1688   -7.6156 H   0  0  0  0  0  0  0  0  0  0  0  0
   -0.7688    2.3692   -8.4447 H   0  0  0  0  0  0  0  0  0  0  0  0
    0.9451    2.2827   -8.0062 H   0  0  0  0  0  0  0  0  0  0  0  0
    1.4606    2.6779   -2.2595 H   0  0  0  0  0  0  0  0  0  0  0  0
    2.4639    2.3961   -3.7103 H   0  0  0  0  0  0  0  0  0  0  0  0
    2.1630    0.4169   -1.7072 H   0  0  0  0  0  0  0  0  0  0  0  0
    2.3377   -0.0154   -3.4241 H   0  0  0  0  0  0  0  0  0  0  0  0
   -1.3997    0.7260   -3.7049 H   0  0  0  0  0  0  0  0  0  0  0  0
   -3.3976    1.2292   -6.0227 H   0  0  0  0  0  0  0  0  0  0  0  0
   -2.6498    1.3453   -7.6164 H   0  0  0  0  0  0  0  0  0  0  0  0
   -4.9194    2.8888   -6.8206 H   0  0  0  0  0  0  0  0  0  0  0  0
   -3.8712    3.2340   -8.2171 H   0  0  0  0  0  0  0  0  0  0  0  0
   -5.8016    4.9029   -7.6148 H   0  0  0  0  0  0  0  0  0  0  0  0
   -5.7367    6.6044   -7.1096 H   0  0  0  0  0  0  0  0  0  0  0  0
   -5.7989    5.3203   -5.8764 H   0  0  0  0  0  0  0  0  0  0  0  0
   -2.8051    7.9942   -7.5549 H   0  0  0  0  0  0  0  0  0  0  0  0
   -2.0464    9.8407   -6.0770 H   0  0  0  0  0  0  0  0  0  0  0  0
   -2.1250    9.5719   -3.5966 H   0  0  0  0  0  0  0  0  0  0  0  0
   -2.9684    7.4385   -2.6131 H   0  0  0  0  0  0  0  0  0  0  0  0
   -3.7238    5.5899   -4.1050 H   0  0  0  0  0  0  0  0  0  0  0  0
   -1.3905    4.7939   -5.7735 H   0  0  0  0  0  0  0  0  0  0  0  0
   -1.4869    4.3047   -7.4863 H   0  0  0  0  0  0  0  0  0  0  0  0
  1  2  1  0
  1 28  1  0
  1 29  1  0
  1 30  1  0
  2  3  1  0
  2 31  1  0
  2 32  1  0
  3  4  1  0
  3 13  1  0
  4  5  2  0
  4  6  1  0
  6  7  1  6
  6  8  1  0
  6 12  1  0
  8  9  1  0
  8 33  1  0
  8 34  1  0
  9 10  1  0
  9 35  1  0
  9 36  1  0
 10 11  2  0
 10 12  1  0
 12 37  1  0
 13 14  1  1
 13 15  1  0
 13 27  1  0
 15 16  1  0
 15 38  1  0
 15 39  1  0
 16 17  1  0
 16 40  1  0
 16 41  1  0
 17 18  1  0
 17 27  1  0
 18 19  1  6
 18 20  1  0
 18 21  1  0
 20 42  1  0
 20 43  1  0
 20 44  1  0
 21 22  2  0
 21 26  1  0
 22 23  1  0
 22 45  1  0
 23 24  2  0
 23 46  1  0
 24 25  1  0
 24 47  1  0
 25 26  2  0
 25 48  1  0
 26 49  1  0
 27 50  1  0
 27 51  1  0
M  END

