
     RDKit          3D

 38 41  0  0  0  0  0  0  0  0999 V2000
    7.2018   -0.0441    1.7857 C   0  0  0  0  0  0  0  0  0  0  0  0
    5.9289    0.4417    1.4251 O   0  0  0  0  0  0  0  0  0  0  0  0
    4.8273   -0.2989    1.7121 C   0  0  0  0  0  0  0  0  0  0  0  0
    3.5993    0.2120    1.2654 C   0  0  0  0  0  0  0  0  0  0  0  0
    2.4200   -0.4943    1.4844 C   0  0  0  0  0  0  0  0  0  0  0  0
    2.4318   -1.7218    2.1635 C   0  0  0  0  0  0  0  0  0  0  0  0
    1.3096   -2.4646    2.3918 O   0  0  0  0  0  0  0  0  0  0  0  0
    0.0438   -1.9522    2.0296 C   0  0  0  0  0  0  0  0  0  0  0  0
    3.6585   -2.2391    2.6472 C   0  0  0  0  0  0  0  0  0  0  0  0
    3.7291   -3.5045    3.3848 C   0  0  0  0  0  0  0  0  0  0  0  0
    2.8831   -4.5839    3.1179 N   0  0  0  0  0  0  0  0  0  0  0  0
    2.0712   -4.5252    2.5171 H   0  0  0  0  0  0  0  0  0  0  0  0
    3.1631   -5.7038    3.8996 C   0  0  0  0  0  0  0  0  0  0  0  0
    2.5934   -6.7660    3.9077 O   0  0  0  0  0  0  0  0  0  0  0  0
    4.2628   -5.2666    4.6657 N   0  0  0  0  0  0  0  0  0  0  0  0
    4.5910   -3.9297    4.3681 C   0  0  0  0  0  0  0  0  0  0  0  0
    5.6618   -3.5351    5.2711 C   0  0  0  0  0  0  0  0  0  0  0  0
    6.3507   -2.3360    5.5014 C   0  0  0  0  0  0  0  0  0  0  0  0
    7.3305   -2.3079    6.4994 C   0  0  0  0  0  0  0  0  0  0  0  0
    7.6334   -3.4443    7.2670 C   0  0  0  0  0  0  0  0  0  0  0  0
    6.9396   -4.6397    7.0557 C   0  0  0  0  0  0  0  0  0  0  0  0
    5.9611   -4.6701    6.0659 C   0  0  0  0  0  0  0  0  0  0  0  0
    5.0699   -5.8106    5.6989 C   0  0  0  0  0  0  0  0  0  0  0  0
    5.0158   -6.9255    6.1518 O   0  0  0  0  0  0  0  0  0  0  0  0
    4.8449   -1.5195    2.3955 C   0  0  0  0  0  0  0  0  0  0  0  0
    7.9312    0.6998    1.4386 H   0  0  0  0  0  0  0  0  0  0  0  0
    7.4244   -1.0141    1.3051 H   0  0  0  0  0  0  0  0  0  0  0  0
    7.3067   -0.1605    2.8798 H   0  0  0  0  0  0  0  0  0  0  0  0
    3.5921    1.1634    0.7303 H   0  0  0  0  0  0  0  0  0  0  0  0
    1.4827   -0.0784    1.1158 H   0  0  0  0  0  0  0  0  0  0  0  0
   -0.6963   -2.6968    2.3511 H   0  0  0  0  0  0  0  0  0  0  0  0
   -0.0446   -1.8073    0.9382 H   0  0  0  0  0  0  0  0  0  0  0  0
   -0.1665   -0.9947    2.5373 H   0  0  0  0  0  0  0  0  0  0  0  0
    6.1223   -1.4341    4.9326 H   0  0  0  0  0  0  0  0  0  0  0  0
    7.8697   -1.3758    6.6882 H   0  0  0  0  0  0  0  0  0  0  0  0
    8.4068   -3.3880    8.0365 H   0  0  0  0  0  0  0  0  0  0  0  0
    7.1414   -5.5356    7.6477 H   0  0  0  0  0  0  0  0  0  0  0  0
    5.7862   -1.9594    2.7189 H   0  0  0  0  0  0  0  0  0  0  0  0
  1  2  1  0
  1 26  1  0
  1 27  1  0
  1 28  1  0
  2  3  1  0
  3  4  2  0
  3 25  1  0
  4  5  1  0
  4 29  1  0
  5  6  2  0
  5 30  1  0
  6  7  1  0
  6  9  1  0
  7  8  1  0
  8 31  1  0
  8 32  1  0
  8 33  1  0
  9 10  1  0
  9 25  2  0
 10 11  1  0
 10 16  2  0
 11 12  1  0
 11 13  1  0
 13 14  2  0
 13 15  1  0
 15 16  1  0
 15 23  1  0
 16 17  1  0
 17 18  2  0
 17 22  1  0
 18 19  1  0
 18 34  1  0
 19 20  2  0
 19 35  1  0
 20 21  1  0
 20 36  1  0
 21 22  2  0
 21 37  1  0
 22 23  1  0
 23 24  2  0
 25 38  1  0
M  END

