
     RDKit          3D

 56 57  0  0  0  0  0  0  0  0999 V2000
    3.1598   -5.3967   -3.4863 C   0  0  0  0  0  0  0  0  0  0  0  0
    4.6179   -4.4944   -2.8777 S   0  0  0  0  0  0  0  0  0  0  0  0
    5.7575   -5.9068   -2.5821 C   0  0  0  0  0  0  0  0  0  0  0  0
    7.0189   -5.4655   -1.8436 C   0  0  0  0  0  0  0  0  0  0  0  0
    6.7533   -4.9778   -0.4103 C   0  0  1  0  0  0  0  0  0  0  0  0
    6.0435   -4.1341   -0.4571 H   0  0  0  0  0  0  0  0  0  0  0  0
    6.1349   -5.9790    0.4445 N   0  0  0  0  0  0  0  0  0  0  0  0
    6.9274   -6.9590    1.0131 C   0  0  0  0  0  0  0  0  0  0  0  0
    6.3393   -7.6735    2.0390 N   0  0  0  0  0  0  0  0  0  0  0  0
    8.0515   -7.1942    0.5941 O   0  0  0  0  0  0  0  0  0  0  0  0
    8.0335   -4.4135    0.2216 C   0  0  0  0  0  0  0  0  0  0  0  0
    9.0247   -4.0846   -0.3740 O   0  0  0  0  0  0  0  0  0  0  0  0
    7.8670   -4.2680    1.5585 O   0  0  0  0  0  0  0  0  0  0  0  0
    9.0040   -3.9979    2.3539 C   0  0  0  0  0  0  0  0  0  0  0  0
    9.1524   -5.1028    3.4134 C   0  0  0  0  0  0  0  0  0  0  0  0
    8.1941   -5.7169    3.8446 O   0  0  0  0  0  0  0  0  0  0  0  0
   10.4448   -5.2543    3.8378 N   0  0  0  0  0  0  0  0  0  0  0  0
   10.9542   -6.0757    4.8683 C   0  0  0  0  0  0  0  0  0  0  0  0
   10.1516   -6.8743    5.6936 C   0  0  0  0  0  0  0  0  0  0  0  0
   10.7518   -7.6505    6.6857 C   0  0  0  0  0  0  0  0  0  0  0  0
   12.1422   -7.6632    6.8987 C   0  0  0  0  0  0  0  0  0  0  0  0
   12.7254   -8.4393    7.9243 N   0  0  0  0  0  0  0  0  0  0  0  0
   11.9059   -8.9214    9.0283 C   0  0  0  0  0  0  0  0  0  0  0  0
   12.9234   -9.6343    9.9296 C   0  0  0  0  0  0  0  0  0  0  0  0
   13.9953  -10.1689    8.9428 C   0  0  0  0  0  0  0  0  0  0  0  0
   13.6177   -9.5518    7.5791 C   0  0  0  0  0  0  0  0  0  0  0  0
   12.9529   -6.8258    6.0854 C   0  0  0  0  0  0  0  0  0  0  0  0
   14.4376   -6.6997    6.3167 C   0  0  0  0  0  0  0  0  0  0  0  0
   12.3418   -6.0653    5.0857 C   0  0  0  0  0  0  0  0  0  0  0  0
    2.3856   -4.6478   -3.7067 H   0  0  0  0  0  0  0  0  0  0  0  0
    2.7721   -6.0962   -2.7290 H   0  0  0  0  0  0  0  0  0  0  0  0
    3.3881   -5.9494   -4.4111 H   0  0  0  0  0  0  0  0  0  0  0  0
    6.0290   -6.3532   -3.5520 H   0  0  0  0  0  0  0  0  0  0  0  0
    5.2226   -6.6694   -1.9933 H   0  0  0  0  0  0  0  0  0  0  0  0
    7.5310   -4.6623   -2.3955 H   0  0  0  0  0  0  0  0  0  0  0  0
    7.7193   -6.3123   -1.7897 H   0  0  0  0  0  0  0  0  0  0  0  0
    5.2766   -5.7183    0.9130 H   0  0  0  0  0  0  0  0  0  0  0  0
    5.7179   -7.1573    2.6543 H   0  0  0  0  0  0  0  0  0  0  0  0
    7.0268   -8.2122    2.5566 H   0  0  0  0  0  0  0  0  0  0  0  0
    8.8445   -3.0384    2.8765 H   0  0  0  0  0  0  0  0  0  0  0  0
    9.8947   -3.9032    1.7138 H   0  0  0  0  0  0  0  0  0  0  0  0
   11.1461   -4.7254    3.3316 H   0  0  0  0  0  0  0  0  0  0  0  0
    9.0744   -6.8897    5.5471 H   0  0  0  0  0  0  0  0  0  0  0  0
   10.1074   -8.2731    7.3077 H   0  0  0  0  0  0  0  0  0  0  0  0
   11.1303   -9.6454    8.6917 H   0  0  0  0  0  0  0  0  0  0  0  0
   11.3854   -8.0863    9.5221 H   0  0  0  0  0  0  0  0  0  0  0  0
   12.4557  -10.4300   10.5285 H   0  0  0  0  0  0  0  0  0  0  0  0
   13.3722   -8.9139   10.6299 H   0  0  0  0  0  0  0  0  0  0  0  0
   14.0007  -11.2678    8.8868 H   0  0  0  0  0  0  0  0  0  0  0  0
   15.0037   -9.8572    9.2533 H   0  0  0  0  0  0  0  0  0  0  0  0
   13.0856  -10.2962    6.9486 H   0  0  0  0  0  0  0  0  0  0  0  0
   14.4924   -9.2120    7.0089 H   0  0  0  0  0  0  0  0  0  0  0  0
   14.6669   -6.7730    7.3908 H   0  0  0  0  0  0  0  0  0  0  0  0
   14.8147   -5.7371    5.9404 H   0  0  0  0  0  0  0  0  0  0  0  0
   15.0111   -7.4929    5.8058 H   0  0  0  0  0  0  0  0  0  0  0  0
   12.9716   -5.4166    4.4673 H   0  0  0  0  0  0  0  0  0  0  0  0
  1  2  1  0
  1 30  1  0
  1 31  1  0
  1 32  1  0
  2  3  1  0
  3  4  1  0
  3 33  1  0
  3 34  1  0
  4  5  1  0
  4 35  1  0
  4 36  1  0
  5  6  1  6
  5  7  1  0
  5 11  1  0
  7  8  1  0
  7 37  1  0
  8  9  1  0
  8 10  2  0
  9 38  1  0
  9 39  1  0
 11 12  2  0
 11 13  1  0
 13 14  1  0
 14 15  1  0
 14 40  1  0
 14 41  1  0
 15 16  2  0
 15 17  1  0
 17 18  1  0
 17 42  1  0
 18 19  2  0
 18 29  1  0
 19 20  1  0
 19 43  1  0
 20 21  2  0
 20 44  1  0
 21 22  1  0
 21 27  1  0
 22 23  1  0
 22 26  1  0
 23 24  1  0
 23 45  1  0
 23 46  1  0
 24 25  1  0
 24 47  1  0
 24 48  1  0
 25 26  1  0
 25 49  1  0
 25 50  1  0
 26 51  1  0
 26 52  1  0
 27 28  1  0
 27 29  2  0
 28 53  1  0
 28 54  1  0
 28 55  1  0
 29 56  1  0
M  END

