
     RDKit          3D

 64 67  0  0  0  0  0  0  0  0999 V2000
    1.5189    4.2046    1.4154 C   0  0  0  0  0  0  0  0  0  0  0  0
    2.9248    3.7408    1.1352 C   0  0  0  0  0  0  0  0  0  0  0  0
    4.0096    4.1152    1.9457 C   0  0  0  0  0  0  0  0  0  0  0  0
    5.2877    3.6534    1.6563 C   0  0  0  0  0  0  0  0  0  0  0  0
    5.4633    2.8246    0.5290 C   0  0  0  0  0  0  0  0  0  0  0  0
    6.7594    2.3809    0.2096 N   0  0  0  0  0  0  0  0  0  0  0  0
    7.1349    1.2180   -0.4578 C   0  0  0  0  0  0  0  0  0  0  0  0
    6.3556    0.3528   -0.7910 O   0  0  0  0  0  0  0  0  0  0  0  0
    8.6470    1.1550   -0.7336 C   0  0  1  0  0  0  0  0  0  0  0  0
    9.1235   -0.2850   -1.0078 C   0  0  0  0  0  0  0  0  0  0  0  0
    8.7593   -0.7735   -2.4246 C   0  0  0  0  0  0  0  0  0  0  0  0
    9.1755    0.1392   -3.4907 N   0  0  0  0  0  0  0  0  0  0  0  0
   10.5851    0.0869   -3.8509 C   0  0  0  0  0  0  0  0  0  0  0  0
   10.8986   -1.0944   -4.7762 C   0  0  0  0  0  0  0  0  0  0  0  0
   12.3213   -1.0373   -5.3141 C   0  0  0  0  0  0  0  0  0  0  0  0
   12.9580   -0.0134   -5.4207 O   0  0  0  0  0  0  0  0  0  0  0  0
   12.8347   -2.2780   -5.6987 N   0  0  0  0  0  0  0  0  0  0  0  0
   14.0887   -2.4599   -6.2801 C   0  0  0  0  0  0  0  0  0  0  0  0
   14.2490   -3.1935   -7.8561 S   0  0  0  0  0  0  0  0  0  0  0  0
   15.9843   -3.0071   -7.8341 C   0  0  0  0  0  0  0  0  0  0  0  0
   16.4103   -2.3791   -6.6916 C   0  0  0  0  0  0  0  0  0  0  0  0
   15.3244   -2.0723   -5.7901 C   0  0  0  0  0  0  0  0  0  0  0  0
   15.5209   -1.4919   -4.5016 C   0  0  0  0  0  0  0  0  0  0  0  0
   15.7234   -1.0501   -3.4463 N   0  0  0  0  0  0  0  0  0  0  0  0
   17.8682   -2.1109   -6.4231 C   0  0  0  0  0  0  0  0  0  0  0  0
   18.7162   -2.2957   -7.6916 C   0  0  0  0  0  0  0  0  0  0  0  0
   18.3461   -3.5656   -8.4858 C   0  0  1  0  0  0  0  0  0  0  0  0
   18.6216   -4.8558   -7.7018 C   0  0  0  0  0  0  0  0  0  0  0  0
   16.8746   -3.4746   -8.9532 C   0  0  0  0  0  0  0  0  0  0  0  0
    8.6345    1.4755   -3.2671 C   0  0  0  0  0  0  0  0  0  0  0  0
    9.0380    2.0845   -1.9126 C   0  0  0  0  0  0  0  0  0  0  0  0
    4.4517    2.4749   -0.2574 N   0  0  0  0  0  0  0  0  0  0  0  0
    3.2290    2.9098    0.0483 C   0  0  0  0  0  0  0  0  0  0  0  0
    1.4473    5.3053    1.4099 H   0  0  0  0  0  0  0  0  0  0  0  0
    1.1712    3.8635    2.4051 H   0  0  0  0  0  0  0  0  0  0  0  0
    0.8141    3.8197    0.6634 H   0  0  0  0  0  0  0  0  0  0  0  0
    3.8500    4.7622    2.8136 H   0  0  0  0  0  0  0  0  0  0  0  0
    6.1365    3.9189    2.2921 H   0  0  0  0  0  0  0  0  0  0  0  0
    7.5141    2.9336    0.5978 H   0  0  0  0  0  0  0  0  0  0  0  0
    9.1545    1.5256    0.1762 H   0  0  0  0  0  0  0  0  0  0  0  0
    8.6946   -0.9736   -0.2627 H   0  0  0  0  0  0  0  0  0  0  0  0
   10.2186   -0.3121   -0.8740 H   0  0  0  0  0  0  0  0  0  0  0  0
    7.6677   -0.8995   -2.4809 H   0  0  0  0  0  0  0  0  0  0  0  0
    9.2062   -1.7655   -2.5998 H   0  0  0  0  0  0  0  0  0  0  0  0
   11.2725    0.0473   -2.9791 H   0  0  0  0  0  0  0  0  0  0  0  0
   10.8504    1.0068   -4.3920 H   0  0  0  0  0  0  0  0  0  0  0  0
   10.2027   -1.0620   -5.6337 H   0  0  0  0  0  0  0  0  0  0  0  0
   10.7251   -2.0588   -4.2703 H   0  0  0  0  0  0  0  0  0  0  0  0
   12.2083   -3.0754   -5.6664 H   0  0  0  0  0  0  0  0  0  0  0  0
   18.2190   -2.7837   -5.6193 H   0  0  0  0  0  0  0  0  0  0  0  0
   17.9956   -1.0914   -6.0231 H   0  0  0  0  0  0  0  0  0  0  0  0
   19.7851   -2.3178   -7.4239 H   0  0  0  0  0  0  0  0  0  0  0  0
   18.5768   -1.4187   -8.3477 H   0  0  0  0  0  0  0  0  0  0  0  0
   18.9750   -3.5857   -9.3924 H   0  0  0  0  0  0  0  0  0  0  0  0
   17.9709   -4.9491   -6.8176 H   0  0  0  0  0  0  0  0  0  0  0  0
   19.6668   -4.8916   -7.3540 H   0  0  0  0  0  0  0  0  0  0  0  0
   18.4492   -5.7436   -8.3314 H   0  0  0  0  0  0  0  0  0  0  0  0
   16.5346   -4.4509   -9.3388 H   0  0  0  0  0  0  0  0  0  0  0  0
   16.8003   -2.7704   -9.8023 H   0  0  0  0  0  0  0  0  0  0  0  0
    7.5332    1.4128   -3.3244 H   0  0  0  0  0  0  0  0  0  0  0  0
    8.9569    2.1363   -4.0879 H   0  0  0  0  0  0  0  0  0  0  0  0
    8.5767    3.0794   -1.7926 H   0  0  0  0  0  0  0  0  0  0  0  0
   10.1306    2.2386   -1.8899 H   0  0  0  0  0  0  0  0  0  0  0  0
    2.4246    2.5869   -0.6253 H   0  0  0  0  0  0  0  0  0  0  0  0
  1  2  1  0
  1 34  1  0
  1 35  1  0
  1 36  1  0
  2  3  2  0
  2 33  1  0
  3  4  1  0
  3 37  1  0
  4  5  2  0
  4 38  1  0
  5  6  1  0
  5 32  1  0
  6  7  1  0
  6 39  1  0
  7  8  2  0
  7  9  1  0
  9 10  1  0
  9 31  1  0
  9 40  1  1
 10 11  1  0
 10 41  1  0
 10 42  1  0
 11 12  1  0
 11 43  1  0
 11 44  1  0
 12 13  1  0
 12 30  1  0
 13 14  1  0
 13 45  1  0
 13 46  1  0
 14 15  1  0
 14 47  1  0
 14 48  1  0
 15 16  2  0
 15 17  1  0
 17 18  1  0
 17 49  1  0
 18 19  1  0
 18 22  2  0
 19 20  1  0
 20 21  2  0
 20 29  1  0
 21 22  1  0
 21 25  1  0
 22 23  1  0
 23 24  3  0
 25 26  1  0
 25 50  1  0
 25 51  1  0
 26 27  1  0
 26 52  1  0
 26 53  1  0
 27 28  1  0
 27 29  1  0
 27 54  1  6
 28 55  1  0
 28 56  1  0
 28 57  1  0
 29 58  1  0
 29 59  1  0
 30 31  1  0
 30 60  1  0
 30 61  1  0
 31 62  1  0
 31 63  1  0
 32 33  2  0
 33 64  1  0
M  END

