
     RDKit          3D

 33 34  0  0  0  0  0  0  0  0999 V2000
    3.1549    0.3828    1.4316 C   0  0  0  0  0  0  0  0  0  0  0  0
    2.7404    0.0800   -0.0077 C   0  0  2  0  0  0  0  0  0  0  0  0
    1.6465    0.1716   -0.0984 H   0  0  0  0  0  0  0  0  0  0  0  0
    3.0697   -1.3621   -0.4646 C   0  0  0  0  0  0  0  0  0  0  0  0
    4.4856   -1.6128   -0.6671 N   0  0  0  0  0  0  0  0  0  0  0  0
    5.1494   -1.6552   -1.8564 C   0  0  0  0  0  0  0  0  0  0  0  0
    6.4877   -1.8585   -1.5626 C   0  0  0  0  0  0  0  0  0  0  0  0
    6.5253   -1.9229   -0.1496 C   0  0  0  0  0  0  0  0  0  0  0  0
    5.3136   -1.7714    0.3807 N   0  0  0  0  0  0  0  0  0  0  0  0
    3.3108    1.0749   -0.9087 N   0  0  0  0  0  0  0  0  0  0  0  0
    2.7642    1.3007   -2.1520 C   0  0  0  0  0  0  0  0  0  0  0  0
    1.7466    0.7412   -2.5326 O   0  0  0  0  0  0  0  0  0  0  0  0
    3.4687    2.2267   -2.9107 N   0  0  0  0  0  0  0  0  0  0  0  0
    3.1927    2.6637   -4.2128 C   0  0  0  0  0  0  0  0  0  0  0  0
    2.1139    2.2194   -4.9961 C   0  0  0  0  0  0  0  0  0  0  0  0
    1.9751    2.7467   -6.2805 C   0  0  0  0  0  0  0  0  0  0  0  0
    2.8949    3.6889   -6.7472 C   0  0  0  0  0  0  0  0  0  0  0  0
    3.9209    4.1156   -6.0051 N   0  0  0  0  0  0  0  0  0  0  0  0
    4.0616    3.6181   -4.7832 C   0  0  0  0  0  0  0  0  0  0  0  0
    4.2410    0.2696    1.5682 H   0  0  0  0  0  0  0  0  0  0  0  0
    2.6695   -0.3206    2.1244 H   0  0  0  0  0  0  0  0  0  0  0  0
    2.8550    1.4051    1.7086 H   0  0  0  0  0  0  0  0  0  0  0  0
    2.5629   -1.5443   -1.4218 H   0  0  0  0  0  0  0  0  0  0  0  0
    2.6898   -2.0836    0.2744 H   0  0  0  0  0  0  0  0  0  0  0  0
    4.6232   -1.5529   -2.8036 H   0  0  0  0  0  0  0  0  0  0  0  0
    7.3112   -1.9601   -2.2655 H   0  0  0  0  0  0  0  0  0  0  0  0
    7.3861   -2.0817    0.5002 H   0  0  0  0  0  0  0  0  0  0  0  0
    4.2612    1.3724   -0.7177 H   0  0  0  0  0  0  0  0  0  0  0  0
    4.2605    2.6810   -2.4701 H   0  0  0  0  0  0  0  0  0  0  0  0
    1.4166    1.4886   -4.5921 H   0  0  0  0  0  0  0  0  0  0  0  0
    1.1475    2.4241   -6.9170 H   0  0  0  0  0  0  0  0  0  0  0  0
    2.8007    4.1144   -7.7526 H   0  0  0  0  0  0  0  0  0  0  0  0
    4.9153    3.9862   -4.1950 H   0  0  0  0  0  0  0  0  0  0  0  0
  1  2  1  0
  1 20  1  0
  1 21  1  0
  1 22  1  0
  2  3  1  1
  2  4  1  0
  2 10  1  0
  4  5  1  0
  4 23  1  0
  4 24  1  0
  5  6  1  0
  5  9  1  0
  6  7  2  0
  6 25  1  0
  7  8  1  0
  7 26  1  0
  8  9  2  0
  8 27  1  0
 10 11  1  0
 10 28  1  0
 11 12  2  0
 11 13  1  0
 13 14  1  0
 13 29  1  0
 14 15  2  0
 14 19  1  0
 15 16  1  0
 15 30  1  0
 16 17  2  0
 16 31  1  0
 17 18  1  0
 17 32  1  0
 18 19  2  0
 19 33  1  0
M  END

