
     RDKit          3D

 69 74  0  0  0  0  0  0  0  0999 V2000
    1.4499    2.5716    0.7877 C   0  0  0  0  0  0  0  0  0  0  0  0
    2.7771    2.3071    1.2421 O   0  0  0  0  0  0  0  0  0  0  0  0
    3.1982    1.0283    1.1509 C   0  0  0  0  0  0  0  0  0  0  0  0
    2.4957    0.1470    0.7177 O   0  0  0  0  0  0  0  0  0  0  0  0
    4.6632    0.8631    1.5910 C   0  0  1  0  0  0  0  0  0  0  0  0
    5.5029    1.3405    0.3568 C   0  0  0  0  0  0  0  0  0  0  0  0
    6.9907    1.3954    0.5435 C   0  0  0  0  0  0  0  0  0  0  0  0
    7.7627    2.5473    0.6498 C   0  0  0  0  0  0  0  0  0  0  0  0
    9.0651    2.1202    0.7842 N   0  0  0  0  0  0  0  0  0  0  0  0
   10.2599    2.8002    0.9520 C   0  0  0  0  0  0  0  0  0  0  0  0
   10.2203    4.3037    0.9788 C   0  0  0  0  0  0  0  0  0  0  0  0
    9.3269    4.9363    0.4323 O   0  0  0  0  0  0  0  0  0  0  0  0
   11.2483    4.9007    1.6527 N   0  0  0  0  0  0  0  0  0  0  0  0
   11.3785    6.3454    1.7606 C   0  0  0  0  0  0  0  0  0  0  0  0
   12.5305    6.9672    0.9443 C   0  0  2  0  0  0  0  0  0  0  0  0
   12.3675    6.6899   -0.5691 C   0  0  0  0  0  0  0  0  0  0  0  0
   13.5040    7.3603   -1.3659 C   0  0  1  0  0  0  0  0  0  0  0  0
   13.4680    8.8829   -1.1299 C   0  0  0  0  0  0  0  0  0  0  0  0
   13.6509    9.1745    0.3723 C   0  0  2  0  0  0  0  0  0  0  0  0
   15.0076    8.6149    0.8430 C   0  0  0  0  0  0  0  0  0  0  0  0
   15.0458    7.0924    0.6068 C   0  0  2  0  0  0  0  0  0  0  0  0
   14.8606    6.8003   -0.8952 C   0  0  0  0  0  0  0  0  0  0  0  0
   13.9061    6.4240    1.4009 C   0  0  0  0  0  0  0  0  0  0  0  0
   12.5160    8.4992    1.1660 C   0  0  0  0  0  0  0  0  0  0  0  0
   11.4227    2.0610    1.0380 C   0  0  0  0  0  0  0  0  0  0  0  0
   11.4114    0.6424    0.9863 C   0  0  0  0  0  0  0  0  0  0  0  0
   10.2172   -0.0287    0.8483 C   0  0  0  0  0  0  0  0  0  0  0  0
    9.0136    0.7038    0.7464 C   0  0  0  0  0  0  0  0  0  0  0  0
    7.7671    0.2777    0.6022 N   0  0  0  0  0  0  0  0  0  0  0  0
    4.9740    1.7072    2.8479 C   0  0  0  0  0  0  0  0  0  0  0  0
    4.2830    1.1424    4.0899 C   0  0  0  0  0  0  0  0  0  0  0  0
    4.6272   -0.2071    4.3139 O   0  0  0  0  0  0  0  0  0  0  0  0
    4.2542   -1.0404    3.2300 C   0  0  0  0  0  0  0  0  0  0  0  0
    4.9244   -0.6228    1.9197 C   0  0  0  0  0  0  0  0  0  0  0  0
    1.2809    3.6446    0.9423 H   0  0  0  0  0  0  0  0  0  0  0  0
    0.7163    1.9827    1.3586 H   0  0  0  0  0  0  0  0  0  0  0  0
    1.3429    2.3177   -0.2779 H   0  0  0  0  0  0  0  0  0  0  0  0
    5.1524    2.3442    0.0714 H   0  0  0  0  0  0  0  0  0  0  0  0
    5.2796    0.6621   -0.4834 H   0  0  0  0  0  0  0  0  0  0  0  0
    7.5122    3.6001    0.6045 H   0  0  0  0  0  0  0  0  0  0  0  0
   11.8662    4.3166    2.2005 H   0  0  0  0  0  0  0  0  0  0  0  0
   11.5112    6.6084    2.8250 H   0  0  0  0  0  0  0  0  0  0  0  0
   10.4205    6.7710    1.4288 H   0  0  0  0  0  0  0  0  0  0  0  0
   11.3865    7.0609   -0.9111 H   0  0  0  0  0  0  0  0  0  0  0  0
   12.3721    5.6020   -0.7518 H   0  0  0  0  0  0  0  0  0  0  0  0
   13.3683    7.1483   -2.4400 H   0  0  0  0  0  0  0  0  0  0  0  0
   12.5088    9.2990   -1.4838 H   0  0  0  0  0  0  0  0  0  0  0  0
   14.2643    9.3779   -1.7123 H   0  0  0  0  0  0  0  0  0  0  0  0
   13.6184   10.2635    0.5463 H   0  0  0  0  0  0  0  0  0  0  0  0
   15.1607    8.8377    1.9135 H   0  0  0  0  0  0  0  0  0  0  0  0
   15.8314    9.1044    0.2954 H   0  0  0  0  0  0  0  0  0  0  0  0
   16.0142    6.6880    0.9479 H   0  0  0  0  0  0  0  0  0  0  0  0
   14.9076    5.7128   -1.0798 H   0  0  0  0  0  0  0  0  0  0  0  0
   15.6826    7.2564   -1.4737 H   0  0  0  0  0  0  0  0  0  0  0  0
   14.0399    6.6092    2.4825 H   0  0  0  0  0  0  0  0  0  0  0  0
   13.9454    5.3298    1.2542 H   0  0  0  0  0  0  0  0  0  0  0  0
   11.5391    8.9085    0.8535 H   0  0  0  0  0  0  0  0  0  0  0  0
   12.6234    8.7220    2.2429 H   0  0  0  0  0  0  0  0  0  0  0  0
   12.3753    2.5855    1.1181 H   0  0  0  0  0  0  0  0  0  0  0  0
   12.3527    0.0936    1.0521 H   0  0  0  0  0  0  0  0  0  0  0  0
   10.1540   -1.1167    0.8066 H   0  0  0  0  0  0  0  0  0  0  0  0
    4.6841    2.7578    2.6950 H   0  0  0  0  0  0  0  0  0  0  0  0
    6.0621    1.6829    3.0175 H   0  0  0  0  0  0  0  0  0  0  0  0
    3.1798    1.2483    3.9957 H   0  0  0  0  0  0  0  0  0  0  0  0
    4.5880    1.7013    4.9886 H   0  0  0  0  0  0  0  0  0  0  0  0
    3.1512   -1.0362    3.1122 H   0  0  0  0  0  0  0  0  0  0  0  0
    4.5536   -2.0633    3.5056 H   0  0  0  0  0  0  0  0  0  0  0  0
    4.5534   -1.2560    1.0995 H   0  0  0  0  0  0  0  0  0  0  0  0
    6.0105   -0.7773    1.9914 H   0  0  0  0  0  0  0  0  0  0  0  0
  1  2  1  0
  1 35  1  0
  1 36  1  0
  1 37  1  0
  2  3  1  0
  3  4  2  0
  5  3  1  6
  5  6  1  0
  5 30  1  0
  5 34  1  0
  6  7  1  0
  6 38  1  0
  6 39  1  0
  7  8  2  0
  7 29  1  0
  8  9  1  0
  8 40  1  0
  9 10  1  0
  9 28  1  0
 10 11  1  0
 10 25  2  0
 11 12  2  0
 11 13  1  0
 13 14  1  0
 13 41  1  0
 15 14  1  1
 14 42  1  0
 14 43  1  0
 15 16  1  0
 15 23  1  0
 15 24  1  0
 16 17  1  0
 16 44  1  0
 16 45  1  0
 17 18  1  0
 17 22  1  0
 17 46  1  6
 18 19  1  0
 18 47  1  0
 18 48  1  0
 19 20  1  0
 19 24  1  0
 19 49  1  6
 20 21  1  0
 20 50  1  0
 20 51  1  0
 21 22  1  0
 21 23  1  0
 21 52  1  1
 22 53  1  0
 22 54  1  0
 23 55  1  0
 23 56  1  0
 24 57  1  0
 24 58  1  0
 25 26  1  0
 25 59  1  0
 26 27  2  0
 26 60  1  0
 27 28  1  0
 27 61  1  0
 28 29  2  0
 30 31  1  0
 30 62  1  0
 30 63  1  0
 31 32  1  0
 31 64  1  0
 31 65  1  0
 32 33  1  0
 33 34  1  0
 33 66  1  0
 33 67  1  0
 34 68  1  0
 34 69  1  0
M  END

