
     RDKit          3D

 47 49  0  0  0  0  0  0  0  0999 V2000
    0.7697    0.8661    1.9492 O   0  0  0  0  0  0  0  0  0  0  0  0
    1.9320    0.6554    1.6273 C   0  0  0  0  0  0  0  0  0  0  0  0
    2.3554   -0.5406    1.1173 N   0  0  0  0  0  0  0  0  0  0  0  0
    1.4633   -1.6450    0.8435 C   0  0  0  0  0  0  0  0  0  0  0  0
    1.7093   -2.2035   -0.5621 C   0  0  0  0  0  0  0  0  0  0  0  0
    3.1157   -2.5528   -0.7703 N   0  0  0  0  0  0  0  0  0  0  0  0
    3.5256   -3.8366   -0.1924 C   0  0  0  0  0  0  0  0  0  0  0  0
    3.1249   -5.0561   -1.0417 C   0  0  0  0  0  0  0  0  0  0  0  0
    3.6340   -4.9087   -2.4823 C   0  0  0  0  0  0  0  0  0  0  0  0
    3.2021   -3.5608   -3.0762 C   0  0  0  0  0  0  0  0  0  0  0  0
    3.6072   -2.4086   -2.1418 C   0  0  0  0  0  0  0  0  0  0  0  0
    2.9756    1.7038    1.7783 C   0  0  0  0  0  0  0  0  0  0  0  0
    2.7207    3.0421    2.1776 C   0  0  0  0  0  0  0  0  0  0  0  0
    3.8369    3.7547    2.2497 N   0  0  0  0  0  0  0  0  0  0  0  0
    4.8251    2.9019    1.9128 N   0  0  0  0  0  0  0  0  0  0  0  0
    6.1988    3.3807    1.8283 C   0  0  0  0  0  0  0  0  0  0  0  0
    6.5995    3.8771    0.4502 C   0  0  0  0  0  0  0  0  0  0  0  0
    5.8421    4.8660   -0.1986 C   0  0  0  0  0  0  0  0  0  0  0  0
    6.2233    5.3337   -1.4575 C   0  0  0  0  0  0  0  0  0  0  0  0
    7.3677    4.8252   -2.0830 C   0  0  0  0  0  0  0  0  0  0  0  0
    8.1275    3.8434   -1.4431 C   0  0  0  0  0  0  0  0  0  0  0  0
    7.7419    3.3710   -0.1839 C   0  0  0  0  0  0  0  0  0  0  0  0
    4.3575    1.6633    1.6162 C   0  0  0  0  0  0  0  0  0  0  0  0
    3.2949   -0.6487    0.7500 H   0  0  0  0  0  0  0  0  0  0  0  0
    0.4314   -1.2776    0.9387 H   0  0  0  0  0  0  0  0  0  0  0  0
    1.5860   -2.4445    1.5995 H   0  0  0  0  0  0  0  0  0  0  0  0
    1.4455   -1.4230   -1.2935 H   0  0  0  0  0  0  0  0  0  0  0  0
    1.0111   -3.0491   -0.7360 H   0  0  0  0  0  0  0  0  0  0  0  0
    3.1154   -3.9218    0.8261 H   0  0  0  0  0  0  0  0  0  0  0  0
    4.6262   -3.8240   -0.0832 H   0  0  0  0  0  0  0  0  0  0  0  0
    2.0252   -5.1609   -1.0475 H   0  0  0  0  0  0  0  0  0  0  0  0
    3.5205   -5.9758   -0.5779 H   0  0  0  0  0  0  0  0  0  0  0  0
    3.2806   -5.7448   -3.1086 H   0  0  0  0  0  0  0  0  0  0  0  0
    4.7390   -4.9653   -2.4832 H   0  0  0  0  0  0  0  0  0  0  0  0
    2.1068   -3.5509   -3.2225 H   0  0  0  0  0  0  0  0  0  0  0  0
    3.6520   -3.4094   -4.0724 H   0  0  0  0  0  0  0  0  0  0  0  0
    3.2648   -1.4400   -2.5401 H   0  0  0  0  0  0  0  0  0  0  0  0
    4.7121   -2.3592   -2.1003 H   0  0  0  0  0  0  0  0  0  0  0  0
    1.7528    3.4809    2.4146 H   0  0  0  0  0  0  0  0  0  0  0  0
    6.8669    2.5670    2.1471 H   0  0  0  0  0  0  0  0  0  0  0  0
    6.2792    4.1892    2.5701 H   0  0  0  0  0  0  0  0  0  0  0  0
    4.9480    5.2606    0.2907 H   0  0  0  0  0  0  0  0  0  0  0  0
    5.6252    6.1025   -1.9535 H   0  0  0  0  0  0  0  0  0  0  0  0
    7.6650    5.1946   -3.0678 H   0  0  0  0  0  0  0  0  0  0  0  0
    9.0217    3.4396   -1.9249 H   0  0  0  0  0  0  0  0  0  0  0  0
    8.3399    2.5997    0.3113 H   0  0  0  0  0  0  0  0  0  0  0  0
    5.0360    0.8613    1.3307 H   0  0  0  0  0  0  0  0  0  0  0  0
  1  2  2  0
  2  3  1  0
  2 12  1  0
  3  4  1  0
  3 24  1  0
  4  5  1  0
  4 25  1  0
  4 26  1  0
  5  6  1  0
  5 27  1  0
  5 28  1  0
  6  7  1  0
  6 11  1  0
  7  8  1  0
  7 29  1  0
  7 30  1  0
  8  9  1  0
  8 31  1  0
  8 32  1  0
  9 10  1  0
  9 33  1  0
  9 34  1  0
 10 11  1  0
 10 35  1  0
 10 36  1  0
 11 37  1  0
 11 38  1  0
 12 13  1  0
 12 23  2  0
 13 14  2  0
 13 39  1  0
 14 15  1  0
 15 16  1  0
 15 23  1  0
 16 17  1  0
 16 40  1  0
 16 41  1  0
 17 18  2  0
 17 22  1  0
 18 19  1  0
 18 42  1  0
 19 20  2  0
 19 43  1  0
 20 21  1  0
 20 44  1  0
 21 22  2  0
 21 45  1  0
 22 46  1  0
 23 47  1  0
M  END

