
     RDKit          3D

 51 53  0  0  0  0  0  0  0  0999 V2000
    0.3855    0.8453    0.9050 C   0  0  0  0  0  0  0  0  0  0  0  0
    1.6609    0.1691    1.4075 C   0  0  0  0  0  0  0  0  0  0  0  0
    2.7703    1.1651    1.7078 C   0  0  0  0  0  0  0  0  0  0  0  0
    3.9015    0.4417    2.1706 O   0  0  0  0  0  0  0  0  0  0  0  0
    5.0640    1.0818    2.4170 C   0  0  0  0  0  0  0  0  0  0  0  0
    5.2290    2.4747    2.4072 C   0  0  0  0  0  0  0  0  0  0  0  0
    6.4718    3.0353    2.7209 C   0  0  0  0  0  0  0  0  0  0  0  0
    7.5625    2.2263    3.0409 C   0  0  0  0  0  0  0  0  0  0  0  0
    7.4090    0.8369    3.0297 C   0  0  0  0  0  0  0  0  0  0  0  0
    6.1775    0.2623    2.7171 C   0  0  0  0  0  0  0  0  0  0  0  0
    6.0136   -1.1498    2.7125 N   0  0  0  0  0  0  0  0  0  0  0  0
    6.0288   -1.9689    3.8248 C   0  0  0  0  0  0  0  0  0  0  0  0
    6.2570   -1.6918    4.9846 O   0  0  0  0  0  0  0  0  0  0  0  0
    5.7039   -3.3428    3.3427 C   0  0  0  0  0  0  0  0  0  0  0  0
    5.6719   -4.3192    4.2503 O   0  0  0  0  0  0  0  0  0  0  0  0
    5.4852   -3.3516    1.9996 C   0  0  0  0  0  0  0  0  0  0  0  0
    5.1477   -4.4678    1.1146 C   0  0  0  0  0  0  0  0  0  0  0  0
    4.9657   -4.2947   -0.2777 C   0  0  0  0  0  0  0  0  0  0  0  0
    4.6438   -5.3678   -1.0973 C   0  0  0  0  0  0  0  0  0  0  0  0
    4.4894   -6.6624   -0.5684 C   0  0  0  0  0  0  0  0  0  0  0  0
    4.1925   -7.6360   -1.4621 O   0  0  0  0  0  0  0  0  0  0  0  0
    3.9709   -8.9938   -1.0593 C   0  0  1  0  0  0  0  0  0  0  0  0
    2.5522   -9.1717   -0.5209 C   0  0  0  0  0  0  0  0  0  0  0  0
    4.2456   -9.8473   -2.2907 C   0  0  0  0  0  0  0  0  0  0  0  0
    4.6633   -6.8516    0.8137 C   0  0  0  0  0  0  0  0  0  0  0  0
    4.9883   -5.7699    1.6321 C   0  0  0  0  0  0  0  0  0  0  0  0
    5.6811   -1.9244    1.5578 C   0  0  0  0  0  0  0  0  0  0  0  0
    5.6046   -1.4513    0.4519 O   0  0  0  0  0  0  0  0  0  0  0  0
   -0.3982    0.1016    0.6951 H   0  0  0  0  0  0  0  0  0  0  0  0
    0.5646    1.4081   -0.0264 H   0  0  0  0  0  0  0  0  0  0  0  0
   -0.0201    1.5525    1.6480 H   0  0  0  0  0  0  0  0  0  0  0  0
    2.0362   -0.5514    0.6620 H   0  0  0  0  0  0  0  0  0  0  0  0
    1.4543   -0.4090    2.3241 H   0  0  0  0  0  0  0  0  0  0  0  0
    2.4442    1.8918    2.4767 H   0  0  0  0  0  0  0  0  0  0  0  0
    3.0376    1.7371    0.7994 H   0  0  0  0  0  0  0  0  0  0  0  0
    4.3891    3.1271    2.1695 H   0  0  0  0  0  0  0  0  0  0  0  0
    6.5802    4.1229    2.7152 H   0  0  0  0  0  0  0  0  0  0  0  0
    8.5292    2.6690    3.2890 H   0  0  0  0  0  0  0  0  0  0  0  0
    8.2497    0.1804    3.2624 H   0  0  0  0  0  0  0  0  0  0  0  0
    5.8811   -3.8988    5.1078 H   0  0  0  0  0  0  0  0  0  0  0  0
    5.0832   -3.3018   -0.7098 H   0  0  0  0  0  0  0  0  0  0  0  0
    4.5074   -5.2316   -2.1722 H   0  0  0  0  0  0  0  0  0  0  0  0
    4.7034   -9.2591   -0.2755 H   0  0  0  0  0  0  0  0  0  0  0  0
    1.8168   -8.9195   -1.3012 H   0  0  0  0  0  0  0  0  0  0  0  0
    2.3635   -8.5240    0.3480 H   0  0  0  0  0  0  0  0  0  0  0  0
    2.3857  -10.2156   -0.2111 H   0  0  0  0  0  0  0  0  0  0  0  0
    3.5548   -9.5781   -3.1052 H   0  0  0  0  0  0  0  0  0  0  0  0
    4.1120  -10.9150   -2.0582 H   0  0  0  0  0  0  0  0  0  0  0  0
    5.2746   -9.6920   -2.6475 H   0  0  0  0  0  0  0  0  0  0  0  0
    4.5481   -7.8359    1.2673 H   0  0  0  0  0  0  0  0  0  0  0  0
    5.1181   -5.9439    2.7005 H   0  0  0  0  0  0  0  0  0  0  0  0
  1  2  1  0
  1 29  1  0
  1 30  1  0
  1 31  1  0
  2  3  1  0
  2 32  1  0
  2 33  1  0
  3  4  1  0
  3 34  1  0
  3 35  1  0
  4  5  1  0
  5  6  2  0
  5 10  1  0
  6  7  1  0
  6 36  1  0
  7  8  2  0
  7 37  1  0
  8  9  1  0
  8 38  1  0
  9 10  2  0
  9 39  1  0
 10 11  1  0
 11 12  1  0
 11 27  1  0
 12 13  2  0
 12 14  1  0
 14 15  1  0
 14 16  2  0
 15 40  1  0
 16 17  1  0
 16 27  1  0
 17 18  2  0
 17 26  1  0
 18 19  1  0
 18 41  1  0
 19 20  2  0
 19 42  1  0
 20 21  1  0
 20 25  1  0
 21 22  1  0
 22 23  1  0
 22 24  1  0
 22 43  1  1
 23 44  1  0
 23 45  1  0
 23 46  1  0
 24 47  1  0
 24 48  1  0
 24 49  1  0
 25 26  2  0
 25 50  1  0
 26 51  1  0
 27 28  2  0
M  END

