
     RDKit          3D

 40 40  0  0  0  0  0  0  0  0999 V2000
    1.2300   -0.1918   -0.2171 C   0  0  0  0  0  0  0  0  0  0  0  0
    2.6820   -0.1185   -0.2191 N   0  0  0  0  0  0  0  0  0  0  0  0
    3.3470   -1.0203    0.7052 C   0  0  0  0  0  0  0  0  0  0  0  0
    3.2953    0.5762   -1.2374 C   0  0  0  0  0  0  0  0  0  0  0  0
    2.6665    1.0371   -2.1813 O   0  0  0  0  0  0  0  0  0  0  0  0
    4.7862    0.8084   -1.1656 C   0  0  0  0  0  0  0  0  0  0  0  0
    5.4539    1.2067    0.0021 C   0  0  0  0  0  0  0  0  0  0  0  0
    6.8210    1.5007   -0.0338 C   0  0  0  0  0  0  0  0  0  0  0  0
    7.5311    1.3964   -1.2288 C   0  0  0  0  0  0  0  0  0  0  0  0
    6.8708    1.0351   -2.4145 C   0  0  0  0  0  0  0  0  0  0  0  0
    7.7007    0.9566   -3.6730 C   0  0  0  0  0  0  0  0  0  0  0  0
    8.9185    0.8448   -3.6208 O   0  0  0  0  0  0  0  0  0  0  0  0
    7.0165    1.0364   -4.8535 N   0  0  0  0  0  0  0  0  0  0  0  0
    7.6871    1.0076   -6.1420 C   0  0  0  0  0  0  0  0  0  0  0  0
    7.7299   -0.3972   -6.8177 C   0  0  1  0  0  0  0  0  0  0  0  0
    6.3099   -0.8605   -7.1722 C   0  0  0  0  0  0  0  0  0  0  0  0
    8.5814   -0.2793   -8.0903 C   0  0  0  0  0  0  0  0  0  0  0  0
    8.3350   -1.4170   -5.9568 N   0  0  0  0  0  0  0  0  0  0  0  0
    5.5018    0.7475   -2.3705 C   0  0  0  0  0  0  0  0  0  0  0  0
    0.8471   -0.0324    0.8051 H   0  0  0  0  0  0  0  0  0  0  0  0
    0.8752   -1.1795   -0.5660 H   0  0  0  0  0  0  0  0  0  0  0  0
    0.8307    0.5764   -0.8886 H   0  0  0  0  0  0  0  0  0  0  0  0
    2.9123   -2.0325    0.6179 H   0  0  0  0  0  0  0  0  0  0  0  0
    3.2241   -0.6951    1.7543 H   0  0  0  0  0  0  0  0  0  0  0  0
    4.4174   -1.0962    0.4858 H   0  0  0  0  0  0  0  0  0  0  0  0
    4.9035    1.3060    0.9403 H   0  0  0  0  0  0  0  0  0  0  0  0
    7.3327    1.8146    0.8795 H   0  0  0  0  0  0  0  0  0  0  0  0
    8.6026    1.5988   -1.2760 H   0  0  0  0  0  0  0  0  0  0  0  0
    6.0271    1.2451   -4.8258 H   0  0  0  0  0  0  0  0  0  0  0  0
    8.7197    1.3499   -5.9751 H   0  0  0  0  0  0  0  0  0  0  0  0
    7.1942    1.7333   -6.8104 H   0  0  0  0  0  0  0  0  0  0  0  0
    5.8230   -0.1659   -7.8752 H   0  0  0  0  0  0  0  0  0  0  0  0
    5.6794   -0.9280   -6.2695 H   0  0  0  0  0  0  0  0  0  0  0  0
    6.3415   -1.8597   -7.6316 H   0  0  0  0  0  0  0  0  0  0  0  0
    8.1722    0.4726   -8.7845 H   0  0  0  0  0  0  0  0  0  0  0  0
    8.6237   -1.2497   -8.6064 H   0  0  0  0  0  0  0  0  0  0  0  0
    9.6148    0.0165   -7.8438 H   0  0  0  0  0  0  0  0  0  0  0  0
    7.7507   -1.5684   -5.1337 H   0  0  0  0  0  0  0  0  0  0  0  0
    9.2286   -1.0819   -5.5925 H   0  0  0  0  0  0  0  0  0  0  0  0
    4.9491    0.4592   -3.2669 H   0  0  0  0  0  0  0  0  0  0  0  0
  1  2  1  0
  1 20  1  0
  1 21  1  0
  1 22  1  0
  2  3  1  0
  2  4  1  0
  3 23  1  0
  3 24  1  0
  3 25  1  0
  4  5  2  0
  4  6  1  0
  6  7  2  0
  6 19  1  0
  7  8  1  0
  7 26  1  0
  8  9  2  0
  8 27  1  0
  9 10  1  0
  9 28  1  0
 10 11  1  0
 10 19  2  0
 11 12  2  0
 11 13  1  0
 13 14  1  0
 13 29  1  0
 14 15  1  0
 14 30  1  0
 14 31  1  0
 15 16  1  0
 15 17  1  0
 15 18  1  1
 16 32  1  0
 16 33  1  0
 16 34  1  0
 17 35  1  0
 17 36  1  0
 17 37  1  0
 18 38  1  0
 18 39  1  0
 19 40  1  0
M  END

