
     RDKit          3D

 74 81  0  0  0  0  0  0  0  0999 V2000
    3.5277   -2.6486    0.8319 C   0  0  0  0  0  0  0  0  0  0  0  0
    3.5062   -1.4078    1.7214 C   0  0  1  0  0  0  0  0  0  0  0  0
    3.3850   -1.8208    3.1938 C   0  0  0  0  0  0  0  0  0  0  0  0
    4.7664   -0.7135    1.5791 O   0  0  0  0  0  0  0  0  0  0  0  0
    4.5312    0.6410    1.6304 B   0  0  0  0  0  0  0  0  0  0  0  0
    5.7111    1.6628    1.7215 C   0  0  0  0  0  0  0  0  0  0  0  0
    6.9788    1.0980    1.7771 C   0  0  0  0  0  0  0  0  0  0  0  0
    8.1180    1.9235    1.8509 C   0  0  0  0  0  0  0  0  0  0  0  0
    8.0325    3.3290    1.8550 C   0  0  0  0  0  0  0  0  0  0  0  0
    6.7408    3.9507    1.8044 C   0  0  0  0  0  0  0  0  0  0  0  0
    6.5654    5.3601    1.8158 C   0  0  0  0  0  0  0  0  0  0  0  0
    5.3076    5.9299    1.7692 C   0  0  0  0  0  0  0  0  0  0  0  0
    4.1625    5.1081    1.7079 C   0  0  0  0  0  0  0  0  0  0  0  0
    4.2963    3.7327    1.6939 C   0  0  0  0  0  0  0  0  0  0  0  0
    5.5734    3.1060    1.7403 C   0  0  0  0  0  0  0  0  0  0  0  0
    9.3946    3.8223    1.9030 C   0  0  0  0  0  0  0  0  0  0  0  0
   10.0069    5.0904    1.9369 C   0  0  0  0  0  0  0  0  0  0  0  0
   11.3914    5.1926    1.9946 C   0  0  0  0  0  0  0  0  0  0  0  0
   12.2286    4.0480    2.0291 C   0  0  0  0  0  0  0  0  0  0  0  0
   13.7069    4.1909    2.0933 C   0  0  0  0  0  0  0  0  0  0  0  0
   14.4961    3.2581    2.8349 C   0  0  0  0  0  0  0  0  0  0  0  0
   15.8660    3.3728    2.9036 C   0  0  0  0  0  0  0  0  0  0  0  0
   16.5515    4.4259    2.2358 C   0  0  0  0  0  0  0  0  0  0  0  0
   17.9651    4.5753    2.2837 C   0  0  0  0  0  0  0  0  0  0  0  0
   18.5891    5.6106    1.6185 C   0  0  0  0  0  0  0  0  0  0  0  0
   17.8242    6.5448    0.8738 C   0  0  0  0  0  0  0  0  0  0  0  0
   16.4515    6.4274    0.8095 C   0  0  0  0  0  0  0  0  0  0  0  0
   15.7756    5.3721    1.4867 C   0  0  0  0  0  0  0  0  0  0  0  0
   14.3633    5.2245    1.4382 C   0  0  0  0  0  0  0  0  0  0  0  0
   11.6371    2.7769    2.0011 C   0  0  0  0  0  0  0  0  0  0  0  0
   10.2442    2.6767    1.9281 C   0  0  0  0  0  0  0  0  0  0  0  0
    9.4564    1.5303    1.8937 N   0  0  0  0  0  0  0  0  0  0  0  0
    9.9340    0.1904    1.9119 C   0  0  0  0  0  0  0  0  0  0  0  0
    9.5755   -0.6719    2.9588 C   0  0  0  0  0  0  0  0  0  0  0  0
   10.0416   -1.9887    2.9692 C   0  0  0  0  0  0  0  0  0  0  0  0
   10.8800   -2.4485    1.9490 C   0  0  0  0  0  0  0  0  0  0  0  0
   11.2441   -1.5867    0.9097 C   0  0  0  0  0  0  0  0  0  0  0  0
   10.7673   -0.2740    0.8833 C   0  0  0  0  0  0  0  0  0  0  0  0
    3.1877    0.9261    1.5924 O   0  0  0  0  0  0  0  0  0  0  0  0
    2.4639   -0.2943    1.2951 C   0  0  1  0  0  0  0  0  0  0  0  0
    2.1686   -0.2821   -0.2096 C   0  0  0  0  0  0  0  0  0  0  0  0
    1.1576   -0.2914    2.0847 C   0  0  0  0  0  0  0  0  0  0  0  0
    4.2939   -3.3495    1.1962 H   0  0  0  0  0  0  0  0  0  0  0  0
    3.7706   -2.3990   -0.2092 H   0  0  0  0  0  0  0  0  0  0  0  0
    2.5557   -3.1660    0.8533 H   0  0  0  0  0  0  0  0  0  0  0  0
    4.2609   -2.4289    3.4648 H   0  0  0  0  0  0  0  0  0  0  0  0
    2.4795   -2.4183    3.3780 H   0  0  0  0  0  0  0  0  0  0  0  0
    3.3650   -0.9440    3.8577 H   0  0  0  0  0  0  0  0  0  0  0  0
    7.0860    0.0127    1.7583 H   0  0  0  0  0  0  0  0  0  0  0  0
    7.4397    6.0071    1.8647 H   0  0  0  0  0  0  0  0  0  0  0  0
    5.2020    7.0179    1.7806 H   0  0  0  0  0  0  0  0  0  0  0  0
    3.1675    5.5594    1.6712 H   0  0  0  0  0  0  0  0  0  0  0  0
    3.4097    3.1022    1.6455 H   0  0  0  0  0  0  0  0  0  0  0  0
    9.4117    6.0032    1.9309 H   0  0  0  0  0  0  0  0  0  0  0  0
   11.8463    6.1835    2.0478 H   0  0  0  0  0  0  0  0  0  0  0  0
   13.9963    2.4544    3.3798 H   0  0  0  0  0  0  0  0  0  0  0  0
   16.4466    2.6531    3.4876 H   0  0  0  0  0  0  0  0  0  0  0  0
   18.5519    3.8530    2.8581 H   0  0  0  0  0  0  0  0  0  0  0  0
   19.6763    5.7144    1.6623 H   0  0  0  0  0  0  0  0  0  0  0  0
   18.3289    7.3607    0.3499 H   0  0  0  0  0  0  0  0  0  0  0  0
   15.8614    7.1475    0.2357 H   0  0  0  0  0  0  0  0  0  0  0  0
   13.7913    5.9393    0.8416 H   0  0  0  0  0  0  0  0  0  0  0  0
   12.2538    1.8777    2.0090 H   0  0  0  0  0  0  0  0  0  0  0  0
    8.9368   -0.3016    3.7631 H   0  0  0  0  0  0  0  0  0  0  0  0
    9.7558   -2.6554    3.7866 H   0  0  0  0  0  0  0  0  0  0  0  0
   11.2486   -3.4770    1.9635 H   0  0  0  0  0  0  0  0  0  0  0  0
   11.8945   -1.9407    0.1060 H   0  0  0  0  0  0  0  0  0  0  0  0
   11.0308    0.3968    0.0630 H   0  0  0  0  0  0  0  0  0  0  0  0
    3.0955   -0.2842   -0.8019 H   0  0  0  0  0  0  0  0  0  0  0  0
    1.6131    0.6348   -0.4564 H   0  0  0  0  0  0  0  0  0  0  0  0
    1.5592   -1.1468   -0.5123 H   0  0  0  0  0  0  0  0  0  0  0  0
    1.3303   -0.1366    3.1577 H   0  0  0  0  0  0  0  0  0  0  0  0
    0.6139   -1.2394    1.9481 H   0  0  0  0  0  0  0  0  0  0  0  0
    0.5113    0.5245    1.7273 H   0  0  0  0  0  0  0  0  0  0  0  0
  2  1  1  6
  1 43  1  0
  1 44  1  0
  1 45  1  0
  2  3  1  0
  2  4  1  0
  2 40  1  0
  3 46  1  0
  3 47  1  0
  3 48  1  0
  4  5  1  0
  5  6  1  0
  5 39  1  0
  6  7  2  0
  6 15  1  0
  7  8  1  0
  7 49  1  0
  8  9  2  0
  8 32  1  0
  9 10  1  0
  9 16  1  0
 10 11  1  0
 10 15  2  0
 11 12  2  0
 11 50  1  0
 12 13  1  0
 12 51  1  0
 13 14  2  0
 13 52  1  0
 14 15  1  0
 14 53  1  0
 16 17  2  0
 16 31  1  0
 17 18  1  0
 17 54  1  0
 18 19  2  0
 18 55  1  0
 19 20  1  0
 19 30  1  0
 20 21  2  0
 20 29  1  0
 21 22  1  0
 21 56  1  0
 22 23  2  0
 22 57  1  0
 23 24  1  0
 23 28  1  0
 24 25  2  0
 24 58  1  0
 25 26  1  0
 25 59  1  0
 26 27  2  0
 26 60  1  0
 27 28  1  0
 27 61  1  0
 28 29  2  0
 29 62  1  0
 30 31  2  0
 30 63  1  0
 31 32  1  0
 32 33  1  0
 33 34  2  0
 33 38  1  0
 34 35  1  0
 34 64  1  0
 35 36  2  0
 35 65  1  0
 36 37  1  0
 36 66  1  0
 37 38  2  0
 37 67  1  0
 38 68  1  0
 39 40  1  0
 40 41  1  6
 40 42  1  0
 41 69  1  0
 41 70  1  0
 41 71  1  0
 42 72  1  0
 42 73  1  0
 42 74  1  0
M  END

