
     RDKit          3D

 49 53  0  0  0  0  0  0  0  0999 V2000
    4.8107    0.0484    1.7156 C   0  0  0  0  0  0  0  0  0  0  0  0
    3.9623    1.2020    1.4866 N   0  0  0  0  0  0  0  0  0  0  0  0
    3.0507    1.6389    2.5272 C   0  0  0  0  0  0  0  0  0  0  0  0
    4.0584    1.9092    0.3103 C   0  0  0  0  0  0  0  0  0  0  0  0
    4.9764    1.5369   -0.7075 C   0  0  0  0  0  0  0  0  0  0  0  0
    5.0571    2.2426   -1.8998 C   0  0  0  0  0  0  0  0  0  0  0  0
    4.2441    3.3669   -2.1519 C   0  0  0  0  0  0  0  0  0  0  0  0
    4.3095    4.1878   -3.3732 C   0  0  0  0  0  0  0  0  0  0  0  0
    4.7638    3.7599   -4.6344 C   0  0  0  0  0  0  0  0  0  0  0  0
    5.1019    2.3472   -4.9883 C   0  0  0  0  0  0  0  0  0  0  0  0
    4.0910    1.3726   -5.0683 C   0  0  0  0  0  0  0  0  0  0  0  0
    4.3932    0.0560   -5.4223 C   0  0  0  0  0  0  0  0  0  0  0  0
    5.7112   -0.3096   -5.7152 C   0  0  0  0  0  0  0  0  0  0  0  0
    6.7250    0.6504   -5.6500 C   0  0  0  0  0  0  0  0  0  0  0  0
    6.4231    1.9667   -5.2879 C   0  0  0  0  0  0  0  0  0  0  0  0
    4.8661    4.7506   -5.6467 C   0  0  0  0  0  0  0  0  0  0  0  0
    5.5346    4.4374   -7.2442 S   0  0  0  0  0  0  0  0  0  0  0  0
    5.2633    6.1158   -7.6948 C   0  0  0  0  0  0  0  0  0  0  0  0
    5.5485    6.7463   -8.9086 C   0  0  0  0  0  0  0  0  0  0  0  0
    5.2453    8.1032   -9.0322 C   0  0  0  0  0  0  0  0  0  0  0  0
    4.6739    8.8106   -7.9605 C   0  0  0  0  0  0  0  0  0  0  0  0
    4.3903    8.1858   -6.7474 C   0  0  0  0  0  0  0  0  0  0  0  0
    4.6851    6.8202   -6.6182 C   0  0  0  0  0  0  0  0  0  0  0  0
    4.4661    6.0202   -5.5007 N   0  0  0  0  0  0  0  0  0  0  0  0
    3.6087    6.4305   -4.2343 B   0  0  1  0  0  0  0  0  0  0  0  0
    3.9975    7.6737   -3.7927 F   0  0  0  0  0  0  0  0  0  0  0  0
    2.2732    6.3841   -4.5711 F   0  0  0  0  0  0  0  0  0  0  0  0
    3.9058    5.4210   -3.1928 O   0  0  0  0  0  0  0  0  0  0  0  0
    3.3523    3.7545   -1.1279 C   0  0  0  0  0  0  0  0  0  0  0  0
    3.2489    3.0497    0.0610 C   0  0  0  0  0  0  0  0  0  0  0  0
    4.5568   -0.4043    2.6824 H   0  0  0  0  0  0  0  0  0  0  0  0
    5.8844    0.3132    1.7378 H   0  0  0  0  0  0  0  0  0  0  0  0
    4.6737   -0.7237    0.9377 H   0  0  0  0  0  0  0  0  0  0  0  0
    3.1207    0.9555    3.3827 H   0  0  0  0  0  0  0  0  0  0  0  0
    2.0005    1.6412    2.1838 H   0  0  0  0  0  0  0  0  0  0  0  0
    3.2862    2.6569    2.8880 H   0  0  0  0  0  0  0  0  0  0  0  0
    5.6444    0.6888   -0.5644 H   0  0  0  0  0  0  0  0  0  0  0  0
    5.7925    1.9216   -2.6353 H   0  0  0  0  0  0  0  0  0  0  0  0
    3.0596    1.6569   -4.8469 H   0  0  0  0  0  0  0  0  0  0  0  0
    3.5937   -0.6875   -5.4761 H   0  0  0  0  0  0  0  0  0  0  0  0
    5.9466   -1.3394   -5.9960 H   0  0  0  0  0  0  0  0  0  0  0  0
    7.7581    0.3736   -5.8761 H   0  0  0  0  0  0  0  0  0  0  0  0
    7.2234    2.7082   -5.2230 H   0  0  0  0  0  0  0  0  0  0  0  0
    5.9957    6.1932   -9.7371 H   0  0  0  0  0  0  0  0  0  0  0  0
    5.4586    8.6186   -9.9715 H   0  0  0  0  0  0  0  0  0  0  0  0
    4.4500    9.8736   -8.0766 H   0  0  0  0  0  0  0  0  0  0  0  0
    3.9631    8.7291   -5.9053 H   0  0  0  0  0  0  0  0  0  0  0  0
    2.7247    4.6322   -1.2860 H   0  0  0  0  0  0  0  0  0  0  0  0
    2.5315    3.3915    0.8058 H   0  0  0  0  0  0  0  0  0  0  0  0
  1  2  1  0
  1 31  1  0
  1 32  1  0
  1 33  1  0
  2  3  1  0
  2  4  1  0
  3 34  1  0
  3 35  1  0
  3 36  1  0
  4  5  2  0
  4 30  1  0
  5  6  1  0
  5 37  1  0
  6  7  2  0
  6 38  1  0
  7  8  1  0
  7 29  1  0
  8  9  2  0
  8 28  1  0
  9 10  1  0
  9 16  1  0
 10 11  2  0
 10 15  1  0
 11 12  1  0
 11 39  1  0
 12 13  2  0
 12 40  1  0
 13 14  1  0
 13 41  1  0
 14 15  2  0
 14 42  1  0
 15 43  1  0
 16 17  2  0
 16 24  1  0
 17 18  1  0
 18 19  2  0
 18 23  1  0
 19 20  1  0
 19 44  1  0
 20 21  2  0
 20 45  1  0
 21 22  1  0
 21 46  1  0
 22 23  2  0
 22 47  1  0
 23 24  1  0
 24 25  1  0
 25 26  1  1
 25 27  1  0
 25 28  1  0
 29 30  2  0
 29 48  1  0
 30 49  1  0
M  CHG  2  17   1  25  -1
M  END

