
     RDKit          3D

 28 29  0  0  0  0  0  0  0  0999 V2000
    1.0661   -0.4272    0.1243 C   0  0  0  0  0  0  0  0  0  0  0  0
    2.4554   -0.1515    0.1696 O   0  0  0  0  0  0  0  0  0  0  0  0
    3.1643   -1.2380   -0.2607 N   0  0  0  0  0  0  0  0  0  0  0  0
    4.4441   -1.0619   -0.3187 C   0  0  0  0  0  0  0  0  0  0  0  0
    5.1858    0.1744    0.0545 C   0  0  0  0  0  0  0  0  0  0  0  0
    4.8881    0.8712    1.2380 C   0  0  0  0  0  0  0  0  0  0  0  0
    5.5953    2.0231    1.5841 C   0  0  0  0  0  0  0  0  0  0  0  0
    6.6094    2.5321    0.7596 C   0  0  0  0  0  0  0  0  0  0  0  0
    7.3738    3.7801    1.1267 C   0  0  0  0  0  0  0  0  0  0  0  0
    6.8987    1.8361   -0.4256 C   0  0  0  0  0  0  0  0  0  0  0  0
    6.2104    0.6748   -0.7702 C   0  0  0  0  0  0  0  0  0  0  0  0
    5.1646   -2.2582   -0.8097 C   0  0  0  0  0  0  0  0  0  0  0  0
    4.5792   -3.4829   -1.2745 C   0  0  0  0  0  0  0  0  0  0  0  0
    5.6608   -4.2436   -1.5870 C   0  0  0  0  0  0  0  0  0  0  0  0
    6.7936   -3.5626   -1.3421 O   0  0  0  0  0  0  0  0  0  0  0  0
    6.4815   -2.3151   -0.8521 N   0  0  0  0  0  0  0  0  0  0  0  0
    0.5675    0.4824    0.4864 H   0  0  0  0  0  0  0  0  0  0  0  0
    0.8062   -1.2787    0.7754 H   0  0  0  0  0  0  0  0  0  0  0  0
    0.7361   -0.6454   -0.9054 H   0  0  0  0  0  0  0  0  0  0  0  0
    4.0990    0.5064    1.8951 H   0  0  0  0  0  0  0  0  0  0  0  0
    5.3499    2.5401    2.5162 H   0  0  0  0  0  0  0  0  0  0  0  0
    7.0049    4.2211    2.0645 H   0  0  0  0  0  0  0  0  0  0  0  0
    7.2921    4.5462    0.3376 H   0  0  0  0  0  0  0  0  0  0  0  0
    8.4484    3.5663    1.2550 H   0  0  0  0  0  0  0  0  0  0  0  0
    7.6852    2.2065   -1.0898 H   0  0  0  0  0  0  0  0  0  0  0  0
    6.4728    0.1483   -1.6881 H   0  0  0  0  0  0  0  0  0  0  0  0
    3.5232   -3.7203   -1.3469 H   0  0  0  0  0  0  0  0  0  0  0  0
    5.7847   -5.2518   -1.9780 H   0  0  0  0  0  0  0  0  0  0  0  0
  1  2  1  0
  1 17  1  0
  1 18  1  0
  1 19  1  0
  2  3  1  0
  3  4  2  0
  4  5  1  0
  4 12  1  0
  5  6  2  0
  5 11  1  0
  6  7  1  0
  6 20  1  0
  7  8  2  0
  7 21  1  0
  8  9  1  0
  8 10  1  0
  9 22  1  0
  9 23  1  0
  9 24  1  0
 10 11  2  0
 10 25  1  0
 11 26  1  0
 12 13  1  0
 12 16  2  0
 13 14  2  0
 13 27  1  0
 14 15  1  0
 14 28  1  0
 15 16  1  0
M  END

