
     RDKit          3D

 36 37  0  0  0  0  0  0  0  0999 V2000
    1.1340    0.0144    0.7678 O   0  0  0  0  0  0  0  0  0  0  0  0
    2.3421    0.0631    0.5598 C   0  0  0  0  0  0  0  0  0  0  0  0
    3.1614    1.1871    1.0481 C   0  0  0  0  0  0  0  0  0  0  0  0
    2.5617    2.1605    1.7738 C   0  0  0  0  0  0  0  0  0  0  0  0
    3.1586    3.3035    2.2425 N   0  0  0  0  0  0  0  0  0  0  0  0
    2.5205    4.0645    3.2009 N   0  0  0  0  0  0  0  0  0  0  0  0
    2.9740    4.0224    4.5089 C   0  0  0  0  0  0  0  0  0  0  0  0
    3.8815    3.2899    4.8498 O   0  0  0  0  0  0  0  0  0  0  0  0
    2.2795    4.9573    5.4619 C   0  0  0  0  0  0  0  0  0  0  0  0
    0.9819    5.4496    5.2425 C   0  0  0  0  0  0  0  0  0  0  0  0
    0.3828    6.2989    6.1727 C   0  0  0  0  0  0  0  0  0  0  0  0
    1.0973    6.6431    7.3196 C   0  0  0  0  0  0  0  0  0  0  0  0
    0.4674    7.5507    8.3082 N   0  0  0  0  0  0  0  0  0  0  0  0
   -0.6552    7.9571    8.0605 O   0  0  0  0  0  0  0  0  0  0  0  0
    1.1144    7.8319    9.3024 O   0  0  0  0  0  0  0  0  0  0  0  0
    2.3809    6.1561    7.5710 C   0  0  0  0  0  0  0  0  0  0  0  0
    2.9656    5.3044    6.6369 C   0  0  0  0  0  0  0  0  0  0  0  0
    3.0084   -1.0480   -0.2136 C   0  0  0  0  0  0  0  0  0  0  0  0
    2.1805   -2.0663   -0.7196 C   0  0  0  0  0  0  0  0  0  0  0  0
    2.7176   -3.1292   -1.4434 C   0  0  0  0  0  0  0  0  0  0  0  0
    4.0972   -3.1950   -1.6721 C   0  0  0  0  0  0  0  0  0  0  0  0
    4.9321   -2.1920   -1.1718 C   0  0  0  0  0  0  0  0  0  0  0  0
    4.3918   -1.1253   -0.4483 C   0  0  0  0  0  0  0  0  0  0  0  0
    4.2283    1.2399    0.8272 H   0  0  0  0  0  0  0  0  0  0  0  0
    1.4901    2.0768    1.9800 H   0  0  0  0  0  0  0  0  0  0  0  0
    4.1749    3.3189    2.3082 H   0  0  0  0  0  0  0  0  0  0  0  0
    2.0707    4.9109    2.8621 H   0  0  0  0  0  0  0  0  0  0  0  0
    0.4161    5.1479    4.3585 H   0  0  0  0  0  0  0  0  0  0  0  0
   -0.6243    6.6901    6.0319 H   0  0  0  0  0  0  0  0  0  0  0  0
    2.8935    6.4477    8.4873 H   0  0  0  0  0  0  0  0  0  0  0  0
    3.9616    4.8898    6.8014 H   0  0  0  0  0  0  0  0  0  0  0  0
    1.1092   -1.9932   -0.5246 H   0  0  0  0  0  0  0  0  0  0  0  0
    2.0609   -3.9121   -1.8317 H   0  0  0  0  0  0  0  0  0  0  0  0
    4.5212   -4.0283   -2.2386 H   0  0  0  0  0  0  0  0  0  0  0  0
    6.0103   -2.2400   -1.3441 H   0  0  0  0  0  0  0  0  0  0  0  0
    5.0660   -0.3585   -0.0640 H   0  0  0  0  0  0  0  0  0  0  0  0
  1  2  2  0
  2  3  1  0
  2 18  1  0
  3  4  2  0
  3 24  1  0
  4  5  1  0
  4 25  1  0
  5  6  1  0
  5 26  1  0
  6  7  1  0
  6 27  1  0
  7  8  2  0
  7  9  1  0
  9 10  2  0
  9 17  1  0
 10 11  1  0
 10 28  1  0
 11 12  2  0
 11 29  1  0
 12 13  1  0
 12 16  1  0
 13 14  2  0
 13 15  1  0
 16 17  2  0
 16 30  1  0
 17 31  1  0
 18 19  2  0
 18 23  1  0
 19 20  1  0
 19 32  1  0
 20 21  2  0
 20 33  1  0
 21 22  1  0
 21 34  1  0
 22 23  2  0
 22 35  1  0
 23 36  1  0
M  CHG  2  13   1  15  -1
M  END

