
     RDKit          3D

 30 30  0  0  0  0  0  0  0  0999 V2000
    2.1989    0.9316   -1.0089 C   0  0  0  0  0  0  0  0  0  0  0  0
    2.3484   -0.0244    0.1533 C   0  0  0  0  0  0  0  0  0  0  0  0
    1.8032   -1.1736    0.2437 N   0  0  0  0  0  0  0  0  0  0  0  0
    3.2513    0.4370    1.2879 C   0  0  0  0  0  0  0  0  0  0  0  0
    4.7254    0.3641    0.9254 C   0  0  0  0  0  0  0  0  0  0  0  0
    5.5350    1.5061    0.8891 C   0  0  0  0  0  0  0  0  0  0  0  0
    6.8908    1.4172    0.5548 C   0  0  0  0  0  0  0  0  0  0  0  0
    7.4857    0.1872    0.2432 C   0  0  0  0  0  0  0  0  0  0  0  0
    8.9637    0.1012   -0.1169 C   0  0  1  0  0  0  0  0  0  0  0  0
    9.7562   -0.7400    0.8988 C   0  0  0  0  0  0  0  0  0  0  0  0
    9.1790   -0.4094   -1.5523 C   0  0  0  0  0  0  0  0  0  0  0  0
    6.6680   -0.9567    0.2785 C   0  0  0  0  0  0  0  0  0  0  0  0
    5.3164   -0.8715    0.6110 C   0  0  0  0  0  0  0  0  0  0  0  0
    1.6011    0.4921   -1.8214 H   0  0  0  0  0  0  0  0  0  0  0  0
    3.1873    1.2149   -1.4070 H   0  0  0  0  0  0  0  0  0  0  0  0
    1.7108    1.8645   -0.6781 H   0  0  0  0  0  0  0  0  0  0  0  0
    1.2422   -1.3717   -0.5946 H   0  0  0  0  0  0  0  0  0  0  0  0
    3.0411   -0.2128    2.1508 H   0  0  0  0  0  0  0  0  0  0  0  0
    2.9959    1.4720    1.5691 H   0  0  0  0  0  0  0  0  0  0  0  0
    5.1041    2.4821    1.1321 H   0  0  0  0  0  0  0  0  0  0  0  0
    7.4992    2.3266    0.5381 H   0  0  0  0  0  0  0  0  0  0  0  0
    9.3611    1.1303   -0.0716 H   0  0  0  0  0  0  0  0  0  0  0  0
    9.4214   -1.7904    0.8994 H   0  0  0  0  0  0  0  0  0  0  0  0
    9.6350   -0.3510    1.9219 H   0  0  0  0  0  0  0  0  0  0  0  0
   10.8317   -0.7348    0.6565 H   0  0  0  0  0  0  0  0  0  0  0  0
    8.8176   -1.4444   -1.6696 H   0  0  0  0  0  0  0  0  0  0  0  0
   10.2499   -0.4006   -1.8141 H   0  0  0  0  0  0  0  0  0  0  0  0
    8.6439    0.2157   -2.2842 H   0  0  0  0  0  0  0  0  0  0  0  0
    7.0927   -1.9367    0.0434 H   0  0  0  0  0  0  0  0  0  0  0  0
    4.6999   -1.7747    0.6267 H   0  0  0  0  0  0  0  0  0  0  0  0
  1  2  1  0
  1 14  1  0
  1 15  1  0
  1 16  1  0
  2  3  2  0
  2  4  1  0
  3 17  1  0
  4  5  1  0
  4 18  1  0
  4 19  1  0
  5  6  2  0
  5 13  1  0
  6  7  1  0
  6 20  1  0
  7  8  2  0
  7 21  1  0
  8  9  1  0
  8 12  1  0
  9 10  1  0
  9 11  1  0
  9 22  1  6
 10 23  1  0
 10 24  1  0
 10 25  1  0
 11 26  1  0
 11 27  1  0
 11 28  1  0
 12 13  2  0
 12 29  1  0
 13 30  1  0
M  END

