
     RDKit          3D

 53 55  0  0  0  0  0  0  0  0999 V2000
    5.9234    3.4412   -0.3275 C   0  0  0  0  0  0  0  0  0  0  0  0
    6.1060    2.2216   -1.0096 O   0  0  0  0  0  0  0  0  0  0  0  0
    5.7126    1.0609   -0.4152 C   0  0  0  0  0  0  0  0  0  0  0  0
    5.1085    0.9908    0.8464 C   0  0  0  0  0  0  0  0  0  0  0  0
    4.7828   -0.2535    1.3970 C   0  0  0  0  0  0  0  0  0  0  0  0
    5.0606   -1.4260    0.7000 C   0  0  0  0  0  0  0  0  0  0  0  0
    5.6530   -1.3807   -0.5736 C   0  0  0  0  0  0  0  0  0  0  0  0
    5.9440   -2.6513   -1.3380 C   0  0  0  0  0  0  0  0  0  0  0  0
    4.8311   -3.0185   -2.3407 C   0  0  0  0  0  0  0  0  0  0  0  0
    5.0940   -4.2359   -3.0873 N   0  0  0  0  0  0  0  0  0  0  0  0
    4.7661   -5.4687   -2.5623 C   0  0  0  0  0  0  0  0  0  0  0  0
    4.1446   -5.5977   -1.5198 O   0  0  0  0  0  0  0  0  0  0  0  0
    5.1935   -6.5286   -3.3514 N   0  0  0  0  0  0  0  0  0  0  0  0
    5.0338   -7.8979   -3.1187 C   0  0  0  0  0  0  0  0  0  0  0  0
    4.3648   -8.4570   -2.0148 C   0  0  0  0  0  0  0  0  0  0  0  0
    4.2643   -9.8443   -1.8884 C   0  0  0  0  0  0  0  0  0  0  0  0
    4.8087  -10.6996   -2.8505 C   0  0  0  0  0  0  0  0  0  0  0  0
    5.4677  -10.1567   -3.9565 C   0  0  0  0  0  0  0  0  0  0  0  0
    5.5860   -8.7738   -4.0808 C   0  0  0  0  0  0  0  0  0  0  0  0
    6.1814   -8.1871   -5.1869 O   0  0  0  0  0  0  0  0  0  0  0  0
    7.4874   -8.4632   -5.5281 C   0  0  0  0  0  0  0  0  0  0  0  0
    8.4427   -8.9114   -4.6074 C   0  0  0  0  0  0  0  0  0  0  0  0
    9.7581   -9.1174   -5.0349 C   0  0  0  0  0  0  0  0  0  0  0  0
   10.1262   -8.8787   -6.3620 C   0  0  0  0  0  0  0  0  0  0  0  0
    9.1626   -8.4277   -7.2710 C   0  0  0  0  0  0  0  0  0  0  0  0
    7.8446   -8.2216   -6.8607 C   0  0  0  0  0  0  0  0  0  0  0  0
    5.9610   -0.1317   -1.1402 C   0  0  0  0  0  0  0  0  0  0  0  0
    6.5780   -0.1163   -2.3627 O   0  0  0  0  0  0  0  0  0  0  0  0
    5.9783    0.6114   -3.4240 C   0  0  0  0  0  0  0  0  0  0  0  0
    6.3244    4.2280   -0.9807 H   0  0  0  0  0  0  0  0  0  0  0  0
    6.4706    3.4601    0.6322 H   0  0  0  0  0  0  0  0  0  0  0  0
    4.8561    3.6497   -0.1308 H   0  0  0  0  0  0  0  0  0  0  0  0
    4.9030    1.9003    1.4109 H   0  0  0  0  0  0  0  0  0  0  0  0
    4.3174   -0.2982    2.3846 H   0  0  0  0  0  0  0  0  0  0  0  0
    4.8188   -2.3975    1.1386 H   0  0  0  0  0  0  0  0  0  0  0  0
    6.0517   -3.4876   -0.6305 H   0  0  0  0  0  0  0  0  0  0  0  0
    6.8937   -2.5453   -1.8853 H   0  0  0  0  0  0  0  0  0  0  0  0
    4.6844   -2.1963   -3.0586 H   0  0  0  0  0  0  0  0  0  0  0  0
    3.8848   -3.1636   -1.8017 H   0  0  0  0  0  0  0  0  0  0  0  0
    5.7935   -4.1894   -3.8194 H   0  0  0  0  0  0  0  0  0  0  0  0
    5.6279   -6.3214   -4.2442 H   0  0  0  0  0  0  0  0  0  0  0  0
    3.9359   -7.7860   -1.2742 H   0  0  0  0  0  0  0  0  0  0  0  0
    3.7435  -10.2593   -1.0218 H   0  0  0  0  0  0  0  0  0  0  0  0
    4.7163  -11.7832   -2.7487 H   0  0  0  0  0  0  0  0  0  0  0  0
    5.8964  -10.7969   -4.7305 H   0  0  0  0  0  0  0  0  0  0  0  0
    8.1604   -9.0954   -3.5698 H   0  0  0  0  0  0  0  0  0  0  0  0
   10.5032   -9.4658   -4.3147 H   0  0  0  0  0  0  0  0  0  0  0  0
   11.1562   -9.0432   -6.6864 H   0  0  0  0  0  0  0  0  0  0  0  0
    9.4366   -8.2391   -8.3122 H   0  0  0  0  0  0  0  0  0  0  0  0
    7.0767   -7.8758   -7.5557 H   0  0  0  0  0  0  0  0  0  0  0  0
    6.5258    0.3383   -4.3378 H   0  0  0  0  0  0  0  0  0  0  0  0
    6.0464    1.6981   -3.2695 H   0  0  0  0  0  0  0  0  0  0  0  0
    4.9155    0.3334   -3.5501 H   0  0  0  0  0  0  0  0  0  0  0  0
  1  2  1  0
  1 30  1  0
  1 31  1  0
  1 32  1  0
  2  3  1  0
  3  4  2  0
  3 27  1  0
  4  5  1  0
  4 33  1  0
  5  6  2  0
  5 34  1  0
  6  7  1  0
  6 35  1  0
  7  8  1  0
  7 27  2  0
  8  9  1  0
  8 36  1  0
  8 37  1  0
  9 10  1  0
  9 38  1  0
  9 39  1  0
 10 11  1  0
 10 40  1  0
 11 12  2  0
 11 13  1  0
 13 14  1  0
 13 41  1  0
 14 15  2  0
 14 19  1  0
 15 16  1  0
 15 42  1  0
 16 17  2  0
 16 43  1  0
 17 18  1  0
 17 44  1  0
 18 19  2  0
 18 45  1  0
 19 20  1  0
 20 21  1  0
 21 22  2  0
 21 26  1  0
 22 23  1  0
 22 46  1  0
 23 24  2  0
 23 47  1  0
 24 25  1  0
 24 48  1  0
 25 26  2  0
 25 49  1  0
 26 50  1  0
 27 28  1  0
 28 29  1  0
 29 51  1  0
 29 52  1  0
 29 53  1  0
M  END

