
     RDKit          3D

 37 37  0  0  0  0  0  0  0  0999 V2000
    1.3593    0.7529    0.0669 C   0  0  0  0  0  0  0  0  0  0  0  0
    2.4461   -0.1153    0.4751 N   0  0  0  0  0  0  0  0  0  0  0  0
    3.0112   -0.9884   -0.5509 C   0  0  1  0  0  0  0  0  0  0  0  0
    4.3027   -1.6464   -0.0335 C   0  0  0  0  0  0  0  0  0  0  0  0
    4.0288   -2.7590    0.9876 C   0  0  0  0  0  0  0  0  0  0  0  0
    3.0644   -3.8150    0.4257 C   0  0  0  0  0  0  0  0  0  0  0  0
    1.7608   -3.1755   -0.0730 C   0  0  2  0  0  0  0  0  0  0  0  0
    0.6028   -4.3935   -0.8334 S   0  0  0  0  0  0  0  0  0  0  0  0
   -0.1392   -5.2054    0.6596 C   0  0  1  0  0  0  0  0  0  0  0  0
   -1.2393   -4.3404    1.2772 C   0  0  0  0  0  0  0  0  0  0  0  0
   -0.6588   -6.5942    0.2610 C   0  0  0  0  0  0  0  0  0  0  0  0
    0.4175   -7.6172   -0.1079 C   0  0  0  0  0  0  0  0  0  0  0  0
   -0.1284   -8.8641   -0.4843 O   0  0  0  0  0  0  0  0  0  0  0  0
    2.0505   -2.0747   -1.1044 C   0  0  0  0  0  0  0  0  0  0  0  0
    1.0668    1.4008    0.9089 H   0  0  0  0  0  0  0  0  0  0  0  0
    0.4402    0.2404   -0.2923 H   0  0  0  0  0  0  0  0  0  0  0  0
    1.6986    1.4147   -0.7485 H   0  0  0  0  0  0  0  0  0  0  0  0
    2.1965   -0.6374    1.3121 H   0  0  0  0  0  0  0  0  0  0  0  0
    3.2789   -0.3284   -1.3958 H   0  0  0  0  0  0  0  0  0  0  0  0
    4.9482   -0.8675    0.4019 H   0  0  0  0  0  0  0  0  0  0  0  0
    4.8447   -2.0791   -0.8928 H   0  0  0  0  0  0  0  0  0  0  0  0
    3.6085   -2.3265    1.9145 H   0  0  0  0  0  0  0  0  0  0  0  0
    4.9758   -3.2382    1.2875 H   0  0  0  0  0  0  0  0  0  0  0  0
    2.8519   -4.5832    1.1874 H   0  0  0  0  0  0  0  0  0  0  0  0
    3.5390   -4.3389   -0.4226 H   0  0  0  0  0  0  0  0  0  0  0  0
    1.2264   -2.7216    0.7803 H   0  0  0  0  0  0  0  0  0  0  0  0
    0.6788   -5.3330    1.3892 H   0  0  0  0  0  0  0  0  0  0  0  0
   -2.0742   -4.2097    0.5709 H   0  0  0  0  0  0  0  0  0  0  0  0
   -0.8674   -3.3398    1.5458 H   0  0  0  0  0  0  0  0  0  0  0  0
   -1.6338   -4.8088    2.1959 H   0  0  0  0  0  0  0  0  0  0  0  0
   -1.3679   -6.5065   -0.5811 H   0  0  0  0  0  0  0  0  0  0  0  0
   -1.2439   -6.9907    1.1131 H   0  0  0  0  0  0  0  0  0  0  0  0
    1.1342   -7.7204    0.7347 H   0  0  0  0  0  0  0  0  0  0  0  0
    0.9965   -7.2559   -0.9706 H   0  0  0  0  0  0  0  0  0  0  0  0
   -0.6132   -9.2216    0.2711 H   0  0  0  0  0  0  0  0  0  0  0  0
    1.1055   -1.6203   -1.4409 H   0  0  0  0  0  0  0  0  0  0  0  0
    2.5104   -2.5326   -1.9985 H   0  0  0  0  0  0  0  0  0  0  0  0
  1  2  1  0
  1 15  1  0
  1 16  1  0
  1 17  1  0
  2  3  1  0
  2 18  1  0
  3  4  1  0
  3 14  1  0
  3 19  1  6
  4  5  1  0
  4 20  1  0
  4 21  1  0
  5  6  1  0
  5 22  1  0
  5 23  1  0
  6  7  1  0
  6 24  1  0
  6 25  1  0
  7  8  1  0
  7 14  1  0
  7 26  1  1
  8  9  1  0
  9 10  1  0
  9 11  1  0
  9 27  1  1
 10 28  1  0
 10 29  1  0
 10 30  1  0
 11 12  1  0
 11 31  1  0
 11 32  1  0
 12 13  1  0
 12 33  1  0
 12 34  1  0
 13 35  1  0
 14 36  1  0
 14 37  1  0
M  END

