
     RDKit          3D

 44 46  0  0  0  0  0  0  0  0999 V2000
    4.2391   -0.0687    5.1020 C   0  0  0  0  0  0  0  0  0  0  0  0
    3.6983   -0.5150    3.8761 O   0  0  0  0  0  0  0  0  0  0  0  0
    4.3520   -0.2995    2.7145 C   0  0  0  0  0  0  0  0  0  0  0  0
    5.5832    0.3540    2.5990 C   0  0  0  0  0  0  0  0  0  0  0  0
    6.1711    0.5274    1.3442 C   0  0  0  0  0  0  0  0  0  0  0  0
    5.5076    0.0374    0.2242 C   0  0  0  0  0  0  0  0  0  0  0  0
    6.1225    0.2190   -1.1025 N   0  0  0  0  0  0  0  0  0  0  0  0
    7.1998    0.7959   -1.1526 O   0  0  0  0  0  0  0  0  0  0  0  0
    5.5225   -0.2156   -2.0726 O   0  0  0  0  0  0  0  0  0  0  0  0
    4.2766   -0.6226    0.3059 C   0  0  0  0  0  0  0  0  0  0  0  0
    3.6845   -0.7987    1.5581 C   0  0  0  0  0  0  0  0  0  0  0  0
    2.4580   -1.4407    1.7774 N   0  0  0  0  0  0  0  0  0  0  0  0
    1.6135   -1.9760    0.8308 C   0  0  0  0  0  0  0  0  0  0  0  0
    1.8281   -1.9772   -0.3668 O   0  0  0  0  0  0  0  0  0  0  0  0
    0.3447   -2.5896    1.4285 C   0  0  0  0  0  0  0  0  0  0  0  0
   -0.5483   -1.5588    2.1621 C   0  0  0  0  0  0  0  0  0  0  0  0
   -1.1358   -2.0589    3.3988 N   0  0  0  0  0  0  0  0  0  0  0  0
   -2.4166   -2.6039    3.3278 N   0  0  0  0  0  0  0  0  0  0  0  0
   -2.9593   -2.3343    2.5128 H   0  0  0  0  0  0  0  0  0  0  0  0
   -3.1064   -3.1639    4.3800 C   0  0  0  0  0  0  0  0  0  0  0  0
   -4.2744   -3.4917    4.2589 O   0  0  0  0  0  0  0  0  0  0  0  0
   -2.3000   -3.3227    5.6173 C   0  0  0  0  0  0  0  0  0  0  0  0
   -2.8810   -3.9286    6.7402 C   0  0  0  0  0  0  0  0  0  0  0  0
   -2.1381   -4.0757    7.9089 C   0  0  0  0  0  0  0  0  0  0  0  0
   -0.8115   -3.6190    7.9653 C   0  0  0  0  0  0  0  0  0  0  0  0
   -0.2282   -3.0156    6.8542 C   0  0  0  0  0  0  0  0  0  0  0  0
   -0.9708   -2.8599    5.6735 C   0  0  0  0  0  0  0  0  0  0  0  0
   -0.3308   -2.2247    4.4956 C   0  0  0  0  0  0  0  0  0  0  0  0
    0.8473   -1.8640    4.4639 O   0  0  0  0  0  0  0  0  0  0  0  0
    3.5156   -0.3577    5.8746 H   0  0  0  0  0  0  0  0  0  0  0  0
    4.3662    1.0279    5.1130 H   0  0  0  0  0  0  0  0  0  0  0  0
    5.2115   -0.5468    5.3136 H   0  0  0  0  0  0  0  0  0  0  0  0
    6.0900    0.7326    3.4864 H   0  0  0  0  0  0  0  0  0  0  0  0
    7.1282    1.0331    1.2254 H   0  0  0  0  0  0  0  0  0  0  0  0
    3.7889   -0.9917   -0.5914 H   0  0  0  0  0  0  0  0  0  0  0  0
    2.1747   -1.5127    2.7589 H   0  0  0  0  0  0  0  0  0  0  0  0
    0.6465   -3.3702    2.1440 H   0  0  0  0  0  0  0  0  0  0  0  0
   -0.1921   -3.0757    0.6038 H   0  0  0  0  0  0  0  0  0  0  0  0
   -1.3668   -1.2086    1.5155 H   0  0  0  0  0  0  0  0  0  0  0  0
    0.0408   -0.6744    2.4391 H   0  0  0  0  0  0  0  0  0  0  0  0
   -3.9141   -4.2733    6.6648 H   0  0  0  0  0  0  0  0  0  0  0  0
   -2.5884   -4.5493    8.7847 H   0  0  0  0  0  0  0  0  0  0  0  0
   -0.2338   -3.7389    8.8851 H   0  0  0  0  0  0  0  0  0  0  0  0
    0.8021   -2.6565    6.8704 H   0  0  0  0  0  0  0  0  0  0  0  0
  1  2  1  0
  1 30  1  0
  1 31  1  0
  1 32  1  0
  2  3  1  0
  3  4  2  0
  3 11  1  0
  4  5  1  0
  4 33  1  0
  5  6  2  0
  5 34  1  0
  6  7  1  0
  6 10  1  0
  7  8  1  0
  7  9  1  0
 10 11  2  0
 10 35  1  0
 11 12  1  0
 12 13  1  0
 12 36  1  0
 13 14  2  0
 13 15  1  0
 15 16  1  0
 15 37  1  0
 15 38  1  0
 16 17  1  0
 16 39  1  0
 16 40  1  0
 17 18  2  0
 17 28  1  0
 18 19  1  0
 18 20  1  0
 20 21  2  0
 20 22  1  0
 22 23  2  0
 22 27  1  0
 23 24  1  0
 23 41  1  0
 24 25  2  0
 24 42  1  0
 25 26  1  0
 25 43  1  0
 26 27  2  0
 26 44  1  0
 27 28  1  0
 28 29  2  0
M  CHG  4   8  -1   9  -1  17   1  18   1
M  END

