
     RDKit          3D

 66 69  0  0  0  0  0  0  0  0999 V2000
    2.4088    0.1902   -0.3100 C   0  0  0  0  0  0  0  0  0  0  0  0
    3.7054    0.1274    0.2399 O   0  0  0  0  0  0  0  0  0  0  0  0
    4.0280   -0.8972    1.0674 C   0  0  0  0  0  0  0  0  0  0  0  0
    5.3382   -0.8950    1.5792 C   0  0  0  0  0  0  0  0  0  0  0  0
    5.7620   -1.9064    2.4314 C   0  0  0  0  0  0  0  0  0  0  0  0
    4.9032   -2.9604    2.8146 C   0  0  0  0  0  0  0  0  0  0  0  0
    5.3699   -4.0116    3.7348 C   0  0  0  0  0  0  0  0  0  0  0  0
    6.1990   -3.8697    4.8682 C   0  0  0  0  0  0  0  0  0  0  0  0
    6.3688   -5.1058    5.4676 C   0  0  0  0  0  0  0  0  0  0  0  0
    5.6920   -6.0548    4.7663 N   0  0  0  0  0  0  0  0  0  0  0  0
    5.5799   -7.4112    4.9868 C   0  0  0  0  0  0  0  0  0  0  0  0
    4.8658   -8.1744    4.1129 C   0  0  0  0  0  0  0  0  0  0  0  0
    4.2440   -7.5826    2.9632 C   0  0  0  0  0  0  0  0  0  0  0  0
    3.5045   -8.4859    2.0275 C   0  0  0  0  0  0  0  0  0  0  0  0
    2.8466   -7.8871    0.7957 C   0  0  0  0  0  0  0  0  0  0  0  0
    3.4335   -9.6801    2.2536 O   0  0  0  0  0  0  0  0  0  0  0  0
    4.3551   -6.2150    2.7624 C   0  0  0  0  0  0  0  0  0  0  0  0
    5.0687   -5.4059    3.6718 C   0  0  0  0  0  0  0  0  0  0  0  0
    7.1595   -5.0221    6.6993 C   0  0  0  0  0  0  0  0  0  0  0  0
    7.4821   -5.8916    7.4940 O   0  0  0  0  0  0  0  0  0  0  0  0
    7.4811   -3.6723    6.7872 N   0  0  0  0  0  0  0  0  0  0  0  0
    8.2250   -3.1345    7.9143 C   0  0  0  0  0  0  0  0  0  0  0  0
    9.7367   -3.3947    7.8656 C   0  0  0  0  0  0  0  0  0  0  0  0
   10.4415   -2.7738    6.6540 C   0  0  0  0  0  0  0  0  0  0  0  0
   11.8722   -3.0037    6.6308 N   0  0  0  0  0  0  0  0  0  0  0  0
   12.7623   -2.0970    7.1333 C   0  0  0  0  0  0  0  0  0  0  0  0
   12.4610   -0.9917    7.5407 O   0  0  0  0  0  0  0  0  0  0  0  0
   14.0101   -2.6162    7.0907 O   0  0  0  0  0  0  0  0  0  0  0  0
   15.1784   -1.8589    7.5414 C   0  0  1  0  0  0  0  0  0  0  0  0
   15.0492   -1.5298    9.0328 C   0  0  0  0  0  0  0  0  0  0  0  0
   16.3314   -2.8359    7.3013 C   0  0  0  0  0  0  0  0  0  0  0  0
   15.3496   -0.5981    6.6870 C   0  0  0  0  0  0  0  0  0  0  0  0
    6.9139   -2.8484    5.7116 C   0  0  0  0  0  0  0  0  0  0  0  0
    3.5942   -2.9383    2.3034 C   0  0  0  0  0  0  0  0  0  0  0  0
    3.1548   -1.9307    1.4383 C   0  0  0  0  0  0  0  0  0  0  0  0
    2.3795    1.0881   -0.9416 H   0  0  0  0  0  0  0  0  0  0  0  0
    1.6333    0.2787    0.4724 H   0  0  0  0  0  0  0  0  0  0  0  0
    2.1832   -0.6934   -0.9345 H   0  0  0  0  0  0  0  0  0  0  0  0
    6.0089   -0.0864    1.2817 H   0  0  0  0  0  0  0  0  0  0  0  0
    6.7918   -1.8943    2.7966 H   0  0  0  0  0  0  0  0  0  0  0  0
    6.0938   -7.7838    5.8740 H   0  0  0  0  0  0  0  0  0  0  0  0
    4.7633   -9.2485    4.2664 H   0  0  0  0  0  0  0  0  0  0  0  0
    2.0936   -7.1322    1.0743 H   0  0  0  0  0  0  0  0  0  0  0  0
    2.3590   -8.6936    0.2340 H   0  0  0  0  0  0  0  0  0  0  0  0
    3.5877   -7.3898    0.1497 H   0  0  0  0  0  0  0  0  0  0  0  0
    3.9055   -5.7309    1.8959 H   0  0  0  0  0  0  0  0  0  0  0  0
    7.8234   -3.5850    8.8367 H   0  0  0  0  0  0  0  0  0  0  0  0
    8.0237   -2.0514    7.9634 H   0  0  0  0  0  0  0  0  0  0  0  0
    9.9040   -4.4845    7.8824 H   0  0  0  0  0  0  0  0  0  0  0  0
   10.1870   -2.9852    8.7858 H   0  0  0  0  0  0  0  0  0  0  0  0
   10.2955   -1.6827    6.6513 H   0  0  0  0  0  0  0  0  0  0  0  0
   10.0079   -3.1709    5.7206 H   0  0  0  0  0  0  0  0  0  0  0  0
   12.2307   -3.9224    6.3986 H   0  0  0  0  0  0  0  0  0  0  0  0
   14.8875   -2.4507    9.6150 H   0  0  0  0  0  0  0  0  0  0  0  0
   14.2111   -0.8450    9.2134 H   0  0  0  0  0  0  0  0  0  0  0  0
   15.9773   -1.0581    9.3920 H   0  0  0  0  0  0  0  0  0  0  0  0
   16.1841   -3.7591    7.8822 H   0  0  0  0  0  0  0  0  0  0  0  0
   17.2870   -2.3815    7.6040 H   0  0  0  0  0  0  0  0  0  0  0  0
   16.3947   -3.1057    6.2361 H   0  0  0  0  0  0  0  0  0  0  0  0
   14.5132    0.0958    6.8387 H   0  0  0  0  0  0  0  0  0  0  0  0
   15.4017   -0.8639    5.6193 H   0  0  0  0  0  0  0  0  0  0  0  0
   16.2877   -0.0888    6.9579 H   0  0  0  0  0  0  0  0  0  0  0  0
    7.7067   -2.3103    5.1613 H   0  0  0  0  0  0  0  0  0  0  0  0
    6.2252   -2.0826    6.1158 H   0  0  0  0  0  0  0  0  0  0  0  0
    2.8827   -3.7079    2.6110 H   0  0  0  0  0  0  0  0  0  0  0  0
    2.1272   -1.9550    1.0749 H   0  0  0  0  0  0  0  0  0  0  0  0
  1  2  1  0
  1 36  1  0
  1 37  1  0
  1 38  1  0
  2  3  1  0
  3  4  2  0
  3 35  1  0
  4  5  1  0
  4 39  1  0
  5  6  2  0
  5 40  1  0
  6  7  1  0
  6 34  1  0
  7  8  1  0
  7 18  2  0
  8  9  2  0
  8 33  1  0
  9 10  1  0
  9 19  1  0
 10 11  1  0
 10 18  1  0
 11 12  2  0
 11 41  1  0
 12 13  1  0
 12 42  1  0
 13 14  1  0
 13 17  2  0
 14 15  1  0
 14 16  2  0
 15 43  1  0
 15 44  1  0
 15 45  1  0
 17 18  1  0
 17 46  1  0
 19 20  2  0
 19 21  1  0
 21 22  1  0
 21 33  1  0
 22 23  1  0
 22 47  1  0
 22 48  1  0
 23 24  1  0
 23 49  1  0
 23 50  1  0
 24 25  1  0
 24 51  1  0
 24 52  1  0
 25 26  1  0
 25 53  1  0
 26 27  2  0
 26 28  1  0
 29 28  1  6
 29 30  1  0
 29 31  1  0
 29 32  1  0
 30 54  1  0
 30 55  1  0
 30 56  1  0
 31 57  1  0
 31 58  1  0
 31 59  1  0
 32 60  1  0
 32 61  1  0
 32 62  1  0
 33 63  1  0
 33 64  1  0
 34 35  2  0
 34 65  1  0
 35 66  1  0
M  END

