
     RDKit          3D

 38 40  0  0  0  0  0  0  0  0999 V2000
    1.2040    0.3262    0.6374 C   0  0  0  0  0  0  0  0  0  0  0  0
    2.6485    0.3642    0.2057 C   0  0  0  0  0  0  0  0  0  0  0  0
    3.0737   -0.2099   -1.0031 C   0  0  0  0  0  0  0  0  0  0  0  0
    4.4116   -0.1597   -1.3877 C   0  0  0  0  0  0  0  0  0  0  0  0
    5.3912    0.4611   -0.5954 C   0  0  0  0  0  0  0  0  0  0  0  0
    6.8076    0.4432   -1.1330 C   0  0  0  0  0  0  0  0  0  0  0  0
    7.0511   -0.1015   -2.2028 O   0  0  0  0  0  0  0  0  0  0  0  0
    7.7721    1.0524   -0.3920 N   0  0  0  0  0  0  0  0  0  0  0  0
    9.1648    1.1080   -0.8391 C   0  0  2  0  0  0  0  0  0  0  0  0
   10.0187   -0.1141   -0.3950 C   0  0  0  0  0  0  0  0  0  0  0  0
   10.6998    0.3041    0.9282 C   0  0  0  0  0  0  0  0  0  0  0  0
   10.7531    1.8144    0.8263 C   0  0  0  0  0  0  0  0  0  0  0  0
   11.5037    2.7125    1.5820 C   0  0  0  0  0  0  0  0  0  0  0  0
   11.3948    4.0981    1.3374 C   0  0  0  0  0  0  0  0  0  0  0  0
   12.1027    5.0105    2.1072 N   0  0  0  0  0  0  0  0  0  0  0  0
   10.5157    4.5438    0.3244 C   0  0  0  0  0  0  0  0  0  0  0  0
    9.7661    3.6371   -0.4256 C   0  0  0  0  0  0  0  0  0  0  0  0
    9.8876    2.2669   -0.1816 C   0  0  0  0  0  0  0  0  0  0  0  0
    4.9425    1.0264    0.6071 C   0  0  0  0  0  0  0  0  0  0  0  0
    5.8130    1.6452    1.4412 F   0  0  0  0  0  0  0  0  0  0  0  0
    3.6133    0.9872    1.0109 C   0  0  0  0  0  0  0  0  0  0  0  0
    0.5879   -0.2513   -0.0667 H   0  0  0  0  0  0  0  0  0  0  0  0
    0.7812    1.3431    0.7003 H   0  0  0  0  0  0  0  0  0  0  0  0
    1.0968   -0.1285    1.6360 H   0  0  0  0  0  0  0  0  0  0  0  0
    2.3447   -0.7037   -1.6507 H   0  0  0  0  0  0  0  0  0  0  0  0
    4.7518   -0.6039   -2.3250 H   0  0  0  0  0  0  0  0  0  0  0  0
    7.5274    1.4875    0.4887 H   0  0  0  0  0  0  0  0  0  0  0  0
    9.1327    1.1727   -1.9365 H   0  0  0  0  0  0  0  0  0  0  0  0
   10.7893   -0.2926   -1.1624 H   0  0  0  0  0  0  0  0  0  0  0  0
    9.4147   -1.0291   -0.3187 H   0  0  0  0  0  0  0  0  0  0  0  0
   11.6935   -0.1534    1.0603 H   0  0  0  0  0  0  0  0  0  0  0  0
   10.0986    0.0040    1.8063 H   0  0  0  0  0  0  0  0  0  0  0  0
   12.1791    2.3536    2.3649 H   0  0  0  0  0  0  0  0  0  0  0  0
   12.9236    4.6592    2.5860 H   0  0  0  0  0  0  0  0  0  0  0  0
   12.2392    5.9316    1.7077 H   0  0  0  0  0  0  0  0  0  0  0  0
   10.4279    5.6167    0.1296 H   0  0  0  0  0  0  0  0  0  0  0  0
    9.0930    4.0060   -1.2049 H   0  0  0  0  0  0  0  0  0  0  0  0
    3.3482    1.4515    1.9637 H   0  0  0  0  0  0  0  0  0  0  0  0
  1  2  1  0
  1 22  1  0
  1 23  1  0
  1 24  1  0
  2  3  2  0
  2 21  1  0
  3  4  1  0
  3 25  1  0
  4  5  2  0
  4 26  1  0
  5  6  1  0
  5 19  1  0
  6  7  2  0
  6  8  1  0
  8  9  1  0
  8 27  1  0
  9 10  1  0
  9 18  1  0
  9 28  1  6
 10 11  1  0
 10 29  1  0
 10 30  1  0
 11 12  1  0
 11 31  1  0
 11 32  1  0
 12 13  1  0
 12 18  2  0
 13 14  2  0
 13 33  1  0
 14 15  1  0
 14 16  1  0
 15 34  1  0
 15 35  1  0
 16 17  2  0
 16 36  1  0
 17 18  1  0
 17 37  1  0
 19 20  1  0
 19 21  2  0
 21 38  1  0
M  END

