
     RDKit          3D

 45 48  0  0  0  0  0  0  0  0999 V2000
    1.5465    2.0311   -1.9243 C   0  0  0  0  0  0  0  0  0  0  0  0
    2.9484    1.4921   -1.7901 C   0  0  0  0  0  0  0  0  0  0  0  0
    3.2378    0.1624   -2.1207 C   0  0  0  0  0  0  0  0  0  0  0  0
    4.5231   -0.3708   -2.0114 C   0  0  0  0  0  0  0  0  0  0  0  0
    5.5637    0.4441   -1.5488 C   0  0  0  0  0  0  0  0  0  0  0  0
    6.8963   -0.0009   -1.4567 N   0  0  0  0  0  0  0  0  0  0  0  0
    7.4176   -1.2482   -1.3911 C   0  0  0  0  0  0  0  0  0  0  0  0
    6.9969   -2.5002   -1.0028 C   0  0  0  0  0  0  0  0  0  0  0  0
    5.8086   -2.9760   -0.3164 C   0  0  0  0  0  0  0  0  0  0  0  0
    5.2431   -4.2402   -0.3714 C   0  0  0  0  0  0  0  0  0  0  0  0
    4.1403   -4.4026    0.5109 C   0  0  0  0  0  0  0  0  0  0  0  0
    3.8763   -3.2726    1.2477 C   0  0  0  0  0  0  0  0  0  0  0  0
    4.9713   -1.9943    0.8731 S   0  0  0  0  0  0  0  0  0  0  0  0
    8.1177   -3.4382   -1.2905 C   0  0  0  0  0  0  0  0  0  0  0  0
    8.1513   -4.6345   -1.1395 O   0  0  0  0  0  0  0  0  0  0  0  0
    9.2221   -2.6673   -1.7948 N   0  0  0  0  0  0  0  0  0  0  0  0
   10.4906   -3.1884   -2.1631 C   0  0  0  0  0  0  0  0  0  0  0  0
   10.5856   -4.4714   -2.7255 C   0  0  0  0  0  0  0  0  0  0  0  0
   11.8429   -4.9625   -3.0779 C   0  0  0  0  0  0  0  0  0  0  0  0
   11.9638   -6.5622   -3.7712 Cl  0  0  0  0  0  0  0  0  0  0  0  0
   13.0071   -4.2116   -2.9013 C   0  0  0  0  0  0  0  0  0  0  0  0
   12.8823   -2.9360   -2.3472 C   0  0  0  0  0  0  0  0  0  0  0  0
   14.3188   -1.9685   -2.1128 Cl  0  0  0  0  0  0  0  0  0  0  0  0
   11.6453   -2.4135   -1.9686 C   0  0  0  0  0  0  0  0  0  0  0  0
    8.8521   -1.3310   -1.8452 C   0  0  0  0  0  0  0  0  0  0  0  0
    9.5191   -0.3788   -2.1885 O   0  0  0  0  0  0  0  0  0  0  0  0
    5.2885    1.7813   -1.2154 C   0  0  0  0  0  0  0  0  0  0  0  0
    4.0040    2.3184   -1.3313 C   0  0  0  0  0  0  0  0  0  0  0  0
    3.7492    3.7594   -0.9645 C   0  0  0  0  0  0  0  0  0  0  0  0
    0.8564    1.2608   -2.2976 H   0  0  0  0  0  0  0  0  0  0  0  0
    1.5022    2.8868   -2.6196 H   0  0  0  0  0  0  0  0  0  0  0  0
    1.1539    2.3930   -0.9585 H   0  0  0  0  0  0  0  0  0  0  0  0
    2.4324   -0.4815   -2.4846 H   0  0  0  0  0  0  0  0  0  0  0  0
    4.7129   -1.4037   -2.3023 H   0  0  0  0  0  0  0  0  0  0  0  0
    7.6128    0.6961   -1.6627 H   0  0  0  0  0  0  0  0  0  0  0  0
    5.6308   -5.0234   -1.0210 H   0  0  0  0  0  0  0  0  0  0  0  0
    3.5625   -5.3239    0.5980 H   0  0  0  0  0  0  0  0  0  0  0  0
    3.0915   -3.1180    1.9870 H   0  0  0  0  0  0  0  0  0  0  0  0
    9.7009   -5.0855   -2.8688 H   0  0  0  0  0  0  0  0  0  0  0  0
   13.9807   -4.6078   -3.1870 H   0  0  0  0  0  0  0  0  0  0  0  0
   11.5833   -1.4134   -1.5475 H   0  0  0  0  0  0  0  0  0  0  0  0
    6.1035    2.4143   -0.8521 H   0  0  0  0  0  0  0  0  0  0  0  0
    4.6688    4.2588   -0.6272 H   0  0  0  0  0  0  0  0  0  0  0  0
    3.0034    3.8456   -0.1562 H   0  0  0  0  0  0  0  0  0  0  0  0
    3.3503    4.3302   -1.8201 H   0  0  0  0  0  0  0  0  0  0  0  0
  1  2  1  0
  1 30  1  0
  1 31  1  0
  1 32  1  0
  2  3  2  0
  2 28  1  0
  3  4  1  0
  3 33  1  0
  4  5  2  0
  4 34  1  0
  5  6  1  0
  5 27  1  0
  6  7  1  0
  6 35  1  0
  7  8  1  0
  7 25  2  0
  8  9  2  0
  8 14  1  0
  9 10  1  0
  9 13  1  0
 10 11  2  0
 10 36  1  0
 11 12  1  0
 11 37  1  0
 12 13  2  0
 12 38  1  0
 14 15  2  0
 14 16  1  0
 16 17  1  0
 16 25  1  0
 17 18  2  0
 17 24  1  0
 18 19  1  0
 18 39  1  0
 19 20  1  0
 19 21  2  0
 21 22  1  0
 21 40  1  0
 22 23  1  0
 22 24  2  0
 24 41  1  0
 25 26  1  0
 27 28  2  0
 27 42  1  0
 28 29  1  0
 29 43  1  0
 29 44  1  0
 29 45  1  0
M  CHG  2  13   1  26  -1
M  END

