
     RDKit          3D

 32 32  0  0  0  0  0  0  0  0999 V2000
    0.6968   -2.5192   -0.4727 C   0  0  0  0  0  0  0  0  0  0  0  0
    2.2253   -2.4562   -0.4531 C   0  0  0  0  0  0  0  0  0  0  0  0
    2.8077   -1.1085   -0.9315 C   0  0  1  0  0  0  0  0  0  0  0  0
    2.2419    0.0600   -0.1222 C   0  0  0  0  0  0  0  0  0  0  0  0
    1.6789    1.0028   -0.6092 O   0  0  0  0  0  0  0  0  0  0  0  0
    2.4354    0.0041    1.2179 O   0  0  0  0  0  0  0  0  0  0  0  0
    4.3674   -1.1048   -0.9168 C   0  0  1  0  0  0  0  0  0  0  0  0
    4.9787   -2.0166   -2.0047 C   0  0  0  0  0  0  0  0  0  0  0  0
    4.8170   -1.4539   -3.4239 C   0  0  0  0  0  0  0  0  0  0  0  0
    5.4070   -0.0429   -3.5377 C   0  0  0  0  0  0  0  0  0  0  0  0
    4.8527    0.8997   -2.4606 C   0  0  0  0  0  0  0  0  0  0  0  0
    4.9546    0.3190   -1.0521 C   0  0  2  0  0  0  0  0  0  0  0  0
    6.4143    0.3107   -0.5486 N   0  0  0  0  0  0  0  0  0  0  0  0
    7.2310    0.9828   -1.1477 O   0  0  0  0  0  0  0  0  0  0  0  0
    6.6470   -0.3317    0.4610 O   0  0  0  0  0  0  0  0  0  0  0  0
    0.3421   -3.5161   -0.1687 H   0  0  0  0  0  0  0  0  0  0  0  0
    0.3029   -2.3162   -1.4816 H   0  0  0  0  0  0  0  0  0  0  0  0
    0.2462   -1.7834    0.2124 H   0  0  0  0  0  0  0  0  0  0  0  0
    2.6312   -3.2582   -1.0891 H   0  0  0  0  0  0  0  0  0  0  0  0
    2.5974   -2.6818    0.5650 H   0  0  0  0  0  0  0  0  0  0  0  0
    2.4484   -0.9218   -1.9538 H   0  0  0  0  0  0  0  0  0  0  0  0
    2.8993   -0.8093    1.4658 H   0  0  0  0  0  0  0  0  0  0  0  0
    4.6901   -1.4791    0.0671 H   0  0  0  0  0  0  0  0  0  0  0  0
    4.5501   -3.0283   -1.9377 H   0  0  0  0  0  0  0  0  0  0  0  0
    6.0535   -2.1367   -1.7826 H   0  0  0  0  0  0  0  0  0  0  0  0
    3.7483   -1.4339   -3.7029 H   0  0  0  0  0  0  0  0  0  0  0  0
    5.3047   -2.1294   -4.1458 H   0  0  0  0  0  0  0  0  0  0  0  0
    5.2063    0.3801   -4.5353 H   0  0  0  0  0  0  0  0  0  0  0  0
    6.5039   -0.0940   -3.4361 H   0  0  0  0  0  0  0  0  0  0  0  0
    3.7821    1.0997   -2.6353 H   0  0  0  0  0  0  0  0  0  0  0  0
    5.3631    1.8720   -2.4925 H   0  0  0  0  0  0  0  0  0  0  0  0
    4.4843    0.9996   -0.3256 H   0  0  0  0  0  0  0  0  0  0  0  0
  1  2  1  0
  1 16  1  0
  1 17  1  0
  1 18  1  0
  2  3  1  0
  2 19  1  0
  2 20  1  0
  3  4  1  0
  3  7  1  0
  3 21  1  6
  4  5  2  0
  4  6  1  0
  6 22  1  0
  7  8  1  0
  7 12  1  0
  7 23  1  1
  8  9  1  0
  8 24  1  0
  8 25  1  0
  9 10  1  0
  9 26  1  0
  9 27  1  0
 10 11  1  0
 10 28  1  0
 10 29  1  0
 11 12  1  0
 11 30  1  0
 11 31  1  0
 12 13  1  0
 12 32  1  1
 13 14  2  0
 13 15  1  0
M  CHG  2  13   1  15  -1
M  END

