
     RDKit          3D

 47 47  0  0  0  0  0  0  0  0999 V2000
    5.4248   -1.9263    0.4164 C   0  0  0  0  0  0  0  0  0  0  0  0
    4.3939   -1.3860    1.4115 C   0  0  0  0  0  0  0  0  0  0  0  0
    4.5384    0.1091    1.7387 C   0  0  0  0  0  0  0  0  0  0  0  0
    4.3225    1.1102    0.5784 C   0  0  1  0  0  0  0  0  0  0  0  0
    2.8548    1.1302    0.1100 C   0  0  0  0  0  0  0  0  0  0  0  0
    2.5684    1.9764   -1.1374 C   0  0  0  0  0  0  0  0  0  0  0  0
    3.1595    1.4199   -2.4351 C   0  0  0  0  0  0  0  0  0  0  0  0
    4.7347    2.4742    0.9302 N   0  0  0  0  0  0  0  0  0  0  0  0
    6.1702    2.7697    0.9869 C   0  0  1  0  0  0  0  0  0  0  0  0
    6.7705    2.8595   -0.4272 C   0  0  0  0  0  0  0  0  0  0  0  0
    6.3983    4.0649    1.7529 C   0  0  0  0  0  0  0  0  0  0  0  0
    7.4349    4.1825    2.6882 C   0  0  0  0  0  0  0  0  0  0  0  0
    7.6911    5.3718    3.3745 C   0  0  0  0  0  0  0  0  0  0  0  0
    6.8860    6.4986    3.1341 C   0  0  0  0  0  0  0  0  0  0  0  0
    7.0570    7.7347    3.7836 N   0  0  0  0  0  0  0  0  0  0  0  0
    8.0220    8.0943    4.7124 C   0  0  0  0  0  0  0  0  0  0  0  0
    7.8892    9.4030    5.1524 N   0  0  0  0  0  0  0  0  0  0  0  0
    8.9233    7.3699    5.0911 O   0  0  0  0  0  0  0  0  0  0  0  0
    5.8389    6.3917    2.1996 C   0  0  0  0  0  0  0  0  0  0  0  0
    5.6029    5.1985    1.5208 C   0  0  0  0  0  0  0  0  0  0  0  0
    5.3178   -3.0150    0.2850 H   0  0  0  0  0  0  0  0  0  0  0  0
    6.4544   -1.7342    0.7635 H   0  0  0  0  0  0  0  0  0  0  0  0
    5.3221   -1.4678   -0.5805 H   0  0  0  0  0  0  0  0  0  0  0  0
    4.4804   -1.9516    2.3559 H   0  0  0  0  0  0  0  0  0  0  0  0
    3.3767   -1.5964    1.0376 H   0  0  0  0  0  0  0  0  0  0  0  0
    5.5477    0.2731    2.1561 H   0  0  0  0  0  0  0  0  0  0  0  0
    3.8303    0.3699    2.5476 H   0  0  0  0  0  0  0  0  0  0  0  0
    4.9513    0.7961   -0.2699 H   0  0  0  0  0  0  0  0  0  0  0  0
    2.2404    1.5053    0.9499 H   0  0  0  0  0  0  0  0  0  0  0  0
    2.5170    0.0946   -0.0691 H   0  0  0  0  0  0  0  0  0  0  0  0
    2.9504    2.9952   -0.9626 H   0  0  0  0  0  0  0  0  0  0  0  0
    1.4739    2.0669   -1.2532 H   0  0  0  0  0  0  0  0  0  0  0  0
    4.2607    1.3867   -2.4065 H   0  0  0  0  0  0  0  0  0  0  0  0
    2.8782    2.0423   -3.2999 H   0  0  0  0  0  0  0  0  0  0  0  0
    2.8019    0.3950   -2.6351 H   0  0  0  0  0  0  0  0  0  0  0  0
    4.3011    2.7374    1.8152 H   0  0  0  0  0  0  0  0  0  0  0  0
    6.7334    1.9783    1.5279 H   0  0  0  0  0  0  0  0  0  0  0  0
    6.2831    3.6625   -1.0016 H   0  0  0  0  0  0  0  0  0  0  0  0
    6.6452    1.9161   -0.9820 H   0  0  0  0  0  0  0  0  0  0  0  0
    7.8489    3.0740   -0.3733 H   0  0  0  0  0  0  0  0  0  0  0  0
    8.0705    3.3157    2.8938 H   0  0  0  0  0  0  0  0  0  0  0  0
    8.5050    5.4419    4.0921 H   0  0  0  0  0  0  0  0  0  0  0  0
    6.4384    8.4694    3.4621 H   0  0  0  0  0  0  0  0  0  0  0  0
    6.9750    9.8407    5.1736 H   0  0  0  0  0  0  0  0  0  0  0  0
    8.4913    9.6287    5.9359 H   0  0  0  0  0  0  0  0  0  0  0  0
    5.2002    7.2591    2.0027 H   0  0  0  0  0  0  0  0  0  0  0  0
    4.7824    5.1394    0.8023 H   0  0  0  0  0  0  0  0  0  0  0  0
  1  2  1  0
  1 21  1  0
  1 22  1  0
  1 23  1  0
  2  3  1  0
  2 24  1  0
  2 25  1  0
  3  4  1  0
  3 26  1  0
  3 27  1  0
  4  5  1  0
  4  8  1  0
  4 28  1  6
  5  6  1  0
  5 29  1  0
  5 30  1  0
  6  7  1  0
  6 31  1  0
  6 32  1  0
  7 33  1  0
  7 34  1  0
  7 35  1  0
  8  9  1  0
  8 36  1  0
  9 10  1  0
  9 11  1  0
  9 37  1  1
 10 38  1  0
 10 39  1  0
 10 40  1  0
 11 12  2  0
 11 20  1  0
 12 13  1  0
 12 41  1  0
 13 14  2  0
 13 42  1  0
 14 15  1  0
 14 19  1  0
 15 16  1  0
 15 43  1  0
 16 17  1  0
 16 18  2  0
 17 44  1  0
 17 45  1  0
 19 20  2  0
 19 46  1  0
 20 47  1  0
M  END

