
     RDKit          3D

 60 64  0  0  0  0  0  0  0  0999 V2000
    3.3351    0.6207   -1.4635 C   0  0  0  0  0  0  0  0  0  0  0  0
    2.6914   -0.0148   -0.2092 C   0  0  1  0  0  0  0  0  0  0  0  0
    3.1656    0.7453    1.0513 C   0  0  0  0  0  0  0  0  0  0  0  0
    1.1649    0.1500   -0.3203 C   0  0  0  0  0  0  0  0  0  0  0  0
    3.1109   -1.4957   -0.1071 C   0  0  0  0  0  0  0  0  0  0  0  0
    4.4858   -1.8241    0.0004 C   0  0  0  0  0  0  0  0  0  0  0  0
    4.9469   -3.1352    0.1010 C   0  0  0  0  0  0  0  0  0  0  0  0
    3.9996   -4.1626    0.0941 C   0  0  0  0  0  0  0  0  0  0  0  0
    2.6181   -3.8782   -0.0205 C   0  0  0  0  0  0  0  0  0  0  0  0
    2.1860   -2.5463   -0.1173 C   0  0  0  0  0  0  0  0  0  0  0  0
    1.9247   -5.1547   -0.0161 C   0  0  0  0  0  0  0  0  0  0  0  0
    0.5712   -5.5169   -0.0946 C   0  0  0  0  0  0  0  0  0  0  0  0
    0.1920   -6.8638   -0.0558 C   0  0  0  0  0  0  0  0  0  0  0  0
   -1.2797   -7.3182   -0.1411 C   0  0  1  0  0  0  0  0  0  0  0  0
   -2.2482   -6.1289   -0.2712 C   0  0  0  0  0  0  0  0  0  0  0  0
   -1.4690   -8.2286   -1.3769 C   0  0  0  0  0  0  0  0  0  0  0  0
   -1.6539   -8.1042    1.1370 C   0  0  0  0  0  0  0  0  0  0  0  0
    1.2149   -7.8373    0.0682 C   0  0  0  0  0  0  0  0  0  0  0  0
    2.5672   -7.5109    0.1496 C   0  0  0  0  0  0  0  0  0  0  0  0
    2.9160   -6.1580    0.1021 C   0  0  0  0  0  0  0  0  0  0  0  0
    4.1790   -5.5524    0.1740 N   0  0  0  0  0  0  0  0  0  0  0  0
    5.4069   -6.2099    0.2728 C   0  0  0  0  0  0  0  0  0  0  0  0
    6.3406   -6.1126    1.2786 C   0  0  0  0  0  0  0  0  0  0  0  0
    7.5149   -6.8722    1.0248 C   0  0  0  0  0  0  0  0  0  0  0  0
    7.4813   -7.5665   -0.1703 C   0  0  0  0  0  0  0  0  0  0  0  0
    8.4760   -8.4646   -0.7322 C   0  0  0  0  0  0  0  0  0  0  0  0
    8.6185   -8.8986   -2.0376 C   0  0  0  0  0  0  0  0  0  0  0  0
    9.7217   -9.7799   -2.2229 C   0  0  0  0  0  0  0  0  0  0  0  0
   10.4160  -10.0118   -1.0619 C   0  0  0  0  0  0  0  0  0  0  0  0
    9.7211   -9.1681    0.2785 S   0  0  0  0  0  0  0  0  0  0  0  0
    5.9810   -7.2598   -1.0172 S   0  0  0  0  0  0  0  0  0  0  0  0
    3.0477    1.6818   -1.5504 H   0  0  0  0  0  0  0  0  0  0  0  0
    3.0083    0.1030   -2.3794 H   0  0  0  0  0  0  0  0  0  0  0  0
    4.4344    0.5762   -1.4294 H   0  0  0  0  0  0  0  0  0  0  0  0
    2.8762    1.8079    0.9942 H   0  0  0  0  0  0  0  0  0  0  0  0
    4.2592    0.7048    1.1690 H   0  0  0  0  0  0  0  0  0  0  0  0
    2.7156    0.3181    1.9617 H   0  0  0  0  0  0  0  0  0  0  0  0
    0.9087    1.2190   -0.3904 H   0  0  0  0  0  0  0  0  0  0  0  0
    0.6425   -0.2576    0.5593 H   0  0  0  0  0  0  0  0  0  0  0  0
    0.7624   -0.3453   -1.2178 H   0  0  0  0  0  0  0  0  0  0  0  0
    5.2278   -1.0224    0.0052 H   0  0  0  0  0  0  0  0  0  0  0  0
    6.0142   -3.3487    0.1807 H   0  0  0  0  0  0  0  0  0  0  0  0
    1.1175   -2.3479   -0.2031 H   0  0  0  0  0  0  0  0  0  0  0  0
   -0.1769   -4.7291   -0.1849 H   0  0  0  0  0  0  0  0  0  0  0  0
   -2.0551   -5.5394   -1.1812 H   0  0  0  0  0  0  0  0  0  0  0  0
   -2.1864   -5.4518    0.5951 H   0  0  0  0  0  0  0  0  0  0  0  0
   -3.2850   -6.4961   -0.3297 H   0  0  0  0  0  0  0  0  0  0  0  0
   -1.2167   -7.6909   -2.3047 H   0  0  0  0  0  0  0  0  0  0  0  0
   -2.5163   -8.5658   -1.4521 H   0  0  0  0  0  0  0  0  0  0  0  0
   -0.8337   -9.1261   -1.3280 H   0  0  0  0  0  0  0  0  0  0  0  0
   -1.5358   -7.4762    2.0345 H   0  0  0  0  0  0  0  0  0  0  0  0
   -1.0251   -8.9977    1.2698 H   0  0  0  0  0  0  0  0  0  0  0  0
   -2.7034   -8.4398    1.0913 H   0  0  0  0  0  0  0  0  0  0  0  0
    0.9447   -8.8950    0.1040 H   0  0  0  0  0  0  0  0  0  0  0  0
    3.3250   -8.2904    0.2437 H   0  0  0  0  0  0  0  0  0  0  0  0
    6.1777   -5.5103    2.1730 H   0  0  0  0  0  0  0  0  0  0  0  0
    8.3662   -6.9130    1.7060 H   0  0  0  0  0  0  0  0  0  0  0  0
    7.9565   -8.5760   -2.8431 H   0  0  0  0  0  0  0  0  0  0  0  0
    9.9945  -10.2189   -3.1837 H   0  0  0  0  0  0  0  0  0  0  0  0
   11.2985  -10.6329   -0.9152 H   0  0  0  0  0  0  0  0  0  0  0  0
  2  1  1  6
  1 32  1  0
  1 33  1  0
  1 34  1  0
  2  3  1  0
  2  4  1  0
  2  5  1  0
  3 35  1  0
  3 36  1  0
  3 37  1  0
  4 38  1  0
  4 39  1  0
  4 40  1  0
  5  6  2  0
  5 10  1  0
  6  7  1  0
  6 41  1  0
  7  8  2  0
  7 42  1  0
  8  9  1  0
  8 21  1  0
  9 10  2  0
  9 11  1  0
 10 43  1  0
 11 12  2  0
 11 20  1  0
 12 13  1  0
 12 44  1  0
 13 14  1  0
 13 18  2  0
 14 15  1  6
 14 16  1  0
 14 17  1  0
 15 45  1  0
 15 46  1  0
 15 47  1  0
 16 48  1  0
 16 49  1  0
 16 50  1  0
 17 51  1  0
 17 52  1  0
 17 53  1  0
 18 19  1  0
 18 54  1  0
 19 20  2  0
 19 55  1  0
 20 21  1  0
 21 22  1  0
 22 23  2  0
 22 31  1  0
 23 24  1  0
 23 56  1  0
 24 25  2  0
 24 57  1  0
 25 26  1  0
 25 31  1  0
 26 27  2  0
 26 30  1  0
 27 28  1  0
 27 58  1  0
 28 29  2  0
 28 59  1  0
 29 30  1  0
 29 60  1  0
M  END

