
     RDKit          3D

 61 63  0  0  0  0  0  0  0  0999 V2000
    1.1482   -0.1980    0.0374 C   0  0  0  0  0  0  0  0  0  0  0  0
    2.6563   -0.1645    0.0731 C   0  0  0  0  0  0  0  0  0  0  0  0
    3.3445    0.9889    0.4615 C   0  0  0  0  0  0  0  0  0  0  0  0
    4.7381    1.0655    0.5080 C   0  0  0  0  0  0  0  0  0  0  0  0
    5.4836   -0.0669    0.1499 C   0  0  0  0  0  0  0  0  0  0  0  0
    6.8956   -0.1080    0.1585 N   0  0  0  0  0  0  0  0  0  0  0  0
    7.7936    0.8615    0.5100 C   0  0  0  0  0  0  0  0  0  0  0  0
    7.4674    1.9913    0.8653 O   0  0  0  0  0  0  0  0  0  0  0  0
    9.2573    0.4440    0.4428 C   0  0  0  0  0  0  0  0  0  0  0  0
   10.1703    1.5472   -0.1623 C   0  0  1  0  0  0  0  0  0  0  0  0
   10.1133    2.6889    0.6721 O   0  0  0  0  0  0  0  0  0  0  0  0
   11.6399    1.0863   -0.1615 C   0  0  0  0  0  0  0  0  0  0  0  0
   11.9625    0.0040   -1.1998 C   0  0  0  0  0  0  0  0  0  0  0  0
   11.5317    0.4221   -2.6115 C   0  0  0  0  0  0  0  0  0  0  0  0
   10.0551    0.8357   -2.6473 C   0  0  0  0  0  0  0  0  0  0  0  0
    9.7555    1.9227   -1.6064 C   0  0  0  0  0  0  0  0  0  0  0  0
    4.8262   -1.2425   -0.2450 C   0  0  0  0  0  0  0  0  0  0  0  0
    3.4270   -1.2986   -0.2864 C   0  0  0  0  0  0  0  0  0  0  0  0
    2.7500   -2.4658   -0.6788 N   0  0  0  0  0  0  0  0  0  0  0  0
    3.2527   -3.6749   -1.0702 C   0  0  0  0  0  0  0  0  0  0  0  0
    4.4317   -3.9746   -1.1571 O   0  0  0  0  0  0  0  0  0  0  0  0
    2.1560   -4.7151   -1.3667 C   0  0  0  0  0  0  0  0  0  0  0  0
    0.8342   -4.1432   -1.5779 N   0  0  0  0  0  0  0  0  0  0  0  0
    0.5787   -3.7158   -2.9614 C   0  0  0  0  0  0  0  0  0  0  0  0
    0.2079   -4.8735   -3.9023 C   0  0  0  0  0  0  0  0  0  0  0  0
   -0.9730   -5.6764   -3.3391 C   0  0  0  0  0  0  0  0  0  0  0  0
   -0.6952   -6.1144   -1.8944 C   0  0  0  0  0  0  0  0  0  0  0  0
   -0.2937   -4.9068   -1.0333 C   0  0  0  0  0  0  0  0  0  0  0  0
    0.7284    0.7693    0.3476 H   0  0  0  0  0  0  0  0  0  0  0  0
    0.7324   -0.9666    0.7133 H   0  0  0  0  0  0  0  0  0  0  0  0
    0.7599   -0.4138   -0.9741 H   0  0  0  0  0  0  0  0  0  0  0  0
    2.7644    1.8728    0.7418 H   0  0  0  0  0  0  0  0  0  0  0  0
    5.2449    1.9767    0.8136 H   0  0  0  0  0  0  0  0  0  0  0  0
    7.2915   -0.9976   -0.1218 H   0  0  0  0  0  0  0  0  0  0  0  0
    9.3708   -0.5121   -0.0897 H   0  0  0  0  0  0  0  0  0  0  0  0
    9.5941    0.2819    1.4811 H   0  0  0  0  0  0  0  0  0  0  0  0
    9.1679    2.8471    0.8550 H   0  0  0  0  0  0  0  0  0  0  0  0
   11.9116    0.7575    0.8554 H   0  0  0  0  0  0  0  0  0  0  0  0
   12.2423    1.9883   -0.3640 H   0  0  0  0  0  0  0  0  0  0  0  0
   11.4604   -0.9438   -0.9309 H   0  0  0  0  0  0  0  0  0  0  0  0
   13.0430   -0.2160   -1.1789 H   0  0  0  0  0  0  0  0  0  0  0  0
   11.7229   -0.3935   -3.3292 H   0  0  0  0  0  0  0  0  0  0  0  0
   12.1510    1.2774   -2.9390 H   0  0  0  0  0  0  0  0  0  0  0  0
    9.4183   -0.0505   -2.4678 H   0  0  0  0  0  0  0  0  0  0  0  0
    9.7835    1.1988   -3.6528 H   0  0  0  0  0  0  0  0  0  0  0  0
    8.6906    2.2084   -1.6263 H   0  0  0  0  0  0  0  0  0  0  0  0
   10.3202    2.8371   -1.8552 H   0  0  0  0  0  0  0  0  0  0  0  0
    5.3879   -2.1324   -0.5267 H   0  0  0  0  0  0  0  0  0  0  0  0
    1.7295   -2.4601   -0.6936 H   0  0  0  0  0  0  0  0  0  0  0  0
    2.1315   -5.3843   -0.4903 H   0  0  0  0  0  0  0  0  0  0  0  0
    2.5387   -5.3288   -2.2036 H   0  0  0  0  0  0  0  0  0  0  0  0
    1.4625   -3.1729   -3.3326 H   0  0  0  0  0  0  0  0  0  0  0  0
   -0.2526   -2.9871   -2.9419 H   0  0  0  0  0  0  0  0  0  0  0  0
    1.0795   -5.5392   -4.0343 H   0  0  0  0  0  0  0  0  0  0  0  0
   -0.0299   -4.4736   -4.9023 H   0  0  0  0  0  0  0  0  0  0  0  0
   -1.1890   -6.5493   -3.9770 H   0  0  0  0  0  0  0  0  0  0  0  0
   -1.8818   -5.0459   -3.3567 H   0  0  0  0  0  0  0  0  0  0  0  0
    0.1171   -6.8637   -1.8809 H   0  0  0  0  0  0  0  0  0  0  0  0
   -1.5809   -6.6052   -1.4565 H   0  0  0  0  0  0  0  0  0  0  0  0
   -0.0467   -5.2168   -0.0054 H   0  0  0  0  0  0  0  0  0  0  0  0
   -1.1566   -4.2195   -0.9564 H   0  0  0  0  0  0  0  0  0  0  0  0
  1  2  1  0
  1 29  1  0
  1 30  1  0
  1 31  1  0
  2  3  2  0
  2 18  1  0
  3  4  1  0
  3 32  1  0
  4  5  2  0
  4 33  1  0
  5  6  1  0
  5 17  1  0
  6  7  1  0
  6 34  1  0
  7  8  2  0
  7  9  1  0
  9 10  1  0
  9 35  1  0
  9 36  1  0
 10 11  1  1
 10 12  1  0
 10 16  1  0
 11 37  1  0
 12 13  1  0
 12 38  1  0
 12 39  1  0
 13 14  1  0
 13 40  1  0
 13 41  1  0
 14 15  1  0
 14 42  1  0
 14 43  1  0
 15 16  1  0
 15 44  1  0
 15 45  1  0
 16 46  1  0
 16 47  1  0
 17 18  2  0
 17 48  1  0
 18 19  1  0
 19 20  1  0
 19 49  1  0
 20 21  2  0
 20 22  1  0
 22 23  1  0
 22 50  1  0
 22 51  1  0
 23 24  1  0
 23 28  1  0
 24 25  1  0
 24 52  1  0
 24 53  1  0
 25 26  1  0
 25 54  1  0
 25 55  1  0
 26 27  1  0
 26 56  1  0
 26 57  1  0
 27 28  1  0
 27 58  1  0
 27 59  1  0
 28 60  1  0
 28 61  1  0
M  END

