
     RDKit          3D

 92 95  0  0  0  0  0  0  0  0999 V2000
    6.8480   -0.1175   -2.7043 O   0  0  0  0  0  0  0  0  0  0  0  0
    7.7553    0.3243   -2.0539 C   0  0  0  0  0  0  0  0  0  0  0  0
    9.0395    0.0823   -2.4135 O   0  0  0  0  0  0  0  0  0  0  0  0
    7.5824    1.2274   -0.8417 C   0  0  0  0  0  0  0  0  0  0  0  0
    8.1301    2.6597   -1.0605 C   0  0  1  0  0  0  0  0  0  0  0  0
    7.5205    3.3811   -2.2761 C   0  0  0  0  0  0  0  0  0  0  0  0
    5.9940    3.5191   -2.2860 C   0  0  0  0  0  0  0  0  0  0  0  0
    5.4782    4.3198   -3.4865 C   0  0  0  0  0  0  0  0  0  0  0  0
    3.9522    4.4361   -3.5376 C   0  0  0  0  0  0  0  0  0  0  0  0
    3.4383    5.2315   -4.7402 C   0  0  0  0  0  0  0  0  0  0  0  0
    1.9034    5.3362   -4.7929 C   0  0  0  0  0  0  0  0  0  0  0  0
    1.3925    6.1208   -5.9812 C   0  0  0  0  0  0  0  0  0  0  0  0
    1.1449    5.4885   -7.2105 C   0  0  0  0  0  0  0  0  0  0  0  0
    0.7085    6.2163   -8.3207 C   0  0  0  0  0  0  0  0  0  0  0  0
    0.5105    7.5968   -8.2217 C   0  0  0  0  0  0  0  0  0  0  0  0
    0.7512    8.2405   -7.0043 C   0  0  0  0  0  0  0  0  0  0  0  0
    1.1878    7.5076   -5.8974 C   0  0  0  0  0  0  0  0  0  0  0  0
    8.0014    3.4448    0.1570 N   0  0  0  0  0  0  0  0  0  0  0  0
    9.0083    3.5136    1.0826 C   0  0  0  0  0  0  0  0  0  0  0  0
   10.0682    2.9184    0.9373 O   0  0  0  0  0  0  0  0  0  0  0  0
    8.7340    4.3544    2.3032 C   0  0  0  0  0  0  0  0  0  0  0  0
    7.7428    5.3472    2.3648 C   0  0  0  0  0  0  0  0  0  0  0  0
    7.5722    6.0756    3.5433 C   0  0  0  0  0  0  0  0  0  0  0  0
    8.3695    5.8416    4.6655 C   0  0  0  0  0  0  0  0  0  0  0  0
    9.3778    4.8604    4.6013 C   0  0  0  0  0  0  0  0  0  0  0  0
   10.2408    4.5731    5.6723 N   0  0  0  0  0  0  0  0  0  0  0  0
   10.2645    5.1108    6.9273 C   0  0  0  0  0  0  0  0  0  0  0  0
    9.5413    5.9993    7.3410 O   0  0  0  0  0  0  0  0  0  0  0  0
   11.3326    4.5020    7.8436 C   0  0  0  0  0  0  0  0  0  0  0  0
   12.0900    3.5214    7.1808 O   0  0  0  0  0  0  0  0  0  0  0  0
   12.7684    2.5637    7.9972 C   0  0  1  0  0  0  0  0  0  0  0  0
   13.3138    1.4835    7.0602 C   0  0  0  0  0  0  0  0  0  0  0  0
   14.4632    2.0033    6.1894 C   0  0  0  0  0  0  0  0  0  0  0  0
   15.4943    2.6255    7.0123 N   0  0  0  0  0  0  0  0  0  0  0  0
   16.7940    2.2205    6.8817 C   0  0  0  0  0  0  0  0  0  0  0  0
   17.1731    1.3481    6.1225 O   0  0  0  0  0  0  0  0  0  0  0  0
   17.6216    2.9100    7.7051 O   0  0  0  0  0  0  0  0  0  0  0  0
   19.0286    2.6217    7.6110 C   0  0  0  0  0  0  0  0  0  0  0  0
   19.7370    3.5125    6.6178 C   0  0  0  0  0  0  0  0  0  0  0  0
   20.4148    4.6599    7.0581 C   0  0  0  0  0  0  0  0  0  0  0  0
   21.0694    5.4971    6.1504 C   0  0  0  0  0  0  0  0  0  0  0  0
   21.0505    5.1953    4.7856 C   0  0  0  0  0  0  0  0  0  0  0  0
   20.3753    4.0557    4.3360 C   0  0  0  0  0  0  0  0  0  0  0  0
   19.7233    3.2184    5.2442 C   0  0  0  0  0  0  0  0  0  0  0  0
   15.0372    3.6976    7.8910 C   0  0  0  0  0  0  0  0  0  0  0  0
   13.9119    3.1971    8.8045 C   0  0  0  0  0  0  0  0  0  0  0  0
    9.5517    4.1318    3.4155 C   0  0  0  0  0  0  0  0  0  0  0  0
    9.6557    0.4801   -1.7804 H   0  0  0  0  0  0  0  0  0  0  0  0
    8.1123    0.7849    0.0196 H   0  0  0  0  0  0  0  0  0  0  0  0
    6.5109    1.2462   -0.6006 H   0  0  0  0  0  0  0  0  0  0  0  0
    9.2175    2.5884   -1.2192 H   0  0  0  0  0  0  0  0  0  0  0  0
    7.8367    2.8427   -3.1862 H   0  0  0  0  0  0  0  0  0  0  0  0
    7.9846    4.3806   -2.3365 H   0  0  0  0  0  0  0  0  0  0  0  0
    5.6487    4.0116   -1.3564 H   0  0  0  0  0  0  0  0  0  0  0  0
    5.5307    2.5179   -2.2997 H   0  0  0  0  0  0  0  0  0  0  0  0
    5.8395    3.8451   -4.4171 H   0  0  0  0  0  0  0  0  0  0  0  0
    5.9238    5.3318   -3.4726 H   0  0  0  0  0  0  0  0  0  0  0  0
    3.5886    4.9075   -2.6050 H   0  0  0  0  0  0  0  0  0  0  0  0
    3.5103    3.4226   -3.5529 H   0  0  0  0  0  0  0  0  0  0  0  0
    3.8005    4.7661   -5.6744 H   0  0  0  0  0  0  0  0  0  0  0  0
    3.8693    6.2489   -4.7257 H   0  0  0  0  0  0  0  0  0  0  0  0
    1.5435    5.8054   -3.8608 H   0  0  0  0  0  0  0  0  0  0  0  0
    1.4763    4.3185   -4.8132 H   0  0  0  0  0  0  0  0  0  0  0  0
    1.2906    4.4072   -7.2963 H   0  0  0  0  0  0  0  0  0  0  0  0
    0.5177    5.7017   -9.2664 H   0  0  0  0  0  0  0  0  0  0  0  0
    0.1657    8.1675   -9.0879 H   0  0  0  0  0  0  0  0  0  0  0  0
    0.5942    9.3188   -6.9143 H   0  0  0  0  0  0  0  0  0  0  0  0
    1.3673    8.0197   -4.9469 H   0  0  0  0  0  0  0  0  0  0  0  0
    7.0877    3.8034    0.4064 H   0  0  0  0  0  0  0  0  0  0  0  0
    7.1246    5.5812    1.4950 H   0  0  0  0  0  0  0  0  0  0  0  0
    6.8047    6.8525    3.5917 H   0  0  0  0  0  0  0  0  0  0  0  0
    8.2291    6.4012    5.5874 H   0  0  0  0  0  0  0  0  0  0  0  0
   10.8909    3.8049    5.5328 H   0  0  0  0  0  0  0  0  0  0  0  0
   10.8123    4.0859    8.7280 H   0  0  0  0  0  0  0  0  0  0  0  0
   11.9492    5.3487    8.2039 H   0  0  0  0  0  0  0  0  0  0  0  0
   12.0307    2.1159    8.6934 H   0  0  0  0  0  0  0  0  0  0  0  0
   12.4969    1.1105    6.4221 H   0  0  0  0  0  0  0  0  0  0  0  0
   13.6695    0.6384    7.6726 H   0  0  0  0  0  0  0  0  0  0  0  0
   14.0753    2.7432    5.4646 H   0  0  0  0  0  0  0  0  0  0  0  0
   14.9299    1.1898    5.6211 H   0  0  0  0  0  0  0  0  0  0  0  0
   19.1502    1.5625    7.3433 H   0  0  0  0  0  0  0  0  0  0  0  0
   19.4190    2.7940    8.6233 H   0  0  0  0  0  0  0  0  0  0  0  0
   20.4319    4.8987    8.1258 H   0  0  0  0  0  0  0  0  0  0  0  0
   21.5958    6.3853    6.5096 H   0  0  0  0  0  0  0  0  0  0  0  0
   21.5641    5.8454    4.0725 H   0  0  0  0  0  0  0  0  0  0  0  0
   20.3594    3.8145    3.2698 H   0  0  0  0  0  0  0  0  0  0  0  0
   19.1875    2.3313    4.8985 H   0  0  0  0  0  0  0  0  0  0  0  0
   14.6624    4.5349    7.2723 H   0  0  0  0  0  0  0  0  0  0  0  0
   15.8858    4.0683    8.4743 H   0  0  0  0  0  0  0  0  0  0  0  0
   13.5406    4.0219    9.4340 H   0  0  0  0  0  0  0  0  0  0  0  0
   14.3104    2.4304    9.4905 H   0  0  0  0  0  0  0  0  0  0  0  0
   10.3359    3.3754    3.3297 H   0  0  0  0  0  0  0  0  0  0  0  0
  1  2  2  0
  2  3  1  0
  2  4  1  0
  3 48  1  0
  4  5  1  0
  4 49  1  0
  4 50  1  0
  5  6  1  0
  5 18  1  0
  5 51  1  6
  6  7  1  0
  6 52  1  0
  6 53  1  0
  7  8  1  0
  7 54  1  0
  7 55  1  0
  8  9  1  0
  8 56  1  0
  8 57  1  0
  9 10  1  0
  9 58  1  0
  9 59  1  0
 10 11  1  0
 10 60  1  0
 10 61  1  0
 11 12  1  0
 11 62  1  0
 11 63  1  0
 12 13  2  0
 12 17  1  0
 13 14  1  0
 13 64  1  0
 14 15  2  0
 14 65  1  0
 15 16  1  0
 15 66  1  0
 16 17  2  0
 16 67  1  0
 17 68  1  0
 18 19  1  0
 18 69  1  0
 19 20  2  0
 19 21  1  0
 21 22  2  0
 21 47  1  0
 22 23  1  0
 22 70  1  0
 23 24  2  0
 23 71  1  0
 24 25  1  0
 24 72  1  0
 25 26  1  0
 25 47  2  0
 26 27  1  0
 26 73  1  0
 27 28  2  0
 27 29  1  0
 29 30  1  0
 29 74  1  0
 29 75  1  0
 30 31  1  0
 31 32  1  0
 31 46  1  0
 31 76  1  1
 32 33  1  0
 32 77  1  0
 32 78  1  0
 33 34  1  0
 33 79  1  0
 33 80  1  0
 34 35  1  0
 34 45  1  0
 35 36  2  0
 35 37  1  0
 37 38  1  0
 38 39  1  0
 38 81  1  0
 38 82  1  0
 39 40  2  0
 39 44  1  0
 40 41  1  0
 40 83  1  0
 41 42  2  0
 41 84  1  0
 42 43  1  0
 42 85  1  0
 43 44  2  0
 43 86  1  0
 44 87  1  0
 45 46  1  0
 45 88  1  0
 45 89  1  0
 46 90  1  0
 46 91  1  0
 47 92  1  0
M  END

