
     RDKit          3D

 40 41  0  0  0  0  0  0  0  0999 V2000
    1.5655   -0.5474    0.4460 C   0  0  0  0  0  0  0  0  0  0  0  0
    2.7720   -0.0927   -0.1051 O   0  0  0  0  0  0  0  0  0  0  0  0
    2.7799    1.1566   -0.8211 C   0  0  1  0  0  0  0  0  0  0  0  0
    2.0327    1.0041   -2.1538 C   0  0  0  0  0  0  0  0  0  0  0  0
    2.1838    2.2931    0.0195 C   0  0  0  0  0  0  0  0  0  0  0  0
    4.2948    1.3881   -1.0563 C   0  0  0  0  0  0  0  0  0  0  0  0
    4.6770    2.4828   -2.0064 C   0  0  0  0  0  0  0  0  0  0  0  0
    4.4691    3.8194   -1.7476 N   0  0  0  0  0  0  0  0  0  0  0  0
    4.9379    4.4822   -2.7861 C   0  0  0  0  0  0  0  0  0  0  0  0
    5.4706    3.6322   -3.7188 N   0  0  0  0  0  0  0  0  0  0  0  0
    5.3005    2.3405   -3.2355 C   0  0  0  0  0  0  0  0  0  0  0  0
    5.7932    1.2410   -3.9632 N   0  0  0  0  0  0  0  0  0  0  0  0
    6.0470    4.0119   -5.0011 C   0  0  0  0  0  0  0  0  0  0  0  0
    6.4269    5.4923   -4.9861 C   0  0  0  0  0  0  0  0  0  0  0  0
    5.2857    6.3440   -4.4187 C   0  0  0  0  0  0  0  0  0  0  0  0
    4.9866    5.9812   -2.9525 C   0  0  1  0  0  0  0  0  0  0  0  0
    3.7241    6.6590   -2.4116 C   0  0  0  0  0  0  0  0  0  0  0  0
    1.7667   -1.5387    0.8806 H   0  0  0  0  0  0  0  0  0  0  0  0
    0.7589   -0.6660   -0.3041 H   0  0  0  0  0  0  0  0  0  0  0  0
    1.1837    0.1056    1.2541 H   0  0  0  0  0  0  0  0  0  0  0  0
    0.9686    0.7704   -1.9941 H   0  0  0  0  0  0  0  0  0  0  0  0
    2.4754    0.1915   -2.7521 H   0  0  0  0  0  0  0  0  0  0  0  0
    2.0835    1.9357   -2.7362 H   0  0  0  0  0  0  0  0  0  0  0  0
    1.0896    2.2073    0.1143 H   0  0  0  0  0  0  0  0  0  0  0  0
    2.4231    3.2608   -0.4428 H   0  0  0  0  0  0  0  0  0  0  0  0
    2.6233    2.2845    1.0297 H   0  0  0  0  0  0  0  0  0  0  0  0
    4.6978    0.4315   -1.4251 H   0  0  0  0  0  0  0  0  0  0  0  0
    4.7559    1.5607   -0.0694 H   0  0  0  0  0  0  0  0  0  0  0  0
    6.2016    0.5349   -3.3548 H   0  0  0  0  0  0  0  0  0  0  0  0
    5.0819    0.7857   -4.5365 H   0  0  0  0  0  0  0  0  0  0  0  0
    5.3109    3.8206   -5.8039 H   0  0  0  0  0  0  0  0  0  0  0  0
    6.9095    3.3579   -5.1991 H   0  0  0  0  0  0  0  0  0  0  0  0
    6.6814    5.8048   -6.0115 H   0  0  0  0  0  0  0  0  0  0  0  0
    7.3350    5.6365   -4.3744 H   0  0  0  0  0  0  0  0  0  0  0  0
    4.3758    6.1904   -5.0284 H   0  0  0  0  0  0  0  0  0  0  0  0
    5.5319    7.4158   -4.4895 H   0  0  0  0  0  0  0  0  0  0  0  0
    5.8416    6.3414   -2.3459 H   0  0  0  0  0  0  0  0  0  0  0  0
    2.8366    6.3634   -2.9949 H   0  0  0  0  0  0  0  0  0  0  0  0
    3.8187    7.7558   -2.4605 H   0  0  0  0  0  0  0  0  0  0  0  0
    3.5493    6.3670   -1.3666 H   0  0  0  0  0  0  0  0  0  0  0  0
  1  2  1  0
  1 18  1  0
  1 19  1  0
  1 20  1  0
  3  2  1  1
  3  4  1  0
  3  5  1  0
  3  6  1  0
  4 21  1  0
  4 22  1  0
  4 23  1  0
  5 24  1  0
  5 25  1  0
  5 26  1  0
  6  7  1  0
  6 27  1  0
  6 28  1  0
  7  8  1  0
  7 11  2  0
  8  9  2  0
  9 10  1  0
  9 16  1  0
 10 11  1  0
 10 13  1  0
 11 12  1  0
 12 29  1  0
 12 30  1  0
 13 14  1  0
 13 31  1  0
 13 32  1  0
 14 15  1  0
 14 33  1  0
 14 34  1  0
 15 16  1  0
 15 35  1  0
 15 36  1  0
 16 17  1  0
 16 37  1  1
 17 38  1  0
 17 39  1  0
 17 40  1  0
M  END

