
     RDKit          3D

 53 53  0  0  0  0  0  0  0  0999 V2000
    1.2201    0.5077    1.0215 C   0  0  0  0  0  0  0  0  0  0  0  0
    2.6631    0.7090    1.1215 C   0  0  0  0  0  0  0  0  0  0  0  0
    3.8597    0.8884    1.2103 C   0  0  0  0  0  0  0  0  0  0  0  0
    5.3070    1.0749    1.3148 C   0  0  0  0  0  0  0  0  0  0  0  0
    6.0717   -0.2671    1.3150 C   0  0  0  0  0  0  0  0  0  0  0  0
    7.5288   -0.1215    1.3534 N   0  0  0  0  0  0  0  0  0  0  0  0
    8.2679   -0.4034    0.1234 C   0  0  0  0  0  0  0  0  0  0  0  0
    8.0800    0.6515   -0.9748 C   0  0  0  0  0  0  0  0  0  0  0  0
    8.8139    0.2865   -2.2585 C   0  0  1  0  0  0  0  0  0  0  0  0
   10.1783    0.1151   -1.9620 O   0  0  0  0  0  0  0  0  0  0  0  0
   11.0623    0.1428   -3.0694 C   0  0  0  0  0  0  0  0  0  0  0  0
   11.2946   -1.2298   -3.7116 C   0  0  0  0  0  0  0  0  0  0  0  0
   10.0248   -2.0882   -3.9153 C   0  0  0  0  0  0  0  0  0  0  0  0
    8.6975   -1.3342   -4.0332 C   0  0  0  0  0  0  0  0  0  0  0  0
    8.2104   -0.8685   -2.7841 O   0  0  0  0  0  0  0  0  0  0  0  0
    8.0728    0.2269    2.5604 C   0  0  0  0  0  0  0  0  0  0  0  0
    7.3701    0.4244    3.5433 O   0  0  0  0  0  0  0  0  0  0  0  0
    9.6034    0.3604    2.6815 C   0  0  1  0  0  0  0  0  0  0  0  0
   10.0894    1.9333    1.8711 Cl  0  0  0  0  0  0  0  0  0  0  0  0
   10.0777    0.3630    4.1288 C   0  0  0  0  0  0  0  0  0  0  0  0
    9.9416   -1.0028    4.8132 C   0  0  0  0  0  0  0  0  0  0  0  0
   10.4625   -0.9997    6.2544 C   0  0  0  0  0  0  0  0  0  0  0  0
   10.3312   -2.3552    6.9498 C   0  0  0  0  0  0  0  0  0  0  0  0
    0.7317    0.6000    2.0060 H   0  0  0  0  0  0  0  0  0  0  0  0
    0.9802   -0.4929    0.6245 H   0  0  0  0  0  0  0  0  0  0  0  0
    0.7570    1.2499    0.3499 H   0  0  0  0  0  0  0  0  0  0  0  0
    5.5516    1.6076    2.2477 H   0  0  0  0  0  0  0  0  0  0  0  0
    5.6633    1.7060    0.4827 H   0  0  0  0  0  0  0  0  0  0  0  0
    5.8145   -0.8439    0.4145 H   0  0  0  0  0  0  0  0  0  0  0  0
    5.7509   -0.8468    2.1933 H   0  0  0  0  0  0  0  0  0  0  0  0
    7.9455   -1.3840   -0.2628 H   0  0  0  0  0  0  0  0  0  0  0  0
    9.3380   -0.4821    0.3374 H   0  0  0  0  0  0  0  0  0  0  0  0
    8.4550    1.6212   -0.6160 H   0  0  0  0  0  0  0  0  0  0  0  0
    7.0147    0.7648   -1.2275 H   0  0  0  0  0  0  0  0  0  0  0  0
    8.7194    1.1085   -3.0042 H   0  0  0  0  0  0  0  0  0  0  0  0
   12.0193    0.5496   -2.7049 H   0  0  0  0  0  0  0  0  0  0  0  0
   10.6771    0.8575   -3.8227 H   0  0  0  0  0  0  0  0  0  0  0  0
   12.0127   -1.8014   -3.1015 H   0  0  0  0  0  0  0  0  0  0  0  0
   11.7952   -1.0507   -4.6796 H   0  0  0  0  0  0  0  0  0  0  0  0
    9.9081   -2.7870   -3.0711 H   0  0  0  0  0  0  0  0  0  0  0  0
   10.1510   -2.7136   -4.8152 H   0  0  0  0  0  0  0  0  0  0  0  0
    7.9237   -2.0200   -4.4112 H   0  0  0  0  0  0  0  0  0  0  0  0
    8.7677   -0.4950   -4.7557 H   0  0  0  0  0  0  0  0  0  0  0  0
   10.1218   -0.4221    2.1125 H   0  0  0  0  0  0  0  0  0  0  0  0
    9.4994    1.1187    4.6812 H   0  0  0  0  0  0  0  0  0  0  0  0
   11.1335    0.6789    4.1353 H   0  0  0  0  0  0  0  0  0  0  0  0
   10.4910   -1.7670    4.2310 H   0  0  0  0  0  0  0  0  0  0  0  0
    8.8814   -1.3050    4.8121 H   0  0  0  0  0  0  0  0  0  0  0  0
    9.9149   -0.2335    6.8318 H   0  0  0  0  0  0  0  0  0  0  0  0
   11.5212   -0.6815    6.2601 H   0  0  0  0  0  0  0  0  0  0  0  0
    9.2791   -2.6832    6.9905 H   0  0  0  0  0  0  0  0  0  0  0  0
   10.7082   -2.3173    7.9844 H   0  0  0  0  0  0  0  0  0  0  0  0
   10.8993   -3.1369    6.4176 H   0  0  0  0  0  0  0  0  0  0  0  0
  1  2  1  0
  1 24  1  0
  1 25  1  0
  1 26  1  0
  2  3  3  0
  3  4  1  0
  4  5  1  0
  4 27  1  0
  4 28  1  0
  5  6  1  0
  5 29  1  0
  5 30  1  0
  6  7  1  0
  6 16  1  0
  7  8  1  0
  7 31  1  0
  7 32  1  0
  8  9  1  0
  8 33  1  0
  8 34  1  0
  9 10  1  0
  9 15  1  0
  9 35  1  6
 10 11  1  0
 11 12  1  0
 11 36  1  0
 11 37  1  0
 12 13  1  0
 12 38  1  0
 12 39  1  0
 13 14  1  0
 13 40  1  0
 13 41  1  0
 14 15  1  0
 14 42  1  0
 14 43  1  0
 16 17  2  0
 16 18  1  0
 18 19  1  0
 18 20  1  0
 18 44  1  6
 20 21  1  0
 20 45  1  0
 20 46  1  0
 21 22  1  0
 21 47  1  0
 21 48  1  0
 22 23  1  0
 22 49  1  0
 22 50  1  0
 23 51  1  0
 23 52  1  0
 23 53  1  0
M  END

