
     RDKit          3D

 35 37  0  0  0  0  0  0  0  0999 V2000
    1.0273    1.3039    2.2712 C   0  0  0  0  0  0  0  0  0  0  0  0
    2.5238    1.4268    2.0067 C   0  0  0  0  0  0  0  0  0  0  0  0
    2.8793    0.9715    0.2524 S   0  0  0  0  0  0  0  0  0  0  0  0
    4.6531    1.2103    0.1819 C   0  0  0  0  0  0  0  0  0  0  0  0
    5.2207    2.4938    0.2339 C   0  0  0  0  0  0  0  0  0  0  0  0
    6.6066    2.6541    0.1552 C   0  0  0  0  0  0  0  0  0  0  0  0
    7.4356    1.5437   -0.0043 C   0  0  0  0  0  0  0  0  0  0  0  0
    6.8815    0.2570   -0.0907 C   0  0  0  0  0  0  0  0  0  0  0  0
    7.8378   -0.8852   -0.2612 C   0  0  0  0  0  0  0  0  0  0  0  0
    9.0389   -0.7682   -0.0812 O   0  0  0  0  0  0  0  0  0  0  0  0
    7.2923   -2.0932   -0.6502 N   0  0  0  0  0  0  0  0  0  0  0  0
    7.9968   -3.2669   -0.8482 C   0  0  0  0  0  0  0  0  0  0  0  0
    7.3946   -4.3486   -1.2272 N   0  0  0  0  0  0  0  0  0  0  0  0
    8.2975   -5.3801   -1.3534 C   0  0  0  0  0  0  0  0  0  0  0  0
    8.0023   -6.6992   -1.7445 C   0  0  0  0  0  0  0  0  0  0  0  0
    6.7437   -7.0325   -2.0323 F   0  0  0  0  0  0  0  0  0  0  0  0
    9.0034   -7.6557   -1.8342 C   0  0  0  0  0  0  0  0  0  0  0  0
   10.3220   -7.2890   -1.5279 C   0  0  0  0  0  0  0  0  0  0  0  0
   11.2753   -8.2266   -1.6203 F   0  0  0  0  0  0  0  0  0  0  0  0
   10.6774   -6.0039   -1.1359 C   0  0  0  0  0  0  0  0  0  0  0  0
    9.6456   -5.0609   -1.0545 C   0  0  0  0  0  0  0  0  0  0  0  0
    9.7507   -3.3665   -0.6001 S   0  0  0  0  0  0  0  0  0  0  0  0
    5.4902    0.0982    0.0187 C   0  0  0  0  0  0  0  0  0  0  0  0
    0.8051    1.5700    3.3169 H   0  0  0  0  0  0  0  0  0  0  0  0
    0.6726    0.2752    2.1010 H   0  0  0  0  0  0  0  0  0  0  0  0
    0.4480    1.9763    1.6188 H   0  0  0  0  0  0  0  0  0  0  0  0
    3.0997    0.7559    2.6625 H   0  0  0  0  0  0  0  0  0  0  0  0
    2.8709    2.4568    2.1824 H   0  0  0  0  0  0  0  0  0  0  0  0
    4.5697    3.3658    0.3307 H   0  0  0  0  0  0  0  0  0  0  0  0
    7.0408    3.6556    0.2058 H   0  0  0  0  0  0  0  0  0  0  0  0
    8.5199    1.6477   -0.0695 H   0  0  0  0  0  0  0  0  0  0  0  0
    6.3037   -2.1716   -0.8653 H   0  0  0  0  0  0  0  0  0  0  0  0
    8.7688   -8.6762   -2.1379 H   0  0  0  0  0  0  0  0  0  0  0  0
   11.7178   -5.7690   -0.9086 H   0  0  0  0  0  0  0  0  0  0  0  0
    5.0224   -0.8889    0.0086 H   0  0  0  0  0  0  0  0  0  0  0  0
  1  2  1  0
  1 24  1  0
  1 25  1  0
  1 26  1  0
  2  3  1  0
  2 27  1  0
  2 28  1  0
  3  4  1  0
  4  5  2  0
  4 23  1  0
  5  6  1  0
  5 29  1  0
  6  7  2  0
  6 30  1  0
  7  8  1  0
  7 31  1  0
  8  9  1  0
  8 23  2  0
  9 10  2  0
  9 11  1  0
 11 12  1  0
 11 32  1  0
 12 13  2  0
 12 22  1  0
 13 14  1  0
 14 15  2  0
 14 21  1  0
 15 16  1  0
 15 17  1  0
 17 18  2  0
 17 33  1  0
 18 19  1  0
 18 20  1  0
 20 21  2  0
 20 34  1  0
 21 22  1  0
 23 35  1  0
M  END

