
     RDKit          3D

 51 53  0  0  0  0  0  0  0  0999 V2000
   -0.2137    1.4281   -6.0000 C   0  0  0  0  0  0  0  0  0  0  0  0
    0.3087    0.1832   -5.2714 C   0  0  1  0  0  0  0  0  0  0  0  0
    1.0108   -0.8177   -6.2116 C   0  0  0  0  0  0  0  0  0  0  0  0
    2.3881   -0.3158   -6.6632 C   0  0  0  0  0  0  0  0  0  0  0  0
    3.2597    0.0691   -5.4668 C   0  0  0  0  0  0  0  0  0  0  0  0
    2.5362    1.0393   -4.6287 N   0  0  0  0  0  0  0  0  0  0  0  0
    3.4713    1.8959   -3.5131 S   0  0  1  0  0  0  0  0  0  0  0  0
    3.4346    1.2836   -2.1828 O   0  0  0  0  0  0  0  0  0  0  0  0
    4.7611    2.1328   -4.1693 O   0  0  0  0  0  0  0  0  0  0  0  0
    2.5757    3.2995   -3.3872 N   0  0  0  0  0  0  0  0  0  0  0  0
    2.5237    3.9738   -2.0681 C   0  0  0  0  0  0  0  0  0  0  0  0
    2.0883    5.3924   -2.4375 C   0  0  0  0  0  0  0  0  0  0  0  0
    2.7791    5.6366   -3.7881 C   0  0  2  0  0  0  0  0  0  0  0  0
    2.2252    6.8081   -4.6035 C   0  0  0  0  0  0  0  0  0  0  0  0
    2.3530    8.0850   -3.9095 N   0  0  0  0  0  0  0  0  0  0  0  0
    3.6809    8.7002   -3.9546 C   0  0  0  0  0  0  0  0  0  0  0  0
    3.9106    9.5078   -5.2368 C   0  0  0  0  0  0  0  0  0  0  0  0
    2.8904   10.4730   -5.4186 O   0  0  0  0  0  0  0  0  0  0  0  0
    1.6039    9.8840   -5.4678 C   0  0  0  0  0  0  0  0  0  0  0  0
    1.3253    9.0860   -4.1903 C   0  0  0  0  0  0  0  0  0  0  0  0
    2.6417    4.2754   -4.4934 C   0  0  0  0  0  0  0  0  0  0  0  0
    1.2539    0.5419   -4.1110 C   0  0  0  0  0  0  0  0  0  0  0  0
   -0.8901    1.1486   -6.8239 H   0  0  0  0  0  0  0  0  0  0  0  0
    0.6064    2.0280   -6.4228 H   0  0  0  0  0  0  0  0  0  0  0  0
   -0.7768    2.0787   -5.3112 H   0  0  0  0  0  0  0  0  0  0  0  0
   -0.5581   -0.3292   -4.8176 H   0  0  0  0  0  0  0  0  0  0  0  0
    0.3722   -1.0335   -7.0845 H   0  0  0  0  0  0  0  0  0  0  0  0
    1.1401   -1.7752   -5.6754 H   0  0  0  0  0  0  0  0  0  0  0  0
    2.2814    0.5589   -7.3262 H   0  0  0  0  0  0  0  0  0  0  0  0
    2.9075   -1.0939   -7.2467 H   0  0  0  0  0  0  0  0  0  0  0  0
    4.2013    0.5288   -5.7907 H   0  0  0  0  0  0  0  0  0  0  0  0
    3.5125   -0.8389   -4.8805 H   0  0  0  0  0  0  0  0  0  0  0  0
    3.5126    3.9781   -1.5770 H   0  0  0  0  0  0  0  0  0  0  0  0
    1.8234    3.4585   -1.3956 H   0  0  0  0  0  0  0  0  0  0  0  0
    2.3618    6.1340   -1.6746 H   0  0  0  0  0  0  0  0  0  0  0  0
    0.9925    5.4356   -2.5663 H   0  0  0  0  0  0  0  0  0  0  0  0
    3.8537    5.8044   -3.5950 H   0  0  0  0  0  0  0  0  0  0  0  0
    1.1511    6.6258   -4.7783 H   0  0  0  0  0  0  0  0  0  0  0  0
    2.7001    6.8007   -5.6097 H   0  0  0  0  0  0  0  0  0  0  0  0
    4.4583    7.9278   -3.8439 H   0  0  0  0  0  0  0  0  0  0  0  0
    3.7786    9.3835   -3.0914 H   0  0  0  0  0  0  0  0  0  0  0  0
    3.9555    8.8313   -6.1169 H   0  0  0  0  0  0  0  0  0  0  0  0
    4.8652   10.0553   -5.1890 H   0  0  0  0  0  0  0  0  0  0  0  0
    1.5169    9.2266   -6.3597 H   0  0  0  0  0  0  0  0  0  0  0  0
    0.8796   10.7059   -5.5851 H   0  0  0  0  0  0  0  0  0  0  0  0
    0.3382    8.5986   -4.2443 H   0  0  0  0  0  0  0  0  0  0  0  0
    1.2949    9.7961   -3.3433 H   0  0  0  0  0  0  0  0  0  0  0  0
    3.4906    4.0561   -5.1576 H   0  0  0  0  0  0  0  0  0  0  0  0
    1.7156    4.2269   -5.0950 H   0  0  0  0  0  0  0  0  0  0  0  0
    0.8089    1.3267   -3.4827 H   0  0  0  0  0  0  0  0  0  0  0  0
    1.4182   -0.3450   -3.4682 H   0  0  0  0  0  0  0  0  0  0  0  0
  1  2  1  0
  1 23  1  0
  1 24  1  0
  1 25  1  0
  2  3  1  0
  2 22  1  0
  2 26  1  1
  3  4  1  0
  3 27  1  0
  3 28  1  0
  4  5  1  0
  4 29  1  0
  4 30  1  0
  5  6  1  0
  5 31  1  0
  5 32  1  0
  7  6  1  6
  6 22  1  0
  7  8  2  0
  7  9  2  0
  7 10  1  0
 10 11  1  0
 10 21  1  0
 11 12  1  0
 11 33  1  0
 11 34  1  0
 12 13  1  0
 12 35  1  0
 12 36  1  0
 13 14  1  0
 13 21  1  0
 13 37  1  1
 14 15  1  0
 14 38  1  0
 14 39  1  0
 15 16  1  0
 15 20  1  0
 16 17  1  0
 16 40  1  0
 16 41  1  0
 17 18  1  0
 17 42  1  0
 17 43  1  0
 18 19  1  0
 19 20  1  0
 19 44  1  0
 19 45  1  0
 20 46  1  0
 20 47  1  0
 21 48  1  0
 21 49  1  0
 22 50  1  0
 22 51  1  0
M  END

