
     RDKit          3D

 49 51  0  0  0  0  0  0  0  0999 V2000
    5.1270   -5.1506    0.2645 C   0  0  0  0  0  0  0  0  0  0  0  0
    4.1712   -4.1130    0.2765 O   0  0  0  0  0  0  0  0  0  0  0  0
    4.4256   -2.9627   -0.4196 C   0  0  0  0  0  0  0  0  0  0  0  0
    5.5759   -2.7046   -1.1617 C   0  0  0  0  0  0  0  0  0  0  0  0
    5.7416   -1.4905   -1.8412 C   0  0  0  0  0  0  0  0  0  0  0  0
    4.7347   -0.5194   -1.7744 C   0  0  0  0  0  0  0  0  0  0  0  0
    4.8132    0.7296   -2.4251 N   0  0  0  0  0  0  0  0  0  0  0  0
    5.8237    1.2329   -3.2116 C   0  0  0  0  0  0  0  0  0  0  0  0
    5.5618    2.6295   -3.7584 C   0  0  0  0  0  0  0  0  0  0  0  0
    6.8527    0.6340   -3.4685 O   0  0  0  0  0  0  0  0  0  0  0  0
    3.5683   -0.7716   -1.0267 C   0  0  0  0  0  0  0  0  0  0  0  0
    3.4057   -1.9806   -0.3507 C   0  0  0  0  0  0  0  0  0  0  0  0
    2.2753   -2.3120    0.4169 N   0  0  0  0  0  0  0  0  0  0  0  0
    1.1573   -1.5672    0.6603 C   0  0  0  0  0  0  0  0  0  0  0  0
    0.9486   -0.4484    0.2270 O   0  0  0  0  0  0  0  0  0  0  0  0
    0.1401   -2.2858    1.5729 C   0  0  0  0  0  0  0  0  0  0  0  0
   -1.0362   -1.4870    1.7544 N   0  0  0  0  0  0  0  0  0  0  0  0
   -2.0987   -1.4824    0.8163 C   0  0  0  0  0  0  0  0  0  0  0  0
   -2.2202   -2.2681   -0.0947 O   0  0  0  0  0  0  0  0  0  0  0  0
   -2.9151   -0.4540    1.1855 N   0  0  0  0  0  0  0  0  0  0  0  0
   -2.4116    0.3401    2.3056 C   0  0  1  0  0  0  0  0  0  0  0  0
   -1.9912    1.7467    1.8483 C   0  0  0  0  0  0  0  0  0  0  0  0
   -3.3889    0.2980    3.4802 C   0  0  2  0  0  0  0  0  0  0  0  0
   -4.4659    1.3361    3.6977 C   0  0  0  0  0  0  0  0  0  0  0  0
   -3.3053    1.2340    4.6541 C   0  0  0  0  0  0  0  0  0  0  0  0
   -1.1274   -0.4478    2.6580 C   0  0  0  0  0  0  0  0  0  0  0  0
   -0.3447   -0.1985    3.5436 O   0  0  0  0  0  0  0  0  0  0  0  0
    4.7174   -5.9638    0.8786 H   0  0  0  0  0  0  0  0  0  0  0  0
    6.0891   -4.8229    0.6970 H   0  0  0  0  0  0  0  0  0  0  0  0
    5.3058   -5.5274   -0.7583 H   0  0  0  0  0  0  0  0  0  0  0  0
    6.3692   -3.4499   -1.2242 H   0  0  0  0  0  0  0  0  0  0  0  0
    6.6407   -1.2933   -2.4188 H   0  0  0  0  0  0  0  0  0  0  0  0
    4.0084    1.3285   -2.2879 H   0  0  0  0  0  0  0  0  0  0  0  0
    4.6070    3.0723   -3.4387 H   0  0  0  0  0  0  0  0  0  0  0  0
    5.5861    2.5844   -4.8579 H   0  0  0  0  0  0  0  0  0  0  0  0
    6.3865    3.2872   -3.4449 H   0  0  0  0  0  0  0  0  0  0  0  0
    2.7712   -0.0327   -0.9602 H   0  0  0  0  0  0  0  0  0  0  0  0
    2.3311   -3.2374    0.8317 H   0  0  0  0  0  0  0  0  0  0  0  0
    0.5983   -2.4702    2.5573 H   0  0  0  0  0  0  0  0  0  0  0  0
   -0.1513   -3.2463    1.1208 H   0  0  0  0  0  0  0  0  0  0  0  0
   -3.7437   -0.2276    0.6506 H   0  0  0  0  0  0  0  0  0  0  0  0
   -1.2548    1.6599    1.0361 H   0  0  0  0  0  0  0  0  0  0  0  0
   -1.5239    2.3032    2.6726 H   0  0  0  0  0  0  0  0  0  0  0  0
   -2.8567    2.3150    1.4748 H   0  0  0  0  0  0  0  0  0  0  0  0
   -3.6774   -0.7318    3.7176 H   0  0  0  0  0  0  0  0  0  0  0  0
   -5.4498    0.9863    4.0226 H   0  0  0  0  0  0  0  0  0  0  0  0
   -4.5020    2.2048    3.0348 H   0  0  0  0  0  0  0  0  0  0  0  0
   -3.4772    0.8133    5.6483 H   0  0  0  0  0  0  0  0  0  0  0  0
   -2.5536    2.0262    4.6350 H   0  0  0  0  0  0  0  0  0  0  0  0
  1  2  1  0
  1 28  1  0
  1 29  1  0
  1 30  1  0
  2  3  1  0
  3  4  2  0
  3 12  1  0
  4  5  1  0
  4 31  1  0
  5  6  2  0
  5 32  1  0
  6  7  1  0
  6 11  1  0
  7  8  1  0
  7 33  1  0
  8  9  1  0
  8 10  2  0
  9 34  1  0
  9 35  1  0
  9 36  1  0
 11 12  2  0
 11 37  1  0
 12 13  1  0
 13 14  1  0
 13 38  1  0
 14 15  2  0
 14 16  1  0
 16 17  1  0
 16 39  1  0
 16 40  1  0
 17 18  1  0
 17 26  1  0
 18 19  2  0
 18 20  1  0
 20 21  1  0
 20 41  1  0
 21 22  1  6
 21 23  1  0
 21 26  1  0
 22 42  1  0
 22 43  1  0
 22 44  1  0
 23 24  1  0
 23 25  1  0
 23 45  1  1
 24 25  1  0
 24 46  1  0
 24 47  1  0
 25 48  1  0
 25 49  1  0
 26 27  2  0
M  END

