
     RDKit          3D

 41 43  0  0  0  0  0  0  0  0999 V2000
    1.1580   -0.1363    0.5791 C   0  0  0  0  0  0  0  0  0  0  0  0
    2.5504    0.2777    0.4458 N   0  0  0  0  0  0  0  0  0  0  0  0
    2.8578    1.0265   -0.7705 C   0  0  1  0  0  0  0  0  0  0  0  0
    2.2012    2.4111   -0.7828 C   0  0  0  0  0  0  0  0  0  0  0  0
    1.9698    3.1199    0.4065 C   0  0  0  0  0  0  0  0  0  0  0  0
    1.4230    4.4023    0.3771 C   0  0  0  0  0  0  0  0  0  0  0  0
    1.1137    4.9721   -0.8583 C   0  0  0  0  0  0  0  0  0  0  0  0
    0.5309    6.3296   -0.8973 N   0  0  0  0  0  0  0  0  0  0  0  0
    0.3512    6.8967    0.1685 O   0  0  0  0  0  0  0  0  0  0  0  0
    0.2659    6.7984   -1.9924 O   0  0  0  0  0  0  0  0  0  0  0  0
    1.3363    4.2940   -2.0574 C   0  0  0  0  0  0  0  0  0  0  0  0
    1.8806    3.0116   -2.0101 C   0  0  0  0  0  0  0  0  0  0  0  0
    4.3536    1.1782   -0.8885 C   0  0  0  0  0  0  0  0  0  0  0  0
    5.0459    1.2061   -2.0104 N   0  0  0  0  0  0  0  0  0  0  0  0
    6.3427    1.4087   -1.6374 C   0  0  0  0  0  0  0  0  0  0  0  0
    6.4574    1.5082   -0.2542 C   0  0  0  0  0  0  0  0  0  0  0  0
    7.6079    1.7160    0.6167 C   0  0  0  0  0  0  0  0  0  0  0  0
    7.4563    2.0184    1.9878 C   0  0  0  0  0  0  0  0  0  0  0  0
    8.5611    2.2133    2.8111 C   0  0  0  0  0  0  0  0  0  0  0  0
    9.8398    2.1122    2.2621 C   0  0  0  0  0  0  0  0  0  0  0  0
   11.0131    2.3167    3.1280 N   0  0  0  0  0  0  0  0  0  0  0  0
   10.8092    2.5643    4.3068 O   0  0  0  0  0  0  0  0  0  0  0  0
   12.1172    2.2256    2.6139 O   0  0  0  0  0  0  0  0  0  0  0  0
   10.0299    1.8203    0.9086 C   0  0  0  0  0  0  0  0  0  0  0  0
    8.9193    1.6214    0.0979 C   0  0  0  0  0  0  0  0  0  0  0  0
    5.1556    1.3634    0.1978 N   0  0  0  0  0  0  0  0  0  0  0  0
    4.8273    1.3349    1.1562 H   0  0  0  0  0  0  0  0  0  0  0  0
    1.0481   -0.7610    1.4783 H   0  0  0  0  0  0  0  0  0  0  0  0
    0.7793   -0.7118   -0.2914 H   0  0  0  0  0  0  0  0  0  0  0  0
    0.5058    0.7411    0.7038 H   0  0  0  0  0  0  0  0  0  0  0  0
    3.1463   -0.5488    0.4720 H   0  0  0  0  0  0  0  0  0  0  0  0
    2.5367    0.5048   -1.6947 H   0  0  0  0  0  0  0  0  0  0  0  0
    2.2122    2.6508    1.3621 H   0  0  0  0  0  0  0  0  0  0  0  0
    1.2300    4.9679    1.2883 H   0  0  0  0  0  0  0  0  0  0  0  0
    1.0803    4.7768   -3.0001 H   0  0  0  0  0  0  0  0  0  0  0  0
    2.0696    2.4710   -2.9407 H   0  0  0  0  0  0  0  0  0  0  0  0
    7.1404    1.4847   -2.3749 H   0  0  0  0  0  0  0  0  0  0  0  0
    6.4602    2.1225    2.4236 H   0  0  0  0  0  0  0  0  0  0  0  0
    8.4528    2.4489    3.8694 H   0  0  0  0  0  0  0  0  0  0  0  0
   11.0443    1.7470    0.5176 H   0  0  0  0  0  0  0  0  0  0  0  0
    9.0676    1.3763   -0.9550 H   0  0  0  0  0  0  0  0  0  0  0  0
  1  2  1  0
  1 28  1  0
  1 29  1  0
  1 30  1  0
  2  3  1  0
  2 31  1  0
  3  4  1  0
  3 13  1  0
  3 32  1  6
  4  5  2  0
  4 12  1  0
  5  6  1  0
  5 33  1  0
  6  7  2  0
  6 34  1  0
  7  8  1  0
  7 11  1  0
  8  9  2  0
  8 10  1  0
 11 12  2  0
 11 35  1  0
 12 36  1  0
 13 14  2  0
 13 26  1  0
 14 15  1  0
 15 16  2  0
 15 37  1  0
 16 17  1  0
 16 26  1  0
 17 18  2  0
 17 25  1  0
 18 19  1  0
 18 38  1  0
 19 20  2  0
 19 39  1  0
 20 21  1  0
 20 24  1  0
 21 22  2  0
 21 23  1  0
 24 25  2  0
 24 40  1  0
 25 41  1  0
 26 27  1  0
M  CHG  4   8   1  10  -1  21   1  23  -1
M  END

