
     RDKit          3D

 24 26  0  0  0  0  0  0  0  0999 V2000
    1.3719    0.2145   -0.0051 C   0  0  0  0  0  0  0  0  0  0  0  0
    2.3624   -0.6276    0.4195 C   0  0  0  0  0  0  0  0  0  0  0  0
    2.7803   -1.4677   -0.8286 B   0  0  0  0  0  0  0  0  0  0  0  0
    2.8215   -2.9122   -1.2862 C   0  0  0  0  0  0  0  0  0  0  0  0
    3.4552   -3.1994   -2.4594 C   0  0  0  0  0  0  0  0  0  0  0  0
    4.0899   -2.1925   -3.2761 C   0  0  0  0  0  0  0  0  0  0  0  0
    4.8035   -2.5781   -4.4344 C   0  0  0  0  0  0  0  0  0  0  0  0
    5.4512   -1.6534   -5.2368 C   0  0  0  0  0  0  0  0  0  0  0  0
    5.4022   -0.2966   -4.8797 C   0  0  0  0  0  0  0  0  0  0  0  0
    4.7046    0.1196   -3.7528 C   0  0  0  0  0  0  0  0  0  0  0  0
    4.0207   -0.8059   -2.9295 C   0  0  0  0  0  0  0  0  0  0  0  0
    3.2985   -0.4311   -1.7849 N   0  0  0  0  0  0  0  0  0  0  0  0
    2.9009    0.9321   -1.6110 C   0  0  0  0  0  0  0  0  0  0  0  0
    1.9366    1.3550   -0.7397 C   0  0  0  0  0  0  0  0  0  0  0  0
    0.3990   -0.1662   -0.3628 H   0  0  0  0  0  0  0  0  0  0  0  0
    3.2454   -0.0348    0.7229 H   0  0  0  0  0  0  0  0  0  0  0  0
    2.3928   -3.7287   -0.6983 H   0  0  0  0  0  0  0  0  0  0  0  0
    3.5345   -4.2319   -2.8208 H   0  0  0  0  0  0  0  0  0  0  0  0
    4.8383   -3.6422   -4.6843 H   0  0  0  0  0  0  0  0  0  0  0  0
    5.9987   -1.9741   -6.1257 H   0  0  0  0  0  0  0  0  0  0  0  0
    5.9221    0.4486   -5.4874 H   0  0  0  0  0  0  0  0  0  0  0  0
    4.7161    1.1799   -3.5060 H   0  0  0  0  0  0  0  0  0  0  0  0
    3.3062    1.6343   -2.3377 H   0  0  0  0  0  0  0  0  0  0  0  0
    1.5285    2.3667   -0.8353 H   0  0  0  0  0  0  0  0  0  0  0  0
  1  2  2  0
  1 14  1  0
  1 15  1  0
  2  3  1  0
  2 16  1  0
  3  4  1  0
  3 12  1  0
  4  5  2  0
  4 17  1  0
  5  6  1  0
  5 18  1  0
  6  7  2  0
  6 11  1  0
  7  8  1  0
  7 19  1  0
  8  9  2  0
  8 20  1  0
  9 10  1  0
  9 21  1  0
 10 11  2  0
 10 22  1  0
 11 12  1  0
 12 13  1  0
 13 14  2  0
 13 23  1  0
 14 24  1  0
M  END

