
     RDKit          3D

 55 57  0  0  0  0  0  0  0  0999 V2000
    1.7940    3.3322    1.5096 C   0  0  0  0  0  0  0  0  0  0  0  0
    3.0212    3.2445    0.6030 C   0  0  0  0  0  0  0  0  0  0  0  0
    3.2976    1.8781    0.1433 N   0  0  0  0  0  0  0  0  0  0  0  0
    2.3767    1.3716   -0.8399 C   0  0  0  0  0  0  0  0  0  0  0  0
    2.4286    2.0165   -2.2365 C   0  0  0  0  0  0  0  0  0  0  0  0
    3.1893    2.8831   -2.5702 O   0  0  0  0  0  0  0  0  0  0  0  0
    1.5287    1.5181   -3.1197 O   0  0  0  0  0  0  0  0  0  0  0  0
    4.6969    1.6014   -0.1498 C   0  0  1  0  0  0  0  0  0  0  0  0
    5.7005    1.7049    1.0268 C   0  0  0  0  0  0  0  0  0  0  0  0
    6.3893    0.4087    0.5235 C   0  0  2  0  0  0  0  0  0  0  0  0
    7.5916    0.6633   -0.2438 N   0  0  0  0  0  0  0  0  0  0  0  0
    8.5630   -0.3019   -0.3961 C   0  0  0  0  0  0  0  0  0  0  0  0
    8.4923   -1.3753    0.1884 O   0  0  0  0  0  0  0  0  0  0  0  0
    9.6287    0.0084   -1.2434 N   0  0  0  0  0  0  0  0  0  0  0  0
   10.7722   -0.9120   -1.2400 C   0  0  0  0  0  0  0  0  0  0  0  0
   11.3184   -1.1656   -2.6427 C   0  0  0  0  0  0  0  0  0  0  0  0
   11.6142    0.1562   -3.3532 C   0  0  0  0  0  0  0  0  0  0  0  0
   10.3517    1.0172   -3.3744 C   0  0  0  0  0  0  0  0  0  0  0  0
    9.7625    1.2743   -1.9637 C   0  0  2  0  0  0  0  0  0  0  0  0
   10.4989    2.3666   -1.1679 C   0  0  0  0  0  0  0  0  0  0  0  0
   10.7335    3.6273   -1.7445 C   0  0  0  0  0  0  0  0  0  0  0  0
   11.3570    4.6534   -1.0334 C   0  0  0  0  0  0  0  0  0  0  0  0
   11.7565    4.4271    0.2871 C   0  0  0  0  0  0  0  0  0  0  0  0
   12.5402    5.7040    1.1892 Cl  0  0  0  0  0  0  0  0  0  0  0  0
   11.5254    3.1898    0.8901 C   0  0  0  0  0  0  0  0  0  0  0  0
   10.8973    2.1747    0.1626 C   0  0  0  0  0  0  0  0  0  0  0  0
    5.1066    0.1141   -0.3123 C   0  0  0  0  0  0  0  0  0  0  0  0
    1.6585    4.3633    1.8735 H   0  0  0  0  0  0  0  0  0  0  0  0
    1.9013    2.6654    2.3795 H   0  0  0  0  0  0  0  0  0  0  0  0
    0.8652    3.0534    0.9850 H   0  0  0  0  0  0  0  0  0  0  0  0
    3.9019    3.5787    1.1727 H   0  0  0  0  0  0  0  0  0  0  0  0
    2.9229    3.9491   -0.2461 H   0  0  0  0  0  0  0  0  0  0  0  0
    1.3395    1.4719   -0.4707 H   0  0  0  0  0  0  0  0  0  0  0  0
    2.5366    0.2861   -0.9778 H   0  0  0  0  0  0  0  0  0  0  0  0
    0.9918    0.8255   -2.7071 H   0  0  0  0  0  0  0  0  0  0  0  0
    5.0562    2.1944   -1.0144 H   0  0  0  0  0  0  0  0  0  0  0  0
    5.1929    1.5324    1.9875 H   0  0  0  0  0  0  0  0  0  0  0  0
    6.3280    2.6066    1.1056 H   0  0  0  0  0  0  0  0  0  0  0  0
    6.6438   -0.3483    1.2753 H   0  0  0  0  0  0  0  0  0  0  0  0
    7.6659    1.5478   -0.7259 H   0  0  0  0  0  0  0  0  0  0  0  0
   10.4264   -1.8373   -0.7650 H   0  0  0  0  0  0  0  0  0  0  0  0
   11.5864   -0.5052   -0.6077 H   0  0  0  0  0  0  0  0  0  0  0  0
   10.5800   -1.7422   -3.2273 H   0  0  0  0  0  0  0  0  0  0  0  0
   12.2257   -1.7875   -2.5659 H   0  0  0  0  0  0  0  0  0  0  0  0
   11.9656   -0.0192   -4.3833 H   0  0  0  0  0  0  0  0  0  0  0  0
   12.4267    0.6909   -2.8289 H   0  0  0  0  0  0  0  0  0  0  0  0
    9.5761    0.4986   -3.9635 H   0  0  0  0  0  0  0  0  0  0  0  0
   10.5367    1.9782   -3.8765 H   0  0  0  0  0  0  0  0  0  0  0  0
    8.7452    1.6530   -2.1534 H   0  0  0  0  0  0  0  0  0  0  0  0
   10.4162    3.8285   -2.7709 H   0  0  0  0  0  0  0  0  0  0  0  0
   11.5301    5.6270   -1.4950 H   0  0  0  0  0  0  0  0  0  0  0  0
   11.8331    3.0234    1.9239 H   0  0  0  0  0  0  0  0  0  0  0  0
   10.7128    1.2171    0.6512 H   0  0  0  0  0  0  0  0  0  0  0  0
    4.4222   -0.5436    0.2461 H   0  0  0  0  0  0  0  0  0  0  0  0
    5.2567   -0.2808   -1.3282 H   0  0  0  0  0  0  0  0  0  0  0  0
  1  2  1  0
  1 28  1  0
  1 29  1  0
  1 30  1  0
  2  3  1  0
  2 31  1  0
  2 32  1  0
  3  4  1  0
  3  8  1  0
  4  5  1  0
  4 33  1  0
  4 34  1  0
  5  6  2  0
  5  7  1  0
  7 35  1  0
  8  9  1  0
  8 27  1  0
  8 36  1  6
  9 10  1  0
  9 37  1  0
  9 38  1  0
 10 11  1  0
 10 27  1  0
 10 39  1  1
 11 12  1  0
 11 40  1  0
 12 13  2  0
 12 14  1  0
 14 15  1  0
 14 19  1  0
 15 16  1  0
 15 41  1  0
 15 42  1  0
 16 17  1  0
 16 43  1  0
 16 44  1  0
 17 18  1  0
 17 45  1  0
 17 46  1  0
 18 19  1  0
 18 47  1  0
 18 48  1  0
 19 20  1  0
 19 49  1  6
 20 21  2  0
 20 26  1  0
 21 22  1  0
 21 50  1  0
 22 23  2  0
 22 51  1  0
 23 24  1  0
 23 25  1  0
 25 26  2  0
 25 52  1  0
 26 53  1  0
 27 54  1  0
 27 55  1  0
M  END

