
     RDKit          3D

 50 51  0  0  0  0  0  0  0  0999 V2000
    1.4949   -1.0532   -2.6042 C   0  0  0  0  0  0  0  0  0  0  0  0
    2.4922   -0.9752   -1.9215 C   0  0  0  0  0  0  0  0  0  0  0  0
    3.6843   -0.8594   -1.0730 C   0  0  0  0  0  0  0  0  0  0  0  0
    4.4068   -2.1201   -0.9227 N   0  0  0  0  0  0  0  0  0  0  0  0
    5.7438   -1.9902   -0.3510 C   0  0  0  0  0  0  0  0  0  0  0  0
    5.7499   -1.8499    1.1787 C   0  0  0  0  0  0  0  0  0  0  0  0
    4.9849   -2.9365    1.7884 N   0  0  0  0  0  0  0  0  0  0  0  0
    5.5485   -3.6750    2.7995 C   0  0  0  0  0  0  0  0  0  0  0  0
    6.6948   -3.4683    3.1836 O   0  0  0  0  0  0  0  0  0  0  0  0
    4.6984   -4.7849    3.4221 C   0  0  0  0  0  0  0  0  0  0  0  0
    5.3821   -5.3813    4.6658 C   0  0  1  0  0  0  0  0  0  0  0  0
    5.4799   -4.3998    5.7595 N   0  0  0  0  0  0  0  0  0  0  0  0
    4.4638   -3.6460    6.2619 C   0  0  0  0  0  0  0  0  0  0  0  0
    4.8850   -2.5778    7.2622 C   0  0  0  0  0  0  0  0  0  0  0  0
    3.2885   -3.7828    5.9421 O   0  0  0  0  0  0  0  0  0  0  0  0
    4.7982   -6.7265    5.0841 C   0  0  0  0  0  0  0  0  0  0  0  0
    5.5887   -7.8841    4.9705 C   0  0  0  0  0  0  0  0  0  0  0  0
    5.0967   -9.1405    5.3122 C   0  0  0  0  0  0  0  0  0  0  0  0
    3.7818   -9.2761    5.7863 C   0  0  0  0  0  0  0  0  0  0  0  0
    3.3823  -10.5367    6.0986 O   0  0  0  0  0  0  0  0  0  0  0  0
    2.0760  -10.7454    6.5825 C   0  0  0  0  0  0  0  0  0  0  0  0
    2.9784   -8.1317    5.9081 C   0  0  0  0  0  0  0  0  0  0  0  0
    3.4862   -6.8763    5.5565 C   0  0  0  0  0  0  0  0  0  0  0  0
    3.6323   -3.0911    1.2588 C   0  0  0  0  0  0  0  0  0  0  0  0
    3.6696   -3.2002   -0.2770 C   0  0  0  0  0  0  0  0  0  0  0  0
    0.6170   -1.1215   -3.2188 H   0  0  0  0  0  0  0  0  0  0  0  0
    3.3710   -0.3930   -0.1109 H   0  0  0  0  0  0  0  0  0  0  0  0
    4.3734   -0.1351   -1.5413 H   0  0  0  0  0  0  0  0  0  0  0  0
    6.2558   -1.1292   -0.8106 H   0  0  0  0  0  0  0  0  0  0  0  0
    6.3191   -2.8940   -0.6206 H   0  0  0  0  0  0  0  0  0  0  0  0
    5.3091   -0.8794    1.4791 H   0  0  0  0  0  0  0  0  0  0  0  0
    6.7695   -1.8931    1.5816 H   0  0  0  0  0  0  0  0  0  0  0  0
    4.5551   -5.5869    2.6785 H   0  0  0  0  0  0  0  0  0  0  0  0
    3.7011   -4.4129    3.6953 H   0  0  0  0  0  0  0  0  0  0  0  0
    6.4267   -5.5599    4.3797 H   0  0  0  0  0  0  0  0  0  0  0  0
    6.4215   -4.1091    5.9895 H   0  0  0  0  0  0  0  0  0  0  0  0
    5.9029   -2.7141    7.6558 H   0  0  0  0  0  0  0  0  0  0  0  0
    4.1670   -2.5784    8.0943 H   0  0  0  0  0  0  0  0  0  0  0  0
    4.8225   -1.5914    6.7752 H   0  0  0  0  0  0  0  0  0  0  0  0
    6.6170   -7.8003    4.6053 H   0  0  0  0  0  0  0  0  0  0  0  0
    5.7135  -10.0372    5.2233 H   0  0  0  0  0  0  0  0  0  0  0  0
    1.9777  -11.8240    6.7660 H   0  0  0  0  0  0  0  0  0  0  0  0
    1.3091  -10.4372    5.8485 H   0  0  0  0  0  0  0  0  0  0  0  0
    1.8945  -10.2048    7.5293 H   0  0  0  0  0  0  0  0  0  0  0  0
    1.9545   -8.2022    6.2766 H   0  0  0  0  0  0  0  0  0  0  0  0
    2.8574   -5.9913    5.6679 H   0  0  0  0  0  0  0  0  0  0  0  0
    3.0153   -2.2240    1.5656 H   0  0  0  0  0  0  0  0  0  0  0  0
    3.1556   -3.9840    1.6785 H   0  0  0  0  0  0  0  0  0  0  0  0
    2.6448   -3.2318   -0.6774 H   0  0  0  0  0  0  0  0  0  0  0  0
    4.1576   -4.1545   -0.5454 H   0  0  0  0  0  0  0  0  0  0  0  0
  1  2  3  0
  1 26  1  0
  2  3  1  0
  3  4  1  0
  3 27  1  0
  3 28  1  0
  4  5  1  0
  4 25  1  0
  5  6  1  0
  5 29  1  0
  5 30  1  0
  6  7  1  0
  6 31  1  0
  6 32  1  0
  7  8  1  0
  7 24  1  0
  8  9  2  0
  8 10  1  0
 10 11  1  0
 10 33  1  0
 10 34  1  0
 11 12  1  0
 11 16  1  0
 11 35  1  6
 12 13  1  0
 12 36  1  0
 13 14  1  0
 13 15  2  0
 14 37  1  0
 14 38  1  0
 14 39  1  0
 16 17  2  0
 16 23  1  0
 17 18  1  0
 17 40  1  0
 18 19  2  0
 18 41  1  0
 19 20  1  0
 19 22  1  0
 20 21  1  0
 21 42  1  0
 21 43  1  0
 21 44  1  0
 22 23  2  0
 22 45  1  0
 23 46  1  0
 24 25  1  0
 24 47  1  0
 24 48  1  0
 25 49  1  0
 25 50  1  0
M  END

