
     RDKit          3D

 43 43  0  0  0  0  0  0  0  0999 V2000
    2.0192   -0.4497    3.0036 C   0  0  0  0  0  0  0  0  0  0  0  0
    1.9780   -0.3138    1.4810 C   0  0  0  0  0  0  0  0  0  0  0  0
    2.8805    0.7846    0.9001 C   0  0  0  0  0  0  0  0  0  0  0  0
    4.3203    0.5513    1.0972 N   0  0  0  0  0  0  0  0  0  0  0  0
    4.9718   -0.3678    0.1588 C   0  0  0  0  0  0  0  0  0  0  0  0
    5.2272    0.2115   -1.2426 C   0  0  0  0  0  0  0  0  0  0  0  0
    6.1906    1.3971   -1.2923 C   0  0  0  0  0  0  0  0  0  0  0  0
    4.9389    1.1633    2.1421 C   0  0  0  0  0  0  0  0  0  0  0  0
    4.3211    1.9414    2.8814 O   0  0  0  0  0  0  0  0  0  0  0  0
    6.4215    0.8764    2.3909 C   0  0  0  0  0  0  0  0  0  0  0  0
    7.0486    1.7386    3.5202 C   0  0  1  0  0  0  0  0  0  0  0  0
    6.6419    1.2178    4.9237 C   0  0  0  0  0  0  0  0  0  0  0  0
    7.4086    0.6812    5.6819 O   0  0  0  0  0  0  0  0  0  0  0  0
    5.3584    1.3997    5.2324 O   0  0  0  0  0  0  0  0  0  0  0  0
    8.5517    1.8508    3.3471 C   0  0  0  0  0  0  0  0  0  0  0  0
    9.1233    3.0792    2.9846 C   0  0  0  0  0  0  0  0  0  0  0  0
   10.5012    3.1941    2.7777 C   0  0  0  0  0  0  0  0  0  0  0  0
   11.3340    2.0842    2.9258 C   0  0  0  0  0  0  0  0  0  0  0  0
   10.7623    0.8609    3.2895 C   0  0  0  0  0  0  0  0  0  0  0  0
   11.7921   -0.5426    3.4846 Cl  0  0  0  0  0  0  0  0  0  0  0  0
    9.3891    0.7346    3.5037 C   0  0  0  0  0  0  0  0  0  0  0  0
    1.3333   -1.2420    3.3428 H   0  0  0  0  0  0  0  0  0  0  0  0
    1.7273    0.4892    3.4987 H   0  0  0  0  0  0  0  0  0  0  0  0
    3.0260   -0.7092    3.3673 H   0  0  0  0  0  0  0  0  0  0  0  0
    0.9475   -0.0842    1.1571 H   0  0  0  0  0  0  0  0  0  0  0  0
    2.2243   -1.2830    1.0105 H   0  0  0  0  0  0  0  0  0  0  0  0
    2.6402    1.7522    1.3591 H   0  0  0  0  0  0  0  0  0  0  0  0
    2.6996    0.8748   -0.1823 H   0  0  0  0  0  0  0  0  0  0  0  0
    4.3303   -1.2598    0.0643 H   0  0  0  0  0  0  0  0  0  0  0  0
    5.9154   -0.7228    0.5922 H   0  0  0  0  0  0  0  0  0  0  0  0
    4.2648    0.4965   -1.7013 H   0  0  0  0  0  0  0  0  0  0  0  0
    5.6171   -0.6133   -1.8640 H   0  0  0  0  0  0  0  0  0  0  0  0
    5.8303    2.2397   -0.6803 H   0  0  0  0  0  0  0  0  0  0  0  0
    6.3036    1.7671   -2.3231 H   0  0  0  0  0  0  0  0  0  0  0  0
    7.1954    1.1210   -0.9319 H   0  0  0  0  0  0  0  0  0  0  0  0
    6.9797    1.0690    1.4635 H   0  0  0  0  0  0  0  0  0  0  0  0
    6.5573   -0.1970    2.6073 H   0  0  0  0  0  0  0  0  0  0  0  0
    6.6180    2.7473    3.4217 H   0  0  0  0  0  0  0  0  0  0  0  0
    4.8708    1.7777    4.4553 H   0  0  0  0  0  0  0  0  0  0  0  0
    8.4833    3.9580    2.8677 H   0  0  0  0  0  0  0  0  0  0  0  0
   10.9325    4.1590    2.4996 H   0  0  0  0  0  0  0  0  0  0  0  0
   12.4112    2.1578    2.7684 H   0  0  0  0  0  0  0  0  0  0  0  0
    8.9826   -0.2259    3.8178 H   0  0  0  0  0  0  0  0  0  0  0  0
  1  2  1  0
  1 22  1  0
  1 23  1  0
  1 24  1  0
  2  3  1  0
  2 25  1  0
  2 26  1  0
  3  4  1  0
  3 27  1  0
  3 28  1  0
  4  5  1  0
  4  8  1  0
  5  6  1  0
  5 29  1  0
  5 30  1  0
  6  7  1  0
  6 31  1  0
  6 32  1  0
  7 33  1  0
  7 34  1  0
  7 35  1  0
  8  9  2  0
  8 10  1  0
 10 11  1  0
 10 36  1  0
 10 37  1  0
 11 12  1  0
 11 15  1  0
 11 38  1  6
 12 13  2  0
 12 14  1  0
 14 39  1  0
 15 16  2  0
 15 21  1  0
 16 17  1  0
 16 40  1  0
 17 18  2  0
 17 41  1  0
 18 19  1  0
 18 42  1  0
 19 20  1  0
 19 21  2  0
 21 43  1  0
M  END

