
     RDKit          3D

 80 85  0  0  0  0  0  0  0  0999 V2000
    0.2659    0.2786   -0.5638 C   0  0  0  0  0  0  0  0  0  0  0  0
    1.7598    0.1298   -0.2250 C   0  0  1  0  0  0  0  0  0  0  0  0
    2.0118   -1.1846    0.5328 C   0  0  0  0  0  0  0  0  0  0  0  0
    2.8835    0.3783   -1.7663 Si  0  0  1  0  0  4  0  0  0  0  0  0
    2.4085   -0.8837   -3.0380 C   0  0  0  0  0  0  0  0  0  0  0  0
    2.0780   -1.7186   -3.8747 C   0  0  0  0  0  0  0  0  0  0  0  0
    1.6975   -2.6844   -4.8467 C   0  0  0  0  0  0  0  0  0  0  0  0
    0.8345   -2.3096   -5.9206 C   0  0  0  0  0  0  0  0  0  0  0  0
    0.3369   -0.9918   -6.0426 C   0  0  0  0  0  0  0  0  0  0  0  0
   -0.5042   -0.6070   -7.0848 C   0  0  0  0  0  0  0  0  0  0  0  0
   -1.0097    0.7317   -7.2098 C   0  0  0  0  0  0  0  0  0  0  0  0
   -1.8346    1.0775   -8.2467 C   0  0  0  0  0  0  0  0  0  0  0  0
   -2.2118    0.1074   -9.2318 C   0  0  0  0  0  0  0  0  0  0  0  0
   -1.7533   -1.1806   -9.1515 C   0  0  0  0  0  0  0  0  0  0  0  0
   -0.8864   -1.5893   -8.0820 C   0  0  0  0  0  0  0  0  0  0  0  0
   -0.4027   -2.8917   -7.9699 C   0  0  0  0  0  0  0  0  0  0  0  0
    0.4502   -3.2939   -6.9178 C   0  0  0  0  0  0  0  0  0  0  0  0
    0.9362   -4.6347   -6.8178 C   0  0  0  0  0  0  0  0  0  0  0  0
    0.5628   -5.5958   -7.7910 C   0  0  0  0  0  0  0  0  0  0  0  0
    0.2411   -6.4254   -8.6306 C   0  0  0  0  0  0  0  0  0  0  0  0
   -0.1331   -7.3913   -9.6080 C   0  0  0  0  0  0  0  0  0  0  0  0
    0.3302   -8.7240   -9.5253 C   0  0  0  0  0  0  0  0  0  0  0  0
   -0.0340   -9.6709  -10.4797 C   0  0  0  0  0  0  0  0  0  0  0  0
   -0.8712   -9.2977  -11.5366 C   0  0  0  0  0  0  0  0  0  0  0  0
   -1.3713  -10.5896  -12.8437 Br  0  0  0  0  0  0  0  0  0  0  0  0
   -1.3450   -7.9857  -11.6437 C   0  0  0  0  0  0  0  0  0  0  0  0
   -0.9776   -7.0430  -10.6864 C   0  0  0  0  0  0  0  0  0  0  0  0
    1.7970   -5.0101   -5.7398 C   0  0  0  0  0  0  0  0  0  0  0  0
    2.2922   -6.3270   -5.6114 C   0  0  0  0  0  0  0  0  0  0  0  0
    3.1322   -6.7098   -4.5670 C   0  0  0  0  0  0  0  0  0  0  0  0
    3.6352   -8.0486   -4.4363 C   0  0  0  0  0  0  0  0  0  0  0  0
    4.4589   -8.3918   -3.3975 C   0  0  0  0  0  0  0  0  0  0  0  0
    4.8376   -7.4187   -2.4159 C   0  0  0  0  0  0  0  0  0  0  0  0
    4.3815   -6.1304   -2.5014 C   0  0  0  0  0  0  0  0  0  0  0  0
    3.5155   -5.7246   -3.5732 C   0  0  0  0  0  0  0  0  0  0  0  0
    3.0336   -4.4222   -3.6893 C   0  0  0  0  0  0  0  0  0  0  0  0
    2.1812   -4.0237   -4.7446 C   0  0  0  0  0  0  0  0  0  0  0  0
    2.4833    2.1010   -2.5171 C   0  0  1  0  0  0  0  0  0  0  0  0
    2.7990    3.2663   -1.5618 C   0  0  0  0  0  0  0  0  0  0  0  0
    3.0580    2.3495   -3.9225 C   0  0  0  0  0  0  0  0  0  0  0  0
    4.7302    0.1084   -1.2857 C   0  0  1  0  0  0  0  0  0  0  0  0
    5.1261   -1.3804   -1.2681 C   0  0  0  0  0  0  0  0  0  0  0  0
    5.7425    0.9018   -2.1304 C   0  0  0  0  0  0  0  0  0  0  0  0
   -0.3542    0.1720    0.3434 H   0  0  0  0  0  0  0  0  0  0  0  0
   -0.0612   -0.4956   -1.2777 H   0  0  0  0  0  0  0  0  0  0  0  0
    0.0276    1.2585   -1.0065 H   0  0  0  0  0  0  0  0  0  0  0  0
    2.0374    0.9610    0.4528 H   0  0  0  0  0  0  0  0  0  0  0  0
    1.8231   -2.0631   -0.1070 H   0  0  0  0  0  0  0  0  0  0  0  0
    1.3390   -1.2668    1.4043 H   0  0  0  0  0  0  0  0  0  0  0  0
    3.0427   -1.2599    0.9113 H   0  0  0  0  0  0  0  0  0  0  0  0
    0.6235   -0.2555   -5.2899 H   0  0  0  0  0  0  0  0  0  0  0  0
   -0.7204    1.4703   -6.4576 H   0  0  0  0  0  0  0  0  0  0  0  0
   -2.2123    2.0996   -8.3307 H   0  0  0  0  0  0  0  0  0  0  0  0
   -2.8711    0.4054  -10.0509 H   0  0  0  0  0  0  0  0  0  0  0  0
   -2.0404   -1.9215   -9.9024 H   0  0  0  0  0  0  0  0  0  0  0  0
   -0.6909   -3.6309   -8.7190 H   0  0  0  0  0  0  0  0  0  0  0  0
    0.9834   -9.0133   -8.6998 H   0  0  0  0  0  0  0  0  0  0  0  0
    0.3302  -10.6968  -10.4049 H   0  0  0  0  0  0  0  0  0  0  0  0
   -1.9976   -7.7044  -12.4718 H   0  0  0  0  0  0  0  0  0  0  0  0
   -1.3461   -6.0186  -10.7682 H   0  0  0  0  0  0  0  0  0  0  0  0
    2.0037   -7.0679   -6.3587 H   0  0  0  0  0  0  0  0  0  0  0  0
    3.3457   -8.7902   -5.1857 H   0  0  0  0  0  0  0  0  0  0  0  0
    4.8347   -9.4144   -3.3095 H   0  0  0  0  0  0  0  0  0  0  0  0
    5.4962   -7.7149   -1.5956 H   0  0  0  0  0  0  0  0  0  0  0  0
    4.6695   -5.3862   -1.7541 H   0  0  0  0  0  0  0  0  0  0  0  0
    3.3204   -3.6799   -2.9427 H   0  0  0  0  0  0  0  0  0  0  0  0
    1.3832    2.0592   -2.6282 H   0  0  0  0  0  0  0  0  0  0  0  0
    3.8821    3.3684   -1.3811 H   0  0  0  0  0  0  0  0  0  0  0  0
    2.3118    3.1498   -0.5803 H   0  0  0  0  0  0  0  0  0  0  0  0
    2.4532    4.2260   -1.9845 H   0  0  0  0  0  0  0  0  0  0  0  0
    4.1530    2.4614   -3.9077 H   0  0  0  0  0  0  0  0  0  0  0  0
    2.6451    3.2792   -4.3526 H   0  0  0  0  0  0  0  0  0  0  0  0
    2.8205    1.5276   -4.6160 H   0  0  0  0  0  0  0  0  0  0  0  0
    4.7936    0.4874   -0.2468 H   0  0  0  0  0  0  0  0  0  0  0  0
    5.1155   -1.8005   -2.2870 H   0  0  0  0  0  0  0  0  0  0  0  0
    4.4549   -1.9970   -0.6521 H   0  0  0  0  0  0  0  0  0  0  0  0
    6.1487   -1.5058   -0.8709 H   0  0  0  0  0  0  0  0  0  0  0  0
    5.7079    0.6024   -3.1911 H   0  0  0  0  0  0  0  0  0  0  0  0
    6.7715    0.7146   -1.7761 H   0  0  0  0  0  0  0  0  0  0  0  0
    5.5752    1.9882   -2.0846 H   0  0  0  0  0  0  0  0  0  0  0  0
  1  2  1  0
  1 44  1  0
  1 45  1  0
  1 46  1  0
  2  3  1  0
  2  4  1  0
  2 47  1  1
  3 48  1  0
  3 49  1  0
  3 50  1  0
  4  5  1  6
  4 38  1  0
  4 41  1  0
  5  6  3  0
  6  7  1  0
  7  8  2  0
  7 37  1  0
  8  9  1  0
  8 17  1  0
  9 10  2  0
  9 51  1  0
 10 11  1  0
 10 15  1  0
 11 12  2  0
 11 52  1  0
 12 13  1  0
 12 53  1  0
 13 14  2  0
 13 54  1  0
 14 15  1  0
 14 55  1  0
 15 16  2  0
 16 17  1  0
 16 56  1  0
 17 18  2  0
 18 19  1  0
 18 28  1  0
 19 20  3  0
 20 21  1  0
 21 22  2  0
 21 27  1  0
 22 23  1  0
 22 57  1  0
 23 24  2  0
 23 58  1  0
 24 25  1  0
 24 26  1  0
 26 27  2  0
 26 59  1  0
 27 60  1  0
 28 29  1  0
 28 37  2  0
 29 30  2  0
 29 61  1  0
 30 31  1  0
 30 35  1  0
 31 32  2  0
 31 62  1  0
 32 33  1  0
 32 63  1  0
 33 34  2  0
 33 64  1  0
 34 35  1  0
 34 65  1  0
 35 36  2  0
 36 37  1  0
 36 66  1  0
 38 39  1  0
 38 40  1  0
 38 67  1  6
 39 68  1  0
 39 69  1  0
 39 70  1  0
 40 71  1  0
 40 72  1  0
 40 73  1  0
 41 42  1  0
 41 43  1  0
 41 74  1  1
 42 75  1  0
 42 76  1  0
 42 77  1  0
 43 78  1  0
 43 79  1  0
 43 80  1  0
M  END

