
     RDKit          3D

 72 72  0  0  0  0  0  0  0  0999 V2000
    2.7226   -3.7512   -0.3628 C   0  0  0  0  0  0  0  0  0  0  0  0
    4.1946   -3.3366   -0.3739 C   0  0  0  0  0  0  0  0  0  0  0  0
    4.6285   -2.6465   -1.6710 C   0  0  0  0  0  0  0  0  0  0  0  0
    6.1043   -2.2399   -1.6891 C   0  0  0  0  0  0  0  0  0  0  0  0
    6.5380   -1.5460   -2.9826 C   0  0  0  0  0  0  0  0  0  0  0  0
    8.0367   -1.2115   -3.0335 C   0  0  1  0  0  0  0  0  0  0  0  0
    8.8397   -2.3786   -2.8611 O   0  0  0  0  0  0  0  0  0  0  0  0
    8.4168   -0.4865   -4.2995 C   0  0  0  0  0  0  0  0  0  0  0  0
    9.0313    0.7007   -4.3515 C   0  0  0  0  0  0  0  0  0  0  0  0
    9.4243    1.4213   -5.6089 C   0  0  1  0  0  0  0  0  0  0  0  0
    8.8814    2.8692   -5.6885 C   0  0  0  0  0  0  0  0  0  0  0  0
    9.8539    3.5921   -6.6253 C   0  0  0  0  0  0  0  0  0  0  0  0
   11.2233    3.0867   -6.1704 C   0  0  1  0  0  0  0  0  0  0  0  0
   11.9923    3.2259   -6.9383 H   0  0  0  0  0  0  0  0  0  0  0  0
   11.6954    3.8162   -5.0288 O   0  0  0  0  0  0  0  0  0  0  0  0
   11.0040    1.5614   -5.8708 C   0  0  1  0  0  0  0  0  0  0  0  0
   11.8816    1.0397   -4.7118 C   0  0  0  0  0  0  0  0  0  0  0  0
   13.3907    1.1424   -4.9805 C   0  0  0  0  0  0  0  0  0  0  0  0
   14.2650    1.0620   -3.7124 C   0  0  1  0  0  0  0  0  0  0  0  0
   14.3888   -0.3741   -3.1874 C   0  0  0  0  0  0  0  0  0  0  0  0
   15.6592    1.6939   -3.9142 C   0  0  0  0  0  0  0  0  0  0  0  0
   15.6815    3.1426   -4.4285 C   0  0  0  0  0  0  0  0  0  0  0  0
   14.8588    4.1394   -3.5883 C   0  0  0  0  0  0  0  0  0  0  0  0
   14.8144    5.5075   -4.2594 C   0  0  0  0  0  0  0  0  0  0  0  0
   15.7007    6.3168   -4.1620 O   0  0  0  0  0  0  0  0  0  0  0  0
   13.7372    5.7511   -5.0289 O   0  0  0  0  0  0  0  0  0  0  0  0
   11.3072    0.7759   -7.1503 C   0  0  0  0  0  0  0  0  0  0  0  0
   11.5667    1.2655   -8.2254 O   0  0  0  0  0  0  0  0  0  0  0  0
   11.2064   -0.5501   -6.9495 O   0  0  0  0  0  0  0  0  0  0  0  0
   11.4185   -1.4191   -8.0809 C   0  0  0  0  0  0  0  0  0  0  0  0
   12.8898   -1.7396   -8.2799 C   0  0  0  0  0  0  0  0  0  0  0  0
    2.4469   -4.2424    0.5840 H   0  0  0  0  0  0  0  0  0  0  0  0
    2.4981   -4.4565   -1.1807 H   0  0  0  0  0  0  0  0  0  0  0  0
    2.0591   -2.8792   -0.4903 H   0  0  0  0  0  0  0  0  0  0  0  0
    4.8309   -4.2248   -0.2077 H   0  0  0  0  0  0  0  0  0  0  0  0
    4.3949   -2.6628    0.4790 H   0  0  0  0  0  0  0  0  0  0  0  0
    3.9972   -1.7531   -1.8372 H   0  0  0  0  0  0  0  0  0  0  0  0
    4.4236   -3.3183   -2.5260 H   0  0  0  0  0  0  0  0  0  0  0  0
    6.7412   -3.1270   -1.5345 H   0  0  0  0  0  0  0  0  0  0  0  0
    6.3113   -1.5705   -0.8335 H   0  0  0  0  0  0  0  0  0  0  0  0
    5.9627   -0.6145   -3.1287 H   0  0  0  0  0  0  0  0  0  0  0  0
    6.2936   -2.1893   -3.8512 H   0  0  0  0  0  0  0  0  0  0  0  0
    8.2868   -0.5722   -2.1697 H   0  0  0  0  0  0  0  0  0  0  0  0
    8.6715   -2.9687   -3.6095 H   0  0  0  0  0  0  0  0  0  0  0  0
    8.1783   -1.0069   -5.2389 H   0  0  0  0  0  0  0  0  0  0  0  0
    9.2667    1.2055   -3.4051 H   0  0  0  0  0  0  0  0  0  0  0  0
    8.9978    0.8590   -6.4542 H   0  0  0  0  0  0  0  0  0  0  0  0
    8.8897    3.3318   -4.6832 H   0  0  0  0  0  0  0  0  0  0  0  0
    7.8345    2.9000   -6.0262 H   0  0  0  0  0  0  0  0  0  0  0  0
    9.7886    4.6906   -6.5947 H   0  0  0  0  0  0  0  0  0  0  0  0
    9.6898    3.2734   -7.6667 H   0  0  0  0  0  0  0  0  0  0  0  0
   10.9723    3.9559   -4.4022 H   0  0  0  0  0  0  0  0  0  0  0  0
   11.5890    0.0038   -4.4904 H   0  0  0  0  0  0  0  0  0  0  0  0
   11.6449    1.6295   -3.8131 H   0  0  0  0  0  0  0  0  0  0  0  0
   13.5871    2.0972   -5.4851 H   0  0  0  0  0  0  0  0  0  0  0  0
   13.7049    0.3561   -5.6906 H   0  0  0  0  0  0  0  0  0  0  0  0
   13.7516    1.6498   -2.9292 H   0  0  0  0  0  0  0  0  0  0  0  0
   14.9105   -1.0165   -3.9176 H   0  0  0  0  0  0  0  0  0  0  0  0
   13.4028   -0.8245   -2.9915 H   0  0  0  0  0  0  0  0  0  0  0  0
   14.9617   -0.4091   -2.2465 H   0  0  0  0  0  0  0  0  0  0  0  0
   16.2409    1.0687   -4.6165 H   0  0  0  0  0  0  0  0  0  0  0  0
   16.1992    1.6442   -2.9514 H   0  0  0  0  0  0  0  0  0  0  0  0
   15.3221    3.1764   -5.4710 H   0  0  0  0  0  0  0  0  0  0  0  0
   16.7233    3.4998   -4.4671 H   0  0  0  0  0  0  0  0  0  0  0  0
   15.3239    4.2667   -2.5984 H   0  0  0  0  0  0  0  0  0  0  0  0
   13.8362    3.7629   -3.4402 H   0  0  0  0  0  0  0  0  0  0  0  0
   13.0758    5.0282   -4.9984 H   0  0  0  0  0  0  0  0  0  0  0  0
   10.9949   -0.9437   -8.9779 H   0  0  0  0  0  0  0  0  0  0  0  0
   10.8410   -2.3249   -7.8457 H   0  0  0  0  0  0  0  0  0  0  0  0
   13.4570   -0.8323   -8.5347 H   0  0  0  0  0  0  0  0  0  0  0  0
   13.0060   -2.4580   -9.1072 H   0  0  0  0  0  0  0  0  0  0  0  0
   13.3232   -2.1883   -7.3727 H   0  0  0  0  0  0  0  0  0  0  0  0
  1  2  1  0
  1 32  1  0
  1 33  1  0
  1 34  1  0
  2  3  1  0
  2 35  1  0
  2 36  1  0
  3  4  1  0
  3 37  1  0
  3 38  1  0
  4  5  1  0
  4 39  1  0
  4 40  1  0
  5  6  1  0
  5 41  1  0
  5 42  1  0
  6  7  1  0
  6  8  1  0
  6 43  1  1
  7 44  1  0
  8  9  2  0
  8 45  1  0
  9 10  1  0
  9 46  1  0
 10 11  1  0
 10 16  1  0
 10 47  1  6
 11 12  1  0
 11 48  1  0
 11 49  1  0
 12 13  1  0
 12 50  1  0
 12 51  1  0
 13 14  1  6
 13 15  1  0
 13 16  1  0
 15 52  1  0
 16 17  1  0
 16 27  1  6
 17 18  1  0
 17 53  1  0
 17 54  1  0
 18 19  1  0
 18 55  1  0
 18 56  1  0
 19 20  1  0
 19 21  1  0
 19 57  1  1
 20 58  1  0
 20 59  1  0
 20 60  1  0
 21 22  1  0
 21 61  1  0
 21 62  1  0
 22 23  1  0
 22 63  1  0
 22 64  1  0
 23 24  1  0
 23 65  1  0
 23 66  1  0
 24 25  2  0
 24 26  1  0
 26 67  1  0
 27 28  2  0
 27 29  1  0
 29 30  1  0
 30 31  1  0
 30 68  1  0
 30 69  1  0
 31 70  1  0
 31 71  1  0
 31 72  1  0
M  END

