
     RDKit          3D

 50 50  0  0  0  0  0  0  0  0999 V2000
    6.9577    0.8154    4.7156 C   0  0  0  0  0  0  0  0  0  0  0  0
    6.4237    2.1212    4.1251 C   0  0  0  0  0  0  0  0  0  0  0  0
    7.1737    2.5656    2.8654 C   0  0  0  0  0  0  0  0  0  0  0  0
    6.6300    3.8677    2.2893 C   0  0  0  0  0  0  0  0  0  0  0  0
    7.4006    4.3190    1.1634 O   0  0  0  0  0  0  0  0  0  0  0  0
    7.0650    3.8462   -0.0542 C   0  0  0  0  0  0  0  0  0  0  0  0
    6.1611    3.0676   -0.2445 O   0  0  0  0  0  0  0  0  0  0  0  0
    7.9558    4.4352   -1.1254 C   0  0  0  0  0  0  0  0  0  0  0  0
    7.7264    3.8180   -2.4995 C   0  0  0  0  0  0  0  0  0  0  0  0
    8.5669    4.4656   -3.6007 C   0  0  1  0  0  0  0  0  0  0  0  0
    8.3974    3.7925   -4.9728 C   0  0  0  0  0  0  0  0  0  0  0  0
    6.9787    3.8527   -5.5356 C   0  0  0  0  0  0  0  0  0  0  0  0
    6.9187    3.5317   -7.0167 C   0  0  0  0  0  0  0  0  0  0  0  0
    7.8450    3.6299   -7.7869 O   0  0  0  0  0  0  0  0  0  0  0  0
    5.6808    3.1486   -7.3776 O   0  0  0  0  0  0  0  0  0  0  0  0
    5.4305    2.8617   -8.7782 C   0  0  1  0  0  0  0  0  0  0  0  0
    5.8164    1.4186   -9.0809 C   0  0  0  0  0  0  0  0  0  0  0  0
    3.9600    3.1654   -9.0205 C   0  0  0  0  0  0  0  0  0  0  0  0
    8.2415    5.8497   -3.6721 O   0  0  0  0  0  0  0  0  0  0  0  0
    9.4329    6.5474   -3.9894 C   0  0  0  0  0  0  0  0  0  0  0  0
   10.5044    5.7182   -3.2741 C   0  0  0  0  0  0  0  0  0  0  0  0
    9.9549    4.4110   -3.2523 O   0  0  0  0  0  0  0  0  0  0  0  0
    6.3966    0.5211    5.6167 H   0  0  0  0  0  0  0  0  0  0  0  0
    8.0193    0.9085    4.9993 H   0  0  0  0  0  0  0  0  0  0  0  0
    6.8817   -0.0115    3.9902 H   0  0  0  0  0  0  0  0  0  0  0  0
    6.4803    2.9201    4.8872 H   0  0  0  0  0  0  0  0  0  0  0  0
    5.3505    2.0059    3.8885 H   0  0  0  0  0  0  0  0  0  0  0  0
    7.1022    1.7808    2.0936 H   0  0  0  0  0  0  0  0  0  0  0  0
    8.2468    2.6971    3.0914 H   0  0  0  0  0  0  0  0  0  0  0  0
    6.6982    4.6826    3.0260 H   0  0  0  0  0  0  0  0  0  0  0  0
    5.5795    3.7481    1.9834 H   0  0  0  0  0  0  0  0  0  0  0  0
    9.0040    4.3204   -0.8077 H   0  0  0  0  0  0  0  0  0  0  0  0
    7.7672    5.5213   -1.1554 H   0  0  0  0  0  0  0  0  0  0  0  0
    6.6619    3.8971   -2.7648 H   0  0  0  0  0  0  0  0  0  0  0  0
    7.9621    2.7426   -2.4755 H   0  0  0  0  0  0  0  0  0  0  0  0
    8.7443    2.7500   -4.8903 H   0  0  0  0  0  0  0  0  0  0  0  0
    9.0797    4.2834   -5.6824 H   0  0  0  0  0  0  0  0  0  0  0  0
    6.5815    4.8771   -5.4183 H   0  0  0  0  0  0  0  0  0  0  0  0
    6.2763    3.1906   -5.0082 H   0  0  0  0  0  0  0  0  0  0  0  0
    6.0669    3.5374   -9.3708 H   0  0  0  0  0  0  0  0  0  0  0  0
    5.2390    0.7214   -8.4526 H   0  0  0  0  0  0  0  0  0  0  0  0
    6.8889    1.2582   -8.8987 H   0  0  0  0  0  0  0  0  0  0  0  0
    5.6113    1.1833  -10.1373 H   0  0  0  0  0  0  0  0  0  0  0  0
    3.3194    2.5175   -8.4012 H   0  0  0  0  0  0  0  0  0  0  0  0
    3.7051    2.9954  -10.0780 H   0  0  0  0  0  0  0  0  0  0  0  0
    3.7313    4.2131   -8.7732 H   0  0  0  0  0  0  0  0  0  0  0  0
    9.3480    7.5791   -3.6177 H   0  0  0  0  0  0  0  0  0  0  0  0
    9.6039    6.5782   -5.0821 H   0  0  0  0  0  0  0  0  0  0  0  0
   10.6742    6.0809   -2.2429 H   0  0  0  0  0  0  0  0  0  0  0  0
   11.4703    5.7103   -3.8049 H   0  0  0  0  0  0  0  0  0  0  0  0
  1  2  1  0
  1 23  1  0
  1 24  1  0
  1 25  1  0
  2  3  1  0
  2 26  1  0
  2 27  1  0
  3  4  1  0
  3 28  1  0
  3 29  1  0
  4  5  1  0
  4 30  1  0
  4 31  1  0
  5  6  1  0
  6  7  2  0
  6  8  1  0
  8  9  1  0
  8 32  1  0
  8 33  1  0
 10  9  1  1
  9 34  1  0
  9 35  1  0
 10 11  1  0
 10 19  1  0
 10 22  1  0
 11 12  1  0
 11 36  1  0
 11 37  1  0
 12 13  1  0
 12 38  1  0
 12 39  1  0
 13 14  2  0
 13 15  1  0
 15 16  1  0
 16 17  1  0
 16 18  1  0
 16 40  1  6
 17 41  1  0
 17 42  1  0
 17 43  1  0
 18 44  1  0
 18 45  1  0
 18 46  1  0
 19 20  1  0
 20 21  1  0
 20 47  1  0
 20 48  1  0
 21 22  1  0
 21 49  1  0
 21 50  1  0
M  END

