
     RDKit          3D

 34 35  0  0  0  0  0  0  0  0999 V2000
    2.0877    3.0732   -1.2792 C   0  0  0  0  0  0  0  0  0  0  0  0
    3.3379    2.7866   -0.6538 O   0  0  0  0  0  0  0  0  0  0  0  0
    3.6900    1.4901   -0.6063 C   0  0  0  0  0  0  0  0  0  0  0  0
    3.0443    0.5999   -1.1084 O   0  0  0  0  0  0  0  0  0  0  0  0
    4.9893    1.2905    0.1058 C   0  0  0  0  0  0  0  0  0  0  0  0
    5.6000    0.0881    0.0540 C   0  0  0  0  0  0  0  0  0  0  0  0
    6.8647   -0.3695    0.6251 C   0  0  0  0  0  0  0  0  0  0  0  0
    7.1486   -1.7711    0.5521 C   0  0  0  0  0  0  0  0  0  0  0  0
    8.3102   -2.2964    1.0659 C   0  0  0  0  0  0  0  0  0  0  0  0
    9.2824   -1.4587    1.6818 C   0  0  0  0  0  0  0  0  0  0  0  0
   10.4971   -1.9629    2.2219 C   0  0  0  0  0  0  0  0  0  0  0  0
   11.4166   -1.1148    2.8044 C   0  0  0  0  0  0  0  0  0  0  0  0
   11.1627    0.2796    2.8723 C   0  0  0  0  0  0  0  0  0  0  0  0
    9.9940    0.7990    2.3579 C   0  0  0  0  0  0  0  0  0  0  0  0
    9.0215   -0.0486    1.7519 C   0  0  0  0  0  0  0  0  0  0  0  0
    7.8103    0.4633    1.2197 C   0  0  0  0  0  0  0  0  0  0  0  0
    5.5485    2.3907    0.7274 O   0  0  0  0  0  0  0  0  0  0  0  0
    4.8675    2.9554    1.7819 C   0  0  0  0  0  0  0  0  0  0  0  0
    5.5223    4.2464    2.1908 C   0  0  0  0  0  0  0  0  0  0  0  0
    3.8983    2.4530    2.2748 O   0  0  0  0  0  0  0  0  0  0  0  0
    1.9635    4.1619   -1.2303 H   0  0  0  0  0  0  0  0  0  0  0  0
    1.2647    2.5709   -0.7489 H   0  0  0  0  0  0  0  0  0  0  0  0
    2.0879    2.7340   -2.3260 H   0  0  0  0  0  0  0  0  0  0  0  0
    5.0330   -0.6548   -0.5132 H   0  0  0  0  0  0  0  0  0  0  0  0
    6.4157   -2.4304    0.0799 H   0  0  0  0  0  0  0  0  0  0  0  0
    8.5023   -3.3709    1.0030 H   0  0  0  0  0  0  0  0  0  0  0  0
   10.6921   -3.0374    2.1677 H   0  0  0  0  0  0  0  0  0  0  0  0
   12.3466   -1.5150    3.2161 H   0  0  0  0  0  0  0  0  0  0  0  0
   11.8996    0.9408    3.3351 H   0  0  0  0  0  0  0  0  0  0  0  0
    9.7965    1.8733    2.4083 H   0  0  0  0  0  0  0  0  0  0  0  0
    7.6314    1.5368    1.2680 H   0  0  0  0  0  0  0  0  0  0  0  0
    5.4651    4.9621    1.3561 H   0  0  0  0  0  0  0  0  0  0  0  0
    6.5883    4.0846    2.4113 H   0  0  0  0  0  0  0  0  0  0  0  0
    5.0120    4.6539    3.0714 H   0  0  0  0  0  0  0  0  0  0  0  0
  1  2  1  0
  1 21  1  0
  1 22  1  0
  1 23  1  0
  2  3  1  0
  3  4  2  0
  3  5  1  0
  5  6  2  0
  5 17  1  0
  6  7  1  0
  6 24  1  0
  7  8  2  0
  7 16  1  0
  8  9  1  0
  8 25  1  0
  9 10  2  0
  9 26  1  0
 10 11  1  0
 10 15  1  0
 11 12  2  0
 11 27  1  0
 12 13  1  0
 12 28  1  0
 13 14  2  0
 13 29  1  0
 14 15  1  0
 14 30  1  0
 15 16  2  0
 16 31  1  0
 17 18  1  0
 18 19  1  0
 18 20  2  0
 19 32  1  0
 19 33  1  0
 19 34  1  0
M  END

