
     RDKit          3D

 80 88  0  0  0  0  0  0  0  0999 V2000
    4.8150    2.2602   -1.6067 C   0  0  0  0  0  0  0  0  0  0  0  0
    3.8572    1.3425   -1.1288 O   0  0  0  0  0  0  0  0  0  0  0  0
    4.2596    0.1821   -0.5523 C   0  0  0  0  0  0  0  0  0  0  0  0
    5.6264   -0.1816   -0.3902 C   0  0  0  0  0  0  0  0  0  0  0  0
    5.9533   -1.3813    0.2082 C   0  0  0  0  0  0  0  0  0  0  0  0
    4.9529   -2.2756    0.6744 C   0  0  0  0  0  0  0  0  0  0  0  0
    5.2715   -3.5079    1.2986 C   0  0  0  0  0  0  0  0  0  0  0  0
    4.2821   -4.3818    1.7337 C   0  0  0  0  0  0  0  0  0  0  0  0
    4.6604   -5.6434    2.3865 C   0  0  0  0  0  0  0  0  0  0  0  0
    4.1182   -6.8578    2.1031 N   0  0  0  0  0  0  0  0  0  0  0  0
    4.7234   -7.8101    2.9128 C   0  0  0  0  0  0  0  0  0  0  0  0
    4.5285   -9.1138    2.7878 N   0  0  0  0  0  0  0  0  0  0  0  0
    3.7306   -9.5965    1.8600 C   0  0  0  0  0  0  0  0  0  0  0  0
    3.5148  -10.9919    1.5364 C   0  0  0  0  0  0  0  0  0  0  0  0
    4.0681  -12.1719    2.2137 C   0  0  0  0  0  0  0  0  0  0  0  0
    5.2333  -12.1067    3.0070 C   0  0  0  0  0  0  0  0  0  0  0  0
    5.7436  -13.2533    3.6172 C   0  0  0  0  0  0  0  0  0  0  0  0
    5.1075  -14.4879    3.4556 C   0  0  0  0  0  0  0  0  0  0  0  0
    3.9484  -14.5679    2.6761 C   0  0  0  0  0  0  0  0  0  0  0  0
    3.4358  -13.4256    2.0638 C   0  0  0  0  0  0  0  0  0  0  0  0
    2.6604  -10.9806    0.4424 C   0  0  0  0  0  0  0  0  0  0  0  0
    2.3394   -9.6308    0.1173 C   0  0  0  0  0  0  0  0  0  0  0  0
    1.4456   -9.2416   -0.9736 C   0  0  0  0  0  0  0  0  0  0  0  0
    1.3455  -10.1062   -2.1148 C   0  0  0  0  0  0  0  0  0  0  0  0
    0.5007   -9.8221   -3.1583 C   0  0  0  0  0  0  0  0  0  0  0  0
   -0.3262   -8.6587   -3.1408 C   0  0  0  0  0  0  0  0  0  0  0  0
   -1.2113   -8.3373   -4.1925 C   0  0  0  0  0  0  0  0  0  0  0  0
   -2.0027   -7.1959   -4.1359 C   0  0  0  0  0  0  0  0  0  0  0  0
   -2.8207   -6.9716   -5.1924 O   0  0  0  0  0  0  0  0  0  0  0  0
   -3.6515   -5.8313   -5.2125 C   0  0  0  0  0  0  0  0  0  0  0  0
   -1.9254   -6.3346   -3.0048 C   0  0  0  0  0  0  0  0  0  0  0  0
   -1.0654   -6.6343   -1.9688 C   0  0  0  0  0  0  0  0  0  0  0  0
   -0.2415   -7.7922   -1.9984 C   0  0  0  0  0  0  0  0  0  0  0  0
    0.6458   -8.1024   -0.9392 C   0  0  0  0  0  0  0  0  0  0  0  0
    2.9907   -8.8031    0.9793 N   0  0  0  0  0  0  0  0  0  0  0  0
    2.9810   -7.2342    1.0828 B   0  0  1  0  0  0  0  0  0  0  0  0
    1.7486   -6.8317    1.6234 F   0  0  0  0  0  0  0  0  0  0  0  0
    3.2131   -6.6525   -0.1409 F   0  0  0  0  0  0  0  0  0  0  0  0
    5.6741   -7.1740    3.7832 C   0  0  0  0  0  0  0  0  0  0  0  0
    6.4822   -7.8635    4.7990 C   0  0  0  0  0  0  0  0  0  0  0  0
    5.9187   -8.8940    5.5802 C   0  0  0  0  0  0  0  0  0  0  0  0
    6.6817   -9.5588    6.5410 C   0  0  0  0  0  0  0  0  0  0  0  0
    8.0228   -9.2154    6.7388 C   0  0  0  0  0  0  0  0  0  0  0  0
    8.5962   -8.2002    5.9665 C   0  0  0  0  0  0  0  0  0  0  0  0
    7.8354   -7.5289    5.0089 C   0  0  0  0  0  0  0  0  0  0  0  0
    5.6328   -5.8247    3.4207 C   0  0  0  0  0  0  0  0  0  0  0  0
    6.5462   -4.4154    4.2873 Br  0  0  0  0  0  0  0  0  0  0  0  0
    2.9116   -4.0119    1.5508 C   0  0  0  0  0  0  0  0  0  0  0  0
    2.5771   -2.8147    0.9663 C   0  0  0  0  0  0  0  0  0  0  0  0
    3.5754   -1.9067    0.5046 C   0  0  0  0  0  0  0  0  0  0  0  0
    3.2594   -0.6732   -0.1085 C   0  0  0  0  0  0  0  0  0  0  0  0
    4.2532    3.1068   -2.0240 H   0  0  0  0  0  0  0  0  0  0  0  0
    5.4444    1.8248   -2.4037 H   0  0  0  0  0  0  0  0  0  0  0  0
    5.4705    2.6332   -0.7992 H   0  0  0  0  0  0  0  0  0  0  0  0
    6.4215    0.4795   -0.7349 H   0  0  0  0  0  0  0  0  0  0  0  0
    7.0048   -1.6547    0.3306 H   0  0  0  0  0  0  0  0  0  0  0  0
    6.3239   -3.7730    1.4131 H   0  0  0  0  0  0  0  0  0  0  0  0
    5.7344  -11.1489    3.1388 H   0  0  0  0  0  0  0  0  0  0  0  0
    6.6501  -13.1792    4.2233 H   0  0  0  0  0  0  0  0  0  0  0  0
    5.5106  -15.3833    3.9357 H   0  0  0  0  0  0  0  0  0  0  0  0
    3.4369  -15.5256    2.5498 H   0  0  0  0  0  0  0  0  0  0  0  0
    2.5178  -13.5011    1.4775 H   0  0  0  0  0  0  0  0  0  0  0  0
    2.2734  -11.8459   -0.0881 H   0  0  0  0  0  0  0  0  0  0  0  0
    1.9807  -10.9920   -2.1697 H   0  0  0  0  0  0  0  0  0  0  0  0
    0.4575  -10.4875   -4.0244 H   0  0  0  0  0  0  0  0  0  0  0  0
   -1.2882   -8.9829   -5.0699 H   0  0  0  0  0  0  0  0  0  0  0  0
   -4.2081   -5.8698   -6.1585 H   0  0  0  0  0  0  0  0  0  0  0  0
   -3.0675   -4.8941   -5.1816 H   0  0  0  0  0  0  0  0  0  0  0  0
   -4.3727   -5.8306   -4.3756 H   0  0  0  0  0  0  0  0  0  0  0  0
   -2.5395   -5.4359   -2.9489 H   0  0  0  0  0  0  0  0  0  0  0  0
   -1.0057   -5.9690   -1.1036 H   0  0  0  0  0  0  0  0  0  0  0  0
    0.6726   -7.4413   -0.0746 H   0  0  0  0  0  0  0  0  0  0  0  0
    4.8727   -9.1647    5.4348 H   0  0  0  0  0  0  0  0  0  0  0  0
    6.2230  -10.3482    7.1419 H   0  0  0  0  0  0  0  0  0  0  0  0
    8.6190   -9.7366    7.4922 H   0  0  0  0  0  0  0  0  0  0  0  0
    9.6459   -7.9304    6.1079 H   0  0  0  0  0  0  0  0  0  0  0  0
    8.2974   -6.7481    4.4036 H   0  0  0  0  0  0  0  0  0  0  0  0
    2.1298   -4.6911    1.8870 H   0  0  0  0  0  0  0  0  0  0  0  0
    1.5248   -2.5437    0.8471 H   0  0  0  0  0  0  0  0  0  0  0  0
    2.2180   -0.3742   -0.2448 H   0  0  0  0  0  0  0  0  0  0  0  0
  1  2  1  0
  1 52  1  0
  1 53  1  0
  1 54  1  0
  2  3  1  0
  3  4  2  0
  3 51  1  0
  4  5  1  0
  4 55  1  0
  5  6  2  0
  5 56  1  0
  6  7  1  0
  6 50  1  0
  7  8  2  0
  7 57  1  0
  8  9  1  0
  8 48  1  0
  9 10  1  0
  9 46  2  0
 10 11  1  0
 10 36  1  0
 11 12  1  0
 11 39  2  0
 12 13  2  0
 13 14  1  0
 13 35  1  0
 14 15  1  0
 14 21  2  0
 15 16  2  0
 15 20  1  0
 16 17  1  0
 16 58  1  0
 17 18  2  0
 17 59  1  0
 18 19  1  0
 18 60  1  0
 19 20  2  0
 19 61  1  0
 20 62  1  0
 21 22  1  0
 21 63  1  0
 22 23  1  0
 22 35  2  0
 23 24  2  0
 23 34  1  0
 24 25  1  0
 24 64  1  0
 25 26  2  0
 25 65  1  0
 26 27  1  0
 26 33  1  0
 27 28  2  0
 27 66  1  0
 28 29  1  0
 28 31  1  0
 29 30  1  0
 30 67  1  0
 30 68  1  0
 30 69  1  0
 31 32  2  0
 31 70  1  0
 32 33  1  0
 32 71  1  0
 33 34  2  0
 34 72  1  0
 35 36  1  0
 36 37  1  1
 36 38  1  0
 39 40  1  0
 39 46  1  0
 40 41  2  0
 40 45  1  0
 41 42  1  0
 41 73  1  0
 42 43  2  0
 42 74  1  0
 43 44  1  0
 43 75  1  0
 44 45  2  0
 44 76  1  0
 45 77  1  0
 46 47  1  0
 48 49  2  0
 48 78  1  0
 49 50  1  0
 49 79  1  0
 50 51  2  0
 51 80  1  0
M  CHG  2  35   1  36  -1
M  END

