
     RDKit          3D

 47 48  0  0  0  0  0  0  0  0999 V2000
    1.6834    0.1964    1.1703 C   0  0  0  0  0  0  0  0  0  0  0  0
    2.0905   -1.1540    1.7094 C   0  0  0  0  0  0  0  0  0  0  0  0
    1.4544   -1.7107    2.8243 C   0  0  0  0  0  0  0  0  0  0  0  0
    1.8279   -2.9668    3.3323 C   0  0  0  0  0  0  0  0  0  0  0  0
    1.1411   -3.5539    4.5424 C   0  0  0  0  0  0  0  0  0  0  0  0
    2.8588   -3.6671    2.6999 C   0  0  0  0  0  0  0  0  0  0  0  0
    3.5048   -3.1218    1.5823 C   0  0  0  0  0  0  0  0  0  0  0  0
    4.5016   -3.8862    1.0334 O   0  0  0  0  0  0  0  0  0  0  0  0
    5.2135   -3.4185   -0.0894 C   0  0  0  0  0  0  0  0  0  0  0  0
    6.2817   -4.4238   -0.5250 C   0  0  0  0  0  0  0  0  0  0  0  0
    6.9852   -4.1720   -1.4839 O   0  0  0  0  0  0  0  0  0  0  0  0
    6.3382   -5.5550    0.2451 N   0  0  0  0  0  0  0  0  0  0  0  0
    7.1892   -6.6604    0.1241 C   0  0  0  0  0  0  0  0  0  0  0  0
    7.0350   -7.7067    1.0566 C   0  0  0  0  0  0  0  0  0  0  0  0
    7.8434   -8.8356    1.0000 C   0  0  0  0  0  0  0  0  0  0  0  0
    8.8160   -8.9275   -0.0016 C   0  0  0  0  0  0  0  0  0  0  0  0
    9.8580  -10.3764   -0.0935 S   0  0  1  0  0  0  0  0  0  0  0  0
   11.0039  -10.0440   -0.9394 O   0  0  0  0  0  0  0  0  0  0  0  0
   10.0007  -10.9134    1.2630 O   0  0  0  0  0  0  0  0  0  0  0  0
    8.9673  -11.5178   -0.9562 N   0  0  0  0  0  0  0  0  0  0  0  0
    8.4007  -12.6909   -0.3415 C   0  0  0  0  0  0  0  0  0  0  0  0
    6.8804  -12.7031   -0.3895 C   0  0  1  0  0  0  0  0  0  0  0  0
    6.4230  -12.6480   -1.6513 F   0  0  0  0  0  0  0  0  0  0  0  0
    6.4086  -13.8305    0.1683 F   0  0  0  0  0  0  0  0  0  0  0  0
    6.3522  -11.6630    0.2777 F   0  0  0  0  0  0  0  0  0  0  0  0
    8.9894   -7.8952   -0.9268 C   0  0  0  0  0  0  0  0  0  0  0  0
    8.1798   -6.7613   -0.8717 C   0  0  0  0  0  0  0  0  0  0  0  0
    3.1263   -1.8706    1.0847 C   0  0  0  0  0  0  0  0  0  0  0  0
    0.8583    0.6320    1.7521 H   0  0  0  0  0  0  0  0  0  0  0  0
    1.3550    0.1256    0.1199 H   0  0  0  0  0  0  0  0  0  0  0  0
    2.5260    0.9077    1.1958 H   0  0  0  0  0  0  0  0  0  0  0  0
    0.6477   -1.1561    3.3117 H   0  0  0  0  0  0  0  0  0  0  0  0
    0.2965   -2.9307    4.8701 H   0  0  0  0  0  0  0  0  0  0  0  0
    1.8396   -3.6453    5.3913 H   0  0  0  0  0  0  0  0  0  0  0  0
    0.7553   -4.5651    4.3333 H   0  0  0  0  0  0  0  0  0  0  0  0
    3.1775   -4.6472    3.0632 H   0  0  0  0  0  0  0  0  0  0  0  0
    5.7300   -2.4643    0.1207 H   0  0  0  0  0  0  0  0  0  0  0  0
    4.5489   -3.2521   -0.9566 H   0  0  0  0  0  0  0  0  0  0  0  0
    5.6611   -5.5764    1.0028 H   0  0  0  0  0  0  0  0  0  0  0  0
    6.2732   -7.6269    1.8370 H   0  0  0  0  0  0  0  0  0  0  0  0
    7.7271   -9.6380    1.7292 H   0  0  0  0  0  0  0  0  0  0  0  0
    9.2129  -11.5437   -1.9410 H   0  0  0  0  0  0  0  0  0  0  0  0
    8.7091  -12.7329    0.7135 H   0  0  0  0  0  0  0  0  0  0  0  0
    8.7551  -13.6142   -0.8284 H   0  0  0  0  0  0  0  0  0  0  0  0
    9.7720   -7.9760   -1.6832 H   0  0  0  0  0  0  0  0  0  0  0  0
    8.3053   -5.9488   -1.5836 H   0  0  0  0  0  0  0  0  0  0  0  0
    3.6217   -1.4379    0.2146 H   0  0  0  0  0  0  0  0  0  0  0  0
  1  2  1  0
  1 29  1  0
  1 30  1  0
  1 31  1  0
  2  3  2  0
  2 28  1  0
  3  4  1  0
  3 32  1  0
  4  5  1  0
  4  6  2  0
  5 33  1  0
  5 34  1  0
  5 35  1  0
  6  7  1  0
  6 36  1  0
  7  8  1  0
  7 28  2  0
  8  9  1  0
  9 10  1  0
  9 37  1  0
  9 38  1  0
 10 11  2  0
 10 12  1  0
 12 13  1  0
 12 39  1  0
 13 14  2  0
 13 27  1  0
 14 15  1  0
 14 40  1  0
 15 16  2  0
 15 41  1  0
 16 17  1  0
 16 26  1  0
 17 18  2  0
 17 19  2  0
 17 20  1  6
 20 21  1  0
 20 42  1  0
 21 22  1  0
 21 43  1  0
 21 44  1  0
 22 23  1  6
 22 24  1  0
 22 25  1  0
 26 27  2  0
 26 45  1  0
 27 46  1  0
 28 47  1  0
M  END

