
     RDKit          3D

 50 50  0  0  0  0  0  0  0  0999 V2000
    2.6729    0.5519    2.4511 C   0  0  0  0  0  0  0  0  0  0  0  0
    3.5649    0.2936    1.2371 C   0  0  0  0  0  0  0  0  0  0  0  0
    3.8145    1.5495    0.4154 C   0  0  0  0  0  0  0  0  0  0  0  0
    4.6457    1.2066   -0.6799 O   0  0  0  0  0  0  0  0  0  0  0  0
    5.0192    2.1619   -1.5691 C   0  0  0  0  0  0  0  0  0  0  0  0
    4.6404    3.5075   -1.4999 C   0  0  0  0  0  0  0  0  0  0  0  0
    5.0927    4.3948   -2.4894 C   0  0  0  0  0  0  0  0  0  0  0  0
    5.9099    3.9884   -3.5418 C   0  0  0  0  0  0  0  0  0  0  0  0
    6.3790    4.9053   -4.6561 C   0  0  0  0  0  0  0  0  0  0  0  0
    5.8199    4.5962   -5.9804 N   0  0  0  0  0  0  0  0  0  0  0  0
    4.4783    5.1221   -6.2588 C   0  0  1  0  0  0  0  0  0  0  0  0
    4.5386    6.6164   -6.5932 C   0  0  0  0  0  0  0  0  0  0  0  0
    3.8690    4.3284   -7.4158 C   0  0  0  0  0  0  0  0  0  0  0  0
    6.2890    2.6235   -3.5802 C   0  0  0  0  0  0  0  0  0  0  0  0
    7.1059    2.2819   -4.6173 O   0  0  0  0  0  0  0  0  0  0  0  0
    7.2412    0.9342   -5.0356 C   0  0  0  0  0  0  0  0  0  0  0  0
    7.9818    0.9526   -6.3761 C   0  0  1  0  0  0  0  0  0  0  0  0
    7.2738    1.7328   -7.3233 O   0  0  0  0  0  0  0  0  0  0  0  0
    9.4485    1.3872   -6.2436 C   0  0  0  0  0  0  0  0  0  0  0  0
   10.2097    1.3523   -7.5682 C   0  0  0  0  0  0  0  0  0  0  0  0
    5.8487    1.7185   -2.6180 C   0  0  0  0  0  0  0  0  0  0  0  0
    2.5097   -0.3726    3.0260 H   0  0  0  0  0  0  0  0  0  0  0  0
    1.6825    0.9348    2.1529 H   0  0  0  0  0  0  0  0  0  0  0  0
    3.1221    1.2914    3.1349 H   0  0  0  0  0  0  0  0  0  0  0  0
    3.1106   -0.4673    0.5802 H   0  0  0  0  0  0  0  0  0  0  0  0
    4.5397   -0.1135    1.5550 H   0  0  0  0  0  0  0  0  0  0  0  0
    4.3011    2.3278    1.0348 H   0  0  0  0  0  0  0  0  0  0  0  0
    2.8575    1.9710    0.0510 H   0  0  0  0  0  0  0  0  0  0  0  0
    4.0000    3.8760   -0.6995 H   0  0  0  0  0  0  0  0  0  0  0  0
    4.7891    5.4444   -2.4322 H   0  0  0  0  0  0  0  0  0  0  0  0
    7.4789    4.8542   -4.7242 H   0  0  0  0  0  0  0  0  0  0  0  0
    6.1359    5.9473   -4.4008 H   0  0  0  0  0  0  0  0  0  0  0  0
    5.8001    3.5834   -6.0829 H   0  0  0  0  0  0  0  0  0  0  0  0
    3.8101    4.9963   -5.3770 H   0  0  0  0  0  0  0  0  0  0  0  0
    5.1588    6.7810   -7.4892 H   0  0  0  0  0  0  0  0  0  0  0  0
    4.9753    7.2051   -5.7710 H   0  0  0  0  0  0  0  0  0  0  0  0
    3.5295    7.0166   -6.7833 H   0  0  0  0  0  0  0  0  0  0  0  0
    4.5021    4.4116   -8.3147 H   0  0  0  0  0  0  0  0  0  0  0  0
    2.8634    4.7009   -7.6650 H   0  0  0  0  0  0  0  0  0  0  0  0
    3.7795    3.2586   -7.1640 H   0  0  0  0  0  0  0  0  0  0  0  0
    6.2413    0.4830   -5.1648 H   0  0  0  0  0  0  0  0  0  0  0  0
    7.7998    0.3392   -4.2894 H   0  0  0  0  0  0  0  0  0  0  0  0
    7.9553   -0.0809   -6.7661 H   0  0  0  0  0  0  0  0  0  0  0  0
    7.3418    2.6634   -7.0582 H   0  0  0  0  0  0  0  0  0  0  0  0
    9.9427    0.7331   -5.5036 H   0  0  0  0  0  0  0  0  0  0  0  0
    9.4730    2.4044   -5.8138 H   0  0  0  0  0  0  0  0  0  0  0  0
   10.2554    0.3284   -7.9759 H   0  0  0  0  0  0  0  0  0  0  0  0
   11.2437    1.7107   -7.4451 H   0  0  0  0  0  0  0  0  0  0  0  0
    9.7138    1.9829   -8.3211 H   0  0  0  0  0  0  0  0  0  0  0  0
    6.1329    0.6668   -2.6363 H   0  0  0  0  0  0  0  0  0  0  0  0
  1  2  1  0
  1 22  1  0
  1 23  1  0
  1 24  1  0
  2  3  1  0
  2 25  1  0
  2 26  1  0
  3  4  1  0
  3 27  1  0
  3 28  1  0
  4  5  1  0
  5  6  2  0
  5 21  1  0
  6  7  1  0
  6 29  1  0
  7  8  2  0
  7 30  1  0
  8  9  1  0
  8 14  1  0
  9 10  1  0
  9 31  1  0
  9 32  1  0
 10 11  1  0
 10 33  1  0
 11 12  1  0
 11 13  1  0
 11 34  1  1
 12 35  1  0
 12 36  1  0
 12 37  1  0
 13 38  1  0
 13 39  1  0
 13 40  1  0
 14 15  1  0
 14 21  2  0
 15 16  1  0
 16 17  1  0
 16 41  1  0
 16 42  1  0
 17 18  1  0
 17 19  1  0
 17 43  1  6
 18 44  1  0
 19 20  1  0
 19 45  1  0
 19 46  1  0
 20 47  1  0
 20 48  1  0
 20 49  1  0
 21 50  1  0
M  END

