
     RDKit          3D

 43 44  0  0  0  0  0  0  0  0999 V2000
    2.7357    2.7158    5.0968 C   0  0  0  0  0  0  0  0  0  0  0  0
    2.5105    1.9283    3.8018 C   0  0  1  0  0  0  0  0  0  0  0  0
    1.0174    1.7094    3.5326 C   0  0  0  0  0  0  0  0  0  0  0  0
    3.1663    2.5927    2.5744 C   0  0  0  0  0  0  0  0  0  0  0  0
    4.6151    2.7861    2.6658 N   0  0  0  0  0  0  0  0  0  0  0  0
    5.1236    4.1011    3.0109 C   0  0  0  0  0  0  0  0  0  0  0  0
    5.4067    1.6993    2.3443 C   0  0  0  0  0  0  0  0  0  0  0  0
    4.8472    0.6107    2.1063 O   0  0  0  0  0  0  0  0  0  0  0  0
    6.8626    1.7772    2.2718 C   0  0  0  0  0  0  0  0  0  0  0  0
    7.9610    3.1773    2.4182 S   0  0  0  0  0  0  0  0  0  0  0  0
    9.3192    2.1181    2.0534 C   0  0  0  0  0  0  0  0  0  0  0  0
   10.5919    2.5961    1.9694 N   0  0  0  0  0  0  0  0  0  0  0  0
   11.7130    1.6566    1.9114 C   0  0  0  0  0  0  0  0  0  0  0  0
   12.8342    2.2256    1.0468 C   0  0  0  0  0  0  0  0  0  0  0  0
   13.2000    3.5481    1.5358 N   0  0  0  0  0  0  0  0  0  0  0  0
   12.0813    4.4736    1.4565 C   0  0  0  0  0  0  0  0  0  0  0  0
   10.9327    3.9660    2.3292 C   0  0  0  0  0  0  0  0  0  0  0  0
    9.0061    0.8606    1.8689 N   0  0  0  0  0  0  0  0  0  0  0  0
    7.6586    0.6523    1.9730 C   0  0  0  0  0  0  0  0  0  0  0  0
    7.1844   -0.5973    1.7928 N   0  0  0  0  0  0  0  0  0  0  0  0
    2.2833    2.1967    5.9576 H   0  0  0  0  0  0  0  0  0  0  0  0
    2.2794    3.7207    5.0427 H   0  0  0  0  0  0  0  0  0  0  0  0
    3.8078    2.8401    5.3157 H   0  0  0  0  0  0  0  0  0  0  0  0
    2.9897    0.9407    3.9064 H   0  0  0  0  0  0  0  0  0  0  0  0
    0.4898    2.6700    3.3936 H   0  0  0  0  0  0  0  0  0  0  0  0
    0.5334    1.1866    4.3732 H   0  0  0  0  0  0  0  0  0  0  0  0
    0.8549    1.1049    2.6254 H   0  0  0  0  0  0  0  0  0  0  0  0
    2.7065    3.5803    2.3975 H   0  0  0  0  0  0  0  0  0  0  0  0
    2.9600    1.9665    1.6943 H   0  0  0  0  0  0  0  0  0  0  0  0
    4.3009    4.7098    3.4074 H   0  0  0  0  0  0  0  0  0  0  0  0
    5.5489    4.6406    2.1444 H   0  0  0  0  0  0  0  0  0  0  0  0
    5.8910    4.0513    3.7991 H   0  0  0  0  0  0  0  0  0  0  0  0
   11.3383    0.7068    1.5119 H   0  0  0  0  0  0  0  0  0  0  0  0
   12.0974    1.4751    2.9342 H   0  0  0  0  0  0  0  0  0  0  0  0
   12.4941    2.2360   -0.0137 H   0  0  0  0  0  0  0  0  0  0  0  0
   13.7080    1.5575    1.1097 H   0  0  0  0  0  0  0  0  0  0  0  0
   14.0074    3.9121    1.0345 H   0  0  0  0  0  0  0  0  0  0  0  0
   11.6979    4.6033    0.4185 H   0  0  0  0  0  0  0  0  0  0  0  0
   12.3959    5.4644    1.8216 H   0  0  0  0  0  0  0  0  0  0  0  0
   10.0526    4.6095    2.1852 H   0  0  0  0  0  0  0  0  0  0  0  0
   11.2281    4.0214    3.3956 H   0  0  0  0  0  0  0  0  0  0  0  0
    7.8213   -1.3140    1.4758 H   0  0  0  0  0  0  0  0  0  0  0  0
    6.1686   -0.6882    1.7806 H   0  0  0  0  0  0  0  0  0  0  0  0
  1  2  1  0
  1 21  1  0
  1 22  1  0
  1 23  1  0
  2  3  1  0
  2  4  1  0
  2 24  1  1
  3 25  1  0
  3 26  1  0
  3 27  1  0
  4  5  1  0
  4 28  1  0
  4 29  1  0
  5  6  1  0
  5  7  1  0
  6 30  1  0
  6 31  1  0
  6 32  1  0
  7  8  2  0
  7  9  1  0
  9 10  1  0
  9 19  2  0
 10 11  1  0
 11 12  1  0
 11 18  2  0
 12 13  1  0
 12 17  1  0
 13 14  1  0
 13 33  1  0
 13 34  1  0
 14 15  1  0
 14 35  1  0
 14 36  1  0
 15 16  1  0
 15 37  1  0
 16 17  1  0
 16 38  1  0
 16 39  1  0
 17 40  1  0
 17 41  1  0
 18 19  1  0
 19 20  1  0
 20 42  1  0
 20 43  1  0
M  END

