
     RDKit          3D

 49 51  0  0  0  0  0  0  0  0999 V2000
    3.0825   -1.2469    0.5075 C   0  0  0  0  0  0  0  0  0  0  0  0
    3.1667   -0.0978    1.3261 O   0  0  0  0  0  0  0  0  0  0  0  0
    3.6252    1.0607    0.7993 C   0  0  0  0  0  0  0  0  0  0  0  0
    3.9851    1.2391   -0.5466 C   0  0  0  0  0  0  0  0  0  0  0  0
    4.4590    2.4800   -0.9826 C   0  0  0  0  0  0  0  0  0  0  0  0
    4.5932    3.5701   -0.1069 C   0  0  0  0  0  0  0  0  0  0  0  0
    5.0904    4.8992   -0.5551 C   0  0  0  0  0  0  0  0  0  0  0  0
    4.4266    6.0663   -0.1650 C   0  0  0  0  0  0  0  0  0  0  0  0
    4.9036    7.3229   -0.5443 C   0  0  0  0  0  0  0  0  0  0  0  0
    4.1718    8.5266   -0.1180 N   0  0  0  0  0  0  0  0  0  0  0  0
    3.1721    8.3703    0.5667 O   0  0  0  0  0  0  0  0  0  0  0  0
    4.6097    9.6103   -0.4738 O   0  0  0  0  0  0  0  0  0  0  0  0
    6.0513    7.4621   -1.3197 C   0  0  0  0  0  0  0  0  0  0  0  0
    6.7338    6.3140   -1.7171 C   0  0  0  0  0  0  0  0  0  0  0  0
    6.2662    5.0429   -1.3453 C   0  0  0  0  0  0  0  0  0  0  0  0
    6.9023    3.8994   -1.6935 O   0  0  0  0  0  0  0  0  0  0  0  0
    8.1294    3.9213   -2.3972 C   0  0  0  0  0  0  0  0  0  0  0  0
    8.6325    2.4995   -2.6542 C   0  0  0  0  0  0  0  0  0  0  0  0
    9.7050    2.3398   -3.2129 O   0  0  0  0  0  0  0  0  0  0  0  0
    7.8042    1.5024   -2.2560 N   0  0  0  0  0  0  0  0  0  0  0  0
    8.1520    0.0983   -2.4221 C   0  0  0  0  0  0  0  0  0  0  0  0
    8.6485   -0.5563   -1.1487 C   0  0  0  0  0  0  0  0  0  0  0  0
    9.9916   -0.4725   -0.7494 C   0  0  0  0  0  0  0  0  0  0  0  0
   10.4296   -1.0610    0.4396 C   0  0  0  0  0  0  0  0  0  0  0  0
    9.5237   -1.7472    1.2555 C   0  0  0  0  0  0  0  0  0  0  0  0
    8.1800   -1.8433    0.8843 C   0  0  0  0  0  0  0  0  0  0  0  0
    7.7723   -1.2448   -0.3039 C   0  0  0  0  0  0  0  0  0  0  0  0
    6.4691   -1.3335   -0.6608 F   0  0  0  0  0  0  0  0  0  0  0  0
    4.2125    3.3737    1.2365 C   0  0  0  0  0  0  0  0  0  0  0  0
    3.7377    2.1470    1.6846 C   0  0  0  0  0  0  0  0  0  0  0  0
    2.7107   -2.0576    1.1482 H   0  0  0  0  0  0  0  0  0  0  0  0
    4.0693   -1.5276    0.1019 H   0  0  0  0  0  0  0  0  0  0  0  0
    2.3747   -1.1032   -0.3287 H   0  0  0  0  0  0  0  0  0  0  0  0
    3.8996    0.4214   -1.2621 H   0  0  0  0  0  0  0  0  0  0  0  0
    4.7163    2.6015   -2.0364 H   0  0  0  0  0  0  0  0  0  0  0  0
    3.5170    6.0117    0.4321 H   0  0  0  0  0  0  0  0  0  0  0  0
    6.3952    8.4571   -1.6001 H   0  0  0  0  0  0  0  0  0  0  0  0
    7.6384    6.4161   -2.3157 H   0  0  0  0  0  0  0  0  0  0  0  0
    8.9096    4.4585   -1.8303 H   0  0  0  0  0  0  0  0  0  0  0  0
    8.0250    4.4145   -3.3799 H   0  0  0  0  0  0  0  0  0  0  0  0
    6.9845    1.7516   -1.7108 H   0  0  0  0  0  0  0  0  0  0  0  0
    8.9387    0.0612   -3.1872 H   0  0  0  0  0  0  0  0  0  0  0  0
    7.2729   -0.4420   -2.8023 H   0  0  0  0  0  0  0  0  0  0  0  0
   10.6929    0.0686   -1.3902 H   0  0  0  0  0  0  0  0  0  0  0  0
   11.4801   -0.9861    0.7296 H   0  0  0  0  0  0  0  0  0  0  0  0
    9.8609   -2.2109    2.1856 H   0  0  0  0  0  0  0  0  0  0  0  0
    7.4474   -2.3698    1.4990 H   0  0  0  0  0  0  0  0  0  0  0  0
    4.3121    4.1958    1.9495 H   0  0  0  0  0  0  0  0  0  0  0  0
    3.4561    1.9965    2.7287 H   0  0  0  0  0  0  0  0  0  0  0  0
  1  2  1  0
  1 31  1  0
  1 32  1  0
  1 33  1  0
  2  3  1  0
  3  4  2  0
  3 30  1  0
  4  5  1  0
  4 34  1  0
  5  6  2  0
  5 35  1  0
  6  7  1  0
  6 29  1  0
  7  8  2  0
  7 15  1  0
  8  9  1  0
  8 36  1  0
  9 10  1  0
  9 13  2  0
 10 11  2  0
 10 12  1  0
 13 14  1  0
 13 37  1  0
 14 15  2  0
 14 38  1  0
 15 16  1  0
 16 17  1  0
 17 18  1  0
 17 39  1  0
 17 40  1  0
 18 19  2  0
 18 20  1  0
 20 21  1  0
 20 41  1  0
 21 22  1  0
 21 42  1  0
 21 43  1  0
 22 23  2  0
 22 27  1  0
 23 24  1  0
 23 44  1  0
 24 25  2  0
 24 45  1  0
 25 26  1  0
 25 46  1  0
 26 27  2  0
 26 47  1  0
 27 28  1  0
 29 30  2  0
 29 48  1  0
 30 49  1  0
M  CHG  2  10   1  12  -1
M  END

