
     RDKit          3D

 52 55  0  0  0  0  0  0  0  0999 V2000
    0.5450   -1.7013   -0.2136 C   0  0  0  0  0  0  0  0  0  0  0  0
    2.0236   -2.0041   -0.2370 C   0  0  0  0  0  0  0  0  0  0  0  0
    2.4957   -3.2195    0.3219 C   0  0  0  0  0  0  0  0  0  0  0  0
    3.8518   -3.5266    0.3123 C   0  0  0  0  0  0  0  0  0  0  0  0
    4.3334   -4.7056    0.8202 N   0  0  0  0  0  0  0  0  0  0  0  0
    4.7436   -2.5665   -0.2909 C   0  0  0  0  0  0  0  0  0  0  0  0
    6.1425   -2.7766   -0.3816 C   0  0  0  0  0  0  0  0  0  0  0  0
    6.9635   -1.8142   -0.9550 C   0  0  0  0  0  0  0  0  0  0  0  0
    8.3617   -1.9468   -1.0711 N   0  0  0  0  0  0  0  0  0  0  0  0
    9.1678   -2.9777   -0.6517 C   0  0  0  0  0  0  0  0  0  0  0  0
    8.7442   -4.0011   -0.1326 O   0  0  0  0  0  0  0  0  0  0  0  0
   10.6430   -2.7799   -0.8935 C   0  0  0  0  0  0  0  0  0  0  0  0
   11.2525   -1.5278   -1.0636 C   0  0  0  0  0  0  0  0  0  0  0  0
   12.6336   -1.4400   -1.2646 C   0  0  0  0  0  0  0  0  0  0  0  0
   13.4167   -2.5943   -1.2959 C   0  0  0  0  0  0  0  0  0  0  0  0
   12.8243   -3.8573   -1.1142 C   0  0  0  0  0  0  0  0  0  0  0  0
   13.6749   -5.1150   -1.1536 C   0  0  0  0  0  0  0  0  0  0  0  0
   14.1366   -5.4776   -2.4880 N   0  0  0  0  0  0  0  0  0  0  0  0
   15.3514   -5.0759   -2.9681 C   0  0  0  0  0  0  0  0  0  0  0  0
   16.1275   -4.3925   -2.3131 O   0  0  0  0  0  0  0  0  0  0  0  0
   15.6974   -5.5245   -4.3632 C   0  0  0  0  0  0  0  0  0  0  0  0
   16.7205   -4.8457   -5.0401 C   0  0  0  0  0  0  0  0  0  0  0  0
   17.0622   -5.2509   -6.3276 C   0  0  0  0  0  0  0  0  0  0  0  0
   16.3744   -6.3326   -6.8909 C   0  0  0  0  0  0  0  0  0  0  0  0
   15.4164   -7.0062   -6.2501 N   0  0  0  0  0  0  0  0  0  0  0  0
   15.0939   -6.6103   -5.0182 C   0  0  0  0  0  0  0  0  0  0  0  0
   11.4447   -3.9331   -0.9064 C   0  0  0  0  0  0  0  0  0  0  0  0
    6.3844   -0.6167   -1.4619 C   0  0  0  0  0  0  0  0  0  0  0  0
    5.0268   -0.4067   -1.3942 C   0  0  0  0  0  0  0  0  0  0  0  0
    4.1572   -1.3702   -0.8103 C   0  0  0  0  0  0  0  0  0  0  0  0
    2.8232   -1.1043   -0.7804 N   0  0  0  0  0  0  0  0  0  0  0  0
    0.1562   -1.6893    0.8186 H   0  0  0  0  0  0  0  0  0  0  0  0
   -0.0265   -2.4666   -0.7656 H   0  0  0  0  0  0  0  0  0  0  0  0
    0.3642   -0.7214   -0.6739 H   0  0  0  0  0  0  0  0  0  0  0  0
    1.7835   -3.9193    0.7684 H   0  0  0  0  0  0  0  0  0  0  0  0
    3.7119   -5.2661    1.3885 H   0  0  0  0  0  0  0  0  0  0  0  0
    5.3137   -4.7739    1.0595 H   0  0  0  0  0  0  0  0  0  0  0  0
    6.6055   -3.6929   -0.0256 H   0  0  0  0  0  0  0  0  0  0  0  0
    8.8190   -1.1975   -1.5749 H   0  0  0  0  0  0  0  0  0  0  0  0
   10.6686   -0.6053   -1.0048 H   0  0  0  0  0  0  0  0  0  0  0  0
   13.1026   -0.4601   -1.3834 H   0  0  0  0  0  0  0  0  0  0  0  0
   14.4964   -2.5306   -1.4526 H   0  0  0  0  0  0  0  0  0  0  0  0
   13.1065   -5.9619   -0.7390 H   0  0  0  0  0  0  0  0  0  0  0  0
   14.5763   -4.9763   -0.5405 H   0  0  0  0  0  0  0  0  0  0  0  0
   13.4599   -5.8641   -3.1346 H   0  0  0  0  0  0  0  0  0  0  0  0
   17.2242   -4.0181   -4.5361 H   0  0  0  0  0  0  0  0  0  0  0  0
   17.8485   -4.7431   -6.8907 H   0  0  0  0  0  0  0  0  0  0  0  0
   16.6152   -6.6723   -7.9053 H   0  0  0  0  0  0  0  0  0  0  0  0
   14.3269   -7.2101   -4.5127 H   0  0  0  0  0  0  0  0  0  0  0  0
   10.9535   -4.8948   -0.7397 H   0  0  0  0  0  0  0  0  0  0  0  0
    7.0311    0.1427   -1.9130 H   0  0  0  0  0  0  0  0  0  0  0  0
    4.5721    0.5054   -1.7853 H   0  0  0  0  0  0  0  0  0  0  0  0
  1  2  1  0
  1 32  1  0
  1 33  1  0
  1 34  1  0
  2  3  2  0
  2 31  1  0
  3  4  1  0
  3 35  1  0
  4  5  1  0
  4  6  2  0
  5 36  1  0
  5 37  1  0
  6  7  1  0
  6 30  1  0
  7  8  2  0
  7 38  1  0
  8  9  1  0
  8 28  1  0
  9 10  1  0
  9 39  1  0
 10 11  2  0
 10 12  1  0
 12 13  2  0
 12 27  1  0
 13 14  1  0
 13 40  1  0
 14 15  2  0
 14 41  1  0
 15 16  1  0
 15 42  1  0
 16 17  1  0
 16 27  2  0
 17 18  1  0
 17 43  1  0
 17 44  1  0
 18 19  1  0
 18 45  1  0
 19 20  2  0
 19 21  1  0
 21 22  2  0
 21 26  1  0
 22 23  1  0
 22 46  1  0
 23 24  2  0
 23 47  1  0
 24 25  1  0
 24 48  1  0
 25 26  2  0
 26 49  1  0
 27 50  1  0
 28 29  2  0
 28 51  1  0
 29 30  1  0
 29 52  1  0
 30 31  2  0
M  END

