
     RDKit          3D

 50 51  0  0  0  0  0  0  0  0999 V2000
    8.7516   -3.9209   -1.5184 C   0  0  0  0  0  0  0  0  0  0  0  0
    8.2723   -2.4901   -1.6703 C   0  0  0  0  0  0  0  0  0  0  0  0
    6.9134   -2.4368   -1.2445 O   0  0  0  0  0  0  0  0  0  0  0  0
    6.2608   -1.2457   -1.2866 C   0  0  0  0  0  0  0  0  0  0  0  0
    6.8855   -0.1647   -1.7059 N   0  0  0  0  0  0  0  0  0  0  0  0
    6.2535    1.0270   -1.7315 C   0  0  0  0  0  0  0  0  0  0  0  0
    6.9880    2.1093   -2.2111 N   0  0  0  0  0  0  0  0  0  0  0  0
    8.4345    1.9745   -2.3571 C   0  0  0  0  0  0  0  0  0  0  0  0
    8.8880    1.4964   -3.7449 C   0  0  0  0  0  0  0  0  0  0  0  0
   10.4138    1.4708   -3.9519 C   0  0  1  0  0  0  0  0  0  0  0  0
   11.1246    0.4728   -3.0265 C   0  0  0  0  0  0  0  0  0  0  0  0
   10.7539    1.1816   -5.4200 C   0  0  0  0  0  0  0  0  0  0  0  0
    6.3789    3.4256   -2.3211 C   0  0  1  0  0  0  0  0  0  0  0  0
    6.5156    4.3442   -1.0761 C   0  0  0  0  0  0  0  0  0  0  0  0
    6.2987    5.7891   -1.5963 C   0  0  0  0  0  0  0  0  0  0  0  0
    6.2150    5.6735   -3.1428 C   0  0  0  0  0  0  0  0  0  0  0  0
    6.8668    4.3246   -3.4746 C   0  0  0  0  0  0  0  0  0  0  0  0
    4.9204    1.1205   -1.2812 C   0  0  0  0  0  0  0  0  0  0  0  0
    4.2665   -0.0413   -0.8561 C   0  0  0  0  0  0  0  0  0  0  0  0
    4.9137   -1.2770   -0.8491 C   0  0  0  0  0  0  0  0  0  0  0  0
    4.3071   -2.4869   -0.4983 N   0  0  0  0  0  0  0  0  0  0  0  0
    9.8008   -4.0061   -1.8417 H   0  0  0  0  0  0  0  0  0  0  0  0
    8.1442   -4.6059   -2.1303 H   0  0  0  0  0  0  0  0  0  0  0  0
    8.6865   -4.2489   -0.4690 H   0  0  0  0  0  0  0  0  0  0  0  0
    8.3445   -2.1480   -2.7168 H   0  0  0  0  0  0  0  0  0  0  0  0
    8.8787   -1.7929   -1.0673 H   0  0  0  0  0  0  0  0  0  0  0  0
    8.7927    1.2736   -1.5910 H   0  0  0  0  0  0  0  0  0  0  0  0
    8.8989    2.9506   -2.1356 H   0  0  0  0  0  0  0  0  0  0  0  0
    8.4378    2.1523   -4.5088 H   0  0  0  0  0  0  0  0  0  0  0  0
    8.4720    0.4892   -3.9175 H   0  0  0  0  0  0  0  0  0  0  0  0
   10.8010    2.4815   -3.7141 H   0  0  0  0  0  0  0  0  0  0  0  0
   10.7622   -0.5541   -3.2065 H   0  0  0  0  0  0  0  0  0  0  0  0
   10.9617    0.7002   -1.9616 H   0  0  0  0  0  0  0  0  0  0  0  0
   12.2131    0.4768   -3.2012 H   0  0  0  0  0  0  0  0  0  0  0  0
   10.3838    0.1861   -5.7205 H   0  0  0  0  0  0  0  0  0  0  0  0
   11.8426    1.1975   -5.5927 H   0  0  0  0  0  0  0  0  0  0  0  0
   10.2951    1.9224   -6.0949 H   0  0  0  0  0  0  0  0  0  0  0  0
    5.3068    3.2635   -2.5107 H   0  0  0  0  0  0  0  0  0  0  0  0
    7.5286    4.2270   -0.6577 H   0  0  0  0  0  0  0  0  0  0  0  0
    5.8125    4.0582   -0.2791 H   0  0  0  0  0  0  0  0  0  0  0  0
    7.1372    6.4381   -1.2983 H   0  0  0  0  0  0  0  0  0  0  0  0
    5.3892    6.2497   -1.1808 H   0  0  0  0  0  0  0  0  0  0  0  0
    6.6926    6.5190   -3.6612 H   0  0  0  0  0  0  0  0  0  0  0  0
    5.1599    5.6592   -3.4645 H   0  0  0  0  0  0  0  0  0  0  0  0
    7.9649    4.4228   -3.4549 H   0  0  0  0  0  0  0  0  0  0  0  0
    6.5860    3.9330   -4.4646 H   0  0  0  0  0  0  0  0  0  0  0  0
    4.3915    2.0703   -1.2351 H   0  0  0  0  0  0  0  0  0  0  0  0
    3.2291    0.0223   -0.5139 H   0  0  0  0  0  0  0  0  0  0  0  0
    3.5647   -2.4027    0.1889 H   0  0  0  0  0  0  0  0  0  0  0  0
    4.9756   -3.2082   -0.2463 H   0  0  0  0  0  0  0  0  0  0  0  0
  1  2  1  0
  1 22  1  0
  1 23  1  0
  1 24  1  0
  2  3  1  0
  2 25  1  0
  2 26  1  0
  3  4  1  0
  4  5  2  0
  4 20  1  0
  5  6  1  0
  6  7  1  0
  6 18  2  0
  7  8  1  0
  7 13  1  0
  8  9  1  0
  8 27  1  0
  8 28  1  0
  9 10  1  0
  9 29  1  0
  9 30  1  0
 10 11  1  0
 10 12  1  0
 10 31  1  1
 11 32  1  0
 11 33  1  0
 11 34  1  0
 12 35  1  0
 12 36  1  0
 12 37  1  0
 13 14  1  0
 13 17  1  0
 13 38  1  6
 14 15  1  0
 14 39  1  0
 14 40  1  0
 15 16  1  0
 15 41  1  0
 15 42  1  0
 16 17  1  0
 16 43  1  0
 16 44  1  0
 17 45  1  0
 17 46  1  0
 18 19  1  0
 18 47  1  0
 19 20  2  0
 19 48  1  0
 20 21  1  0
 21 49  1  0
 21 50  1  0
M  END

