
     RDKit          3D

 59 62  0  0  0  0  0  0  0  0999 V2000
    8.7210   -5.6243   -1.9209 C   0  0  0  0  0  0  0  0  0  0  0  0
    7.8625   -5.2334   -0.8619 O   0  0  0  0  0  0  0  0  0  0  0  0
    8.3479   -5.1291    0.4068 C   0  0  0  0  0  0  0  0  0  0  0  0
    9.6695   -5.3798    0.7792 C   0  0  0  0  0  0  0  0  0  0  0  0
   10.0556   -5.2375    2.1191 C   0  0  0  0  0  0  0  0  0  0  0  0
    9.1222   -4.8531    3.0789 C   0  0  0  0  0  0  0  0  0  0  0  0
    7.7921   -4.6049    2.7172 C   0  0  0  0  0  0  0  0  0  0  0  0
    7.3912   -4.7371    1.3846 C   0  0  0  0  0  0  0  0  0  0  0  0
    6.0867   -4.5511    0.8912 N   0  0  0  0  0  0  0  0  0  0  0  0
    5.0028   -3.8951    1.3889 C   0  0  0  0  0  0  0  0  0  0  0  0
    4.9120   -2.9913    2.7930 S   0  0  0  0  0  0  0  0  0  0  0  0
    3.8825   -3.9833    0.5779 N   0  0  0  0  0  0  0  0  0  0  0  0
    3.6996   -4.7871   -0.5731 C   0  0  0  0  0  0  0  0  0  0  0  0
    3.8221   -6.1857   -0.5067 C   0  0  0  0  0  0  0  0  0  0  0  0
    3.6391   -6.9576   -1.6553 C   0  0  0  0  0  0  0  0  0  0  0  0
    3.3266   -6.3560   -2.8765 C   0  0  0  0  0  0  0  0  0  0  0  0
    3.2215   -4.9594   -2.9549 C   0  0  0  0  0  0  0  0  0  0  0  0
    2.8982   -4.1471   -4.5249 S   0  0  0  0  0  0  0  0  0  0  0  0
    4.4307   -4.6096   -5.4641 C   0  0  1  0  0  0  0  0  0  0  0  0
    4.3243   -4.0296   -6.8795 C   0  0  0  0  0  0  0  0  0  0  0  0
    5.7404   -4.1809   -4.7775 C   0  0  0  0  0  0  0  0  0  0  0  0
    6.7116   -4.9031   -4.7897 O   0  0  0  0  0  0  0  0  0  0  0  0
    5.6945   -2.9157   -4.2144 N   0  0  0  0  0  0  0  0  0  0  0  0
    6.7165   -2.2585   -3.5438 C   0  0  0  0  0  0  0  0  0  0  0  0
    7.9837   -2.4611   -3.6894 N   0  0  0  0  0  0  0  0  0  0  0  0
    8.7347   -1.6514   -2.8604 C   0  0  0  0  0  0  0  0  0  0  0  0
   10.2072   -1.7568   -2.9051 C   0  0  0  0  0  0  0  0  0  0  0  0
   10.8155   -2.5928   -3.8597 C   0  0  0  0  0  0  0  0  0  0  0  0
   12.2041   -2.7111   -3.9341 C   0  0  0  0  0  0  0  0  0  0  0  0
   13.0039   -1.9884   -3.0454 C   0  0  0  0  0  0  0  0  0  0  0  0
   14.9023   -2.1438   -3.1383 Br  0  0  0  0  0  0  0  0  0  0  0  0
   12.4247   -1.1534   -2.0846 C   0  0  0  0  0  0  0  0  0  0  0  0
   11.0364   -1.0441   -2.0198 C   0  0  0  0  0  0  0  0  0  0  0  0
    7.9965   -0.7972   -2.0723 C   0  0  0  0  0  0  0  0  0  0  0  0
    6.3016   -1.0229   -2.3488 S   0  0  0  0  0  0  0  0  0  0  0  0
    3.3977   -4.1815   -1.8037 C   0  0  0  0  0  0  0  0  0  0  0  0
    8.1277   -5.5719   -2.8423 H   0  0  0  0  0  0  0  0  0  0  0  0
    9.0971   -6.6516   -1.7687 H   0  0  0  0  0  0  0  0  0  0  0  0
    9.5774   -4.9357   -2.0138 H   0  0  0  0  0  0  0  0  0  0  0  0
   10.4030   -5.6792    0.0308 H   0  0  0  0  0  0  0  0  0  0  0  0
   11.0935   -5.4305    2.4012 H   0  0  0  0  0  0  0  0  0  0  0  0
    9.4199   -4.7422    4.1242 H   0  0  0  0  0  0  0  0  0  0  0  0
    7.0584   -4.2948    3.4583 H   0  0  0  0  0  0  0  0  0  0  0  0
    6.0158   -4.8618   -0.0765 H   0  0  0  0  0  0  0  0  0  0  0  0
    3.1496   -3.3341    0.8448 H   0  0  0  0  0  0  0  0  0  0  0  0
    4.0506   -6.6597    0.4496 H   0  0  0  0  0  0  0  0  0  0  0  0
    3.7243   -8.0453   -1.5940 H   0  0  0  0  0  0  0  0  0  0  0  0
    3.1683   -6.9676   -3.7670 H   0  0  0  0  0  0  0  0  0  0  0  0
    4.4863   -5.7051   -5.5185 H   0  0  0  0  0  0  0  0  0  0  0  0
    4.2660   -2.9302   -6.8652 H   0  0  0  0  0  0  0  0  0  0  0  0
    3.4314   -4.4180   -7.3921 H   0  0  0  0  0  0  0  0  0  0  0  0
    5.2123   -4.3186   -7.4620 H   0  0  0  0  0  0  0  0  0  0  0  0
    4.7611   -2.5123   -4.1550 H   0  0  0  0  0  0  0  0  0  0  0  0
   10.1782   -3.1508   -4.5474 H   0  0  0  0  0  0  0  0  0  0  0  0
   12.6625   -3.3614   -4.6811 H   0  0  0  0  0  0  0  0  0  0  0  0
   13.0546   -0.5964   -1.3892 H   0  0  0  0  0  0  0  0  0  0  0  0
   10.6005   -0.3967   -1.2560 H   0  0  0  0  0  0  0  0  0  0  0  0
    8.3406   -0.0490   -1.3628 H   0  0  0  0  0  0  0  0  0  0  0  0
    3.3353   -3.0929   -1.8573 H   0  0  0  0  0  0  0  0  0  0  0  0
  1  2  1  0
  1 37  1  0
  1 38  1  0
  1 39  1  0
  2  3  1  0
  3  4  2  0
  3  8  1  0
  4  5  1  0
  4 40  1  0
  5  6  2  0
  5 41  1  0
  6  7  1  0
  6 42  1  0
  7  8  2  0
  7 43  1  0
  8  9  1  0
  9 10  1  0
  9 44  1  0
 10 11  2  0
 10 12  1  0
 12 13  1  0
 12 45  1  0
 13 14  2  0
 13 36  1  0
 14 15  1  0
 14 46  1  0
 15 16  2  0
 15 47  1  0
 16 17  1  0
 16 48  1  0
 17 18  1  0
 17 36  2  0
 18 19  1  0
 19 20  1  0
 19 21  1  0
 19 49  1  6
 20 50  1  0
 20 51  1  0
 20 52  1  0
 21 22  2  0
 21 23  1  0
 23 24  1  0
 23 53  1  0
 24 25  2  0
 24 35  1  0
 25 26  1  0
 26 27  1  0
 26 34  2  0
 27 28  2  0
 27 33  1  0
 28 29  1  0
 28 54  1  0
 29 30  2  0
 29 55  1  0
 30 31  1  0
 30 32  1  0
 32 33  2  0
 32 56  1  0
 33 57  1  0
 34 35  1  0
 34 58  1  0
 36 59  1  0
M  END

