
     RDKit          3D

 44 45  0  0  0  0  0  0  0  0999 V2000
    2.3761    1.5573    0.7375 C   0  0  0  0  0  0  0  0  0  0  0  0
    2.5984    0.2604   -0.0528 C   0  0  0  0  0  0  0  0  0  0  0  0
    2.9705   -0.9266    0.7196 N   0  0  0  0  0  0  0  0  0  0  0  0
    1.9023   -1.8408    1.1158 C   0  0  0  0  0  0  0  0  0  0  0  0
    0.7133   -1.2408    1.8950 C   0  0  1  0  0  0  0  0  0  0  0  0
   -0.4317   -0.5924    1.0705 C   0  0  0  0  0  0  0  0  0  0  0  0
   -1.7457   -1.0360    1.7691 C   0  0  0  0  0  0  0  0  0  0  0  0
   -1.2682   -1.8138    3.0066 C   0  0  0  0  0  0  0  0  0  0  0  0
    0.0182   -2.3349    2.5717 N   0  0  0  0  0  0  0  0  0  0  0  0
    4.3157   -1.2219    0.9169 C   0  0  0  0  0  0  0  0  0  0  0  0
    5.2770   -0.1797    0.8722 C   0  0  0  0  0  0  0  0  0  0  0  0
    6.6213   -0.4324    1.1273 C   0  0  0  0  0  0  0  0  0  0  0  0
    7.6462    0.6741    1.1038 C   0  0  0  0  0  0  0  0  0  0  0  0
    7.0807   -1.6559    1.4281 N   0  0  0  0  0  0  0  0  0  0  0  0
    6.2174   -2.6729    1.4403 C   0  0  0  0  0  0  0  0  0  0  0  0
    6.8020   -4.0329    1.7464 C   0  0  0  0  0  0  0  0  0  0  0  0
    4.8372   -2.5250    1.1602 C   0  0  0  0  0  0  0  0  0  0  0  0
    4.0428   -3.8093    1.0515 C   0  0  0  0  0  0  0  0  0  0  0  0
    3.7081   -4.1470   -0.2292 N   0  0  0  0  0  0  0  0  0  0  0  0
    3.7581   -4.5182    2.0035 O   0  0  0  0  0  0  0  0  0  0  0  0
    2.0757    2.3651    0.0499 H   0  0  0  0  0  0  0  0  0  0  0  0
    3.2862    1.8827    1.2619 H   0  0  0  0  0  0  0  0  0  0  0  0
    1.5867    1.4479    1.4937 H   0  0  0  0  0  0  0  0  0  0  0  0
    3.3699    0.4341   -0.8211 H   0  0  0  0  0  0  0  0  0  0  0  0
    1.6779    0.0153   -0.6071 H   0  0  0  0  0  0  0  0  0  0  0  0
    2.3391   -2.5852    1.7877 H   0  0  0  0  0  0  0  0  0  0  0  0
    1.4981   -2.3982    0.2492 H   0  0  0  0  0  0  0  0  0  0  0  0
    1.1122   -0.4926    2.6169 H   0  0  0  0  0  0  0  0  0  0  0  0
   -0.4061   -0.9617    0.0335 H   0  0  0  0  0  0  0  0  0  0  0  0
   -0.3356    0.5015    1.0280 H   0  0  0  0  0  0  0  0  0  0  0  0
   -2.3257   -1.6971    1.1080 H   0  0  0  0  0  0  0  0  0  0  0  0
   -2.3940   -0.1886    2.0375 H   0  0  0  0  0  0  0  0  0  0  0  0
   -1.9523   -2.6280    3.2963 H   0  0  0  0  0  0  0  0  0  0  0  0
   -1.1860   -1.1235    3.8766 H   0  0  0  0  0  0  0  0  0  0  0  0
    0.5668   -2.7439    3.3264 H   0  0  0  0  0  0  0  0  0  0  0  0
    4.9706    0.8459    0.6806 H   0  0  0  0  0  0  0  0  0  0  0  0
    7.2077    1.6462    0.8357 H   0  0  0  0  0  0  0  0  0  0  0  0
    8.4448    0.4328    0.3839 H   0  0  0  0  0  0  0  0  0  0  0  0
    8.1293    0.7626    2.0903 H   0  0  0  0  0  0  0  0  0  0  0  0
    7.8801   -3.9221    1.9174 H   0  0  0  0  0  0  0  0  0  0  0  0
    6.6439   -4.7369    0.9123 H   0  0  0  0  0  0  0  0  0  0  0  0
    6.3246   -4.4795    2.6307 H   0  0  0  0  0  0  0  0  0  0  0  0
    4.0050   -3.5927   -1.0209 H   0  0  0  0  0  0  0  0  0  0  0  0
    3.2003   -5.0110   -0.3850 H   0  0  0  0  0  0  0  0  0  0  0  0
  1  2  1  0
  1 21  1  0
  1 22  1  0
  1 23  1  0
  2  3  1  0
  2 24  1  0
  2 25  1  0
  3  4  1  0
  3 10  1  0
  4  5  1  0
  4 26  1  0
  4 27  1  0
  5  6  1  0
  5  9  1  0
  5 28  1  1
  6  7  1  0
  6 29  1  0
  6 30  1  0
  7  8  1  0
  7 31  1  0
  7 32  1  0
  8  9  1  0
  8 33  1  0
  8 34  1  0
  9 35  1  0
 10 11  2  0
 10 17  1  0
 11 12  1  0
 11 36  1  0
 12 13  1  0
 12 14  2  0
 13 37  1  0
 13 38  1  0
 13 39  1  0
 14 15  1  0
 15 16  1  0
 15 17  2  0
 16 40  1  0
 16 41  1  0
 16 42  1  0
 17 18  1  0
 18 19  1  0
 18 20  2  0
 19 43  1  0
 19 44  1  0
M  END

