
     RDKit          3D

 47 46  0  0  0  0  0  0  0  0999 V2000
    0.6031    0.0389   -0.3662 C   0  0  0  0  0  0  0  0  0  0  0  0
    2.1325    0.0332   -0.3586 C   0  0  0  0  0  0  0  0  0  0  0  0
    2.7455    1.0678    0.5904 C   0  0  0  0  0  0  0  0  0  0  0  0
    4.2768    1.0687    0.6041 C   0  0  0  0  0  0  0  0  0  0  0  0
    4.8894    2.1035    1.5526 C   0  0  0  0  0  0  0  0  0  0  0  0
    6.4212    2.1045    1.5641 C   0  0  0  0  0  0  0  0  0  0  0  0
    7.0282    3.1450    2.5101 C   0  0  0  0  0  0  0  0  0  0  0  0
    8.5722    3.1343    2.5632 C   0  0  1  0  0  0  0  0  0  0  0  0
    9.2061    3.3678    1.2655 N   0  0  0  0  0  0  0  0  0  0  0  0
    9.1010    4.1162    3.6457 C   0  0  1  0  0  0  0  0  0  0  0  0
    8.4886    3.7107    4.8715 O   0  0  0  0  0  0  0  0  0  0  0  0
    7.6844    4.6579    5.5259 C   0  0  0  0  0  0  0  0  0  0  0  0
   10.6578    4.1961    3.8428 C   0  0  1  0  0  0  0  0  0  0  0  0
   11.3226    5.0109    2.7147 C   0  0  0  0  0  0  0  0  0  0  0  0
   10.9513    4.9215    5.1731 C   0  0  0  0  0  0  0  0  0  0  0  0
   11.2730    2.7864    3.9055 C   0  0  0  0  0  0  0  0  0  0  0  0
    0.1978   -0.7162   -1.0586 H   0  0  0  0  0  0  0  0  0  0  0  0
    0.2072    1.0207   -0.6763 H   0  0  0  0  0  0  0  0  0  0  0  0
    0.1963   -0.1768    0.6362 H   0  0  0  0  0  0  0  0  0  0  0  0
    2.5072    0.2140   -1.3828 H   0  0  0  0  0  0  0  0  0  0  0  0
    2.4963   -0.9731   -0.0814 H   0  0  0  0  0  0  0  0  0  0  0  0
    2.3716    0.8878    1.6158 H   0  0  0  0  0  0  0  0  0  0  0  0
    2.3823    2.0756    0.3138 H   0  0  0  0  0  0  0  0  0  0  0  0
    4.6506    1.2484   -0.4214 H   0  0  0  0  0  0  0  0  0  0  0  0
    4.6395    0.0611    0.8809 H   0  0  0  0  0  0  0  0  0  0  0  0
    4.5180    1.9248    2.5787 H   0  0  0  0  0  0  0  0  0  0  0  0
    4.5271    3.1113    1.2763 H   0  0  0  0  0  0  0  0  0  0  0  0
    6.7843    2.2757    0.5343 H   0  0  0  0  0  0  0  0  0  0  0  0
    6.7836    1.0987    1.8492 H   0  0  0  0  0  0  0  0  0  0  0  0
    6.6402    2.9698    3.5251 H   0  0  0  0  0  0  0  0  0  0  0  0
    6.6872    4.1552    2.2093 H   0  0  0  0  0  0  0  0  0  0  0  0
    8.8788    2.1264    2.8915 H   0  0  0  0  0  0  0  0  0  0  0  0
    8.8608    4.2340    0.8470 H   0  0  0  0  0  0  0  0  0  0  0  0
    8.9724    2.6214    0.6129 H   0  0  0  0  0  0  0  0  0  0  0  0
    8.7523    5.1368    3.3847 H   0  0  0  0  0  0  0  0  0  0  0  0
    7.3019    4.1864    6.4443 H   0  0  0  0  0  0  0  0  0  0  0  0
    6.8170    4.9692    4.9111 H   0  0  0  0  0  0  0  0  0  0  0  0
    8.2451    5.5671    5.8133 H   0  0  0  0  0  0  0  0  0  0  0  0
   10.8948    6.0271    2.6553 H   0  0  0  0  0  0  0  0  0  0  0  0
   11.1960    4.5244    1.7406 H   0  0  0  0  0  0  0  0  0  0  0  0
   12.4005    5.1235    2.9188 H   0  0  0  0  0  0  0  0  0  0  0  0
   10.5257    5.9391    5.1826 H   0  0  0  0  0  0  0  0  0  0  0  0
   12.0400    5.0237    5.3095 H   0  0  0  0  0  0  0  0  0  0  0  0
   10.5497    4.3706    6.0350 H   0  0  0  0  0  0  0  0  0  0  0  0
   11.2010    2.2718    2.9358 H   0  0  0  0  0  0  0  0  0  0  0  0
   10.7700    2.1723    4.6696 H   0  0  0  0  0  0  0  0  0  0  0  0
   12.3410    2.8460    4.1722 H   0  0  0  0  0  0  0  0  0  0  0  0
  1  2  1  0
  1 17  1  0
  1 18  1  0
  1 19  1  0
  2  3  1  0
  2 20  1  0
  2 21  1  0
  3  4  1  0
  3 22  1  0
  3 23  1  0
  4  5  1  0
  4 24  1  0
  4 25  1  0
  5  6  1  0
  5 26  1  0
  5 27  1  0
  6  7  1  0
  6 28  1  0
  6 29  1  0
  7  8  1  0
  7 30  1  0
  7 31  1  0
  8  9  1  0
  8 10  1  0
  8 32  1  1
  9 33  1  0
  9 34  1  0
 10 11  1  0
 10 13  1  0
 10 35  1  6
 11 12  1  0
 12 36  1  0
 12 37  1  0
 12 38  1  0
 13 14  1  6
 13 15  1  0
 13 16  1  0
 14 39  1  0
 14 40  1  0
 14 41  1  0
 15 42  1  0
 15 43  1  0
 15 44  1  0
 16 45  1  0
 16 46  1  0
 16 47  1  0
M  END

