
     RDKit          3D

 44 46  0  0  0  0  0  0  0  0999 V2000
    1.3067   -0.2680   -0.3575 C   0  0  0  0  0  0  0  0  0  0  0  0
    2.8067   -0.0349   -0.1577 C   0  0  1  0  0  0  0  0  0  0  0  0
    3.5562   -1.2689   -0.4634 N   0  0  0  0  0  0  0  0  0  0  0  0
    3.5479   -2.3074    0.5564 C   0  0  0  0  0  0  0  0  0  0  0  0
    3.7980   -3.7212    0.0079 C   0  0  0  0  0  0  0  0  0  0  0  0
    4.1161   -4.6344    0.7479 O   0  0  0  0  0  0  0  0  0  0  0  0
    3.5859   -3.8121   -1.3420 N   0  0  0  0  0  0  0  0  0  0  0  0
    3.6728   -4.9292   -2.1834 C   0  0  0  0  0  0  0  0  0  0  0  0
    4.0167   -6.2139   -1.7222 C   0  0  0  0  0  0  0  0  0  0  0  0
    4.0806   -7.2717   -2.6310 C   0  0  0  0  0  0  0  0  0  0  0  0
    3.8118   -7.0920   -3.9903 C   0  0  0  0  0  0  0  0  0  0  0  0
    3.4713   -5.8110   -4.4324 C   0  0  0  0  0  0  0  0  0  0  0  0
    3.1262   -5.5431   -6.1292 Cl  0  0  0  0  0  0  0  0  0  0  0  0
    3.3991   -4.7343   -3.5504 C   0  0  0  0  0  0  0  0  0  0  0  0
    3.3445    1.0925   -1.0529 C   0  0  2  0  0  0  0  0  0  0  0  0
    4.8378    1.4939   -0.7824 C   0  0  0  0  0  0  0  0  0  0  0  0
    4.7876    3.0365   -0.6885 C   0  0  2  0  0  0  0  0  0  0  0  0
    4.1350    3.4246    0.6577 C   0  0  0  0  0  0  0  0  0  0  0  0
    2.6370    3.0358    0.4474 C   0  0  0  0  0  0  0  0  0  0  0  0
    2.6187    2.4648   -0.9909 C   0  0  1  0  0  0  0  0  0  0  0  0
    3.6580    3.3709   -1.6847 C   0  0  0  0  0  0  0  0  0  0  0  0
    0.9530   -1.1409    0.2129 H   0  0  0  0  0  0  0  0  0  0  0  0
    1.0831   -0.4495   -1.4213 H   0  0  0  0  0  0  0  0  0  0  0  0
    0.7190    0.5989   -0.0211 H   0  0  0  0  0  0  0  0  0  0  0  0
    2.9769    0.2534    0.9017 H   0  0  0  0  0  0  0  0  0  0  0  0
    4.5209   -1.0311   -0.6880 H   0  0  0  0  0  0  0  0  0  0  0  0
    2.5559   -2.3432    1.0363 H   0  0  0  0  0  0  0  0  0  0  0  0
    4.2754   -2.1562    1.3768 H   0  0  0  0  0  0  0  0  0  0  0  0
    3.3393   -2.9118   -1.7568 H   0  0  0  0  0  0  0  0  0  0  0  0
    4.2267   -6.3590   -0.6650 H   0  0  0  0  0  0  0  0  0  0  0  0
    4.3483   -8.2673   -2.2674 H   0  0  0  0  0  0  0  0  0  0  0  0
    3.8626   -7.9212   -4.6968 H   0  0  0  0  0  0  0  0  0  0  0  0
    3.1294   -3.7453   -3.9263 H   0  0  0  0  0  0  0  0  0  0  0  0
    3.2563    0.7235   -2.0903 H   0  0  0  0  0  0  0  0  0  0  0  0
    5.4983    1.1700   -1.6027 H   0  0  0  0  0  0  0  0  0  0  0  0
    5.2318    1.0489    0.1473 H   0  0  0  0  0  0  0  0  0  0  0  0
    5.7579    3.5224   -0.8687 H   0  0  0  0  0  0  0  0  0  0  0  0
    4.2441    4.5039    0.8482 H   0  0  0  0  0  0  0  0  0  0  0  0
    4.5986    2.8987    1.5074 H   0  0  0  0  0  0  0  0  0  0  0  0
    1.9848    3.9213    0.5071 H   0  0  0  0  0  0  0  0  0  0  0  0
    2.2694    2.3240    1.2011 H   0  0  0  0  0  0  0  0  0  0  0  0
    1.6195    2.4499   -1.4492 H   0  0  0  0  0  0  0  0  0  0  0  0
    3.3755    4.4360   -1.6838 H   0  0  0  0  0  0  0  0  0  0  0  0
    3.8802    3.0663   -2.7202 H   0  0  0  0  0  0  0  0  0  0  0  0
  1  2  1  0
  1 22  1  0
  1 23  1  0
  1 24  1  0
  2  3  1  0
  2 15  1  0
  2 25  1  1
  3  4  1  0
  3 26  1  0
  4  5  1  0
  4 27  1  0
  4 28  1  0
  5  6  2  0
  5  7  1  0
  7  8  1  0
  7 29  1  0
  8  9  2  0
  8 14  1  0
  9 10  1  0
  9 30  1  0
 10 11  2  0
 10 31  1  0
 11 12  1  0
 11 32  1  0
 12 13  1  0
 12 14  2  0
 14 33  1  0
 15 16  1  0
 15 20  1  0
 15 34  1  6
 16 17  1  0
 16 35  1  0
 16 36  1  0
 17 18  1  0
 17 21  1  0
 17 37  1  6
 18 19  1  0
 18 38  1  0
 18 39  1  0
 19 20  1  0
 19 40  1  0
 19 41  1  0
 20 21  1  0
 20 42  1  6
 21 43  1  0
 21 44  1  0
M  END

