
     RDKit          3D

 41 41  0  0  0  0  0  0  0  0999 V2000
    1.0761   -0.4493   -1.6070 C   0  0  0  0  0  0  0  0  0  0  0  0
    2.4800   -0.3052   -1.2654 N   0  0  0  0  0  0  0  0  0  0  0  0
    2.9074    1.0519   -0.9001 C   0  0  1  0  0  0  0  0  0  0  0  0
    2.2907    1.4626    0.4484 C   0  0  0  0  0  0  0  0  0  0  0  0
    4.4277    1.0953   -0.8523 C   0  0  0  0  0  0  0  0  0  0  0  0
    5.1146    0.0738   -0.1771 C   0  0  0  0  0  0  0  0  0  0  0  0
    6.5007    0.0676   -0.1309 C   0  0  0  0  0  0  0  0  0  0  0  0
    7.1288   -0.9338    0.5184 F   0  0  0  0  0  0  0  0  0  0  0  0
    7.2810    1.0567   -0.7395 C   0  0  0  0  0  0  0  0  0  0  0  0
    8.7840    1.0044   -0.6599 C   0  0  0  0  0  0  0  0  0  0  0  0
    6.5854    2.0726   -1.4037 C   0  0  0  0  0  0  0  0  0  0  0  0
    5.1800    2.1150   -1.4801 C   0  0  0  0  0  0  0  0  0  0  0  0
    4.5209    3.1733   -2.1881 N   0  0  0  0  0  0  0  0  0  0  0  0
    4.2163    4.3384   -1.3588 C   0  0  0  0  0  0  0  0  0  0  0  0
    5.0779    3.5056   -3.4960 C   0  0  0  0  0  0  0  0  0  0  0  0
    4.0440    3.9481   -4.5260 C   0  0  0  0  0  0  0  0  0  0  0  0
    3.5723    5.2464   -4.2475 O   0  0  0  0  0  0  0  0  0  0  0  0
    2.6167    5.7096   -5.1632 C   0  0  0  0  0  0  0  0  0  0  0  0
    0.8985   -1.4605   -2.0053 H   0  0  0  0  0  0  0  0  0  0  0  0
    0.7090    0.2835   -2.3615 H   0  0  0  0  0  0  0  0  0  0  0  0
    0.4392   -0.3418   -0.7144 H   0  0  0  0  0  0  0  0  0  0  0  0
    3.0519   -0.6244   -2.0457 H   0  0  0  0  0  0  0  0  0  0  0  0
    2.5902    1.7957   -1.6592 H   0  0  0  0  0  0  0  0  0  0  0  0
    2.5569    0.7354    1.2317 H   0  0  0  0  0  0  0  0  0  0  0  0
    1.1924    1.5157    0.3888 H   0  0  0  0  0  0  0  0  0  0  0  0
    2.6517    2.4539    0.7597 H   0  0  0  0  0  0  0  0  0  0  0  0
    4.5588   -0.7416    0.2888 H   0  0  0  0  0  0  0  0  0  0  0  0
    9.1307    1.0230    0.3865 H   0  0  0  0  0  0  0  0  0  0  0  0
    9.2387    1.8556   -1.1869 H   0  0  0  0  0  0  0  0  0  0  0  0
    9.1769    0.0748   -1.1037 H   0  0  0  0  0  0  0  0  0  0  0  0
    7.1636    2.8682   -1.8804 H   0  0  0  0  0  0  0  0  0  0  0  0
    3.6590    4.0309   -0.4627 H   0  0  0  0  0  0  0  0  0  0  0  0
    3.6048    5.0476   -1.9304 H   0  0  0  0  0  0  0  0  0  0  0  0
    5.1349    4.8667   -1.0203 H   0  0  0  0  0  0  0  0  0  0  0  0
    5.5587    2.6020   -3.9000 H   0  0  0  0  0  0  0  0  0  0  0  0
    5.8628    4.2919   -3.4402 H   0  0  0  0  0  0  0  0  0  0  0  0
    3.2058    3.2213   -4.5406 H   0  0  0  0  0  0  0  0  0  0  0  0
    4.5183    3.9279   -5.5314 H   0  0  0  0  0  0  0  0  0  0  0  0
    2.3252    6.7267   -4.8630 H   0  0  0  0  0  0  0  0  0  0  0  0
    1.7095    5.0717   -5.1778 H   0  0  0  0  0  0  0  0  0  0  0  0
    3.0193    5.7486   -6.1964 H   0  0  0  0  0  0  0  0  0  0  0  0
  1  2  1  0
  1 19  1  0
  1 20  1  0
  1 21  1  0
  2  3  1  0
  2 22  1  0
  3  4  1  0
  3  5  1  0
  3 23  1  6
  4 24  1  0
  4 25  1  0
  4 26  1  0
  5  6  2  0
  5 12  1  0
  6  7  1  0
  6 27  1  0
  7  8  1  0
  7  9  2  0
  9 10  1  0
  9 11  1  0
 10 28  1  0
 10 29  1  0
 10 30  1  0
 11 12  2  0
 11 31  1  0
 12 13  1  0
 13 14  1  0
 13 15  1  0
 14 32  1  0
 14 33  1  0
 14 34  1  0
 15 16  1  0
 15 35  1  0
 15 36  1  0
 16 17  1  0
 16 37  1  0
 16 38  1  0
 17 18  1  0
 18 39  1  0
 18 40  1  0
 18 41  1  0
M  END

