
     RDKit          3D

 34 35  0  0  0  0  0  0  0  0999 V2000
    1.0649   -0.2620    0.3463 C   0  0  0  0  0  0  0  0  0  0  0  0
    2.4973    0.0233   -0.0733 C   0  0  1  0  0  0  0  0  0  0  0  0
    2.9290   -1.0370   -0.9283 O   0  0  0  0  0  0  0  0  0  0  0  0
    3.9782   -0.5133   -1.7103 C   0  0  1  0  0  0  0  0  0  0  0  0
    4.3812   -1.3793   -2.8878 C   0  0  0  0  0  0  0  0  0  0  0  0
    5.4794   -0.6361   -3.6701 C   0  0  0  0  0  0  0  0  0  0  0  0
    5.0830    0.8028   -4.0396 C   0  0  0  0  0  0  0  0  0  0  0  0
    4.6002    1.6467   -2.8370 C   0  0  1  0  0  0  0  0  0  0  0  0
    4.2235    3.0741   -3.2575 C   0  0  0  0  0  0  0  0  0  0  0  0
    5.3420    3.7553   -3.9063 N   0  0  0  0  0  0  0  0  0  0  0  0
    3.4717    0.8672   -2.1417 C   0  0  2  0  0  0  0  0  0  0  0  0
    2.7859    1.3729   -0.8499 C   0  0  1  0  0  0  0  0  0  0  0  0
    1.5622    2.2628   -1.0842 C   0  0  0  0  0  0  0  0  0  0  0  0
    1.0159   -1.2532    0.8222 H   0  0  0  0  0  0  0  0  0  0  0  0
    0.3882   -0.2708   -0.5209 H   0  0  0  0  0  0  0  0  0  0  0  0
    0.7013    0.4832    1.0700 H   0  0  0  0  0  0  0  0  0  0  0  0
    3.1351    0.0171    0.8344 H   0  0  0  0  0  0  0  0  0  0  0  0
    4.8768   -0.3659   -1.0663 H   0  0  0  0  0  0  0  0  0  0  0  0
    3.4969   -1.5546   -3.5251 H   0  0  0  0  0  0  0  0  0  0  0  0
    4.7369   -2.3649   -2.5455 H   0  0  0  0  0  0  0  0  0  0  0  0
    5.7390   -1.1960   -4.5837 H   0  0  0  0  0  0  0  0  0  0  0  0
    6.3987   -0.6117   -3.0567 H   0  0  0  0  0  0  0  0  0  0  0  0
    4.2639    0.7737   -4.7831 H   0  0  0  0  0  0  0  0  0  0  0  0
    5.9191    1.3206   -4.5315 H   0  0  0  0  0  0  0  0  0  0  0  0
    5.4404    1.7318   -2.1169 H   0  0  0  0  0  0  0  0  0  0  0  0
    3.8356    3.6161   -2.3701 H   0  0  0  0  0  0  0  0  0  0  0  0
    3.3878    3.0256   -3.9789 H   0  0  0  0  0  0  0  0  0  0  0  0
    6.0809    3.9445   -3.2272 H   0  0  0  0  0  0  0  0  0  0  0  0
    5.0485    4.6631   -4.2656 H   0  0  0  0  0  0  0  0  0  0  0  0
    2.6760    0.6880   -2.8907 H   0  0  0  0  0  0  0  0  0  0  0  0
    3.5204    1.9466   -0.2574 H   0  0  0  0  0  0  0  0  0  0  0  0
    0.7997    1.7531   -1.6940 H   0  0  0  0  0  0  0  0  0  0  0  0
    1.8410    3.1864   -1.6132 H   0  0  0  0  0  0  0  0  0  0  0  0
    1.0867    2.5616   -0.1366 H   0  0  0  0  0  0  0  0  0  0  0  0
  1  2  1  0
  1 14  1  0
  1 15  1  0
  1 16  1  0
  2  3  1  0
  2 12  1  0
  2 17  1  1
  3  4  1  0
  4  5  1  0
  4 11  1  0
  4 18  1  1
  5  6  1  0
  5 19  1  0
  5 20  1  0
  6  7  1  0
  6 21  1  0
  6 22  1  0
  7  8  1  0
  7 23  1  0
  7 24  1  0
  8  9  1  0
  8 11  1  0
  8 25  1  1
  9 10  1  0
  9 26  1  0
  9 27  1  0
 10 28  1  0
 10 29  1  0
 11 12  1  0
 11 30  1  6
 12 13  1  0
 12 31  1  1
 13 32  1  0
 13 33  1  0
 13 34  1  0
M  END

