
     RDKit          3D

 29 29  0  0  0  0  0  0  0  0999 V2000
    1.0682    0.2453    0.4421 N   0  0  0  0  0  0  0  0  0  0  0  0
    2.4237    0.0994    0.2369 C   0  0  0  0  0  0  0  0  0  0  0  0
    3.0325   -1.1699    0.1582 C   0  0  0  0  0  0  0  0  0  0  0  0
    4.3906   -1.3343   -0.0963 C   0  0  0  0  0  0  0  0  0  0  0  0
    5.2103   -0.2079   -0.2853 C   0  0  0  0  0  0  0  0  0  0  0  0
    6.5899   -0.2951   -0.5482 N   0  0  0  0  0  0  0  0  0  0  0  0
    7.3743   -1.3897   -0.6610 C   0  0  0  0  0  0  0  0  0  0  0  0
    7.0466   -2.5655   -0.5570 O   0  0  0  0  0  0  0  0  0  0  0  0
    8.8375   -0.9844   -0.9542 C   0  0  0  0  0  0  0  0  0  0  0  0
    9.1767    0.1891   -1.0392 O   0  0  0  0  0  0  0  0  0  0  0  0
    9.6362   -2.0603   -1.0960 N   0  0  0  0  0  0  0  0  0  0  0  0
   11.0577   -1.9831   -1.3776 C   0  0  0  0  0  0  0  0  0  0  0  0
   11.9197   -2.2289   -0.1368 C   0  0  0  0  0  0  0  0  0  0  0  0
   11.6886   -3.4956    0.4416 O   0  0  0  0  0  0  0  0  0  0  0  0
    4.6330    1.0687   -0.2081 C   0  0  0  0  0  0  0  0  0  0  0  0
    3.2732    1.2131    0.0483 C   0  0  0  0  0  0  0  0  0  0  0  0
    2.5899    2.8290    0.1517 Cl  0  0  0  0  0  0  0  0  0  0  0  0
    0.5786   -0.5340    0.8632 H   0  0  0  0  0  0  0  0  0  0  0  0
    0.7491    1.1612    0.7353 H   0  0  0  0  0  0  0  0  0  0  0  0
    2.4078   -2.0567    0.2976 H   0  0  0  0  0  0  0  0  0  0  0  0
    4.8284   -2.3290   -0.1511 H   0  0  0  0  0  0  0  0  0  0  0  0
    7.1116    0.5726   -0.6746 H   0  0  0  0  0  0  0  0  0  0  0  0
    9.1666   -2.9590   -1.0106 H   0  0  0  0  0  0  0  0  0  0  0  0
   11.2637   -0.9813   -1.7848 H   0  0  0  0  0  0  0  0  0  0  0  0
   11.3061   -2.7323   -2.1471 H   0  0  0  0  0  0  0  0  0  0  0  0
   11.7595   -1.4087    0.5903 H   0  0  0  0  0  0  0  0  0  0  0  0
   12.9810   -2.2004   -0.4335 H   0  0  0  0  0  0  0  0  0  0  0  0
   10.8358   -3.4662    0.8948 H   0  0  0  0  0  0  0  0  0  0  0  0
    5.2427    1.9644   -0.3445 H   0  0  0  0  0  0  0  0  0  0  0  0
  1  2  1  0
  1 18  1  0
  1 19  1  0
  2  3  2  0
  2 16  1  0
  3  4  1  0
  3 20  1  0
  4  5  2  0
  4 21  1  0
  5  6  1  0
  5 15  1  0
  6  7  1  0
  6 22  1  0
  7  8  2  0
  7  9  1  0
  9 10  2  0
  9 11  1  0
 11 12  1  0
 11 23  1  0
 12 13  1  0
 12 24  1  0
 12 25  1  0
 13 14  1  0
 13 26  1  0
 13 27  1  0
 14 28  1  0
 15 16  2  0
 15 29  1  0
 16 17  1  0
M  END

