
     RDKit          3D

 35 36  0  0  0  0  0  0  0  0999 V2000
    3.3189    1.5954    0.8764 C   0  0  0  0  0  0  0  0  0  0  0  0
    2.5370    0.3243    0.5218 C   0  0  1  0  0  0  0  0  0  0  0  0
    1.0916    0.3860    1.0300 C   0  0  0  0  0  0  0  0  0  0  0  0
    2.5881   -0.0238   -0.9974 C   0  0  1  0  0  0  0  0  0  0  0  0
    1.9879    1.0365   -1.7810 N   0  0  0  0  0  0  0  0  0  0  0  0
    1.4589    0.8890   -3.0389 C   0  0  0  0  0  0  0  0  0  0  0  0
    1.3881   -0.3295   -3.7352 C   0  0  0  0  0  0  0  0  0  0  0  0
    0.7938   -0.3672   -4.9989 C   0  0  0  0  0  0  0  0  0  0  0  0
    0.7299   -1.6681   -5.6982 N   0  0  0  0  0  0  0  0  0  0  0  0
    1.1821   -2.6453   -5.1222 O   0  0  0  0  0  0  0  0  0  0  0  0
    0.2261   -1.6881   -6.8101 O   0  0  0  0  0  0  0  0  0  0  0  0
    0.2683    0.7577   -5.6303 C   0  0  0  0  0  0  0  0  0  0  0  0
    0.3471    1.9781   -4.9517 C   0  0  0  0  0  0  0  0  0  0  0  0
    0.9280    2.0258   -3.6958 C   0  0  0  0  0  0  0  0  0  0  0  0
    1.0092    3.2000   -3.0379 F   0  0  0  0  0  0  0  0  0  0  0  0
    3.9874   -0.3733   -1.4786 C   0  0  0  0  0  0  0  0  0  0  0  0
    4.8446    0.3710   -2.2532 C   0  0  0  0  0  0  0  0  0  0  0  0
    6.0983   -0.2739   -2.4917 C   0  0  0  0  0  0  0  0  0  0  0  0
    6.1804   -1.5052   -1.8963 C   0  0  0  0  0  0  0  0  0  0  0  0
    4.7255   -1.8941   -1.0411 S   0  0  0  0  0  0  0  0  0  0  0  0
    3.3560    1.7281    1.9689 H   0  0  0  0  0  0  0  0  0  0  0  0
    2.8433    2.5045    0.4680 H   0  0  0  0  0  0  0  0  0  0  0  0
    4.3540    1.5557    0.5050 H   0  0  0  0  0  0  0  0  0  0  0  0
    3.0386   -0.5206    1.0237 H   0  0  0  0  0  0  0  0  0  0  0  0
    0.5309    1.2035    0.5494 H   0  0  0  0  0  0  0  0  0  0  0  0
    1.0681    0.5572    2.1178 H   0  0  0  0  0  0  0  0  0  0  0  0
    0.5516   -0.5526    0.8259 H   0  0  0  0  0  0  0  0  0  0  0  0
    1.9586   -0.9237   -1.1186 H   0  0  0  0  0  0  0  0  0  0  0  0
    2.0698    1.9853   -1.4399 H   0  0  0  0  0  0  0  0  0  0  0  0
    1.7965   -1.2495   -3.3237 H   0  0  0  0  0  0  0  0  0  0  0  0
   -0.1800    0.6704   -6.6180 H   0  0  0  0  0  0  0  0  0  0  0  0
   -0.0411    2.9012   -5.3861 H   0  0  0  0  0  0  0  0  0  0  0  0
    4.5788    1.3512   -2.6512 H   0  0  0  0  0  0  0  0  0  0  0  0
    6.9030    0.1600   -3.0874 H   0  0  0  0  0  0  0  0  0  0  0  0
    7.0072   -2.2138   -1.9163 H   0  0  0  0  0  0  0  0  0  0  0  0
  1  2  1  0
  1 21  1  0
  1 22  1  0
  1 23  1  0
  2  3  1  0
  2  4  1  0
  2 24  1  1
  3 25  1  0
  3 26  1  0
  3 27  1  0
  4  5  1  0
  4 16  1  0
  4 28  1  1
  5  6  1  0
  5 29  1  0
  6  7  2  0
  6 14  1  0
  7  8  1  0
  7 30  1  0
  8  9  1  0
  8 12  2  0
  9 10  2  0
  9 11  1  0
 12 13  1  0
 12 31  1  0
 13 14  2  0
 13 32  1  0
 14 15  1  0
 16 17  2  0
 16 20  1  0
 17 18  1  0
 17 33  1  0
 18 19  2  0
 18 34  1  0
 19 20  1  0
 19 35  1  0
M  CHG  2   9   1  11  -1
M  END

