
     RDKit          3D

 32 33  0  0  0  0  0  0  0  0999 V2000
    1.0103    0.0069    0.2204 C   0  0  0  0  0  0  0  0  0  0  0  0
    2.5099    0.0510    0.0742 C   0  0  0  0  0  0  0  0  0  0  0  0
    3.1839    1.2677   -0.0701 C   0  0  0  0  0  0  0  0  0  0  0  0
    4.5774    1.3274   -0.2581 C   0  0  0  0  0  0  0  0  0  0  0  0
    5.2174    2.5767   -0.4490 N   0  0  0  0  0  0  0  0  0  0  0  0
    6.6013    2.5883   -0.8915 C   0  0  0  0  0  0  0  0  0  0  0  0
    6.9764    3.9793   -1.4015 C   0  0  0  0  0  0  0  0  0  0  0  0
    6.7371    4.9764   -0.4312 O   0  0  0  0  0  0  0  0  0  0  0  0
    5.3810    4.9877   -0.0356 C   0  0  0  0  0  0  0  0  0  0  0  0
    4.9512    3.6350    0.5231 C   0  0  0  0  0  0  0  0  0  0  0  0
    5.2873    0.1147   -0.2661 C   0  0  0  0  0  0  0  0  0  0  0  0
    4.6336   -1.1175   -0.1176 C   0  0  0  0  0  0  0  0  0  0  0  0
    5.3463   -2.3370   -0.1487 N   0  0  0  0  0  0  0  0  0  0  0  0
    3.2300   -1.1619    0.0354 C   0  0  0  0  0  0  0  0  0  0  0  0
    2.5566   -2.3941    0.0719 N   0  0  0  0  0  0  0  0  0  0  0  0
    0.5606    0.9995    0.0738 H   0  0  0  0  0  0  0  0  0  0  0  0
    0.7024   -0.3472    1.2222 H   0  0  0  0  0  0  0  0  0  0  0  0
    0.5671   -0.6919   -0.5089 H   0  0  0  0  0  0  0  0  0  0  0  0
    2.5978    2.1888   -0.0828 H   0  0  0  0  0  0  0  0  0  0  0  0
    6.7297    1.8627   -1.7095 H   0  0  0  0  0  0  0  0  0  0  0  0
    7.3044    2.3037   -0.0759 H   0  0  0  0  0  0  0  0  0  0  0  0
    6.3982    4.1946   -2.3240 H   0  0  0  0  0  0  0  0  0  0  0  0
    8.0490    4.0184   -1.6468 H   0  0  0  0  0  0  0  0  0  0  0  0
    4.7321    5.2502   -0.8971 H   0  0  0  0  0  0  0  0  0  0  0  0
    5.2752    5.7703    0.7315 H   0  0  0  0  0  0  0  0  0  0  0  0
    3.8801    3.6673    0.7641 H   0  0  0  0  0  0  0  0  0  0  0  0
    5.4987    3.4460    1.4737 H   0  0  0  0  0  0  0  0  0  0  0  0
    6.3748    0.1085   -0.3545 H   0  0  0  0  0  0  0  0  0  0  0  0
    6.3511   -2.2073   -0.2248 H   0  0  0  0  0  0  0  0  0  0  0  0
    5.1502   -2.9257    0.6611 H   0  0  0  0  0  0  0  0  0  0  0  0
    3.1445   -3.2060   -0.0728 H   0  0  0  0  0  0  0  0  0  0  0  0
    1.8794   -2.5253    0.8161 H   0  0  0  0  0  0  0  0  0  0  0  0
  1  2  1  0
  1 16  1  0
  1 17  1  0
  1 18  1  0
  2  3  2  0
  2 14  1  0
  3  4  1  0
  3 19  1  0
  4  5  1  0
  4 11  2  0
  5  6  1  0
  5 10  1  0
  6  7  1  0
  6 20  1  0
  6 21  1  0
  7  8  1  0
  7 22  1  0
  7 23  1  0
  8  9  1  0
  9 10  1  0
  9 24  1  0
  9 25  1  0
 10 26  1  0
 10 27  1  0
 11 12  1  0
 11 28  1  0
 12 13  1  0
 12 14  2  0
 13 29  1  0
 13 30  1  0
 14 15  1  0
 15 31  1  0
 15 32  1  0
M  END

