
     RDKit          3D

 46 46  0  0  0  0  0  0  0  0999 V2000
    4.1077   -4.5062    5.4986 C   0  0  0  0  0  0  0  0  0  0  0  0
    3.6883   -3.0262    5.4975 C   0  0  1  0  0  0  0  0  0  0  0  0
    4.0614   -2.3399    6.8133 C   0  0  0  0  0  0  0  0  0  0  0  0
    4.2457   -2.2425    4.3914 N   0  0  0  0  0  0  0  0  0  0  0  0
    3.8105   -2.5555    3.0456 C   0  0  1  0  0  0  0  0  0  0  0  0
    2.4009   -2.1658    2.8379 C   0  0  0  0  0  0  0  0  0  0  0  0
    1.2951   -1.8681    2.6610 N   0  0  0  0  0  0  0  0  0  0  0  0
    4.7110   -1.8004    2.0304 C   0  0  0  0  0  0  0  0  0  0  0  0
    6.1098   -2.1551    2.2137 N   0  0  0  0  0  0  0  0  0  0  0  0
    6.5455   -3.3707    1.5184 C   0  0  0  0  0  0  0  0  0  0  0  0
    6.9064   -3.1234    0.0389 C   0  0  0  0  0  0  0  0  0  0  0  0
    7.8568   -2.0362   -0.1555 N   0  0  0  0  0  0  0  0  0  0  0  0
    9.2806   -2.3493   -0.4204 C   0  0  1  0  0  0  0  0  0  0  0  0
    9.3711   -3.1238   -1.7552 C   0  0  0  0  0  0  0  0  0  0  0  0
   10.0910   -1.0520   -0.5937 C   0  0  0  0  0  0  0  0  0  0  0  0
    9.9453   -3.1925    0.6969 C   0  0  0  0  0  0  0  0  0  0  0  0
    7.4199   -0.8337    0.5411 C   0  0  0  0  0  0  0  0  0  0  0  0
    7.0820   -1.0750    2.0227 C   0  0  0  0  0  0  0  0  0  0  0  0
    3.6294   -5.0524    6.3275 H   0  0  0  0  0  0  0  0  0  0  0  0
    5.2008   -4.6019    5.6197 H   0  0  0  0  0  0  0  0  0  0  0  0
    3.8242   -5.0188    4.5654 H   0  0  0  0  0  0  0  0  0  0  0  0
    2.5891   -2.9806    5.3933 H   0  0  0  0  0  0  0  0  0  0  0  0
    5.1563   -2.3395    6.9561 H   0  0  0  0  0  0  0  0  0  0  0  0
    3.6132   -2.8580    7.6757 H   0  0  0  0  0  0  0  0  0  0  0  0
    3.7206   -1.2942    6.8112 H   0  0  0  0  0  0  0  0  0  0  0  0
    5.2673   -2.2808    4.3831 H   0  0  0  0  0  0  0  0  0  0  0  0
    3.8578   -3.6407    2.7996 H   0  0  0  0  0  0  0  0  0  0  0  0
    4.5891   -0.7250    2.2268 H   0  0  0  0  0  0  0  0  0  0  0  0
    4.3242   -1.9914    1.0104 H   0  0  0  0  0  0  0  0  0  0  0  0
    5.7546   -4.1357    1.5903 H   0  0  0  0  0  0  0  0  0  0  0  0
    7.4249   -3.7725    2.0503 H   0  0  0  0  0  0  0  0  0  0  0  0
    5.9750   -2.8871   -0.5157 H   0  0  0  0  0  0  0  0  0  0  0  0
    7.2903   -4.0543   -0.4011 H   0  0  0  0  0  0  0  0  0  0  0  0
    8.9271   -2.5304   -2.5688 H   0  0  0  0  0  0  0  0  0  0  0  0
    8.8448   -4.0893   -1.7144 H   0  0  0  0  0  0  0  0  0  0  0  0
   10.4210   -3.3394   -2.0089 H   0  0  0  0  0  0  0  0  0  0  0  0
    9.6279   -0.3893   -1.3412 H   0  0  0  0  0  0  0  0  0  0  0  0
   11.1044   -1.2997   -0.9432 H   0  0  0  0  0  0  0  0  0  0  0  0
   10.2030   -0.4936    0.3481 H   0  0  0  0  0  0  0  0  0  0  0  0
    9.4423   -4.1638    0.8252 H   0  0  0  0  0  0  0  0  0  0  0  0
    9.9192   -2.6644    1.6630 H   0  0  0  0  0  0  0  0  0  0  0  0
   11.0008   -3.4017    0.4568 H   0  0  0  0  0  0  0  0  0  0  0  0
    6.5068   -0.4504    0.0394 H   0  0  0  0  0  0  0  0  0  0  0  0
    8.1682   -0.0364    0.4548 H   0  0  0  0  0  0  0  0  0  0  0  0
    6.6896   -0.1547    2.4852 H   0  0  0  0  0  0  0  0  0  0  0  0
    8.0043   -1.3444    2.5695 H   0  0  0  0  0  0  0  0  0  0  0  0
  1  2  1  0
  1 19  1  0
  1 20  1  0
  1 21  1  0
  2  3  1  0
  2  4  1  0
  2 22  1  6
  3 23  1  0
  3 24  1  0
  3 25  1  0
  4  5  1  0
  4 26  1  0
  5  6  1  0
  5  8  1  0
  5 27  1  6
  6  7  3  0
  8  9  1  0
  8 28  1  0
  8 29  1  0
  9 10  1  0
  9 18  1  0
 10 11  1  0
 10 30  1  0
 10 31  1  0
 11 12  1  0
 11 32  1  0
 11 33  1  0
 12 13  1  0
 12 17  1  0
 13 14  1  6
 13 15  1  0
 13 16  1  0
 14 34  1  0
 14 35  1  0
 14 36  1  0
 15 37  1  0
 15 38  1  0
 15 39  1  0
 16 40  1  0
 16 41  1  0
 16 42  1  0
 17 18  1  0
 17 43  1  0
 17 44  1  0
 18 45  1  0
 18 46  1  0
M  END

