
     RDKit          3D

 35 36  0  0  0  0  0  0  0  0999 V2000
    1.6468   -0.0475    1.6645 C   0  0  0  0  0  0  0  0  0  0  0  0
    2.6526    0.0917    0.5530 C   0  0  0  0  0  0  0  0  0  0  0  0
    3.3680    1.2735    0.3606 C   0  0  0  0  0  0  0  0  0  0  0  0
    4.3237    1.3743   -0.6796 C   0  0  0  0  0  0  0  0  0  0  0  0
    5.0263    2.5499   -0.9544 N   0  0  0  0  0  0  0  0  0  0  0  0
    6.3047    2.4501   -1.6505 C   0  0  0  0  0  0  0  0  0  0  0  0
    6.5784    3.6946   -2.4931 C   0  0  0  0  0  0  0  0  0  0  0  0
    6.5106    4.9870   -1.6493 C   0  0  2  0  0  0  0  0  0  0  0  0
    7.7145    5.1462   -0.7052 C   0  0  0  0  0  0  0  0  0  0  0  0
    8.9232    5.2757   -1.3301 N   0  0  0  0  0  0  0  0  0  0  0  0
    7.6166    5.1655    0.5097 O   0  0  0  0  0  0  0  0  0  0  0  0
    5.1791    5.0193   -0.8867 C   0  0  0  0  0  0  0  0  0  0  0  0
    4.8844    3.7281   -0.1097 C   0  0  0  0  0  0  0  0  0  0  0  0
    4.5735    0.3181   -1.4644 N   0  0  0  0  0  0  0  0  0  0  0  0
    3.8928   -0.8104   -1.2878 C   0  0  0  0  0  0  0  0  0  0  0  0
    2.9083   -0.9998   -0.3093 C   0  0  0  0  0  0  0  0  0  0  0  0
    2.2696   -2.2365   -0.1297 N   0  0  0  0  0  0  0  0  0  0  0  0
    1.6382    0.8368    2.3174 H   0  0  0  0  0  0  0  0  0  0  0  0
    1.8641   -0.9362    2.2813 H   0  0  0  0  0  0  0  0  0  0  0  0
    0.6213   -0.1773    1.2715 H   0  0  0  0  0  0  0  0  0  0  0  0
    3.1878    2.1023    1.0444 H   0  0  0  0  0  0  0  0  0  0  0  0
    6.2716    1.5550   -2.2816 H   0  0  0  0  0  0  0  0  0  0  0  0
    7.1306    2.3053   -0.9197 H   0  0  0  0  0  0  0  0  0  0  0  0
    5.8200    3.7588   -3.2914 H   0  0  0  0  0  0  0  0  0  0  0  0
    7.5582    3.5889   -2.9875 H   0  0  0  0  0  0  0  0  0  0  0  0
    6.5462    5.8522   -2.3366 H   0  0  0  0  0  0  0  0  0  0  0  0
    9.0174    5.3128   -2.3356 H   0  0  0  0  0  0  0  0  0  0  0  0
    9.7491    5.3940   -0.7555 H   0  0  0  0  0  0  0  0  0  0  0  0
    4.3710    5.1817   -1.6197 H   0  0  0  0  0  0  0  0  0  0  0  0
    5.1672    5.8639   -0.1818 H   0  0  0  0  0  0  0  0  0  0  0  0
    3.8504    3.7883    0.2552 H   0  0  0  0  0  0  0  0  0  0  0  0
    5.5484    3.6738    0.7747 H   0  0  0  0  0  0  0  0  0  0  0  0
    4.1416   -1.6403   -1.9647 H   0  0  0  0  0  0  0  0  0  0  0  0
    2.3988   -2.8786   -0.9063 H   0  0  0  0  0  0  0  0  0  0  0  0
    1.2848   -2.1753    0.1136 H   0  0  0  0  0  0  0  0  0  0  0  0
  1  2  1  0
  1 18  1  0
  1 19  1  0
  1 20  1  0
  2  3  2  0
  2 16  1  0
  3  4  1  0
  3 21  1  0
  4  5  1  0
  4 14  2  0
  5  6  1  0
  5 13  1  0
  6  7  1  0
  6 22  1  0
  6 23  1  0
  7  8  1  0
  7 24  1  0
  7 25  1  0
  8  9  1  0
  8 12  1  0
  8 26  1  6
  9 10  1  0
  9 11  2  0
 10 27  1  0
 10 28  1  0
 12 13  1  0
 12 29  1  0
 12 30  1  0
 13 31  1  0
 13 32  1  0
 14 15  1  0
 15 16  2  0
 15 33  1  0
 16 17  1  0
 17 34  1  0
 17 35  1  0
M  END

