
     RDKit          3D

 37 38  0  0  0  0  0  0  0  0999 V2000
    1.2636   -0.5652    0.3517 C   0  0  0  0  0  0  0  0  0  0  0  0
    2.7415   -0.1904    0.2352 C   0  0  0  0  0  0  0  0  0  0  0  0
    3.0499    1.2802    0.5868 C   0  0  1  0  0  0  0  0  0  0  0  0
    2.6202    1.5617    1.9488 N   0  0  0  0  0  0  0  0  0  0  0  0
    1.7052    2.4964    2.3911 C   0  0  0  0  0  0  0  0  0  0  0  0
    1.3341    2.4780    3.7678 C   0  0  0  0  0  0  0  0  0  0  0  0
    0.4288    3.3828    4.2974 C   0  0  0  0  0  0  0  0  0  0  0  0
   -0.1556    4.3547    3.4669 C   0  0  0  0  0  0  0  0  0  0  0  0
   -1.0706    5.3163    3.8528 N   0  0  0  0  0  0  0  0  0  0  0  0
   -1.4250    6.0707    2.8689 C   0  0  0  0  0  0  0  0  0  0  0  0
   -2.3997    7.2027    2.9583 C   0  0  0  0  0  0  0  0  0  0  0  0
   -0.6504    5.6744    1.3043 S   0  0  0  0  0  0  0  0  0  0  0  0
    0.2129    4.3751    2.0985 C   0  0  0  0  0  0  0  0  0  0  0  0
    1.1296    3.4716    1.5522 C   0  0  0  0  0  0  0  0  0  0  0  0
    4.5445    1.6616    0.3775 C   0  0  1  0  0  0  0  0  0  0  0  0
    5.0388    1.3798   -1.0490 C   0  0  0  0  0  0  0  0  0  0  0  0
    4.8054    3.1278    0.7461 C   0  0  0  0  0  0  0  0  0  0  0  0
    1.1029   -1.6229    0.0893 H   0  0  0  0  0  0  0  0  0  0  0  0
    0.6425    0.0440   -0.3256 H   0  0  0  0  0  0  0  0  0  0  0  0
    0.8839   -0.4098    1.3730 H   0  0  0  0  0  0  0  0  0  0  0  0
    3.0852   -0.3948   -0.7903 H   0  0  0  0  0  0  0  0  0  0  0  0
    3.3492   -0.8431    0.8913 H   0  0  0  0  0  0  0  0  0  0  0  0
    2.4501    1.9140   -0.0867 H   0  0  0  0  0  0  0  0  0  0  0  0
    2.9596    0.9169    2.6526 H   0  0  0  0  0  0  0  0  0  0  0  0
    1.7816    1.7212    4.4188 H   0  0  0  0  0  0  0  0  0  0  0  0
    0.1576    3.3515    5.3547 H   0  0  0  0  0  0  0  0  0  0  0  0
   -2.7527    7.2805    3.9955 H   0  0  0  0  0  0  0  0  0  0  0  0
   -3.2675    7.0414    2.2975 H   0  0  0  0  0  0  0  0  0  0  0  0
   -1.9356    8.1593    2.6666 H   0  0  0  0  0  0  0  0  0  0  0  0
    1.3942    3.5330    0.4973 H   0  0  0  0  0  0  0  0  0  0  0  0
    5.1314    1.0288    1.0722 H   0  0  0  0  0  0  0  0  0  0  0  0
    4.4157    1.9041   -1.7946 H   0  0  0  0  0  0  0  0  0  0  0  0
    5.0351    0.3091   -1.3003 H   0  0  0  0  0  0  0  0  0  0  0  0
    6.0721    1.7400   -1.1762 H   0  0  0  0  0  0  0  0  0  0  0  0
    4.2748    3.8091    0.0589 H   0  0  0  0  0  0  0  0  0  0  0  0
    5.8797    3.3620    0.6777 H   0  0  0  0  0  0  0  0  0  0  0  0
    4.4721    3.3569    1.7683 H   0  0  0  0  0  0  0  0  0  0  0  0
  1  2  1  0
  1 18  1  0
  1 19  1  0
  1 20  1  0
  2  3  1  0
  2 21  1  0
  2 22  1  0
  3  4  1  0
  3 15  1  0
  3 23  1  6
  4  5  1  0
  4 24  1  0
  5  6  2  0
  5 14  1  0
  6  7  1  0
  6 25  1  0
  7  8  2  0
  7 26  1  0
  8  9  1  0
  8 13  1  0
  9 10  2  0
 10 11  1  0
 10 12  1  0
 11 27  1  0
 11 28  1  0
 11 29  1  0
 12 13  1  0
 13 14  2  0
 14 30  1  0
 15 16  1  0
 15 17  1  0
 15 31  1  1
 16 32  1  0
 16 33  1  0
 16 34  1  0
 17 35  1  0
 17 36  1  0
 17 37  1  0
M  END

