
     RDKit          3D

 45 46  0  0  0  0  0  0  0  0999 V2000
    6.8004   -3.4714   -1.6126 C   0  0  0  0  0  0  0  0  0  0  0  0
    6.6890   -2.4053   -0.5139 C   0  0  1  0  0  0  0  0  0  0  0  0
    7.9077   -1.4725   -0.5526 C   0  0  0  0  0  0  0  0  0  0  0  0
    5.3343   -1.6781   -0.6206 C   0  0  0  0  0  0  0  0  0  0  0  0
    4.9352   -0.7817    0.5631 C   0  0  1  0  0  0  0  0  0  0  0  0
    5.2236   -1.3072    1.4929 H   0  0  0  0  0  0  0  0  0  0  0  0
    5.4985    0.5725    0.6796 N   0  0  0  0  0  0  0  0  0  0  0  0
    5.5580    1.3947   -0.5363 C   0  0  0  0  0  0  0  0  0  0  0  0
    5.8490    2.8430   -0.2069 C   0  0  0  0  0  0  0  0  0  0  0  0
    7.1144    3.3997   -0.4378 C   0  0  0  0  0  0  0  0  0  0  0  0
    7.3702    4.7282   -0.0984 C   0  0  0  0  0  0  0  0  0  0  0  0
    6.3826    5.5420    0.4768 C   0  0  0  0  0  0  0  0  0  0  0  0
    5.1025    4.9935    0.7088 C   0  0  0  0  0  0  0  0  0  0  0  0
    4.8624    3.6556    0.3651 C   0  0  0  0  0  0  0  0  0  0  0  0
    3.9748    5.8355    1.2808 C   0  0  0  0  0  0  0  0  0  0  0  0
    4.4553    7.1175    1.9673 C   0  0  0  0  0  0  0  0  0  0  0  0
    5.4740    7.8465    1.0879 C   0  0  0  0  0  0  0  0  0  0  0  0
    6.7120    6.9725    0.8661 C   0  0  0  0  0  0  0  0  0  0  0  0
    3.3876   -0.6554    0.6818 C   0  0  0  0  0  0  0  0  0  0  0  0
    2.6123   -1.4986    0.3140 O   0  0  0  0  0  0  0  0  0  0  0  0
    3.0165    0.4732    1.2916 O   0  0  0  0  0  0  0  0  0  0  0  0
    7.7399   -4.0407   -1.5257 H   0  0  0  0  0  0  0  0  0  0  0  0
    6.7841   -3.0081   -2.6142 H   0  0  0  0  0  0  0  0  0  0  0  0
    5.9648   -4.1876   -1.5649 H   0  0  0  0  0  0  0  0  0  0  0  0
    6.6996   -2.9306    0.4610 H   0  0  0  0  0  0  0  0  0  0  0  0
    7.9483   -0.9142   -1.5038 H   0  0  0  0  0  0  0  0  0  0  0  0
    8.8449   -2.0462   -0.4693 H   0  0  0  0  0  0  0  0  0  0  0  0
    7.9044   -0.7380    0.2676 H   0  0  0  0  0  0  0  0  0  0  0  0
    4.5381   -2.4342   -0.6963 H   0  0  0  0  0  0  0  0  0  0  0  0
    5.2882   -1.1057   -1.5640 H   0  0  0  0  0  0  0  0  0  0  0  0
    6.3915    0.5821    1.1654 H   0  0  0  0  0  0  0  0  0  0  0  0
    4.5779    1.3182   -1.0366 H   0  0  0  0  0  0  0  0  0  0  0  0
    6.3088    1.0253   -1.2588 H   0  0  0  0  0  0  0  0  0  0  0  0
    7.9027    2.7919   -0.8918 H   0  0  0  0  0  0  0  0  0  0  0  0
    8.3626    5.1498   -0.2859 H   0  0  0  0  0  0  0  0  0  0  0  0
    3.8657    3.2376    0.5434 H   0  0  0  0  0  0  0  0  0  0  0  0
    3.3731    5.2246    1.9740 H   0  0  0  0  0  0  0  0  0  0  0  0
    3.2902    6.1058    0.4544 H   0  0  0  0  0  0  0  0  0  0  0  0
    4.9235    6.8697    2.9374 H   0  0  0  0  0  0  0  0  0  0  0  0
    3.5941    7.7672    2.1928 H   0  0  0  0  0  0  0  0  0  0  0  0
    5.7691    8.8069    1.5412 H   0  0  0  0  0  0  0  0  0  0  0  0
    5.0081    8.0885    0.1153 H   0  0  0  0  0  0  0  0  0  0  0  0
    7.3072    6.9509    1.7990 H   0  0  0  0  0  0  0  0  0  0  0  0
    7.3727    7.4193    0.1044 H   0  0  0  0  0  0  0  0  0  0  0  0
    3.8742    0.9518    1.4357 H   0  0  0  0  0  0  0  0  0  0  0  0
  1  2  1  0
  1 22  1  0
  1 23  1  0
  1 24  1  0
  2  3  1  0
  2  4  1  0
  2 25  1  1
  3 26  1  0
  3 27  1  0
  3 28  1  0
  4  5  1  0
  4 29  1  0
  4 30  1  0
  5  6  1  1
  5  7  1  0
  5 19  1  0
  7  8  1  0
  7 31  1  0
  8  9  1  0
  8 32  1  0
  8 33  1  0
  9 10  2  0
  9 14  1  0
 10 11  1  0
 10 34  1  0
 11 12  2  0
 11 35  1  0
 12 13  1  0
 12 18  1  0
 13 14  2  0
 13 15  1  0
 14 36  1  0
 15 16  1  0
 15 37  1  0
 15 38  1  0
 16 17  1  0
 16 39  1  0
 16 40  1  0
 17 18  1  0
 17 41  1  0
 17 42  1  0
 18 43  1  0
 18 44  1  0
 19 20  2  0
 19 21  1  0
 21 45  1  0
M  END

