
     RDKit          3D

 51 50  0  0  0  0  0  0  0  0999 V2000
    0.9520   -3.3991   -1.4231 C   0  0  0  0  0  0  0  0  0  0  0  0
    2.4337   -3.7666   -1.3231 C   0  0  0  0  0  0  0  0  0  0  0  0
    3.2115   -2.8536   -0.3694 C   0  0  0  0  0  0  0  0  0  0  0  0
    4.6809   -3.2324   -0.1315 C   0  0  2  0  0  0  0  0  0  0  0  0
    4.7130   -4.3059    0.1636 H   0  0  0  0  0  0  0  0  0  0  0  0
    5.2510   -2.3519    0.8873 N   0  0  0  0  0  0  0  0  0  0  0  0
    5.5064   -3.1053   -1.4065 C   0  0  0  0  0  0  0  0  0  0  0  0
    6.8734   -3.4082   -1.0789 O   0  0  0  0  0  0  0  0  0  0  0  0
    7.6980   -3.8379   -2.0497 C   0  0  0  0  0  0  0  0  0  0  0  0
    7.3502   -4.0759   -3.1791 O   0  0  0  0  0  0  0  0  0  0  0  0
    9.1480   -3.9733   -1.5528 C   0  0  1  0  0  0  0  0  0  0  0  0
    9.3013   -3.6454   -0.1504 N   0  0  0  0  0  0  0  0  0  0  0  0
    9.4104   -2.3267    0.2293 C   0  0  0  0  0  0  0  0  0  0  0  0
    9.7866   -1.4336   -0.4995 O   0  0  0  0  0  0  0  0  0  0  0  0
    9.0408   -2.1973    1.5218 O   0  0  0  0  0  0  0  0  0  0  0  0
    9.0780   -0.8999    2.2101 C   0  0  1  0  0  0  0  0  0  0  0  0
    8.1389    0.0921    1.5140 C   0  0  0  0  0  0  0  0  0  0  0  0
    8.5627   -1.2451    3.6088 C   0  0  0  0  0  0  0  0  0  0  0  0
   10.5201   -0.3873    2.2747 C   0  0  0  0  0  0  0  0  0  0  0  0
    9.7357   -5.3543   -1.9308 C   0  0  1  0  0  0  0  0  0  0  0  0
   11.2578   -5.3691   -1.7606 C   0  0  0  0  0  0  0  0  0  0  0  0
    9.0687   -6.5040   -1.1637 C   0  0  0  0  0  0  0  0  0  0  0  0
    0.4165   -4.0674   -2.1158 H   0  0  0  0  0  0  0  0  0  0  0  0
    0.8194   -2.3667   -1.7871 H   0  0  0  0  0  0  0  0  0  0  0  0
    0.4543   -3.4680   -0.4413 H   0  0  0  0  0  0  0  0  0  0  0  0
    2.8814   -3.7318   -2.3314 H   0  0  0  0  0  0  0  0  0  0  0  0
    2.5312   -4.8148   -0.9865 H   0  0  0  0  0  0  0  0  0  0  0  0
    2.7055   -2.8567    0.6137 H   0  0  0  0  0  0  0  0  0  0  0  0
    3.1731   -1.8068   -0.7198 H   0  0  0  0  0  0  0  0  0  0  0  0
    6.2234   -2.6021    1.0670 H   0  0  0  0  0  0  0  0  0  0  0  0
    4.7497   -2.4586    1.7691 H   0  0  0  0  0  0  0  0  0  0  0  0
    5.4682   -2.0707   -1.7862 H   0  0  0  0  0  0  0  0  0  0  0  0
    5.1662   -3.7879   -2.1970 H   0  0  0  0  0  0  0  0  0  0  0  0
    9.7021   -3.2008   -2.1094 H   0  0  0  0  0  0  0  0  0  0  0  0
    8.8112   -4.2315    0.5160 H   0  0  0  0  0  0  0  0  0  0  0  0
    7.1372   -0.3468    1.3832 H   0  0  0  0  0  0  0  0  0  0  0  0
    8.5257    0.3739    0.5267 H   0  0  0  0  0  0  0  0  0  0  0  0
    8.0419    1.0008    2.1289 H   0  0  0  0  0  0  0  0  0  0  0  0
    7.5345   -1.6354    3.5596 H   0  0  0  0  0  0  0  0  0  0  0  0
    8.5615   -0.3482    4.2463 H   0  0  0  0  0  0  0  0  0  0  0  0
    9.2003   -2.0084    4.0802 H   0  0  0  0  0  0  0  0  0  0  0  0
   10.9055   -0.1708    1.2703 H   0  0  0  0  0  0  0  0  0  0  0  0
   11.1734   -1.1335    2.7539 H   0  0  0  0  0  0  0  0  0  0  0  0
   10.5593    0.5359    2.8738 H   0  0  0  0  0  0  0  0  0  0  0  0
    9.4991   -5.4794   -3.0000 H   0  0  0  0  0  0  0  0  0  0  0  0
   11.5399   -5.1932   -0.7103 H   0  0  0  0  0  0  0  0  0  0  0  0
   11.7374   -4.5867   -2.3701 H   0  0  0  0  0  0  0  0  0  0  0  0
   11.6761   -6.3407   -2.0678 H   0  0  0  0  0  0  0  0  0  0  0  0
    9.2839   -6.4509   -0.0826 H   0  0  0  0  0  0  0  0  0  0  0  0
    9.4470   -7.4758   -1.5176 H   0  0  0  0  0  0  0  0  0  0  0  0
    7.9746   -6.5105   -1.2977 H   0  0  0  0  0  0  0  0  0  0  0  0
  1  2  1  0
  1 23  1  0
  1 24  1  0
  1 25  1  0
  2  3  1  0
  2 26  1  0
  2 27  1  0
  3  4  1  0
  3 28  1  0
  3 29  1  0
  4  5  1  1
  4  6  1  0
  4  7  1  0
  6 30  1  0
  6 31  1  0
  7  8  1  0
  7 32  1  0
  7 33  1  0
  8  9  1  0
  9 10  2  0
  9 11  1  0
 11 12  1  0
 11 20  1  0
 11 34  1  6
 12 13  1  0
 12 35  1  0
 13 14  2  0
 13 15  1  0
 16 15  1  6
 16 17  1  0
 16 18  1  0
 16 19  1  0
 17 36  1  0
 17 37  1  0
 17 38  1  0
 18 39  1  0
 18 40  1  0
 18 41  1  0
 19 42  1  0
 19 43  1  0
 19 44  1  0
 20 21  1  0
 20 22  1  0
 20 45  1  6
 21 46  1  0
 21 47  1  0
 21 48  1  0
 22 49  1  0
 22 50  1  0
 22 51  1  0
M  END

