
     RDKit          3D

 62 65  0  0  0  0  0  0  0  0999 V2000
    6.6981   -0.1984   -0.7863 C   0  0  0  0  0  0  0  0  0  0  0  0
    5.4227   -0.1517    0.0592 C   0  0  0  0  0  0  0  0  0  0  0  0
    5.2082   -1.3316    0.8707 N   0  0  0  0  0  0  0  0  0  0  0  0
    4.7735   -2.6107    0.3332 C   0  0  0  0  0  0  0  0  0  0  0  0
    4.6641   -3.4775    1.5658 C   0  0  0  0  0  0  0  0  0  0  0  0
    4.2951   -4.8081    1.6971 C   0  0  0  0  0  0  0  0  0  0  0  0
    4.2699   -5.3698    2.9891 C   0  0  0  0  0  0  0  0  0  0  0  0
    3.9011   -6.6801    3.0459 O   0  0  0  0  0  0  0  0  0  0  0  0
    3.7396   -7.3122    4.3138 C   0  0  0  0  0  0  0  0  0  0  0  0
    3.3422   -8.7423    4.1281 C   0  0  0  0  0  0  0  0  0  0  0  0
    4.1521   -9.8295    4.3576 C   0  0  0  0  0  0  0  0  0  0  0  0
    3.3889  -10.9483    4.1463 N   0  0  0  0  0  0  0  0  0  0  0  0
    3.8773  -12.2782    4.2852 C   0  0  0  0  0  0  0  0  0  0  0  0
    5.0239  -12.4746    4.6060 O   0  0  0  0  0  0  0  0  0  0  0  0
    2.9308  -13.1547    4.0238 O   0  0  0  0  0  0  0  0  0  0  0  0
    3.1725  -14.6127    4.0832 C   0  0  1  0  0  0  0  0  0  0  0  0
    3.5624  -15.0093    5.5091 C   0  0  0  0  0  0  0  0  0  0  0  0
    1.8093  -15.1888    3.7029 C   0  0  0  0  0  0  0  0  0  0  0  0
    4.2406  -14.9966    3.0566 C   0  0  0  0  0  0  0  0  0  0  0  0
    2.1243  -10.6438    3.7890 N   0  0  0  0  0  0  0  0  0  0  0  0
    2.0669   -9.3192    3.7657 C   0  0  0  0  0  0  0  0  0  0  0  0
    0.7929   -8.6512    3.4291 C   0  0  0  0  0  0  0  0  0  0  0  0
   -0.4265   -9.3201    3.6508 C   0  0  0  0  0  0  0  0  0  0  0  0
   -1.6378   -8.7140    3.3228 C   0  0  0  0  0  0  0  0  0  0  0  0
   -1.6611   -7.4306    2.7686 C   0  0  0  0  0  0  0  0  0  0  0  0
   -0.4545   -6.7623    2.5400 C   0  0  0  0  0  0  0  0  0  0  0  0
   -0.4552   -5.3623    1.9771 C   0  0  1  0  0  0  0  0  0  0  0  0
   -1.5467   -5.1210    1.2294 F   0  0  0  0  0  0  0  0  0  0  0  0
   -0.4366   -4.4345    2.9539 F   0  0  0  0  0  0  0  0  0  0  0  0
    0.6226   -5.1323    1.2028 F   0  0  0  0  0  0  0  0  0  0  0  0
    0.7649   -7.3672    2.8633 C   0  0  0  0  0  0  0  0  0  0  0  0
    4.6062   -4.5966    4.1184 C   0  0  0  0  0  0  0  0  0  0  0  0
    4.9787   -3.2569    3.9642 C   0  0  0  0  0  0  0  0  0  0  0  0
    5.0051   -2.7098    2.6859 C   0  0  0  0  0  0  0  0  0  0  0  0
    5.3524   -1.3293    2.2493 C   0  0  0  0  0  0  0  0  0  0  0  0
    5.6899   -0.3779    2.9301 O   0  0  0  0  0  0  0  0  0  0  0  0
    6.8039    0.7307   -1.3692 H   0  0  0  0  0  0  0  0  0  0  0  0
    6.6887   -1.0380   -1.5007 H   0  0  0  0  0  0  0  0  0  0  0  0
    7.5874   -0.3036   -0.1457 H   0  0  0  0  0  0  0  0  0  0  0  0
    4.5420    0.0047   -0.5914 H   0  0  0  0  0  0  0  0  0  0  0  0
    5.4686    0.6937    0.7622 H   0  0  0  0  0  0  0  0  0  0  0  0
    5.4978   -3.0234   -0.3943 H   0  0  0  0  0  0  0  0  0  0  0  0
    3.8029   -2.5198   -0.1924 H   0  0  0  0  0  0  0  0  0  0  0  0
    4.0198   -5.4340    0.8457 H   0  0  0  0  0  0  0  0  0  0  0  0
    2.9763   -6.7696    4.9015 H   0  0  0  0  0  0  0  0  0  0  0  0
    4.6877   -7.2702    4.8772 H   0  0  0  0  0  0  0  0  0  0  0  0
    5.1924   -9.9145    4.6605 H   0  0  0  0  0  0  0  0  0  0  0  0
    2.7980  -14.6711    6.2257 H   0  0  0  0  0  0  0  0  0  0  0  0
    4.5323  -14.5813    5.7935 H   0  0  0  0  0  0  0  0  0  0  0  0
    3.6306  -16.1060    5.5769 H   0  0  0  0  0  0  0  0  0  0  0  0
    1.0383  -14.8629    4.4167 H   0  0  0  0  0  0  0  0  0  0  0  0
    1.8501  -16.2883    3.7071 H   0  0  0  0  0  0  0  0  0  0  0  0
    1.5131  -14.8515    2.6986 H   0  0  0  0  0  0  0  0  0  0  0  0
    5.2180  -14.5689    3.3149 H   0  0  0  0  0  0  0  0  0  0  0  0
    3.9521  -14.6491    2.0525 H   0  0  0  0  0  0  0  0  0  0  0  0
    4.3367  -16.0928    3.0228 H   0  0  0  0  0  0  0  0  0  0  0  0
   -0.4039  -10.3229    4.0805 H   0  0  0  0  0  0  0  0  0  0  0  0
   -2.5763   -9.2452    3.4992 H   0  0  0  0  0  0  0  0  0  0  0  0
   -2.6079   -6.9553    2.5064 H   0  0  0  0  0  0  0  0  0  0  0  0
    1.6980   -6.8534    2.6349 H   0  0  0  0  0  0  0  0  0  0  0  0
    4.5795   -5.0299    5.1178 H   0  0  0  0  0  0  0  0  0  0  0  0
    5.2433   -2.6434    4.8287 H   0  0  0  0  0  0  0  0  0  0  0  0
  1  2  1  0
  1 37  1  0
  1 38  1  0
  1 39  1  0
  2  3  1  0
  2 40  1  0
  2 41  1  0
  3  4  1  0
  3 35  1  0
  4  5  1  0
  4 42  1  0
  4 43  1  0
  5  6  2  0
  5 34  1  0
  6  7  1  0
  6 44  1  0
  7  8  1  0
  7 32  2  0
  8  9  1  0
  9 10  1  0
  9 45  1  0
  9 46  1  0
 10 11  2  0
 10 21  1  0
 11 12  1  0
 11 47  1  0
 12 13  1  0
 12 20  1  0
 13 14  2  0
 13 15  1  0
 16 15  1  1
 16 17  1  0
 16 18  1  0
 16 19  1  0
 17 48  1  0
 17 49  1  0
 17 50  1  0
 18 51  1  0
 18 52  1  0
 18 53  1  0
 19 54  1  0
 19 55  1  0
 19 56  1  0
 20 21  2  0
 21 22  1  0
 22 23  2  0
 22 31  1  0
 23 24  1  0
 23 57  1  0
 24 25  2  0
 24 58  1  0
 25 26  1  0
 25 59  1  0
 26 27  1  0
 26 31  2  0
 27 28  1  6
 27 29  1  0
 27 30  1  0
 31 60  1  0
 32 33  1  0
 32 61  1  0
 33 34  2  0
 33 62  1  0
 34 35  1  0
 35 36  2  0
M  END

