
     RDKit          3D

 43 45  0  0  0  0  0  0  0  0999 V2000
   10.4038   -1.5759   -0.3188 C   0  0  0  0  0  0  0  0  0  0  0  0
    8.9885   -1.0980   -0.1400 C   0  0  0  0  0  0  0  0  0  0  0  0
    8.7024    0.3011   -0.0407 C   0  0  0  0  0  0  0  0  0  0  0  0
    7.4078    0.7446    0.1233 C   0  0  0  0  0  0  0  0  0  0  0  0
    6.9675    2.1660    0.2380 C   0  0  0  0  0  0  0  0  0  0  0  0
    6.4436   -0.2242    0.1821 N   0  0  0  0  0  0  0  0  0  0  0  0
    5.1189   -0.0133    0.3277 N   0  0  0  0  0  0  0  0  0  0  0  0
    4.5866   -1.2366    0.3217 C   0  0  0  0  0  0  0  0  0  0  0  0
    5.5433   -2.2652    0.1768 C   0  0  0  0  0  0  0  0  0  0  0  0
    5.2662   -3.7212    0.1190 C   0  0  0  0  0  0  0  0  0  0  0  0
    4.1211   -4.1582    0.1357 O   0  0  0  0  0  0  0  0  0  0  0  0
    6.3751   -4.5190    0.0489 N   0  0  0  0  0  0  0  0  0  0  0  0
    6.2742   -5.9609   -0.0405 C   0  0  0  0  0  0  0  0  0  0  0  0
    6.3184   -6.4926   -1.4822 C   0  0  0  0  0  0  0  0  0  0  0  0
    7.5596   -6.0777   -2.2796 C   0  0  0  0  0  0  0  0  0  0  0  0
    8.8165   -6.5551   -1.7114 N   0  0  0  0  0  0  0  0  0  0  0  0
    9.4608   -5.8311   -0.7737 N   0  0  0  0  0  0  0  0  0  0  0  0
   10.5253   -6.5415   -0.3995 C   0  0  0  0  0  0  0  0  0  0  0  0
   11.4929   -6.0490    0.6274 C   0  0  0  0  0  0  0  0  0  0  0  0
   10.5661   -7.7648   -1.1154 C   0  0  0  0  0  0  0  0  0  0  0  0
   11.7472   -9.0153   -0.9986 Cl  0  0  0  0  0  0  0  0  0  0  0  0
    9.4516   -7.7362   -1.9417 C   0  0  0  0  0  0  0  0  0  0  0  0
    8.8939   -8.9023   -3.0711 Cl  0  0  0  0  0  0  0  0  0  0  0  0
    6.7647   -1.5836    0.0844 C   0  0  0  0  0  0  0  0  0  0  0  0
    8.0313   -2.0054   -0.0742 N   0  0  0  0  0  0  0  0  0  0  0  0
   10.8915   -1.0648   -1.1649 H   0  0  0  0  0  0  0  0  0  0  0  0
   10.4078   -2.6593   -0.4974 H   0  0  0  0  0  0  0  0  0  0  0  0
   11.0058   -1.3593    0.5802 H   0  0  0  0  0  0  0  0  0  0  0  0
    9.5113    1.0308   -0.0964 H   0  0  0  0  0  0  0  0  0  0  0  0
    7.8268    2.8461    0.1775 H   0  0  0  0  0  0  0  0  0  0  0  0
    6.4351    2.3246    1.1892 H   0  0  0  0  0  0  0  0  0  0  0  0
    6.2465    2.4073   -0.5592 H   0  0  0  0  0  0  0  0  0  0  0  0
    3.5098   -1.3678    0.4228 H   0  0  0  0  0  0  0  0  0  0  0  0
    7.2967   -4.0827    0.0324 H   0  0  0  0  0  0  0  0  0  0  0  0
    5.3179   -6.2569    0.4141 H   0  0  0  0  0  0  0  0  0  0  0  0
    7.0872   -6.4074    0.5533 H   0  0  0  0  0  0  0  0  0  0  0  0
    5.4341   -6.1202   -2.0261 H   0  0  0  0  0  0  0  0  0  0  0  0
    6.2431   -7.5935   -1.4661 H   0  0  0  0  0  0  0  0  0  0  0  0
    7.6410   -4.9825   -2.3241 H   0  0  0  0  0  0  0  0  0  0  0  0
    7.4966   -6.4571   -3.3093 H   0  0  0  0  0  0  0  0  0  0  0  0
   11.1338   -5.1035    1.0563 H   0  0  0  0  0  0  0  0  0  0  0  0
   12.4910   -5.8814    0.1900 H   0  0  0  0  0  0  0  0  0  0  0  0
   11.6158   -6.7818    1.4410 H   0  0  0  0  0  0  0  0  0  0  0  0
  1  2  1  0
  1 26  1  0
  1 27  1  0
  1 28  1  0
  2  3  1  0
  2 25  2  0
  3  4  2  0
  3 29  1  0
  4  5  1  0
  4  6  1  0
  5 30  1  0
  5 31  1  0
  5 32  1  0
  6  7  1  0
  6 24  1  0
  7  8  2  0
  8  9  1  0
  8 33  1  0
  9 10  1  0
  9 24  2  0
 10 11  2  0
 10 12  1  0
 12 13  1  0
 12 34  1  0
 13 14  1  0
 13 35  1  0
 13 36  1  0
 14 15  1  0
 14 37  1  0
 14 38  1  0
 15 16  1  0
 15 39  1  0
 15 40  1  0
 16 17  1  0
 16 22  1  0
 17 18  2  0
 18 19  1  0
 18 20  1  0
 19 41  1  0
 19 42  1  0
 19 43  1  0
 20 21  1  0
 20 22  2  0
 22 23  1  0
 24 25  1  0
M  END

