
     RDKit          3D

 37 40  0  0  0  0  0  0  0  0999 V2000
    1.7470    0.5142   -1.4006 O   0  0  0  0  0  0  0  0  0  0  0  0
    2.7371    0.3216   -0.6963 C   0  0  0  0  0  0  0  0  0  0  0  0
    3.4456   -0.9819   -0.6302 C   0  0  0  0  0  0  0  0  0  0  0  0
    3.1198   -2.0217   -1.4811 C   0  0  0  0  0  0  0  0  0  0  0  0
    3.7599   -3.3225   -1.3663 C   0  0  0  0  0  0  0  0  0  0  0  0
    3.5185   -4.3490   -2.2223 C   0  0  0  0  0  0  0  0  0  0  0  0
    2.6109   -4.2455   -3.3506 C   0  0  0  0  0  0  0  0  0  0  0  0
    2.4260   -5.3099   -4.2546 C   0  0  0  0  0  0  0  0  0  0  0  0
    1.5562   -5.1801   -5.3343 C   0  0  0  0  0  0  0  0  0  0  0  0
    0.8605   -3.9787   -5.5197 C   0  0  0  0  0  0  0  0  0  0  0  0
    1.0378   -2.9197   -4.6253 C   0  0  0  0  0  0  0  0  0  0  0  0
    1.9078   -3.0352   -3.5343 C   0  0  0  0  0  0  0  0  0  0  0  0
    2.0630   -1.8884   -2.5637 C   0  0  0  0  0  0  0  0  0  0  0  0
    4.4931   -1.1035    0.4645 C   0  0  0  0  0  0  0  0  0  0  0  0
    5.3620    0.1533    0.5867 C   0  0  0  0  0  0  0  0  0  0  0  0
    4.5198    1.3888    0.7734 C   0  0  0  0  0  0  0  0  0  0  0  0
    4.9621    2.4869    1.5241 C   0  0  0  0  0  0  0  0  0  0  0  0
    4.1663    3.6262    1.6593 C   0  0  0  0  0  0  0  0  0  0  0  0
    2.9121    3.6858    1.0380 C   0  0  0  0  0  0  0  0  0  0  0  0
    2.4646    2.6027    0.2861 C   0  0  0  0  0  0  0  0  0  0  0  0
    3.2559    1.4489    0.1535 C   0  0  0  0  0  0  0  0  0  0  0  0
    4.4647   -3.4935   -0.5537 H   0  0  0  0  0  0  0  0  0  0  0  0
    4.0361   -5.3014   -2.0729 H   0  0  0  0  0  0  0  0  0  0  0  0
    2.9773   -6.2418   -4.0996 H   0  0  0  0  0  0  0  0  0  0  0  0
    1.4185   -6.0094   -6.0324 H   0  0  0  0  0  0  0  0  0  0  0  0
    0.1770   -3.8667   -6.3653 H   0  0  0  0  0  0  0  0  0  0  0  0
    0.4902   -1.9846   -4.7756 H   0  0  0  0  0  0  0  0  0  0  0  0
    1.0914   -1.7008   -2.0714 H   0  0  0  0  0  0  0  0  0  0  0  0
    2.2143   -0.9487   -3.1181 H   0  0  0  0  0  0  0  0  0  0  0  0
    5.1481   -1.9680    0.3034 H   0  0  0  0  0  0  0  0  0  0  0  0
    3.9890   -1.2725    1.4357 H   0  0  0  0  0  0  0  0  0  0  0  0
    5.9748    0.2623   -0.3282 H   0  0  0  0  0  0  0  0  0  0  0  0
    6.0709    0.0461    1.4232 H   0  0  0  0  0  0  0  0  0  0  0  0
    5.9417    2.4455    2.0092 H   0  0  0  0  0  0  0  0  0  0  0  0
    4.5242    4.4714    2.2534 H   0  0  0  0  0  0  0  0  0  0  0  0
    2.2890    4.5775    1.1431 H   0  0  0  0  0  0  0  0  0  0  0  0
    1.4974    2.6186   -0.2198 H   0  0  0  0  0  0  0  0  0  0  0  0
  1  2  2  0
  2  3  1  0
  2 21  1  0
  3  4  2  0
  3 14  1  0
  4  5  1  0
  4 13  1  0
  5  6  2  0
  5 22  1  0
  6  7  1  0
  6 23  1  0
  7  8  2  0
  7 12  1  0
  8  9  1  0
  8 24  1  0
  9 10  2  0
  9 25  1  0
 10 11  1  0
 10 26  1  0
 11 12  2  0
 11 27  1  0
 12 13  1  0
 13 28  1  0
 13 29  1  0
 14 15  1  0
 14 30  1  0
 14 31  1  0
 15 16  1  0
 15 32  1  0
 15 33  1  0
 16 17  1  0
 16 21  2  0
 17 18  2  0
 17 34  1  0
 18 19  1  0
 18 35  1  0
 19 20  2  0
 19 36  1  0
 20 21  1  0
 20 37  1  0
M  END

