
     RDKit          3D

 53 55  0  0  0  0  0  0  0  0999 V2000
    1.8733    1.1558   -1.1471 C   0  0  0  0  0  0  0  0  0  0  0  0
    2.7034    0.3703   -0.1320 C   0  0  0  0  0  0  0  0  0  0  0  0
    3.5711    1.2696    0.7351 C   0  0  0  0  0  0  0  0  0  0  0  0
    4.2975    0.4506    1.6380 O   0  0  0  0  0  0  0  0  0  0  0  0
    5.1489    1.0097    2.5284 C   0  0  0  0  0  0  0  0  0  0  0  0
    5.3914    2.3891    2.6427 C   0  0  0  0  0  0  0  0  0  0  0  0
    6.2923    2.8602    3.5984 C   0  0  0  0  0  0  0  0  0  0  0  0
    6.9740    1.9809    4.4625 C   0  0  0  0  0  0  0  0  0  0  0  0
    7.8934    2.4702    5.4368 C   0  0  0  0  0  0  0  0  0  0  0  0
    8.6810    2.8854    6.2719 C   0  0  0  0  0  0  0  0  0  0  0  0
    9.6001    3.3735    7.2465 C   0  0  0  0  0  0  0  0  0  0  0  0
    9.8636    4.7549    7.3767 C   0  0  0  0  0  0  0  0  0  0  0  0
   10.7647    5.2155    8.3308 C   0  0  0  0  0  0  0  0  0  0  0  0
   11.4533    4.3476    9.2034 C   0  0  0  0  0  0  0  0  0  0  0  0
   12.3974    4.8662   10.2252 C   0  0  0  0  0  0  0  0  0  0  0  0
   12.1257    6.0733   10.8984 C   0  0  0  0  0  0  0  0  0  0  0  0
   13.0141    6.5918   11.8392 C   0  0  0  0  0  0  0  0  0  0  0  0
   14.2133    5.9310   12.1527 C   0  0  0  0  0  0  0  0  0  0  0  0
   15.1565    6.4895   13.1964 C   0  0  0  0  0  0  0  0  0  0  0  0
   14.7134    6.2450   14.6546 C   0  0  0  0  0  0  0  0  0  0  0  0
   14.6914    4.7744   15.0718 C   0  0  0  0  0  0  0  0  0  0  0  0
   14.4834    4.7286   11.4815 C   0  0  0  0  0  0  0  0  0  0  0  0
   13.5975    4.2021   10.5407 C   0  0  0  0  0  0  0  0  0  0  0  0
   11.1708    2.9777    9.0488 C   0  0  0  0  0  0  0  0  0  0  0  0
   11.7738    2.0829    9.8528 F   0  0  0  0  0  0  0  0  0  0  0  0
   10.2758    2.4862    8.1089 C   0  0  0  0  0  0  0  0  0  0  0  0
    6.7176    0.5946    4.3332 C   0  0  0  0  0  0  0  0  0  0  0  0
    5.8235    0.1192    3.3859 C   0  0  0  0  0  0  0  0  0  0  0  0
    1.2563    0.4806   -1.7593 H   0  0  0  0  0  0  0  0  0  0  0  0
    2.5132    1.7335   -1.8349 H   0  0  0  0  0  0  0  0  0  0  0  0
    1.1921    1.8673   -0.6509 H   0  0  0  0  0  0  0  0  0  0  0  0
    3.3579   -0.3531   -0.6467 H   0  0  0  0  0  0  0  0  0  0  0  0
    2.0464   -0.2206    0.5283 H   0  0  0  0  0  0  0  0  0  0  0  0
    2.9451    1.9905    1.2956 H   0  0  0  0  0  0  0  0  0  0  0  0
    4.2699    1.8567    0.1084 H   0  0  0  0  0  0  0  0  0  0  0  0
    4.8850    3.1034    1.9937 H   0  0  0  0  0  0  0  0  0  0  0  0
    6.4748    3.9338    3.6803 H   0  0  0  0  0  0  0  0  0  0  0  0
    9.3593    5.4600    6.7140 H   0  0  0  0  0  0  0  0  0  0  0  0
   10.9666    6.2868    8.3954 H   0  0  0  0  0  0  0  0  0  0  0  0
   11.1939    6.6064   10.6947 H   0  0  0  0  0  0  0  0  0  0  0  0
   12.7686    7.5314   12.3436 H   0  0  0  0  0  0  0  0  0  0  0  0
   15.2595    7.5772   13.0415 H   0  0  0  0  0  0  0  0  0  0  0  0
   16.1615    6.0581   13.0489 H   0  0  0  0  0  0  0  0  0  0  0  0
   13.7122    6.6871   14.8037 H   0  0  0  0  0  0  0  0  0  0  0  0
   15.3942    6.8055   15.3193 H   0  0  0  0  0  0  0  0  0  0  0  0
   13.9934    4.1870   14.4542 H   0  0  0  0  0  0  0  0  0  0  0  0
   14.3799    4.6647   16.1229 H   0  0  0  0  0  0  0  0  0  0  0  0
   15.6897    4.3150   14.9720 H   0  0  0  0  0  0  0  0  0  0  0  0
   15.4133    4.1933   11.6939 H   0  0  0  0  0  0  0  0  0  0  0  0
   13.8475    3.2684   10.0362 H   0  0  0  0  0  0  0  0  0  0  0  0
   10.1039    1.4104    8.0572 H   0  0  0  0  0  0  0  0  0  0  0  0
    7.2344   -0.1061    4.9922 H   0  0  0  0  0  0  0  0  0  0  0  0
    5.6227   -0.9490    3.2827 H   0  0  0  0  0  0  0  0  0  0  0  0
  1  2  1  0
  1 29  1  0
  1 30  1  0
  1 31  1  0
  2  3  1  0
  2 32  1  0
  2 33  1  0
  3  4  1  0
  3 34  1  0
  3 35  1  0
  4  5  1  0
  5  6  2  0
  5 28  1  0
  6  7  1  0
  6 36  1  0
  7  8  2  0
  7 37  1  0
  8  9  1  0
  8 27  1  0
  9 10  3  0
 10 11  1  0
 11 12  2  0
 11 26  1  0
 12 13  1  0
 12 38  1  0
 13 14  2  0
 13 39  1  0
 14 15  1  0
 14 24  1  0
 15 16  2  0
 15 23  1  0
 16 17  1  0
 16 40  1  0
 17 18  2  0
 17 41  1  0
 18 19  1  0
 18 22  1  0
 19 20  1  0
 19 42  1  0
 19 43  1  0
 20 21  1  0
 20 44  1  0
 20 45  1  0
 21 46  1  0
 21 47  1  0
 21 48  1  0
 22 23  2  0
 22 49  1  0
 23 50  1  0
 24 25  1  0
 24 26  2  0
 26 51  1  0
 27 28  2  0
 27 52  1  0
 28 53  1  0
M  END

