
     RDKit          3D

 50 50  0  0  0  0  0  0  0  0999 V2000
    0.5486   -0.1137    0.0079 C   0  0  0  0  0  0  0  0  0  0  0  0
    2.0771   -0.0877   -0.0365 C   0  0  0  0  0  0  0  0  0  0  0  0
    2.6960    1.0496    0.7823 C   0  0  0  0  0  0  0  0  0  0  0  0
    4.2265    1.0832    0.7427 C   0  0  0  0  0  0  0  0  0  0  0  0
    4.8446    2.2201    1.5617 C   0  0  0  0  0  0  0  0  0  0  0  0
    6.3751    2.2533    1.5212 C   0  0  0  0  0  0  0  0  0  0  0  0
    6.9934    3.3905    2.3400 C   0  0  0  0  0  0  0  0  0  0  0  0
    8.5236    3.4131    2.3000 C   0  0  0  0  0  0  0  0  0  0  0  0
    9.1338    4.5538    3.1156 C   0  0  0  0  0  0  0  0  0  0  0  0
   10.6608    4.5227    3.1730 C   0  0  0  0  0  0  0  0  0  0  0  0
   11.2533    3.4887    2.9428 O   0  0  0  0  0  0  0  0  0  0  0  0
   11.4173    5.8105    3.5804 C   0  0  1  0  0  0  0  0  0  0  0  0
   10.8539    6.2654    4.9626 C   0  0  0  0  0  0  0  0  0  0  0  0
   11.5368    7.4381    5.4930 N   0  0  0  0  0  0  0  0  0  0  0  0
   12.9339    5.5270    3.6823 C   0  0  0  0  0  0  0  0  0  0  0  0
   13.6121    5.3828    2.3162 C   0  0  0  0  0  0  0  0  0  0  0  0
   13.3675    6.5048    1.4872 O   0  0  0  0  0  0  0  0  0  0  0  0
   11.9914    6.6894    1.2419 C   0  0  0  0  0  0  0  0  0  0  0  0
   11.2114    6.9380    2.5341 C   0  0  0  0  0  0  0  0  0  0  0  0
    0.1391   -0.9431   -0.5908 H   0  0  0  0  0  0  0  0  0  0  0  0
    0.1200    0.8235   -0.3856 H   0  0  0  0  0  0  0  0  0  0  0  0
    0.1793   -0.2350    1.0402 H   0  0  0  0  0  0  0  0  0  0  0  0
    2.4144   -0.0039   -1.0858 H   0  0  0  0  0  0  0  0  0  0  0  0
    2.4733   -1.0534    0.3276 H   0  0  0  0  0  0  0  0  0  0  0  0
    2.3596    0.9663    1.8329 H   0  0  0  0  0  0  0  0  0  0  0  0
    2.3000    2.0166    0.4189 H   0  0  0  0  0  0  0  0  0  0  0  0
    4.5623    1.1667   -0.3079 H   0  0  0  0  0  0  0  0  0  0  0  0
    4.6220    0.1161    1.1055 H   0  0  0  0  0  0  0  0  0  0  0  0
    4.5093    2.1364    2.6125 H   0  0  0  0  0  0  0  0  0  0  0  0
    4.4490    3.1874    1.1992 H   0  0  0  0  0  0  0  0  0  0  0  0
    6.7110    2.3370    0.4709 H   0  0  0  0  0  0  0  0  0  0  0  0
    6.7722    1.2874    1.8844 H   0  0  0  0  0  0  0  0  0  0  0  0
    6.6555    3.3081    3.3903 H   0  0  0  0  0  0  0  0  0  0  0  0
    6.5981    4.3575    1.9758 H   0  0  0  0  0  0  0  0  0  0  0  0
    8.8674    3.4928    1.2534 H   0  0  0  0  0  0  0  0  0  0  0  0
    8.9290    2.4575    2.6691 H   0  0  0  0  0  0  0  0  0  0  0  0
    8.7828    4.4897    4.1638 H   0  0  0  0  0  0  0  0  0  0  0  0
    8.7804    5.5334    2.7549 H   0  0  0  0  0  0  0  0  0  0  0  0
   10.8778    5.3917    5.6487 H   0  0  0  0  0  0  0  0  0  0  0  0
    9.7927    6.5308    4.8346 H   0  0  0  0  0  0  0  0  0  0  0  0
   12.3884    7.1814    5.9892 H   0  0  0  0  0  0  0  0  0  0  0  0
   10.9461    7.9270    6.1627 H   0  0  0  0  0  0  0  0  0  0  0  0
   13.1119    4.6168    4.2771 H   0  0  0  0  0  0  0  0  0  0  0  0
   13.4049    6.3777    4.1996 H   0  0  0  0  0  0  0  0  0  0  0  0
   13.2711    4.4558    1.8194 H   0  0  0  0  0  0  0  0  0  0  0  0
   14.7045    5.3195    2.4391 H   0  0  0  0  0  0  0  0  0  0  0  0
   11.5778    5.8102    0.7008 H   0  0  0  0  0  0  0  0  0  0  0  0
   11.9024    7.5578    0.5701 H   0  0  0  0  0  0  0  0  0  0  0  0
   10.1425    7.0805    2.3025 H   0  0  0  0  0  0  0  0  0  0  0  0
   11.5664    7.8712    2.9987 H   0  0  0  0  0  0  0  0  0  0  0  0
  1  2  1  0
  1 20  1  0
  1 21  1  0
  1 22  1  0
  2  3  1  0
  2 23  1  0
  2 24  1  0
  3  4  1  0
  3 25  1  0
  3 26  1  0
  4  5  1  0
  4 27  1  0
  4 28  1  0
  5  6  1  0
  5 29  1  0
  5 30  1  0
  6  7  1  0
  6 31  1  0
  6 32  1  0
  7  8  1  0
  7 33  1  0
  7 34  1  0
  8  9  1  0
  8 35  1  0
  8 36  1  0
  9 10  1  0
  9 37  1  0
  9 38  1  0
 10 11  2  0
 12 10  1  6
 12 13  1  0
 12 15  1  0
 12 19  1  0
 13 14  1  0
 13 39  1  0
 13 40  1  0
 14 41  1  0
 14 42  1  0
 15 16  1  0
 15 43  1  0
 15 44  1  0
 16 17  1  0
 16 45  1  0
 16 46  1  0
 17 18  1  0
 18 19  1  0
 18 47  1  0
 18 48  1  0
 19 49  1  0
 19 50  1  0
M  END

