
     RDKit          3D

 37 40  0  0  0  0  0  0  0  0999 V2000
    1.1460    0.3633    0.9211 C   0  0  0  0  0  0  0  0  0  0  0  0
    2.5877    0.2718    1.0806 N   0  0  0  0  0  0  0  0  0  0  0  0
    3.4060    1.3697    0.9808 C   0  0  0  0  0  0  0  0  0  0  0  0
    2.9475    2.5572    0.7393 N   0  0  0  0  0  0  0  0  0  0  0  0
    3.8486    3.6062    0.6549 C   0  0  0  0  0  0  0  0  0  0  0  0
    5.0624    3.4611    0.8009 O   0  0  0  0  0  0  0  0  0  0  0  0
    3.2568    4.9453    0.3710 C   0  0  0  0  0  0  0  0  0  0  0  0
    4.1141    6.0560    0.2660 C   0  0  0  0  0  0  0  0  0  0  0  0
    3.5989    7.3179   -0.0083 C   0  0  0  0  0  0  0  0  0  0  0  0
    2.2199    7.4967   -0.1783 C   0  0  0  0  0  0  0  0  0  0  0  0
    1.3517    6.3911   -0.0522 C   0  0  0  0  0  0  0  0  0  0  0  0
    1.8752    5.1269    0.2146 C   0  0  0  0  0  0  0  0  0  0  0  0
   -0.0043    6.5305   -0.1878 O   0  0  0  0  0  0  0  0  0  0  0  0
   -0.4664    7.8675   -0.0911 C   0  0  0  0  0  0  0  0  0  0  0  0
    0.4087    8.7875   -0.9252 C   0  0  0  0  0  0  0  0  0  0  0  0
    1.7507    8.7451   -0.4613 O   0  0  0  0  0  0  0  0  0  0  0  0
    5.1169    0.9061    1.2277 S   0  0  0  0  0  0  0  0  0  0  0  0
    4.6329   -0.7777    1.4569 C   0  0  0  0  0  0  0  0  0  0  0  0
    5.4550   -1.8745    1.7194 C   0  0  0  0  0  0  0  0  0  0  0  0
    4.8475   -3.1204    1.8640 C   0  0  0  0  0  0  0  0  0  0  0  0
    5.6173   -4.1898    2.1167 F   0  0  0  0  0  0  0  0  0  0  0  0
    3.4661   -3.2944    1.7548 C   0  0  0  0  0  0  0  0  0  0  0  0
    2.6474   -2.1929    1.4918 C   0  0  0  0  0  0  0  0  0  0  0  0
    3.2381   -0.9327    1.3434 C   0  0  0  0  0  0  0  0  0  0  0  0
    0.8943    1.4112    0.7274 H   0  0  0  0  0  0  0  0  0  0  0  0
    0.6356    0.0247    1.8369 H   0  0  0  0  0  0  0  0  0  0  0  0
    0.8119   -0.2583    0.0749 H   0  0  0  0  0  0  0  0  0  0  0  0
    5.1861    5.9016    0.3966 H   0  0  0  0  0  0  0  0  0  0  0  0
    4.2455    8.1924   -0.1064 H   0  0  0  0  0  0  0  0  0  0  0  0
    1.1926    4.2828    0.3058 H   0  0  0  0  0  0  0  0  0  0  0  0
   -0.4569    8.1983    0.9650 H   0  0  0  0  0  0  0  0  0  0  0  0
   -1.5056    7.8765   -0.4515 H   0  0  0  0  0  0  0  0  0  0  0  0
    0.0762    9.8331   -0.8480 H   0  0  0  0  0  0  0  0  0  0  0  0
    0.3686    8.4817   -1.9874 H   0  0  0  0  0  0  0  0  0  0  0  0
    6.5384   -1.7822    1.8119 H   0  0  0  0  0  0  0  0  0  0  0  0
    3.0464   -4.2942    1.8774 H   0  0  0  0  0  0  0  0  0  0  0  0
    1.5680   -2.3244    1.4056 H   0  0  0  0  0  0  0  0  0  0  0  0
  1  2  1  0
  1 25  1  0
  1 26  1  0
  1 27  1  0
  2  3  1  0
  2 24  1  0
  3  4  2  0
  3 17  1  0
  4  5  1  0
  5  6  2  0
  5  7  1  0
  7  8  2  0
  7 12  1  0
  8  9  1  0
  8 28  1  0
  9 10  2  0
  9 29  1  0
 10 11  1  0
 10 16  1  0
 11 12  2  0
 11 13  1  0
 12 30  1  0
 13 14  1  0
 14 15  1  0
 14 31  1  0
 14 32  1  0
 15 16  1  0
 15 33  1  0
 15 34  1  0
 17 18  1  0
 18 19  1  0
 18 24  2  0
 19 20  2  0
 19 35  1  0
 20 21  1  0
 20 22  1  0
 22 23  2  0
 22 36  1  0
 23 24  1  0
 23 37  1  0
M  END

