
     RDKit          3D

 33 34  0  0  0  0  0  0  0  0999 V2000
    1.0626    0.0107    0.3882 N   0  0  0  0  0  0  0  0  0  0  0  0
    2.4282    0.2846    0.4825 N   0  0  0  0  0  0  0  0  0  0  0  0
    3.0813    1.0799   -0.4177 C   0  0  0  0  0  0  0  0  0  0  0  0
    2.4923    1.6239   -1.3375 O   0  0  0  0  0  0  0  0  0  0  0  0
    4.5834    1.2128   -0.1956 C   0  0  0  0  0  0  0  0  0  0  0  0
    5.0880    2.6318   -0.4692 C   0  0  0  0  0  0  0  0  0  0  0  0
    6.6122    2.7548   -0.4257 C   0  0  0  0  0  0  0  0  0  0  0  0
    7.1074    4.1837   -0.7149 C   0  0  0  0  0  0  0  0  0  0  0  0
    8.6001    4.3352   -0.6699 C   0  0  0  0  0  0  0  0  0  0  0  0
    9.4502    4.4894   -1.7247 C   0  0  0  0  0  0  0  0  0  0  0  0
   10.7609    4.5784   -1.3439 O   0  0  0  0  0  0  0  0  0  0  0  0
   10.7732    4.4799    0.0133 C   0  0  0  0  0  0  0  0  0  0  0  0
   11.8982    4.5276    0.8339 C   0  0  0  0  0  0  0  0  0  0  0  0
   11.6762    4.4155    2.2077 C   0  0  0  0  0  0  0  0  0  0  0  0
   10.3744    4.2644    2.7281 C   0  0  0  0  0  0  0  0  0  0  0  0
    9.2608    4.2183    1.8903 C   0  0  0  0  0  0  0  0  0  0  0  0
    9.4588    4.3254    0.5019 C   0  0  0  0  0  0  0  0  0  0  0  0
    0.8759   -0.3718   -0.5427 H   0  0  0  0  0  0  0  0  0  0  0  0
    0.5570    0.9001    0.4117 H   0  0  0  0  0  0  0  0  0  0  0  0
    2.9223   -0.1743    1.2384 H   0  0  0  0  0  0  0  0  0  0  0  0
    5.0716    0.5091   -0.8948 H   0  0  0  0  0  0  0  0  0  0  0  0
    4.8605    0.8827    0.8205 H   0  0  0  0  0  0  0  0  0  0  0  0
    4.6377    3.3264    0.2628 H   0  0  0  0  0  0  0  0  0  0  0  0
    4.7061    2.9444   -1.4549 H   0  0  0  0  0  0  0  0  0  0  0  0
    7.0627    2.0649   -1.1612 H   0  0  0  0  0  0  0  0  0  0  0  0
    6.9883    2.4286    0.5604 H   0  0  0  0  0  0  0  0  0  0  0  0
    6.6492    4.8770    0.0136 H   0  0  0  0  0  0  0  0  0  0  0  0
    6.7383    4.4983   -1.7056 H   0  0  0  0  0  0  0  0  0  0  0  0
    9.2684    4.5587   -2.7952 H   0  0  0  0  0  0  0  0  0  0  0  0
   12.8985    4.6489    0.4144 H   0  0  0  0  0  0  0  0  0  0  0  0
   12.5273    4.4473    2.8923 H   0  0  0  0  0  0  0  0  0  0  0  0
   10.2393    4.1830    3.8096 H   0  0  0  0  0  0  0  0  0  0  0  0
    8.2571    4.1039    2.3073 H   0  0  0  0  0  0  0  0  0  0  0  0
  1  2  1  0
  1 18  1  0
  1 19  1  0
  2  3  1  0
  2 20  1  0
  3  4  2  0
  3  5  1  0
  5  6  1  0
  5 21  1  0
  5 22  1  0
  6  7  1  0
  6 23  1  0
  6 24  1  0
  7  8  1  0
  7 25  1  0
  7 26  1  0
  8  9  1  0
  8 27  1  0
  8 28  1  0
  9 10  2  0
  9 17  1  0
 10 11  1  0
 10 29  1  0
 11 12  1  0
 12 13  1  0
 12 17  2  0
 13 14  2  0
 13 30  1  0
 14 15  1  0
 14 31  1  0
 15 16  2  0
 15 32  1  0
 16 17  1  0
 16 33  1  0
M  END

