
     RDKit          3D

 29 29  0  0  0  0  0  0  0  0999 V2000
    2.9579   -0.7852    0.8163 O   0  0  0  0  0  0  0  0  0  0  0  0
    2.3863    0.0777    0.2093 C   0  0  0  0  0  0  0  0  0  0  0  0
    1.0900    0.3586    0.4678 O   0  0  0  0  0  0  0  0  0  0  0  0
    3.0229    0.9273   -0.8839 C   0  0  0  0  0  0  0  0  0  0  0  0
    4.4811    0.5714   -1.1200 C   0  0  0  0  0  0  0  0  0  0  0  0
    5.2166    1.8388   -2.2619 S   0  0  0  0  0  0  0  0  0  0  0  0
    4.9253    3.1714   -1.6102 O   0  0  0  0  0  0  0  0  0  0  0  0
    6.9924    1.4267   -1.8464 C   0  0  0  0  0  0  0  0  0  0  0  0
    7.9273    1.7601   -3.0025 C   0  0  1  0  0  0  0  0  0  0  0  0
    7.6396    0.9092   -4.0378 F   0  0  0  0  0  0  0  0  0  0  0  0
    7.6428    3.0224   -3.4449 F   0  0  0  0  0  0  0  0  0  0  0  0
    9.3966    1.6595   -2.6438 C   0  0  0  0  0  0  0  0  0  0  0  0
   10.0972    0.4655   -2.8572 C   0  0  0  0  0  0  0  0  0  0  0  0
   11.4419    0.3699   -2.4894 C   0  0  0  0  0  0  0  0  0  0  0  0
   12.0907    1.4640   -1.9098 C   0  0  0  0  0  0  0  0  0  0  0  0
   11.3927    2.6579   -1.7012 C   0  0  0  0  0  0  0  0  0  0  0  0
   10.0486    2.7579   -2.0667 C   0  0  0  0  0  0  0  0  0  0  0  0
    0.7799    1.0923   -0.0825 H   0  0  0  0  0  0  0  0  0  0  0  0
    2.9619    1.9939   -0.6013 H   0  0  0  0  0  0  0  0  0  0  0  0
    2.4282    0.8156   -1.8090 H   0  0  0  0  0  0  0  0  0  0  0  0
    4.6075   -0.4199   -1.5824 H   0  0  0  0  0  0  0  0  0  0  0  0
    5.0376    0.5975   -0.1717 H   0  0  0  0  0  0  0  0  0  0  0  0
    7.0921    0.3622   -1.5919 H   0  0  0  0  0  0  0  0  0  0  0  0
    7.2065    2.0510   -0.9667 H   0  0  0  0  0  0  0  0  0  0  0  0
    9.5923   -0.3825   -3.3237 H   0  0  0  0  0  0  0  0  0  0  0  0
   11.9859   -0.5620   -2.6620 H   0  0  0  0  0  0  0  0  0  0  0  0
   13.1428    1.3880   -1.6237 H   0  0  0  0  0  0  0  0  0  0  0  0
   11.8986    3.5183   -1.2562 H   0  0  0  0  0  0  0  0  0  0  0  0
    9.5053    3.6934   -1.9170 H   0  0  0  0  0  0  0  0  0  0  0  0
  1  2  2  0
  2  3  1  0
  2  4  1  0
  3 18  1  0
  4  5  1  0
  4 19  1  0
  4 20  1  0
  5  6  1  0
  5 21  1  0
  5 22  1  0
  6  7  1  1
  6  8  1  0
  8  9  1  0
  8 23  1  0
  8 24  1  0
  9 10  1  6
  9 11  1  0
  9 12  1  0
 12 13  2  0
 12 17  1  0
 13 14  1  0
 13 25  1  0
 14 15  2  0
 14 26  1  0
 15 16  1  0
 15 27  1  0
 16 17  2  0
 16 28  1  0
 17 29  1  0
M  CHG  2   6   1   7  -1
M  END

