
     RDKit          3D

 34 36  0  0  0  0  0  0  0  0999 V2000
    1.0219   -0.3755    0.1281 C   0  0  0  0  0  0  0  0  0  0  0  0
    2.5133   -0.1434   -0.1419 C   0  0  1  0  0  0  0  0  0  0  0  0
    2.8031    0.0489   -1.6388 C   0  0  0  0  0  0  0  0  0  0  0  0
    3.7714    0.9601   -2.0951 C   0  0  0  0  0  0  0  0  0  0  0  0
    4.0131    1.0967   -3.4599 C   0  0  0  0  0  0  0  0  0  0  0  0
    3.2605    0.3025   -4.3339 C   0  0  0  0  0  0  0  0  0  0  0  0
    3.5318    0.4518   -6.0586 Cl  0  0  0  0  0  0  0  0  0  0  0  0
    2.3472   -0.5596   -3.9357 N   0  0  0  0  0  0  0  0  0  0  0  0
    2.1255   -0.6853   -2.6246 C   0  0  0  0  0  0  0  0  0  0  0  0
    3.0122    0.9947    0.6367 N   0  0  0  0  0  0  0  0  0  0  0  0
    4.2754    0.8027    1.1280 C   0  0  0  0  0  0  0  0  0  0  0  0
    5.2570    1.9498    1.8140 S   0  0  0  0  0  0  0  0  0  0  0  0
    4.5721   -0.5183    0.9200 N   0  0  0  0  0  0  0  0  0  0  0  0
    3.3996   -1.2848    0.5228 C   0  0  2  0  0  0  0  0  0  0  0  0
    3.7073   -2.5084   -0.3090 C   0  0  0  0  0  0  0  0  0  0  0  0
    2.8891   -3.6438   -0.2087 C   0  0  0  0  0  0  0  0  0  0  0  0
    3.1336   -4.7827   -0.9787 C   0  0  0  0  0  0  0  0  0  0  0  0
    4.2218   -4.7936   -1.8555 C   0  0  0  0  0  0  0  0  0  0  0  0
    4.5457   -6.2164   -2.8143 Cl  0  0  0  0  0  0  0  0  0  0  0  0
    5.0594   -3.6789   -1.9634 C   0  0  0  0  0  0  0  0  0  0  0  0
    4.7967   -2.5454   -1.1932 C   0  0  0  0  0  0  0  0  0  0  0  0
    0.4135    0.4259   -0.3185 H   0  0  0  0  0  0  0  0  0  0  0  0
    0.8378   -0.3908    1.2120 H   0  0  0  0  0  0  0  0  0  0  0  0
    0.6782   -1.3309   -0.2940 H   0  0  0  0  0  0  0  0  0  0  0  0
    4.3417    1.5702   -1.3915 H   0  0  0  0  0  0  0  0  0  0  0  0
    4.7568    1.7966   -3.8422 H   0  0  0  0  0  0  0  0  0  0  0  0
    1.3636   -1.4206   -2.3496 H   0  0  0  0  0  0  0  0  0  0  0  0
    2.6841    1.9423    0.4896 H   0  0  0  0  0  0  0  0  0  0  0  0
    5.3486   -0.9312    1.4232 H   0  0  0  0  0  0  0  0  0  0  0  0
    2.8393   -1.6147    1.4195 H   0  0  0  0  0  0  0  0  0  0  0  0
    2.0487   -3.6475    0.4913 H   0  0  0  0  0  0  0  0  0  0  0  0
    2.4941   -5.6628   -0.8949 H   0  0  0  0  0  0  0  0  0  0  0  0
    5.9088   -3.7032   -2.6479 H   0  0  0  0  0  0  0  0  0  0  0  0
    5.4518   -1.6760   -1.2757 H   0  0  0  0  0  0  0  0  0  0  0  0
  2  1  1  6
  1 22  1  0
  1 23  1  0
  1 24  1  0
  2  3  1  0
  2 10  1  0
  2 14  1  0
  3  4  2  0
  3  9  1  0
  4  5  1  0
  4 25  1  0
  5  6  2  0
  5 26  1  0
  6  7  1  0
  6  8  1  0
  8  9  2  0
  9 27  1  0
 10 11  1  0
 10 28  1  0
 11 12  2  0
 11 13  1  0
 13 14  1  0
 13 29  1  0
 14 15  1  0
 14 30  1  1
 15 16  2  0
 15 21  1  0
 16 17  1  0
 16 31  1  0
 17 18  2  0
 17 32  1  0
 18 19  1  0
 18 20  1  0
 20 21  2  0
 20 33  1  0
 21 34  1  0
M  END

