
     RDKit          3D

 72 76  0  0  0  0  0  0  0  0999 V2000
    0.8078    2.2570    2.0526 C   0  0  0  0  0  0  0  0  0  0  0  0
    2.2972    2.4832    1.8810 C   0  0  0  0  0  0  0  0  0  0  0  0
    2.9269    1.2158    1.7307 O   0  0  0  0  0  0  0  0  0  0  0  0
    4.2650    1.1354    1.5264 C   0  0  0  0  0  0  0  0  0  0  0  0
    5.1095    2.2611    1.4818 C   0  0  0  0  0  0  0  0  0  0  0  0
    6.4738    2.1090    1.2554 C   0  0  0  0  0  0  0  0  0  0  0  0
    7.0290    0.8349    1.0524 C   0  0  0  0  0  0  0  0  0  0  0  0
    8.4547    0.6335    0.7832 C   0  0  0  0  0  0  0  0  0  0  0  0
    9.2605    1.6308    0.6821 N   0  0  0  0  0  0  0  0  0  0  0  0
   10.5963    1.4260    0.4535 N   0  0  0  0  0  0  0  0  0  0  0  0
   11.5178    0.5247    0.9469 C   0  0  0  0  0  0  0  0  0  0  0  0
   12.7030    0.6870    0.7010 O   0  0  0  0  0  0  0  0  0  0  0  0
   11.0462   -0.6232    1.8502 C   0  0  0  0  0  0  0  0  0  0  0  0
   10.4845   -1.7276    1.1615 O   0  0  0  0  0  0  0  0  0  0  0  0
   11.2917   -2.6936    0.6095 C   0  0  0  0  0  0  0  0  0  0  0  0
   12.6647   -2.5335    0.3945 C   0  0  0  0  0  0  0  0  0  0  0  0
   13.4091   -3.5775   -0.1656 C   0  0  0  0  0  0  0  0  0  0  0  0
   12.7724   -4.7666   -0.5128 C   0  0  0  0  0  0  0  0  0  0  0  0
   13.6927   -6.0807   -1.2170 Cl  0  0  0  0  0  0  0  0  0  0  0  0
   11.3972   -4.9215   -0.3074 C   0  0  0  0  0  0  0  0  0  0  0  0
   10.6355   -3.8937    0.2557 C   0  0  0  0  0  0  0  0  0  0  0  0
    9.1553   -4.0475    0.4888 C   0  0  0  0  0  0  0  0  0  0  0  0
    6.1687   -0.2783    1.1009 C   0  0  0  0  0  0  0  0  0  0  0  0
    4.7987   -0.1634    1.3426 C   0  0  0  0  0  0  0  0  0  0  0  0
    3.9124   -1.4047    1.4102 C   0  0  0  0  0  0  0  0  0  0  0  0
    3.7491   -2.0327    2.7158 N   0  0  0  0  0  0  0  0  0  0  0  0
    2.9287   -1.3366    3.6904 C   0  0  0  0  0  0  0  0  0  0  0  0
    2.4549   -2.3113    4.8159 C   0  0  1  0  0  0  0  0  0  0  0  0
    3.1198   -3.6826    4.6500 C   0  0  0  0  0  0  0  0  0  0  0  0
    4.6229   -3.4071    4.5975 C   0  0  1  0  0  0  0  0  0  0  0  0
    4.9480   -2.6219    3.2807 C   0  0  0  0  0  0  0  0  0  0  0  0
    5.0948   -2.6640    5.8386 C   0  0  0  0  0  0  0  0  0  0  0  0
    6.4056   -2.7588    6.2507 C   0  0  0  0  0  0  0  0  0  0  0  0
    6.8501   -2.0116    7.3727 C   0  0  0  0  0  0  0  0  0  0  0  0
    5.9856   -1.2043    8.0586 C   0  0  0  0  0  0  0  0  0  0  0  0
    4.5920   -1.0989    7.6828 C   0  0  0  0  0  0  0  0  0  0  0  0
    3.7410   -0.4386    8.2659 O   0  0  0  0  0  0  0  0  0  0  0  0
    4.2194   -1.8579    6.5272 N   0  0  0  0  0  0  0  0  0  0  0  0
    2.7824   -1.7755    6.2034 C   0  0  0  0  0  0  0  0  0  0  0  0
    0.2900    3.2227    2.1581 H   0  0  0  0  0  0  0  0  0  0  0  0
    0.6020    1.6559    2.9515 H   0  0  0  0  0  0  0  0  0  0  0  0
    0.3892    1.7321    1.1804 H   0  0  0  0  0  0  0  0  0  0  0  0
    2.7180    3.0083    2.7581 H   0  0  0  0  0  0  0  0  0  0  0  0
    2.4984    3.1070    0.9907 H   0  0  0  0  0  0  0  0  0  0  0  0
    4.7052    3.2627    1.6261 H   0  0  0  0  0  0  0  0  0  0  0  0
    7.1293    2.9814    1.2267 H   0  0  0  0  0  0  0  0  0  0  0  0
    8.7881   -0.4062    0.6514 H   0  0  0  0  0  0  0  0  0  0  0  0
   11.0476    2.2377    0.0370 H   0  0  0  0  0  0  0  0  0  0  0  0
   10.2647   -0.2695    2.5395 H   0  0  0  0  0  0  0  0  0  0  0  0
   11.9250   -0.9299    2.4377 H   0  0  0  0  0  0  0  0  0  0  0  0
   13.1582   -1.5893    0.6285 H   0  0  0  0  0  0  0  0  0  0  0  0
   14.4797   -3.4572   -0.3383 H   0  0  0  0  0  0  0  0  0  0  0  0
   10.9165   -5.8614   -0.5860 H   0  0  0  0  0  0  0  0  0  0  0  0
    8.8190   -5.0637    0.2386 H   0  0  0  0  0  0  0  0  0  0  0  0
    8.5774   -3.3359   -0.1253 H   0  0  0  0  0  0  0  0  0  0  0  0
    8.8945   -3.8399    1.5392 H   0  0  0  0  0  0  0  0  0  0  0  0
    6.5872   -1.2755    0.9309 H   0  0  0  0  0  0  0  0  0  0  0  0
    4.3395   -2.1637    0.7325 H   0  0  0  0  0  0  0  0  0  0  0  0
    2.9107   -1.1540    1.0308 H   0  0  0  0  0  0  0  0  0  0  0  0
    2.0604   -0.9149    3.1652 H   0  0  0  0  0  0  0  0  0  0  0  0
    3.4581   -0.4697    4.1468 H   0  0  0  0  0  0  0  0  0  0  0  0
    1.3600   -2.4172    4.7635 H   0  0  0  0  0  0  0  0  0  0  0  0
    2.7931   -4.1738    3.7236 H   0  0  0  0  0  0  0  0  0  0  0  0
    2.8639   -4.3418    5.4956 H   0  0  0  0  0  0  0  0  0  0  0  0
    5.1924   -4.3473    4.5724 H   0  0  0  0  0  0  0  0  0  0  0  0
    5.3646   -3.3234    2.5364 H   0  0  0  0  0  0  0  0  0  0  0  0
    5.7439   -1.8760    3.4931 H   0  0  0  0  0  0  0  0  0  0  0  0
    7.0895   -3.4065    5.7012 H   0  0  0  0  0  0  0  0  0  0  0  0
    7.8943   -2.0887    7.6897 H   0  0  0  0  0  0  0  0  0  0  0  0
    6.2894   -0.6208    8.9287 H   0  0  0  0  0  0  0  0  0  0  0  0
    2.4867   -0.7240    6.3242 H   0  0  0  0  0  0  0  0  0  0  0  0
    2.2281   -2.3301    6.9800 H   0  0  0  0  0  0  0  0  0  0  0  0
  1  2  1  0
  1 40  1  0
  1 41  1  0
  1 42  1  0
  2  3  1  0
  2 43  1  0
  2 44  1  0
  3  4  1  0
  4  5  2  0
  4 24  1  0
  5  6  1  0
  5 45  1  0
  6  7  2  0
  6 46  1  0
  7  8  1  0
  7 23  1  0
  8  9  2  0
  8 47  1  0
  9 10  1  0
 10 11  1  0
 10 48  1  0
 11 12  2  0
 11 13  1  0
 13 14  1  0
 13 49  1  0
 13 50  1  0
 14 15  1  0
 15 16  2  0
 15 21  1  0
 16 17  1  0
 16 51  1  0
 17 18  2  0
 17 52  1  0
 18 19  1  0
 18 20  1  0
 20 21  2  0
 20 53  1  0
 21 22  1  0
 22 54  1  0
 22 55  1  0
 22 56  1  0
 23 24  2  0
 23 57  1  0
 24 25  1  0
 25 26  1  0
 25 58  1  0
 25 59  1  0
 26 27  1  0
 26 31  1  0
 27 28  1  0
 27 60  1  0
 27 61  1  0
 28 29  1  0
 28 39  1  0
 28 62  1  1
 29 30  1  0
 29 63  1  0
 29 64  1  0
 30 31  1  0
 30 32  1  0
 30 65  1  6
 31 66  1  0
 31 67  1  0
 32 33  2  0
 32 38  1  0
 33 34  1  0
 33 68  1  0
 34 35  2  0
 34 69  1  0
 35 36  1  0
 35 70  1  0
 36 37  2  0
 36 38  1  0
 38 39  1  0
 39 71  1  0
 39 72  1  0
M  END

