
     RDKit          3D

 38 39  0  0  0  0  0  0  0  0999 V2000
    0.9397   -0.7684    0.2694 C   0  0  0  0  0  0  0  0  0  0  0  0
    2.4021   -0.3275    0.2063 C   0  0  0  0  0  0  0  0  0  0  0  0
    2.8881   -0.0454   -1.2152 C   0  0  0  0  0  0  0  0  0  0  0  0
    4.2786    0.3818   -1.2352 N   0  0  0  0  0  0  0  0  0  0  0  0
    4.8553    0.6162   -2.5612 C   0  0  1  0  0  0  0  0  0  0  0  0
    4.4233    1.9788   -3.1576 C   0  0  0  0  0  0  0  0  0  0  0  0
    5.0353    3.2242   -2.5470 C   0  0  0  0  0  0  0  0  0  0  0  0
    4.9225    3.5192   -1.1754 C   0  0  0  0  0  0  0  0  0  0  0  0
    5.4919    4.6976   -0.6980 C   0  0  0  0  0  0  0  0  0  0  0  0
    6.1496    5.5484   -1.5895 C   0  0  0  0  0  0  0  0  0  0  0  0
    6.2207    5.1815   -2.9407 C   0  0  0  0  0  0  0  0  0  0  0  0
    6.9146    6.0446   -3.9652 C   0  0  0  0  0  0  0  0  0  0  0  0
    5.6740    4.0432   -3.3929 N   0  0  0  0  0  0  0  0  0  0  0  0
    6.3653    0.4780   -2.4922 C   0  0  1  0  0  0  0  0  0  0  0  0
    7.0035   -0.8913   -2.5338 C   0  0  0  0  0  0  0  0  0  0  0  0
    7.1481    0.0518   -3.7031 C   0  0  0  0  0  0  0  0  0  0  0  0
    0.6246   -0.9665    1.3059 H   0  0  0  0  0  0  0  0  0  0  0  0
    0.7698   -1.6905   -0.3113 H   0  0  0  0  0  0  0  0  0  0  0  0
    0.2689    0.0062   -0.1386 H   0  0  0  0  0  0  0  0  0  0  0  0
    3.0426   -1.1093    0.6559 H   0  0  0  0  0  0  0  0  0  0  0  0
    2.5549    0.5782    0.8178 H   0  0  0  0  0  0  0  0  0  0  0  0
    2.2621    0.7511   -1.6557 H   0  0  0  0  0  0  0  0  0  0  0  0
    2.7135   -0.9472   -1.8489 H   0  0  0  0  0  0  0  0  0  0  0  0
    4.8498   -0.3083   -0.7488 H   0  0  0  0  0  0  0  0  0  0  0  0
    4.4911   -0.1555   -3.2787 H   0  0  0  0  0  0  0  0  0  0  0  0
    3.3230    2.0516   -3.0995 H   0  0  0  0  0  0  0  0  0  0  0  0
    4.6816    1.9937   -4.2260 H   0  0  0  0  0  0  0  0  0  0  0  0
    4.4180    2.8123   -0.5161 H   0  0  0  0  0  0  0  0  0  0  0  0
    5.4239    4.9545    0.3629 H   0  0  0  0  0  0  0  0  0  0  0  0
    6.6026    6.4814   -1.2458 H   0  0  0  0  0  0  0  0  0  0  0  0
    7.3631    6.9422   -3.5153 H   0  0  0  0  0  0  0  0  0  0  0  0
    6.2014    6.3598   -4.7443 H   0  0  0  0  0  0  0  0  0  0  0  0
    7.7047    5.4701   -4.4747 H   0  0  0  0  0  0  0  0  0  0  0  0
    6.8470    1.2136   -1.8392 H   0  0  0  0  0  0  0  0  0  0  0  0
    6.3485   -1.7596   -2.6611 H   0  0  0  0  0  0  0  0  0  0  0  0
    7.8768   -1.0800   -1.9029 H   0  0  0  0  0  0  0  0  0  0  0  0
    6.5911   -0.1808   -4.6160 H   0  0  0  0  0  0  0  0  0  0  0  0
    8.1195    0.5203   -3.8825 H   0  0  0  0  0  0  0  0  0  0  0  0
  1  2  1  0
  1 17  1  0
  1 18  1  0
  1 19  1  0
  2  3  1  0
  2 20  1  0
  2 21  1  0
  3  4  1  0
  3 22  1  0
  3 23  1  0
  4  5  1  0
  4 24  1  0
  5  6  1  0
  5 14  1  0
  5 25  1  6
  6  7  1  0
  6 26  1  0
  6 27  1  0
  7  8  2  0
  7 13  1  0
  8  9  1  0
  8 28  1  0
  9 10  2  0
  9 29  1  0
 10 11  1  0
 10 30  1  0
 11 12  1  0
 11 13  2  0
 12 31  1  0
 12 32  1  0
 12 33  1  0
 14 15  1  0
 14 16  1  0
 14 34  1  1
 15 16  1  0
 15 35  1  0
 15 36  1  0
 16 37  1  0
 16 38  1  0
M  END

