
     RDKit          3D

 55 58  0  0  0  0  0  0  0  0999 V2000
    2.3788   -1.8090    1.8368 C   0  0  0  0  0  0  0  0  0  0  0  0
    3.3757   -0.9774    2.3936 O   0  0  0  0  0  0  0  0  0  0  0  0
    3.3493    0.3511    2.1503 C   0  0  0  0  0  0  0  0  0  0  0  0
    2.3879    0.9960    1.3548 C   0  0  0  0  0  0  0  0  0  0  0  0
    2.4574    2.3794    1.1651 C   0  0  0  0  0  0  0  0  0  0  0  0
    3.4718    3.1276    1.7663 C   0  0  0  0  0  0  0  0  0  0  0  0
    3.5208    4.5473    1.5829 N   0  0  0  0  0  0  0  0  0  0  0  0
    2.6660    5.4557    2.1644 C   0  0  0  0  0  0  0  0  0  0  0  0
    1.3021    4.9640    3.1598 S   0  0  0  0  0  0  0  0  0  0  0  0
    0.8085    6.5970    3.8534 C   0  0  0  0  0  0  0  0  0  0  0  0
   -0.1609    7.4041    2.9769 C   0  0  0  0  0  0  0  0  0  0  0  0
   -1.3505    7.4314    3.2099 O   0  0  0  0  0  0  0  0  0  0  0  0
    0.4723    8.0742    1.9589 N   0  0  0  0  0  0  0  0  0  0  0  0
   -0.2317    8.8147    1.0737 N   0  0  0  0  0  0  0  0  0  0  0  0
    0.4235    9.3703    0.1181 C   0  0  0  0  0  0  0  0  0  0  0  0
   -0.2511   10.1946   -0.8855 C   0  0  0  0  0  0  0  0  0  0  0  0
   -1.6397   10.4153   -0.8535 C   0  0  0  0  0  0  0  0  0  0  0  0
   -2.2829   11.1992   -1.8054 C   0  0  0  0  0  0  0  0  0  0  0  0
   -1.5327   11.7930   -2.8341 C   0  0  0  0  0  0  0  0  0  0  0  0
   -2.0944   12.5690   -3.7950 O   0  0  0  0  0  0  0  0  0  0  0  0
   -0.1489   11.5915   -2.8925 C   0  0  0  0  0  0  0  0  0  0  0  0
    0.4871   10.8016   -1.9299 C   0  0  0  0  0  0  0  0  0  0  0  0
    1.8287   10.5894   -1.9615 O   0  0  0  0  0  0  0  0  0  0  0  0
    3.0421    6.6811    1.8733 N   0  0  0  0  0  0  0  0  0  0  0  0
    4.1612    6.6048    1.0975 N   0  0  0  0  0  0  0  0  0  0  0  0
    4.4555    5.3373    0.9144 C   0  0  0  0  0  0  0  0  0  0  0  0
    5.6056    4.8760    0.1192 C   0  0  0  0  0  0  0  0  0  0  0  0
    6.6839    5.7678   -0.0490 C   0  0  0  0  0  0  0  0  0  0  0  0
    7.7882    5.4064   -0.8184 C   0  0  0  0  0  0  0  0  0  0  0  0
    7.8388    4.1510   -1.4348 C   0  0  0  0  0  0  0  0  0  0  0  0
    6.7704    3.2640   -1.2812 C   0  0  0  0  0  0  0  0  0  0  0  0
    5.6593    3.6203   -0.5127 C   0  0  0  0  0  0  0  0  0  0  0  0
    4.4272    2.4857    2.5695 C   0  0  0  0  0  0  0  0  0  0  0  0
    4.3707    1.1109    2.7536 C   0  0  0  0  0  0  0  0  0  0  0  0
    2.6020   -2.8299    2.1732 H   0  0  0  0  0  0  0  0  0  0  0  0
    2.3946   -1.7839    0.7327 H   0  0  0  0  0  0  0  0  0  0  0  0
    1.3696   -1.5284    2.1872 H   0  0  0  0  0  0  0  0  0  0  0  0
    1.5836    0.4363    0.8782 H   0  0  0  0  0  0  0  0  0  0  0  0
    1.7127    2.8803    0.5428 H   0  0  0  0  0  0  0  0  0  0  0  0
    1.7263    7.1525    4.0936 H   0  0  0  0  0  0  0  0  0  0  0  0
    0.2699    6.3450    4.7754 H   0  0  0  0  0  0  0  0  0  0  0  0
    1.4851    7.9088    1.8278 H   0  0  0  0  0  0  0  0  0  0  0  0
    1.5142    9.2486    0.0163 H   0  0  0  0  0  0  0  0  0  0  0  0
   -2.2060    9.9460   -0.0465 H   0  0  0  0  0  0  0  0  0  0  0  0
   -3.3649   11.3549   -1.7566 H   0  0  0  0  0  0  0  0  0  0  0  0
   -3.0462   12.6291   -3.6397 H   0  0  0  0  0  0  0  0  0  0  0  0
    0.4200   12.0612   -3.6993 H   0  0  0  0  0  0  0  0  0  0  0  0
    2.2131   11.0546   -2.7156 H   0  0  0  0  0  0  0  0  0  0  0  0
    6.6321    6.7459    0.4317 H   0  0  0  0  0  0  0  0  0  0  0  0
    8.6173    6.1087   -0.9365 H   0  0  0  0  0  0  0  0  0  0  0  0
    8.7067    3.8672   -2.0353 H   0  0  0  0  0  0  0  0  0  0  0  0
    6.7956    2.2860   -1.7684 H   0  0  0  0  0  0  0  0  0  0  0  0
    4.8287    2.9205   -0.4225 H   0  0  0  0  0  0  0  0  0  0  0  0
    5.2150    3.0729    3.0454 H   0  0  0  0  0  0  0  0  0  0  0  0
    5.1055    0.5925    3.3721 H   0  0  0  0  0  0  0  0  0  0  0  0
  1  2  1  0
  1 35  1  0
  1 36  1  0
  1 37  1  0
  2  3  1  0
  3  4  2  0
  3 34  1  0
  4  5  1  0
  4 38  1  0
  5  6  2  0
  5 39  1  0
  6  7  1  0
  6 33  1  0
  7  8  1  0
  7 26  1  0
  8  9  1  0
  8 24  2  0
  9 10  1  0
 10 11  1  0
 10 40  1  0
 10 41  1  0
 11 12  2  0
 11 13  1  0
 13 14  1  0
 13 42  1  0
 14 15  2  0
 15 16  1  0
 15 43  1  0
 16 17  2  0
 16 22  1  0
 17 18  1  0
 17 44  1  0
 18 19  2  0
 18 45  1  0
 19 20  1  0
 19 21  1  0
 20 46  1  0
 21 22  2  0
 21 47  1  0
 22 23  1  0
 23 48  1  0
 24 25  1  0
 25 26  2  0
 26 27  1  0
 27 28  2  0
 27 32  1  0
 28 29  1  0
 28 49  1  0
 29 30  2  0
 29 50  1  0
 30 31  1  0
 30 51  1  0
 31 32  2  0
 31 52  1  0
 32 53  1  0
 33 34  2  0
 33 54  1  0
 34 55  1  0
M  END

