
     RDKit          3D

 23 24  0  0  0  0  0  0  0  0999 V2000
    1.0239    0.2006    0.3474 C   0  0  0  0  0  0  0  0  0  0  0  0
    2.4770    0.0379   -0.0883 C   0  0  1  0  0  0  0  0  0  0  0  0
    3.4590    1.5788    0.2553 S   0  0  0  0  0  0  0  0  0  0  0  0
    4.7913    0.6433    1.0935 C   0  0  0  0  0  0  0  0  0  0  0  0
    4.1048   -0.5979    1.6560 C   0  0  0  0  0  0  0  0  0  0  0  0
    3.1784   -1.0502    0.6153 N   0  0  0  0  0  0  0  0  0  0  0  0
    2.9695   -2.3176    0.1440 C   0  0  0  0  0  0  0  0  0  0  0  0
    2.2550   -2.5428   -0.8252 O   0  0  0  0  0  0  0  0  0  0  0  0
    3.5984   -3.5010    0.8133 C   0  0  0  0  0  0  0  0  0  0  0  0
    3.5932   -4.7938    0.3622 C   0  0  0  0  0  0  0  0  0  0  0  0
    4.2740   -5.5031    1.3883 C   0  0  0  0  0  0  0  0  0  0  0  0
    4.6488   -4.7133    2.3678 N   0  0  0  0  0  0  0  0  0  0  0  0
    4.2238   -3.4510    2.0091 O   0  0  0  0  0  0  0  0  0  0  0  0
    0.5646    1.0573   -0.1702 H   0  0  0  0  0  0  0  0  0  0  0  0
    0.9523    0.3761    1.4314 H   0  0  0  0  0  0  0  0  0  0  0  0
    0.4569   -0.7047    0.0817 H   0  0  0  0  0  0  0  0  0  0  0  0
    2.5122   -0.1862   -1.1636 H   0  0  0  0  0  0  0  0  0  0  0  0
    5.2270    1.2690    1.8854 H   0  0  0  0  0  0  0  0  0  0  0  0
    5.5830    0.3719    0.3773 H   0  0  0  0  0  0  0  0  0  0  0  0
    3.5523   -0.3419    2.5772 H   0  0  0  0  0  0  0  0  0  0  0  0
    4.8236   -1.3846    1.9044 H   0  0  0  0  0  0  0  0  0  0  0  0
    3.1550   -5.1581   -0.5617 H   0  0  0  0  0  0  0  0  0  0  0  0
    4.5034   -6.5672    1.4494 H   0  0  0  0  0  0  0  0  0  0  0  0
  1  2  1  0
  1 14  1  0
  1 15  1  0
  1 16  1  0
  2  3  1  0
  2  6  1  0
  2 17  1  6
  3  4  1  0
  4  5  1  0
  4 18  1  0
  4 19  1  0
  5  6  1  0
  5 20  1  0
  5 21  1  0
  6  7  1  0
  7  8  2  0
  7  9  1  0
  9 10  2  0
  9 13  1  0
 10 11  1  0
 10 22  1  0
 11 12  2  0
 11 23  1  0
 12 13  1  0
M  END

