
     RDKit          3D

 33 34  0  0  0  0  0  0  0  0999 V2000
    0.4056   -0.1849   -1.3208 C   0  0  0  0  0  0  0  0  0  0  0  0
    1.2364   -0.3551   -2.5915 C   0  0  0  0  0  0  0  0  0  0  0  0
    2.5550    0.2678   -2.5133 N   0  0  0  0  0  0  0  0  0  0  0  0
    2.8074    1.6241   -2.6310 C   0  0  0  0  0  0  0  0  0  0  0  0
    4.1636    1.7744   -2.4678 C   0  0  0  0  0  0  0  0  0  0  0  0
    4.7420    0.5495   -2.2520 N   0  0  0  0  0  0  0  0  0  0  0  0
    3.7625   -0.3313   -2.2818 C   0  0  0  0  0  0  0  0  0  0  0  0
    4.0417   -1.8094   -2.0813 C   0  0  1  0  0  0  0  0  0  0  0  0
    5.4344   -1.9889   -2.0838 O   0  0  0  0  0  0  0  0  0  0  0  0
    3.4229   -2.3595   -0.7977 C   0  0  0  0  0  0  0  0  0  0  0  0
    2.5411   -3.4396   -0.8105 C   0  0  0  0  0  0  0  0  0  0  0  0
    2.0059   -3.9547    0.3777 C   0  0  0  0  0  0  0  0  0  0  0  0
    2.3548   -3.3976    1.6151 C   0  0  0  0  0  0  0  0  0  0  0  0
    1.8943   -3.8254    2.8099 O   0  0  0  0  0  0  0  0  0  0  0  0
    1.0088   -4.9217    2.8585 C   0  0  0  0  0  0  0  0  0  0  0  0
    3.2590   -2.3071    1.6246 C   0  0  0  0  0  0  0  0  0  0  0  0
    3.7163   -1.5993    3.1526 Cl  0  0  0  0  0  0  0  0  0  0  0  0
    3.7832   -1.8034    0.4409 C   0  0  0  0  0  0  0  0  0  0  0  0
   -0.5789   -0.6618   -1.4486 H   0  0  0  0  0  0  0  0  0  0  0  0
    0.2411    0.8797   -1.0930 H   0  0  0  0  0  0  0  0  0  0  0  0
    0.9051   -0.6495   -0.4579 H   0  0  0  0  0  0  0  0  0  0  0  0
    0.7116    0.0795   -3.4579 H   0  0  0  0  0  0  0  0  0  0  0  0
    1.3827   -1.4216   -2.8132 H   0  0  0  0  0  0  0  0  0  0  0  0
    2.0124    2.3400   -2.8269 H   0  0  0  0  0  0  0  0  0  0  0  0
    4.7483    2.6926   -2.5006 H   0  0  0  0  0  0  0  0  0  0  0  0
    3.5934   -2.3723   -2.9266 H   0  0  0  0  0  0  0  0  0  0  0  0
    5.8144   -1.0906   -2.1472 H   0  0  0  0  0  0  0  0  0  0  0  0
    2.2657   -3.9051   -1.7614 H   0  0  0  0  0  0  0  0  0  0  0  0
    1.3220   -4.8024    0.3317 H   0  0  0  0  0  0  0  0  0  0  0  0
    0.7807   -5.0895    3.9194 H   0  0  0  0  0  0  0  0  0  0  0  0
    1.4653   -5.8369    2.4406 H   0  0  0  0  0  0  0  0  0  0  0  0
    0.0676   -4.7141    2.3181 H   0  0  0  0  0  0  0  0  0  0  0  0
    4.4881   -0.9708    0.4825 H   0  0  0  0  0  0  0  0  0  0  0  0
  1  2  1  0
  1 19  1  0
  1 20  1  0
  1 21  1  0
  2  3  1  0
  2 22  1  0
  2 23  1  0
  3  4  1  0
  3  7  1  0
  4  5  2  0
  4 24  1  0
  5  6  1  0
  5 25  1  0
  6  7  2  0
  7  8  1  0
  8  9  1  0
  8 10  1  0
  8 26  1  6
  9 27  1  0
 10 11  2  0
 10 18  1  0
 11 12  1  0
 11 28  1  0
 12 13  2  0
 12 29  1  0
 13 14  1  0
 13 16  1  0
 14 15  1  0
 15 30  1  0
 15 31  1  0
 15 32  1  0
 16 17  1  0
 16 18  2  0
 18 33  1  0
M  END

