
     RDKit          3D

 36 39  0  0  0  0  0  0  0  0999 V2000
    1.0902   -0.0862   -0.1778 O   0  0  0  0  0  0  0  0  0  0  0  0
    2.2895    0.0695   -0.0535 C   0  0  0  0  0  0  0  0  0  0  0  0
    3.0582   -0.4759    1.1584 C   0  0  0  0  0  0  0  0  0  0  0  0
    2.2502   -1.2272    2.0707 N   0  0  0  0  0  0  0  0  0  0  0  0
    1.2383   -0.5299    2.8771 C   0  0  0  0  0  0  0  0  0  0  0  0
    0.7460   -1.6018    3.8710 C   0  0  0  0  0  0  0  0  0  0  0  0
    1.9067   -2.5720    3.9104 C   0  0  0  0  0  0  0  0  0  0  0  0
    2.1917   -3.6183    4.7765 C   0  0  0  0  0  0  0  0  0  0  0  0
    3.3293   -4.4135    4.5526 C   0  0  0  0  0  0  0  0  0  0  0  0
    4.1558   -4.1469    3.4587 C   0  0  0  0  0  0  0  0  0  0  0  0
    3.8797   -3.0936    2.5739 C   0  0  0  0  0  0  0  0  0  0  0  0
    2.7455   -2.3059    2.8054 C   0  0  0  0  0  0  0  0  0  0  0  0
    3.0721    0.8124   -1.0636 C   0  0  0  0  0  0  0  0  0  0  0  0
    4.4180    1.0813   -1.0726 C   0  0  0  0  0  0  0  0  0  0  0  0
    4.7970    1.7863   -2.1614 O   0  0  0  0  0  0  0  0  0  0  0  0
    3.6682    1.9987   -2.9114 C   0  0  0  0  0  0  0  0  0  0  0  0
    3.6033    2.6850   -4.1209 C   0  0  0  0  0  0  0  0  0  0  0  0
    2.3409    2.7775   -4.7093 C   0  0  0  0  0  0  0  0  0  0  0  0
    1.2047    2.2033   -4.1021 C   0  0  0  0  0  0  0  0  0  0  0  0
    1.2915    1.5195   -2.8900 C   0  0  0  0  0  0  0  0  0  0  0  0
    2.5538    1.4159   -2.2814 C   0  0  0  0  0  0  0  0  0  0  0  0
    3.5600    0.3892    1.6524 H   0  0  0  0  0  0  0  0  0  0  0  0
    3.8685   -1.1133    0.7723 H   0  0  0  0  0  0  0  0  0  0  0  0
    0.4422   -0.1288    2.2369 H   0  0  0  0  0  0  0  0  0  0  0  0
    1.7094    0.3199    3.4187 H   0  0  0  0  0  0  0  0  0  0  0  0
   -0.1578   -2.1042    3.4814 H   0  0  0  0  0  0  0  0  0  0  0  0
    0.4867   -1.1779    4.8528 H   0  0  0  0  0  0  0  0  0  0  0  0
    1.5376   -3.8211    5.6296 H   0  0  0  0  0  0  0  0  0  0  0  0
    3.5662   -5.2353    5.2322 H   0  0  0  0  0  0  0  0  0  0  0  0
    5.0412   -4.7649    3.2857 H   0  0  0  0  0  0  0  0  0  0  0  0
    4.5448   -2.9068    1.7281 H   0  0  0  0  0  0  0  0  0  0  0  0
    5.2163    0.8377   -0.3746 H   0  0  0  0  0  0  0  0  0  0  0  0
    4.4937    3.1223   -4.5756 H   0  0  0  0  0  0  0  0  0  0  0  0
    2.2317    3.3053   -5.6598 H   0  0  0  0  0  0  0  0  0  0  0  0
    0.2346    2.2981   -4.5962 H   0  0  0  0  0  0  0  0  0  0  0  0
    0.4186    1.0722   -2.4145 H   0  0  0  0  0  0  0  0  0  0  0  0
  1  2  2  0
  2  3  1  0
  2 13  1  0
  3  4  1  0
  3 22  1  0
  3 23  1  0
  4  5  1  0
  4 12  1  0
  5  6  1  0
  5 24  1  0
  5 25  1  0
  6  7  1  0
  6 26  1  0
  6 27  1  0
  7  8  1  0
  7 12  2  0
  8  9  2  0
  8 28  1  0
  9 10  1  0
  9 29  1  0
 10 11  2  0
 10 30  1  0
 11 12  1  0
 11 31  1  0
 13 14  2  0
 13 21  1  0
 14 15  1  0
 14 32  1  0
 15 16  1  0
 16 17  1  0
 16 21  2  0
 17 18  2  0
 17 33  1  0
 18 19  1  0
 18 34  1  0
 19 20  2  0
 19 35  1  0
 20 21  1  0
 20 36  1  0
M  END

