
     RDKit          3D

 33 34  0  0  0  0  0  0  0  0999 V2000
    0.9624   -0.5558    0.2523 C   0  0  0  0  0  0  0  0  0  0  0  0
    2.3966   -0.3135   -0.1509 C   0  0  0  0  0  0  0  0  0  0  0  0
    2.7537    0.7333   -1.0062 C   0  0  0  0  0  0  0  0  0  0  0  0
    4.0886    0.9232   -1.3779 C   0  0  0  0  0  0  0  0  0  0  0  0
    5.1100    0.0920   -0.9068 C   0  0  0  0  0  0  0  0  0  0  0  0
    6.5670    0.3157   -1.3327 C   0  0  1  0  0  0  0  0  0  0  0  0
    6.7882    1.1491   -2.5107 N   0  0  0  0  0  0  0  0  0  0  0  0
    7.4437    0.8806   -0.2108 C   0  0  0  0  0  0  0  0  0  0  0  0
    6.9006    1.7825    0.7176 C   0  0  0  0  0  0  0  0  0  0  0  0
    7.6956    2.3711    1.7024 C   0  0  0  0  0  0  0  0  0  0  0  0
    6.9095    3.5932    2.9386 Br  0  0  0  0  0  0  0  0  0  0  0  0
    9.0554    2.0733    1.7960 C   0  0  0  0  0  0  0  0  0  0  0  0
    9.6122    1.1765    0.8826 C   0  0  0  0  0  0  0  0  0  0  0  0
    8.8182    0.5940   -0.1094 C   0  0  0  0  0  0  0  0  0  0  0  0
    9.6762   -0.6176   -1.3138 Br  0  0  0  0  0  0  0  0  0  0  0  0
    4.7653   -0.9785   -0.0432 C   0  0  0  0  0  0  0  0  0  0  0  0
    5.8105   -1.9284    0.4927 C   0  0  0  0  0  0  0  0  0  0  0  0
    3.4227   -1.1536    0.3124 C   0  0  0  0  0  0  0  0  0  0  0  0
    0.3082    0.2701   -0.0641 H   0  0  0  0  0  0  0  0  0  0  0  0
    0.8642   -0.6671    1.3445 H   0  0  0  0  0  0  0  0  0  0  0  0
    0.5708   -1.4830   -0.2008 H   0  0  0  0  0  0  0  0  0  0  0  0
    1.9846    1.4085   -1.3919 H   0  0  0  0  0  0  0  0  0  0  0  0
    4.3362    1.7397   -2.0599 H   0  0  0  0  0  0  0  0  0  0  0  0
    6.9817   -0.6749   -1.5791 H   0  0  0  0  0  0  0  0  0  0  0  0
    6.5095    2.1150   -2.3433 H   0  0  0  0  0  0  0  0  0  0  0  0
    6.2550    0.8056   -3.3090 H   0  0  0  0  0  0  0  0  0  0  0  0
    5.8363    2.0170    0.6690 H   0  0  0  0  0  0  0  0  0  0  0  0
    9.6749    2.5290    2.5699 H   0  0  0  0  0  0  0  0  0  0  0  0
   10.6733    0.9286    0.9414 H   0  0  0  0  0  0  0  0  0  0  0  0
    6.5640   -1.4065    1.1047 H   0  0  0  0  0  0  0  0  0  0  0  0
    6.3625   -2.4321   -0.3189 H   0  0  0  0  0  0  0  0  0  0  0  0
    5.3520   -2.7087    1.1171 H   0  0  0  0  0  0  0  0  0  0  0  0
    3.1643   -1.9833    0.9786 H   0  0  0  0  0  0  0  0  0  0  0  0
  1  2  1  0
  1 19  1  0
  1 20  1  0
  1 21  1  0
  2  3  2  0
  2 18  1  0
  3  4  1  0
  3 22  1  0
  4  5  2  0
  4 23  1  0
  5  6  1  0
  5 16  1  0
  6  7  1  0
  6  8  1  0
  6 24  1  6
  7 25  1  0
  7 26  1  0
  8  9  2  0
  8 14  1  0
  9 10  1  0
  9 27  1  0
 10 11  1  0
 10 12  2  0
 12 13  1  0
 12 28  1  0
 13 14  2  0
 13 29  1  0
 14 15  1  0
 16 17  1  0
 16 18  2  0
 17 30  1  0
 17 31  1  0
 17 32  1  0
 18 33  1  0
M  END

