
     RDKit          3D

 32 33  0  0  0  0  0  0  0  0999 V2000
    2.7183    0.1969    1.4045 C   0  0  0  0  0  0  0  0  0  0  0  0
    2.3774   -0.0993   -0.0572 C   0  0  2  0  0  0  0  0  0  0  0  0
    1.2768   -0.0886   -0.1699 H   0  0  0  0  0  0  0  0  0  0  0  0
    2.8810   -1.4789   -0.5096 C   0  0  0  0  0  0  0  0  0  0  0  0
    2.5976   -1.7216   -1.9959 C   0  0  0  0  0  0  0  0  0  0  0  0
    3.1518   -0.5791   -2.8513 C   0  0  0  0  0  0  0  0  0  0  0  0
    2.6625    0.7227   -2.3925 N   0  0  0  0  0  0  0  0  0  0  0  0
    1.7838    1.4109   -3.1978 C   0  0  0  0  0  0  0  0  0  0  0  0
    1.3257    0.9369   -4.2283 O   0  0  0  0  0  0  0  0  0  0  0  0
    1.4077    2.8249   -2.8180 C   0  0  0  0  0  0  0  0  0  0  0  0
    0.0721    3.2210   -2.9836 C   0  0  0  0  0  0  0  0  0  0  0  0
   -0.3098    4.5381   -2.7431 C   0  0  0  0  0  0  0  0  0  0  0  0
    0.6410    5.4936   -2.3631 C   0  0  0  0  0  0  0  0  0  0  0  0
    0.1359    7.1327   -2.0789 Cl  0  0  0  0  0  0  0  0  0  0  0  0
    1.9868    5.1134   -2.2276 C   0  0  0  0  0  0  0  0  0  0  0  0
    3.2097    6.2722   -1.7874 Cl  0  0  0  0  0  0  0  0  0  0  0  0
    2.3598    3.7841   -2.4510 C   0  0  0  0  0  0  0  0  0  0  0  0
    2.9288    1.0038   -0.9836 C   0  0  0  0  0  0  0  0  0  0  0  0
    3.8101    0.2128    1.5637 H   0  0  0  0  0  0  0  0  0  0  0  0
    2.2978   -0.5717    2.0722 H   0  0  0  0  0  0  0  0  0  0  0  0
    2.3193    1.1732    1.7251 H   0  0  0  0  0  0  0  0  0  0  0  0
    2.4220   -2.2687    0.1088 H   0  0  0  0  0  0  0  0  0  0  0  0
    3.9716   -1.5376   -0.3289 H   0  0  0  0  0  0  0  0  0  0  0  0
    1.5096   -1.7977   -2.1654 H   0  0  0  0  0  0  0  0  0  0  0  0
    3.0407   -2.6756   -2.3267 H   0  0  0  0  0  0  0  0  0  0  0  0
    2.8635   -0.6901   -3.9030 H   0  0  0  0  0  0  0  0  0  0  0  0
    4.2566   -0.5706   -2.7891 H   0  0  0  0  0  0  0  0  0  0  0  0
   -0.6633    2.4856   -3.3144 H   0  0  0  0  0  0  0  0  0  0  0  0
   -1.3498    4.8486   -2.8564 H   0  0  0  0  0  0  0  0  0  0  0  0
    3.4132    3.5176   -2.3532 H   0  0  0  0  0  0  0  0  0  0  0  0
    2.4869    1.9680   -0.7076 H   0  0  0  0  0  0  0  0  0  0  0  0
    4.0231    1.0893   -0.8321 H   0  0  0  0  0  0  0  0  0  0  0  0
  1  2  1  0
  1 19  1  0
  1 20  1  0
  1 21  1  0
  2  3  1  1
  2  4  1  0
  2 18  1  0
  4  5  1  0
  4 22  1  0
  4 23  1  0
  5  6  1  0
  5 24  1  0
  5 25  1  0
  6  7  1  0
  6 26  1  0
  6 27  1  0
  7  8  1  0
  7 18  1  0
  8  9  2  0
  8 10  1  0
 10 11  2  0
 10 17  1  0
 11 12  1  0
 11 28  1  0
 12 13  2  0
 12 29  1  0
 13 14  1  0
 13 15  1  0
 15 16  1  0
 15 17  2  0
 17 30  1  0
 18 31  1  0
 18 32  1  0
M  END

