
     RDKit          3D

 32 33  0  0  0  0  0  0  0  0999 V2000
    0.9248    0.1395    0.0380 C   0  0  0  0  0  0  0  0  0  0  0  0
    2.4154    0.0983   -0.0494 C   0  0  0  0  0  0  0  0  0  0  0  0
    3.1874    1.1569    0.0183 N   0  0  0  0  0  0  0  0  0  0  0  0
    4.4840    0.7104   -0.0800 C   0  0  0  0  0  0  0  0  0  0  0  0
    4.5145   -0.6520   -0.1976 C   0  0  0  0  0  0  0  0  0  0  0  0
    3.1819   -1.0613   -0.1833 N   0  0  0  0  0  0  0  0  0  0  0  0
    2.7457   -2.3998   -0.2521 C   0  0  0  0  0  0  0  0  0  0  0  0
    3.5572   -3.4575    0.1989 C   0  0  0  0  0  0  0  0  0  0  0  0
    3.1629   -4.7217    0.0960 N   0  0  0  0  0  0  0  0  0  0  0  0
    1.9597   -4.9885   -0.4255 C   0  0  0  0  0  0  0  0  0  0  0  0
    1.5034   -6.4474   -0.5504 C   0  0  1  0  0  0  0  0  0  0  0  0
    2.5912   -7.3982   -0.0249 C   0  0  0  0  0  0  0  0  0  0  0  0
    0.2111   -6.6512    0.2740 C   0  0  0  0  0  0  0  0  0  0  0  0
    1.2240   -6.7687   -2.0369 C   0  0  0  0  0  0  0  0  0  0  0  0
    1.1472   -3.9137   -0.8360 C   0  0  0  0  0  0  0  0  0  0  0  0
    1.5396   -2.6457   -0.7594 N   0  0  0  0  0  0  0  0  0  0  0  0
    0.6399    1.1728    0.2754 H   0  0  0  0  0  0  0  0  0  0  0  0
    0.5366   -0.5316    0.8203 H   0  0  0  0  0  0  0  0  0  0  0  0
    0.4506   -0.1658   -0.9060 H   0  0  0  0  0  0  0  0  0  0  0  0
    5.3301    1.3968   -0.0680 H   0  0  0  0  0  0  0  0  0  0  0  0
    5.3329   -1.3532   -0.3301 H   0  0  0  0  0  0  0  0  0  0  0  0
    4.5315   -3.2696    0.6607 H   0  0  0  0  0  0  0  0  0  0  0  0
    2.8196   -7.2030    1.0327 H   0  0  0  0  0  0  0  0  0  0  0  0
    3.5303   -7.2837   -0.5853 H   0  0  0  0  0  0  0  0  0  0  0  0
    2.2511   -8.4415   -0.1227 H   0  0  0  0  0  0  0  0  0  0  0  0
    0.3796   -6.4231    1.3385 H   0  0  0  0  0  0  0  0  0  0  0  0
   -0.1241   -7.6985    0.2017 H   0  0  0  0  0  0  0  0  0  0  0  0
   -0.6139   -6.0144   -0.0825 H   0  0  0  0  0  0  0  0  0  0  0  0
    2.1284   -6.6279   -2.6500 H   0  0  0  0  0  0  0  0  0  0  0  0
    0.4284   -6.1330   -2.4567 H   0  0  0  0  0  0  0  0  0  0  0  0
    0.9023   -7.8172   -2.1449 H   0  0  0  0  0  0  0  0  0  0  0  0
    0.1474   -4.0861   -1.2477 H   0  0  0  0  0  0  0  0  0  0  0  0
  1  2  1  0
  1 17  1  0
  1 18  1  0
  1 19  1  0
  2  3  2  0
  2  6  1  0
  3  4  1  0
  4  5  2  0
  4 20  1  0
  5  6  1  0
  5 21  1  0
  6  7  1  0
  7  8  2  0
  7 16  1  0
  8  9  1  0
  8 22  1  0
  9 10  2  0
 10 11  1  0
 10 15  1  0
 11 12  1  1
 11 13  1  0
 11 14  1  0
 12 23  1  0
 12 24  1  0
 12 25  1  0
 13 26  1  0
 13 27  1  0
 13 28  1  0
 14 29  1  0
 14 30  1  0
 14 31  1  0
 15 16  2  0
 15 32  1  0
M  END

