
     RDKit          3D

 35 38  0  0  0  0  0  0  0  0999 V2000
    2.5328   -1.4579   -0.0163 N   0  0  0  0  0  0  0  0  0  0  0  0
    2.3552   -0.1185    0.0329 C   0  0  0  0  0  0  0  0  0  0  0  0
    1.6908    0.5203   -0.7667 O   0  0  0  0  0  0  0  0  0  0  0  0
    3.0554    0.5933    1.1807 C   0  0  0  0  0  0  0  0  0  0  0  0
    2.9058    1.9505    1.2714 C   0  0  0  0  0  0  0  0  0  0  0  0
    3.5314    2.7100    2.3203 C   0  0  0  0  0  0  0  0  0  0  0  0
    3.4298    4.1153    2.4880 C   0  0  0  0  0  0  0  0  0  0  0  0
    2.6105    4.9513    1.5197 C   0  0  1  0  0  0  0  0  0  0  0  0
    3.0789    4.8368    0.2671 F   0  0  0  0  0  0  0  0  0  0  0  0
    1.3271    4.5595    1.5095 F   0  0  0  0  0  0  0  0  0  0  0  0
    2.6361    6.2496    1.8452 F   0  0  0  0  0  0  0  0  0  0  0  0
    4.0832    4.7372    3.5442 C   0  0  0  0  0  0  0  0  0  0  0  0
    4.8361    3.9454    4.4256 C   0  0  0  0  0  0  0  0  0  0  0  0
    5.5802    4.5615    5.6025 C   0  0  1  0  0  0  0  0  0  0  0  0
    5.4008    5.8920    5.6412 F   0  0  0  0  0  0  0  0  0  0  0  0
    5.1464    4.0540    6.7616 F   0  0  0  0  0  0  0  0  0  0  0  0
    6.8935    4.3254    5.5143 F   0  0  0  0  0  0  0  0  0  0  0  0
    4.9547    2.6333    4.3028 N   0  0  0  0  0  0  0  0  0  0  0  0
    4.3284    2.0405    3.2942 C   0  0  0  0  0  0  0  0  0  0  0  0
    4.4627    0.6601    3.1797 N   0  0  0  0  0  0  0  0  0  0  0  0
    5.1613   -0.2201    3.9703 C   0  0  0  0  0  0  0  0  0  0  0  0
    4.9484   -1.4627    3.3956 C   0  0  0  0  0  0  0  0  0  0  0  0
    5.4832   -2.7247    3.8729 C   0  0  0  0  0  0  0  0  0  0  0  0
    6.2427   -2.9291    4.9089 N   0  0  0  0  0  0  0  0  0  0  0  0
    6.4883   -4.2885    4.9514 N   0  0  0  0  0  0  0  0  0  0  0  0
    5.8613   -4.8000    3.9447 C   0  0  0  0  0  0  0  0  0  0  0  0
    5.1996   -3.8748    3.2114 O   0  0  0  0  0  0  0  0  0  0  0  0
    4.1489   -1.3664    2.2883 N   0  0  0  0  0  0  0  0  0  0  0  0
    3.8581   -0.0834    2.1613 C   0  0  0  0  0  0  0  0  0  0  0  0
    2.0815   -1.9637   -0.7690 H   0  0  0  0  0  0  0  0  0  0  0  0
    3.1020   -1.9381    0.6817 H   0  0  0  0  0  0  0  0  0  0  0  0
    2.2906    2.4322    0.5114 H   0  0  0  0  0  0  0  0  0  0  0  0
    4.0154    5.8137    3.6880 H   0  0  0  0  0  0  0  0  0  0  0  0
    5.7274    0.0966    4.8399 H   0  0  0  0  0  0  0  0  0  0  0  0
    5.8073   -5.8407    3.6340 H   0  0  0  0  0  0  0  0  0  0  0  0
  1  2  1  0
  1 30  1  0
  1 31  1  0
  2  3  2  0
  2  4  1  0
  4  5  2  0
  4 29  1  0
  5  6  1  0
  5 32  1  0
  6  7  2  0
  6 19  1  0
  7  8  1  0
  7 12  1  0
  8  9  1  6
  8 10  1  0
  8 11  1  0
 12 13  2  0
 12 33  1  0
 13 14  1  0
 13 18  1  0
 14 15  1  1
 14 16  1  0
 14 17  1  0
 18 19  2  0
 19 20  1  0
 20 21  1  0
 20 29  1  0
 21 22  2  0
 21 34  1  0
 22 23  1  0
 22 28  1  0
 23 24  2  0
 23 27  1  0
 24 25  1  0
 25 26  2  0
 26 27  1  0
 26 35  1  0
 28 29  2  0
M  END

