
     RDKit          3D

 51 53  0  0  0  0  0  0  0  0999 V2000
    0.8896    1.3991    0.4071 O   0  0  0  0  0  0  0  0  0  0  0  0
    2.0497    1.0180    0.3583 C   0  0  0  0  0  0  0  0  0  0  0  0
    2.7379    0.8349   -0.7999 N   0  0  0  0  0  0  0  0  0  0  0  0
    2.1698    1.0828   -2.1267 C   0  0  1  0  0  0  0  0  0  0  0  0
    2.9150    2.2586   -2.7827 C   0  0  0  0  0  0  0  0  0  0  0  0
    2.3535    2.8121   -4.1057 C   0  0  0  0  0  0  0  0  0  0  0  0
    0.8207    3.0011   -4.1666 C   0  0  0  0  0  0  0  0  0  0  0  0
    0.0308    1.8933   -4.8852 C   0  0  0  0  0  0  0  0  0  0  0  0
    0.0316    0.4715   -4.2973 C   0  0  0  0  0  0  0  0  0  0  0  0
    1.3986   -0.2491   -4.2647 C   0  0  0  0  0  0  0  0  0  0  0  0
    2.1361   -0.2395   -2.9127 C   0  0  0  0  0  0  0  0  0  0  0  0
    2.8293    0.7257    1.6445 C   0  0  1  0  0  0  0  0  0  0  0  0
    2.9697    1.9605    2.5456 C   0  0  0  0  0  0  0  0  0  0  0  0
    2.9829    1.4070    3.9631 C   0  0  0  0  0  0  0  0  0  0  0  0
    3.3636    1.9919    4.9542 O   0  0  0  0  0  0  0  0  0  0  0  0
    2.4501    0.1203    3.9126 N   0  0  0  0  0  0  0  0  0  0  0  0
    2.1444   -0.6941    5.0196 C   0  0  0  0  0  0  0  0  0  0  0  0
    2.6094   -0.3992    6.3225 C   0  0  0  0  0  0  0  0  0  0  0  0
    2.2948   -1.2373    7.3866 C   0  0  0  0  0  0  0  0  0  0  0  0
    1.5143   -2.3797    7.2052 C   0  0  0  0  0  0  0  0  0  0  0  0
    1.2661   -3.1513    8.2558 F   0  0  0  0  0  0  0  0  0  0  0  0
    1.0466   -2.6758    5.9177 C   0  0  0  0  0  0  0  0  0  0  0  0
    0.2075   -3.8564    5.6390 N   0  0  0  0  0  0  0  0  0  0  0  0
   -0.2948   -4.4344    6.5852 O   0  0  0  0  0  0  0  0  0  0  0  0
    0.0633   -4.1732    4.4667 O   0  0  0  0  0  0  0  0  0  0  0  0
    1.3610   -1.8423    4.8400 C   0  0  0  0  0  0  0  0  0  0  0  0
    2.0766   -0.2701    2.5503 C   0  0  0  0  0  0  0  0  0  0  0  0
    3.6996    0.5178   -0.7479 H   0  0  0  0  0  0  0  0  0  0  0  0
    1.1367    1.3947   -1.9200 H   0  0  0  0  0  0  0  0  0  0  0  0
    3.9758    1.9799   -2.9278 H   0  0  0  0  0  0  0  0  0  0  0  0
    2.9154    3.0743   -2.0394 H   0  0  0  0  0  0  0  0  0  0  0  0
    2.6792    2.1900   -4.9548 H   0  0  0  0  0  0  0  0  0  0  0  0
    2.8410    3.7878   -4.2669 H   0  0  0  0  0  0  0  0  0  0  0  0
    0.6078    3.9399   -4.7046 H   0  0  0  0  0  0  0  0  0  0  0  0
    0.4176    3.1564   -3.1496 H   0  0  0  0  0  0  0  0  0  0  0  0
    0.3976    1.8328   -5.9274 H   0  0  0  0  0  0  0  0  0  0  0  0
   -1.0194    2.2250   -4.9623 H   0  0  0  0  0  0  0  0  0  0  0  0
   -0.6608   -0.1253   -4.9142 H   0  0  0  0  0  0  0  0  0  0  0  0
   -0.4176    0.4777   -3.2878 H   0  0  0  0  0  0  0  0  0  0  0  0
    2.0442    0.1553   -5.0607 H   0  0  0  0  0  0  0  0  0  0  0  0
    1.2511   -1.3086   -4.5314 H   0  0  0  0  0  0  0  0  0  0  0  0
    3.1718   -0.5989   -3.0629 H   0  0  0  0  0  0  0  0  0  0  0  0
    1.6528   -0.9780   -2.2502 H   0  0  0  0  0  0  0  0  0  0  0  0
    3.8292    0.3216    1.4164 H   0  0  0  0  0  0  0  0  0  0  0  0
    2.0814    2.6081    2.4459 H   0  0  0  0  0  0  0  0  0  0  0  0
    3.8626    2.5728    2.3606 H   0  0  0  0  0  0  0  0  0  0  0  0
    3.2086    0.4936    6.4832 H   0  0  0  0  0  0  0  0  0  0  0  0
    2.6581   -1.0198    8.3931 H   0  0  0  0  0  0  0  0  0  0  0  0
    0.9634   -2.1345    3.8714 H   0  0  0  0  0  0  0  0  0  0  0  0
    0.9881   -0.1753    2.3954 H   0  0  0  0  0  0  0  0  0  0  0  0
    2.3692   -1.3120    2.3506 H   0  0  0  0  0  0  0  0  0  0  0  0
  1  2  2  0
  2  3  1  0
  2 12  1  0
  3  4  1  0
  3 28  1  0
  4  5  1  0
  4 11  1  0
  4 29  1  1
  5  6  1  0
  5 30  1  0
  5 31  1  0
  6  7  1  0
  6 32  1  0
  6 33  1  0
  7  8  1  0
  7 34  1  0
  7 35  1  0
  8  9  1  0
  8 36  1  0
  8 37  1  0
  9 10  1  0
  9 38  1  0
  9 39  1  0
 10 11  1  0
 10 40  1  0
 10 41  1  0
 11 42  1  0
 11 43  1  0
 12 13  1  0
 12 27  1  0
 12 44  1  6
 13 14  1  0
 13 45  1  0
 13 46  1  0
 14 15  2  0
 14 16  1  0
 16 17  1  0
 16 27  1  0
 17 18  2  0
 17 26  1  0
 18 19  1  0
 18 47  1  0
 19 20  2  0
 19 48  1  0
 20 21  1  0
 20 22  1  0
 22 23  1  0
 22 26  2  0
 23 24  2  0
 23 25  1  0
 26 49  1  0
 27 50  1  0
 27 51  1  0
M  CHG  2  23   1  25  -1
M  END

