
     RDKit          3D

 34 35  0  0  0  0  0  0  0  0999 V2000
    0.8795    0.3836   -0.3457 C   0  0  0  0  0  0  0  0  0  0  0  0
    2.2980    0.0160    0.1166 C   0  0  1  0  0  0  0  0  0  0  0  0
    2.2664   -0.2354    1.6368 C   0  0  0  0  0  0  0  0  0  0  0  0
    2.7525   -1.2649   -0.6334 C   0  0  0  0  0  0  0  0  0  0  0  0
    4.2319   -1.6336   -0.5087 C   0  0  0  0  0  0  0  0  0  0  0  0
    5.0840   -0.8731   -1.3471 O   0  0  0  0  0  0  0  0  0  0  0  0
    5.4314    0.4642   -1.0268 C   0  0  2  0  0  0  0  0  0  0  0  0
    6.9178    0.5600   -0.6945 C   0  0  0  0  0  0  0  0  0  0  0  0
    7.6123   -0.5558   -0.2042 C   0  0  0  0  0  0  0  0  0  0  0  0
    8.9643   -0.5030    0.1366 C   0  0  0  0  0  0  0  0  0  0  0  0
    9.6574    0.6985   -0.0246 C   0  0  0  0  0  0  0  0  0  0  0  0
   11.5061    0.7995    0.4296 Br  0  0  0  0  0  0  0  0  0  0  0  0
    9.0135    1.8298   -0.5262 C   0  0  0  0  0  0  0  0  0  0  0  0
    7.6569    1.7451   -0.8533 C   0  0  0  0  0  0  0  0  0  0  0  0
    6.9003    3.1914   -1.5099 Cl  0  0  0  0  0  0  0  0  0  0  0  0
    4.5720    1.1287    0.0791 C   0  0  0  0  0  0  0  0  0  0  0  0
    3.1446    1.1882   -0.1609 N   0  0  0  0  0  0  0  0  0  0  0  0
    0.1756   -0.4424   -0.1607 H   0  0  0  0  0  0  0  0  0  0  0  0
    0.8628    0.5986   -1.4278 H   0  0  0  0  0  0  0  0  0  0  0  0
    0.5206    1.2776    0.1865 H   0  0  0  0  0  0  0  0  0  0  0  0
    1.5455   -1.0308    1.8828 H   0  0  0  0  0  0  0  0  0  0  0  0
    1.9697    0.6844    2.1626 H   0  0  0  0  0  0  0  0  0  0  0  0
    3.2436   -0.5479    2.0365 H   0  0  0  0  0  0  0  0  0  0  0  0
    2.5380   -1.1540   -1.7107 H   0  0  0  0  0  0  0  0  0  0  0  0
    2.1496   -2.1213   -0.2812 H   0  0  0  0  0  0  0  0  0  0  0  0
    4.3680   -2.6717   -0.8515 H   0  0  0  0  0  0  0  0  0  0  0  0
    4.5640   -1.6090    0.5463 H   0  0  0  0  0  0  0  0  0  0  0  0
    5.2656    1.0505   -1.9490 H   0  0  0  0  0  0  0  0  0  0  0  0
    7.0730   -1.4995   -0.1121 H   0  0  0  0  0  0  0  0  0  0  0  0
    9.4760   -1.3887    0.5158 H   0  0  0  0  0  0  0  0  0  0  0  0
    9.5503    2.7673   -0.6693 H   0  0  0  0  0  0  0  0  0  0  0  0
    4.9561    2.1555    0.1908 H   0  0  0  0  0  0  0  0  0  0  0  0
    4.7626    0.6364    1.0443 H   0  0  0  0  0  0  0  0  0  0  0  0
    2.9470    1.5668   -1.0854 H   0  0  0  0  0  0  0  0  0  0  0  0
  2  1  1  6
  1 18  1  0
  1 19  1  0
  1 20  1  0
  2  3  1  0
  2  4  1  0
  2 17  1  0
  3 21  1  0
  3 22  1  0
  3 23  1  0
  4  5  1  0
  4 24  1  0
  4 25  1  0
  5  6  1  0
  5 26  1  0
  5 27  1  0
  6  7  1  0
  7  8  1  0
  7 16  1  0
  7 28  1  6
  8  9  2  0
  8 14  1  0
  9 10  1  0
  9 29  1  0
 10 11  2  0
 10 30  1  0
 11 12  1  0
 11 13  1  0
 13 14  2  0
 13 31  1  0
 14 15  1  0
 16 17  1  0
 16 32  1  0
 16 33  1  0
 17 34  1  0
M  END

