
     RDKit          3D

 45 47  0  0  0  0  0  0  0  0999 V2000
    1.1290    0.8121    0.6196 O   0  0  0  0  0  0  0  0  0  0  0  0
    2.5652    0.6550    0.3946 S   0  0  1  0  0  0  0  0  0  0  0  0
    3.1305   -0.4788   -0.3325 O   0  0  0  0  0  0  0  0  0  0  0  0
    3.1877    2.1266   -0.3861 C   0  0  0  0  0  0  0  0  0  0  0  0
    2.3550    3.1323   -0.6979 C   0  0  0  0  0  0  0  0  0  0  0  0
    2.6974    4.3927   -1.3692 C   0  0  0  0  0  0  0  0  0  0  0  0
    3.9994    4.7042   -1.8100 C   0  0  0  0  0  0  0  0  0  0  0  0
    4.2591    5.9198   -2.4382 C   0  0  0  0  0  0  0  0  0  0  0  0
    3.2367    6.8532   -2.6441 C   0  0  0  0  0  0  0  0  0  0  0  0
    1.9449    6.5465   -2.2096 C   0  0  0  0  0  0  0  0  0  0  0  0
    0.6529    7.6964   -2.4575 Cl  0  0  0  0  0  0  0  0  0  0  0  0
    1.6700    5.3314   -1.5795 C   0  0  0  0  0  0  0  0  0  0  0  0
    3.2302    0.6366    1.9509 N   0  0  0  0  0  0  0  0  0  0  0  0
    4.6195    0.5506    2.2301 C   0  0  0  0  0  0  0  0  0  0  0  0
    5.2246    1.4882    3.0754 C   0  0  0  0  0  0  0  0  0  0  0  0
    6.5791    1.3907    3.4139 C   0  0  0  0  0  0  0  0  0  0  0  0
    7.3576    0.3565    2.8761 C   0  0  0  0  0  0  0  0  0  0  0  0
    8.6824    0.1758    3.1260 O   0  0  0  0  0  0  0  0  0  0  0  0
    9.3529    1.0580    3.9993 C   0  0  0  0  0  0  0  0  0  0  0  0
   10.7976    0.6369    4.1518 C   0  0  0  0  0  0  0  0  0  0  0  0
   11.2237   -0.6604    3.8408 C   0  0  0  0  0  0  0  0  0  0  0  0
   12.5599   -1.0235    4.0336 C   0  0  0  0  0  0  0  0  0  0  0  0
   13.4856   -0.1084    4.5390 C   0  0  0  0  0  0  0  0  0  0  0  0
   13.0522    1.1846    4.8462 C   0  0  0  0  0  0  0  0  0  0  0  0
   14.1944    2.3535    5.4730 Cl  0  0  0  0  0  0  0  0  0  0  0  0
   11.7225    1.5636    4.6535 C   0  0  0  0  0  0  0  0  0  0  0  0
    6.7549   -0.5780    2.0157 C   0  0  0  0  0  0  0  0  0  0  0  0
    5.4028   -0.4962    1.7068 C   0  0  0  0  0  0  0  0  0  0  0  0
    4.2580    2.0902   -0.6003 H   0  0  0  0  0  0  0  0  0  0  0  0
    1.3018    3.0011   -0.4262 H   0  0  0  0  0  0  0  0  0  0  0  0
    4.8128    3.9911   -1.6643 H   0  0  0  0  0  0  0  0  0  0  0  0
    5.2717    6.1509   -2.7776 H   0  0  0  0  0  0  0  0  0  0  0  0
    3.4340    7.8068   -3.1362 H   0  0  0  0  0  0  0  0  0  0  0  0
    0.6521    5.1136   -1.2510 H   0  0  0  0  0  0  0  0  0  0  0  0
    2.6859    1.2379    2.5653 H   0  0  0  0  0  0  0  0  0  0  0  0
    4.6304    2.3090    3.4868 H   0  0  0  0  0  0  0  0  0  0  0  0
    7.0086    2.1337    4.0855 H   0  0  0  0  0  0  0  0  0  0  0  0
    8.8590    1.0564    4.9920 H   0  0  0  0  0  0  0  0  0  0  0  0
    9.3035    2.0954    3.6170 H   0  0  0  0  0  0  0  0  0  0  0  0
   10.5058   -1.3770    3.4416 H   0  0  0  0  0  0  0  0  0  0  0  0
   12.8877   -2.0364    3.7860 H   0  0  0  0  0  0  0  0  0  0  0  0
   14.5301   -0.3840    4.6920 H   0  0  0  0  0  0  0  0  0  0  0  0
   11.4171    2.5845    4.8945 H   0  0  0  0  0  0  0  0  0  0  0  0
    7.3706   -1.3832    1.6099 H   0  0  0  0  0  0  0  0  0  0  0  0
    4.9370   -1.2352    1.0554 H   0  0  0  0  0  0  0  0  0  0  0  0
  1  2  2  0
  2  3  2  0
  2  4  1  6
  2 13  1  0
  4  5  2  0
  4 29  1  0
  5  6  1  0
  5 30  1  0
  6  7  2  0
  6 12  1  0
  7  8  1  0
  7 31  1  0
  8  9  2  0
  8 32  1  0
  9 10  1  0
  9 33  1  0
 10 11  1  0
 10 12  2  0
 12 34  1  0
 13 14  1  0
 13 35  1  0
 14 15  2  0
 14 28  1  0
 15 16  1  0
 15 36  1  0
 16 17  2  0
 16 37  1  0
 17 18  1  0
 17 27  1  0
 18 19  1  0
 19 20  1  0
 19 38  1  0
 19 39  1  0
 20 21  2  0
 20 26  1  0
 21 22  1  0
 21 40  1  0
 22 23  2  0
 22 41  1  0
 23 24  1  0
 23 42  1  0
 24 25  1  0
 24 26  2  0
 26 43  1  0
 27 28  2  0
 27 44  1  0
 28 45  1  0
M  END

