
     RDKit          3D

 67 73  0  0  0  0  0  0  0  0999 V2000
    0.5652   -5.0539   -4.1216 C   0  0  0  0  0  0  0  0  0  0  0  0
   -0.0683   -5.6246   -2.8962 C   0  0  0  0  0  0  0  0  0  0  0  0
   -1.2083   -6.3211   -2.9935 N   0  0  0  0  0  0  0  0  0  0  0  0
   -1.5042   -6.6926   -1.7365 N   0  0  0  0  0  0  0  0  0  0  0  0
   -2.5764   -7.4254   -1.3466 C   0  0  0  0  0  0  0  0  0  0  0  0
   -2.7087   -7.7121   -0.0083 C   0  0  0  0  0  0  0  0  0  0  0  0
   -1.7175   -7.2284    0.8915 C   0  0  0  0  0  0  0  0  0  0  0  0
   -0.6778   -6.5153    0.5090 N   0  0  0  0  0  0  0  0  0  0  0  0
   -0.5580   -6.2381   -0.8028 C   0  0  0  0  0  0  0  0  0  0  0  0
    0.3924   -5.5326   -1.5516 C   0  0  0  0  0  0  0  0  0  0  0  0
    1.6175   -4.8499   -1.0793 C   0  0  0  0  0  0  0  0  0  0  0  0
    2.4005   -4.3102   -1.8592 O   0  0  0  0  0  0  0  0  0  0  0  0
    1.8018   -4.8459    0.2743 N   0  0  0  0  0  0  0  0  0  0  0  0
    3.0262   -4.3337    0.8527 C   0  0  1  0  0  0  0  0  0  0  0  0
    3.3073   -3.4483    0.2731 H   0  0  0  0  0  0  0  0  0  0  0  0
    2.8015   -3.9341    2.3160 C   0  0  0  0  0  0  0  0  0  0  0  0
    4.1512   -5.3751    0.7610 C   0  0  0  0  0  0  0  0  0  0  0  0
    3.8348   -6.5999    1.0188 N   0  0  0  0  0  0  0  0  0  0  0  0
    4.8080   -7.5775    0.9961 C   0  0  0  0  0  0  0  0  0  0  0  0
    4.4199   -8.9057    1.2698 C   0  0  0  0  0  0  0  0  0  0  0  0
    5.3675   -9.9196    1.2611 C   0  0  0  0  0  0  0  0  0  0  0  0
    6.7101   -9.6393    0.9835 C   0  0  0  0  0  0  0  0  0  0  0  0
    7.1383   -8.3274    0.7059 C   0  0  0  0  0  0  0  0  0  0  0  0
    8.5173   -8.1095    0.4320 C   0  0  0  0  0  0  0  0  0  0  0  0
    9.7121   -7.9974    0.2058 C   0  0  0  0  0  0  0  0  0  0  0  0
   11.0721   -7.7511   -0.0710 C   0  0  0  0  0  0  0  0  0  0  0  0
   11.6822   -6.5053   -0.3819 C   0  0  0  0  0  0  0  0  0  0  0  0
   12.9910   -6.6039   -0.5929 N   0  0  0  0  0  0  0  0  0  0  0  0
   13.2697   -7.9126   -0.4263 N   0  0  0  0  0  0  0  0  0  0  0  0
   14.5169   -8.4571   -0.5537 C   0  0  0  0  0  0  0  0  0  0  0  0
   14.6805   -9.8041   -0.3609 C   0  0  0  0  0  0  0  0  0  0  0  0
   13.5585  -10.6209   -0.0318 C   0  0  0  0  0  0  0  0  0  0  0  0
   12.3054  -10.0627    0.0943 C   0  0  0  0  0  0  0  0  0  0  0  0
   12.1438   -8.6714   -0.1061 C   0  0  0  0  0  0  0  0  0  0  0  0
    6.1650   -7.2795    0.7136 C   0  0  0  0  0  0  0  0  0  0  0  0
    6.5369   -5.8846    0.4321 C   0  0  0  0  0  0  0  0  0  0  0  0
    7.6530   -5.4798    0.1786 O   0  0  0  0  0  0  0  0  0  0  0  0
    5.4403   -4.9642    0.4695 N   0  0  0  0  0  0  0  0  0  0  0  0
    5.7642   -3.5905    0.1533 C   0  0  0  0  0  0  0  0  0  0  0  0
    5.4300   -3.0633   -1.0986 C   0  0  0  0  0  0  0  0  0  0  0  0
    5.7666   -1.7403   -1.3982 C   0  0  0  0  0  0  0  0  0  0  0  0
    6.4446   -0.9541   -0.4621 C   0  0  0  0  0  0  0  0  0  0  0  0
    6.7832   -1.4909    0.7841 C   0  0  0  0  0  0  0  0  0  0  0  0
    6.4445   -2.8098    1.0937 C   0  0  0  0  0  0  0  0  0  0  0  0
   -0.0490   -5.2871   -5.0019 H   0  0  0  0  0  0  0  0  0  0  0  0
    1.5797   -5.4582   -4.2558 H   0  0  0  0  0  0  0  0  0  0  0  0
    0.6855   -3.9646   -4.0259 H   0  0  0  0  0  0  0  0  0  0  0  0
   -3.2609   -7.7365   -2.1374 H   0  0  0  0  0  0  0  0  0  0  0  0
   -3.5546   -8.2985    0.3501 H   0  0  0  0  0  0  0  0  0  0  0  0
   -1.8019   -7.4484    1.9615 H   0  0  0  0  0  0  0  0  0  0  0  0
    1.2198   -5.4654    0.8364 H   0  0  0  0  0  0  0  0  0  0  0  0
    1.9946   -3.1889    2.3844 H   0  0  0  0  0  0  0  0  0  0  0  0
    3.7159   -3.4974    2.7446 H   0  0  0  0  0  0  0  0  0  0  0  0
    2.5282   -4.8150    2.9180 H   0  0  0  0  0  0  0  0  0  0  0  0
    3.3667   -9.0955    1.4826 H   0  0  0  0  0  0  0  0  0  0  0  0
    5.0673  -10.9494    1.4724 H   0  0  0  0  0  0  0  0  0  0  0  0
    7.4493  -10.4421    0.9782 H   0  0  0  0  0  0  0  0  0  0  0  0
   11.1812   -5.5404   -0.4542 H   0  0  0  0  0  0  0  0  0  0  0  0
   15.3093   -7.7527   -0.8073 H   0  0  0  0  0  0  0  0  0  0  0  0
   15.6759  -10.2383   -0.4628 H   0  0  0  0  0  0  0  0  0  0  0  0
   13.6993  -11.6932    0.1196 H   0  0  0  0  0  0  0  0  0  0  0  0
   11.4278  -10.6608    0.3447 H   0  0  0  0  0  0  0  0  0  0  0  0
    4.8734   -3.6742   -1.8113 H   0  0  0  0  0  0  0  0  0  0  0  0
    5.4952   -1.3246   -2.3716 H   0  0  0  0  0  0  0  0  0  0  0  0
    6.7103    0.0782   -0.7034 H   0  0  0  0  0  0  0  0  0  0  0  0
    7.3175   -0.8827    1.5181 H   0  0  0  0  0  0  0  0  0  0  0  0
    6.7175   -3.2430    2.0580 H   0  0  0  0  0  0  0  0  0  0  0  0
  1  2  1  0
  1 45  1  0
  1 46  1  0
  1 47  1  0
  2  3  2  0
  2 10  1  0
  3  4  1  0
  4  5  1  0
  4  9  1  0
  5  6  2  0
  5 48  1  0
  6  7  1  0
  6 49  1  0
  7  8  2  0
  7 50  1  0
  8  9  1  0
  9 10  2  0
 10 11  1  0
 11 12  2  0
 11 13  1  0
 13 14  1  0
 13 51  1  0
 14 15  1  6
 14 16  1  0
 14 17  1  0
 16 52  1  0
 16 53  1  0
 16 54  1  0
 17 18  2  0
 17 38  1  0
 18 19  1  0
 19 20  2  0
 19 35  1  0
 20 21  1  0
 20 55  1  0
 21 22  2  0
 21 56  1  0
 22 23  1  0
 22 57  1  0
 23 24  1  0
 23 35  2  0
 24 25  3  0
 25 26  1  0
 26 27  1  0
 26 34  2  0
 27 28  2  0
 27 58  1  0
 28 29  1  0
 29 30  1  0
 29 34  1  0
 30 31  2  0
 30 59  1  0
 31 32  1  0
 31 60  1  0
 32 33  2  0
 32 61  1  0
 33 34  1  0
 33 62  1  0
 35 36  1  0
 36 37  2  0
 36 38  1  0
 38 39  1  0
 39 40  2  0
 39 44  1  0
 40 41  1  0
 40 63  1  0
 41 42  2  0
 41 64  1  0
 42 43  1  0
 42 65  1  0
 43 44  2  0
 43 66  1  0
 44 67  1  0
M  END

