
     RDKit          3D

 45 48  0  0  0  0  0  0  0  0999 V2000
    4.3198    2.4232    6.1981 C   0  0  0  0  0  0  0  0  0  0  0  0
    4.8353    0.9839    5.2577 S   0  0  1  0  0  0  0  0  0  0  0  0
    5.8668    0.3087    6.0181 O   0  0  0  0  0  0  0  0  0  0  0  0
    3.6571    0.3208    4.7182 O   0  0  0  0  0  0  0  0  0  0  0  0
    5.5803    1.8590    3.9848 O   0  0  0  0  0  0  0  0  0  0  0  0
    5.3591    1.4758    2.6849 C   0  0  0  0  0  0  0  0  0  0  0  0
    4.9729    2.4130    1.7744 C   0  0  0  0  0  0  0  0  0  0  0  0
    4.6595    3.8514    2.0454 C   0  0  0  0  0  0  0  0  0  0  0  0
    5.7870    4.9257    1.7885 C   0  0  2  0  0  0  0  0  0  0  0  0
    6.9724    4.8071    2.8052 C   0  0  0  0  0  0  0  0  0  0  0  0
    6.9882    5.9511    3.8372 C   0  0  0  0  0  0  0  0  0  0  0  0
    5.5939    6.2460    4.4047 C   0  0  0  0  0  0  0  0  0  0  0  0
    4.6313    6.7488    3.2984 C   0  0  0  0  0  0  0  0  0  0  0  0
    5.0713    6.2775    1.9453 C   0  0  0  0  0  0  0  0  0  0  0  0
    4.9418    6.9569    0.8602 N   0  0  0  0  0  0  0  0  0  0  0  0
    5.5827    6.2282   -0.1647 C   0  0  0  0  0  0  0  0  0  0  0  0
    5.7047    6.6381   -1.4900 C   0  0  0  0  0  0  0  0  0  0  0  0
    6.4674    5.8316   -2.3426 C   0  0  0  0  0  0  0  0  0  0  0  0
    6.6566    6.2941   -4.0174 Cl  0  0  0  0  0  0  0  0  0  0  0  0
    7.1072    4.6756   -1.8854 C   0  0  0  0  0  0  0  0  0  0  0  0
    6.9576    4.2887   -0.5442 C   0  0  0  0  0  0  0  0  0  0  0  0
    7.8448    2.8788    0.0065 Cl  0  0  0  0  0  0  0  0  0  0  0  0
    6.1677    5.0363    0.3226 C   0  0  0  0  0  0  0  0  0  0  0  0
    4.8018    2.0759    0.4691 O   0  0  0  0  0  0  0  0  0  0  0  0
    5.0350    0.8156    0.0516 C   0  0  0  0  0  0  0  0  0  0  0  0
    5.4309   -0.1754    0.8759 C   0  0  0  0  0  0  0  0  0  0  0  0
    5.6386    0.0741    2.3033 C   0  0  0  0  0  0  0  0  0  0  0  0
    6.0019   -0.7602    3.1173 O   0  0  0  0  0  0  0  0  0  0  0  0
    3.8736    2.0326    7.1228 H   0  0  0  0  0  0  0  0  0  0  0  0
    3.5794    2.9862    5.6175 H   0  0  0  0  0  0  0  0  0  0  0  0
    5.2081    3.0250    6.4254 H   0  0  0  0  0  0  0  0  0  0  0  0
    4.3527    3.9349    3.0962 H   0  0  0  0  0  0  0  0  0  0  0  0
    3.7915    4.1122    1.4195 H   0  0  0  0  0  0  0  0  0  0  0  0
    7.9255    4.7892    2.2593 H   0  0  0  0  0  0  0  0  0  0  0  0
    6.9032    3.8425    3.3289 H   0  0  0  0  0  0  0  0  0  0  0  0
    7.3855    6.8702    3.3700 H   0  0  0  0  0  0  0  0  0  0  0  0
    7.6860    5.6934    4.6503 H   0  0  0  0  0  0  0  0  0  0  0  0
    5.6533    6.9957    5.2091 H   0  0  0  0  0  0  0  0  0  0  0  0
    5.1954    5.3296    4.8736 H   0  0  0  0  0  0  0  0  0  0  0  0
    4.5854    7.8477    3.2643 H   0  0  0  0  0  0  0  0  0  0  0  0
    3.5986    6.4087    3.4974 H   0  0  0  0  0  0  0  0  0  0  0  0
    5.2410    7.5610   -1.8373 H   0  0  0  0  0  0  0  0  0  0  0  0
    7.7278    4.0851   -2.5586 H   0  0  0  0  0  0  0  0  0  0  0  0
    4.8605    0.7110   -1.0202 H   0  0  0  0  0  0  0  0  0  0  0  0
    5.6104   -1.1802    0.4911 H   0  0  0  0  0  0  0  0  0  0  0  0
  1  2  1  0
  1 29  1  0
  1 30  1  0
  1 31  1  0
  2  3  2  0
  2  4  2  0
  2  5  1  6
  5  6  1  0
  6  7  2  0
  6 27  1  0
  7  8  1  0
  7 24  1  0
  9  8  1  6
  8 32  1  0
  8 33  1  0
  9 10  1  0
  9 14  1  0
  9 23  1  0
 10 11  1  0
 10 34  1  0
 10 35  1  0
 11 12  1  0
 11 36  1  0
 11 37  1  0
 12 13  1  0
 12 38  1  0
 12 39  1  0
 13 14  1  0
 13 40  1  0
 13 41  1  0
 14 15  2  0
 15 16  1  0
 16 17  1  0
 16 23  2  0
 17 18  2  0
 17 42  1  0
 18 19  1  0
 18 20  1  0
 20 21  2  0
 20 43  1  0
 21 22  1  0
 21 23  1  0
 24 25  1  0
 25 26  2  0
 25 44  1  0
 26 27  1  0
 26 45  1  0
 27 28  2  0
M  END

