
     RDKit          3D

 59 62  0  0  0  0  0  0  0  0999 V2000
    3.4991    3.7788    6.2063 C   0  0  0  0  0  0  0  0  0  0  0  0
    3.5351    2.7411    5.2543 O   0  0  0  0  0  0  0  0  0  0  0  0
    3.9342    3.0167    3.9849 C   0  0  0  0  0  0  0  0  0  0  0  0
    4.3300    4.2863    3.5326 C   0  0  0  0  0  0  0  0  0  0  0  0
    4.7208    4.4615    2.2017 C   0  0  0  0  0  0  0  0  0  0  0  0
    4.7303    3.3906    1.2959 C   0  0  0  0  0  0  0  0  0  0  0  0
    5.1760    3.5920   -0.1407 C   0  0  0  0  0  0  0  0  0  0  0  0
    6.6115    3.7984   -0.3079 N   0  0  0  0  0  0  0  0  0  0  0  0
    7.1356    5.0785   -0.2892 C   0  0  0  0  0  0  0  0  0  0  0  0
    6.4209    6.0722   -0.2075 O   0  0  0  0  0  0  0  0  0  0  0  0
    8.5133    5.1748   -0.4033 N   0  0  0  0  0  0  0  0  0  0  0  0
    9.4215    4.0520   -0.5872 C   0  0  0  0  0  0  0  0  0  0  0  0
   10.5618    4.4388   -1.5497 C   0  0  0  0  0  0  0  0  0  0  0  0
   11.2553    5.6704   -1.2038 N   0  0  0  0  0  0  0  0  0  0  0  0
   12.2540    5.6541   -0.1222 C   0  0  1  0  0  0  0  0  0  0  0  0
   13.0722    4.3523   -0.0864 C   0  0  0  0  0  0  0  0  0  0  0  0
   13.2168    6.8408   -0.2664 C   0  0  0  0  0  0  0  0  0  0  0  0
   13.5517    7.2956   -1.5300 C   0  0  0  0  0  0  0  0  0  0  0  0
   14.4795    8.3462   -1.7241 C   0  0  0  0  0  0  0  0  0  0  0  0
   15.0789    8.9495   -0.6418 C   0  0  0  0  0  0  0  0  0  0  0  0
   14.7753    8.5211    0.6798 C   0  0  0  0  0  0  0  0  0  0  0  0
   15.3898    9.1340    1.8083 C   0  0  0  0  0  0  0  0  0  0  0  0
   15.1061    8.7180    3.0908 C   0  0  0  0  0  0  0  0  0  0  0  0
   14.1863    7.6617    3.2977 C   0  0  0  0  0  0  0  0  0  0  0  0
   13.5715    7.0471    2.2258 C   0  0  0  0  0  0  0  0  0  0  0  0
   13.8347    7.4489    0.8817 C   0  0  0  0  0  0  0  0  0  0  0  0
   10.2766    6.7566   -1.0972 C   0  0  0  0  0  0  0  0  0  0  0  0
    9.1450    6.4590   -0.1078 C   0  0  0  0  0  0  0  0  0  0  0  0
    4.3304    2.1285    1.7648 C   0  0  0  0  0  0  0  0  0  0  0  0
    3.9368    1.9368    3.0872 C   0  0  0  0  0  0  0  0  0  0  0  0
    3.1507    3.3301    7.1466 H   0  0  0  0  0  0  0  0  0  0  0  0
    2.7996    4.5833    5.9147 H   0  0  0  0  0  0  0  0  0  0  0  0
    4.4977    4.2230    6.3720 H   0  0  0  0  0  0  0  0  0  0  0  0
    4.3323    5.1454    4.2042 H   0  0  0  0  0  0  0  0  0  0  0  0
    5.0275    5.4505    1.8517 H   0  0  0  0  0  0  0  0  0  0  0  0
    4.6878    4.4778   -0.5687 H   0  0  0  0  0  0  0  0  0  0  0  0
    4.8787    2.7189   -0.7446 H   0  0  0  0  0  0  0  0  0  0  0  0
    7.2051    3.0380   -0.0002 H   0  0  0  0  0  0  0  0  0  0  0  0
    8.8777    3.2066   -1.0317 H   0  0  0  0  0  0  0  0  0  0  0  0
    9.8386    3.7117    0.3844 H   0  0  0  0  0  0  0  0  0  0  0  0
   10.1146    4.5839   -2.5497 H   0  0  0  0  0  0  0  0  0  0  0  0
   11.2684    3.6031   -1.6384 H   0  0  0  0  0  0  0  0  0  0  0  0
   11.7552    5.7434    0.8628 H   0  0  0  0  0  0  0  0  0  0  0  0
   13.5368    4.1569   -1.0656 H   0  0  0  0  0  0  0  0  0  0  0  0
   12.4643    3.4797    0.1983 H   0  0  0  0  0  0  0  0  0  0  0  0
   13.8799    4.4465    0.6534 H   0  0  0  0  0  0  0  0  0  0  0  0
   13.0666    6.8275   -2.3889 H   0  0  0  0  0  0  0  0  0  0  0  0
   14.7142    8.6758   -2.7397 H   0  0  0  0  0  0  0  0  0  0  0  0
   15.7951    9.7639   -0.7807 H   0  0  0  0  0  0  0  0  0  0  0  0
   16.0993    9.9482    1.6358 H   0  0  0  0  0  0  0  0  0  0  0  0
   15.5869    9.1984    3.9466 H   0  0  0  0  0  0  0  0  0  0  0  0
   13.9607    7.3308    4.3148 H   0  0  0  0  0  0  0  0  0  0  0  0
   12.8699    6.2354    2.4210 H   0  0  0  0  0  0  0  0  0  0  0  0
    9.8377    6.9229   -2.0972 H   0  0  0  0  0  0  0  0  0  0  0  0
   10.7890    7.6856   -0.8076 H   0  0  0  0  0  0  0  0  0  0  0  0
    8.3665    7.2300   -0.1587 H   0  0  0  0  0  0  0  0  0  0  0  0
    9.5379    6.4533    0.9294 H   0  0  0  0  0  0  0  0  0  0  0  0
    4.3198    1.2757    1.0784 H   0  0  0  0  0  0  0  0  0  0  0  0
    3.6221    0.9569    3.4523 H   0  0  0  0  0  0  0  0  0  0  0  0
  1  2  1  0
  1 31  1  0
  1 32  1  0
  1 33  1  0
  2  3  1  0
  3  4  2  0
  3 30  1  0
  4  5  1  0
  4 34  1  0
  5  6  2  0
  5 35  1  0
  6  7  1  0
  6 29  1  0
  7  8  1  0
  7 36  1  0
  7 37  1  0
  8  9  1  0
  8 38  1  0
  9 10  2  0
  9 11  1  0
 11 12  1  0
 11 28  1  0
 12 13  1  0
 12 39  1  0
 12 40  1  0
 13 14  1  0
 13 41  1  0
 13 42  1  0
 14 15  1  0
 14 27  1  0
 15 16  1  0
 15 17  1  0
 15 43  1  1
 16 44  1  0
 16 45  1  0
 16 46  1  0
 17 18  2  0
 17 26  1  0
 18 19  1  0
 18 47  1  0
 19 20  2  0
 19 48  1  0
 20 21  1  0
 20 49  1  0
 21 22  1  0
 21 26  2  0
 22 23  2  0
 22 50  1  0
 23 24  1  0
 23 51  1  0
 24 25  2  0
 24 52  1  0
 25 26  1  0
 25 53  1  0
 27 28  1  0
 27 54  1  0
 27 55  1  0
 28 56  1  0
 28 57  1  0
 29 30  2  0
 29 58  1  0
 30 59  1  0
M  END

