
     RDKit          3D

 49 51  0  0  0  0  0  0  0  0999 V2000
   -2.6723    1.7864   -3.1263 O   0  0  0  0  0  0  0  0  0  0  0  0
   -1.7810    1.3879   -3.8261 C   0  0  0  0  0  0  0  0  0  0  0  0
   -1.7915    0.1051   -4.2625 O   0  0  0  0  0  0  0  0  0  0  0  0
   -0.5968    2.2367   -4.3082 C   0  0  1  0  0  0  0  0  0  0  0  0
   -0.6849    3.6802   -3.7829 C   0  0  0  0  0  0  0  0  0  0  0  0
   -0.3468    3.7933   -2.2883 C   0  0  0  0  0  0  0  0  0  0  0  0
    1.0213    3.1654   -1.9326 C   0  0  2  0  0  0  0  0  0  0  0  0
    2.1872    3.9103   -2.4232 N   0  0  0  0  0  0  0  0  0  0  0  0
    2.5215    5.1566   -1.7351 C   0  0  1  0  0  0  0  0  0  0  0  0
    3.2457    4.8950   -0.3747 C   0  0  0  0  0  0  0  0  0  0  0  0
    4.6025    4.2340   -0.4473 C   0  0  0  0  0  0  0  0  0  0  0  0
    4.7272    2.8381   -0.5536 C   0  0  0  0  0  0  0  0  0  0  0  0
    5.9858    2.2357   -0.6284 C   0  0  0  0  0  0  0  0  0  0  0  0
    7.1499    3.0089   -0.5963 C   0  0  0  0  0  0  0  0  0  0  0  0
    7.0173    4.3903   -0.4852 C   0  0  0  0  0  0  0  0  0  0  0  0
    8.1228    5.1520   -0.4440 F   0  0  0  0  0  0  0  0  0  0  0  0
    5.7720    5.0092   -0.4115 C   0  0  0  0  0  0  0  0  0  0  0  0
    3.3337    6.0653   -2.6448 C   0  0  0  0  0  0  0  0  0  0  0  0
    3.1394    7.4556   -2.6111 C   0  0  0  0  0  0  0  0  0  0  0  0
    3.8992    8.3037   -3.4218 C   0  0  0  0  0  0  0  0  0  0  0  0
    4.8634    7.7820   -4.2881 C   0  0  0  0  0  0  0  0  0  0  0  0
    5.0455    6.4014   -4.3152 C   0  0  0  0  0  0  0  0  0  0  0  0
    5.9663    5.8828   -5.1424 F   0  0  0  0  0  0  0  0  0  0  0  0
    4.3059    5.5390   -3.5100 C   0  0  0  0  0  0  0  0  0  0  0  0
    1.0711    1.7119   -2.4419 C   0  0  0  0  0  0  0  0  0  0  0  0
    0.7697    1.6077   -3.9425 C   0  0  0  0  0  0  0  0  0  0  0  0
   -1.0255   -0.0682   -4.8278 H   0  0  0  0  0  0  0  0  0  0  0  0
   -0.6832    2.2541   -5.4115 H   0  0  0  0  0  0  0  0  0  0  0  0
   -1.6938    4.0782   -3.9661 H   0  0  0  0  0  0  0  0  0  0  0  0
    0.0098    4.3020   -4.3751 H   0  0  0  0  0  0  0  0  0  0  0  0
   -1.1350    3.2871   -1.7093 H   0  0  0  0  0  0  0  0  0  0  0  0
   -0.3702    4.8526   -1.9832 H   0  0  0  0  0  0  0  0  0  0  0  0
    1.1048    3.1325   -0.8343 H   0  0  0  0  0  0  0  0  0  0  0  0
    2.0983    4.0932   -3.4200 H   0  0  0  0  0  0  0  0  0  0  0  0
    1.6088    5.7263   -1.4619 H   0  0  0  0  0  0  0  0  0  0  0  0
    2.5745    4.2810    0.2477 H   0  0  0  0  0  0  0  0  0  0  0  0
    3.3350    5.8662    0.1368 H   0  0  0  0  0  0  0  0  0  0  0  0
    3.8291    2.2185   -0.5717 H   0  0  0  0  0  0  0  0  0  0  0  0
    6.0650    1.1485   -0.7077 H   0  0  0  0  0  0  0  0  0  0  0  0
    8.1453    2.5641   -0.6488 H   0  0  0  0  0  0  0  0  0  0  0  0
    5.7295    6.0971   -0.3258 H   0  0  0  0  0  0  0  0  0  0  0  0
    2.3803    7.8780   -1.9472 H   0  0  0  0  0  0  0  0  0  0  0  0
    3.7340    9.3833   -3.3863 H   0  0  0  0  0  0  0  0  0  0  0  0
    5.4675    8.4192   -4.9366 H   0  0  0  0  0  0  0  0  0  0  0  0
    4.4980    4.4665   -3.5570 H   0  0  0  0  0  0  0  0  0  0  0  0
    0.3338    1.1125   -1.8796 H   0  0  0  0  0  0  0  0  0  0  0  0
    2.0648    1.2880   -2.2306 H   0  0  0  0  0  0  0  0  0  0  0  0
    0.8285    0.5529   -4.2635 H   0  0  0  0  0  0  0  0  0  0  0  0
    1.5559    2.1262   -4.5174 H   0  0  0  0  0  0  0  0  0  0  0  0
  1  2  2  0
  2  3  1  0
  2  4  1  0
  3 27  1  0
  4  5  1  0
  4 26  1  0
  4 28  1  6
  5  6  1  0
  5 29  1  0
  5 30  1  0
  6  7  1  0
  6 31  1  0
  6 32  1  0
  7  8  1  0
  7 25  1  0
  7 33  1  1
  8  9  1  0
  8 34  1  0
  9 10  1  0
  9 18  1  0
  9 35  1  1
 10 11  1  0
 10 36  1  0
 10 37  1  0
 11 12  2  0
 11 17  1  0
 12 13  1  0
 12 38  1  0
 13 14  2  0
 13 39  1  0
 14 15  1  0
 14 40  1  0
 15 16  1  0
 15 17  2  0
 17 41  1  0
 18 19  2  0
 18 24  1  0
 19 20  1  0
 19 42  1  0
 20 21  2  0
 20 43  1  0
 21 22  1  0
 21 44  1  0
 22 23  1  0
 22 24  2  0
 24 45  1  0
 25 26  1  0
 25 46  1  0
 25 47  1  0
 26 48  1  0
 26 49  1  0
M  END

