
     RDKit          3D

 28 29  0  0  0  0  0  0  0  0999 V2000
    1.0127    0.6247    0.9604 C   0  0  0  0  0  0  0  0  0  0  0  0
    2.4389    1.0725    1.2460 C   0  0  0  0  0  0  0  0  0  0  0  0
    2.7137    2.1828    1.6647 O   0  0  0  0  0  0  0  0  0  0  0  0
    3.4004    0.1249    0.9962 N   0  0  0  0  0  0  0  0  0  0  0  0
    4.8071    0.3693    1.2440 C   0  0  0  0  0  0  0  0  0  0  0  0
    5.2273   -0.0319    2.6565 C   0  0  0  0  0  0  0  0  0  0  0  0
    6.6318    0.1941    2.7428 O   0  0  0  0  0  0  0  0  0  0  0  0
    7.2893    0.0690    3.9137 C   0  0  0  0  0  0  0  0  0  0  0  0
    8.6242    0.5038    3.9477 C   0  0  0  0  0  0  0  0  0  0  0  0
    9.4116    0.4084    5.1050 C   0  0  0  0  0  0  0  0  0  0  0  0
    8.9172   -0.1240    6.3005 C   0  0  0  0  0  0  0  0  0  0  0  0
    7.5956   -0.5494    6.2483 C   0  0  0  0  0  0  0  0  0  0  0  0
    6.8504   -1.1154    7.2465 O   0  0  0  0  0  0  0  0  0  0  0  0
    5.6379   -1.3547    6.6738 C   0  0  0  0  0  0  0  0  0  0  0  0
    5.5215   -1.0093    5.4392 N   0  0  0  0  0  0  0  0  0  0  0  0
    6.7702   -0.4771    5.1095 C   0  0  0  0  0  0  0  0  0  0  0  0
    0.3454    1.4883    1.0672 H   0  0  0  0  0  0  0  0  0  0  0  0
    0.7035   -0.1562    1.6747 H   0  0  0  0  0  0  0  0  0  0  0  0
    0.9168    0.2097   -0.0558 H   0  0  0  0  0  0  0  0  0  0  0  0
    3.1132   -0.7955    0.6868 H   0  0  0  0  0  0  0  0  0  0  0  0
    4.9979    1.4423    1.1005 H   0  0  0  0  0  0  0  0  0  0  0  0
    5.4145   -0.1868    0.5118 H   0  0  0  0  0  0  0  0  0  0  0  0
    4.9943   -1.0916    2.8540 H   0  0  0  0  0  0  0  0  0  0  0  0
    4.6891    0.5716    3.4043 H   0  0  0  0  0  0  0  0  0  0  0  0
    9.0376    0.9282    3.0309 H   0  0  0  0  0  0  0  0  0  0  0  0
   10.4434    0.7664    5.0669 H   0  0  0  0  0  0  0  0  0  0  0  0
    9.5189   -0.2018    7.2062 H   0  0  0  0  0  0  0  0  0  0  0  0
    4.8852   -1.8119    7.3152 H   0  0  0  0  0  0  0  0  0  0  0  0
  1  2  1  0
  1 17  1  0
  1 18  1  0
  1 19  1  0
  2  3  2  0
  2  4  1  0
  4  5  1  0
  4 20  1  0
  5  6  1  0
  5 21  1  0
  5 22  1  0
  6  7  1  0
  6 23  1  0
  6 24  1  0
  7  8  1  0
  8  9  2  0
  8 16  1  0
  9 10  1  0
  9 25  1  0
 10 11  2  0
 10 26  1  0
 11 12  1  0
 11 27  1  0
 12 13  1  0
 12 16  2  0
 13 14  1  0
 14 15  2  0
 14 28  1  0
 15 16  1  0
M  END

