
     RDKit          3D

 69 74  0  0  0  0  0  0  0  0999 V2000
    1.8498   -0.5669   -0.6534 C   0  0  0  0  0  0  0  0  0  0  0  0
    2.3283   -1.5515    0.4167 C   0  0  0  0  0  0  0  0  0  0  0  0
    3.3734   -2.4749   -0.0149 N   0  0  0  0  0  0  0  0  0  0  0  0
    4.7073   -2.0627   -0.0525 C   0  0  0  0  0  0  0  0  0  0  0  0
    5.2367   -0.7624   -0.0197 C   0  0  0  0  0  0  0  0  0  0  0  0
    6.6255   -0.5872   -0.0372 C   0  0  0  0  0  0  0  0  0  0  0  0
    7.2769    0.8109   -0.0139 C   0  0  1  0  0  0  0  0  0  0  0  0
    6.2351    1.9432    0.0312 C   0  0  0  0  0  0  0  0  0  0  0  0
    8.1777    0.9388    1.2369 C   0  0  0  0  0  0  0  0  0  0  0  0
    8.1353    1.0002   -1.2865 C   0  0  0  0  0  0  0  0  0  0  0  0
    7.4553   -1.7393   -0.0784 C   0  0  0  0  0  0  0  0  0  0  0  0
    6.9399   -3.0287   -0.0864 C   0  0  0  0  0  0  0  0  0  0  0  0
    5.5453   -3.2001   -0.0665 C   0  0  0  0  0  0  0  0  0  0  0  0
    4.6816   -4.3415   -0.0069 C   0  0  0  0  0  0  0  0  0  0  0  0
    4.9890   -5.7302    0.1419 C   0  0  0  0  0  0  0  0  0  0  0  0
    6.1944   -6.2899    0.1780 N   0  0  0  0  0  0  0  0  0  0  0  0
    5.9640   -7.9052    0.4458 S   0  0  0  0  0  0  0  0  0  0  0  0
    4.3124   -7.9263    0.5216 N   0  0  0  0  0  0  0  0  0  0  0  0
    3.9029   -6.6746    0.3394 C   0  0  0  0  0  0  0  0  0  0  0  0
    2.5541   -6.2056    0.2642 C   0  0  0  0  0  0  0  0  0  0  0  0
    1.3173   -6.9285    0.2733 C   0  0  0  0  0  0  0  0  0  0  0  0
    0.9766   -8.2820    0.4365 C   0  0  0  0  0  0  0  0  0  0  0  0
   -0.3556   -8.6551    0.3180 C   0  0  0  0  0  0  0  0  0  0  0  0
   -1.3852   -7.7217    0.0243 C   0  0  0  0  0  0  0  0  0  0  0  0
   -2.8393   -8.2194   -0.1066 C   0  0  1  0  0  0  0  0  0  0  0  0
   -3.2838   -8.8649    1.2270 C   0  0  0  0  0  0  0  0  0  0  0  0
   -3.8218   -7.0813   -0.4366 C   0  0  0  0  0  0  0  0  0  0  0  0
   -2.9254   -9.2694   -1.2390 C   0  0  0  0  0  0  0  0  0  0  0  0
   -1.0418   -6.3740   -0.1354 C   0  0  0  0  0  0  0  0  0  0  0  0
    0.2999   -5.9849    0.0079 C   0  0  0  0  0  0  0  0  0  0  0  0
    0.8725   -4.7187   -0.1325 N   0  0  0  0  0  0  0  0  0  0  0  0
    0.1403   -3.6489   -0.8038 C   0  0  0  0  0  0  0  0  0  0  0  0
   -0.8987   -2.9318    0.0619 C   0  0  0  0  0  0  0  0  0  0  0  0
    2.2614   -4.8419    0.0350 C   0  0  0  0  0  0  0  0  0  0  0  0
    3.3461   -3.8789    0.0020 C   0  0  0  0  0  0  0  0  0  0  0  0
    1.0457    0.0659   -0.2451 H   0  0  0  0  0  0  0  0  0  0  0  0
    1.4629   -1.0786   -1.5471 H   0  0  0  0  0  0  0  0  0  0  0  0
    2.6605    0.0955   -0.9875 H   0  0  0  0  0  0  0  0  0  0  0  0
    1.4943   -2.1429    0.8066 H   0  0  0  0  0  0  0  0  0  0  0  0
    2.7191   -0.9840    1.2794 H   0  0  0  0  0  0  0  0  0  0  0  0
    4.5746    0.0993    0.0164 H   0  0  0  0  0  0  0  0  0  0  0  0
    5.6056    1.8879    0.9334 H   0  0  0  0  0  0  0  0  0  0  0  0
    5.5750    1.9307   -0.8505 H   0  0  0  0  0  0  0  0  0  0  0  0
    6.7451    2.9193    0.0459 H   0  0  0  0  0  0  0  0  0  0  0  0
    7.5898    0.8153    2.1604 H   0  0  0  0  0  0  0  0  0  0  0  0
    8.6567    1.9315    1.2673 H   0  0  0  0  0  0  0  0  0  0  0  0
    8.9771    0.1828    1.2470 H   0  0  0  0  0  0  0  0  0  0  0  0
    7.5168    0.9209   -2.1948 H   0  0  0  0  0  0  0  0  0  0  0  0
    8.9337    0.2466   -1.3600 H   0  0  0  0  0  0  0  0  0  0  0  0
    8.6134    1.9939   -1.2849 H   0  0  0  0  0  0  0  0  0  0  0  0
    8.5401   -1.6152   -0.0960 H   0  0  0  0  0  0  0  0  0  0  0  0
    7.5941   -3.9019   -0.0977 H   0  0  0  0  0  0  0  0  0  0  0  0
    1.7564   -9.0171    0.6425 H   0  0  0  0  0  0  0  0  0  0  0  0
   -0.6119   -9.7086    0.4486 H   0  0  0  0  0  0  0  0  0  0  0  0
   -3.2401   -8.1357    2.0517 H   0  0  0  0  0  0  0  0  0  0  0  0
   -2.6467   -9.7186    1.5026 H   0  0  0  0  0  0  0  0  0  0  0  0
   -4.3206   -9.2326    1.1510 H   0  0  0  0  0  0  0  0  0  0  0  0
   -3.8370   -6.3097    0.3494 H   0  0  0  0  0  0  0  0  0  0  0  0
   -4.8437   -7.4833   -0.5218 H   0  0  0  0  0  0  0  0  0  0  0  0
   -3.5796   -6.5931   -1.3938 H   0  0  0  0  0  0  0  0  0  0  0  0
   -2.2781  -10.1378   -1.0451 H   0  0  0  0  0  0  0  0  0  0  0  0
   -2.6201   -8.8345   -2.2041 H   0  0  0  0  0  0  0  0  0  0  0  0
   -3.9586   -9.6402   -1.3434 H   0  0  0  0  0  0  0  0  0  0  0  0
   -1.8062   -5.6356   -0.3652 H   0  0  0  0  0  0  0  0  0  0  0  0
   -0.3642   -4.0890   -1.6818 H   0  0  0  0  0  0  0  0  0  0  0  0
    0.8704   -2.9410   -1.2079 H   0  0  0  0  0  0  0  0  0  0  0  0
   -1.6899   -3.6168    0.3975 H   0  0  0  0  0  0  0  0  0  0  0  0
   -1.3760   -2.1262   -0.5186 H   0  0  0  0  0  0  0  0  0  0  0  0
   -0.4538   -2.4868    0.9642 H   0  0  0  0  0  0  0  0  0  0  0  0
  1  2  1  0
  1 36  1  0
  1 37  1  0
  1 38  1  0
  2  3  1  0
  2 39  1  0
  2 40  1  0
  3  4  1  0
  3 35  1  0
  4  5  2  0
  4 13  1  0
  5  6  1  0
  5 41  1  0
  6  7  1  0
  6 11  2  0
  7  8  1  1
  7  9  1  0
  7 10  1  0
  8 42  1  0
  8 43  1  0
  8 44  1  0
  9 45  1  0
  9 46  1  0
  9 47  1  0
 10 48  1  0
 10 49  1  0
 10 50  1  0
 11 12  1  0
 11 51  1  0
 12 13  2  0
 12 52  1  0
 13 14  1  0
 14 15  1  0
 14 35  2  0
 15 16  2  0
 15 19  1  0
 16 17  1  0
 17 18  1  0
 18 19  2  0
 19 20  1  0
 20 21  1  0
 20 34  2  0
 21 22  2  0
 21 30  1  0
 22 23  1  0
 22 53  1  0
 23 24  2  0
 23 54  1  0
 24 25  1  0
 24 29  1  0
 25 26  1  1
 25 27  1  0
 25 28  1  0
 26 55  1  0
 26 56  1  0
 26 57  1  0
 27 58  1  0
 27 59  1  0
 27 60  1  0
 28 61  1  0
 28 62  1  0
 28 63  1  0
 29 30  2  0
 29 64  1  0
 30 31  1  0
 31 32  1  0
 31 34  1  0
 32 33  1  0
 32 65  1  0
 32 66  1  0
 33 67  1  0
 33 68  1  0
 33 69  1  0
 34 35  1  0
M  END

