
     RDKit          3D

 42 45  0  0  0  0  0  0  0  0999 V2000
    0.9025    0.0332   -0.2331 C   0  0  0  0  0  0  0  0  0  0  0  0
    2.4069    0.0654   -0.2565 C   0  0  0  0  0  0  0  0  0  0  0  0
    3.1862   -0.8765   -0.9457 C   0  0  0  0  0  0  0  0  0  0  0  0
    4.5789   -0.8134   -0.9443 C   0  0  0  0  0  0  0  0  0  0  0  0
    5.2702    0.1968   -0.2462 C   0  0  0  0  0  0  0  0  0  0  0  0
    6.7531    0.2955   -0.2583 C   0  0  0  0  0  0  0  0  0  0  0  0
    7.4080    1.4670   -0.5629 C   0  0  0  0  0  0  0  0  0  0  0  0
    9.1171    1.2717   -0.5938 S   0  0  0  0  0  0  0  0  0  0  0  0
    9.0049   -0.4083   -0.1980 C   0  0  0  0  0  0  0  0  0  0  0  0
   10.2524   -1.2130   -0.0100 C   0  0  0  0  0  0  0  0  0  0  0  0
   10.5656   -1.5303    1.4514 C   0  0  0  0  0  0  0  0  0  0  0  0
    9.7970   -1.3493    2.3692 O   0  0  0  0  0  0  0  0  0  0  0  0
   11.9123   -2.1204    1.7066 C   0  0  0  0  0  0  0  0  0  0  0  0
   12.8352   -2.2952    0.8119 N   0  0  0  0  0  0  0  0  0  0  0  0
   13.9541   -2.8564    1.3696 C   0  0  0  0  0  0  0  0  0  0  0  0
   15.1463   -3.1836    0.6889 C   0  0  0  0  0  0  0  0  0  0  0  0
   15.2381   -2.9416   -0.6174 F   0  0  0  0  0  0  0  0  0  0  0  0
   16.2090   -3.7501    1.3720 C   0  0  0  0  0  0  0  0  0  0  0  0
   16.1027   -4.0018    2.7550 C   0  0  0  0  0  0  0  0  0  0  0  0
   14.9470   -3.6947    3.4679 C   0  0  0  0  0  0  0  0  0  0  0  0
   13.8765   -3.1213    2.7664 C   0  0  0  0  0  0  0  0  0  0  0  0
   12.3109   -2.6238    3.3542 S   0  0  0  0  0  0  0  0  0  0  0  0
    7.6846   -0.7927   -0.0289 C   0  0  0  0  0  0  0  0  0  0  0  0
    7.3643   -2.1928    0.4032 C   0  0  0  0  0  0  0  0  0  0  0  0
    8.0793   -3.1368    0.1721 O   0  0  0  0  0  0  0  0  0  0  0  0
    6.2275   -2.3737    1.1036 O   0  0  0  0  0  0  0  0  0  0  0  0
    4.4874    1.1409    0.4389 C   0  0  0  0  0  0  0  0  0  0  0  0
    5.0608    2.1373    1.1217 F   0  0  0  0  0  0  0  0  0  0  0  0
    3.0928    1.0705    0.4309 C   0  0  0  0  0  0  0  0  0  0  0  0
    2.4049    1.9985    1.1085 F   0  0  0  0  0  0  0  0  0  0  0  0
    0.5181   -0.8036   -0.8326 H   0  0  0  0  0  0  0  0  0  0  0  0
    0.4771    0.9691   -0.6303 H   0  0  0  0  0  0  0  0  0  0  0  0
    0.5221   -0.0752    0.7958 H   0  0  0  0  0  0  0  0  0  0  0  0
    2.6852   -1.6735   -1.5001 H   0  0  0  0  0  0  0  0  0  0  0  0
    5.1510   -1.5548   -1.5048 H   0  0  0  0  0  0  0  0  0  0  0  0
    6.9582    2.4293   -0.7988 H   0  0  0  0  0  0  0  0  0  0  0  0
   11.1297   -0.7226   -0.4577 H   0  0  0  0  0  0  0  0  0  0  0  0
   10.1478   -2.1864   -0.5156 H   0  0  0  0  0  0  0  0  0  0  0  0
   17.1188   -3.9943    0.8207 H   0  0  0  0  0  0  0  0  0  0  0  0
   16.9519   -4.4499    3.2763 H   0  0  0  0  0  0  0  0  0  0  0  0
   14.8791   -3.8953    4.5384 H   0  0  0  0  0  0  0  0  0  0  0  0
    5.7597   -1.5353    1.2351 H   0  0  0  0  0  0  0  0  0  0  0  0
  1  2  1  0
  1 31  1  0
  1 32  1  0
  1 33  1  0
  2  3  2  0
  2 29  1  0
  3  4  1  0
  3 34  1  0
  4  5  2  0
  4 35  1  0
  5  6  1  0
  5 27  1  0
  6  7  2  0
  6 23  1  0
  7  8  1  0
  7 36  1  0
  8  9  2  0
  9 10  1  0
  9 23  1  0
 10 11  1  0
 10 37  1  0
 10 38  1  0
 11 12  2  0
 11 13  1  0
 13 14  2  0
 13 22  1  0
 14 15  1  0
 15 16  2  0
 15 21  1  0
 16 17  1  0
 16 18  1  0
 18 19  2  0
 18 39  1  0
 19 20  1  0
 19 40  1  0
 20 21  2  0
 20 41  1  0
 21 22  1  0
 23 24  2  0
 24 25  1  0
 24 26  1  0
 26 42  1  0
 27 28  1  0
 27 29  2  0
 29 30  1  0
M  CHG  2   8   1  25  -1
M  END

