
     RDKit          3D

 32 36  0  0  0  0  0  0  0  0999 V2000
    1.2168    2.4790    0.2181 C   0  0  0  0  0  0  0  0  0  0  0  0
   -0.1548    2.3571    0.1635 C   0  0  0  0  0  0  0  0  0  0  0  0
   -0.7576    1.0739    0.0737 C   0  0  0  0  0  0  0  0  0  0  0  0
   -2.1701    0.9350    0.0150 C   0  0  0  0  0  0  0  0  0  0  0  0
   -2.7430   -0.3153   -0.0738 C   0  0  0  0  0  0  0  0  0  0  0  0
   -1.9330   -1.4670   -0.1068 C   0  0  0  0  0  0  0  0  0  0  0  0
   -0.5418   -1.3932   -0.0513 C   0  0  0  0  0  0  0  0  0  0  0  0
    0.3119   -2.5994   -0.0851 C   0  0  0  0  0  0  0  0  0  0  0  0
   -0.2221   -3.8842   -0.1731 C   0  0  0  0  0  0  0  0  0  0  0  0
    0.5949   -5.0311   -0.2054 C   0  0  0  0  0  0  0  0  0  0  0  0
    1.9665   -4.9091   -0.1491 C   0  0  0  0  0  0  0  0  0  0  0  0
    2.5690   -3.6259   -0.0576 C   0  0  0  0  0  0  0  0  0  0  0  0
    3.9814   -3.4869    0.0030 C   0  0  0  0  0  0  0  0  0  0  0  0
    4.5541   -2.2366    0.0935 C   0  0  0  0  0  0  0  0  0  0  0  0
    3.7439   -1.0850    0.1258 C   0  0  0  0  0  0  0  0  0  0  0  0
    2.3529   -1.1590    0.0680 C   0  0  0  0  0  0  0  0  0  0  0  0
    1.4993    0.0472    0.1001 C   0  0  0  0  0  0  0  0  0  0  0  0
    2.0336    1.3320    0.1861 C   0  0  0  0  0  0  0  0  0  0  0  0
    0.0728   -0.0994    0.0409 C   0  0  0  0  0  0  0  0  0  0  0  0
    1.7385   -2.4527   -0.0251 C   0  0  0  0  0  0  0  0  0  0  0  0
    1.6814    3.4659    0.2864 H   0  0  0  0  0  0  0  0  0  0  0  0
   -0.7969    3.2413    0.1879 H   0  0  0  0  0  0  0  0  0  0  0  0
   -2.7905    1.8345    0.0413 H   0  0  0  0  0  0  0  0  0  0  0  0
   -3.8296   -0.4230   -0.1195 H   0  0  0  0  0  0  0  0  0  0  0  0
   -2.4265   -2.4362   -0.1782 H   0  0  0  0  0  0  0  0  0  0  0  0
   -1.3019   -4.0254   -0.2191 H   0  0  0  0  0  0  0  0  0  0  0  0
    0.1305   -6.0179   -0.2752 H   0  0  0  0  0  0  0  0  0  0  0  0
    2.6087   -5.7933   -0.1734 H   0  0  0  0  0  0  0  0  0  0  0  0
    4.6020   -4.3864   -0.0229 H   0  0  0  0  0  0  0  0  0  0  0  0
    5.6406   -2.1288    0.1409 H   0  0  0  0  0  0  0  0  0  0  0  0
    4.2371   -0.1157    0.1986 H   0  0  0  0  0  0  0  0  0  0  0  0
    3.1136    1.4730    0.2308 H   0  0  0  0  0  0  0  0  0  0  0  0
  1  2  2  0
  1 18  1  0
  1 21  1  0
  2  3  1  0
  2 22  1  0
  3  4  2  0
  3 19  1  0
  4  5  1  0
  4 23  1  0
  5  6  2  0
  5 24  1  0
  6  7  1  0
  6 25  1  0
  7  8  1  0
  7 19  2  0
  8  9  1  0
  8 20  2  0
  9 10  2  0
  9 26  1  0
 10 11  1  0
 10 27  1  0
 11 12  2  0
 11 28  1  0
 12 13  1  0
 12 20  1  0
 13 14  2  0
 13 29  1  0
 14 15  1  0
 14 30  1  0
 15 16  2  0
 15 31  1  0
 16 17  1  0
 16 20  1  0
 17 18  2  0
 17 19  1  0
 18 32  1  0
M  END

