
     RDKit          3D

 34 35  0  0  0  0  0  0  0  0999 V2000
    0.7978    0.6540   -1.0766 N   0  0  0  0  0  0  0  0  0  0  0  0
    2.0847    0.1860   -0.8313 C   0  0  0  0  0  0  0  0  0  0  0  0
    3.0533    0.9766   -0.2017 C   0  0  0  0  0  0  0  0  0  0  0  0
    4.3408    0.4742    0.0064 C   0  0  0  0  0  0  0  0  0  0  0  0
    5.5495    1.5173    0.8119 S   0  0  1  0  0  0  0  0  0  0  0  0
    5.2020    1.3120    2.4589 N   0  0  0  0  0  0  0  0  0  0  0  0
    6.8757    0.9582    0.5344 O   0  0  0  0  0  0  0  0  0  0  0  0
    5.2232    2.9179    0.5266 O   0  0  0  0  0  0  0  0  0  0  0  0
    4.7079   -0.8014   -0.4186 C   0  0  0  0  0  0  0  0  0  0  0  0
    3.7328   -1.6015   -1.0196 C   0  0  0  0  0  0  0  0  0  0  0  0
    2.4239   -1.1441   -1.2191 C   0  0  0  0  0  0  0  0  0  0  0  0
    1.4447   -1.9291   -1.8661 N   0  0  0  0  0  0  0  0  0  0  0  0
    0.2883   -2.4137   -1.0835 C   0  0  0  0  0  0  0  0  0  0  0  0
    0.6123   -3.5389   -0.1194 C   0  0  0  0  0  0  0  0  0  0  0  0
    0.4409   -4.8792   -0.5033 C   0  0  0  0  0  0  0  0  0  0  0  0
    0.7855   -5.9205    0.3636 C   0  0  0  0  0  0  0  0  0  0  0  0
    1.3081   -5.6446    1.6295 C   0  0  0  0  0  0  0  0  0  0  0  0
    1.4723   -4.3115    2.0014 C   0  0  0  0  0  0  0  0  0  0  0  0
    1.9657   -4.0319    3.2168 F   0  0  0  0  0  0  0  0  0  0  0  0
    1.1343   -3.2599    1.1535 C   0  0  0  0  0  0  0  0  0  0  0  0
    0.6923    1.6622   -1.0304 H   0  0  0  0  0  0  0  0  0  0  0  0
    0.3833    0.2574   -1.9179 H   0  0  0  0  0  0  0  0  0  0  0  0
    2.8221    2.0036    0.0889 H   0  0  0  0  0  0  0  0  0  0  0  0
    5.8660    0.6655    2.8858 H   0  0  0  0  0  0  0  0  0  0  0  0
    5.2338    2.2277    2.9089 H   0  0  0  0  0  0  0  0  0  0  0  0
    5.7289   -1.1565   -0.2766 H   0  0  0  0  0  0  0  0  0  0  0  0
    3.9880   -2.6155   -1.3395 H   0  0  0  0  0  0  0  0  0  0  0  0
    1.8741   -2.7010   -2.3708 H   0  0  0  0  0  0  0  0  0  0  0  0
   -0.4757   -2.7559   -1.8002 H   0  0  0  0  0  0  0  0  0  0  0  0
   -0.1341   -1.5559   -0.5409 H   0  0  0  0  0  0  0  0  0  0  0  0
    0.0246   -5.1094   -1.4883 H   0  0  0  0  0  0  0  0  0  0  0  0
    0.6415   -6.9589    0.0547 H   0  0  0  0  0  0  0  0  0  0  0  0
    1.5826   -6.4364    2.3290 H   0  0  0  0  0  0  0  0  0  0  0  0
    1.2787   -2.2339    1.4984 H   0  0  0  0  0  0  0  0  0  0  0  0
  1  2  1  0
  1 21  1  0
  1 22  1  0
  2  3  2  0
  2 11  1  0
  3  4  1  0
  3 23  1  0
  4  5  1  0
  4  9  2  0
  5  6  1  1
  5  7  2  0
  5  8  2  0
  6 24  1  0
  6 25  1  0
  9 10  1  0
  9 26  1  0
 10 11  2  0
 10 27  1  0
 11 12  1  0
 12 13  1  0
 12 28  1  0
 13 14  1  0
 13 29  1  0
 13 30  1  0
 14 15  2  0
 14 20  1  0
 15 16  1  0
 15 31  1  0
 16 17  2  0
 16 32  1  0
 17 18  1  0
 17 33  1  0
 18 19  1  0
 18 20  2  0
 20 34  1  0
M  END

