
     RDKit          3D

 32 34  0  0  0  0  0  0  0  0999 V2000
    1.1684   -0.2096   -0.1089 C   0  0  0  0  0  0  0  0  0  0  0  0
    2.6707   -0.1182   -0.0780 C   0  0  0  0  0  0  0  0  0  0  0  0
    3.3197    1.1540    0.0007 C   0  0  0  0  0  0  0  0  0  0  0  0
    4.6953    1.2434    0.0311 C   0  0  0  0  0  0  0  0  0  0  0  0
    5.5122    2.4888    0.1115 C   0  0  0  0  0  0  0  0  0  0  0  0
    5.3543    0.0461   -0.0193 N   0  0  0  0  0  0  0  0  0  0  0  0
    6.6840   -0.1457   -0.0047 N   0  0  0  0  0  0  0  0  0  0  0  0
    6.7652   -1.4750   -0.0732 C   0  0  0  0  0  0  0  0  0  0  0  0
    8.0831   -2.1813   -0.0860 C   0  0  0  0  0  0  0  0  0  0  0  0
    9.1628   -1.6247   -0.0345 O   0  0  0  0  0  0  0  0  0  0  0  0
    7.9369   -3.5464   -0.1632 N   0  0  0  0  0  0  0  0  0  0  0  0
    8.9765   -4.4520   -0.1913 C   0  0  0  0  0  0  0  0  0  0  0  0
    8.7700   -5.7353   -0.2647 N   0  0  0  0  0  0  0  0  0  0  0  0
    9.9611   -6.4070   -0.2780 C   0  0  0  0  0  0  0  0  0  0  0  0
    9.9445   -7.9088   -0.3604 C   0  0  1  0  0  0  0  0  0  0  0  0
    9.3377   -8.3385   -1.4777 F   0  0  0  0  0  0  0  0  0  0  0  0
   11.1975   -8.4004   -0.3634 F   0  0  0  0  0  0  0  0  0  0  0  0
    9.2962   -8.4569    0.6791 F   0  0  0  0  0  0  0  0  0  0  0  0
   11.0925   -5.6415   -0.2151 C   0  0  0  0  0  0  0  0  0  0  0  0
   10.6665   -3.9609   -0.1305 S   0  0  0  0  0  0  0  0  0  0  0  0
    5.5944   -2.1480   -0.1301 N   0  0  0  0  0  0  0  0  0  0  0  0
    4.6788   -1.1834   -0.0965 C   0  0  0  0  0  0  0  0  0  0  0  0
    3.3455   -1.2554   -0.1251 N   0  0  0  0  0  0  0  0  0  0  0  0
    0.6889    0.7783   -0.0832 H   0  0  0  0  0  0  0  0  0  0  0  0
    0.8125   -0.8022    0.7488 H   0  0  0  0  0  0  0  0  0  0  0  0
    0.8451   -0.7421   -1.0171 H   0  0  0  0  0  0  0  0  0  0  0  0
    2.7280    2.0691    0.0375 H   0  0  0  0  0  0  0  0  0  0  0  0
    4.8667    3.3755    0.1461 H   0  0  0  0  0  0  0  0  0  0  0  0
    6.1894    2.5583   -0.7548 H   0  0  0  0  0  0  0  0  0  0  0  0
    6.1570    2.4659    1.0046 H   0  0  0  0  0  0  0  0  0  0  0  0
    6.9907   -3.9255   -0.2006 H   0  0  0  0  0  0  0  0  0  0  0  0
   12.1288   -5.9714   -0.2134 H   0  0  0  0  0  0  0  0  0  0  0  0
  1  2  1  0
  1 24  1  0
  1 25  1  0
  1 26  1  0
  2  3  1  0
  2 23  2  0
  3  4  2  0
  3 27  1  0
  4  5  1  0
  4  6  1  0
  5 28  1  0
  5 29  1  0
  5 30  1  0
  6  7  1  0
  6 22  1  0
  7  8  2  0
  8  9  1  0
  8 21  1  0
  9 10  2  0
  9 11  1  0
 11 12  1  0
 11 31  1  0
 12 13  2  0
 12 20  1  0
 13 14  1  0
 14 15  1  0
 14 19  2  0
 15 16  1  6
 15 17  1  0
 15 18  1  0
 19 20  1  0
 19 32  1  0
 21 22  2  0
 22 23  1  0
M  END

