
     RDKit          3D

 24 25  0  0  0  0  0  0  0  0999 V2000
    1.8269    0.2673    1.3919 O   0  0  0  0  0  0  0  0  0  0  0  0
    2.4264   -0.0088    0.0883 S   0  0  1  0  0  0  0  0  0  0  0  0
    1.6559   -0.4552   -1.0701 O   0  0  0  0  0  0  0  0  0  0  0  0
    3.2490    1.4254   -0.4101 N   0  0  0  0  0  0  0  0  0  0  0  0
    2.7346    2.1504   -1.5175 C   0  0  0  0  0  0  0  0  0  0  0  0
    1.8432    3.2153   -1.3139 C   0  0  0  0  0  0  0  0  0  0  0  0
    1.3654    3.9594   -2.3927 C   0  0  0  0  0  0  0  0  0  0  0  0
    0.2732    5.2888   -2.1049 Cl  0  0  0  0  0  0  0  0  0  0  0  0
    1.7421    3.6388   -3.6999 C   0  0  0  0  0  0  0  0  0  0  0  0
    2.6178    2.5749   -3.9140 C   0  0  0  0  0  0  0  0  0  0  0  0
    3.1200    1.8427   -2.8360 C   0  0  0  0  0  0  0  0  0  0  0  0
    4.2780    0.5744   -3.1652 Cl  0  0  0  0  0  0  0  0  0  0  0  0
    3.7213   -1.1534    0.3666 C   0  0  0  0  0  0  0  0  0  0  0  0
    4.2490   -1.6560    1.5421 C   0  0  0  0  0  0  0  0  0  0  0  0
    5.2263   -2.5628    1.2549 N   0  0  0  0  0  0  0  0  0  0  0  0
    5.2946   -2.6145   -0.0617 C   0  0  0  0  0  0  0  0  0  0  0  0
    4.4013   -1.7793   -0.6530 N   0  0  0  0  0  0  0  0  0  0  0  0
    4.2441   -1.6139   -1.6433 H   0  0  0  0  0  0  0  0  0  0  0  0
    3.3881    1.9981    0.4220 H   0  0  0  0  0  0  0  0  0  0  0  0
    1.5175    3.4529   -0.2999 H   0  0  0  0  0  0  0  0  0  0  0  0
    1.3571    4.2189   -4.5396 H   0  0  0  0  0  0  0  0  0  0  0  0
    2.9310    2.3152   -4.9263 H   0  0  0  0  0  0  0  0  0  0  0  0
    3.9515   -1.4040    2.5585 H   0  0  0  0  0  0  0  0  0  0  0  0
    5.9729   -3.2430   -0.6395 H   0  0  0  0  0  0  0  0  0  0  0  0
  1  2  2  0
  2  3  2  0
  2  4  1  6
  2 13  1  0
  4  5  1  0
  4 19  1  0
  5  6  2  0
  5 11  1  0
  6  7  1  0
  6 20  1  0
  7  8  1  0
  7  9  2  0
  9 10  1  0
  9 21  1  0
 10 11  2  0
 10 22  1  0
 11 12  1  0
 13 14  2  0
 13 17  1  0
 14 15  1  0
 14 23  1  0
 15 16  2  0
 16 17  1  0
 16 24  1  0
 17 18  1  0
M  END

