
     RDKit          3D

 65 68  0  0  0  0  0  0  0  0999 V2000
    5.1488    1.9370    4.3307 C   0  0  0  0  0  0  0  0  0  0  0  0
    5.1531    1.4055    2.8970 C   0  0  0  0  0  0  0  0  0  0  0  0
    5.6925    2.4108    1.8741 C   0  0  0  0  0  0  0  0  0  0  0  0
    5.6967    1.8779    0.4391 C   0  0  0  0  0  0  0  0  0  0  0  0
    6.2343    2.8844   -0.5659 C   0  0  0  0  0  0  0  0  0  0  0  0
    6.1933    2.2902   -1.8537 O   0  0  0  0  0  0  0  0  0  0  0  0
    6.6154    2.9958   -2.9260 C   0  0  0  0  0  0  0  0  0  0  0  0
    7.1202    4.3027   -2.9066 C   0  0  0  0  0  0  0  0  0  0  0  0
    7.5278    4.9292   -4.0900 C   0  0  0  0  0  0  0  0  0  0  0  0
    7.4465    4.2840   -5.3335 C   0  0  0  0  0  0  0  0  0  0  0  0
    7.8782    4.9503   -6.5886 C   0  0  0  0  0  0  0  0  0  0  0  0
    7.7050    6.3300   -6.7832 C   0  0  0  0  0  0  0  0  0  0  0  0
    8.1109    6.9701   -7.9584 C   0  0  0  0  0  0  0  0  0  0  0  0
    8.7078    6.2253   -8.9855 C   0  0  0  0  0  0  0  0  0  0  0  0
    9.1373    6.7451  -10.1676 O   0  0  0  0  0  0  0  0  0  0  0  0
    9.0011    8.1267  -10.4060 C   0  0  0  0  0  0  0  0  0  0  0  0
    9.5550    8.4605  -11.7695 C   0  0  0  0  0  0  0  0  0  0  0  0
   10.1077    7.5128  -12.6388 C   0  0  0  0  0  0  0  0  0  0  0  0
   10.6043    7.8927  -13.8858 C   0  0  0  0  0  0  0  0  0  0  0  0
   10.5756    9.2290  -14.3299 C   0  0  0  0  0  0  0  0  0  0  0  0
   11.0935    9.6150  -15.6688 C   0  0  0  0  0  0  0  0  0  0  0  0
   10.8830    8.7801  -16.7797 C   0  0  0  0  0  0  0  0  0  0  0  0
   11.3867    9.1129  -18.0388 C   0  0  0  0  0  0  0  0  0  0  0  0
   12.1191   10.2911  -18.2412 C   0  0  0  0  0  0  0  0  0  0  0  0
   12.6592   10.6637  -19.5999 C   0  0  0  0  0  0  0  0  0  0  0  0
   12.3273   11.1260  -17.1303 C   0  0  0  0  0  0  0  0  0  0  0  0
   11.8252   10.8013  -15.8719 C   0  0  0  0  0  0  0  0  0  0  0  0
   10.0184   10.1684  -13.4475 C   0  0  0  0  0  0  0  0  0  0  0  0
    9.9269   11.4628  -13.7809 F   0  0  0  0  0  0  0  0  0  0  0  0
    9.5230    9.7874  -12.2003 C   0  0  0  0  0  0  0  0  0  0  0  0
    8.9936   10.7274  -11.4002 F   0  0  0  0  0  0  0  0  0  0  0  0
    8.8879    4.8429   -8.8126 C   0  0  0  0  0  0  0  0  0  0  0  0
    8.4805    4.2234   -7.6372 C   0  0  0  0  0  0  0  0  0  0  0  0
    6.9383    2.9678   -5.3483 C   0  0  0  0  0  0  0  0  0  0  0  0
    6.5383    2.3489   -4.1767 C   0  0  0  0  0  0  0  0  0  0  0  0
    6.0490    1.1025   -4.2195 F   0  0  0  0  0  0  0  0  0  0  0  0
    4.7554    1.1892    5.0375 H   0  0  0  0  0  0  0  0  0  0  0  0
    4.5240    2.8414    4.4219 H   0  0  0  0  0  0  0  0  0  0  0  0
    6.1660    2.2050    4.6627 H   0  0  0  0  0  0  0  0  0  0  0  0
    4.1280    1.1110    2.6080 H   0  0  0  0  0  0  0  0  0  0  0  0
    5.7555    0.4805    2.8466 H   0  0  0  0  0  0  0  0  0  0  0  0
    6.7189    2.7056    2.1626 H   0  0  0  0  0  0  0  0  0  0  0  0
    5.0891    3.3367    1.9234 H   0  0  0  0  0  0  0  0  0  0  0  0
    4.6750    1.5924    0.1350 H   0  0  0  0  0  0  0  0  0  0  0  0
    6.3065    0.9604    0.3747 H   0  0  0  0  0  0  0  0  0  0  0  0
    7.2735    3.1707   -0.3131 H   0  0  0  0  0  0  0  0  0  0  0  0
    5.6258    3.8094   -0.5556 H   0  0  0  0  0  0  0  0  0  0  0  0
    7.2108    4.8402   -1.9626 H   0  0  0  0  0  0  0  0  0  0  0  0
    7.9430    5.9373   -4.0305 H   0  0  0  0  0  0  0  0  0  0  0  0
    7.2168    6.9257   -6.0085 H   0  0  0  0  0  0  0  0  0  0  0  0
    7.9440    8.0423   -8.0618 H   0  0  0  0  0  0  0  0  0  0  0  0
    9.5347    8.7119   -9.6319 H   0  0  0  0  0  0  0  0  0  0  0  0
    7.9375    8.4305  -10.3513 H   0  0  0  0  0  0  0  0  0  0  0  0
   10.1509    6.4722  -12.3186 H   0  0  0  0  0  0  0  0  0  0  0  0
   11.0509    7.1370  -14.5346 H   0  0  0  0  0  0  0  0  0  0  0  0
   10.2989    7.8641  -16.6637 H   0  0  0  0  0  0  0  0  0  0  0  0
   11.1990    8.4439  -18.8835 H   0  0  0  0  0  0  0  0  0  0  0  0
   12.4785    9.8701  -20.3398 H   0  0  0  0  0  0  0  0  0  0  0  0
   13.7452   10.8507  -19.5624 H   0  0  0  0  0  0  0  0  0  0  0  0
   12.1883   11.5874  -19.9773 H   0  0  0  0  0  0  0  0  0  0  0  0
   12.8988   12.0510  -17.2528 H   0  0  0  0  0  0  0  0  0  0  0  0
   12.0118   11.4722  -15.0324 H   0  0  0  0  0  0  0  0  0  0  0  0
    9.3620    4.2737   -9.6147 H   0  0  0  0  0  0  0  0  0  0  0  0
    8.6557    3.1515   -7.5193 H   0  0  0  0  0  0  0  0  0  0  0  0
    6.8219    2.4127   -6.2808 H   0  0  0  0  0  0  0  0  0  0  0  0
  1  2  1  0
  1 37  1  0
  1 38  1  0
  1 39  1  0
  2  3  1  0
  2 40  1  0
  2 41  1  0
  3  4  1  0
  3 42  1  0
  3 43  1  0
  4  5  1  0
  4 44  1  0
  4 45  1  0
  5  6  1  0
  5 46  1  0
  5 47  1  0
  6  7  1  0
  7  8  2  0
  7 35  1  0
  8  9  1  0
  8 48  1  0
  9 10  2  0
  9 49  1  0
 10 11  1  0
 10 34  1  0
 11 12  2  0
 11 33  1  0
 12 13  1  0
 12 50  1  0
 13 14  2  0
 13 51  1  0
 14 15  1  0
 14 32  1  0
 15 16  1  0
 16 17  1  0
 16 52  1  0
 16 53  1  0
 17 18  2  0
 17 30  1  0
 18 19  1  0
 18 54  1  0
 19 20  2  0
 19 55  1  0
 20 21  1  0
 20 28  1  0
 21 22  2  0
 21 27  1  0
 22 23  1  0
 22 56  1  0
 23 24  2  0
 23 57  1  0
 24 25  1  0
 24 26  1  0
 25 58  1  0
 25 59  1  0
 25 60  1  0
 26 27  2  0
 26 61  1  0
 27 62  1  0
 28 29  1  0
 28 30  2  0
 30 31  1  0
 32 33  2  0
 32 63  1  0
 33 64  1  0
 34 35  2  0
 34 65  1  0
 35 36  1  0
M  END

