
     RDKit          3D

 50 53  0  0  0  0  0  0  0  0999 V2000
    1.1668   -0.2731    0.3508 O   0  0  0  0  0  0  0  0  0  0  0  0
    1.6694   -0.1291   -0.7618 C   0  0  0  0  0  0  0  0  0  0  0  0
    1.1257    0.9915   -1.6024 C   0  0  0  0  0  0  0  0  0  0  0  0
    1.3446    1.2076   -2.8907 N   0  0  0  0  0  0  0  0  0  0  0  0
    0.6349    2.2938   -3.2392 N   0  0  0  0  0  0  0  0  0  0  0  0
    0.6670    2.6180   -4.1980 H   0  0  0  0  0  0  0  0  0  0  0  0
   -0.0707    2.8207   -2.1955 C   0  0  0  0  0  0  0  0  0  0  0  0
   -0.9294    3.9335   -2.1095 C   0  0  0  0  0  0  0  0  0  0  0  0
   -1.4984    4.1958   -0.8757 C   0  0  0  0  0  0  0  0  0  0  0  0
   -1.2119    3.3635    0.2323 C   0  0  0  0  0  0  0  0  0  0  0  0
   -1.8482    3.6876    1.5261 N   0  0  0  0  0  0  0  0  0  0  0  0
   -2.5907    4.6579    1.5617 O   0  0  0  0  0  0  0  0  0  0  0  0
   -1.5943    2.9704    2.4788 O   0  0  0  0  0  0  0  0  0  0  0  0
   -0.3708    2.2628    0.1641 C   0  0  0  0  0  0  0  0  0  0  0  0
    0.2174    1.9884   -1.0827 C   0  0  0  0  0  0  0  0  0  0  0  0
    2.6749   -0.9433   -1.2098 N   0  0  0  0  0  0  0  0  0  0  0  0
    3.1314   -2.0248   -0.3335 C   0  0  0  0  0  0  0  0  0  0  0  0
    3.1103   -3.3596   -1.0958 C   0  0  0  0  0  0  0  0  0  0  0  0
    3.8479   -3.3308   -2.3531 N   0  0  0  0  0  0  0  0  0  0  0  0
    5.2945   -3.5023   -2.2470 C   0  0  0  0  0  0  0  0  0  0  0  0
    5.9071   -3.9430   -3.5477 C   0  0  0  0  0  0  0  0  0  0  0  0
    6.9842   -3.3732   -4.1150 C   0  0  0  0  0  0  0  0  0  0  0  0
    7.6639   -3.7701   -5.3596 C   0  0  0  0  0  0  0  0  0  0  0  0
    8.7633   -3.0124   -5.8078 C   0  0  0  0  0  0  0  0  0  0  0  0
    9.4406   -3.3416   -6.9840 C   0  0  0  0  0  0  0  0  0  0  0  0
    9.0327   -4.4417   -7.7423 C   0  0  0  0  0  0  0  0  0  0  0  0
    7.9428   -5.2081   -7.3109 C   0  0  0  0  0  0  0  0  0  0  0  0
    7.2685   -4.8788   -6.1363 C   0  0  0  0  0  0  0  0  0  0  0  0
    3.4050   -2.2169   -3.1850 C   0  0  0  0  0  0  0  0  0  0  0  0
    3.4272   -0.8575   -2.4628 C   0  0  0  0  0  0  0  0  0  0  0  0
   -1.1415    4.5655   -2.9740 H   0  0  0  0  0  0  0  0  0  0  0  0
   -2.1735    5.0380   -0.7283 H   0  0  0  0  0  0  0  0  0  0  0  0
   -0.1777    1.6356    1.0315 H   0  0  0  0  0  0  0  0  0  0  0  0
    2.4756   -2.0524    0.5447 H   0  0  0  0  0  0  0  0  0  0  0  0
    4.1569   -1.7967    0.0147 H   0  0  0  0  0  0  0  0  0  0  0  0
    2.0574   -3.6140   -1.3156 H   0  0  0  0  0  0  0  0  0  0  0  0
    3.5116   -4.1607   -0.4544 H   0  0  0  0  0  0  0  0  0  0  0  0
    5.4629   -4.2959   -1.4955 H   0  0  0  0  0  0  0  0  0  0  0  0
    5.8380   -2.6071   -1.8704 H   0  0  0  0  0  0  0  0  0  0  0  0
    5.4086   -4.7971   -4.0198 H   0  0  0  0  0  0  0  0  0  0  0  0
    7.4299   -2.5084   -3.6070 H   0  0  0  0  0  0  0  0  0  0  0  0
    9.0890   -2.1495   -5.2196 H   0  0  0  0  0  0  0  0  0  0  0  0
   10.2910   -2.7361   -7.3085 H   0  0  0  0  0  0  0  0  0  0  0  0
    9.5601   -4.7038   -8.6629 H   0  0  0  0  0  0  0  0  0  0  0  0
    7.6179   -6.0725   -7.8959 H   0  0  0  0  0  0  0  0  0  0  0  0
    6.4244   -5.4935   -5.8161 H   0  0  0  0  0  0  0  0  0  0  0  0
    2.3687   -2.4151   -3.5136 H   0  0  0  0  0  0  0  0  0  0  0  0
    4.0317   -2.1651   -4.0886 H   0  0  0  0  0  0  0  0  0  0  0  0
    3.0021   -0.0820   -3.1046 H   0  0  0  0  0  0  0  0  0  0  0  0
    4.4707   -0.5733   -2.2263 H   0  0  0  0  0  0  0  0  0  0  0  0
  1  2  2  0
  2  3  1  0
  2 16  1  0
  3  4  2  0
  3 15  1  0
  4  5  1  0
  5  6  1  0
  5  7  1  0
  7  8  1  0
  7 15  2  0
  8  9  2  0
  8 31  1  0
  9 10  1  0
  9 32  1  0
 10 11  1  0
 10 14  2  0
 11 12  2  0
 11 13  1  0
 14 15  1  0
 14 33  1  0
 16 17  1  0
 16 30  1  0
 17 18  1  0
 17 34  1  0
 17 35  1  0
 18 19  1  0
 18 36  1  0
 18 37  1  0
 19 20  1  0
 19 29  1  0
 20 21  1  0
 20 38  1  0
 20 39  1  0
 21 22  2  0
 21 40  1  0
 22 23  1  0
 22 41  1  0
 23 24  2  0
 23 28  1  0
 24 25  1  0
 24 42  1  0
 25 26  2  0
 25 43  1  0
 26 27  1  0
 26 44  1  0
 27 28  2  0
 27 45  1  0
 28 46  1  0
 29 30  1  0
 29 47  1  0
 29 48  1  0
 30 49  1  0
 30 50  1  0
M  CHG  2  11   1  13  -1
M  END

