
     RDKit          3D

 44 46  0  0  0  0  0  0  0  0999 V2000
    2.3037    1.5803    0.6506 C   0  0  0  0  0  0  0  0  0  0  0  0
    2.0964    0.1844    0.6077 O   0  0  0  0  0  0  0  0  0  0  0  0
    2.9333   -0.6335    1.2925 C   0  0  0  0  0  0  0  0  0  0  0  0
    4.0316   -0.1955    2.0338 C   0  0  0  0  0  0  0  0  0  0  0  0
    4.8479   -1.0962    2.7525 C   0  0  0  0  0  0  0  0  0  0  0  0
    5.9644   -0.5982    3.4837 C   0  0  0  0  0  0  0  0  0  0  0  0
    6.9248   -0.1588    4.0949 C   0  0  0  0  0  0  0  0  0  0  0  0
    8.0567    0.3367    4.8103 C   0  0  0  0  0  0  0  0  0  0  0  0
    8.1831    1.7125    5.1031 C   0  0  0  0  0  0  0  0  0  0  0  0
    9.2914    2.1881    5.8029 C   0  0  0  0  0  0  0  0  0  0  0  0
   10.2935    1.3068    6.2233 C   0  0  0  0  0  0  0  0  0  0  0  0
   10.1807   -0.0584    5.9375 C   0  0  0  0  0  0  0  0  0  0  0  0
    9.0760   -0.5431    5.2384 C   0  0  0  0  0  0  0  0  0  0  0  0
    4.5391   -2.4854    2.7258 C   0  0  0  0  0  0  0  0  0  0  0  0
    5.3112   -3.4360    3.4526 C   0  0  0  0  0  0  0  0  0  0  0  0
    5.9553   -4.2618    4.0787 C   0  0  0  0  0  0  0  0  0  0  0  0
    6.7131   -5.2176    4.8206 C   0  0  0  0  0  0  0  0  0  0  0  0
    7.6012   -4.7987    5.8365 C   0  0  0  0  0  0  0  0  0  0  0  0
    8.3409   -5.7339    6.5592 C   0  0  0  0  0  0  0  0  0  0  0  0
    8.2120   -7.1005    6.2875 C   0  0  0  0  0  0  0  0  0  0  0  0
    7.3340   -7.5277    5.2852 C   0  0  0  0  0  0  0  0  0  0  0  0
    6.5902   -6.5998    4.5572 C   0  0  0  0  0  0  0  0  0  0  0  0
    3.4355   -2.9120    1.9574 C   0  0  0  0  0  0  0  0  0  0  0  0
    2.6379   -2.0235    1.2453 C   0  0  0  0  0  0  0  0  0  0  0  0
    1.5531   -2.5086    0.5809 O   0  0  0  0  0  0  0  0  0  0  0  0
    1.5128   -2.3567   -0.8319 C   0  0  0  0  0  0  0  0  0  0  0  0
    1.5037    2.0323    0.0496 H   0  0  0  0  0  0  0  0  0  0  0  0
    3.2807    1.8639    0.2201 H   0  0  0  0  0  0  0  0  0  0  0  0
    2.2418    1.9692    1.6823 H   0  0  0  0  0  0  0  0  0  0  0  0
    4.2801    0.8636    2.0790 H   0  0  0  0  0  0  0  0  0  0  0  0
    7.4001    2.3998    4.7761 H   0  0  0  0  0  0  0  0  0  0  0  0
    9.3743    3.2555    6.0229 H   0  0  0  0  0  0  0  0  0  0  0  0
   11.1608    1.6831    6.7716 H   0  0  0  0  0  0  0  0  0  0  0  0
   10.9618   -0.7512    6.2609 H   0  0  0  0  0  0  0  0  0  0  0  0
    8.9892   -1.6071    5.0088 H   0  0  0  0  0  0  0  0  0  0  0  0
    7.6953   -3.7325    6.0522 H   0  0  0  0  0  0  0  0  0  0  0  0
    9.0226   -5.3943    7.3433 H   0  0  0  0  0  0  0  0  0  0  0  0
    8.7932   -7.8308    6.8561 H   0  0  0  0  0  0  0  0  0  0  0  0
    7.2281   -8.5940    5.0690 H   0  0  0  0  0  0  0  0  0  0  0  0
    5.9054   -6.9328    3.7745 H   0  0  0  0  0  0  0  0  0  0  0  0
    3.1760   -3.9708    1.9178 H   0  0  0  0  0  0  0  0  0  0  0  0
    0.6068   -2.8754   -1.1749 H   0  0  0  0  0  0  0  0  0  0  0  0
    2.3936   -2.8268   -1.3059 H   0  0  0  0  0  0  0  0  0  0  0  0
    1.4610   -1.2987   -1.1306 H   0  0  0  0  0  0  0  0  0  0  0  0
  1  2  1  0
  1 27  1  0
  1 28  1  0
  1 29  1  0
  2  3  1  0
  3  4  2  0
  3 24  1  0
  4  5  1  0
  4 30  1  0
  5  6  1  0
  5 14  2  0
  6  7  3  0
  7  8  1  0
  8  9  2  0
  8 13  1  0
  9 10  1  0
  9 31  1  0
 10 11  2  0
 10 32  1  0
 11 12  1  0
 11 33  1  0
 12 13  2  0
 12 34  1  0
 13 35  1  0
 14 15  1  0
 14 23  1  0
 15 16  3  0
 16 17  1  0
 17 18  2  0
 17 22  1  0
 18 19  1  0
 18 36  1  0
 19 20  2  0
 19 37  1  0
 20 21  1  0
 20 38  1  0
 21 22  2  0
 21 39  1  0
 22 40  1  0
 23 24  2  0
 23 41  1  0
 24 25  1  0
 25 26  1  0
 26 42  1  0
 26 43  1  0
 26 44  1  0
M  END

