
     RDKit          3D

 28 29  0  0  0  0  0  0  0  0999 V2000
    1.7467    0.9525   -1.3124 C   0  0  0  0  0  0  0  0  0  0  0  0
    2.6817    0.4052   -0.3781 O   0  0  0  0  0  0  0  0  0  0  0  0
    2.8846    1.0393    0.7614 C   0  0  0  0  0  0  0  0  0  0  0  0
    2.2149    2.1665    0.9910 N   0  0  0  0  0  0  0  0  0  0  0  0
    2.4690    2.8020    2.1327 C   0  0  0  0  0  0  0  0  0  0  0  0
    3.3486    2.4673    3.0577 N   0  0  0  0  0  0  0  0  0  0  0  0
    4.0709    1.3434    2.8695 C   0  0  0  0  0  0  0  0  0  0  0  0
    5.0040    0.9955    3.7823 N   0  0  0  0  0  0  0  0  0  0  0  0
    5.3790    1.5675    5.0120 C   0  0  0  0  0  0  0  0  0  0  0  0
    6.4276    0.9233    5.6987 C   0  0  0  0  0  0  0  0  0  0  0  0
    6.8744    1.4035    6.9263 C   0  0  0  0  0  0  0  0  0  0  0  0
    6.2827    2.5319    7.4880 C   0  0  0  0  0  0  0  0  0  0  0  0
    6.7129    2.9900    8.6651 F   0  0  0  0  0  0  0  0  0  0  0  0
    5.2408    3.1799    6.8161 C   0  0  0  0  0  0  0  0  0  0  0  0
    4.5130    4.5894    7.5316 Cl  0  0  0  0  0  0  0  0  0  0  0  0
    4.7864    2.7065    5.5836 C   0  0  0  0  0  0  0  0  0  0  0  0
    3.8269    0.5322    1.7025 C   0  0  0  0  0  0  0  0  0  0  0  0
    4.4831   -0.7428    1.4940 N   0  0  0  0  0  0  0  0  0  0  0  0
    4.0180   -1.5308    0.6956 O   0  0  0  0  0  0  0  0  0  0  0  0
    5.5018   -0.9876    2.1625 O   0  0  0  0  0  0  0  0  0  0  0  0
    1.7412    0.2527   -2.1565 H   0  0  0  0  0  0  0  0  0  0  0  0
    2.0599    1.9538   -1.6411 H   0  0  0  0  0  0  0  0  0  0  0  0
    0.7453    1.0269   -0.8651 H   0  0  0  0  0  0  0  0  0  0  0  0
    1.8865    3.7127    2.3209 H   0  0  0  0  0  0  0  0  0  0  0  0
    5.5227    0.1608    3.4928 H   0  0  0  0  0  0  0  0  0  0  0  0
    6.8956    0.0359    5.2654 H   0  0  0  0  0  0  0  0  0  0  0  0
    7.6858    0.9113    7.4659 H   0  0  0  0  0  0  0  0  0  0  0  0
    3.9820    3.2203    5.0667 H   0  0  0  0  0  0  0  0  0  0  0  0
  1  2  1  0
  1 21  1  0
  1 22  1  0
  1 23  1  0
  2  3  1  0
  3  4  2  0
  3 17  1  0
  4  5  1  0
  5  6  2  0
  5 24  1  0
  6  7  1  0
  7  8  1  0
  7 17  2  0
  8  9  1  0
  8 25  1  0
  9 10  2  0
  9 16  1  0
 10 11  1  0
 10 26  1  0
 11 12  2  0
 11 27  1  0
 12 13  1  0
 12 14  1  0
 14 15  1  0
 14 16  2  0
 16 28  1  0
 17 18  1  0
 18 19  2  0
 18 20  1  0
M  CHG  2  18   1  20  -1
M  END

