
     RDKit          3D

 46 50  0  0  0  0  0  0  0  0999 V2000
    1.0913    0.2191    0.4760 O   0  0  0  0  0  0  0  0  0  0  0  0
    2.3112    0.1922    0.5182 N   0  0  0  0  0  0  0  0  0  0  0  0
    2.9876   -0.8207    0.5957 O   0  0  0  0  0  0  0  0  0  0  0  0
    3.0220    1.4834    0.4722 C   0  0  0  0  0  0  0  0  0  0  0  0
    2.2825    2.6628    0.3763 C   0  0  0  0  0  0  0  0  0  0  0  0
    2.9522    3.8817    0.3304 C   0  0  0  0  0  0  0  0  0  0  0  0
    4.3562    3.9140    0.3885 C   0  0  0  0  0  0  0  0  0  0  0  0
    5.0498    5.1457    0.3531 N   0  0  0  0  0  0  0  0  0  0  0  0
    4.5458    6.3999    0.4914 C   0  0  0  0  0  0  0  0  0  0  0  0
    5.6096    7.2858    0.4081 C   0  0  0  0  0  0  0  0  0  0  0  0
    5.4058    8.7183    0.5066 C   0  0  0  0  0  0  0  0  0  0  0  0
    6.2353    9.7130    0.6381 N   0  0  0  0  0  0  0  0  0  0  0  0
    5.4892   10.8639    0.7067 N   0  0  0  0  0  0  0  0  0  0  0  0
    4.2401   10.5125    0.6200 C   0  0  0  0  0  0  0  0  0  0  0  0
    3.0544   11.3625    0.6438 C   0  0  0  0  0  0  0  0  0  0  0  0
    3.2140   12.7532    0.7916 C   0  0  0  0  0  0  0  0  0  0  0  0
    2.0950   13.5829    0.8164 C   0  0  0  0  0  0  0  0  0  0  0  0
    0.8103   13.0392    0.6945 C   0  0  0  0  0  0  0  0  0  0  0  0
    0.6483   11.6582    0.5470 C   0  0  0  0  0  0  0  0  0  0  0  0
    1.7636   10.8195    0.5210 C   0  0  0  0  0  0  0  0  0  0  0  0
    4.1130    9.1625    0.4904 O   0  0  0  0  0  0  0  0  0  0  0  0
    6.7721    6.4400    0.2052 C   0  0  0  0  0  0  0  0  0  0  0  0
    8.2062    6.7379   -0.0012 C   0  0  0  0  0  0  0  0  0  0  0  0
    8.7793    7.9948    0.2646 C   0  0  0  0  0  0  0  0  0  0  0  0
   10.1454    8.2125    0.0713 C   0  0  0  0  0  0  0  0  0  0  0  0
   10.9433    7.1707   -0.3894 C   0  0  0  0  0  0  0  0  0  0  0  0
   12.2540    7.3768   -0.5770 F   0  0  0  0  0  0  0  0  0  0  0  0
   10.4074    5.9126   -0.6655 C   0  0  0  0  0  0  0  0  0  0  0  0
    9.0458    5.7038   -0.4707 C   0  0  0  0  0  0  0  0  0  0  0  0
    6.3864    5.1669    0.1846 N   0  0  0  0  0  0  0  0  0  0  0  0
    5.0867    2.7171    0.4817 C   0  0  0  0  0  0  0  0  0  0  0  0
    4.4171    1.4985    0.5225 C   0  0  0  0  0  0  0  0  0  0  0  0
    1.1953    2.6087    0.3312 H   0  0  0  0  0  0  0  0  0  0  0  0
    2.3738    4.8007    0.2350 H   0  0  0  0  0  0  0  0  0  0  0  0
    3.4929    6.6023    0.6572 H   0  0  0  0  0  0  0  0  0  0  0  0
    4.2217   13.1619    0.8853 H   0  0  0  0  0  0  0  0  0  0  0  0
    2.2237   14.6618    0.9315 H   0  0  0  0  0  0  0  0  0  0  0  0
   -0.0648   13.6934    0.7144 H   0  0  0  0  0  0  0  0  0  0  0  0
   -0.3529   11.2313    0.4508 H   0  0  0  0  0  0  0  0  0  0  0  0
    1.6382    9.7416    0.4039 H   0  0  0  0  0  0  0  0  0  0  0  0
    8.1568    8.8180    0.6151 H   0  0  0  0  0  0  0  0  0  0  0  0
   10.5961    9.1856    0.2757 H   0  0  0  0  0  0  0  0  0  0  0  0
   11.0610    5.1188   -1.0323 H   0  0  0  0  0  0  0  0  0  0  0  0
    8.6130    4.7270   -0.6871 H   0  0  0  0  0  0  0  0  0  0  0  0
    6.1735    2.7652    0.5230 H   0  0  0  0  0  0  0  0  0  0  0  0
    4.9580    0.5555    0.5973 H   0  0  0  0  0  0  0  0  0  0  0  0
  1  2  2  0
  2  3  1  0
  2  4  1  0
  4  5  2  0
  4 32  1  0
  5  6  1  0
  5 33  1  0
  6  7  2  0
  6 34  1  0
  7  8  1  0
  7 31  1  0
  8  9  1  0
  8 30  1  0
  9 10  2  0
  9 35  1  0
 10 11  1  0
 10 22  1  0
 11 12  2  0
 11 21  1  0
 12 13  1  0
 13 14  2  0
 14 15  1  0
 14 21  1  0
 15 16  2  0
 15 20  1  0
 16 17  1  0
 16 36  1  0
 17 18  2  0
 17 37  1  0
 18 19  1  0
 18 38  1  0
 19 20  2  0
 19 39  1  0
 20 40  1  0
 22 23  1  0
 22 30  2  0
 23 24  2  0
 23 29  1  0
 24 25  1  0
 24 41  1  0
 25 26  2  0
 25 42  1  0
 26 27  1  0
 26 28  1  0
 28 29  2  0
 28 43  1  0
 29 44  1  0
 31 32  2  0
 31 45  1  0
 32 46  1  0
M  CHG  2   2   1   3  -1
M  END

