
     RDKit          3D

 62 65  0  0  0  0  0  0  0  0999 V2000
    0.6300    0.6840    1.2942 C   0  0  0  0  0  0  0  0  0  0  0  0
    1.6911    0.1277    0.3305 C   0  0  1  0  0  0  0  0  0  0  0  0
    1.1970   -1.2028   -0.2809 C   0  0  0  0  0  0  0  0  0  0  0  0
    0.9219   -2.1177    0.4831 O   0  0  0  0  0  0  0  0  0  0  0  0
    1.0821   -1.3147   -1.6368 N   0  0  0  0  0  0  0  0  0  0  0  0
    0.7022   -2.6161   -2.1882 C   0  0  0  0  0  0  0  0  0  0  0  0
    1.8813   -3.5762   -2.3783 C   0  0  0  0  0  0  0  0  0  0  0  0
    1.4618   -4.8958   -3.0390 C   0  0  0  0  0  0  0  0  0  0  0  0
    0.9143   -4.7149   -4.3821 N   0  0  0  0  0  0  0  0  0  0  0  0
    1.9065   -4.5179   -5.4386 C   0  0  0  0  0  0  0  0  0  0  0  0
    2.5656   -5.8253   -5.9204 C   0  0  0  0  0  0  0  0  0  0  0  0
    1.5077   -6.8449   -6.3247 C   0  0  1  0  0  0  0  0  0  0  0  0
    0.4607   -7.0380   -5.2345 C   0  0  0  0  0  0  0  0  0  0  0  0
   -0.1067   -5.6766   -4.7909 C   0  0  0  0  0  0  0  0  0  0  0  0
    1.0602   -6.8864   -7.7701 C   0  0  0  0  0  0  0  0  0  0  0  0
    1.8957   -8.0082   -7.1963 C   0  0  0  0  0  0  0  0  0  0  0  0
    1.4384   -0.2469   -2.5663 C   0  0  0  0  0  0  0  0  0  0  0  0
    1.3540    1.1129   -1.8940 C   0  0  0  0  0  0  0  0  0  0  0  0
    2.1319    1.1013   -0.6671 N   0  0  0  0  0  0  0  0  0  0  0  0
    3.1760    1.9972   -0.5322 C   0  0  0  0  0  0  0  0  0  0  0  0
    3.4748    2.7661   -1.4398 O   0  0  0  0  0  0  0  0  0  0  0  0
    3.9265    2.0019    0.7597 C   0  0  0  0  0  0  0  0  0  0  0  0
    4.9698    2.8417    0.9091 C   0  0  0  0  0  0  0  0  0  0  0  0
    5.8255    3.0123    2.0860 C   0  0  0  0  0  0  0  0  0  0  0  0
    6.8694    3.9567    2.0394 C   0  0  0  0  0  0  0  0  0  0  0  0
    7.7101    4.1571    3.1314 C   0  0  0  0  0  0  0  0  0  0  0  0
    7.5322    3.4178    4.3051 C   0  0  0  0  0  0  0  0  0  0  0  0
    8.5934    3.6853    5.6538 Cl  0  0  0  0  0  0  0  0  0  0  0  0
    6.4936    2.4683    4.3704 C   0  0  0  0  0  0  0  0  0  0  0  0
    6.2348    1.5248    5.8102 Cl  0  0  0  0  0  0  0  0  0  0  0  0
    5.6570    2.2741    3.2731 C   0  0  0  0  0  0  0  0  0  0  0  0
    0.3214   -0.1034    1.9954 H   0  0  0  0  0  0  0  0  0  0  0  0
   -0.2608    1.0310    0.7471 H   0  0  0  0  0  0  0  0  0  0  0  0
    1.0352    1.5356    1.8614 H   0  0  0  0  0  0  0  0  0  0  0  0
    2.5606   -0.1939    0.9201 H   0  0  0  0  0  0  0  0  0  0  0  0
    0.2058   -2.4505   -3.1557 H   0  0  0  0  0  0  0  0  0  0  0  0
   -0.0270   -3.0686   -1.5004 H   0  0  0  0  0  0  0  0  0  0  0  0
    2.3261   -3.7983   -1.3946 H   0  0  0  0  0  0  0  0  0  0  0  0
    2.6693   -3.0873   -2.9777 H   0  0  0  0  0  0  0  0  0  0  0  0
    0.6772   -5.3602   -2.4182 H   0  0  0  0  0  0  0  0  0  0  0  0
    2.3229   -5.5970   -3.0088 H   0  0  0  0  0  0  0  0  0  0  0  0
    2.6727   -3.8074   -5.0903 H   0  0  0  0  0  0  0  0  0  0  0  0
    1.4020   -4.0383   -6.2972 H   0  0  0  0  0  0  0  0  0  0  0  0
    3.1908   -6.2497   -5.1136 H   0  0  0  0  0  0  0  0  0  0  0  0
    3.2452   -5.6136   -6.7633 H   0  0  0  0  0  0  0  0  0  0  0  0
    0.9211   -7.5493   -4.3689 H   0  0  0  0  0  0  0  0  0  0  0  0
   -0.3552   -7.6904   -5.5894 H   0  0  0  0  0  0  0  0  0  0  0  0
   -0.8261   -5.8043   -3.9659 H   0  0  0  0  0  0  0  0  0  0  0  0
   -0.6678   -5.2377   -5.6366 H   0  0  0  0  0  0  0  0  0  0  0  0
    1.5345   -6.2031   -8.4816 H   0  0  0  0  0  0  0  0  0  0  0  0
    0.0055   -7.0867   -7.9831 H   0  0  0  0  0  0  0  0  0  0  0  0
    2.9399   -8.0879   -7.5153 H   0  0  0  0  0  0  0  0  0  0  0  0
    1.4096   -8.9722   -7.0158 H   0  0  0  0  0  0  0  0  0  0  0  0
    0.7409   -0.2823   -3.4197 H   0  0  0  0  0  0  0  0  0  0  0  0
    2.4566   -0.4000   -2.9716 H   0  0  0  0  0  0  0  0  0  0  0  0
    0.2987    1.3553   -1.6699 H   0  0  0  0  0  0  0  0  0  0  0  0
    1.7608    1.8967   -2.5436 H   0  0  0  0  0  0  0  0  0  0  0  0
    3.6203    1.3431    1.5725 H   0  0  0  0  0  0  0  0  0  0  0  0
    5.2024    3.4738    0.0455 H   0  0  0  0  0  0  0  0  0  0  0  0
    7.0214    4.5426    1.1299 H   0  0  0  0  0  0  0  0  0  0  0  0
    8.5167    4.8906    3.0884 H   0  0  0  0  0  0  0  0  0  0  0  0
    4.8649    1.5299    3.3612 H   0  0  0  0  0  0  0  0  0  0  0  0
  1  2  1  0
  1 32  1  0
  1 33  1  0
  1 34  1  0
  2  3  1  0
  2 19  1  0
  2 35  1  1
  3  4  2  0
  3  5  1  0
  5  6  1  0
  5 17  1  0
  6  7  1  0
  6 36  1  0
  6 37  1  0
  7  8  1  0
  7 38  1  0
  7 39  1  0
  8  9  1  0
  8 40  1  0
  8 41  1  0
  9 10  1  0
  9 14  1  0
 10 11  1  0
 10 42  1  0
 10 43  1  0
 12 11  1  1
 11 44  1  0
 11 45  1  0
 12 13  1  0
 12 15  1  0
 12 16  1  0
 13 14  1  0
 13 46  1  0
 13 47  1  0
 14 48  1  0
 14 49  1  0
 15 16  1  0
 15 50  1  0
 15 51  1  0
 16 52  1  0
 16 53  1  0
 17 18  1  0
 17 54  1  0
 17 55  1  0
 18 19  1  0
 18 56  1  0
 18 57  1  0
 19 20  1  0
 20 21  2  0
 20 22  1  0
 22 23  2  0
 22 58  1  0
 23 24  1  0
 23 59  1  0
 24 25  2  0
 24 31  1  0
 25 26  1  0
 25 60  1  0
 26 27  2  0
 26 61  1  0
 27 28  1  0
 27 29  1  0
 29 30  1  0
 29 31  2  0
 31 62  1  0
M  END

