
     RDKit          3D

 48 50  0  0  0  0  0  0  0  0999 V2000
    0.4359    0.2000   -1.3417 C   0  0  0  0  0  0  0  0  0  0  0  0
    1.6315   -0.2301   -0.5070 C   0  0  0  0  0  0  0  0  0  0  0  0
    1.5994   -0.3868    0.6852 O   0  0  0  0  0  0  0  0  0  0  0  0
    2.7865   -0.4374   -1.2875 N   0  0  0  0  0  0  0  0  0  0  0  0
    4.0200   -0.8875   -0.8566 C   0  0  0  0  0  0  0  0  0  0  0  0
    4.2740   -1.4782    0.2728 N   0  0  0  0  0  0  0  0  0  0  0  0
    5.5971   -1.7906    0.3745 C   0  0  0  0  0  0  0  0  0  0  0  0
    6.3860   -1.4376   -0.6918 C   0  0  0  0  0  0  0  0  0  0  0  0
    8.0993   -1.8309   -0.8878 S   0  0  1  0  0  0  0  0  0  0  0  0
    8.4929   -2.5022    0.3541 O   0  0  0  0  0  0  0  0  0  0  0  0
    8.2977   -2.4624   -2.1912 O   0  0  0  0  0  0  0  0  0  0  0  0
    8.8034   -0.2964   -0.9917 N   0  0  0  0  0  0  0  0  0  0  0  0
    9.9186   -0.1306   -1.9345 C   0  0  0  0  0  0  0  0  0  0  0  0
   10.1329    1.3551   -2.1945 C   0  0  0  0  0  0  0  0  0  0  0  0
   10.3304    2.0805   -0.9423 N   0  0  0  0  0  0  0  0  0  0  0  0
   11.0483    3.2789   -0.9769 C   0  0  0  0  0  0  0  0  0  0  0  0
   11.1416    4.1639    0.1287 C   0  0  0  0  0  0  0  0  0  0  0  0
   11.9345    5.2827    0.0072 C   0  0  0  0  0  0  0  0  0  0  0  0
   12.6244    5.4912   -1.2187 C   0  0  0  0  0  0  0  0  0  0  0  0
   13.4832    6.5558   -1.4197 N   0  0  0  0  0  0  0  0  0  0  0  0
   13.5487    7.6209   -0.4443 C   0  0  0  0  0  0  0  0  0  0  0  0
   13.9786    6.8277   -2.7587 C   0  0  0  0  0  0  0  0  0  0  0  0
   12.4503    4.6374   -2.2360 N   0  0  0  0  0  0  0  0  0  0  0  0
   11.6857    3.5688   -2.1148 N   0  0  0  0  0  0  0  0  0  0  0  0
    9.2586    1.8821    0.0188 C   0  0  0  0  0  0  0  0  0  0  0  0
    9.0230    0.3941    0.2794 C   0  0  0  0  0  0  0  0  0  0  0  0
    5.4229   -0.6513   -1.9164 S   0  0  0  0  0  0  0  0  0  0  0  0
   -0.3810    0.4723   -0.6632 H   0  0  0  0  0  0  0  0  0  0  0  0
    0.1035   -0.6285   -1.9889 H   0  0  0  0  0  0  0  0  0  0  0  0
    0.6772    1.0595   -1.9882 H   0  0  0  0  0  0  0  0  0  0  0  0
    2.7199   -0.1960   -2.2698 H   0  0  0  0  0  0  0  0  0  0  0  0
    5.9797   -2.3080    1.2556 H   0  0  0  0  0  0  0  0  0  0  0  0
    9.6690   -0.6465   -2.8700 H   0  0  0  0  0  0  0  0  0  0  0  0
   10.8481   -0.5764   -1.5299 H   0  0  0  0  0  0  0  0  0  0  0  0
    9.2598    1.7609   -2.7469 H   0  0  0  0  0  0  0  0  0  0  0  0
   11.0152    1.5069   -2.8264 H   0  0  0  0  0  0  0  0  0  0  0  0
   10.6071    3.9855    1.0615 H   0  0  0  0  0  0  0  0  0  0  0  0
   12.0161    5.9816    0.8390 H   0  0  0  0  0  0  0  0  0  0  0  0
   13.7939    7.2376    0.5603 H   0  0  0  0  0  0  0  0  0  0  0  0
   12.6076    8.2039   -0.3635 H   0  0  0  0  0  0  0  0  0  0  0  0
   14.3494    8.3176   -0.7282 H   0  0  0  0  0  0  0  0  0  0  0  0
   14.1475    5.8827   -3.2871 H   0  0  0  0  0  0  0  0  0  0  0  0
   14.9262    7.3837   -2.6900 H   0  0  0  0  0  0  0  0  0  0  0  0
   13.2662    7.4240   -3.3639 H   0  0  0  0  0  0  0  0  0  0  0  0
    8.3112    2.3428   -0.3353 H   0  0  0  0  0  0  0  0  0  0  0  0
    9.5135    2.3473    0.9795 H   0  0  0  0  0  0  0  0  0  0  0  0
    8.1362    0.2739    0.9194 H   0  0  0  0  0  0  0  0  0  0  0  0
    9.8890   -0.0358    0.8171 H   0  0  0  0  0  0  0  0  0  0  0  0
  1  2  1  0
  1 28  1  0
  1 29  1  0
  1 30  1  0
  2  3  2  0
  2  4  1  0
  4  5  1  0
  4 31  1  0
  5  6  2  0
  5 27  1  0
  6  7  1  0
  7  8  2  0
  7 32  1  0
  9  8  1  1
  8 27  1  0
  9 10  2  0
  9 11  2  0
  9 12  1  0
 12 13  1  0
 12 26  1  0
 13 14  1  0
 13 33  1  0
 13 34  1  0
 14 15  1  0
 14 35  1  0
 14 36  1  0
 15 16  1  0
 15 25  1  0
 16 17  2  0
 16 24  1  0
 17 18  1  0
 17 37  1  0
 18 19  2  0
 18 38  1  0
 19 20  1  0
 19 23  1  0
 20 21  1  0
 20 22  1  0
 21 39  1  0
 21 40  1  0
 21 41  1  0
 22 42  1  0
 22 43  1  0
 22 44  1  0
 23 24  2  0
 25 26  1  0
 25 45  1  0
 25 46  1  0
 26 47  1  0
 26 48  1  0
M  END

