
     RDKit          3D

 81 83  0  0  0  0  0  0  0  0999 V2000
   15.0348   -7.2951  -10.9625 C   0  0  0  0  0  0  0  0  0  0  0  0
   14.9530   -6.5178   -9.6711 C   0  0  0  0  0  0  0  0  0  0  0  0
   14.2957   -5.2761   -9.6192 C   0  0  0  0  0  0  0  0  0  0  0  0
   14.2223   -4.5460   -8.4337 C   0  0  0  0  0  0  0  0  0  0  0  0
   14.8007   -5.0252   -7.2451 C   0  0  0  0  0  0  0  0  0  0  0  0
   14.6982   -4.2326   -5.9593 C   0  0  0  0  0  0  0  0  0  0  0  0
   13.2921   -4.2487   -5.3050 C   0  0  1  0  0  0  0  0  0  0  0  0
   12.8329   -5.6503   -4.8559 C   0  0  0  0  0  0  0  0  0  0  0  0
   13.5401   -6.1284   -3.5837 C   0  0  0  0  0  0  0  0  0  0  0  0
   13.4091   -5.1479   -2.4992 N   0  0  0  0  0  0  0  0  0  0  0  0
   12.8015   -5.5293   -1.3368 C   0  0  0  0  0  0  0  0  0  0  0  0
   12.3364   -6.6580   -1.1842 O   0  0  0  0  0  0  0  0  0  0  0  0
   12.6769   -4.5351   -0.1611 C   0  0  1  0  0  0  0  0  0  0  0  0
   12.6791   -3.4920   -0.4971 H   0  0  0  0  0  0  0  0  0  0  0  0
   11.3533   -4.7618    0.4004 N   0  0  0  0  0  0  0  0  0  0  0  0
   10.4056   -3.8048    0.5043 C   0  0  0  0  0  0  0  0  0  0  0  0
   10.6271   -2.6199    0.2286 O   0  0  0  0  0  0  0  0  0  0  0  0
    9.0320   -4.2704    0.9902 C   0  0  2  0  0  0  0  0  0  0  0  0
    9.0566   -5.3660    1.1081 H   0  0  0  0  0  0  0  0  0  0  0  0
    7.9391   -3.9270   -0.0455 C   0  0  0  0  0  0  0  0  0  0  0  0
    8.1581   -4.5005   -1.4482 C   0  0  1  0  0  0  0  0  0  0  0  0
    8.2443   -6.0479   -1.5378 C   0  0  0  0  0  0  0  0  0  0  0  0
    7.6788   -6.4342   -2.9358 C   0  0  0  0  0  0  0  0  0  0  0  0
    7.2955   -5.1011   -3.6182 C   0  0  0  0  0  0  0  0  0  0  0  0
    7.0440   -4.1420   -2.4488 C   0  0  0  0  0  0  0  0  0  0  0  0
    8.7132   -3.6942    2.4028 C   0  0  0  0  0  0  0  0  0  0  0  0
    9.1844   -2.3497    2.6416 N   0  0  0  0  0  0  0  0  0  0  0  0
    8.8116   -1.3642    1.7424 O   0  0  0  0  0  0  0  0  0  0  0  0
   10.1562   -2.0446    3.5481 C   0  0  0  0  0  0  0  0  0  0  0  0
   10.6638   -2.8377    4.3195 O   0  0  0  0  0  0  0  0  0  0  0  0
   13.8170   -4.6970    0.9156 C   0  0  1  0  0  0  0  0  0  0  0  0
   15.1929   -4.4884    0.2551 C   0  0  0  0  0  0  0  0  0  0  0  0
   13.6164   -3.6190    1.9978 C   0  0  0  0  0  0  0  0  0  0  0  0
   13.7762   -6.0900    1.5708 C   0  0  0  0  0  0  0  0  0  0  0  0
   13.8981   -3.8149   -2.8475 C   0  0  0  0  0  0  0  0  0  0  0  0
   13.1991   -3.2829   -4.1068 C   0  0  0  0  0  0  0  0  0  0  0  0
   15.4590   -6.2612   -7.2984 C   0  0  0  0  0  0  0  0  0  0  0  0
   15.5331   -6.9939   -8.4880 C   0  0  0  0  0  0  0  0  0  0  0  0
   14.0334   -7.4748  -11.3879 H   0  0  0  0  0  0  0  0  0  0  0  0
   15.5190   -8.2721  -10.8170 H   0  0  0  0  0  0  0  0  0  0  0  0
   15.6126   -6.7456  -11.7250 H   0  0  0  0  0  0  0  0  0  0  0  0
   13.8375   -4.8723  -10.5273 H   0  0  0  0  0  0  0  0  0  0  0  0
   13.7104   -3.5785   -8.4325 H   0  0  0  0  0  0  0  0  0  0  0  0
   14.9589   -3.1796   -6.1640 H   0  0  0  0  0  0  0  0  0  0  0  0
   15.4576   -4.5998   -5.2498 H   0  0  0  0  0  0  0  0  0  0  0  0
   12.5849   -3.8942   -6.0744 H   0  0  0  0  0  0  0  0  0  0  0  0
   12.9931   -6.3865   -5.6596 H   0  0  0  0  0  0  0  0  0  0  0  0
   11.7473   -5.6256   -4.6601 H   0  0  0  0  0  0  0  0  0  0  0  0
   14.6164   -6.2936   -3.7752 H   0  0  0  0  0  0  0  0  0  0  0  0
   13.1157   -7.0730   -3.2254 H   0  0  0  0  0  0  0  0  0  0  0  0
   11.0853   -5.7383    0.4802 H   0  0  0  0  0  0  0  0  0  0  0  0
    7.8358   -2.8329   -0.1022 H   0  0  0  0  0  0  0  0  0  0  0  0
    6.9795   -4.3058    0.3509 H   0  0  0  0  0  0  0  0  0  0  0  0
    9.0974   -4.0781   -1.8514 H   0  0  0  0  0  0  0  0  0  0  0  0
    7.6327   -6.5039   -0.7400 H   0  0  0  0  0  0  0  0  0  0  0  0
    9.2737   -6.4115   -1.3956 H   0  0  0  0  0  0  0  0  0  0  0  0
    6.7889   -7.0740   -2.8231 H   0  0  0  0  0  0  0  0  0  0  0  0
    8.4014   -7.0105   -3.5338 H   0  0  0  0  0  0  0  0  0  0  0  0
    6.4347   -5.1978   -4.2983 H   0  0  0  0  0  0  0  0  0  0  0  0
    8.1404   -4.7260   -4.2216 H   0  0  0  0  0  0  0  0  0  0  0  0
    6.0569   -4.3469   -1.9939 H   0  0  0  0  0  0  0  0  0  0  0  0
    7.0537   -3.0789   -2.7388 H   0  0  0  0  0  0  0  0  0  0  0  0
    9.1976   -4.2993    3.1821 H   0  0  0  0  0  0  0  0  0  0  0  0
    7.6212   -3.7417    2.5577 H   0  0  0  0  0  0  0  0  0  0  0  0
    9.4340   -1.5240    0.9889 H   0  0  0  0  0  0  0  0  0  0  0  0
   10.4136   -0.9618    3.4952 H   0  0  0  0  0  0  0  0  0  0  0  0
   15.2811   -3.4880   -0.1982 H   0  0  0  0  0  0  0  0  0  0  0  0
   15.4016   -5.2396   -0.5225 H   0  0  0  0  0  0  0  0  0  0  0  0
   15.9863   -4.5717    1.0144 H   0  0  0  0  0  0  0  0  0  0  0  0
   13.6287   -2.6058    1.5650 H   0  0  0  0  0  0  0  0  0  0  0  0
   14.4273   -3.6775    2.7415 H   0  0  0  0  0  0  0  0  0  0  0  0
   12.6678   -3.7430    2.5404 H   0  0  0  0  0  0  0  0  0  0  0  0
   13.9037   -6.8981    0.8361 H   0  0  0  0  0  0  0  0  0  0  0  0
   12.8243   -6.2576    2.0983 H   0  0  0  0  0  0  0  0  0  0  0  0
   14.5798   -6.1718    2.3199 H   0  0  0  0  0  0  0  0  0  0  0  0
   14.9908   -3.8687   -3.0064 H   0  0  0  0  0  0  0  0  0  0  0  0
   13.7403   -3.1218   -2.0157 H   0  0  0  0  0  0  0  0  0  0  0  0
   13.6284   -2.3005   -4.3664 H   0  0  0  0  0  0  0  0  0  0  0  0
   12.1366   -3.1120   -3.8626 H   0  0  0  0  0  0  0  0  0  0  0  0
   15.9298   -6.6605   -6.3950 H   0  0  0  0  0  0  0  0  0  0  0  0
   16.0560   -7.9548   -8.4942 H   0  0  0  0  0  0  0  0  0  0  0  0
  1  2  1  0
  1 39  1  0
  1 40  1  0
  1 41  1  0
  2  3  2  0
  2 38  1  0
  3  4  1  0
  3 42  1  0
  4  5  2  0
  4 43  1  0
  5  6  1  0
  5 37  1  0
  6  7  1  0
  6 44  1  0
  6 45  1  0
  7  8  1  0
  7 36  1  0
  7 46  1  6
  8  9  1  0
  8 47  1  0
  8 48  1  0
  9 10  1  0
  9 49  1  0
  9 50  1  0
 10 11  1  0
 10 35  1  0
 11 12  2  0
 11 13  1  0
 13 14  1  6
 13 15  1  0
 13 31  1  0
 15 16  1  0
 15 51  1  0
 16 17  2  0
 16 18  1  0
 18 19  1  1
 18 20  1  0
 18 26  1  0
 20 21  1  0
 20 52  1  0
 20 53  1  0
 21 22  1  0
 21 25  1  0
 21 54  1  6
 22 23  1  0
 22 55  1  0
 22 56  1  0
 23 24  1  0
 23 57  1  0
 23 58  1  0
 24 25  1  0
 24 59  1  0
 24 60  1  0
 25 61  1  0
 25 62  1  0
 26 27  1  0
 26 63  1  0
 26 64  1  0
 27 28  1  0
 27 29  1  0
 28 65  1  0
 29 30  2  0
 29 66  1  0
 31 32  1  6
 31 33  1  0
 31 34  1  0
 32 67  1  0
 32 68  1  0
 32 69  1  0
 33 70  1  0
 33 71  1  0
 33 72  1  0
 34 73  1  0
 34 74  1  0
 34 75  1  0
 35 36  1  0
 35 76  1  0
 35 77  1  0
 36 78  1  0
 36 79  1  0
 37 38  2  0
 37 80  1  0
 38 81  1  0
M  END

