
     RDKit          3D

 61 63  0  0  0  0  0  0  0  0999 V2000
    2.5251   -0.7513   -1.0483 C   0  0  0  0  0  0  0  0  0  0  0  0
    3.9943   -0.3283   -1.0847 C   0  0  0  0  0  0  0  0  0  0  0  0
    4.2791    0.9506   -0.2925 C   0  0  0  0  0  0  0  0  0  0  0  0
    5.7456    1.4020   -0.3189 C   0  0  0  0  0  0  0  0  0  0  0  0
    6.2377    1.7441   -1.6446 N   0  0  0  0  0  0  0  0  0  0  0  0
    6.2250    3.0186   -2.1156 C   0  0  0  0  0  0  0  0  0  0  0  0
    5.7704    3.9741   -1.5061 O   0  0  0  0  0  0  0  0  0  0  0  0
    6.8539    3.1933   -3.5125 C   0  0  0  0  0  0  0  0  0  0  0  0
    8.3245    3.1121   -3.4844 N   0  0  0  0  0  0  0  0  0  0  0  0
    8.8782    1.8461   -3.5531 C   0  0  0  0  0  0  0  0  0  0  0  0
    8.1770    0.8478   -3.6270 O   0  0  0  0  0  0  0  0  0  0  0  0
   10.4093    1.7887   -3.4650 C   0  0  2  0  0  0  0  0  0  0  0  0
   10.9408    0.4154   -3.8758 C   0  0  0  0  0  0  0  0  0  0  0  0
   12.4716    0.2751   -3.8120 C   0  0  1  0  0  0  0  0  0  0  0  0
   12.8783   -1.1908   -4.0090 C   0  0  0  0  0  0  0  0  0  0  0  0
   13.1952    1.1799   -4.8188 C   0  0  0  0  0  0  0  0  0  0  0  0
   10.7338    2.0798   -2.0748 N   0  0  0  0  0  0  0  0  0  0  0  0
   10.6024    3.2765   -1.6248 C   0  0  0  0  0  0  0  0  0  0  0  0
   10.9247    3.5259   -0.1866 C   0  0  0  0  0  0  0  0  0  0  0  0
   11.8297    2.6803    0.4812 C   0  0  0  0  0  0  0  0  0  0  0  0
   12.1137    2.8708    1.8326 C   0  0  0  0  0  0  0  0  0  0  0  0
   11.4889    3.9013    2.5455 C   0  0  0  0  0  0  0  0  0  0  0  0
   10.5778    4.7384    1.8965 C   0  0  0  0  0  0  0  0  0  0  0  0
   10.2997    4.5559    0.5390 C   0  0  0  0  0  0  0  0  0  0  0  0
   10.1727    4.4222   -2.4794 C   0  0  0  0  0  0  0  0  0  0  0  0
   10.8830    5.6380   -2.4226 C   0  0  0  0  0  0  0  0  0  0  0  0
   10.5545    6.7129   -3.2424 C   0  0  0  0  0  0  0  0  0  0  0  0
    9.4891    6.5899   -4.1415 C   0  0  0  0  0  0  0  0  0  0  0  0
    8.7731    5.3994   -4.2161 C   0  0  0  0  0  0  0  0  0  0  0  0
    9.0974    4.3045   -3.3933 C   0  0  0  0  0  0  0  0  0  0  0  0
    2.3541   -1.6725   -1.6280 H   0  0  0  0  0  0  0  0  0  0  0  0
    1.8730    0.0327   -1.4684 H   0  0  0  0  0  0  0  0  0  0  0  0
    2.1869   -0.9405   -0.0154 H   0  0  0  0  0  0  0  0  0  0  0  0
    4.3071   -0.1820   -2.1338 H   0  0  0  0  0  0  0  0  0  0  0  0
    4.6247   -1.1478   -0.6920 H   0  0  0  0  0  0  0  0  0  0  0  0
    3.9872    0.8033    0.7634 H   0  0  0  0  0  0  0  0  0  0  0  0
    3.6524    1.7765   -0.6725 H   0  0  0  0  0  0  0  0  0  0  0  0
    6.3931    0.6084    0.0913 H   0  0  0  0  0  0  0  0  0  0  0  0
    5.8633    2.2932    0.3150 H   0  0  0  0  0  0  0  0  0  0  0  0
    6.6857    1.0374   -2.2252 H   0  0  0  0  0  0  0  0  0  0  0  0
    6.5486    4.1826   -3.8630 H   0  0  0  0  0  0  0  0  0  0  0  0
    6.4822    2.4231   -4.2027 H   0  0  0  0  0  0  0  0  0  0  0  0
   10.8122    2.5707   -4.1379 H   0  0  0  0  0  0  0  0  0  0  0  0
   10.5874    0.1910   -4.8975 H   0  0  0  0  0  0  0  0  0  0  0  0
   10.4720   -0.3311   -3.2166 H   0  0  0  0  0  0  0  0  0  0  0  0
   12.7819    0.5783   -2.7960 H   0  0  0  0  0  0  0  0  0  0  0  0
   12.5773   -1.5555   -5.0066 H   0  0  0  0  0  0  0  0  0  0  0  0
   12.4027   -1.8443   -3.2600 H   0  0  0  0  0  0  0  0  0  0  0  0
   13.9698   -1.3196   -3.9244 H   0  0  0  0  0  0  0  0  0  0  0  0
   12.8998    0.9364   -5.8545 H   0  0  0  0  0  0  0  0  0  0  0  0
   14.2879    1.0538   -4.7490 H   0  0  0  0  0  0  0  0  0  0  0  0
   12.9816    2.2481   -4.6533 H   0  0  0  0  0  0  0  0  0  0  0  0
   12.3001    1.8727   -0.0816 H   0  0  0  0  0  0  0  0  0  0  0  0
   12.8263    2.2120    2.3357 H   0  0  0  0  0  0  0  0  0  0  0  0
   11.7105    4.0484    3.6058 H   0  0  0  0  0  0  0  0  0  0  0  0
   10.0747    5.5360    2.4491 H   0  0  0  0  0  0  0  0  0  0  0  0
    9.5727    5.2048    0.0466 H   0  0  0  0  0  0  0  0  0  0  0  0
   11.7139    5.7249   -1.7197 H   0  0  0  0  0  0  0  0  0  0  0  0
   11.1264    7.6417   -3.1847 H   0  0  0  0  0  0  0  0  0  0  0  0
    9.2204    7.4221   -4.7966 H   0  0  0  0  0  0  0  0  0  0  0  0
    7.9558    5.3081   -4.9329 H   0  0  0  0  0  0  0  0  0  0  0  0
  1  2  1  0
  1 31  1  0
  1 32  1  0
  1 33  1  0
  2  3  1  0
  2 34  1  0
  2 35  1  0
  3  4  1  0
  3 36  1  0
  3 37  1  0
  4  5  1  0
  4 38  1  0
  4 39  1  0
  5  6  1  0
  5 40  1  0
  6  7  2  0
  6  8  1  0
  8  9  1  0
  8 41  1  0
  8 42  1  0
  9 10  1  0
  9 30  1  0
 10 11  2  0
 10 12  1  0
 12 13  1  0
 12 17  1  0
 12 43  1  6
 13 14  1  0
 13 44  1  0
 13 45  1  0
 14 15  1  0
 14 16  1  0
 14 46  1  1
 15 47  1  0
 15 48  1  0
 15 49  1  0
 16 50  1  0
 16 51  1  0
 16 52  1  0
 17 18  2  0
 18 19  1  0
 18 25  1  0
 19 20  2  0
 19 24  1  0
 20 21  1  0
 20 53  1  0
 21 22  2  0
 21 54  1  0
 22 23  1  0
 22 55  1  0
 23 24  2  0
 23 56  1  0
 24 57  1  0
 25 26  2  0
 25 30  1  0
 26 27  1  0
 26 58  1  0
 27 28  2  0
 27 59  1  0
 28 29  1  0
 28 60  1  0
 29 30  2  0
 29 61  1  0
M  END

