
     RDKit          3D

 58 62  0  0  0  0  0  0  0  0999 V2000
    4.5258    2.6257    1.5712 O   0  0  0  0  0  0  0  0  0  0  0  0
    4.2774    1.7609    0.7413 C   0  0  0  0  0  0  0  0  0  0  0  0
    5.2139    0.7663    0.4598 N   0  0  0  0  0  0  0  0  0  0  0  0
    6.0753    0.8501    0.9926 H   0  0  0  0  0  0  0  0  0  0  0  0
    5.0810   -0.2632   -0.4473 C   0  0  0  0  0  0  0  0  0  0  0  0
    6.1273   -1.1997   -0.6374 C   0  0  0  0  0  0  0  0  0  0  0  0
    5.9092   -2.1924   -1.5684 C   0  0  0  0  0  0  0  0  0  0  0  0
    4.7130   -2.2906   -2.3018 C   0  0  0  0  0  0  0  0  0  0  0  0
    3.6867   -1.3946   -2.1306 C   0  0  0  0  0  0  0  0  0  0  0  0
    3.8680   -0.3493   -1.1812 C   0  0  0  0  0  0  0  0  0  0  0  0
    2.8644    0.6493   -0.9300 C   0  0  0  0  0  0  0  0  0  0  0  0
    3.0256    1.6578   -0.0266 C   0  0  0  0  0  0  0  0  0  0  0  0
    2.0004    2.7410    0.2165 C   0  0  0  0  0  0  0  0  0  0  0  0
    0.6082    2.3074    0.0517 N   0  0  0  0  0  0  0  0  0  0  0  0
    0.1484    1.5314    1.2108 C   0  0  0  0  0  0  0  0  0  0  0  0
   -1.0934    0.6760    0.9382 C   0  0  0  0  0  0  0  0  0  0  0  0
   -0.8384   -0.5343    0.0403 C   0  0  0  0  0  0  0  0  0  0  0  0
   -2.0330   -1.1300   -0.4383 O   0  0  0  0  0  0  0  0  0  0  0  0
   -0.2706    3.4498   -0.2234 C   0  0  0  0  0  0  0  0  0  0  0  0
   -0.1114    3.9892   -1.6104 C   0  0  0  0  0  0  0  0  0  0  0  0
    0.4077    5.1585   -1.9399 N   0  0  0  0  0  0  0  0  0  0  0  0
    0.3451    5.2414   -3.2863 N   0  0  0  0  0  0  0  0  0  0  0  0
   -0.1814    4.1803   -3.7886 N   0  0  0  0  0  0  0  0  0  0  0  0
   -0.4795    3.3662   -2.7568 N   0  0  0  0  0  0  0  0  0  0  0  0
   -1.1085    2.0752   -2.9882 C   0  0  0  0  0  0  0  0  0  0  0  0
   -2.6333    2.1218   -2.9830 C   0  0  1  0  0  0  0  0  0  0  0  0
   -2.9533    2.9246   -3.6768 H   0  0  0  0  0  0  0  0  0  0  0  0
   -3.2980    0.7948   -3.3642 C   0  0  0  0  0  0  0  0  0  0  0  0
   -4.6633    0.9364   -2.6825 C   0  0  0  0  0  0  0  0  0  0  0  0
   -4.2837    1.6422   -1.3764 C   0  0  0  0  0  0  0  0  0  0  0  0
   -3.1138    2.4175   -1.6693 O   0  0  0  0  0  0  0  0  0  0  0  0
    4.7809   -3.3886   -3.1181 O   0  0  0  0  0  0  0  0  0  0  0  0
    6.1106   -3.8788   -3.0187 C   0  0  0  0  0  0  0  0  0  0  0  0
    6.7362   -3.2130   -1.9199 O   0  0  0  0  0  0  0  0  0  0  0  0
    7.0608   -1.1389   -0.0763 H   0  0  0  0  0  0  0  0  0  0  0  0
    2.7589   -1.4745   -2.6990 H   0  0  0  0  0  0  0  0  0  0  0  0
    1.9280    0.5965   -1.4913 H   0  0  0  0  0  0  0  0  0  0  0  0
    2.1925    3.5663   -0.4907 H   0  0  0  0  0  0  0  0  0  0  0  0
    2.1824    3.1722    1.2211 H   0  0  0  0  0  0  0  0  0  0  0  0
   -0.0476    2.2007    2.0769 H   0  0  0  0  0  0  0  0  0  0  0  0
    0.9778    0.8745    1.5188 H   0  0  0  0  0  0  0  0  0  0  0  0
   -1.8801    1.2850    0.4662 H   0  0  0  0  0  0  0  0  0  0  0  0
   -1.5019    0.3350    1.9069 H   0  0  0  0  0  0  0  0  0  0  0  0
   -0.2004   -1.2742    0.5646 H   0  0  0  0  0  0  0  0  0  0  0  0
   -0.2796   -0.2207   -0.8536 H   0  0  0  0  0  0  0  0  0  0  0  0
   -2.5313   -1.4654    0.3187 H   0  0  0  0  0  0  0  0  0  0  0  0
   -0.0964    4.2935    0.4741 H   0  0  0  0  0  0  0  0  0  0  0  0
   -1.3164    3.1348   -0.1110 H   0  0  0  0  0  0  0  0  0  0  0  0
   -0.7476    1.3823   -2.2175 H   0  0  0  0  0  0  0  0  0  0  0  0
   -0.7585    1.7318   -3.9721 H   0  0  0  0  0  0  0  0  0  0  0  0
   -2.7433   -0.0463   -2.9155 H   0  0  0  0  0  0  0  0  0  0  0  0
   -3.3567    0.6441   -4.4522 H   0  0  0  0  0  0  0  0  0  0  0  0
   -5.1677   -0.0261   -2.5121 H   0  0  0  0  0  0  0  0  0  0  0  0
   -5.3323    1.5690   -3.2887 H   0  0  0  0  0  0  0  0  0  0  0  0
   -4.0352    0.9043   -0.5937 H   0  0  0  0  0  0  0  0  0  0  0  0
   -5.0733    2.3102   -0.9949 H   0  0  0  0  0  0  0  0  0  0  0  0
    6.6684   -3.6541   -3.9488 H   0  0  0  0  0  0  0  0  0  0  0  0
    6.0972   -4.9647   -2.8317 H   0  0  0  0  0  0  0  0  0  0  0  0
  1  2  2  0
  2  3  1  0
  2 12  1  0
  3  4  1  0
  3  5  1  0
  5  6  2  0
  5 10  1  0
  6  7  1  0
  6 35  1  0
  7  8  2  0
  7 34  1  0
  8  9  1  0
  8 32  1  0
  9 10  2  0
  9 36  1  0
 10 11  1  0
 11 12  2  0
 11 37  1  0
 12 13  1  0
 13 14  1  0
 13 38  1  0
 13 39  1  0
 14 15  1  0
 14 19  1  0
 15 16  1  0
 15 40  1  0
 15 41  1  0
 16 17  1  0
 16 42  1  0
 16 43  1  0
 17 18  1  0
 17 44  1  0
 17 45  1  0
 18 46  1  0
 19 20  1  0
 19 47  1  0
 19 48  1  0
 20 21  2  0
 20 24  1  0
 21 22  1  0
 22 23  2  0
 23 24  1  0
 24 25  1  0
 25 26  1  0
 25 49  1  0
 25 50  1  0
 26 27  1  6
 26 28  1  0
 26 31  1  0
 28 29  1  0
 28 51  1  0
 28 52  1  0
 29 30  1  0
 29 53  1  0
 29 54  1  0
 30 31  1  0
 30 55  1  0
 30 56  1  0
 32 33  1  0
 33 34  1  0
 33 57  1  0
 33 58  1  0
M  END

