
     RDKit          3D

 72 76  0  0  0  0  0  0  0  0999 V2000
   -1.1410   -2.8201   -2.3800 C   0  0  0  0  0  0  0  0  0  0  0  0
    0.1226   -3.4329   -2.7421 N   0  0  0  0  0  0  0  0  0  0  0  0
    0.4493   -3.3991   -4.1636 C   0  0  0  0  0  0  0  0  0  0  0  0
    1.0094   -2.0424   -4.6263 C   0  0  0  0  0  0  0  0  0  0  0  0
    2.1357   -1.6220   -3.7783 N   0  0  0  0  0  0  0  0  0  0  0  0
    3.6886   -2.0051   -4.3129 S   0  0  1  0  0  0  0  0  0  0  0  0
    4.5689   -1.8909   -3.1458 O   0  0  0  0  0  0  0  0  0  0  0  0
    3.6600   -3.2345   -5.1186 O   0  0  0  0  0  0  0  0  0  0  0  0
    4.0765   -0.6646   -5.4400 C   0  0  0  0  0  0  0  0  0  0  0  0
    4.2686    0.6285   -4.9423 C   0  0  0  0  0  0  0  0  0  0  0  0
    4.6004    1.6703   -5.8044 C   0  0  0  0  0  0  0  0  0  0  0  0
    4.7514    1.4131   -7.1825 C   0  0  0  0  0  0  0  0  0  0  0  0
    5.0869    2.4095   -8.1121 N   0  0  0  0  0  0  0  0  0  0  0  0
    5.3026    3.7434   -7.9018 C   0  0  0  0  0  0  0  0  0  0  0  0
    5.2389    4.3259   -6.8370 O   0  0  0  0  0  0  0  0  0  0  0  0
    5.6567    4.5381   -9.1616 C   0  0  0  0  0  0  0  0  0  0  0  0
    5.6728    3.7088  -10.3076 O   0  0  0  0  0  0  0  0  0  0  0  0
    5.9702    4.2323  -11.5278 C   0  0  0  0  0  0  0  0  0  0  0  0
    5.9721    3.3258  -12.6049 C   0  0  0  0  0  0  0  0  0  0  0  0
    6.2660    3.7673  -13.8878 C   0  0  0  0  0  0  0  0  0  0  0  0
    6.5457    5.1239  -14.1047 C   0  0  0  0  0  0  0  0  0  0  0  0
    6.9937    5.6971  -15.7455 S   0  0  1  0  0  0  0  0  0  0  0  0
    7.2572    7.1328  -15.6484 O   0  0  0  0  0  0  0  0  0  0  0  0
    8.0077    4.7688  -16.2561 O   0  0  0  0  0  0  0  0  0  0  0  0
    5.5926    5.4375  -16.6992 N   0  0  0  0  0  0  0  0  0  0  0  0
    5.7150    4.5004  -17.8272 C   0  0  0  0  0  0  0  0  0  0  0  0
    5.9348    5.2576  -19.1346 C   0  0  0  0  0  0  0  0  0  0  0  0
    4.7460    6.1827  -19.4018 C   0  0  0  0  0  0  0  0  0  0  0  0
    4.2391    6.8851  -18.1557 C   0  0  0  0  0  0  0  0  0  0  0  0
    3.2947    7.9169  -18.2752 C   0  0  0  0  0  0  0  0  0  0  0  0
    2.7796    8.5757  -17.1609 C   0  0  0  0  0  0  0  0  0  0  0  0
    3.2002    8.1907  -15.8837 C   0  0  0  0  0  0  0  0  0  0  0  0
    4.1217    7.1578  -15.7366 C   0  0  0  0  0  0  0  0  0  0  0  0
    4.6581    6.5064  -16.8613 C   0  0  0  0  0  0  0  0  0  0  0  0
    6.5573    6.0257  -13.0427 C   0  0  0  0  0  0  0  0  0  0  0  0
    6.2667    5.5846  -11.7473 C   0  0  0  0  0  0  0  0  0  0  0  0
    4.5674    0.1054   -7.6674 C   0  0  0  0  0  0  0  0  0  0  0  0
    4.2340   -0.9334   -6.8013 C   0  0  0  0  0  0  0  0  0  0  0  0
    1.8526   -1.6666   -2.3348 C   0  0  0  0  0  0  0  0  0  0  0  0
    1.2661   -3.0291   -1.9303 C   0  0  0  0  0  0  0  0  0  0  0  0
   -1.9549   -3.2797   -2.9645 H   0  0  0  0  0  0  0  0  0  0  0  0
   -1.2080   -1.7194   -2.5347 H   0  0  0  0  0  0  0  0  0  0  0  0
   -1.3522   -3.0107   -1.3150 H   0  0  0  0  0  0  0  0  0  0  0  0
   -0.4473   -3.6596   -4.7503 H   0  0  0  0  0  0  0  0  0  0  0  0
    1.2173   -4.1645   -4.3686 H   0  0  0  0  0  0  0  0  0  0  0  0
    0.2386   -1.2534   -4.5683 H   0  0  0  0  0  0  0  0  0  0  0  0
    1.3395   -2.0962   -5.6735 H   0  0  0  0  0  0  0  0  0  0  0  0
    4.1642    0.8223   -3.8730 H   0  0  0  0  0  0  0  0  0  0  0  0
    4.7506    2.6805   -5.4306 H   0  0  0  0  0  0  0  0  0  0  0  0
    5.1860    2.1134   -9.0787 H   0  0  0  0  0  0  0  0  0  0  0  0
    6.6419    5.0061   -8.9880 H   0  0  0  0  0  0  0  0  0  0  0  0
    4.9115    5.3473   -9.2584 H   0  0  0  0  0  0  0  0  0  0  0  0
    5.7476    2.2755  -12.4098 H   0  0  0  0  0  0  0  0  0  0  0  0
    6.2831    3.0599  -14.7189 H   0  0  0  0  0  0  0  0  0  0  0  0
    4.7834    3.9085  -17.8710 H   0  0  0  0  0  0  0  0  0  0  0  0
    6.5450    3.8167  -17.6200 H   0  0  0  0  0  0  0  0  0  0  0  0
    6.0702    4.5501  -19.9685 H   0  0  0  0  0  0  0  0  0  0  0  0
    6.8709    5.8336  -19.0445 H   0  0  0  0  0  0  0  0  0  0  0  0
    3.9136    5.5921  -19.8279 H   0  0  0  0  0  0  0  0  0  0  0  0
    5.0014    6.9324  -20.1686 H   0  0  0  0  0  0  0  0  0  0  0  0
    2.9674    8.2104  -19.2774 H   0  0  0  0  0  0  0  0  0  0  0  0
    2.0525    9.3817  -17.2857 H   0  0  0  0  0  0  0  0  0  0  0  0
    2.8011    8.6887  -14.9965 H   0  0  0  0  0  0  0  0  0  0  0  0
    4.4278    6.8454  -14.7385 H   0  0  0  0  0  0  0  0  0  0  0  0
    6.7977    7.0732  -13.2325 H   0  0  0  0  0  0  0  0  0  0  0  0
    6.2805    6.3017  -10.9268 H   0  0  0  0  0  0  0  0  0  0  0  0
    4.6927   -0.0998   -8.7344 H   0  0  0  0  0  0  0  0  0  0  0  0
    4.1037   -1.9530   -7.1670 H   0  0  0  0  0  0  0  0  0  0  0  0
    1.1406   -0.8508   -2.1159 H   0  0  0  0  0  0  0  0  0  0  0  0
    2.7804   -1.4587   -1.7867 H   0  0  0  0  0  0  0  0  0  0  0  0
    0.9717   -3.0138   -0.8677 H   0  0  0  0  0  0  0  0  0  0  0  0
    2.0600   -3.7901   -2.0392 H   0  0  0  0  0  0  0  0  0  0  0  0
  1  2  1  0
  1 41  1  0
  1 42  1  0
  1 43  1  0
  2  3  1  0
  2 40  1  0
  3  4  1  0
  3 44  1  0
  3 45  1  0
  4  5  1  0
  4 46  1  0
  4 47  1  0
  5  6  1  0
  5 39  1  0
  6  7  2  0
  6  8  2  0
  6  9  1  6
  9 10  2  0
  9 38  1  0
 10 11  1  0
 10 48  1  0
 11 12  2  0
 11 49  1  0
 12 13  1  0
 12 37  1  0
 13 14  1  0
 13 50  1  0
 14 15  2  0
 14 16  1  0
 16 17  1  0
 16 51  1  0
 16 52  1  0
 17 18  1  0
 18 19  2  0
 18 36  1  0
 19 20  1  0
 19 53  1  0
 20 21  2  0
 20 54  1  0
 22 21  1  1
 21 35  1  0
 22 23  2  0
 22 24  2  0
 22 25  1  0
 25 26  1  0
 25 34  1  0
 26 27  1  0
 26 55  1  0
 26 56  1  0
 27 28  1  0
 27 57  1  0
 27 58  1  0
 28 29  1  0
 28 59  1  0
 28 60  1  0
 29 30  2  0
 29 34  1  0
 30 31  1  0
 30 61  1  0
 31 32  2  0
 31 62  1  0
 32 33  1  0
 32 63  1  0
 33 34  2  0
 33 64  1  0
 35 36  2  0
 35 65  1  0
 36 66  1  0
 37 38  2  0
 37 67  1  0
 38 68  1  0
 39 40  1  0
 39 69  1  0
 39 70  1  0
 40 71  1  0
 40 72  1  0
M  END

