
     RDKit          3D

 37 38  0  0  0  0  0  0  0  0999 V2000
    5.8421   -0.0662    4.7536 C   0  0  0  0  0  0  0  0  0  0  0  0
    6.4008   -0.4479    3.4153 C   0  0  0  0  0  0  0  0  0  0  0  0
    7.7269   -0.4468    3.0614 C   0  0  0  0  0  0  0  0  0  0  0  0
    7.9107   -0.9392    1.4111 S   0  0  0  0  0  0  0  0  0  0  0  0
    6.1592   -1.1298    1.3039 C   0  0  0  0  0  0  0  0  0  0  0  0
    5.5005   -1.6165    0.0485 C   0  0  0  0  0  0  0  0  0  0  0  0
    5.6135   -3.1481   -0.2187 C   0  0  2  0  0  0  0  0  0  0  0  0
    6.9872   -3.4696   -0.4409 O   0  0  0  0  0  0  0  0  0  0  0  0
    4.8997   -3.4692   -1.5442 C   0  0  0  0  0  0  0  0  0  0  0  0
    4.9645   -4.9584   -1.8987 C   0  0  0  0  0  0  0  0  0  0  0  0
    4.4530   -5.8395   -0.7539 C   0  0  0  0  0  0  0  0  0  0  0  0
    5.1768   -5.5292    0.5671 C   0  0  2  0  0  0  0  0  0  0  0  0
    4.7512   -6.4763    1.6935 C   0  0  0  0  0  0  0  0  0  0  0  0
    5.0519   -4.0246    0.9441 C   0  0  2  0  0  0  0  0  0  0  0  0
    3.6447   -3.6098    1.4037 C   0  0  0  0  0  0  0  0  0  0  0  0
    5.5408   -0.8376    2.4108 N   0  0  0  0  0  0  0  0  0  0  0  0
    6.6382    0.2129    5.4583 H   0  0  0  0  0  0  0  0  0  0  0  0
    5.2673   -0.9013    5.1860 H   0  0  0  0  0  0  0  0  0  0  0  0
    5.1478    0.7842    4.6546 H   0  0  0  0  0  0  0  0  0  0  0  0
    8.5856   -0.1749    3.6727 H   0  0  0  0  0  0  0  0  0  0  0  0
    5.9525   -1.1169   -0.8226 H   0  0  0  0  0  0  0  0  0  0  0  0
    4.4457   -1.3133    0.0964 H   0  0  0  0  0  0  0  0  0  0  0  0
    7.4621   -3.3871    0.3985 H   0  0  0  0  0  0  0  0  0  0  0  0
    5.3652   -2.8671   -2.3418 H   0  0  0  0  0  0  0  0  0  0  0  0
    3.8493   -3.1418   -1.4702 H   0  0  0  0  0  0  0  0  0  0  0  0
    6.0116   -5.2212   -2.1195 H   0  0  0  0  0  0  0  0  0  0  0  0
    4.3868   -5.1470   -2.8192 H   0  0  0  0  0  0  0  0  0  0  0  0
    4.5908   -6.9048   -1.0076 H   0  0  0  0  0  0  0  0  0  0  0  0
    3.3641   -5.6966   -0.6246 H   0  0  0  0  0  0  0  0  0  0  0  0
    6.2514   -5.7006    0.3851 H   0  0  0  0  0  0  0  0  0  0  0  0
    3.6628   -6.4569    1.8659 H   0  0  0  0  0  0  0  0  0  0  0  0
    5.2449   -6.2213    2.6463 H   0  0  0  0  0  0  0  0  0  0  0  0
    5.0217   -7.5160    1.4471 H   0  0  0  0  0  0  0  0  0  0  0  0
    5.7241   -3.8571    1.8080 H   0  0  0  0  0  0  0  0  0  0  0  0
    2.9038   -3.6443    0.5893 H   0  0  0  0  0  0  0  0  0  0  0  0
    3.6505   -2.5934    1.8217 H   0  0  0  0  0  0  0  0  0  0  0  0
    3.2840   -4.2783    2.1994 H   0  0  0  0  0  0  0  0  0  0  0  0
  1  2  1  0
  1 17  1  0
  1 18  1  0
  1 19  1  0
  2  3  2  0
  2 16  1  0
  3  4  1  0
  3 20  1  0
  4  5  1  0
  5  6  1  0
  5 16  2  0
  6  7  1  0
  6 21  1  0
  6 22  1  0
  7  8  1  6
  7  9  1  0
  7 14  1  0
  8 23  1  0
  9 10  1  0
  9 24  1  0
  9 25  1  0
 10 11  1  0
 10 26  1  0
 10 27  1  0
 11 12  1  0
 11 28  1  0
 11 29  1  0
 12 13  1  0
 12 14  1  0
 12 30  1  6
 13 31  1  0
 13 32  1  0
 13 33  1  0
 14 15  1  0
 14 34  1  1
 15 35  1  0
 15 36  1  0
 15 37  1  0
M  END

