
     RDKit          3D

 41 43  0  0  0  0  0  0  0  0999 V2000
   10.7992    6.1679    0.2301 O   0  0  0  0  0  0  0  0  0  0  0  0
    9.8879    6.1872   -0.5504 C   0  0  0  0  0  0  0  0  0  0  0  0
    9.1514    5.0898   -0.8054 O   0  0  0  0  0  0  0  0  0  0  0  0
    9.4974    7.4454   -1.3431 C   0  0  2  0  0  0  0  0  0  0  0  0
    9.9742    8.2892   -0.8301 H   0  0  0  0  0  0  0  0  0  0  0  0
    7.9756    7.6039   -1.4834 C   0  0  0  0  0  0  0  0  0  0  0  0
    7.6745    6.6987   -2.5976 N   0  0  0  0  0  0  0  0  0  0  0  0
    6.3876    6.4371   -3.0961 C   0  0  0  0  0  0  0  0  0  0  0  0
    6.2296    5.9589   -4.2033 O   0  0  0  0  0  0  0  0  0  0  0  0
    5.3500    6.7166   -2.2374 N   0  0  0  0  0  0  0  0  0  0  0  0
    3.9920    6.5453   -2.6616 C   0  0  2  0  0  0  0  0  0  0  0  0
    3.6768    7.1791   -3.4964 H   0  0  0  0  0  0  0  0  0  0  0  0
    2.9585    6.2205   -1.6245 C   0  0  0  0  0  0  0  0  0  0  0  0
    3.3871    5.1538   -2.6147 C   0  0  1  0  0  0  0  0  0  0  0  0
    4.0607    4.4013   -2.2022 H   0  0  0  0  0  0  0  0  0  0  0  0
    2.5161    4.6077   -3.6909 C   0  0  0  0  0  0  0  0  0  0  0  0
    2.6379    3.2612   -4.0731 C   0  0  0  0  0  0  0  0  0  0  0  0
    3.5445    2.5009   -3.4368 F   0  0  0  0  0  0  0  0  0  0  0  0
    1.8666    2.6710   -5.0704 C   0  0  0  0  0  0  0  0  0  0  0  0
    0.9174    3.4472   -5.7375 C   0  0  0  0  0  0  0  0  0  0  0  0
    0.7517    4.7925   -5.4000 C   0  0  0  0  0  0  0  0  0  0  0  0
    1.5461    5.3359   -4.3960 C   0  0  0  0  0  0  0  0  0  0  0  0
    1.3700    6.6387   -4.0864 F   0  0  0  0  0  0  0  0  0  0  0  0
    8.7783    6.6908   -3.5762 C   0  0  0  0  0  0  0  0  0  0  0  0
    9.9700    7.3247   -2.8209 C   0  0  1  0  0  0  0  0  0  0  0  0
   10.8756    6.7052   -2.8975 H   0  0  0  0  0  0  0  0  0  0  0  0
   10.3655    8.6745   -3.4032 C   0  0  1  0  0  0  0  0  0  0  0  0
    9.3417    9.5552   -3.3833 F   0  0  0  0  0  0  0  0  0  0  0  0
   11.3775    9.2258   -2.7176 F   0  0  0  0  0  0  0  0  0  0  0  0
   10.7577    8.5498   -4.6804 F   0  0  0  0  0  0  0  0  0  0  0  0
    8.4519    5.2992   -1.4602 H   0  0  0  0  0  0  0  0  0  0  0  0
    7.7103    8.6529   -1.7059 H   0  0  0  0  0  0  0  0  0  0  0  0
    7.4473    7.2968   -0.5667 H   0  0  0  0  0  0  0  0  0  0  0  0
    5.5114    7.2772   -1.4100 H   0  0  0  0  0  0  0  0  0  0  0  0
    1.9754    6.6788   -1.7385 H   0  0  0  0  0  0  0  0  0  0  0  0
    3.2892    6.0842   -0.5907 H   0  0  0  0  0  0  0  0  0  0  0  0
    2.0252    1.6178   -5.3068 H   0  0  0  0  0  0  0  0  0  0  0  0
    0.3043    3.0030   -6.5244 H   0  0  0  0  0  0  0  0  0  0  0  0
    0.0216    5.4313   -5.8994 H   0  0  0  0  0  0  0  0  0  0  0  0
    8.5088    7.2535   -4.4835 H   0  0  0  0  0  0  0  0  0  0  0  0
    8.9924    5.6621   -3.8984 H   0  0  0  0  0  0  0  0  0  0  0  0
  1  2  2  0
  2  3  1  0
  2  4  1  0
  3 31  1  0
  4  5  1  1
  4  6  1  0
  4 25  1  0
  6  7  1  0
  6 32  1  0
  6 33  1  0
  7  8  1  0
  7 24  1  0
  8  9  2  0
  8 10  1  0
 10 11  1  0
 10 34  1  0
 11 12  1  6
 11 13  1  0
 11 14  1  0
 13 14  1  0
 13 35  1  0
 13 36  1  0
 14 15  1  1
 14 16  1  0
 16 17  2  0
 16 22  1  0
 17 18  1  0
 17 19  1  0
 19 20  2  0
 19 37  1  0
 20 21  1  0
 20 38  1  0
 21 22  2  0
 21 39  1  0
 22 23  1  0
 24 25  1  0
 24 40  1  0
 24 41  1  0
 25 26  1  1
 25 27  1  0
 27 28  1  6
 27 29  1  0
 27 30  1  0
M  END

