
     RDKit          3D

118119  0  0  0  0  0  0  0  0999 V2000
   16.1466   -3.8849   -9.6603 C   0  0  0  0  0  0  0  0  0  0  0  0
   15.8182   -3.2240   -8.3207 C   0  0  0  0  0  0  0  0  0  0  0  0
   15.7937   -4.2030   -7.1426 C   0  0  0  0  0  0  0  0  0  0  0  0
   15.4660   -3.5492   -5.7971 C   0  0  0  0  0  0  0  0  0  0  0  0
   15.4409   -4.5282   -4.6196 C   0  0  0  0  0  0  0  0  0  0  0  0
   15.1143   -3.8736   -3.2740 C   0  0  0  0  0  0  0  0  0  0  0  0
   15.0870   -4.8531   -2.0969 C   0  0  0  0  0  0  0  0  0  0  0  0
   14.7668   -4.1959   -0.7496 C   0  0  0  0  0  0  0  0  0  0  0  0
   14.7180   -5.2010    0.4101 C   0  0  0  0  0  0  0  0  0  0  0  0
   14.6266   -4.5988    1.8368 C   0  0  1  0  0  0  0  0  0  0  0  0
   13.4182   -3.6486    1.9006 C   0  0  0  0  0  0  0  0  0  0  0  0
   14.6460   -5.7215    2.9399 C   0  0  1  0  0  0  0  0  0  0  0  0
   15.7886   -6.7433    2.6673 C   0  0  0  0  0  0  0  0  0  0  0  0
   17.2301   -6.2217    2.6321 C   0  0  0  0  0  0  0  0  0  0  0  0
   14.5614   -5.2185    4.4573 C   0  0  1  0  0  0  0  0  0  0  0  0
   15.3842   -3.9317    4.6883 C   0  0  0  0  0  0  0  0  0  0  0  0
   13.0813   -4.9648    4.8334 C   0  0  0  0  0  0  0  0  0  0  0  0
   15.0897   -6.3291    5.4207 C   0  0  0  0  0  0  0  0  0  0  0  0
   14.8960   -6.1167    6.9309 C   0  0  0  0  0  0  0  0  0  0  0  0
   15.5171   -7.2307    7.7926 C   0  0  0  0  0  0  0  0  0  0  0  0
   17.0424   -7.2628    7.8240 C   0  0  1  0  0  0  0  0  0  0  0  0
   17.8175   -6.1081    8.5171 C   0  0  0  0  0  0  0  0  0  0  0  0
   18.8086   -7.1566    9.0801 C   0  0  0  0  0  0  0  0  0  0  0  0
   17.7579   -8.2619    8.7805 C   0  0  2  0  0  0  0  0  0  0  0  0
   18.2166   -9.6126    8.2418 C   0  0  0  0  0  0  0  0  0  0  0  0
   19.0110  -10.4423    9.2568 C   0  0  0  0  0  0  0  0  0  0  0  0
   19.5683  -11.7497    8.7226 C   0  0  1  0  0  0  0  0  0  0  0  0
   20.1180  -12.7677    9.6863 C   0  0  0  0  0  0  0  0  0  0  0  0
   18.8631  -13.0800    8.9042 C   0  0  2  0  0  0  0  0  0  0  0  0
   18.8939  -14.1964    7.8612 C   0  0  1  0  0  0  0  0  0  0  0  0
   19.1431  -15.5555    8.5381 C   0  0  0  0  0  0  0  0  0  0  0  0
   17.6119  -14.2958    7.0052 C   0  0  0  0  0  0  0  0  0  0  0  0
   17.1933  -13.0727    6.1684 C   0  0  1  0  0  0  0  0  0  0  0  0
   18.2625  -12.6676    5.1399 C   0  0  0  0  0  0  0  0  0  0  0  0
   15.7702  -13.2414    5.5357 C   0  0  1  0  0  0  0  0  0  0  0  0
   15.4773  -14.6003    4.8572 C   0  0  0  0  0  0  0  0  0  0  0  0
   16.3589  -15.0121    3.6749 C   0  0  0  0  0  0  0  0  0  0  0  0
   14.6523  -12.9388    6.5620 C   0  0  0  0  0  0  0  0  0  0  0  0
   14.4398  -11.4570    6.8907 C   0  0  0  0  0  0  0  0  0  0  0  0
   13.3312  -11.2200    7.9178 C   0  0  0  0  0  0  0  0  0  0  0  0
   16.1554   -3.1523  -10.4832 H   0  0  0  0  0  0  0  0  0  0  0  0
   15.4073   -4.6628   -9.9157 H   0  0  0  0  0  0  0  0  0  0  0  0
   17.1372   -4.3696   -9.6362 H   0  0  0  0  0  0  0  0  0  0  0  0
   14.8388   -2.7161   -8.3902 H   0  0  0  0  0  0  0  0  0  0  0  0
   16.5539   -2.4255   -8.1131 H   0  0  0  0  0  0  0  0  0  0  0  0
   16.7734   -4.7120   -7.0722 H   0  0  0  0  0  0  0  0  0  0  0  0
   15.0574   -5.0023   -7.3491 H   0  0  0  0  0  0  0  0  0  0  0  0
   14.4867   -3.0398   -5.8683 H   0  0  0  0  0  0  0  0  0  0  0  0
   16.2027   -2.7502   -5.5911 H   0  0  0  0  0  0  0  0  0  0  0  0
   16.4198   -5.0384   -4.5487 H   0  0  0  0  0  0  0  0  0  0  0  0
   14.7035   -5.3267   -4.8250 H   0  0  0  0  0  0  0  0  0  0  0  0
   14.1364   -3.3619   -3.3457 H   0  0  0  0  0  0  0  0  0  0  0  0
   15.8527   -3.0764   -3.0677 H   0  0  0  0  0  0  0  0  0  0  0  0
   16.0625   -5.3701   -2.0305 H   0  0  0  0  0  0  0  0  0  0  0  0
   14.3436   -5.6465   -2.3005 H   0  0  0  0  0  0  0  0  0  0  0  0
   13.8090   -3.6568   -0.8426 H   0  0  0  0  0  0  0  0  0  0  0  0
   15.5289   -3.4232   -0.5332 H   0  0  0  0  0  0  0  0  0  0  0  0
   15.6222   -5.8210    0.3291 H   0  0  0  0  0  0  0  0  0  0  0  0
   13.8664   -5.8914    0.2556 H   0  0  0  0  0  0  0  0  0  0  0  0
   15.5313   -3.9791    1.9740 H   0  0  0  0  0  0  0  0  0  0  0  0
   12.4682   -4.1997    1.7927 H   0  0  0  0  0  0  0  0  0  0  0  0
   13.4631   -2.9105    1.0870 H   0  0  0  0  0  0  0  0  0  0  0  0
   13.3703   -3.0740    2.8329 H   0  0  0  0  0  0  0  0  0  0  0  0
   13.7177   -6.3055    2.7898 H   0  0  0  0  0  0  0  0  0  0  0  0
   15.5773   -7.2379    1.7075 H   0  0  0  0  0  0  0  0  0  0  0  0
   15.7265   -7.5581    3.4009 H   0  0  0  0  0  0  0  0  0  0  0  0
   17.3731   -5.4291    1.8804 H   0  0  0  0  0  0  0  0  0  0  0  0
   17.9260   -7.0381    2.3778 H   0  0  0  0  0  0  0  0  0  0  0  0
   17.5544   -5.8120    3.6010 H   0  0  0  0  0  0  0  0  0  0  0  0
   15.0082   -3.0821    4.1017 H   0  0  0  0  0  0  0  0  0  0  0  0
   16.4436   -4.0717    4.4252 H   0  0  0  0  0  0  0  0  0  0  0  0
   15.3453   -3.6266    5.7453 H   0  0  0  0  0  0  0  0  0  0  0  0
   12.5716   -4.2889    4.1396 H   0  0  0  0  0  0  0  0  0  0  0  0
   12.9967   -4.5192    5.8363 H   0  0  0  0  0  0  0  0  0  0  0  0
   12.5160   -5.9120    4.8426 H   0  0  0  0  0  0  0  0  0  0  0  0
   16.1629   -6.4808    5.2324 H   0  0  0  0  0  0  0  0  0  0  0  0
   14.5969   -7.2822    5.1574 H   0  0  0  0  0  0  0  0  0  0  0  0
   13.8212   -6.0644    7.1668 H   0  0  0  0  0  0  0  0  0  0  0  0
   15.3222   -5.1482    7.2455 H   0  0  0  0  0  0  0  0  0  0  0  0
   15.1411   -8.2119    7.4469 H   0  0  0  0  0  0  0  0  0  0  0  0
   15.1545   -7.1168    8.8305 H   0  0  0  0  0  0  0  0  0  0  0  0
   17.4419   -7.4096    6.8050 H   0  0  0  0  0  0  0  0  0  0  0  0
   17.2151   -5.6448    9.3163 H   0  0  0  0  0  0  0  0  0  0  0  0
   18.2256   -5.3058    7.8830 H   0  0  0  0  0  0  0  0  0  0  0  0
   19.1471   -7.0343   10.1206 H   0  0  0  0  0  0  0  0  0  0  0  0
   19.6981   -7.2654    8.4372 H   0  0  0  0  0  0  0  0  0  0  0  0
   17.1259   -8.4187    9.6745 H   0  0  0  0  0  0  0  0  0  0  0  0
   18.8373   -9.4477    7.3413 H   0  0  0  0  0  0  0  0  0  0  0  0
   17.3366  -10.1868    7.9028 H   0  0  0  0  0  0  0  0  0  0  0  0
   18.3802  -10.6493   10.1407 H   0  0  0  0  0  0  0  0  0  0  0  0
   19.8546   -9.8323    9.6300 H   0  0  0  0  0  0  0  0  0  0  0  0
   20.1317  -11.6425    7.7871 H   0  0  0  0  0  0  0  0  0  0  0  0
   20.0276  -12.5586   10.7569 H   0  0  0  0  0  0  0  0  0  0  0  0
   21.0360  -13.2975    9.4135 H   0  0  0  0  0  0  0  0  0  0  0  0
   17.9317  -13.0420    9.4856 H   0  0  0  0  0  0  0  0  0  0  0  0
   19.7508  -14.0004    7.1908 H   0  0  0  0  0  0  0  0  0  0  0  0
   18.3230  -15.8037    9.2335 H   0  0  0  0  0  0  0  0  0  0  0  0
   20.0794  -15.5558    9.1167 H   0  0  0  0  0  0  0  0  0  0  0  0
   19.2038  -16.3675    7.7952 H   0  0  0  0  0  0  0  0  0  0  0  0
   16.7823  -14.5640    7.6844 H   0  0  0  0  0  0  0  0  0  0  0  0
   17.7351  -15.1637    6.3348 H   0  0  0  0  0  0  0  0  0  0  0  0
   17.1104  -12.2205    6.8628 H   0  0  0  0  0  0  0  0  0  0  0  0
   18.5195  -13.4866    4.4516 H   0  0  0  0  0  0  0  0  0  0  0  0
   19.1936  -12.3526    5.6353 H   0  0  0  0  0  0  0  0  0  0  0  0
   17.9176  -11.8179    4.5284 H   0  0  0  0  0  0  0  0  0  0  0  0
   15.6893  -12.4710    4.7449 H   0  0  0  0  0  0  0  0  0  0  0  0
   14.4339  -14.5563    4.4989 H   0  0  0  0  0  0  0  0  0  0  0  0
   15.4846  -15.4015    5.6174 H   0  0  0  0  0  0  0  0  0  0  0  0
   16.4183  -14.2133    2.9169 H   0  0  0  0  0  0  0  0  0  0  0  0
   15.9448  -15.9057    3.1800 H   0  0  0  0  0  0  0  0  0  0  0  0
   17.3878  -15.2591    3.9764 H   0  0  0  0  0  0  0  0  0  0  0  0
   14.8460  -13.4965    7.4970 H   0  0  0  0  0  0  0  0  0  0  0  0
   13.6979  -13.3406    6.1773 H   0  0  0  0  0  0  0  0  0  0  0  0
   14.2007  -10.9131    5.9586 H   0  0  0  0  0  0  0  0  0  0  0  0
   15.3784  -11.0116    7.2622 H   0  0  0  0  0  0  0  0  0  0  0  0
   12.3643  -11.6155    7.5636 H   0  0  0  0  0  0  0  0  0  0  0  0
   13.1951  -10.1468    8.1271 H   0  0  0  0  0  0  0  0  0  0  0  0
   13.5581  -11.7190    8.8751 H   0  0  0  0  0  0  0  0  0  0  0  0
  1  2  1  0
  1 41  1  0
  1 42  1  0
  1 43  1  0
  2  3  1  0
  2 44  1  0
  2 45  1  0
  3  4  1  0
  3 46  1  0
  3 47  1  0
  4  5  1  0
  4 48  1  0
  4 49  1  0
  5  6  1  0
  5 50  1  0
  5 51  1  0
  6  7  1  0
  6 52  1  0
  6 53  1  0
  7  8  1  0
  7 54  1  0
  7 55  1  0
  8  9  1  0
  8 56  1  0
  8 57  1  0
  9 10  1  0
  9 58  1  0
  9 59  1  0
 10 11  1  0
 10 12  1  0
 10 60  1  1
 11 61  1  0
 11 62  1  0
 11 63  1  0
 12 13  1  0
 12 15  1  0
 12 64  1  6
 13 14  1  0
 13 65  1  0
 13 66  1  0
 14 67  1  0
 14 68  1  0
 14 69  1  0
 15 16  1  6
 15 17  1  0
 15 18  1  0
 16 70  1  0
 16 71  1  0
 16 72  1  0
 17 73  1  0
 17 74  1  0
 17 75  1  0
 18 19  1  0
 18 76  1  0
 18 77  1  0
 19 20  1  0
 19 78  1  0
 19 79  1  0
 20 21  1  0
 20 80  1  0
 20 81  1  0
 21 22  1  0
 21 24  1  0
 21 82  1  6
 22 23  1  0
 22 83  1  0
 22 84  1  0
 23 24  1  0
 23 85  1  0
 23 86  1  0
 24 25  1  0
 24 87  1  1
 25 26  1  0
 25 88  1  0
 25 89  1  0
 26 27  1  0
 26 90  1  0
 26 91  1  0
 27 28  1  0
 27 29  1  0
 27 92  1  6
 28 29  1  0
 28 93  1  0
 28 94  1  0
 29 30  1  0
 29 95  1  1
 30 31  1  0
 30 32  1  0
 30 96  1  6
 31 97  1  0
 31 98  1  0
 31 99  1  0
 32 33  1  0
 32100  1  0
 32101  1  0
 33 34  1  0
 33 35  1  0
 33102  1  1
 34103  1  0
 34104  1  0
 34105  1  0
 35 36  1  0
 35 38  1  0
 35106  1  6
 36 37  1  0
 36107  1  0
 36108  1  0
 37109  1  0
 37110  1  0
 37111  1  0
 38 39  1  0
 38112  1  0
 38113  1  0
 39 40  1  0
 39114  1  0
 39115  1  0
 40116  1  0
 40117  1  0
 40118  1  0
M  END

