
     RDKit          3D

 31 32  0  0  0  0  0  0  0  0999 V2000
    3.2937    1.1143   -0.2304 N   0  0  0  0  0  0  0  0  0  0  0  0
    2.6174    0.1990    0.7011 C   0  0  0  0  0  0  0  0  0  0  0  0
    3.2741   -1.1871    0.6966 C   0  0  0  0  0  0  0  0  0  0  0  0
    4.7000   -1.1997    1.1637 C   0  0  0  0  0  0  0  0  0  0  0  0
    5.2770   -2.1345    1.8897 N   0  0  0  0  0  0  0  0  0  0  0  0
    6.5804   -1.7264    2.0422 C   0  0  0  0  0  0  0  0  0  0  0  0
    6.8061   -0.5208    1.4012 C   0  0  0  0  0  0  0  0  0  0  0  0
    7.9985    0.3971    1.3006 C   0  0  1  0  0  0  0  0  0  0  0  0
    9.2752   -0.2115    1.9186 C   0  0  0  0  0  0  0  0  0  0  0  0
    9.9176   -1.2599    1.0055 C   0  0  0  0  0  0  0  0  0  0  0  0
   10.1733   -0.7428   -0.2875 O   0  0  0  0  0  0  0  0  0  0  0  0
    8.9955   -0.3033   -0.9344 C   0  0  0  0  0  0  0  0  0  0  0  0
    8.3167    0.8235   -0.1553 C   0  0  0  0  0  0  0  0  0  0  0  0
    5.5835   -0.2068    0.8394 N   0  0  0  0  0  0  0  0  0  0  0  0
    5.2787    0.6246    0.3290 H   0  0  0  0  0  0  0  0  0  0  0  0
    2.9187    2.0588   -0.1404 H   0  0  0  0  0  0  0  0  0  0  0  0
    3.1149    0.8287   -1.1953 H   0  0  0  0  0  0  0  0  0  0  0  0
    1.5363    0.0817    0.4854 H   0  0  0  0  0  0  0  0  0  0  0  0
    2.6916    0.6323    1.7126 H   0  0  0  0  0  0  0  0  0  0  0  0
    3.2042   -1.6096   -0.3257 H   0  0  0  0  0  0  0  0  0  0  0  0
    2.7099   -1.8733    1.3453 H   0  0  0  0  0  0  0  0  0  0  0  0
    7.2937   -2.3207    2.6115 H   0  0  0  0  0  0  0  0  0  0  0  0
    7.7542    1.3149    1.8683 H   0  0  0  0  0  0  0  0  0  0  0  0
    9.0626   -0.6479    2.9080 H   0  0  0  0  0  0  0  0  0  0  0  0
   10.0050    0.6003    2.0765 H   0  0  0  0  0  0  0  0  0  0  0  0
    9.2714   -2.1573    0.9327 H   0  0  0  0  0  0  0  0  0  0  0  0
   10.8898   -1.5808    1.4111 H   0  0  0  0  0  0  0  0  0  0  0  0
    8.2912   -1.1510   -1.0684 H   0  0  0  0  0  0  0  0  0  0  0  0
    9.2970    0.0414   -1.9360 H   0  0  0  0  0  0  0  0  0  0  0  0
    7.4054    1.1498   -0.6842 H   0  0  0  0  0  0  0  0  0  0  0  0
    8.9985    1.6906   -0.1287 H   0  0  0  0  0  0  0  0  0  0  0  0
  1  2  1  0
  1 16  1  0
  1 17  1  0
  2  3  1  0
  2 18  1  0
  2 19  1  0
  3  4  1  0
  3 20  1  0
  3 21  1  0
  4  5  2  0
  4 14  1  0
  5  6  1  0
  6  7  2  0
  6 22  1  0
  7  8  1  0
  7 14  1  0
  8  9  1  0
  8 13  1  0
  8 23  1  1
  9 10  1  0
  9 24  1  0
  9 25  1  0
 10 11  1  0
 10 26  1  0
 10 27  1  0
 11 12  1  0
 12 13  1  0
 12 28  1  0
 12 29  1  0
 13 30  1  0
 13 31  1  0
 14 15  1  0
M  END

