
     RDKit          3D

 47 50  0  0  0  0  0  0  0  0999 V2000
    1.6944   -0.7582   -0.3021 O   0  0  0  0  0  0  0  0  0  0  0  0
    2.2079    0.2180    0.2255 C   0  0  0  0  0  0  0  0  0  0  0  0
    2.0053    1.5719   -0.4231 C   0  0  0  0  0  0  0  0  0  0  0  0
    0.7154    1.9243   -0.8486 C   0  0  0  0  0  0  0  0  0  0  0  0
    0.5445    3.1220   -1.5415 C   0  0  0  0  0  0  0  0  0  0  0  0
    1.5522    3.9460   -1.8424 N   0  0  0  0  0  0  0  0  0  0  0  0
    2.7719    3.5916   -1.4577 C   0  0  0  0  0  0  0  0  0  0  0  0
    3.8123    4.4853   -1.8142 N   0  0  0  0  0  0  0  0  0  0  0  0
    3.7259    5.6445   -2.5294 C   0  0  0  0  0  0  0  0  0  0  0  0
    4.9178    6.1875   -2.6466 N   0  0  0  0  0  0  0  0  0  0  0  0
    5.7213    5.3126   -1.9762 C   0  0  0  0  0  0  0  0  0  0  0  0
    5.0999    4.2710   -1.4559 N   0  0  0  0  0  0  0  0  0  0  0  0
    3.0671    2.4222   -0.7434 C   0  0  0  0  0  0  0  0  0  0  0  0
    2.9901    0.1359    1.3486 N   0  0  0  0  0  0  0  0  0  0  0  0
    3.2917   -1.1888    1.8964 C   0  0  0  0  0  0  0  0  0  0  0  0
    4.7721   -1.2915    2.2776 C   0  0  0  0  0  0  0  0  0  0  0  0
    5.2319   -0.1659    3.2266 C   0  0  2  0  0  0  0  0  0  0  0  0
    4.7420   -0.3425    4.6877 C   0  0  0  0  0  0  0  0  0  0  0  0
    5.2779   -1.5767    5.3824 C   0  0  0  0  0  0  0  0  0  0  0  0
    6.6148   -1.6293    5.8137 C   0  0  0  0  0  0  0  0  0  0  0  0
    7.1264   -2.7683    6.4395 C   0  0  0  0  0  0  0  0  0  0  0  0
    6.3072   -3.8826    6.6498 C   0  0  0  0  0  0  0  0  0  0  0  0
    4.9748   -3.8445    6.2318 C   0  0  0  0  0  0  0  0  0  0  0  0
    4.4678   -2.7013    5.6052 C   0  0  0  0  0  0  0  0  0  0  0  0
    4.8116    1.1963    2.6359 C   0  0  0  0  0  0  0  0  0  0  0  0
    3.3303    1.2410    2.2443 C   0  0  0  0  0  0  0  0  0  0  0  0
   -0.1288    1.2624   -0.6502 H   0  0  0  0  0  0  0  0  0  0  0  0
   -0.4515    3.4317   -1.8764 H   0  0  0  0  0  0  0  0  0  0  0  0
    2.7802    6.0133   -2.9198 H   0  0  0  0  0  0  0  0  0  0  0  0
    6.7974    5.4494   -1.8683 H   0  0  0  0  0  0  0  0  0  0  0  0
    4.1006    2.2024   -0.4798 H   0  0  0  0  0  0  0  0  0  0  0  0
    3.0179   -1.9324    1.1386 H   0  0  0  0  0  0  0  0  0  0  0  0
    2.6455   -1.3745    2.7760 H   0  0  0  0  0  0  0  0  0  0  0  0
    5.3708   -1.2424    1.3522 H   0  0  0  0  0  0  0  0  0  0  0  0
    4.9640   -2.2787    2.7271 H   0  0  0  0  0  0  0  0  0  0  0  0
    6.3346   -0.1877    3.2617 H   0  0  0  0  0  0  0  0  0  0  0  0
    3.6407   -0.3581    4.7253 H   0  0  0  0  0  0  0  0  0  0  0  0
    5.0531    0.5517    5.2550 H   0  0  0  0  0  0  0  0  0  0  0  0
    7.2635   -0.7607    5.6637 H   0  0  0  0  0  0  0  0  0  0  0  0
    8.1684   -2.7849    6.7699 H   0  0  0  0  0  0  0  0  0  0  0  0
    6.7054   -4.7738    7.1414 H   0  0  0  0  0  0  0  0  0  0  0  0
    4.3237   -4.7072    6.3959 H   0  0  0  0  0  0  0  0  0  0  0  0
    3.4207   -2.6803    5.2888 H   0  0  0  0  0  0  0  0  0  0  0  0
    5.4171    1.4005    1.7362 H   0  0  0  0  0  0  0  0  0  0  0  0
    5.0209    2.0093    3.3512 H   0  0  0  0  0  0  0  0  0  0  0  0
    3.0842    2.1980    1.7709 H   0  0  0  0  0  0  0  0  0  0  0  0
    2.6970    1.1680    3.1500 H   0  0  0  0  0  0  0  0  0  0  0  0
  1  2  2  0
  2  3  1  0
  2 14  1  0
  3  4  2  0
  3 13  1  0
  4  5  1  0
  4 27  1  0
  5  6  2  0
  5 28  1  0
  6  7  1  0
  7  8  1  0
  7 13  2  0
  8  9  1  0
  8 12  1  0
  9 10  2  0
  9 29  1  0
 10 11  1  0
 11 12  2  0
 11 30  1  0
 13 31  1  0
 14 15  1  0
 14 26  1  0
 15 16  1  0
 15 32  1  0
 15 33  1  0
 16 17  1  0
 16 34  1  0
 16 35  1  0
 17 18  1  0
 17 25  1  0
 17 36  1  1
 18 19  1  0
 18 37  1  0
 18 38  1  0
 19 20  2  0
 19 24  1  0
 20 21  1  0
 20 39  1  0
 21 22  2  0
 21 40  1  0
 22 23  1  0
 22 41  1  0
 23 24  2  0
 23 42  1  0
 24 43  1  0
 25 26  1  0
 25 44  1  0
 25 45  1  0
 26 46  1  0
 26 47  1  0
M  END

