
     RDKit          3D

 41 41  0  0  0  0  0  0  0  0999 V2000
    4.7626    1.9795    2.4431 C   0  0  0  0  0  0  0  0  0  0  0  0
    3.4444    1.9464    1.6681 C   0  0  0  0  0  0  0  0  0  0  0  0
    3.0067    0.5293    1.2116 C   0  0  1  0  0  0  0  0  0  0  0  0
    2.6160   -0.3076    2.4458 C   0  0  0  0  0  0  0  0  0  0  0  0
    3.4637   -0.8229    3.1616 O   0  0  0  0  0  0  0  0  0  0  0  0
    1.2844   -0.3893    2.7320 N   0  0  0  0  0  0  0  0  0  0  0  0
    0.8101   -1.1151    3.8895 C   0  0  1  0  0  0  0  0  0  0  0  0
    0.6703   -0.1887    5.1225 C   0  0  0  0  0  0  0  0  0  0  0  0
    0.3035   -0.8870    6.4314 C   0  0  0  0  0  0  0  0  0  0  0  0
    0.4215    0.0613    7.6304 C   0  0  0  0  0  0  0  0  0  0  0  0
   -0.3558   -0.2690    8.7018 N   0  0  0  0  0  0  0  0  0  0  0  0
    1.1700    1.0195    7.6336 O   0  0  0  0  0  0  0  0  0  0  0  0
   -0.5299   -1.7643    3.5324 C   0  0  0  0  0  0  0  0  0  0  0  0
   -1.2867   -1.3084    2.7191 O   0  0  0  0  0  0  0  0  0  0  0  0
   -0.8561   -2.8710    4.2353 O   0  0  0  0  0  0  0  0  0  0  0  0
    1.9562    0.5253    0.1107 C   0  0  0  0  0  0  0  0  0  0  0  0
    1.9490   -0.5166   -0.8335 C   0  0  0  0  0  0  0  0  0  0  0  0
    0.9849   -0.5723   -1.8417 C   0  0  0  0  0  0  0  0  0  0  0  0
    0.0001    0.4171   -1.9271 C   0  0  0  0  0  0  0  0  0  0  0  0
   -0.0063    1.4601   -0.9986 C   0  0  0  0  0  0  0  0  0  0  0  0
    0.9637    1.5152    0.0085 C   0  0  0  0  0  0  0  0  0  0  0  0
    5.0038    3.0090    2.7522 H   0  0  0  0  0  0  0  0  0  0  0  0
    5.5954    1.6125    1.8206 H   0  0  0  0  0  0  0  0  0  0  0  0
    4.7228    1.3468    3.3411 H   0  0  0  0  0  0  0  0  0  0  0  0
    3.5310    2.5757    0.7665 H   0  0  0  0  0  0  0  0  0  0  0  0
    2.6437    2.3961    2.2808 H   0  0  0  0  0  0  0  0  0  0  0  0
    3.9024    0.0174    0.8253 H   0  0  0  0  0  0  0  0  0  0  0  0
    0.5831   -0.0589    2.0741 H   0  0  0  0  0  0  0  0  0  0  0  0
    1.5650   -1.8873    4.1211 H   0  0  0  0  0  0  0  0  0  0  0  0
   -0.0709    0.5937    4.8900 H   0  0  0  0  0  0  0  0  0  0  0  0
    1.6352    0.3187    5.2635 H   0  0  0  0  0  0  0  0  0  0  0  0
    1.0067   -1.7205    6.6251 H   0  0  0  0  0  0  0  0  0  0  0  0
   -0.7070   -1.3264    6.3968 H   0  0  0  0  0  0  0  0  0  0  0  0
   -0.9955   -1.0514    8.6927 H   0  0  0  0  0  0  0  0  0  0  0  0
   -0.2923    0.3035    9.5357 H   0  0  0  0  0  0  0  0  0  0  0  0
   -0.1104   -3.1519    4.7850 H   0  0  0  0  0  0  0  0  0  0  0  0
    2.7160   -1.2946   -0.7762 H   0  0  0  0  0  0  0  0  0  0  0  0
    1.0032   -1.3913   -2.5656 H   0  0  0  0  0  0  0  0  0  0  0  0
   -0.7566    0.3754   -2.7145 H   0  0  0  0  0  0  0  0  0  0  0  0
   -0.7689    2.2411   -1.0572 H   0  0  0  0  0  0  0  0  0  0  0  0
    0.9441    2.3462    0.7172 H   0  0  0  0  0  0  0  0  0  0  0  0
  1  2  1  0
  1 22  1  0
  1 23  1  0
  1 24  1  0
  2  3  1  0
  2 25  1  0
  2 26  1  0
  3  4  1  0
  3 16  1  0
  3 27  1  6
  4  5  2  0
  4  6  1  0
  6  7  1  0
  6 28  1  0
  7  8  1  0
  7 13  1  0
  7 29  1  1
  8  9  1  0
  8 30  1  0
  8 31  1  0
  9 10  1  0
  9 32  1  0
  9 33  1  0
 10 11  1  0
 10 12  2  0
 11 34  1  0
 11 35  1  0
 13 14  2  0
 13 15  1  0
 15 36  1  0
 16 17  2  0
 16 21  1  0
 17 18  1  0
 17 37  1  0
 18 19  2  0
 18 38  1  0
 19 20  1  0
 19 39  1  0
 20 21  2  0
 20 40  1  0
 21 41  1  0
M  END

