
     RDKit          3D

 34 36  0  0  0  0  0  0  0  0999 V2000
    3.0499   -0.0951    1.5376 Br  0  0  0  0  0  0  0  0  0  0  0  0
    2.9653    0.2918   -0.4296 C   0  0  0  0  0  0  0  0  0  0  0  0
    3.6069   -0.7619   -1.2689 C   0  0  0  0  0  0  0  0  0  0  0  0
    2.7119   -1.4644   -2.0716 N   0  0  0  0  0  0  0  0  0  0  0  0
    3.1706   -2.4629   -2.6942 N   0  0  0  0  0  0  0  0  0  0  0  0
    2.2646   -3.0878   -3.5382 C   0  0  0  0  0  0  0  0  0  0  0  0
    1.0651   -2.7291   -3.8857 N   0  0  0  0  0  0  0  0  0  0  0  0
    0.5128   -3.6325   -4.7556 C   0  0  0  0  0  0  0  0  0  0  0  0
   -0.7768   -3.5375   -5.3178 C   0  0  0  0  0  0  0  0  0  0  0  0
   -1.2118   -4.5297   -6.1864 C   0  0  0  0  0  0  0  0  0  0  0  0
   -0.3822   -5.6241   -6.5113 C   0  0  0  0  0  0  0  0  0  0  0  0
    0.8964   -5.7432   -5.9718 C   0  0  0  0  0  0  0  0  0  0  0  0
    1.3410   -4.7450   -5.0948 C   0  0  0  0  0  0  0  0  0  0  0  0
    2.8654   -4.5958   -4.2648 S   0  0  0  0  0  0  0  0  0  0  0  0
    4.8935   -0.9766   -1.3393 N   0  0  0  0  0  0  0  0  0  0  0  0
    5.7215   -0.3277   -0.5613 N   0  0  0  0  0  0  0  0  0  0  0  0
    7.1119   -0.4938   -0.6634 C   0  0  0  0  0  0  0  0  0  0  0  0
    7.6774   -1.3091   -1.6577 C   0  0  0  0  0  0  0  0  0  0  0  0
    9.0637   -1.4417   -1.7228 C   0  0  0  0  0  0  0  0  0  0  0  0
    9.8938   -0.7730   -0.8146 C   0  0  0  0  0  0  0  0  0  0  0  0
    9.3225    0.0370    0.1717 C   0  0  0  0  0  0  0  0  0  0  0  0
    7.9370    0.1798    0.2520 C   0  0  0  0  0  0  0  0  0  0  0  0
    3.4531    1.2716   -0.5284 H   0  0  0  0  0  0  0  0  0  0  0  0
    1.9021    0.3638   -0.6749 H   0  0  0  0  0  0  0  0  0  0  0  0
   -1.4055   -2.6848   -5.0549 H   0  0  0  0  0  0  0  0  0  0  0  0
   -2.2101   -4.4654   -6.6260 H   0  0  0  0  0  0  0  0  0  0  0  0
   -0.7480   -6.3917   -7.1978 H   0  0  0  0  0  0  0  0  0  0  0  0
    1.5333   -6.5926   -6.2275 H   0  0  0  0  0  0  0  0  0  0  0  0
    5.3739    0.2189    0.2317 H   0  0  0  0  0  0  0  0  0  0  0  0
    7.0187   -1.8260   -2.3557 H   0  0  0  0  0  0  0  0  0  0  0  0
    9.5023   -2.0779   -2.4957 H   0  0  0  0  0  0  0  0  0  0  0  0
   10.9789   -0.8829   -0.8760 H   0  0  0  0  0  0  0  0  0  0  0  0
    9.9588    0.5632    0.8875 H   0  0  0  0  0  0  0  0  0  0  0  0
    7.4919    0.8127    1.0253 H   0  0  0  0  0  0  0  0  0  0  0  0
  1  2  1  0
  2  3  1  0
  2 23  1  0
  2 24  1  0
  3  4  1  0
  3 15  2  0
  4  5  2  0
  5  6  1  0
  6  7  2  0
  6 14  1  0
  7  8  1  0
  8  9  2  0
  8 13  1  0
  9 10  1  0
  9 25  1  0
 10 11  2  0
 10 26  1  0
 11 12  1  0
 11 27  1  0
 12 13  2  0
 12 28  1  0
 13 14  1  0
 15 16  1  0
 16 17  1  0
 16 29  1  0
 17 18  2  0
 17 22  1  0
 18 19  1  0
 18 30  1  0
 19 20  2  0
 19 31  1  0
 20 21  1  0
 20 32  1  0
 21 22  2  0
 21 33  1  0
 22 34  1  0
M  END

