
     RDKit          3D

 58 59  0  0  0  0  0  0  0  0999 V2000
    0.6711   -0.2172   -0.0448 C   0  0  0  0  0  0  0  0  0  0  0  0
    2.1926   -0.0686   -0.0060 C   0  0  0  0  0  0  0  0  0  0  0  0
    2.8155    0.2237   -1.3747 C   0  0  0  0  0  0  0  0  0  0  0  0
    4.3393    0.3736   -1.3443 C   0  0  0  0  0  0  0  0  0  0  0  0
    4.9607    0.6667   -2.7131 C   0  0  0  0  0  0  0  0  0  0  0  0
    6.4842    0.8156   -2.6791 C   0  0  0  0  0  0  0  0  0  0  0  0
    7.1007    1.1114   -4.0592 C   0  0  0  0  0  0  0  0  0  0  0  0
    8.6046    1.2595   -4.0235 C   0  0  0  0  0  0  0  0  0  0  0  0
    9.2056    2.5077   -3.8075 C   0  0  0  0  0  0  0  0  0  0  0  0
   10.5934    2.6188   -3.7426 C   0  0  0  0  0  0  0  0  0  0  0  0
   11.4248    1.4943   -3.8806 C   0  0  0  0  0  0  0  0  0  0  0  0
   12.9048    1.6700   -3.6584 C   0  0  0  0  0  0  0  0  0  0  0  0
   13.5849    0.9550   -2.9764 O   0  0  0  0  0  0  0  0  0  0  0  0
   13.4471    2.7601   -4.2631 O   0  0  0  0  0  0  0  0  0  0  0  0
   10.8423    0.2241   -4.1110 C   0  0  0  0  0  0  0  0  0  0  0  0
   11.6431   -1.0117   -4.3368 C   0  0  0  0  0  0  0  0  0  0  0  0
   11.3294   -2.2014   -3.6567 C   0  0  0  0  0  0  0  0  0  0  0  0
   12.0487   -3.3733   -3.8905 C   0  0  0  0  0  0  0  0  0  0  0  0
   13.1021   -3.4100   -4.8185 C   0  0  0  0  0  0  0  0  0  0  0  0
   13.8609   -4.6941   -5.0784 C   0  0  0  0  0  0  0  0  0  0  0  0
   13.1120   -5.7161   -5.9581 C   0  0  0  0  0  0  0  0  0  0  0  0
   12.8815   -5.2702   -7.4048 C   0  0  0  0  0  0  0  0  0  0  0  0
   12.1435   -6.3118   -8.2474 C   0  0  0  0  0  0  0  0  0  0  0  0
   13.4092   -2.2220   -5.4996 C   0  0  0  0  0  0  0  0  0  0  0  0
   12.6968   -1.0458   -5.2644 C   0  0  0  0  0  0  0  0  0  0  0  0
    9.4410    0.1445   -4.1773 C   0  0  0  0  0  0  0  0  0  0  0  0
    0.2584   -0.4264    0.9550 H   0  0  0  0  0  0  0  0  0  0  0  0
    0.3655   -1.0425   -0.7098 H   0  0  0  0  0  0  0  0  0  0  0  0
    0.1877    0.7012   -0.4184 H   0  0  0  0  0  0  0  0  0  0  0  0
    2.6430   -0.9892    0.4080 H   0  0  0  0  0  0  0  0  0  0  0  0
    2.4668    0.7394    0.6968 H   0  0  0  0  0  0  0  0  0  0  0  0
    2.3661    1.1453   -1.7899 H   0  0  0  0  0  0  0  0  0  0  0  0
    2.5421   -0.5843   -2.0791 H   0  0  0  0  0  0  0  0  0  0  0  0
    4.7886   -0.5481   -0.9300 H   0  0  0  0  0  0  0  0  0  0  0  0
    4.6127    1.1810   -0.6397 H   0  0  0  0  0  0  0  0  0  0  0  0
    4.5129    1.5889   -3.1280 H   0  0  0  0  0  0  0  0  0  0  0  0
    4.6886   -0.1403   -3.4187 H   0  0  0  0  0  0  0  0  0  0  0  0
    6.9385   -0.1049   -2.2708 H   0  0  0  0  0  0  0  0  0  0  0  0
    6.7632    1.6230   -1.9785 H   0  0  0  0  0  0  0  0  0  0  0  0
    6.6504    2.0342   -4.4633 H   0  0  0  0  0  0  0  0  0  0  0  0
    6.8277    0.3006   -4.7560 H   0  0  0  0  0  0  0  0  0  0  0  0
    8.5842    3.3992   -3.6850 H   0  0  0  0  0  0  0  0  0  0  0  0
   11.0400    3.5962   -3.5382 H   0  0  0  0  0  0  0  0  0  0  0  0
   12.7941    3.1648   -4.8521 H   0  0  0  0  0  0  0  0  0  0  0  0
   10.5295   -2.1999   -2.9120 H   0  0  0  0  0  0  0  0  0  0  0  0
   11.7938   -4.2772   -3.3290 H   0  0  0  0  0  0  0  0  0  0  0  0
   14.0940   -5.1721   -4.1118 H   0  0  0  0  0  0  0  0  0  0  0  0
   14.8307   -4.4565   -5.5476 H   0  0  0  0  0  0  0  0  0  0  0  0
   12.1394   -5.9531   -5.4891 H   0  0  0  0  0  0  0  0  0  0  0  0
   13.6854   -6.6609   -5.9581 H   0  0  0  0  0  0  0  0  0  0  0  0
   13.8572   -5.0416   -7.8720 H   0  0  0  0  0  0  0  0  0  0  0  0
   12.3154   -4.3225   -7.4120 H   0  0  0  0  0  0  0  0  0  0  0  0
   12.7003   -7.2632   -8.2911 H   0  0  0  0  0  0  0  0  0  0  0  0
   11.9973   -5.9649   -9.2828 H   0  0  0  0  0  0  0  0  0  0  0  0
   11.1477   -6.5335   -7.8280 H   0  0  0  0  0  0  0  0  0  0  0  0
   14.2255   -2.2155   -6.2274 H   0  0  0  0  0  0  0  0  0  0  0  0
   12.9586   -0.1429   -5.8217 H   0  0  0  0  0  0  0  0  0  0  0  0
    8.9891   -0.8287   -4.3874 H   0  0  0  0  0  0  0  0  0  0  0  0
  1  2  1  0
  1 27  1  0
  1 28  1  0
  1 29  1  0
  2  3  1  0
  2 30  1  0
  2 31  1  0
  3  4  1  0
  3 32  1  0
  3 33  1  0
  4  5  1  0
  4 34  1  0
  4 35  1  0
  5  6  1  0
  5 36  1  0
  5 37  1  0
  6  7  1  0
  6 38  1  0
  6 39  1  0
  7  8  1  0
  7 40  1  0
  7 41  1  0
  8  9  2  0
  8 26  1  0
  9 10  1  0
  9 42  1  0
 10 11  2  0
 10 43  1  0
 11 12  1  0
 11 15  1  0
 12 13  2  0
 12 14  1  0
 14 44  1  0
 15 16  1  0
 15 26  2  0
 16 17  2  0
 16 25  1  0
 17 18  1  0
 17 45  1  0
 18 19  2  0
 18 46  1  0
 19 20  1  0
 19 24  1  0
 20 21  1  0
 20 47  1  0
 20 48  1  0
 21 22  1  0
 21 49  1  0
 21 50  1  0
 22 23  1  0
 22 51  1  0
 22 52  1  0
 23 53  1  0
 23 54  1  0
 23 55  1  0
 24 25  2  0
 24 56  1  0
 25 57  1  0
 26 58  1  0
M  END

