
     RDKit          3D

 40 44  0  0  0  0  0  0  0  0999 V2000
    3.0919    3.5283    1.2956 C   0  0  0  0  0  0  0  0  0  0  0  0
    3.6187    3.7428   -0.1224 C   0  0  0  0  0  0  0  0  0  0  0  0
    4.0618    2.5129   -0.7602 N   0  0  0  0  0  0  0  0  0  0  0  0
    3.1522    1.6844   -1.3073 N   0  0  0  0  0  0  0  0  0  0  0  0
    3.8110    0.6239   -1.7468 C   0  0  0  0  0  0  0  0  0  0  0  0
    5.2100    0.7410   -1.4783 C   0  0  0  0  0  0  0  0  0  0  0  0
    6.3840   -0.0528   -1.7123 C   0  0  0  0  0  0  0  0  0  0  0  0
    6.3996   -1.3260   -2.3598 C   0  0  0  0  0  0  0  0  0  0  0  0
    5.2008   -1.9393   -2.8478 C   0  0  0  0  0  0  0  0  0  0  0  0
    4.2476   -2.4638   -3.2553 N   0  0  0  0  0  0  0  0  0  0  0  0
    7.6192   -1.9886   -2.5193 C   0  0  0  0  0  0  0  0  0  0  0  0
    8.0617   -3.2400   -3.0925 C   0  0  0  0  0  0  0  0  0  0  0  0
    7.4153   -4.3092   -3.7329 C   0  0  0  0  0  0  0  0  0  0  0  0
    8.1776   -5.3911   -4.1724 C   0  0  0  0  0  0  0  0  0  0  0  0
    9.5714   -5.4155   -3.9796 C   0  0  0  0  0  0  0  0  0  0  0  0
   10.2399   -4.3658   -3.3462 C   0  0  0  0  0  0  0  0  0  0  0  0
    9.4761   -3.2797   -2.9051 C   0  0  0  0  0  0  0  0  0  0  0  0
    9.8972   -2.1278   -2.2568 N   0  0  0  0  0  0  0  0  0  0  0  0
   11.2542   -1.8012   -1.8832 C   0  0  0  0  0  0  0  0  0  0  0  0
    8.7915   -1.3307   -2.0113 C   0  0  0  0  0  0  0  0  0  0  0  0
    8.8239   -0.1669   -1.4116 N   0  0  0  0  0  0  0  0  0  0  0  0
    7.6439    0.4826   -1.2534 C   0  0  0  0  0  0  0  0  0  0  0  0
    7.6882    1.7598   -0.5940 C   0  0  0  0  0  0  0  0  0  0  0  0
    6.5649    2.5132   -0.3749 C   0  0  0  0  0  0  0  0  0  0  0  0
    5.3232    1.9905   -0.8265 C   0  0  0  0  0  0  0  0  0  0  0  0
    2.7385    4.4817    1.7192 H   0  0  0  0  0  0  0  0  0  0  0  0
    3.8750    3.1265    1.9576 H   0  0  0  0  0  0  0  0  0  0  0  0
    2.2503    2.8197    1.2861 H   0  0  0  0  0  0  0  0  0  0  0  0
    4.4640    4.4479   -0.1290 H   0  0  0  0  0  0  0  0  0  0  0  0
    2.8338    4.1674   -0.7659 H   0  0  0  0  0  0  0  0  0  0  0  0
    3.2714   -0.1809   -2.2405 H   0  0  0  0  0  0  0  0  0  0  0  0
    6.3345   -4.2935   -3.8838 H   0  0  0  0  0  0  0  0  0  0  0  0
    7.6882   -6.2300   -4.6720 H   0  0  0  0  0  0  0  0  0  0  0  0
   10.1462   -6.2753   -4.3332 H   0  0  0  0  0  0  0  0  0  0  0  0
   11.3215   -4.3955   -3.2020 H   0  0  0  0  0  0  0  0  0  0  0  0
   11.9085   -1.7470   -2.7693 H   0  0  0  0  0  0  0  0  0  0  0  0
   11.6667   -2.5503   -1.1865 H   0  0  0  0  0  0  0  0  0  0  0  0
   11.2398   -0.8218   -1.3884 H   0  0  0  0  0  0  0  0  0  0  0  0
    8.6727    2.1031   -0.2723 H   0  0  0  0  0  0  0  0  0  0  0  0
    6.6269    3.4787    0.1306 H   0  0  0  0  0  0  0  0  0  0  0  0
  1  2  1  0
  1 26  1  0
  1 27  1  0
  1 28  1  0
  2  3  1  0
  2 29  1  0
  2 30  1  0
  3  4  1  0
  3 25  1  0
  4  5  2  0
  5  6  1  0
  5 31  1  0
  6  7  1  0
  6 25  2  0
  7  8  2  0
  7 22  1  0
  8  9  1  0
  8 11  1  0
  9 10  3  0
 11 12  1  0
 11 20  2  0
 12 13  2  0
 12 17  1  0
 13 14  1  0
 13 32  1  0
 14 15  2  0
 14 33  1  0
 15 16  1  0
 15 34  1  0
 16 17  2  0
 16 35  1  0
 17 18  1  0
 18 19  1  0
 18 20  1  0
 19 36  1  0
 19 37  1  0
 19 38  1  0
 20 21  1  0
 21 22  2  0
 22 23  1  0
 23 24  2  0
 23 39  1  0
 24 25  1  0
 24 40  1  0
M  END

