
     RDKit          3D

 36 37  0  0  0  0  0  0  0  0999 V2000
    1.4418    0.1431   -0.8721 C   0  0  0  0  0  0  0  0  0  0  0  0
    2.9106    0.0313   -0.5516 C   0  0  0  0  0  0  0  0  0  0  0  0
    3.6787    1.2039   -0.4262 C   0  0  0  0  0  0  0  0  0  0  0  0
    5.0325    1.1854   -0.1068 C   0  0  0  0  0  0  0  0  0  0  0  0
    5.6944   -0.0292    0.1332 C   0  0  0  0  0  0  0  0  0  0  0  0
    7.1436   -0.0527    0.4958 C   0  0  0  0  0  0  0  0  0  0  0  0
    7.5479   -1.1316    1.2034 N   0  0  0  0  0  0  0  0  0  0  0  0
    8.2046    1.1392    0.0320 S   0  0  0  0  0  0  0  0  0  0  0  0
    4.9534   -1.2131    0.0084 C   0  0  0  0  0  0  0  0  0  0  0  0
    3.5978   -1.1835   -0.3368 C   0  0  0  0  0  0  0  0  0  0  0  0
    2.8169   -2.8136   -0.4756 S   0  0  1  0  0  0  0  0  0  0  0  0
    3.7082   -3.7625    0.1884 O   0  0  0  0  0  0  0  0  0  0  0  0
    1.4046   -2.7056   -0.1124 O   0  0  0  0  0  0  0  0  0  0  0  0
    2.8801   -3.2552   -2.1227 N   0  0  0  0  0  0  0  0  0  0  0  0
    2.0093   -2.6982   -3.1028 C   0  0  0  0  0  0  0  0  0  0  0  0
    2.5562   -1.7777   -3.8979 N   0  0  0  0  0  0  0  0  0  0  0  0
    1.8178   -1.2444   -4.8714 C   0  0  0  0  0  0  0  0  0  0  0  0
    0.4837   -1.5997   -5.0797 C   0  0  0  0  0  0  0  0  0  0  0  0
   -0.0711   -2.5835   -4.2595 C   0  0  0  0  0  0  0  0  0  0  0  0
    0.6878   -3.1834   -3.2453 C   0  0  0  0  0  0  0  0  0  0  0  0
    0.1330   -4.3002   -2.4038 C   0  0  0  0  0  0  0  0  0  0  0  0
    1.1563    1.1999   -0.9686 H   0  0  0  0  0  0  0  0  0  0  0  0
    0.8292   -0.3264   -0.0898 H   0  0  0  0  0  0  0  0  0  0  0  0
    1.1890   -0.3642   -1.8148 H   0  0  0  0  0  0  0  0  0  0  0  0
    3.1843    2.1658   -0.5840 H   0  0  0  0  0  0  0  0  0  0  0  0
    5.6036    2.1125   -0.0311 H   0  0  0  0  0  0  0  0  0  0  0  0
    6.8894   -1.7680    1.6374 H   0  0  0  0  0  0  0  0  0  0  0  0
    8.5236   -1.1845    1.4732 H   0  0  0  0  0  0  0  0  0  0  0  0
    5.4180   -2.1877    0.1616 H   0  0  0  0  0  0  0  0  0  0  0  0
    3.8534   -3.2177   -2.4300 H   0  0  0  0  0  0  0  0  0  0  0  0
    2.3093   -0.5024   -5.5109 H   0  0  0  0  0  0  0  0  0  0  0  0
   -0.0983   -1.1347   -5.8783 H   0  0  0  0  0  0  0  0  0  0  0  0
   -1.1009   -2.9150   -4.4202 H   0  0  0  0  0  0  0  0  0  0  0  0
   -0.7138   -4.7852   -2.9115 H   0  0  0  0  0  0  0  0  0  0  0  0
   -0.2056   -3.9312   -1.4244 H   0  0  0  0  0  0  0  0  0  0  0  0
    0.9087   -5.0536   -2.1997 H   0  0  0  0  0  0  0  0  0  0  0  0
  1  2  1  0
  1 22  1  0
  1 23  1  0
  1 24  1  0
  2  3  2  0
  2 10  1  0
  3  4  1  0
  3 25  1  0
  4  5  2  0
  4 26  1  0
  5  6  1  0
  5  9  1  0
  6  7  1  0
  6  8  2  0
  7 27  1  0
  7 28  1  0
  9 10  2  0
  9 29  1  0
 10 11  1  0
 11 12  2  0
 11 13  2  0
 11 14  1  6
 14 15  1  0
 14 30  1  0
 15 16  2  0
 15 20  1  0
 16 17  1  0
 17 18  2  0
 17 31  1  0
 18 19  1  0
 18 32  1  0
 19 20  2  0
 19 33  1  0
 20 21  1  0
 21 34  1  0
 21 35  1  0
 21 36  1  0
M  END

