
     RDKit          3D

 52 54  0  0  0  0  0  0  0  0999 V2000
    0.9410    0.0920   -0.9337 C   0  0  0  0  0  0  0  0  0  0  0  0
    2.4186    0.0618   -0.6202 C   0  0  0  0  0  0  0  0  0  0  0  0
    3.1044    1.2818   -0.6047 C   0  0  0  0  0  0  0  0  0  0  0  0
    4.4804    1.4004   -0.3252 C   0  0  0  0  0  0  0  0  0  0  0  0
    5.1638    2.7021   -0.3411 C   0  0  0  0  0  0  0  0  0  0  0  0
    4.6837    3.8382   -0.8882 C   0  0  0  0  0  0  0  0  0  0  0  0
    5.7148    5.2550   -0.7860 S   0  0  0  0  0  0  0  0  0  0  0  0
    6.8945    4.3710    0.3714 C   0  0  1  0  0  0  0  0  0  0  0  0
    8.3492    4.7494    0.0904 C   0  0  0  0  0  0  0  0  0  0  0  0
    8.6808    6.0219   -0.3959 C   0  0  0  0  0  0  0  0  0  0  0  0
   10.0193    6.3639   -0.5981 C   0  0  0  0  0  0  0  0  0  0  0  0
   10.4126    7.9478   -1.2175 Cl  0  0  0  0  0  0  0  0  0  0  0  0
   11.0521    5.4666   -0.3185 C   0  0  0  0  0  0  0  0  0  0  0  0
   10.7099    4.2083    0.1788 C   0  0  0  0  0  0  0  0  0  0  0  0
   11.9761    3.0632    0.5460 Cl  0  0  0  0  0  0  0  0  0  0  0  0
    9.3777    3.8435    0.3882 C   0  0  0  0  0  0  0  0  0  0  0  0
    6.5471    4.8158    1.8155 C   0  0  1  0  0  0  0  0  0  0  0  0
    5.2847    4.5218    2.1475 F   0  0  0  0  0  0  0  0  0  0  0  0
    7.3458    4.1872    2.7009 F   0  0  0  0  0  0  0  0  0  0  0  0
    6.7191    6.1329    1.9830 F   0  0  0  0  0  0  0  0  0  0  0  0
    6.5735    2.8620    0.1977 C   0  0  0  0  0  0  0  0  0  0  0  0
    5.1832    0.2163   -0.0304 C   0  0  0  0  0  0  0  0  0  0  0  0
    4.5275   -1.0084   -0.0396 C   0  0  0  0  0  0  0  0  0  0  0  0
    3.1572   -1.1190   -0.3306 C   0  0  0  0  0  0  0  0  0  0  0  0
    2.6253   -2.5242   -0.2908 C   0  0  0  0  0  0  0  0  0  0  0  0
    3.3277   -3.4771   -0.0233 O   0  0  0  0  0  0  0  0  0  0  0  0
    1.3175   -2.6154   -0.5794 O   0  0  0  0  0  0  0  0  0  0  0  0
    0.6035   -3.9021   -0.5951 C   0  0  1  0  0  0  0  0  0  0  0  0
    0.6385   -4.5389    0.7982 C   0  0  0  0  0  0  0  0  0  0  0  0
   -0.8252   -3.4992   -0.9665 C   0  0  0  0  0  0  0  0  0  0  0  0
    1.1999   -4.8201   -1.6674 C   0  0  0  0  0  0  0  0  0  0  0  0
    0.6099    1.1259   -1.1087 H   0  0  0  0  0  0  0  0  0  0  0  0
    0.3438   -0.3323   -0.1139 H   0  0  0  0  0  0  0  0  0  0  0  0
    0.7044   -0.5066   -1.8253 H   0  0  0  0  0  0  0  0  0  0  0  0
    2.5269    2.1874   -0.8020 H   0  0  0  0  0  0  0  0  0  0  0  0
    3.7334    3.9509   -1.4117 H   0  0  0  0  0  0  0  0  0  0  0  0
    7.9094    6.7568   -0.6252 H   0  0  0  0  0  0  0  0  0  0  0  0
   12.0937    5.7410   -0.4830 H   0  0  0  0  0  0  0  0  0  0  0  0
    9.1638    2.8548    0.7915 H   0  0  0  0  0  0  0  0  0  0  0  0
    6.7165    2.3324    1.1518 H   0  0  0  0  0  0  0  0  0  0  0  0
    7.2857    2.4214   -0.5204 H   0  0  0  0  0  0  0  0  0  0  0  0
    6.2504    0.2427    0.1959 H   0  0  0  0  0  0  0  0  0  0  0  0
    5.0706   -1.9282    0.1820 H   0  0  0  0  0  0  0  0  0  0  0  0
    0.2476   -3.8365    1.5510 H   0  0  0  0  0  0  0  0  0  0  0  0
    1.6586   -4.8279    1.0792 H   0  0  0  0  0  0  0  0  0  0  0  0
    0.0010   -5.4368    0.8076 H   0  0  0  0  0  0  0  0  0  0  0  0
   -1.2432   -2.8070   -0.2198 H   0  0  0  0  0  0  0  0  0  0  0  0
   -1.4698   -4.3901   -1.0117 H   0  0  0  0  0  0  0  0  0  0  0  0
   -0.8491   -3.0044   -1.9493 H   0  0  0  0  0  0  0  0  0  0  0  0
    2.2264   -5.1132   -1.4155 H   0  0  0  0  0  0  0  0  0  0  0  0
    1.2042   -4.3145   -2.6458 H   0  0  0  0  0  0  0  0  0  0  0  0
    0.5841   -5.7287   -1.7569 H   0  0  0  0  0  0  0  0  0  0  0  0
  1  2  1  0
  1 32  1  0
  1 33  1  0
  1 34  1  0
  2  3  2  0
  2 24  1  0
  3  4  1  0
  3 35  1  0
  4  5  2  0
  4 22  1  0
  5  6  1  0
  5 21  1  0
  6  7  2  0
  6 36  1  0
  7  8  1  0
  8  9  1  6
  8 17  1  0
  8 21  1  0
  9 10  2  0
  9 16  1  0
 10 11  1  0
 10 37  1  0
 11 12  1  0
 11 13  2  0
 13 14  1  0
 13 38  1  0
 14 15  1  0
 14 16  2  0
 16 39  1  0
 17 18  1  1
 17 19  1  0
 17 20  1  0
 21 40  1  0
 21 41  1  0
 22 23  2  0
 22 42  1  0
 23 24  1  0
 23 43  1  0
 24 25  2  0
 25 26  1  0
 25 27  1  0
 28 27  1  1
 28 29  1  0
 28 30  1  0
 28 31  1  0
 29 44  1  0
 29 45  1  0
 29 46  1  0
 30 47  1  0
 30 48  1  0
 30 49  1  0
 31 50  1  0
 31 51  1  0
 31 52  1  0
M  CHG  2   7   1  26  -1
M  END

