
     RDKit          3D

 44 47  0  0  0  0  0  0  0  0999 V2000
    9.4025    2.7653    0.0925 C   0  0  0  0  0  0  0  0  0  0  0  0
    8.6865    1.5741   -0.3188 N   0  0  0  0  0  0  0  0  0  0  0  0
    7.3313    1.4726   -0.2659 C   0  0  0  0  0  0  0  0  0  0  0  0
    6.6369    2.4174    0.1287 O   0  0  0  0  0  0  0  0  0  0  0  0
    6.7332    0.1716   -0.7223 C   0  0  0  0  0  0  0  0  0  0  0  0
    7.5030   -1.0050   -0.7478 C   0  0  0  0  0  0  0  0  0  0  0  0
    6.9802   -2.2172   -1.1896 C   0  0  0  0  0  0  0  0  0  0  0  0
    5.6509   -2.2644   -1.6198 C   0  0  0  0  0  0  0  0  0  0  0  0
    4.8481   -1.1272   -1.5862 C   0  0  0  0  0  0  0  0  0  0  0  0
    5.3641    0.0994   -1.1204 C   0  0  0  0  0  0  0  0  0  0  0  0
    4.5796    1.2522   -1.0235 N   0  0  0  0  0  0  0  0  0  0  0  0
    3.2678    1.4355   -1.3794 C   0  0  0  0  0  0  0  0  0  0  0  0
    2.5703    0.6014   -1.9363 O   0  0  0  0  0  0  0  0  0  0  0  0
    2.7110    2.7902   -1.0112 C   0  0  0  0  0  0  0  0  0  0  0  0
    3.1520    3.4866    0.1156 C   0  0  0  0  0  0  0  0  0  0  0  0
    2.5731    4.7299    0.4906 C   0  0  0  0  0  0  0  0  0  0  0  0
    3.0173    5.4607    1.6820 C   0  0  0  0  0  0  0  0  0  0  0  0
    2.5154    6.6650    2.1387 C   0  0  0  0  0  0  0  0  0  0  0  0
    3.1499    7.1217    3.3253 C   0  0  0  0  0  0  0  0  0  0  0  0
    4.1298    6.2627    3.7647 C   0  0  0  0  0  0  0  0  0  0  0  0
    4.2908    4.8886    2.7335 S   0  0  0  0  0  0  0  0  0  0  0  0
    1.5885    5.2989   -0.2207 N   0  0  0  0  0  0  0  0  0  0  0  0
    1.1934    4.6273   -1.2810 C   0  0  0  0  0  0  0  0  0  0  0  0
    0.2235    5.0821   -2.0941 O   0  0  0  0  0  0  0  0  0  0  0  0
    0.0415    4.1588   -3.1218 N   0  0  0  0  0  0  0  0  0  0  0  0
    0.8738    3.1620   -2.9429 C   0  0  0  0  0  0  0  0  0  0  0  0
    0.8760    2.0374   -3.9273 C   0  0  0  0  0  0  0  0  0  0  0  0
    1.6682    3.3872   -1.7546 C   0  0  0  0  0  0  0  0  0  0  0  0
    9.8488    3.2886   -0.7705 H   0  0  0  0  0  0  0  0  0  0  0  0
   10.2061    2.5149    0.8041 H   0  0  0  0  0  0  0  0  0  0  0  0
    8.6883    3.4413    0.5784 H   0  0  0  0  0  0  0  0  0  0  0  0
    9.2065    0.8352   -0.7727 H   0  0  0  0  0  0  0  0  0  0  0  0
    8.5318   -0.9827   -0.3810 H   0  0  0  0  0  0  0  0  0  0  0  0
    7.6006   -3.1159   -1.1905 H   0  0  0  0  0  0  0  0  0  0  0  0
    5.2236   -3.2051   -1.9766 H   0  0  0  0  0  0  0  0  0  0  0  0
    3.8111   -1.1626   -1.9100 H   0  0  0  0  0  0  0  0  0  0  0  0
    5.0910    2.0319   -0.5908 H   0  0  0  0  0  0  0  0  0  0  0  0
    3.9455    3.0691    0.7372 H   0  0  0  0  0  0  0  0  0  0  0  0
    1.7123    7.1823    1.6144 H   0  0  0  0  0  0  0  0  0  0  0  0
    2.8927    8.0501    3.8374 H   0  0  0  0  0  0  0  0  0  0  0  0
    4.7702    6.3617    4.6402 H   0  0  0  0  0  0  0  0  0  0  0  0
    0.1447    2.2495   -4.7191 H   0  0  0  0  0  0  0  0  0  0  0  0
    0.6342    1.0882   -3.4305 H   0  0  0  0  0  0  0  0  0  0  0  0
    1.8720    1.9109   -4.3782 H   0  0  0  0  0  0  0  0  0  0  0  0
  1  2  1  0
  1 29  1  0
  1 30  1  0
  1 31  1  0
  2  3  1  0
  2 32  1  0
  3  4  2  0
  3  5  1  0
  5  6  2  0
  5 10  1  0
  6  7  1  0
  6 33  1  0
  7  8  2  0
  7 34  1  0
  8  9  1  0
  8 35  1  0
  9 10  2  0
  9 36  1  0
 10 11  1  0
 11 12  1  0
 11 37  1  0
 12 13  2  0
 12 14  1  0
 14 15  2  0
 14 28  1  0
 15 16  1  0
 15 38  1  0
 16 17  1  0
 16 22  2  0
 17 18  2  0
 17 21  1  0
 18 19  1  0
 18 39  1  0
 19 20  2  0
 19 40  1  0
 20 21  1  0
 20 41  1  0
 22 23  1  0
 23 24  1  0
 23 28  2  0
 24 25  1  0
 25 26  2  0
 26 27  1  0
 26 28  1  0
 27 42  1  0
 27 43  1  0
 27 44  1  0
M  END

