
     RDKit          3D

 50 53  0  0  0  0  0  0  0  0999 V2000
    3.0245    1.7107    1.3398 C   0  0  0  0  0  0  0  0  0  0  0  0
    3.0661    0.5523    0.3686 C   0  0  1  0  0  0  0  0  0  0  0  0
    3.5475   -0.3477    0.7694 H   0  0  0  0  0  0  0  0  0  0  0  0
    1.9691    0.3084   -0.6207 C   0  0  0  0  0  0  0  0  0  0  0  0
    3.3338    0.7352   -1.1332 C   0  0  1  0  0  0  0  0  0  0  0  0
    3.9590   -0.0386   -1.5872 H   0  0  0  0  0  0  0  0  0  0  0  0
    3.5453    2.0434   -1.7618 C   0  0  0  0  0  0  0  0  0  0  0  0
    4.5539    2.5140   -2.5836 C   0  0  0  0  0  0  0  0  0  0  0  0
    4.2233    3.8548   -2.8981 C   0  0  0  0  0  0  0  0  0  0  0  0
    3.0280    4.1356   -2.2543 C   0  0  0  0  0  0  0  0  0  0  0  0
    2.2412    5.3187   -2.2338 C   0  0  0  0  0  0  0  0  0  0  0  0
    1.0540    5.5757   -1.5991 C   0  0  0  0  0  0  0  0  0  0  0  0
    0.3433    4.5703   -0.8765 C   0  0  0  0  0  0  0  0  0  0  0  0
   -0.2598    3.7580   -0.3006 N   0  0  0  0  0  0  0  0  0  0  0  0
    0.4399    6.9379   -1.8539 C   0  0  0  0  0  0  0  0  0  0  0  0
    0.7229    7.5335   -2.8855 O   0  0  0  0  0  0  0  0  0  0  0  0
   -0.4431    7.4537   -0.9339 N   0  0  0  0  0  0  0  0  0  0  0  0
   -0.5335    7.1120    0.4832 C   0  0  0  0  0  0  0  0  0  0  0  0
   -0.1117    8.2993    1.3603 C   0  0  0  0  0  0  0  0  0  0  0  0
   -0.8852    9.4834    1.0158 N   0  0  0  0  0  0  0  0  0  0  0  0
   -1.1496   10.4917    1.9580 C   0  0  0  0  0  0  0  0  0  0  0  0
   -2.2966   11.3040    1.8238 C   0  0  0  0  0  0  0  0  0  0  0  0
   -2.6004   12.3124    2.7372 C   0  0  0  0  0  0  0  0  0  0  0  0
   -1.7758   12.5330    3.8453 C   0  0  0  0  0  0  0  0  0  0  0  0
   -0.6380   11.7424    4.0125 C   0  0  0  0  0  0  0  0  0  0  0  0
   -0.3312   10.7606    3.0746 C   0  0  0  0  0  0  0  0  0  0  0  0
    0.8058   10.0546    3.2548 F   0  0  0  0  0  0  0  0  0  0  0  0
   -0.7677    9.8402   -0.3961 C   0  0  0  0  0  0  0  0  0  0  0  0
   -1.1816    8.6657   -1.2820 C   0  0  0  0  0  0  0  0  0  0  0  0
    2.6308    3.0183   -1.5662 O   0  0  0  0  0  0  0  0  0  0  0  0
    2.4983    1.4111    2.2609 H   0  0  0  0  0  0  0  0  0  0  0  0
    2.4914    2.5758    0.9221 H   0  0  0  0  0  0  0  0  0  0  0  0
    4.0401    2.0323    1.6243 H   0  0  0  0  0  0  0  0  0  0  0  0
    1.1717    1.0558   -0.6762 H   0  0  0  0  0  0  0  0  0  0  0  0
    1.6529   -0.7171   -0.8310 H   0  0  0  0  0  0  0  0  0  0  0  0
    5.4220    1.9488   -2.9147 H   0  0  0  0  0  0  0  0  0  0  0  0
    4.7809    4.5475   -3.5257 H   0  0  0  0  0  0  0  0  0  0  0  0
    2.6375    6.1487   -2.8250 H   0  0  0  0  0  0  0  0  0  0  0  0
    0.1077    6.2564    0.7167 H   0  0  0  0  0  0  0  0  0  0  0  0
   -1.5728    6.8261    0.7235 H   0  0  0  0  0  0  0  0  0  0  0  0
    0.9783    8.4647    1.2369 H   0  0  0  0  0  0  0  0  0  0  0  0
   -0.2871    8.0399    2.4128 H   0  0  0  0  0  0  0  0  0  0  0  0
   -2.9698   11.1114    0.9856 H   0  0  0  0  0  0  0  0  0  0  0  0
   -3.5002   12.9152    2.5924 H   0  0  0  0  0  0  0  0  0  0  0  0
   -2.0137   13.3114    4.5733 H   0  0  0  0  0  0  0  0  0  0  0  0
    0.0455   11.8837    4.8526 H   0  0  0  0  0  0  0  0  0  0  0  0
    0.2769   10.1282   -0.6428 H   0  0  0  0  0  0  0  0  0  0  0  0
   -1.4059   10.7069   -0.6151 H   0  0  0  0  0  0  0  0  0  0  0  0
   -0.9875    8.8914   -2.3369 H   0  0  0  0  0  0  0  0  0  0  0  0
   -2.2598    8.4688   -1.1407 H   0  0  0  0  0  0  0  0  0  0  0  0
  1  2  1  0
  1 31  1  0
  1 32  1  0
  1 33  1  0
  2  3  1  1
  2  4  1  0
  2  5  1  0
  4  5  1  0
  4 34  1  0
  4 35  1  0
  5  6  1  6
  5  7  1  0
  7  8  2  0
  7 30  1  0
  8  9  1  0
  8 36  1  0
  9 10  2  0
  9 37  1  0
 10 11  1  0
 10 30  1  0
 11 12  2  0
 11 38  1  0
 12 13  1  0
 12 15  1  0
 13 14  3  0
 15 16  2  0
 15 17  1  0
 17 18  1  0
 17 29  1  0
 18 19  1  0
 18 39  1  0
 18 40  1  0
 19 20  1  0
 19 41  1  0
 19 42  1  0
 20 21  1  0
 20 28  1  0
 21 22  2  0
 21 26  1  0
 22 23  1  0
 22 43  1  0
 23 24  2  0
 23 44  1  0
 24 25  1  0
 24 45  1  0
 25 26  2  0
 25 46  1  0
 26 27  1  0
 28 29  1  0
 28 47  1  0
 28 48  1  0
 29 49  1  0
 29 50  1  0
M  END

