
     RDKit          3D

 61 64  0  0  0  0  0  0  0  0999 V2000
    3.5499    0.6977   -0.7349 C   0  0  0  0  0  0  0  0  0  0  0  0
    2.2980    0.1014   -0.0745 C   0  0  2  0  0  0  0  0  0  0  0  0
    1.5845    0.9240    0.0825 H   0  0  0  0  0  0  0  0  0  0  0  0
    2.5876   -0.4248    1.2592 N   0  0  0  0  0  0  0  0  0  0  0  0
    2.4418    0.3216    2.3910 C   0  0  0  0  0  0  0  0  0  0  0  0
    2.1165    1.5024    2.3606 O   0  0  0  0  0  0  0  0  0  0  0  0
    2.7997   -0.3652    3.6955 C   0  0  0  0  0  0  0  0  0  0  0  0
    3.2405    0.5021    4.7074 C   0  0  0  0  0  0  0  0  0  0  0  0
    3.7506    0.0250    5.9132 C   0  0  0  0  0  0  0  0  0  0  0  0
    3.8175   -1.3543    6.1206 C   0  0  0  0  0  0  0  0  0  0  0  0
    3.3366   -2.2348    5.1508 C   0  0  0  0  0  0  0  0  0  0  0  0
    2.7988   -1.7690    3.9346 C   0  0  0  0  0  0  0  0  0  0  0  0
    2.2808   -2.6670    2.9649 N   0  0  0  0  0  0  0  0  0  0  0  0
    2.7905   -4.0403    2.8752 C   0  0  0  0  0  0  0  0  0  0  0  0
    1.9540   -5.0834    3.6274 C   0  0  0  0  0  0  0  0  0  0  0  0
    0.4674   -5.0067    3.2254 C   0  0  2  0  0  0  0  0  0  0  0  0
    0.2382   -5.4849    1.8620 N   0  0  0  0  0  0  0  0  0  0  0  0
    0.1609   -6.8157    1.5633 C   0  0  0  0  0  0  0  0  0  0  0  0
    0.3031   -7.6840    2.4134 O   0  0  0  0  0  0  0  0  0  0  0  0
   -0.1189   -7.1589    0.1090 C   0  0  1  0  0  0  0  0  0  0  0  0
    0.8065   -8.2296   -0.5403 C   0  0  0  0  0  0  0  0  0  0  0  0
   -0.4402   -8.8941   -1.1736 C   0  0  0  0  0  0  0  0  0  0  0  0
   -1.3156   -8.1205   -0.1577 C   0  0  0  0  0  0  0  0  0  0  0  0
   -0.0256   -3.5615    3.3785 C   0  0  0  0  0  0  0  0  0  0  0  0
    0.8555   -2.5596    2.6151 C   0  0  0  0  0  0  0  0  0  0  0  0
    1.6155   -0.9780   -0.9062 C   0  0  0  0  0  0  0  0  0  0  0  0
    0.2350   -0.9140   -1.1522 C   0  0  0  0  0  0  0  0  0  0  0  0
   -0.4157   -1.9180   -1.8760 C   0  0  0  0  0  0  0  0  0  0  0  0
    0.3068   -3.0109   -2.3650 C   0  0  0  0  0  0  0  0  0  0  0  0
    1.6836   -3.0877   -2.1285 C   0  0  0  0  0  0  0  0  0  0  0  0
    2.3307   -2.0784   -1.4087 C   0  0  0  0  0  0  0  0  0  0  0  0
    4.3463   -0.0537   -0.8552 H   0  0  0  0  0  0  0  0  0  0  0  0
    3.9414    1.5121   -0.1074 H   0  0  0  0  0  0  0  0  0  0  0  0
    3.3096    1.1079   -1.7285 H   0  0  0  0  0  0  0  0  0  0  0  0
    2.8064   -1.4109    1.3829 H   0  0  0  0  0  0  0  0  0  0  0  0
    3.1963    1.5723    4.4971 H   0  0  0  0  0  0  0  0  0  0  0  0
    4.1036    0.7213    6.6774 H   0  0  0  0  0  0  0  0  0  0  0  0
    4.2235   -1.7543    7.0536 H   0  0  0  0  0  0  0  0  0  0  0  0
    3.3543   -3.3054    5.3559 H   0  0  0  0  0  0  0  0  0  0  0  0
    3.8374   -4.0518    3.2098 H   0  0  0  0  0  0  0  0  0  0  0  0
    2.8026   -4.3177    1.8041 H   0  0  0  0  0  0  0  0  0  0  0  0
    2.0238   -4.9247    4.7163 H   0  0  0  0  0  0  0  0  0  0  0  0
    2.3330   -6.0969    3.4255 H   0  0  0  0  0  0  0  0  0  0  0  0
   -0.1029   -5.6755    3.8882 H   0  0  0  0  0  0  0  0  0  0  0  0
    0.1098   -4.8140    1.1144 H   0  0  0  0  0  0  0  0  0  0  0  0
   -0.1845   -6.2528   -0.5152 H   0  0  0  0  0  0  0  0  0  0  0  0
    1.2526   -8.8607    0.2425 H   0  0  0  0  0  0  0  0  0  0  0  0
    1.6005   -7.8673   -1.2118 H   0  0  0  0  0  0  0  0  0  0  0  0
   -0.4933   -9.9934   -1.1540 H   0  0  0  0  0  0  0  0  0  0  0  0
   -0.6099   -8.5566   -2.2085 H   0  0  0  0  0  0  0  0  0  0  0  0
   -1.5229   -8.7187    0.7419 H   0  0  0  0  0  0  0  0  0  0  0  0
   -2.2530   -7.6680   -0.5167 H   0  0  0  0  0  0  0  0  0  0  0  0
   -0.0180   -3.3041    4.4504 H   0  0  0  0  0  0  0  0  0  0  0  0
   -1.0699   -3.4736    3.0338 H   0  0  0  0  0  0  0  0  0  0  0  0
    0.5120   -1.5374    2.8174 H   0  0  0  0  0  0  0  0  0  0  0  0
    0.7438   -2.7052    1.5242 H   0  0  0  0  0  0  0  0  0  0  0  0
   -0.3368   -0.0633   -0.7706 H   0  0  0  0  0  0  0  0  0  0  0  0
   -1.4904   -1.8437   -2.0621 H   0  0  0  0  0  0  0  0  0  0  0  0
   -0.1978   -3.7935   -2.9378 H   0  0  0  0  0  0  0  0  0  0  0  0
    2.2593   -3.9330   -2.5149 H   0  0  0  0  0  0  0  0  0  0  0  0
    3.4091   -2.1501   -1.2432 H   0  0  0  0  0  0  0  0  0  0  0  0
  1  2  1  0
  1 32  1  0
  1 33  1  0
  1 34  1  0
  2  3  1  1
  2  4  1  0
  2 26  1  0
  4  5  1  0
  4 35  1  0
  5  6  2  0
  5  7  1  0
  7  8  2  0
  7 12  1  0
  8  9  1  0
  8 36  1  0
  9 10  2  0
  9 37  1  0
 10 11  1  0
 10 38  1  0
 11 12  2  0
 11 39  1  0
 12 13  1  0
 13 14  1  0
 13 25  1  0
 14 15  1  0
 14 40  1  0
 14 41  1  0
 15 16  1  0
 15 42  1  0
 15 43  1  0
 16 17  1  0
 16 24  1  0
 16 44  1  1
 17 18  1  0
 17 45  1  0
 18 19  2  0
 18 20  1  0
 20 21  1  0
 20 23  1  0
 20 46  1  6
 21 22  1  0
 21 47  1  0
 21 48  1  0
 22 23  1  0
 22 49  1  0
 22 50  1  0
 23 51  1  0
 23 52  1  0
 24 25  1  0
 24 53  1  0
 24 54  1  0
 25 55  1  0
 25 56  1  0
 26 27  2  0
 26 31  1  0
 27 28  1  0
 27 57  1  0
 28 29  2  0
 28 58  1  0
 29 30  1  0
 29 59  1  0
 30 31  2  0
 30 60  1  0
 31 61  1  0
M  END

