
     RDKit          3D

 50 51  0  0  0  0  0  0  0  0999 V2000
    9.9760   -1.6065    5.1179 C   0  0  0  0  0  0  0  0  0  0  0  0
    9.0805   -2.0177    3.9599 C   0  0  1  0  0  0  0  0  0  0  0  0
    7.6444   -2.5261    4.2606 C   0  0  0  0  0  0  0  0  0  0  0  0
    7.1183   -1.7218    3.0438 C   0  0  2  0  0  0  0  0  0  0  0  0
    6.9590   -2.5693    1.8779 N   0  0  0  0  0  0  0  0  0  0  0  0
    6.4615   -1.9309    0.6627 C   0  0  0  0  0  0  0  0  0  0  0  0
    7.5416   -1.5243   -0.3322 C   0  0  0  0  0  0  0  0  0  0  0  0
    7.6857   -0.1791   -0.6953 C   0  0  0  0  0  0  0  0  0  0  0  0
    8.6612    0.2354   -1.6085 C   0  0  0  0  0  0  0  0  0  0  0  0
    9.5210   -0.7069   -2.1723 C   0  0  0  0  0  0  0  0  0  0  0  0
    9.3868   -2.0540   -1.8207 C   0  0  0  0  0  0  0  0  0  0  0  0
    8.4064   -2.4817   -0.9157 C   0  0  0  0  0  0  0  0  0  0  0  0
    8.2868   -3.9626   -0.5938 C   0  0  0  0  0  0  0  0  0  0  0  0
    7.2141   -4.6367   -1.3130 N   0  0  0  0  0  0  0  0  0  0  0  0
    6.1521   -5.2408   -0.7107 C   0  0  0  0  0  0  0  0  0  0  0  0
    5.9241   -5.2268    0.4874 O   0  0  0  0  0  0  0  0  0  0  0  0
    5.3901   -5.8502   -1.6470 O   0  0  0  0  0  0  0  0  0  0  0  0
    4.1674   -6.5785   -1.3040 C   0  0  1  0  0  0  0  0  0  0  0  0
    3.1468   -5.6294   -0.6665 C   0  0  0  0  0  0  0  0  0  0  0  0
    3.6710   -7.0681   -2.6662 C   0  0  0  0  0  0  0  0  0  0  0  0
    4.5007   -7.7632   -0.3908 C   0  0  0  0  0  0  0  0  0  0  0  0
    8.4518   -0.9170    3.0637 C   0  0  0  0  0  0  0  0  0  0  0  0
   10.2512   -2.4733    5.7426 H   0  0  0  0  0  0  0  0  0  0  0  0
    9.4735   -0.8715    5.7702 H   0  0  0  0  0  0  0  0  0  0  0  0
   10.9120   -1.1466    4.7580 H   0  0  0  0  0  0  0  0  0  0  0  0
    9.6030   -2.7523    3.3263 H   0  0  0  0  0  0  0  0  0  0  0  0
    7.2578   -2.1235    5.2109 H   0  0  0  0  0  0  0  0  0  0  0  0
    7.4706   -3.6143    4.2420 H   0  0  0  0  0  0  0  0  0  0  0  0
    6.2118   -1.1071    3.2388 H   0  0  0  0  0  0  0  0  0  0  0  0
    6.3986   -3.3924    2.0887 H   0  0  0  0  0  0  0  0  0  0  0  0
    5.8483   -1.0366    0.8965 H   0  0  0  0  0  0  0  0  0  0  0  0
    5.7838   -2.6438    0.1700 H   0  0  0  0  0  0  0  0  0  0  0  0
    7.0201    0.5633   -0.2445 H   0  0  0  0  0  0  0  0  0  0  0  0
    8.7514    1.2930   -1.8699 H   0  0  0  0  0  0  0  0  0  0  0  0
   10.2944   -0.3989   -2.8806 H   0  0  0  0  0  0  0  0  0  0  0  0
   10.0635   -2.7949   -2.2588 H   0  0  0  0  0  0  0  0  0  0  0  0
    8.0882   -4.0925    0.4769 H   0  0  0  0  0  0  0  0  0  0  0  0
    9.2444   -4.4591   -0.8272 H   0  0  0  0  0  0  0  0  0  0  0  0
    7.2589   -4.6978   -2.3234 H   0  0  0  0  0  0  0  0  0  0  0  0
    2.9689   -4.7623   -1.3221 H   0  0  0  0  0  0  0  0  0  0  0  0
    3.4974   -5.2703    0.3091 H   0  0  0  0  0  0  0  0  0  0  0  0
    2.1881   -6.1533   -0.5272 H   0  0  0  0  0  0  0  0  0  0  0  0
    3.4713   -6.2168   -3.3347 H   0  0  0  0  0  0  0  0  0  0  0  0
    2.7418   -7.6461   -2.5494 H   0  0  0  0  0  0  0  0  0  0  0  0
    4.4251   -7.7118   -3.1441 H   0  0  0  0  0  0  0  0  0  0  0  0
    4.8824   -7.4176    0.5782 H   0  0  0  0  0  0  0  0  0  0  0  0
    5.2596   -8.4075   -0.8619 H   0  0  0  0  0  0  0  0  0  0  0  0
    3.5967   -8.3689   -0.2211 H   0  0  0  0  0  0  0  0  0  0  0  0
    8.3371    0.0335    3.6108 H   0  0  0  0  0  0  0  0  0  0  0  0
    8.9251   -0.7142    2.0924 H   0  0  0  0  0  0  0  0  0  0  0  0
  1  2  1  0
  1 23  1  0
  1 24  1  0
  1 25  1  0
  2  3  1  0
  2 22  1  0
  2 26  1  6
  3  4  1  0
  3 27  1  0
  3 28  1  0
  4  5  1  0
  4 22  1  0
  4 29  1  1
  5  6  1  0
  5 30  1  0
  6  7  1  0
  6 31  1  0
  6 32  1  0
  7  8  2  0
  7 12  1  0
  8  9  1  0
  8 33  1  0
  9 10  2  0
  9 34  1  0
 10 11  1  0
 10 35  1  0
 11 12  2  0
 11 36  1  0
 12 13  1  0
 13 14  1  0
 13 37  1  0
 13 38  1  0
 14 15  1  0
 14 39  1  0
 15 16  2  0
 15 17  1  0
 18 17  1  6
 18 19  1  0
 18 20  1  0
 18 21  1  0
 19 40  1  0
 19 41  1  0
 19 42  1  0
 20 43  1  0
 20 44  1  0
 20 45  1  0
 21 46  1  0
 21 47  1  0
 21 48  1  0
 22 49  1  0
 22 50  1  0
M  END

