
     RDKit          3D

 35 36  0  0  0  0  0  0  0  0999 V2000
    0.8538    0.0691   -0.0787 C   0  0  0  0  0  0  0  0  0  0  0  0
    2.1515   -0.1233   -0.3369 C   0  0  0  0  0  0  0  0  0  0  0  0
    2.8944   -1.2687    0.0258 N   0  0  0  0  0  0  0  0  0  0  0  0
    4.2495   -1.2906    0.4031 C   0  0  0  0  0  0  0  0  0  0  0  0
    5.0945   -0.1117    0.6228 C   0  0  0  0  0  0  0  0  0  0  0  0
    6.3189   -0.1707    0.6562 O   0  0  0  0  0  0  0  0  0  0  0  0
    4.4276    1.0296    0.8076 O   0  0  0  0  0  0  0  0  0  0  0  0
    5.1895    2.2381    1.0372 C   0  0  0  0  0  0  0  0  0  0  0  0
    5.5372    2.4083    2.5052 C   0  0  0  0  0  0  0  0  0  0  0  0
    4.6652   -2.6025    0.6089 C   0  0  0  0  0  0  0  0  0  0  0  0
    5.9993   -3.1048    1.0815 C   0  0  0  0  0  0  0  0  0  0  0  0
    6.9901   -3.3625   -0.0712 C   0  0  0  0  0  0  0  0  0  0  0  0
    7.2786   -4.4693   -0.4422 O   0  0  0  0  0  0  0  0  0  0  0  0
    7.4972   -2.2628   -0.6334 O   0  0  0  0  0  0  0  0  0  0  0  0
    3.5370   -3.4352    0.3153 C   0  0  0  0  0  0  0  0  0  0  0  0
    3.3797   -4.8363    0.3060 C   0  0  0  0  0  0  0  0  0  0  0  0
    2.1490   -5.3492   -0.0711 C   0  0  0  0  0  0  0  0  0  0  0  0
    1.8986   -7.0808   -0.0997 Cl  0  0  0  0  0  0  0  0  0  0  0  0
    1.0805   -4.5046   -0.4535 C   0  0  0  0  0  0  0  0  0  0  0  0
    1.2214   -3.1233   -0.4475 C   0  0  0  0  0  0  0  0  0  0  0  0
    2.4559   -2.5847   -0.0435 C   0  0  0  0  0  0  0  0  0  0  0  0
    0.3638    0.9710   -0.4496 H   0  0  0  0  0  0  0  0  0  0  0  0
    0.2540   -0.6309    0.5048 H   0  0  0  0  0  0  0  0  0  0  0  0
    2.7305    0.6295   -0.8732 H   0  0  0  0  0  0  0  0  0  0  0  0
    4.5298    3.0434    0.6847 H   0  0  0  0  0  0  0  0  0  0  0  0
    6.0937    2.2095    0.4128 H   0  0  0  0  0  0  0  0  0  0  0  0
    4.6311    2.3900    3.1301 H   0  0  0  0  0  0  0  0  0  0  0  0
    6.0391    3.3774    2.6547 H   0  0  0  0  0  0  0  0  0  0  0  0
    6.2202    1.6151    2.8425 H   0  0  0  0  0  0  0  0  0  0  0  0
    5.8710   -4.0611    1.6039 H   0  0  0  0  0  0  0  0  0  0  0  0
    6.4521   -2.3832    1.7785 H   0  0  0  0  0  0  0  0  0  0  0  0
    7.1560   -1.4554   -0.1838 H   0  0  0  0  0  0  0  0  0  0  0  0
    4.2091   -5.4995    0.5550 H   0  0  0  0  0  0  0  0  0  0  0  0
    0.1362   -4.9563   -0.7615 H   0  0  0  0  0  0  0  0  0  0  0  0
    0.3937   -2.4891   -0.7612 H   0  0  0  0  0  0  0  0  0  0  0  0
  1  2  2  0
  1 22  1  0
  1 23  1  0
  2  3  1  0
  2 24  1  0
  3  4  1  0
  3 21  1  0
  4  5  1  0
  4 10  2  0
  5  6  2  0
  5  7  1  0
  7  8  1  0
  8  9  1  0
  8 25  1  0
  8 26  1  0
  9 27  1  0
  9 28  1  0
  9 29  1  0
 10 11  1  0
 10 15  1  0
 11 12  1  0
 11 30  1  0
 11 31  1  0
 12 13  2  0
 12 14  1  0
 14 32  1  0
 15 16  1  0
 15 21  2  0
 16 17  2  0
 16 33  1  0
 17 18  1  0
 17 19  1  0
 19 20  2  0
 19 34  1  0
 20 21  1  0
 20 35  1  0
M  END

