
     RDKit          3D

 47 47  0  0  0  0  0  0  0  0999 V2000
    2.4588   -1.7888   -1.7997 C   0  0  0  0  0  0  0  0  0  0  0  0
    3.0277   -0.7597   -0.9902 O   0  0  0  0  0  0  0  0  0  0  0  0
    3.9171    0.0530   -1.5932 C   0  0  0  0  0  0  0  0  0  0  0  0
    4.2148   -0.0462   -2.7594 O   0  0  0  0  0  0  0  0  0  0  0  0
    4.4904    1.0551   -0.6130 C   0  0  0  0  0  0  0  0  0  0  0  0
    5.2850    2.1900   -1.2764 C   0  0  1  0  0  0  0  0  0  0  0  0
    4.4203    3.1441   -2.1232 C   0  0  0  0  0  0  0  0  0  0  0  0
    3.5553    4.0676   -1.2485 C   0  0  2  0  0  0  0  0  0  0  0  0
    2.7620    5.0175   -2.0246 N   0  0  0  0  0  0  0  0  0  0  0  0
    3.2783    5.9669   -2.8608 C   0  0  0  0  0  0  0  0  0  0  0  0
    4.4644    6.1997   -3.0037 O   0  0  0  0  0  0  0  0  0  0  0  0
    2.2669    6.6063   -3.4899 O   0  0  0  0  0  0  0  0  0  0  0  0
    2.5072    7.6922   -4.4439 C   0  0  1  0  0  0  0  0  0  0  0  0
    3.3114    7.1722   -5.6402 C   0  0  0  0  0  0  0  0  0  0  0  0
    1.0924    8.0866   -4.8729 C   0  0  0  0  0  0  0  0  0  0  0  0
    3.2071    8.8620   -3.7437 C   0  0  0  0  0  0  0  0  0  0  0  0
    4.4106    4.7764   -0.1837 C   0  0  0  0  0  0  0  0  0  0  0  0
    5.1601    3.7955    0.5997 N   0  0  0  0  0  0  0  0  0  0  0  0
    5.8209    4.4039    1.7397 C   0  0  0  0  0  0  0  0  0  0  0  0
    6.2903    3.4068    2.7159 C   0  0  0  0  0  0  0  0  0  0  0  0
    6.6691    2.6227    3.4795 N   0  0  0  0  0  0  0  0  0  0  0  0
    6.0647    3.0041   -0.2355 C   0  0  0  0  0  0  0  0  0  0  0  0
    1.7673   -2.3415   -1.1517 H   0  0  0  0  0  0  0  0  0  0  0  0
    3.2396   -2.4622   -2.1854 H   0  0  0  0  0  0  0  0  0  0  0  0
    1.9183   -1.3603   -2.6575 H   0  0  0  0  0  0  0  0  0  0  0  0
    5.1473    0.4821    0.0660 H   0  0  0  0  0  0  0  0  0  0  0  0
    3.6814    1.4266    0.0337 H   0  0  0  0  0  0  0  0  0  0  0  0
    6.0175    1.7192   -1.9513 H   0  0  0  0  0  0  0  0  0  0  0  0
    3.7839    2.5760   -2.8186 H   0  0  0  0  0  0  0  0  0  0  0  0
    5.0812    3.7768   -2.7351 H   0  0  0  0  0  0  0  0  0  0  0  0
    2.8183    3.4544   -0.7063 H   0  0  0  0  0  0  0  0  0  0  0  0
    1.7554    4.9138   -2.0363 H   0  0  0  0  0  0  0  0  0  0  0  0
    2.8040    6.3073   -6.0958 H   0  0  0  0  0  0  0  0  0  0  0  0
    4.3211    6.8701   -5.3354 H   0  0  0  0  0  0  0  0  0  0  0  0
    3.3927    7.9609   -6.4045 H   0  0  0  0  0  0  0  0  0  0  0  0
    0.5756    7.2320   -5.3356 H   0  0  0  0  0  0  0  0  0  0  0  0
    1.1301    8.9087   -5.6035 H   0  0  0  0  0  0  0  0  0  0  0  0
    0.5023    8.4178   -4.0048 H   0  0  0  0  0  0  0  0  0  0  0  0
    4.2158    8.5793   -3.4173 H   0  0  0  0  0  0  0  0  0  0  0  0
    2.6261    9.1857   -2.8657 H   0  0  0  0  0  0  0  0  0  0  0  0
    3.2844    9.7162   -4.4345 H   0  0  0  0  0  0  0  0  0  0  0  0
    3.7467    5.3416    0.4907 H   0  0  0  0  0  0  0  0  0  0  0  0
    5.0791    5.5053   -0.6876 H   0  0  0  0  0  0  0  0  0  0  0  0
    5.1081    5.0658    2.2591 H   0  0  0  0  0  0  0  0  0  0  0  0
    6.6920    5.0409    1.4587 H   0  0  0  0  0  0  0  0  0  0  0  0
    6.6427    2.3296    0.4158 H   0  0  0  0  0  0  0  0  0  0  0  0
    6.7974    3.6610   -0.7577 H   0  0  0  0  0  0  0  0  0  0  0  0
  1  2  1  0
  1 23  1  0
  1 24  1  0
  1 25  1  0
  2  3  1  0
  3  4  2  0
  3  5  1  0
  5  6  1  0
  5 26  1  0
  5 27  1  0
  6  7  1  0
  6 22  1  0
  6 28  1  6
  7  8  1  0
  7 29  1  0
  7 30  1  0
  8  9  1  0
  8 17  1  0
  8 31  1  1
  9 10  1  0
  9 32  1  0
 10 11  2  0
 10 12  1  0
 13 12  1  1
 13 14  1  0
 13 15  1  0
 13 16  1  0
 14 33  1  0
 14 34  1  0
 14 35  1  0
 15 36  1  0
 15 37  1  0
 15 38  1  0
 16 39  1  0
 16 40  1  0
 16 41  1  0
 17 18  1  0
 17 42  1  0
 17 43  1  0
 18 19  1  0
 18 22  1  0
 19 20  1  0
 19 44  1  0
 19 45  1  0
 20 21  3  0
 22 46  1  0
 22 47  1  0
M  END

