
     RDKit          3D

 66 68  0  0  0  0  0  0  0  0999 V2000
   16.5587   -8.6577    6.4061 C   0  0  0  0  0  0  0  0  0  0  0  0
   16.0467   -7.7747    7.3735 O   0  0  0  0  0  0  0  0  0  0  0  0
   14.8890   -7.1051    7.1111 C   0  0  0  0  0  0  0  0  0  0  0  0
   14.4234   -6.2396    8.1100 C   0  0  0  0  0  0  0  0  0  0  0  0
   13.2535   -5.5038    7.9325 C   0  0  0  0  0  0  0  0  0  0  0  0
   12.4858   -5.6177    6.7533 C   0  0  0  0  0  0  0  0  0  0  0  0
   11.2737   -4.9170    6.5636 N   0  0  0  0  0  0  0  0  0  0  0  0
   11.1052   -4.1620    5.3229 C   0  0  0  0  0  0  0  0  0  0  0  0
    9.6311   -3.8554    5.0728 C   0  0  0  0  0  0  0  0  0  0  0  0
    9.0689   -3.1429    6.2080 N   0  0  0  0  0  0  0  0  0  0  0  0
    7.8342   -2.3974    5.9915 C   0  0  2  0  0  0  0  0  0  0  0  0
    7.7942   -2.1385    4.9245 H   0  0  0  0  0  0  0  0  0  0  0  0
    7.8740   -1.0679    6.7808 C   0  0  0  0  0  0  0  0  0  0  0  0
    6.6643   -0.2831    6.5893 N   0  0  0  0  0  0  0  0  0  0  0  0
    6.7587    0.9868    6.0713 C   0  0  0  0  0  0  0  0  0  0  0  0
    7.8116    1.5173    5.7716 O   0  0  0  0  0  0  0  0  0  0  0  0
    5.5403    1.5569    5.9451 O   0  0  0  0  0  0  0  0  0  0  0  0
    5.3733    2.9081    5.4024 C   0  0  1  0  0  0  0  0  0  0  0  0
    5.8816    2.9622    3.9578 C   0  0  0  0  0  0  0  0  0  0  0  0
    3.8568    3.1079    5.4485 C   0  0  0  0  0  0  0  0  0  0  0  0
    6.0801    3.9276    6.3021 C   0  0  0  0  0  0  0  0  0  0  0  0
    5.4219   -0.9613    6.9302 C   0  0  0  0  0  0  0  0  0  0  0  0
    5.2881   -2.2623    6.1310 C   0  0  0  0  0  0  0  0  0  0  0  0
    6.5240   -3.1434    6.3381 C   0  0  1  0  0  0  0  0  0  0  0  0
    6.5635   -3.4257    7.4024 H   0  0  0  0  0  0  0  0  0  0  0  0
    6.4024   -4.4313    5.6911 O   0  0  0  0  0  0  0  0  0  0  0  0
    6.3013   -4.5381    4.3506 C   0  0  0  0  0  0  0  0  0  0  0  0
    6.1619   -5.9860    3.9438 C   0  0  0  0  0  0  0  0  0  0  0  0
    6.3312   -3.6049    3.5850 O   0  0  0  0  0  0  0  0  0  0  0  0
    9.2086   -3.9126    7.4328 C   0  0  0  0  0  0  0  0  0  0  0  0
   10.6801   -4.2366    7.7019 C   0  0  0  0  0  0  0  0  0  0  0  0
   12.9631   -6.4978    5.7636 C   0  0  0  0  0  0  0  0  0  0  0  0
   14.1447   -7.2243    5.9276 C   0  0  0  0  0  0  0  0  0  0  0  0
   17.4861   -9.0770    6.8203 H   0  0  0  0  0  0  0  0  0  0  0  0
   16.7955   -8.1420    5.4567 H   0  0  0  0  0  0  0  0  0  0  0  0
   15.8601   -9.4874    6.1893 H   0  0  0  0  0  0  0  0  0  0  0  0
   15.0082   -6.1443    9.0275 H   0  0  0  0  0  0  0  0  0  0  0  0
   12.9461   -4.8241    8.7274 H   0  0  0  0  0  0  0  0  0  0  0  0
   11.5008   -4.7412    4.4783 H   0  0  0  0  0  0  0  0  0  0  0  0
   11.6693   -3.2049    5.3657 H   0  0  0  0  0  0  0  0  0  0  0  0
    9.1085   -4.8181    4.8757 H   0  0  0  0  0  0  0  0  0  0  0  0
    9.5364   -3.2334    4.1697 H   0  0  0  0  0  0  0  0  0  0  0  0
    8.7322   -0.4757    6.4470 H   0  0  0  0  0  0  0  0  0  0  0  0
    8.0066   -1.2784    7.8598 H   0  0  0  0  0  0  0  0  0  0  0  0
    5.3845    2.1914    3.3480 H   0  0  0  0  0  0  0  0  0  0  0  0
    6.9661    2.8019    3.9156 H   0  0  0  0  0  0  0  0  0  0  0  0
    5.6499    3.9456    3.5195 H   0  0  0  0  0  0  0  0  0  0  0  0
    3.3463    2.3497    4.8352 H   0  0  0  0  0  0  0  0  0  0  0  0
    3.5918    4.1037    5.0621 H   0  0  0  0  0  0  0  0  0  0  0  0
    3.4854    3.0252    6.4814 H   0  0  0  0  0  0  0  0  0  0  0  0
    7.1668    3.7773    6.2891 H   0  0  0  0  0  0  0  0  0  0  0  0
    5.7207    3.8364    7.3393 H   0  0  0  0  0  0  0  0  0  0  0  0
    5.8575    4.9481    5.9528 H   0  0  0  0  0  0  0  0  0  0  0  0
    4.5795   -0.2927    6.7293 H   0  0  0  0  0  0  0  0  0  0  0  0
    5.4188   -1.1852    8.0157 H   0  0  0  0  0  0  0  0  0  0  0  0
    5.1752   -2.0259    5.0636 H   0  0  0  0  0  0  0  0  0  0  0  0
    4.3895   -2.8131    6.4559 H   0  0  0  0  0  0  0  0  0  0  0  0
    5.3516   -6.4671    4.5112 H   0  0  0  0  0  0  0  0  0  0  0  0
    7.0915   -6.5267    4.1824 H   0  0  0  0  0  0  0  0  0  0  0  0
    5.9660   -6.0470    2.8667 H   0  0  0  0  0  0  0  0  0  0  0  0
    8.6390   -4.8674    7.3906 H   0  0  0  0  0  0  0  0  0  0  0  0
    8.8230   -3.3342    8.2870 H   0  0  0  0  0  0  0  0  0  0  0  0
   10.7396   -4.8928    8.5832 H   0  0  0  0  0  0  0  0  0  0  0  0
   11.2141   -3.2915    7.9463 H   0  0  0  0  0  0  0  0  0  0  0  0
   12.3882   -6.6403    4.8463 H   0  0  0  0  0  0  0  0  0  0  0  0
   14.4640   -7.8931    5.1277 H   0  0  0  0  0  0  0  0  0  0  0  0
  1  2  1  0
  1 34  1  0
  1 35  1  0
  1 36  1  0
  2  3  1  0
  3  4  2  0
  3 33  1  0
  4  5  1  0
  4 37  1  0
  5  6  2  0
  5 38  1  0
  6  7  1  0
  6 32  1  0
  7  8  1  0
  7 31  1  0
  8  9  1  0
  8 39  1  0
  8 40  1  0
  9 10  1  0
  9 41  1  0
  9 42  1  0
 10 11  1  0
 10 30  1  0
 11 12  1  6
 11 13  1  0
 11 24  1  0
 13 14  1  0
 13 43  1  0
 13 44  1  0
 14 15  1  0
 14 22  1  0
 15 16  2  0
 15 17  1  0
 18 17  1  1
 18 19  1  0
 18 20  1  0
 18 21  1  0
 19 45  1  0
 19 46  1  0
 19 47  1  0
 20 48  1  0
 20 49  1  0
 20 50  1  0
 21 51  1  0
 21 52  1  0
 21 53  1  0
 22 23  1  0
 22 54  1  0
 22 55  1  0
 23 24  1  0
 23 56  1  0
 23 57  1  0
 24 25  1  1
 24 26  1  0
 26 27  1  0
 27 28  1  0
 27 29  2  0
 28 58  1  0
 28 59  1  0
 28 60  1  0
 30 31  1  0
 30 61  1  0
 30 62  1  0
 31 63  1  0
 31 64  1  0
 32 33  2  0
 32 65  1  0
 33 66  1  0
M  END

