
     RDKit          3D

 41 41  0  0  0  0  0  0  0  0999 V2000
    0.9490   -0.0306    0.6285 C   0  0  0  0  0  0  0  0  0  0  0  0
    2.4290    0.3027    0.3926 C   0  0  1  0  0  0  0  0  0  0  0  0
    2.8118    0.8033   -0.9244 N   0  0  0  0  0  0  0  0  0  0  0  0
    2.1602    1.9263   -1.5888 C   0  0  1  0  0  0  0  0  0  0  0  0
    2.1045    3.1540   -0.6673 C   0  0  0  0  0  0  0  0  0  0  0  0
    3.0092    2.2389   -2.8588 C   0  0  0  0  0  0  0  0  0  0  0  0
    2.2502    3.1945   -3.7771 C   0  0  0  0  0  0  0  0  0  0  0  0
    0.4682    2.7714   -3.5604 S   0  0  2  0  0  0  0  0  0  0  0  0
   -0.0070    2.0150   -4.7271 O   0  0  0  0  0  0  0  0  0  0  0  0
   -0.2532    3.9649   -3.0900 O   0  0  0  0  0  0  0  0  0  0  0  0
    0.7386    1.6223   -2.1540 C   0  0  0  0  0  0  0  0  0  0  0  0
    2.9792    1.1612    1.5530 C   0  0  0  0  0  0  0  0  0  0  0  0
    2.3078    1.4997    2.5010 O   0  0  0  0  0  0  0  0  0  0  0  0
    4.2822    1.4085    1.4000 O   0  0  0  0  0  0  0  0  0  0  0  0
    5.0874    2.0968    2.4226 C   0  0  1  0  0  0  0  0  0  0  0  0
    5.0858    1.2783    3.7179 C   0  0  0  0  0  0  0  0  0  0  0  0
    6.4822    2.1192    1.7957 C   0  0  0  0  0  0  0  0  0  0  0  0
    4.5666    3.5204    2.6429 C   0  0  0  0  0  0  0  0  0  0  0  0
    0.5787   -0.6961   -0.1662 H   0  0  0  0  0  0  0  0  0  0  0  0
    0.3206    0.8706    0.6563 H   0  0  0  0  0  0  0  0  0  0  0  0
    0.8207   -0.5384    1.5951 H   0  0  0  0  0  0  0  0  0  0  0  0
    3.0010   -0.6369    0.4953 H   0  0  0  0  0  0  0  0  0  0  0  0
    2.9419    0.0321   -1.5727 H   0  0  0  0  0  0  0  0  0  0  0  0
    3.1202    3.4560   -0.3757 H   0  0  0  0  0  0  0  0  0  0  0  0
    1.5327    2.9442    0.2479 H   0  0  0  0  0  0  0  0  0  0  0  0
    1.6025    3.9958   -1.1650 H   0  0  0  0  0  0  0  0  0  0  0  0
    3.1935    1.2902   -3.3914 H   0  0  0  0  0  0  0  0  0  0  0  0
    3.9907    2.6377   -2.5628 H   0  0  0  0  0  0  0  0  0  0  0  0
    2.4744    3.0699   -4.8444 H   0  0  0  0  0  0  0  0  0  0  0  0
    2.3480    4.2515   -3.4964 H   0  0  0  0  0  0  0  0  0  0  0  0
    0.6794    0.6115   -2.5806 H   0  0  0  0  0  0  0  0  0  0  0  0
   -0.0869    1.7876   -1.4514 H   0  0  0  0  0  0  0  0  0  0  0  0
    5.4210    0.2478    3.5215 H   0  0  0  0  0  0  0  0  0  0  0  0
    4.0857    1.2470    4.1688 H   0  0  0  0  0  0  0  0  0  0  0  0
    5.7828    1.7300    4.4409 H   0  0  0  0  0  0  0  0  0  0  0  0
    6.8361    1.0955    1.6014 H   0  0  0  0  0  0  0  0  0  0  0  0
    7.1966    2.6146    2.4706 H   0  0  0  0  0  0  0  0  0  0  0  0
    6.4680    2.6642    0.8398 H   0  0  0  0  0  0  0  0  0  0  0  0
    3.5557    3.5141    3.0694 H   0  0  0  0  0  0  0  0  0  0  0  0
    4.5499    4.0786    1.6940 H   0  0  0  0  0  0  0  0  0  0  0  0
    5.2374    4.0528    3.3351 H   0  0  0  0  0  0  0  0  0  0  0  0
  1  2  1  0
  1 19  1  0
  1 20  1  0
  1 21  1  0
  2  3  1  0
  2 12  1  0
  2 22  1  1
  4  3  1  1
  3 23  1  0
  4  5  1  0
  4  6  1  0
  4 11  1  0
  5 24  1  0
  5 25  1  0
  5 26  1  0
  6  7  1  0
  6 27  1  0
  6 28  1  0
  8  7  1  6
  7 29  1  0
  7 30  1  0
  8  9  2  0
  8 10  2  0
  8 11  1  0
 11 31  1  0
 11 32  1  0
 12 13  2  0
 12 14  1  0
 15 14  1  6
 15 16  1  0
 15 17  1  0
 15 18  1  0
 16 33  1  0
 16 34  1  0
 16 35  1  0
 17 36  1  0
 17 37  1  0
 17 38  1  0
 18 39  1  0
 18 40  1  0
 18 41  1  0
M  END

