
     RDKit          3D

 33 35  0  0  0  0  0  0  0  0999 V2000
    0.9089    1.8526    0.4042 Br  0  0  0  0  0  0  0  0  0  0  0  0
    2.4728    1.0412   -0.3509 C   0  0  0  0  0  0  0  0  0  0  0  0
    3.6025    1.8494   -0.5069 C   0  0  0  0  0  0  0  0  0  0  0  0
    4.7620    1.3178   -1.0749 C   0  0  0  0  0  0  0  0  0  0  0  0
    4.7802   -0.0151   -1.4901 C   0  0  0  0  0  0  0  0  0  0  0  0
    3.6444   -0.8101   -1.3271 C   0  0  0  0  0  0  0  0  0  0  0  0
    2.4668   -0.3094   -0.7458 C   0  0  0  0  0  0  0  0  0  0  0  0
    1.2392   -1.1877   -0.5984 C   0  0  0  0  0  0  0  0  0  0  0  0
    1.5738   -2.5955   -0.5395 N   0  0  0  0  0  0  0  0  0  0  0  0
    0.6081   -3.5916   -0.5792 C   0  0  0  0  0  0  0  0  0  0  0  0
    0.9559   -4.9305   -0.2907 C   0  0  0  0  0  0  0  0  0  0  0  0
    0.0048   -5.9352   -0.3678 C   0  0  0  0  0  0  0  0  0  0  0  0
   -1.3005   -5.5739   -0.7423 C   0  0  0  0  0  0  0  0  0  0  0  0
   -2.3185   -6.5563   -0.8448 N   0  0  0  0  0  0  0  0  0  0  0  0
   -3.6253   -6.3501   -1.1913 C   0  0  0  0  0  0  0  0  0  0  0  0
   -4.2383   -7.5870   -1.1584 C   0  0  0  0  0  0  0  0  0  0  0  0
   -3.2058   -8.4837   -0.7772 C   0  0  0  0  0  0  0  0  0  0  0  0
   -2.0539   -7.8538   -0.5909 N   0  0  0  0  0  0  0  0  0  0  0  0
   -1.6525   -4.3260   -1.0087 N   0  0  0  0  0  0  0  0  0  0  0  0
   -0.7390   -3.3576   -0.9252 C   0  0  0  0  0  0  0  0  0  0  0  0
    3.5686    2.8911   -0.1838 H   0  0  0  0  0  0  0  0  0  0  0  0
    5.6448    1.9506   -1.1939 H   0  0  0  0  0  0  0  0  0  0  0  0
    5.6781   -0.4387   -1.9463 H   0  0  0  0  0  0  0  0  0  0  0  0
    3.6531   -1.8486   -1.6642 H   0  0  0  0  0  0  0  0  0  0  0  0
    0.5853   -1.0147   -1.4723 H   0  0  0  0  0  0  0  0  0  0  0  0
    0.6540   -0.8570    0.2807 H   0  0  0  0  0  0  0  0  0  0  0  0
    2.3683   -2.8100    0.0547 H   0  0  0  0  0  0  0  0  0  0  0  0
    1.9851   -5.1745   -0.0111 H   0  0  0  0  0  0  0  0  0  0  0  0
    0.2376   -6.9771   -0.1529 H   0  0  0  0  0  0  0  0  0  0  0  0
   -3.9823   -5.3514   -1.4240 H   0  0  0  0  0  0  0  0  0  0  0  0
   -5.2793   -7.8129   -1.3771 H   0  0  0  0  0  0  0  0  0  0  0  0
   -3.2630   -9.5628   -0.6331 H   0  0  0  0  0  0  0  0  0  0  0  0
   -1.0935   -2.3464   -1.1433 H   0  0  0  0  0  0  0  0  0  0  0  0
  1  2  1  0
  2  3  2  0
  2  7  1  0
  3  4  1  0
  3 21  1  0
  4  5  2  0
  4 22  1  0
  5  6  1  0
  5 23  1  0
  6  7  2  0
  6 24  1  0
  7  8  1  0
  8  9  1  0
  8 25  1  0
  8 26  1  0
  9 10  1  0
  9 27  1  0
 10 11  2  0
 10 20  1  0
 11 12  1  0
 11 28  1  0
 12 13  2  0
 12 29  1  0
 13 14  1  0
 13 19  1  0
 14 15  1  0
 14 18  1  0
 15 16  2  0
 15 30  1  0
 16 17  1  0
 16 31  1  0
 17 18  2  0
 17 32  1  0
 19 20  2  0
 20 33  1  0
M  END

