
     RDKit          3D

 26 27  0  0  0  0  0  0  0  0999 V2000
    1.4183   -0.6181   -1.2376 C   0  0  0  0  0  0  0  0  0  0  0  0
    2.7129   -0.1861   -0.5752 C   0  0  0  0  0  0  0  0  0  0  0  0
    3.1732    0.9246   -0.7333 O   0  0  0  0  0  0  0  0  0  0  0  0
    3.4009   -1.2209    0.3015 C   0  0  0  0  0  0  0  0  0  0  0  0
    4.6467   -0.6835    0.9963 C   0  0  0  0  0  0  0  0  0  0  0  0
    5.3535   -1.7246    1.8084 C   0  0  0  0  0  0  0  0  0  0  0  0
    5.0202   -2.9890    1.8937 N   0  0  0  0  0  0  0  0  0  0  0  0
    5.9492   -3.5629    2.7373 C   0  0  0  0  0  0  0  0  0  0  0  0
    6.0902   -4.8858    3.1920 C   0  0  0  0  0  0  0  0  0  0  0  0
    4.9638   -6.1107    2.6758 Cl  0  0  0  0  0  0  0  0  0  0  0  0
    7.1383   -5.1990    4.0558 C   0  0  0  0  0  0  0  0  0  0  0  0
    8.0490   -4.2079    4.4728 C   0  0  0  0  0  0  0  0  0  0  0  0
    7.9425   -2.8847    4.0441 C   0  0  0  0  0  0  0  0  0  0  0  0
    6.8852   -2.5893    3.1778 C   0  0  0  0  0  0  0  0  0  0  0  0
    6.4705   -1.4230    2.5623 N   0  0  0  0  0  0  0  0  0  0  0  0
    6.9054   -0.5127    2.6436 H   0  0  0  0  0  0  0  0  0  0  0  0
    1.0695    0.1668   -1.9212 H   0  0  0  0  0  0  0  0  0  0  0  0
    0.6482   -0.8022   -0.4693 H   0  0  0  0  0  0  0  0  0  0  0  0
    1.5532   -1.5647   -1.7857 H   0  0  0  0  0  0  0  0  0  0  0  0
    3.6543   -2.0982   -0.3188 H   0  0  0  0  0  0  0  0  0  0  0  0
    2.6777   -1.6142    1.0366 H   0  0  0  0  0  0  0  0  0  0  0  0
    4.3777    0.1723    1.6401 H   0  0  0  0  0  0  0  0  0  0  0  0
    5.3365   -0.2650    0.2428 H   0  0  0  0  0  0  0  0  0  0  0  0
    7.2457   -6.2264    4.4069 H   0  0  0  0  0  0  0  0  0  0  0  0
    8.8586   -4.4894    5.1504 H   0  0  0  0  0  0  0  0  0  0  0  0
    8.6527   -2.1229    4.3725 H   0  0  0  0  0  0  0  0  0  0  0  0
  1  2  1  0
  1 17  1  0
  1 18  1  0
  1 19  1  0
  2  3  2  0
  2  4  1  0
  4  5  1  0
  4 20  1  0
  4 21  1  0
  5  6  1  0
  5 22  1  0
  5 23  1  0
  6  7  2  0
  6 15  1  0
  7  8  1  0
  8  9  2  0
  8 14  1  0
  9 10  1  0
  9 11  1  0
 11 12  2  0
 11 24  1  0
 12 13  1  0
 12 25  1  0
 13 14  2  0
 13 26  1  0
 14 15  1  0
 15 16  1  0
M  END

