
     RDKit          3D

 42 44  0  0  0  0  0  0  0  0999 V2000
    4.9720   -2.2821    0.6600 C   0  0  0  0  0  0  0  0  0  0  0  0
    4.2355   -0.9984    0.3774 C   0  0  0  0  0  0  0  0  0  0  0  0
    4.9148    0.2221    0.3094 C   0  0  0  0  0  0  0  0  0  0  0  0
    4.2611    1.4283    0.0605 C   0  0  0  0  0  0  0  0  0  0  0  0
    2.8718    1.4176   -0.1307 C   0  0  0  0  0  0  0  0  0  0  0  0
    2.1756    2.6768   -0.3946 C   0  0  0  0  0  0  0  0  0  0  0  0
    2.6788    3.8768   -0.4816 N   0  0  0  0  0  0  0  0  0  0  0  0
    1.6044    4.7012   -0.7409 C   0  0  0  0  0  0  0  0  0  0  0  0
    0.4701    3.9486   -0.8017 C   0  0  0  0  0  0  0  0  0  0  0  0
    0.8267    2.6524   -0.5806 O   0  0  0  0  0  0  0  0  0  0  0  0
    2.1633    0.2071   -0.0726 C   0  0  0  0  0  0  0  0  0  0  0  0
    2.8235   -1.0097    0.1838 C   0  0  0  0  0  0  0  0  0  0  0  0
    2.1369   -2.2077    0.2848 N   0  0  0  0  0  0  0  0  0  0  0  0
    0.7246   -2.4024   -0.0123 C   0  0  1  0  0  0  0  0  0  0  0  0
    0.4007   -2.4255   -1.5234 C   0  0  0  0  0  0  0  0  0  0  0  0
    0.9250   -3.6884   -2.2201 C   0  0  0  0  0  0  0  0  0  0  0  0
    0.4453   -4.9876   -1.5498 C   0  0  2  0  0  0  0  0  0  0  0  0
   -1.0386   -5.2621   -1.8301 C   0  0  0  0  0  0  0  0  0  0  0  0
   -1.7666   -4.5401   -2.4548 O   0  0  0  0  0  0  0  0  0  0  0  0
   -1.5172   -6.4266   -1.3267 O   0  0  0  0  0  0  0  0  0  0  0  0
    0.7599   -4.9648   -0.0337 C   0  0  0  0  0  0  0  0  0  0  0  0
    0.2257   -3.6989    0.6523 C   0  0  0  0  0  0  0  0  0  0  0  0
    6.0478   -2.1019    0.7953 H   0  0  0  0  0  0  0  0  0  0  0  0
    4.8645   -3.0127   -0.1639 H   0  0  0  0  0  0  0  0  0  0  0  0
    4.6001   -2.7751    1.5769 H   0  0  0  0  0  0  0  0  0  0  0  0
    5.9983    0.2235    0.4602 H   0  0  0  0  0  0  0  0  0  0  0  0
    4.8042    2.3723    0.0101 H   0  0  0  0  0  0  0  0  0  0  0  0
    1.7142    5.7771   -0.8669 H   0  0  0  0  0  0  0  0  0  0  0  0
   -0.5820    4.1518   -0.9769 H   0  0  0  0  0  0  0  0  0  0  0  0
    1.0865    0.2270   -0.2306 H   0  0  0  0  0  0  0  0  0  0  0  0
    2.7066   -3.0397    0.3397 H   0  0  0  0  0  0  0  0  0  0  0  0
    0.1746   -1.5653    0.4479 H   0  0  0  0  0  0  0  0  0  0  0  0
    0.8267   -1.5322   -2.0064 H   0  0  0  0  0  0  0  0  0  0  0  0
   -0.6912   -2.3702   -1.6540 H   0  0  0  0  0  0  0  0  0  0  0  0
    2.0287   -3.6853   -2.2071 H   0  0  0  0  0  0  0  0  0  0  0  0
    0.6198   -3.6846   -3.2769 H   0  0  0  0  0  0  0  0  0  0  0  0
    0.9889   -5.8409   -1.9983 H   0  0  0  0  0  0  0  0  0  0  0  0
   -0.8155   -6.9183   -0.8771 H   0  0  0  0  0  0  0  0  0  0  0  0
    1.8549   -5.0369    0.0886 H   0  0  0  0  0  0  0  0  0  0  0  0
    0.3582   -5.8573    0.4765 H   0  0  0  0  0  0  0  0  0  0  0  0
    0.5049   -3.6976    1.7184 H   0  0  0  0  0  0  0  0  0  0  0  0
   -0.8765   -3.7040    0.6120 H   0  0  0  0  0  0  0  0  0  0  0  0
  1  2  1  0
  1 23  1  0
  1 24  1  0
  1 25  1  0
  2  3  2  0
  2 12  1  0
  3  4  1  0
  3 26  1  0
  4  5  2  0
  4 27  1  0
  5  6  1  0
  5 11  1  0
  6  7  2  0
  6 10  1  0
  7  8  1  0
  8  9  2  0
  8 28  1  0
  9 10  1  0
  9 29  1  0
 11 12  2  0
 11 30  1  0
 12 13  1  0
 13 14  1  0
 13 31  1  0
 14 15  1  0
 14 22  1  0
 14 32  1  1
 15 16  1  0
 15 33  1  0
 15 34  1  0
 16 17  1  0
 16 35  1  0
 16 36  1  0
 17 18  1  0
 17 21  1  0
 17 37  1  6
 18 19  2  0
 18 20  1  0
 20 38  1  0
 21 22  1  0
 21 39  1  0
 21 40  1  0
 22 41  1  0
 22 42  1  0
M  END

