
     RDKit          3D

 57 60  0  0  0  0  0  0  0  0999 V2000
    1.0368    0.1478   -0.0904 C   0  0  0  0  0  0  0  0  0  0  0  0
    2.5758    0.0340    0.0297 C   0  0  2  0  0  0  0  0  0  0  0  0
    3.2132    0.6658   -1.2271 C   0  0  0  0  0  0  0  0  0  0  0  0
    2.9951   -1.4518    0.0718 C   0  0  0  0  0  0  0  0  0  0  0  0
    2.7158   -2.1088    1.4167 C   0  0  0  0  0  0  0  0  0  0  0  0
    3.5091   -1.4672    2.5760 C   0  0  1  0  0  0  0  0  0  0  0  0
    2.8956   -1.9731    3.8995 C   0  0  0  0  0  0  0  0  0  0  0  0
    4.9890   -1.9159    2.5184 C   0  0  0  0  0  0  0  0  0  0  0  0
    3.4442    0.0701    2.4811 C   0  0  0  0  0  0  0  0  0  0  0  0
    3.8428    0.8258    3.5967 C   0  0  0  0  0  0  0  0  0  0  0  0
    3.8315    2.2245    3.6106 C   0  0  0  0  0  0  0  0  0  0  0  0
    4.2584    2.9912    4.8141 C   0  0  0  0  0  0  0  0  0  0  0  0
    4.2135    4.3291    4.7317 N   0  0  0  0  0  0  0  0  0  0  0  0
    4.5952    4.9913    5.8268 C   0  0  0  0  0  0  0  0  0  0  0  0
    5.0222    4.3761    6.9934 C   0  0  0  0  0  0  0  0  0  0  0  0
    5.0486    2.9544    6.9909 C   0  0  0  0  0  0  0  0  0  0  0  0
    5.4684    2.2036    8.0619 N   0  0  0  0  0  0  0  0  0  0  0  0
    5.3418    0.7460    8.0684 C   0  0  0  0  0  0  0  0  0  0  0  0
    6.6384    0.0751    8.5310 C   0  0  0  0  0  0  0  0  0  0  0  0
    7.0903    0.6218    9.8893 C   0  0  0  0  0  0  0  0  0  0  0  0
    7.1783    2.1506    9.8459 C   0  0  0  0  0  0  0  0  0  0  0  0
    5.8705    2.7749    9.3410 C   0  0  0  0  0  0  0  0  0  0  0  0
    4.6534    2.2976    5.8873 N   0  0  0  0  0  0  0  0  0  0  0  0
    3.4005    2.8945    2.4548 C   0  0  0  0  0  0  0  0  0  0  0  0
    3.0144    2.1639    1.3387 C   0  0  0  0  0  0  0  0  0  0  0  0
    3.0337    0.7548    1.3109 C   0  0  0  0  0  0  0  0  0  0  0  0
    0.6841   -0.3381   -1.0157 H   0  0  0  0  0  0  0  0  0  0  0  0
    0.7202    1.2019   -0.1194 H   0  0  0  0  0  0  0  0  0  0  0  0
    0.5227   -0.3238    0.7608 H   0  0  0  0  0  0  0  0  0  0  0  0
    2.9519    0.0710   -2.1180 H   0  0  0  0  0  0  0  0  0  0  0  0
    4.3114    0.6923   -1.1470 H   0  0  0  0  0  0  0  0  0  0  0  0
    2.8626    1.6928   -1.4082 H   0  0  0  0  0  0  0  0  0  0  0  0
    4.0716   -1.5271   -0.1586 H   0  0  0  0  0  0  0  0  0  0  0  0
    2.4743   -1.9938   -0.7358 H   0  0  0  0  0  0  0  0  0  0  0  0
    2.9517   -3.1858    1.3739 H   0  0  0  0  0  0  0  0  0  0  0  0
    1.6374   -2.0442    1.6414 H   0  0  0  0  0  0  0  0  0  0  0  0
    2.8637   -3.0753    3.9007 H   0  0  0  0  0  0  0  0  0  0  0  0
    1.8661   -1.6034    4.0286 H   0  0  0  0  0  0  0  0  0  0  0  0
    3.4781   -1.6630    4.7798 H   0  0  0  0  0  0  0  0  0  0  0  0
    5.0660   -3.0124    2.6113 H   0  0  0  0  0  0  0  0  0  0  0  0
    5.5691   -1.4643    3.3380 H   0  0  0  0  0  0  0  0  0  0  0  0
    5.4720   -1.6184    1.5752 H   0  0  0  0  0  0  0  0  0  0  0  0
    4.1789    0.3218    4.5019 H   0  0  0  0  0  0  0  0  0  0  0  0
    4.5563    6.0865    5.7754 H   0  0  0  0  0  0  0  0  0  0  0  0
    5.3089    4.9813    7.8508 H   0  0  0  0  0  0  0  0  0  0  0  0
    5.0605    0.4276    7.0598 H   0  0  0  0  0  0  0  0  0  0  0  0
    4.5156    0.4609    8.7521 H   0  0  0  0  0  0  0  0  0  0  0  0
    7.4235    0.2556    7.7759 H   0  0  0  0  0  0  0  0  0  0  0  0
    6.4837   -1.0157    8.5797 H   0  0  0  0  0  0  0  0  0  0  0  0
    8.0596    0.1873   10.1845 H   0  0  0  0  0  0  0  0  0  0  0  0
    6.3622    0.3198   10.6651 H   0  0  0  0  0  0  0  0  0  0  0  0
    7.9981    2.4557    9.1719 H   0  0  0  0  0  0  0  0  0  0  0  0
    7.4110    2.5602   10.8431 H   0  0  0  0  0  0  0  0  0  0  0  0
    5.9936    3.8593    9.2490 H   0  0  0  0  0  0  0  0  0  0  0  0
    5.0684    2.6053   10.0891 H   0  0  0  0  0  0  0  0  0  0  0  0
    3.3796    3.9847    2.4530 H   0  0  0  0  0  0  0  0  0  0  0  0
    2.6851    2.7101    0.4524 H   0  0  0  0  0  0  0  0  0  0  0  0
  2  1  1  6
  1 27  1  0
  1 28  1  0
  1 29  1  0
  2  3  1  0
  2  4  1  0
  2 26  1  0
  3 30  1  0
  3 31  1  0
  3 32  1  0
  4  5  1  0
  4 33  1  0
  4 34  1  0
  5  6  1  0
  5 35  1  0
  5 36  1  0
  6  7  1  1
  6  8  1  0
  6  9  1  0
  7 37  1  0
  7 38  1  0
  7 39  1  0
  8 40  1  0
  8 41  1  0
  8 42  1  0
  9 10  1  0
  9 26  2  0
 10 11  2  0
 10 43  1  0
 11 12  1  0
 11 24  1  0
 12 13  2  0
 12 23  1  0
 13 14  1  0
 14 15  2  0
 14 44  1  0
 15 16  1  0
 15 45  1  0
 16 17  1  0
 16 23  2  0
 17 18  1  0
 17 22  1  0
 18 19  1  0
 18 46  1  0
 18 47  1  0
 19 20  1  0
 19 48  1  0
 19 49  1  0
 20 21  1  0
 20 50  1  0
 20 51  1  0
 21 22  1  0
 21 52  1  0
 21 53  1  0
 22 54  1  0
 22 55  1  0
 24 25  2  0
 24 56  1  0
 25 26  1  0
 25 57  1  0
M  END

