
     RDKit          3D

 43 44  0  0  0  0  0  0  0  0999 V2000
    0.4980   -0.0177    1.4342 C   0  0  0  0  0  0  0  0  0  0  0  0
    0.9833   -0.0134   -0.0140 C   0  0  0  0  0  0  0  0  0  0  0  0
    2.2135    0.7478   -0.1989 N   0  0  0  0  0  0  0  0  0  0  0  0
    2.1502    2.0865   -0.2778 N   0  0  0  0  0  0  0  0  0  0  0  0
    3.4096    2.4960   -0.3937 C   0  0  0  0  0  0  0  0  0  0  0  0
    4.3079    1.4049   -0.3880 C   0  0  0  0  0  0  0  0  0  0  0  0
    3.4995    0.2822   -0.2538 C   0  0  0  0  0  0  0  0  0  0  0  0
    3.8784   -1.1675   -0.1825 C   0  0  0  0  0  0  0  0  0  0  0  0
    3.3493   -1.9425   -1.3040 N   0  0  0  0  0  0  0  0  0  0  0  0
    3.8975   -3.2862   -1.4442 C   0  0  0  0  0  0  0  0  0  0  0  0
    3.3330   -4.2940   -0.4194 C   0  0  1  0  0  0  0  0  0  0  0  0
    1.7868   -4.3840   -0.4326 C   0  0  0  0  0  0  0  0  0  0  0  0
    1.1285   -4.7976   -1.7489 C   0  0  0  0  0  0  0  0  0  0  0  0
   -0.2825   -4.8315   -1.6462 O   0  0  0  0  0  0  0  0  0  0  0  0
    4.0010   -5.6619   -0.5230 C   0  0  0  0  0  0  0  0  0  0  0  0
    4.3162   -6.2673   -1.7519 C   0  0  0  0  0  0  0  0  0  0  0  0
    4.9028   -7.5360   -1.8036 C   0  0  0  0  0  0  0  0  0  0  0  0
    5.1881   -8.2305   -0.6255 C   0  0  0  0  0  0  0  0  0  0  0  0
    4.8838   -7.6429    0.6058 C   0  0  0  0  0  0  0  0  0  0  0  0
    4.3003   -6.3744    0.6512 C   0  0  0  0  0  0  0  0  0  0  0  0
   -0.4526   -0.5683    1.5142 H   0  0  0  0  0  0  0  0  0  0  0  0
    0.3347    1.0117    1.7874 H   0  0  0  0  0  0  0  0  0  0  0  0
    1.2290   -0.4990    2.1036 H   0  0  0  0  0  0  0  0  0  0  0  0
    0.2279    0.4467   -0.6680 H   0  0  0  0  0  0  0  0  0  0  0  0
    1.1734   -1.0292   -0.3871 H   0  0  0  0  0  0  0  0  0  0  0  0
    3.6305    3.5597   -0.4833 H   0  0  0  0  0  0  0  0  0  0  0  0
    5.3927    1.4205   -0.4694 H   0  0  0  0  0  0  0  0  0  0  0  0
    3.5054   -1.6070    0.7603 H   0  0  0  0  0  0  0  0  0  0  0  0
    4.9867   -1.2150   -0.1200 H   0  0  0  0  0  0  0  0  0  0  0  0
    3.4982   -1.4196   -2.1648 H   0  0  0  0  0  0  0  0  0  0  0  0
    5.0067   -3.2986   -1.3561 H   0  0  0  0  0  0  0  0  0  0  0  0
    3.6665   -3.6231   -2.4665 H   0  0  0  0  0  0  0  0  0  0  0  0
    3.5963   -3.9119    0.5816 H   0  0  0  0  0  0  0  0  0  0  0  0
    1.3665   -3.4073   -0.1463 H   0  0  0  0  0  0  0  0  0  0  0  0
    1.4813   -5.1023    0.3505 H   0  0  0  0  0  0  0  0  0  0  0  0
    1.5309   -5.7696   -2.0966 H   0  0  0  0  0  0  0  0  0  0  0  0
    1.3507   -4.0564   -2.5330 H   0  0  0  0  0  0  0  0  0  0  0  0
   -0.5166   -5.5040   -0.9931 H   0  0  0  0  0  0  0  0  0  0  0  0
    4.1054   -5.7490   -2.6899 H   0  0  0  0  0  0  0  0  0  0  0  0
    5.1386   -7.9825   -2.7733 H   0  0  0  0  0  0  0  0  0  0  0  0
    5.6479   -9.2212   -0.6662 H   0  0  0  0  0  0  0  0  0  0  0  0
    5.1069   -8.1715    1.5364 H   0  0  0  0  0  0  0  0  0  0  0  0
    4.0733   -5.9221    1.6216 H   0  0  0  0  0  0  0  0  0  0  0  0
  1  2  1  0
  1 21  1  0
  1 22  1  0
  1 23  1  0
  2  3  1  0
  2 24  1  0
  2 25  1  0
  3  4  1  0
  3  7  1  0
  4  5  2  0
  5  6  1  0
  5 26  1  0
  6  7  2  0
  6 27  1  0
  7  8  1  0
  8  9  1  0
  8 28  1  0
  8 29  1  0
  9 10  1  0
  9 30  1  0
 10 11  1  0
 10 31  1  0
 10 32  1  0
 11 12  1  0
 11 15  1  0
 11 33  1  1
 12 13  1  0
 12 34  1  0
 12 35  1  0
 13 14  1  0
 13 36  1  0
 13 37  1  0
 14 38  1  0
 15 16  2  0
 15 20  1  0
 16 17  1  0
 16 39  1  0
 17 18  2  0
 17 40  1  0
 18 19  1  0
 18 41  1  0
 19 20  2  0
 19 42  1  0
 20 43  1  0
M  END

