
     RDKit          3D

 56 58  0  0  0  0  0  0  0  0999 V2000
    8.8445    6.3966   -8.8960 C   0  0  0  0  0  0  0  0  0  0  0  0
    9.2793    5.4182   -7.9234 N   0  0  0  0  0  0  0  0  0  0  0  0
    8.9108    4.1004   -7.9902 C   0  0  0  0  0  0  0  0  0  0  0  0
    8.1882    3.6643   -8.8761 O   0  0  0  0  0  0  0  0  0  0  0  0
    9.4544    3.2065   -6.9093 C   0  0  0  0  0  0  0  0  0  0  0  0
    9.9538    3.6614   -5.6788 C   0  0  0  0  0  0  0  0  0  0  0  0
   10.4329    2.7803   -4.7096 C   0  0  0  0  0  0  0  0  0  0  0  0
   10.4174    1.3954   -4.9607 C   0  0  0  0  0  0  0  0  0  0  0  0
   10.8828    0.4492   -4.0412 N   0  0  0  0  0  0  0  0  0  0  0  0
   11.4271    0.6324   -2.7962 C   0  0  0  0  0  0  0  0  0  0  0  0
   11.6196    1.7046   -2.2525 O   0  0  0  0  0  0  0  0  0  0  0  0
   11.7485   -0.6930   -2.0807 C   0  0  0  0  0  0  0  0  0  0  0  0
   11.8516   -1.8402   -2.9488 N   0  0  0  0  0  0  0  0  0  0  0  0
   13.1152   -2.0574   -3.6435 C   0  0  0  0  0  0  0  0  0  0  0  0
   12.8642   -3.3594   -4.4027 C   0  0  0  0  0  0  0  0  0  0  0  0
   12.0519   -4.1807   -3.3900 C   0  0  0  0  0  0  0  0  0  0  0  0
   11.2112   -3.1392   -2.5979 C   0  0  1  0  0  0  0  0  0  0  0  0
   10.1798   -3.1304   -2.9776 H   0  0  0  0  0  0  0  0  0  0  0  0
   11.1305   -3.4470   -1.1085 C   0  0  0  0  0  0  0  0  0  0  0  0
   12.2726   -3.3637   -0.2946 C   0  0  0  0  0  0  0  0  0  0  0  0
   12.2176   -3.6442    1.0767 C   0  0  0  0  0  0  0  0  0  0  0  0
   13.2805   -3.5789    1.9244 O   0  0  0  0  0  0  0  0  0  0  0  0
   14.5373   -3.1920    1.4229 C   0  0  0  0  0  0  0  0  0  0  0  0
   10.9916   -4.0219    1.6422 C   0  0  0  0  0  0  0  0  0  0  0  0
    9.8496   -4.1135    0.8515 C   0  0  0  0  0  0  0  0  0  0  0  0
    9.9053   -3.8291   -0.5243 C   0  0  0  0  0  0  0  0  0  0  0  0
    8.8214   -3.9074   -1.3523 O   0  0  0  0  0  0  0  0  0  0  0  0
    7.5612   -4.2381   -0.8183 C   0  0  0  0  0  0  0  0  0  0  0  0
    9.9029    0.9301   -6.1876 C   0  0  0  0  0  0  0  0  0  0  0  0
    9.4238    1.8215   -7.1392 C   0  0  0  0  0  0  0  0  0  0  0  0
    8.3968    7.2778   -8.4063 H   0  0  0  0  0  0  0  0  0  0  0  0
    8.0900    5.9190   -9.5344 H   0  0  0  0  0  0  0  0  0  0  0  0
    9.6756    6.7404   -9.5372 H   0  0  0  0  0  0  0  0  0  0  0  0
    9.9852    5.6878   -7.2515 H   0  0  0  0  0  0  0  0  0  0  0  0
    9.9496    4.7282   -5.4386 H   0  0  0  0  0  0  0  0  0  0  0  0
   10.8126    3.1416   -3.7563 H   0  0  0  0  0  0  0  0  0  0  0  0
   10.8299   -0.5374   -4.2970 H   0  0  0  0  0  0  0  0  0  0  0  0
   10.9369   -0.8501   -1.3517 H   0  0  0  0  0  0  0  0  0  0  0  0
   12.6584   -0.5006   -1.4786 H   0  0  0  0  0  0  0  0  0  0  0  0
   13.9758   -2.1630   -2.9438 H   0  0  0  0  0  0  0  0  0  0  0  0
   13.3502   -1.2072   -4.3066 H   0  0  0  0  0  0  0  0  0  0  0  0
   13.7917   -3.8608   -4.7179 H   0  0  0  0  0  0  0  0  0  0  0  0
   12.2699   -3.1531   -5.3082 H   0  0  0  0  0  0  0  0  0  0  0  0
   12.7345   -4.7039   -2.7025 H   0  0  0  0  0  0  0  0  0  0  0  0
   11.4157   -4.9466   -3.8573 H   0  0  0  0  0  0  0  0  0  0  0  0
   13.2151   -3.0664   -0.7550 H   0  0  0  0  0  0  0  0  0  0  0  0
   15.2324   -3.2020    2.2735 H   0  0  0  0  0  0  0  0  0  0  0  0
   14.5161   -2.1734    0.9934 H   0  0  0  0  0  0  0  0  0  0  0  0
   14.9095   -3.8921    0.6521 H   0  0  0  0  0  0  0  0  0  0  0  0
   10.9531   -4.2402    2.7111 H   0  0  0  0  0  0  0  0  0  0  0  0
    8.9107   -4.4110    1.3184 H   0  0  0  0  0  0  0  0  0  0  0  0
    6.8505   -4.2158   -1.6557 H   0  0  0  0  0  0  0  0  0  0  0  0
    7.2324   -3.5118   -0.0527 H   0  0  0  0  0  0  0  0  0  0  0  0
    7.5533   -5.2496   -0.3726 H   0  0  0  0  0  0  0  0  0  0  0  0
    9.8779   -0.1453   -6.3871 H   0  0  0  0  0  0  0  0  0  0  0  0
    9.0109    1.4657   -8.0850 H   0  0  0  0  0  0  0  0  0  0  0  0
  1  2  1  0
  1 31  1  0
  1 32  1  0
  1 33  1  0
  2  3  1  0
  2 34  1  0
  3  4  2  0
  3  5  1  0
  5  6  2  0
  5 30  1  0
  6  7  1  0
  6 35  1  0
  7  8  2  0
  7 36  1  0
  8  9  1  0
  8 29  1  0
  9 10  1  0
  9 37  1  0
 10 11  2  0
 10 12  1  0
 12 13  1  0
 12 38  1  0
 12 39  1  0
 13 14  1  0
 13 17  1  0
 14 15  1  0
 14 40  1  0
 14 41  1  0
 15 16  1  0
 15 42  1  0
 15 43  1  0
 16 17  1  0
 16 44  1  0
 16 45  1  0
 17 18  1  6
 17 19  1  0
 19 20  2  0
 19 26  1  0
 20 21  1  0
 20 46  1  0
 21 22  1  0
 21 24  2  0
 22 23  1  0
 23 47  1  0
 23 48  1  0
 23 49  1  0
 24 25  1  0
 24 50  1  0
 25 26  2  0
 25 51  1  0
 26 27  1  0
 27 28  1  0
 28 52  1  0
 28 53  1  0
 28 54  1  0
 29 30  2  0
 29 55  1  0
 30 56  1  0
M  END

