
     RDKit          3D

 63 64  0  0  0  0  0  0  0  0999 V2000
    1.1995    0.0783    2.7293 C   0  0  0  0  0  0  0  0  0  0  0  0
    2.2678    1.0743    2.2697 C   0  0  0  0  0  0  0  0  0  0  0  0
    2.9603    0.7036    1.0202 N   0  0  0  0  0  0  0  0  0  0  0  0
    2.4403    1.3609   -0.1853 C   0  0  0  0  0  0  0  0  0  0  0  0
    1.0441    0.9010   -0.6017 C   0  0  0  0  0  0  0  0  0  0  0  0
    4.4124    0.6193    1.0829 C   0  0  1  0  0  0  0  0  0  0  0  0
    5.1078    2.0166    1.0771 C   0  0  1  0  0  0  0  0  0  0  0  0
    5.1450    2.3541    0.0306 H   0  0  0  0  0  0  0  0  0  0  0  0
    4.3716    2.9214    1.8074 F   0  0  0  0  0  0  0  0  0  0  0  0
    6.5413    2.0890    1.6179 C   0  0  1  0  0  0  0  0  0  0  0  0
    7.3323    1.1735    1.0350 F   0  0  0  0  0  0  0  0  0  0  0  0
    7.0561    3.2992    1.3297 F   0  0  0  0  0  0  0  0  0  0  0  0
    6.6042    1.9321    2.9377 F   0  0  0  0  0  0  0  0  0  0  0  0
    4.8228   -0.0581    2.2315 O   0  0  0  0  0  0  0  0  0  0  0  0
    4.5699   -1.4641    2.2582 C   0  0  0  0  0  0  0  0  0  0  0  0
    5.1561   -2.1568    1.0160 C   0  0  1  0  0  0  0  0  0  0  0  0
    4.6478   -1.3814   -0.2057 C   0  0  0  0  0  0  0  0  0  0  0  0
    4.9181    0.0091   -0.0850 O   0  0  0  0  0  0  0  0  0  0  0  0
    6.6931   -2.1826    1.0622 C   0  0  0  0  0  0  0  0  0  0  0  0
    7.1482   -3.0611    2.0898 O   0  0  0  0  0  0  0  0  0  0  0  0
    6.7004   -4.3791    1.9984 C   0  0  2  0  0  0  0  0  0  0  0  0
    6.9972   -5.0798    3.3581 C   0  0  1  0  0  0  0  0  0  0  0  0
    6.3371   -5.9586    3.4182 H   0  0  0  0  0  0  0  0  0  0  0  0
    8.3055   -5.5038    3.4097 F   0  0  0  0  0  0  0  0  0  0  0  0
    6.7697   -4.2585    4.6355 C   0  0  1  0  0  0  0  0  0  0  0  0
    5.5518   -3.6950    4.6557 F   0  0  0  0  0  0  0  0  0  0  0  0
    6.8457   -5.0791    5.7001 F   0  0  0  0  0  0  0  0  0  0  0  0
    7.6839   -3.3044    4.7999 F   0  0  0  0  0  0  0  0  0  0  0  0
    7.2805   -5.0506    0.8435 N   0  0  0  0  0  0  0  0  0  0  0  0
    8.7480   -5.1112    0.6535 C   0  0  0  0  0  0  0  0  0  0  0  0
    9.6004   -3.8931    0.9981 C   0  0  0  0  0  0  0  0  0  0  0  0
    6.6672   -6.3369    0.4825 C   0  0  0  0  0  0  0  0  0  0  0  0
    6.5449   -6.5590   -1.0269 C   0  0  0  0  0  0  0  0  0  0  0  0
    5.2901   -4.4269    1.9277 O   0  0  0  0  0  0  0  0  0  0  0  0
    4.6934   -3.6163    0.9224 C   0  0  0  0  0  0  0  0  0  0  0  0
    0.7174    0.4479    3.6495 H   0  0  0  0  0  0  0  0  0  0  0  0
    1.6329   -0.9072    2.9576 H   0  0  0  0  0  0  0  0  0  0  0  0
    0.4125   -0.0695    1.9757 H   0  0  0  0  0  0  0  0  0  0  0  0
    3.0149    1.1853    3.0657 H   0  0  0  0  0  0  0  0  0  0  0  0
    1.8090    2.0725    2.1446 H   0  0  0  0  0  0  0  0  0  0  0  0
    3.1378    1.1450   -1.0062 H   0  0  0  0  0  0  0  0  0  0  0  0
    2.4288    2.4638   -0.0530 H   0  0  0  0  0  0  0  0  0  0  0  0
    1.0050   -0.1929   -0.7255 H   0  0  0  0  0  0  0  0  0  0  0  0
    0.7709    1.3665   -1.5623 H   0  0  0  0  0  0  0  0  0  0  0  0
    0.2740    1.1890    0.1296 H   0  0  0  0  0  0  0  0  0  0  0  0
    3.4857   -1.6565    2.3073 H   0  0  0  0  0  0  0  0  0  0  0  0
    5.0339   -1.8318    3.1803 H   0  0  0  0  0  0  0  0  0  0  0  0
    3.5622   -1.5499   -0.3278 H   0  0  0  0  0  0  0  0  0  0  0  0
    5.1550   -1.7040   -1.1278 H   0  0  0  0  0  0  0  0  0  0  0  0
    7.1067   -1.1975    1.3050 H   0  0  0  0  0  0  0  0  0  0  0  0
    7.0863   -2.5041    0.0830 H   0  0  0  0  0  0  0  0  0  0  0  0
    8.8991   -5.3333   -0.4156 H   0  0  0  0  0  0  0  0  0  0  0  0
    9.1541   -5.9822    1.2035 H   0  0  0  0  0  0  0  0  0  0  0  0
    9.3097   -2.9973    0.4305 H   0  0  0  0  0  0  0  0  0  0  0  0
   10.6431   -4.1298    0.7303 H   0  0  0  0  0  0  0  0  0  0  0  0
    9.5699   -3.6510    2.0669 H   0  0  0  0  0  0  0  0  0  0  0  0
    5.6645   -6.3794    0.9257 H   0  0  0  0  0  0  0  0  0  0  0  0
    7.2463   -7.1755    0.9245 H   0  0  0  0  0  0  0  0  0  0  0  0
    5.9471   -5.7631   -1.4987 H   0  0  0  0  0  0  0  0  0  0  0  0
    6.0493   -7.5227   -1.2268 H   0  0  0  0  0  0  0  0  0  0  0  0
    7.5241   -6.5857   -1.5290 H   0  0  0  0  0  0  0  0  0  0  0  0
    3.6073   -3.7056    1.0785 H   0  0  0  0  0  0  0  0  0  0  0  0
    4.9301   -4.0135   -0.0814 H   0  0  0  0  0  0  0  0  0  0  0  0
  1  2  1  0
  1 36  1  0
  1 37  1  0
  1 38  1  0
  2  3  1  0
  2 39  1  0
  2 40  1  0
  3  4  1  0
  6  3  1  6
  4  5  1  0
  4 41  1  0
  4 42  1  0
  5 43  1  0
  5 44  1  0
  5 45  1  0
  6  7  1  0
  6 14  1  0
  6 18  1  0
  7  8  1  6
  7  9  1  0
  7 10  1  0
 10 11  1  6
 10 12  1  0
 10 13  1  0
 14 15  1  0
 16 15  1  1
 15 46  1  0
 15 47  1  0
 16 17  1  0
 16 19  1  0
 16 35  1  0
 17 18  1  0
 17 48  1  0
 17 49  1  0
 19 20  1  0
 19 50  1  0
 19 51  1  0
 20 21  1  0
 21 22  1  0
 21 29  1  6
 21 34  1  0
 22 23  1  1
 22 24  1  0
 22 25  1  0
 25 26  1  6
 25 27  1  0
 25 28  1  0
 29 30  1  0
 29 32  1  0
 30 31  1  0
 30 52  1  0
 30 53  1  0
 31 54  1  0
 31 55  1  0
 31 56  1  0
 32 33  1  0
 32 57  1  0
 32 58  1  0
 33 59  1  0
 33 60  1  0
 33 61  1  0
 34 35  1  0
 35 62  1  0
 35 63  1  0
M  END

