
     RDKit          3D

 43 46  0  0  0  0  0  0  0  0999 V2000
    1.7215    2.8247   -2.4318 C   0  0  0  0  0  0  0  0  0  0  0  0
    1.9535    2.4993   -0.9525 C   0  0  0  0  0  0  0  0  0  0  0  0
    2.8942    1.4075   -0.7122 N   0  0  0  0  0  0  0  0  0  0  0  0
    2.4118    0.0207   -0.6927 C   0  0  0  0  0  0  0  0  0  0  0  0
    0.9275   -0.1652   -0.3974 C   0  0  0  0  0  0  0  0  0  0  0  0
    4.2545    1.6261   -0.7907 C   0  0  0  0  0  0  0  0  0  0  0  0
    4.7999    2.9481   -0.8740 C   0  0  0  0  0  0  0  0  0  0  0  0
    6.1631    3.1605   -0.9156 C   0  0  0  0  0  0  0  0  0  0  0  0
    7.0848    2.0886   -0.8907 C   0  0  0  0  0  0  0  0  0  0  0  0
    8.5004    2.2222   -0.9342 C   0  0  0  0  0  0  0  0  0  0  0  0
    9.3266    1.1241   -0.9150 C   0  0  0  0  0  0  0  0  0  0  0  0
   10.7811    1.2882   -0.9593 C   0  0  0  0  0  0  0  0  0  0  0  0
   11.3494    2.4599   -1.0161 N   0  0  0  0  0  0  0  0  0  0  0  0
   12.7192    2.3651   -1.0484 C   0  0  0  0  0  0  0  0  0  0  0  0
   13.6155    3.4498   -1.1106 C   0  0  0  0  0  0  0  0  0  0  0  0
   14.9822    3.1964   -1.1370 C   0  0  0  0  0  0  0  0  0  0  0  0
   15.4746    1.8756   -1.1025 C   0  0  0  0  0  0  0  0  0  0  0  0
   14.6057    0.7877   -1.0410 C   0  0  0  0  0  0  0  0  0  0  0  0
   13.2274    1.0385   -1.0142 C   0  0  0  0  0  0  0  0  0  0  0  0
   11.8997   -0.0955   -0.9390 S   0  0  0  0  0  0  0  0  0  0  0  0
    8.7475   -0.2212   -0.8511 C   0  0  0  0  0  0  0  0  0  0  0  0
    9.3623   -1.2589   -0.8310 O   0  0  0  0  0  0  0  0  0  0  0  0
    7.3639   -0.2956   -0.8106 O   0  0  0  0  0  0  0  0  0  0  0  0
    6.5430    0.7855   -0.8264 C   0  0  0  0  0  0  0  0  0  0  0  0
    5.1731    0.5474   -0.7848 C   0  0  0  0  0  0  0  0  0  0  0  0
    1.0056    3.6564   -2.5348 H   0  0  0  0  0  0  0  0  0  0  0  0
    1.3101    1.9569   -2.9717 H   0  0  0  0  0  0  0  0  0  0  0  0
    2.6577    3.1174   -2.9318 H   0  0  0  0  0  0  0  0  0  0  0  0
    0.9991    2.2411   -0.4772 H   0  0  0  0  0  0  0  0  0  0  0  0
    2.3015    3.3939   -0.4157 H   0  0  0  0  0  0  0  0  0  0  0  0
    2.9772   -0.5208    0.0828 H   0  0  0  0  0  0  0  0  0  0  0  0
    2.6562   -0.4791   -1.6514 H   0  0  0  0  0  0  0  0  0  0  0  0
    0.6407    0.2751    0.5704 H   0  0  0  0  0  0  0  0  0  0  0  0
    0.7182   -1.2445   -0.3438 H   0  0  0  0  0  0  0  0  0  0  0  0
    0.2757    0.2534   -1.1790 H   0  0  0  0  0  0  0  0  0  0  0  0
    4.1429    3.8145   -0.9033 H   0  0  0  0  0  0  0  0  0  0  0  0
    6.5472    4.1823   -0.9730 H   0  0  0  0  0  0  0  0  0  0  0  0
    8.9603    3.2124   -0.9844 H   0  0  0  0  0  0  0  0  0  0  0  0
   13.2189    4.4668   -1.1366 H   0  0  0  0  0  0  0  0  0  0  0  0
   15.6867    4.0306   -1.1851 H   0  0  0  0  0  0  0  0  0  0  0  0
   16.5533    1.7014   -1.1243 H   0  0  0  0  0  0  0  0  0  0  0  0
   14.9920   -0.2338   -1.0144 H   0  0  0  0  0  0  0  0  0  0  0  0
    4.8574   -0.4916   -0.7508 H   0  0  0  0  0  0  0  0  0  0  0  0
  1  2  1  0
  1 26  1  0
  1 27  1  0
  1 28  1  0
  2  3  1  0
  2 29  1  0
  2 30  1  0
  3  4  1  0
  3  6  1  0
  4  5  1  0
  4 31  1  0
  4 32  1  0
  5 33  1  0
  5 34  1  0
  5 35  1  0
  6  7  2  0
  6 25  1  0
  7  8  1  0
  7 36  1  0
  8  9  2  0
  8 37  1  0
  9 10  1  0
  9 24  1  0
 10 11  2  0
 10 38  1  0
 11 12  1  0
 11 21  1  0
 12 13  2  0
 12 20  1  0
 13 14  1  0
 14 15  2  0
 14 19  1  0
 15 16  1  0
 15 39  1  0
 16 17  2  0
 16 40  1  0
 17 18  1  0
 17 41  1  0
 18 19  2  0
 18 42  1  0
 19 20  1  0
 21 22  2  0
 21 23  1  0
 23 24  1  0
 24 25  2  0
 25 43  1  0
M  END

