
     RDKit          3D

 49 50  0  0  0  0  0  0  0  0999 V2000
    3.2294   -1.4836    1.0557 C   0  0  0  0  0  0  0  0  0  0  0  0
    2.7210   -0.3619    0.1335 C   0  0  1  0  0  0  0  0  0  0  0  0
    3.2875    1.0058    0.5529 C   0  0  0  0  0  0  0  0  0  0  0  0
    2.9905   -0.6651   -1.3350 C   0  0  0  0  0  0  0  0  0  0  0  0
    1.9354   -0.8184   -2.2453 C   0  0  0  0  0  0  0  0  0  0  0  0
    2.1737   -1.0962   -3.5946 C   0  0  0  0  0  0  0  0  0  0  0  0
    3.4782   -1.2297   -4.0877 C   0  0  0  0  0  0  0  0  0  0  0  0
    3.7272   -1.5519   -5.5566 C   0  0  1  0  0  0  0  0  0  0  0  0
    4.6686   -0.6659   -6.2534 N   0  0  0  0  0  0  0  0  0  0  0  0
    4.2036   -3.0034   -5.7467 C   0  0  0  0  0  0  0  0  0  0  0  0
    4.3708   -3.2972   -7.1529 N   0  0  0  0  0  0  0  0  0  0  0  0
    3.9802   -4.4676   -7.7294 C   0  0  0  0  0  0  0  0  0  0  0  0
    3.4758   -5.3852   -7.0959 O   0  0  0  0  0  0  0  0  0  0  0  0
    4.2429   -4.5679   -9.2318 C   0  0  0  0  0  0  0  0  0  0  0  0
    3.1584   -5.3946   -9.9571 C   0  0  1  0  0  0  0  0  0  0  0  0
    1.8097   -4.6650  -10.0287 C   0  0  0  0  0  0  0  0  0  0  0  0
    1.8370   -3.2033  -11.1384 S   0  0  0  0  0  0  0  0  0  0  0  0
    2.4743   -4.0776  -12.6192 C   0  0  0  0  0  0  0  0  0  0  0  0
    3.7547   -4.8532  -12.3184 C   0  0  0  0  0  0  0  0  0  0  0  0
    3.5265   -5.8649  -11.2938 N   0  0  0  0  0  0  0  0  0  0  0  0
    4.5374   -1.0768   -3.1775 C   0  0  0  0  0  0  0  0  0  0  0  0
    4.2989   -0.8004   -1.8309 C   0  0  0  0  0  0  0  0  0  0  0  0
    2.9642   -1.2761    2.1054 H   0  0  0  0  0  0  0  0  0  0  0  0
    4.3264   -1.5813    1.0043 H   0  0  0  0  0  0  0  0  0  0  0  0
    2.7945   -2.4570    0.7800 H   0  0  0  0  0  0  0  0  0  0  0  0
    1.6244   -0.3127    0.2502 H   0  0  0  0  0  0  0  0  0  0  0  0
    4.3872    1.0267    0.4761 H   0  0  0  0  0  0  0  0  0  0  0  0
    3.0241    1.2336    1.5988 H   0  0  0  0  0  0  0  0  0  0  0  0
    2.8931    1.8148   -0.0818 H   0  0  0  0  0  0  0  0  0  0  0  0
    0.9045   -0.7174   -1.8929 H   0  0  0  0  0  0  0  0  0  0  0  0
    1.3264   -1.2107   -4.2776 H   0  0  0  0  0  0  0  0  0  0  0  0
    2.7643   -1.4628   -6.0873 H   0  0  0  0  0  0  0  0  0  0  0  0
    5.5557   -0.6188   -5.7491 H   0  0  0  0  0  0  0  0  0  0  0  0
    4.3069    0.2874   -6.2813 H   0  0  0  0  0  0  0  0  0  0  0  0
    3.4805   -3.7176   -5.3292 H   0  0  0  0  0  0  0  0  0  0  0  0
    5.1528   -3.1491   -5.1931 H   0  0  0  0  0  0  0  0  0  0  0  0
    4.7335   -2.5335   -7.7160 H   0  0  0  0  0  0  0  0  0  0  0  0
    5.2137   -5.0817   -9.3531 H   0  0  0  0  0  0  0  0  0  0  0  0
    4.3445   -3.5664   -9.6771 H   0  0  0  0  0  0  0  0  0  0  0  0
    2.9921   -6.2889   -9.3345 H   0  0  0  0  0  0  0  0  0  0  0  0
    1.5073   -4.2998   -9.0365 H   0  0  0  0  0  0  0  0  0  0  0  0
    1.0376   -5.3648  -10.3841 H   0  0  0  0  0  0  0  0  0  0  0  0
    2.6526   -3.3035  -13.3809 H   0  0  0  0  0  0  0  0  0  0  0  0
    1.6969   -4.7640  -12.9934 H   0  0  0  0  0  0  0  0  0  0  0  0
    4.5578   -4.1255  -12.0681 H   0  0  0  0  0  0  0  0  0  0  0  0
    4.0737   -5.3740  -13.2382 H   0  0  0  0  0  0  0  0  0  0  0  0
    4.3171   -6.5024  -11.2384 H   0  0  0  0  0  0  0  0  0  0  0  0
    5.5727   -1.1723   -3.5195 H   0  0  0  0  0  0  0  0  0  0  0  0
    5.1515   -0.6898   -1.1551 H   0  0  0  0  0  0  0  0  0  0  0  0
  1  2  1  0
  1 23  1  0
  1 24  1  0
  1 25  1  0
  2  3  1  0
  2  4  1  0
  2 26  1  6
  3 27  1  0
  3 28  1  0
  3 29  1  0
  4  5  2  0
  4 22  1  0
  5  6  1  0
  5 30  1  0
  6  7  2  0
  6 31  1  0
  7  8  1  0
  7 21  1  0
  8  9  1  0
  8 10  1  0
  8 32  1  6
  9 33  1  0
  9 34  1  0
 10 11  1  0
 10 35  1  0
 10 36  1  0
 11 12  1  0
 11 37  1  0
 12 13  2  0
 12 14  1  0
 14 15  1  0
 14 38  1  0
 14 39  1  0
 15 16  1  0
 15 20  1  0
 15 40  1  1
 16 17  1  0
 16 41  1  0
 16 42  1  0
 17 18  1  0
 18 19  1  0
 18 43  1  0
 18 44  1  0
 19 20  1  0
 19 45  1  0
 19 46  1  0
 20 47  1  0
 21 22  2  0
 21 48  1  0
 22 49  1  0
M  END

