
     RDKit          3D

 39 41  0  0  0  0  0  0  0  0999 V2000
    5.4151   -2.0672   -0.1833 N   0  0  0  0  0  0  0  0  0  0  0  0
    4.5314   -1.4853    0.6549 C   0  0  0  0  0  0  0  0  0  0  0  0
    4.8568   -0.2956    1.2578 N   0  0  0  0  0  0  0  0  0  0  0  0
    3.9011    0.1114    2.0453 C   0  0  0  0  0  0  0  0  0  0  0  0
    3.9600    1.2468    2.7986 N   0  0  0  0  0  0  0  0  0  0  0  0
    5.0247    2.1965    2.6548 C   0  0  1  0  0  0  0  0  0  0  0  0
    5.4172    2.9902    3.8730 C   0  0  0  0  0  0  0  0  0  0  0  0
    6.3399    1.9278    3.3343 C   0  0  0  0  0  0  0  0  0  0  0  0
    2.4823   -0.9356    2.1311 S   0  0  0  0  0  0  0  0  0  0  0  0
    3.2759   -2.0183    0.9698 C   0  0  0  0  0  0  0  0  0  0  0  0
    2.7283   -3.2303    0.3819 C   0  0  0  0  0  0  0  0  0  0  0  0
    3.3842   -3.8982   -0.4331 O   0  0  0  0  0  0  0  0  0  0  0  0
    1.4651   -3.6164    0.7580 N   0  0  0  0  0  0  0  0  0  0  0  0
    0.8114   -4.7952    0.1978 C   0  0  1  0  0  0  0  0  0  0  0  0
   -0.1133   -5.4478    1.2409 C   0  0  0  0  0  0  0  0  0  0  0  0
   -1.3817   -4.6229    1.5117 C   0  0  0  0  0  0  0  0  0  0  0  0
   -2.1380   -4.3040    0.2141 C   0  0  0  0  0  0  0  0  0  0  0  0
   -1.2240   -3.6326   -0.8210 C   0  0  0  0  0  0  0  0  0  0  0  0
    0.0281   -4.4753   -1.0940 C   0  0  0  0  0  0  0  0  0  0  0  0
    6.2429   -1.5561   -0.4535 H   0  0  0  0  0  0  0  0  0  0  0  0
    5.0951   -2.9085   -0.6604 H   0  0  0  0  0  0  0  0  0  0  0  0
    3.0894    1.5794    3.1968 H   0  0  0  0  0  0  0  0  0  0  0  0
    5.0702    2.7031    1.6815 H   0  0  0  0  0  0  0  0  0  0  0  0
    4.8870    2.7748    4.8055 H   0  0  0  0  0  0  0  0  0  0  0  0
    5.6782    4.0427    3.7334 H   0  0  0  0  0  0  0  0  0  0  0  0
    6.4246    0.9932    3.8936 H   0  0  0  0  0  0  0  0  0  0  0  0
    7.2497    2.2325    2.8109 H   0  0  0  0  0  0  0  0  0  0  0  0
    0.9349   -3.0166    1.3771 H   0  0  0  0  0  0  0  0  0  0  0  0
    1.6270   -5.4866   -0.0583 H   0  0  0  0  0  0  0  0  0  0  0  0
    0.4470   -5.6244    2.1739 H   0  0  0  0  0  0  0  0  0  0  0  0
   -0.4102   -6.4395    0.8570 H   0  0  0  0  0  0  0  0  0  0  0  0
   -1.1169   -3.6761    2.0210 H   0  0  0  0  0  0  0  0  0  0  0  0
   -2.0357   -5.1621    2.2174 H   0  0  0  0  0  0  0  0  0  0  0  0
   -3.0139   -3.6682    0.4279 H   0  0  0  0  0  0  0  0  0  0  0  0
   -2.5344   -5.2451   -0.2109 H   0  0  0  0  0  0  0  0  0  0  0  0
   -0.9191   -2.6366   -0.4500 H   0  0  0  0  0  0  0  0  0  0  0  0
   -1.7745   -3.4522   -1.7595 H   0  0  0  0  0  0  0  0  0  0  0  0
    0.7022   -3.9718   -1.8044 H   0  0  0  0  0  0  0  0  0  0  0  0
   -0.2690   -5.4312   -1.5628 H   0  0  0  0  0  0  0  0  0  0  0  0
  1  2  1  0
  1 20  1  0
  1 21  1  0
  2  3  2  0
  2 10  1  0
  3  4  1  0
  4  5  1  0
  4  9  2  0
  5  6  1  0
  5 22  1  0
  6  7  1  0
  6  8  1  0
  6 23  1  6
  7  8  1  0
  7 24  1  0
  7 25  1  0
  8 26  1  0
  8 27  1  0
  9 10  1  0
 10 11  2  0
 11 12  1  0
 11 13  1  0
 13 14  1  0
 13 28  1  0
 14 15  1  0
 14 19  1  0
 14 29  1  6
 15 16  1  0
 15 30  1  0
 15 31  1  0
 16 17  1  0
 16 32  1  0
 16 33  1  0
 17 18  1  0
 17 34  1  0
 17 35  1  0
 18 19  1  0
 18 36  1  0
 18 37  1  0
 19 38  1  0
 19 39  1  0
M  CHG  2   9   1  12  -1
M  END

