
     RDKit          3D

 35 38  0  0  0  0  0  0  0  0999 V2000
    1.2920   -0.0105   -0.4949 C   0  0  0  0  0  0  0  0  0  0  0  0
    2.5852    0.0502    0.0693 O   0  0  0  0  0  0  0  0  0  0  0  0
    3.1415    1.2715    0.3365 C   0  0  0  0  0  0  0  0  0  0  0  0
    2.5055    2.4767    0.0798 C   0  0  0  0  0  0  0  0  0  0  0  0
    3.1563    3.6948    0.3883 C   0  0  0  0  0  0  0  0  0  0  0  0
    4.4180    3.7055    0.9424 C   0  0  0  0  0  0  0  0  0  0  0  0
    5.0994    2.4880    1.2185 C   0  0  0  0  0  0  0  0  0  0  0  0
    6.4081    2.4844    1.7927 C   0  0  0  0  0  0  0  0  0  0  0  0
    7.1055    1.3263    2.0766 C   0  0  0  0  0  0  0  0  0  0  0  0
    8.4834    1.3752    2.6818 C   0  0  0  0  0  0  0  0  0  0  0  0
    6.4762    0.0807    1.7768 C   0  0  0  0  0  0  0  0  0  0  0  0
    6.8810   -1.3047    1.9278 C   0  0  0  0  0  0  0  0  0  0  0  0
    8.0258   -1.9622    2.4174 C   0  0  0  0  0  0  0  0  0  0  0  0
    8.0710   -3.3550    2.4105 C   0  0  0  0  0  0  0  0  0  0  0  0
    6.9895   -4.1145    1.9216 C   0  0  0  0  0  0  0  0  0  0  0  0
    5.8417   -3.4960    1.4299 C   0  0  0  0  0  0  0  0  0  0  0  0
    5.7983   -2.0962    1.4377 C   0  0  0  0  0  0  0  0  0  0  0  0
    4.7981   -1.2484    1.0153 N   0  0  0  0  0  0  0  0  0  0  0  0
    3.9038   -1.5016    0.6177 H   0  0  0  0  0  0  0  0  0  0  0  0
    5.1817    0.0603    1.2086 C   0  0  0  0  0  0  0  0  0  0  0  0
    4.4512    1.2465    0.9106 C   0  0  0  0  0  0  0  0  0  0  0  0
    1.0519   -1.0752   -0.6176 H   0  0  0  0  0  0  0  0  0  0  0  0
    1.2553    0.4824   -1.4823 H   0  0  0  0  0  0  0  0  0  0  0  0
    0.5382    0.4543    0.1646 H   0  0  0  0  0  0  0  0  0  0  0  0
    1.5082    2.5014   -0.3577 H   0  0  0  0  0  0  0  0  0  0  0  0
    2.6406    4.6356    0.1797 H   0  0  0  0  0  0  0  0  0  0  0  0
    4.9124    4.6512    1.1773 H   0  0  0  0  0  0  0  0  0  0  0  0
    6.8669    3.4524    2.0124 H   0  0  0  0  0  0  0  0  0  0  0  0
    8.8104    2.4123    2.8455 H   0  0  0  0  0  0  0  0  0  0  0  0
    9.2256    0.8839    2.0302 H   0  0  0  0  0  0  0  0  0  0  0  0
    8.5144    0.8520    3.6523 H   0  0  0  0  0  0  0  0  0  0  0  0
    8.8749   -1.3950    2.8006 H   0  0  0  0  0  0  0  0  0  0  0  0
    8.9583   -3.8677    2.7899 H   0  0  0  0  0  0  0  0  0  0  0  0
    7.0510   -5.2057    1.9276 H   0  0  0  0  0  0  0  0  0  0  0  0
    5.0020   -4.0835    1.0504 H   0  0  0  0  0  0  0  0  0  0  0  0
  1  2  1  0
  1 22  1  0
  1 23  1  0
  1 24  1  0
  2  3  1  0
  3  4  2  0
  3 21  1  0
  4  5  1  0
  4 25  1  0
  5  6  2  0
  5 26  1  0
  6  7  1  0
  6 27  1  0
  7  8  1  0
  7 21  2  0
  8  9  2  0
  8 28  1  0
  9 10  1  0
  9 11  1  0
 10 29  1  0
 10 30  1  0
 10 31  1  0
 11 12  1  0
 11 20  2  0
 12 13  2  0
 12 17  1  0
 13 14  1  0
 13 32  1  0
 14 15  2  0
 14 33  1  0
 15 16  1  0
 15 34  1  0
 16 17  2  0
 16 35  1  0
 17 18  1  0
 18 19  1  0
 18 20  1  0
 20 21  1  0
M  END

