
     RDKit          3D

 57 60  0  0  0  0  0  0  0  0999 V2000
    2.0586    0.4195    0.4374 C   0  0  0  0  0  0  0  0  0  0  0  0
    3.2868   -0.4124    0.0693 C   0  0  1  0  0  0  0  0  0  0  0  0
    3.0361   -1.8877   -0.0408 C   0  0  0  0  0  0  0  0  0  0  0  0
    2.1565   -2.6365    0.6077 N   0  0  0  0  0  0  0  0  0  0  0  0
    2.4004   -3.9164    0.2256 N   0  0  0  0  0  0  0  0  0  0  0  0
    1.5794   -4.9559    0.7300 C   0  0  0  0  0  0  0  0  0  0  0  0
    0.2490   -4.6695    1.0786 C   0  0  0  0  0  0  0  0  0  0  0  0
   -0.5757   -5.6730    1.5828 C   0  0  0  0  0  0  0  0  0  0  0  0
   -0.0706   -6.9646    1.7273 C   0  0  0  0  0  0  0  0  0  0  0  0
   -0.8670   -7.9322    2.2033 F   0  0  0  0  0  0  0  0  0  0  0  0
    1.2461   -7.2673    1.3932 C   0  0  0  0  0  0  0  0  0  0  0  0
    2.0761   -6.2564    0.9028 C   0  0  0  0  0  0  0  0  0  0  0  0
    3.4354   -3.9896   -0.6900 C   0  0  0  0  0  0  0  0  0  0  0  0
    3.8426   -2.6889   -0.8771 C   0  0  0  0  0  0  0  0  0  0  0  0
    4.8833   -2.2412   -1.6995 N   0  0  0  0  0  0  0  0  0  0  0  0
    5.1565   -0.8789   -1.6999 C   0  0  0  0  0  0  0  0  0  0  0  0
    6.2036   -0.3941   -2.0792 O   0  0  0  0  0  0  0  0  0  0  0  0
    3.9635    0.0232   -1.2606 C   0  0  1  0  0  0  0  0  0  0  0  0
    3.0301    0.0998   -2.3710 N   0  0  0  0  0  0  0  0  0  0  0  0
    2.7037    1.2833   -2.9806 C   0  0  0  0  0  0  0  0  0  0  0  0
    3.1232    2.3709   -2.6431 O   0  0  0  0  0  0  0  0  0  0  0  0
    1.8469    1.0374   -3.9955 O   0  0  0  0  0  0  0  0  0  0  0  0
    1.3147    2.1140   -4.8350 C   0  0  1  0  0  0  0  0  0  0  0  0
    2.4586    2.8173   -5.5732 C   0  0  0  0  0  0  0  0  0  0  0  0
    0.4145    1.3640   -5.8191 C   0  0  0  0  0  0  0  0  0  0  0  0
    0.4937    3.0878   -3.9829 C   0  0  0  0  0  0  0  0  0  0  0  0
    5.7444   -3.3080   -2.2714 C   0  0  2  0  0  0  0  0  0  0  0  0
    6.4905   -2.8716   -3.5335 C   0  0  0  0  0  0  0  0  0  0  0  0
    4.8712   -4.5477   -2.5910 C   0  0  0  0  0  0  0  0  0  0  0  0
    4.0727   -5.1342   -1.4086 C   0  0  0  0  0  0  0  0  0  0  0  0
    1.6450    0.0798    1.3983 H   0  0  0  0  0  0  0  0  0  0  0  0
    1.2698    0.3151   -0.3224 H   0  0  0  0  0  0  0  0  0  0  0  0
    2.3171    1.4859    0.5202 H   0  0  0  0  0  0  0  0  0  0  0  0
    4.0519   -0.2685    0.8575 H   0  0  0  0  0  0  0  0  0  0  0  0
   -0.1185   -3.6511    0.9563 H   0  0  0  0  0  0  0  0  0  0  0  0
   -1.6117   -5.4686    1.8597 H   0  0  0  0  0  0  0  0  0  0  0  0
    1.6165   -8.2842    1.5354 H   0  0  0  0  0  0  0  0  0  0  0  0
    3.1179   -6.4849    0.6816 H   0  0  0  0  0  0  0  0  0  0  0  0
    4.3863    1.0287   -1.1515 H   0  0  0  0  0  0  0  0  0  0  0  0
    2.5960   -0.7437   -2.7277 H   0  0  0  0  0  0  0  0  0  0  0  0
    3.0527    2.0863   -6.1439 H   0  0  0  0  0  0  0  0  0  0  0  0
    3.1203    3.3380   -4.8696 H   0  0  0  0  0  0  0  0  0  0  0  0
    2.0469    3.5515   -6.2834 H   0  0  0  0  0  0  0  0  0  0  0  0
    0.9990    0.6334   -6.3988 H   0  0  0  0  0  0  0  0  0  0  0  0
   -0.0560    2.0697   -6.5203 H   0  0  0  0  0  0  0  0  0  0  0  0
   -0.3798    0.8228   -5.2827 H   0  0  0  0  0  0  0  0  0  0  0  0
    1.1314    3.6131   -3.2608 H   0  0  0  0  0  0  0  0  0  0  0  0
   -0.2939    2.5471   -3.4348 H   0  0  0  0  0  0  0  0  0  0  0  0
    0.0071    3.8316   -4.6331 H   0  0  0  0  0  0  0  0  0  0  0  0
    6.4859   -3.5902   -1.4981 H   0  0  0  0  0  0  0  0  0  0  0  0
    5.7796   -2.5607   -4.3162 H   0  0  0  0  0  0  0  0  0  0  0  0
    7.0699   -3.7245   -3.9196 H   0  0  0  0  0  0  0  0  0  0  0  0
    7.1668   -2.0343   -3.3353 H   0  0  0  0  0  0  0  0  0  0  0  0
    5.5324   -5.3224   -3.0074 H   0  0  0  0  0  0  0  0  0  0  0  0
    4.1691   -4.2659   -3.3945 H   0  0  0  0  0  0  0  0  0  0  0  0
    3.3292   -5.8581   -1.7805 H   0  0  0  0  0  0  0  0  0  0  0  0
    4.7480   -5.6980   -0.7392 H   0  0  0  0  0  0  0  0  0  0  0  0
  1  2  1  0
  1 31  1  0
  1 32  1  0
  1 33  1  0
  2  3  1  0
  2 18  1  0
  2 34  1  1
  3  4  2  0
  3 14  1  0
  4  5  1  0
  5  6  1  0
  5 13  1  0
  6  7  2  0
  6 12  1  0
  7  8  1  0
  7 35  1  0
  8  9  2  0
  8 36  1  0
  9 10  1  0
  9 11  1  0
 11 12  2  0
 11 37  1  0
 12 38  1  0
 13 14  2  0
 13 30  1  0
 14 15  1  0
 15 16  1  0
 15 27  1  0
 16 17  2  0
 16 18  1  0
 18 19  1  0
 18 39  1  1
 19 20  1  0
 19 40  1  0
 20 21  2  0
 20 22  1  0
 23 22  1  1
 23 24  1  0
 23 25  1  0
 23 26  1  0
 24 41  1  0
 24 42  1  0
 24 43  1  0
 25 44  1  0
 25 45  1  0
 25 46  1  0
 26 47  1  0
 26 48  1  0
 26 49  1  0
 27 28  1  0
 27 29  1  0
 27 50  1  1
 28 51  1  0
 28 52  1  0
 28 53  1  0
 29 30  1  0
 29 54  1  0
 29 55  1  0
 30 56  1  0
 30 57  1  0
M  END

