
     RDKit          3D

 70 73  0  0  0  0  0  0  0  0999 V2000
    2.1081    1.2192    0.2412 C   0  0  0  0  0  0  0  0  0  0  0  0
    1.3848   -0.0475   -0.2418 C   0  0  1  0  0  0  0  0  0  0  0  0
    0.0687    0.3015   -0.9603 C   0  0  0  0  0  0  0  0  0  0  0  0
    2.2768   -0.8931   -1.1255 C   0  0  0  0  0  0  0  0  0  0  0  0
    2.9138   -0.3467   -2.1619 N   0  0  0  0  0  0  0  0  0  0  0  0
    3.5914   -1.3424   -2.7523 N   0  0  0  0  0  0  0  0  0  0  0  0
    4.4728   -1.0294   -3.8575 C   0  0  0  0  0  0  0  0  0  0  0  0
    3.3912   -2.5486   -2.1224 C   0  0  0  0  0  0  0  0  0  0  0  0
    3.9655   -3.7637   -2.5063 N   0  0  0  0  0  0  0  0  0  0  0  0
    5.2285   -4.1774   -1.8989 C   0  0  0  0  0  0  0  0  0  0  0  0
    5.3466   -5.6985   -1.9534 C   0  0  0  0  0  0  0  0  0  0  0  0
    5.1595   -6.1887   -3.2676 O   0  0  0  0  0  0  0  0  0  0  0  0
    3.8896   -5.8392   -3.7798 C   0  0  0  0  0  0  0  0  0  0  0  0
    3.7171   -4.3216   -3.8296 C   0  0  0  0  0  0  0  0  0  0  0  0
    2.5323   -2.2901   -1.0533 C   0  0  0  0  0  0  0  0  0  0  0  0
    2.0612   -3.2815   -0.0347 C   0  0  0  0  0  0  0  0  0  0  0  0
    2.9520   -3.3398    1.1279 N   0  0  0  0  0  0  0  0  0  0  0  0
    2.4201   -4.0369    2.2875 C   0  0  0  0  0  0  0  0  0  0  0  0
    2.5165   -5.5712    2.1906 C   0  0  1  0  0  0  0  0  0  0  0  0
    3.9808   -6.0695    2.0550 C   0  0  0  0  0  0  0  0  0  0  0  0
    4.2809   -6.8040    3.3787 C   0  0  0  0  0  0  0  0  0  0  0  0
    3.2562   -6.3177    4.2988 N   0  0  0  0  0  0  0  0  0  0  0  0
    3.1107   -7.0441    5.5447 C   0  0  0  0  0  0  0  0  0  0  0  0
    4.3187   -6.8871    6.4840 C   0  0  0  0  0  0  0  0  0  0  0  0
    4.1022   -7.5471    7.8278 C   0  0  0  0  0  0  0  0  0  0  0  0
    4.4536   -8.8903    8.0389 C   0  0  0  0  0  0  0  0  0  0  0  0
    4.2189   -9.5125    9.2685 C   0  0  0  0  0  0  0  0  0  0  0  0
    3.6258   -8.7992   10.3142 C   0  0  0  0  0  0  0  0  0  0  0  0
    3.2710   -7.4608   10.1199 C   0  0  0  0  0  0  0  0  0  0  0  0
    3.5071   -6.8439    8.8883 C   0  0  0  0  0  0  0  0  0  0  0  0
    2.0423   -6.2372    3.4941 C   0  0  0  0  0  0  0  0  0  0  0  0
    1.4535    1.8247    0.8892 H   0  0  0  0  0  0  0  0  0  0  0  0
    2.4144    1.8359   -0.6176 H   0  0  0  0  0  0  0  0  0  0  0  0
    3.0171    0.9700    0.8120 H   0  0  0  0  0  0  0  0  0  0  0  0
    1.1351   -0.6579    0.6438 H   0  0  0  0  0  0  0  0  0  0  0  0
    0.2757    0.8919   -1.8667 H   0  0  0  0  0  0  0  0  0  0  0  0
   -0.5954    0.8911   -0.3069 H   0  0  0  0  0  0  0  0  0  0  0  0
   -0.4732   -0.6069   -1.2674 H   0  0  0  0  0  0  0  0  0  0  0  0
    3.8966   -0.6364   -4.7096 H   0  0  0  0  0  0  0  0  0  0  0  0
    5.0094   -1.9317   -4.1717 H   0  0  0  0  0  0  0  0  0  0  0  0
    5.2014   -0.2647   -3.5478 H   0  0  0  0  0  0  0  0  0  0  0  0
    5.2404   -3.8403   -0.8516 H   0  0  0  0  0  0  0  0  0  0  0  0
    6.1028   -3.7278   -2.4197 H   0  0  0  0  0  0  0  0  0  0  0  0
    4.5964   -6.1458   -1.2694 H   0  0  0  0  0  0  0  0  0  0  0  0
    6.3483   -6.0210   -1.6303 H   0  0  0  0  0  0  0  0  0  0  0  0
    3.0872   -6.2807   -3.1533 H   0  0  0  0  0  0  0  0  0  0  0  0
    3.8207   -6.2696   -4.7909 H   0  0  0  0  0  0  0  0  0  0  0  0
    2.6929   -4.0663   -4.1435 H   0  0  0  0  0  0  0  0  0  0  0  0
    4.4150   -3.9243   -4.5993 H   0  0  0  0  0  0  0  0  0  0  0  0
    2.0264   -4.2780   -0.5067 H   0  0  0  0  0  0  0  0  0  0  0  0
    1.0173   -3.0385    0.2657 H   0  0  0  0  0  0  0  0  0  0  0  0
    3.2393   -2.3973    1.3805 H   0  0  0  0  0  0  0  0  0  0  0  0
    1.3549   -3.7704    2.4790 H   0  0  0  0  0  0  0  0  0  0  0  0
    2.9895   -3.7208    3.1769 H   0  0  0  0  0  0  0  0  0  0  0  0
    1.8989   -5.9109    1.3438 H   0  0  0  0  0  0  0  0  0  0  0  0
    4.6535   -5.2138    1.8959 H   0  0  0  0  0  0  0  0  0  0  0  0
    4.1117   -6.7420    1.1944 H   0  0  0  0  0  0  0  0  0  0  0  0
    5.2935   -6.6011    3.7607 H   0  0  0  0  0  0  0  0  0  0  0  0
    4.1999   -7.9082    3.2374 H   0  0  0  0  0  0  0  0  0  0  0  0
    2.9225   -8.1307    5.3681 H   0  0  0  0  0  0  0  0  0  0  0  0
    2.2149   -6.6585    6.0604 H   0  0  0  0  0  0  0  0  0  0  0  0
    4.5101   -5.8093    6.6130 H   0  0  0  0  0  0  0  0  0  0  0  0
    5.2155   -7.3158    6.0078 H   0  0  0  0  0  0  0  0  0  0  0  0
    4.9236   -9.4553    7.2282 H   0  0  0  0  0  0  0  0  0  0  0  0
    4.5042  -10.5583    9.4114 H   0  0  0  0  0  0  0  0  0  0  0  0
    3.4447   -9.2828   11.2777 H   0  0  0  0  0  0  0  0  0  0  0  0
    2.8116   -6.8924   10.9331 H   0  0  0  0  0  0  0  0  0  0  0  0
    3.2311   -5.7944    8.7471 H   0  0  0  0  0  0  0  0  0  0  0  0
    1.2595   -5.6646    4.0199 H   0  0  0  0  0  0  0  0  0  0  0  0
    1.6225   -7.2489    3.2814 H   0  0  0  0  0  0  0  0  0  0  0  0
  1  2  1  0
  1 32  1  0
  1 33  1  0
  1 34  1  0
  2  3  1  0
  2  4  1  0
  2 35  1  1
  3 36  1  0
  3 37  1  0
  3 38  1  0
  4  5  2  0
  4 15  1  0
  5  6  1  0
  6  7  1  0
  6  8  1  0
  7 39  1  0
  7 40  1  0
  7 41  1  0
  8  9  1  0
  8 15  2  0
  9 10  1  0
  9 14  1  0
 10 11  1  0
 10 42  1  0
 10 43  1  0
 11 12  1  0
 11 44  1  0
 11 45  1  0
 12 13  1  0
 13 14  1  0
 13 46  1  0
 13 47  1  0
 14 48  1  0
 14 49  1  0
 15 16  1  0
 16 17  1  0
 16 50  1  0
 16 51  1  0
 17 18  1  0
 17 52  1  0
 18 19  1  0
 18 53  1  0
 18 54  1  0
 19 20  1  0
 19 31  1  0
 19 55  1  6
 20 21  1  0
 20 56  1  0
 20 57  1  0
 21 22  1  0
 21 58  1  0
 21 59  1  0
 22 23  1  0
 22 31  1  0
 23 24  1  0
 23 60  1  0
 23 61  1  0
 24 25  1  0
 24 62  1  0
 24 63  1  0
 25 26  2  0
 25 30  1  0
 26 27  1  0
 26 64  1  0
 27 28  2  0
 27 65  1  0
 28 29  1  0
 28 66  1  0
 29 30  2  0
 29 67  1  0
 30 68  1  0
 31 69  1  0
 31 70  1  0
M  END

