
     RDKit          3D

 48 50  0  0  0  0  0  0  0  0999 V2000
    2.3955    0.1015    1.7729 C   0  0  0  0  0  0  0  0  0  0  0  0
    3.2640    0.0277    0.6108 N   0  0  0  0  0  0  0  0  0  0  0  0
    4.0371    1.0496    0.1015 C   0  0  0  0  0  0  0  0  0  0  0  0
    4.7168    0.5086   -0.9672 C   0  0  0  0  0  0  0  0  0  0  0  0
    4.3813   -0.8102   -1.1229 N   0  0  0  0  0  0  0  0  0  0  0  0
    3.5144   -1.0796   -0.1636 C   0  0  0  0  0  0  0  0  0  0  0  0
    2.8847   -2.4231    0.0613 C   0  0  0  0  0  0  0  0  0  0  0  0
    1.4242   -2.4056   -0.0475 N   0  0  0  0  0  0  0  0  0  0  0  0
    0.9059   -2.0046   -1.3589 C   0  0  0  0  0  0  0  0  0  0  0  0
    1.0539   -3.0942   -2.4346 C   0  0  0  0  0  0  0  0  0  0  0  0
    0.4261   -4.4434   -1.9981 C   0  0  2  0  0  0  0  0  0  0  0  0
   -1.0995   -4.3891   -2.1077 C   0  0  0  0  0  0  0  0  0  0  0  0
   -1.8065   -3.7883   -1.3068 O   0  0  0  0  0  0  0  0  0  0  0  0
   -1.6195   -5.0451   -3.1867 N   0  0  0  0  0  0  0  0  0  0  0  0
   -3.0250   -5.0282   -3.5310 C   0  0  0  0  0  0  0  0  0  0  0  0
   -3.2141   -4.7299   -5.0155 C   0  0  1  0  0  0  0  0  0  0  0  0
   -2.4737   -5.6690   -5.7929 O   0  0  0  0  0  0  0  0  0  0  0  0
   -4.6698   -4.5414   -5.5291 C   0  0  0  0  0  0  0  0  0  0  0  0
   -4.2007   -3.3019   -6.3356 C   0  0  0  0  0  0  0  0  0  0  0  0
   -2.8754   -3.3076   -5.5293 C   0  0  0  0  0  0  0  0  0  0  0  0
    0.8943   -4.8101   -0.5704 C   0  0  0  0  0  0  0  0  0  0  0  0
    0.7726   -3.6324    0.4154 C   0  0  0  0  0  0  0  0  0  0  0  0
    1.9931    1.1202    1.8679 H   0  0  0  0  0  0  0  0  0  0  0  0
    2.9396   -0.1478    2.6997 H   0  0  0  0  0  0  0  0  0  0  0  0
    1.5631   -0.6016    1.6347 H   0  0  0  0  0  0  0  0  0  0  0  0
    4.0258    2.0478    0.5337 H   0  0  0  0  0  0  0  0  0  0  0  0
    5.4218    1.0069   -1.6321 H   0  0  0  0  0  0  0  0  0  0  0  0
    3.1272   -2.7861    1.0766 H   0  0  0  0  0  0  0  0  0  0  0  0
    3.3962   -3.1070   -0.6447 H   0  0  0  0  0  0  0  0  0  0  0  0
    1.4232   -1.0896   -1.6862 H   0  0  0  0  0  0  0  0  0  0  0  0
   -0.1606   -1.7576   -1.2356 H   0  0  0  0  0  0  0  0  0  0  0  0
    2.1235   -3.2588   -2.6486 H   0  0  0  0  0  0  0  0  0  0  0  0
    0.6003   -2.7514   -3.3801 H   0  0  0  0  0  0  0  0  0  0  0  0
    0.7818   -5.2261   -2.6898 H   0  0  0  0  0  0  0  0  0  0  0  0
   -1.0017   -5.4956   -3.8527 H   0  0  0  0  0  0  0  0  0  0  0  0
   -3.5145   -4.2747   -2.8982 H   0  0  0  0  0  0  0  0  0  0  0  0
   -3.5014   -6.0036   -3.2994 H   0  0  0  0  0  0  0  0  0  0  0  0
   -2.9104   -6.5296   -5.7154 H   0  0  0  0  0  0  0  0  0  0  0  0
   -5.3694   -4.2866   -4.7177 H   0  0  0  0  0  0  0  0  0  0  0  0
   -5.0838   -5.3886   -6.0990 H   0  0  0  0  0  0  0  0  0  0  0  0
   -4.8248   -2.3999   -6.2552 H   0  0  0  0  0  0  0  0  0  0  0  0
   -4.0457   -3.5272   -7.4005 H   0  0  0  0  0  0  0  0  0  0  0  0
   -2.8588   -2.5653   -4.7175 H   0  0  0  0  0  0  0  0  0  0  0  0
   -1.9388   -3.2412   -6.1008 H   0  0  0  0  0  0  0  0  0  0  0  0
    1.9470   -5.1367   -0.6322 H   0  0  0  0  0  0  0  0  0  0  0  0
    0.3226   -5.6729   -0.1894 H   0  0  0  0  0  0  0  0  0  0  0  0
    1.2024   -3.9157    1.3909 H   0  0  0  0  0  0  0  0  0  0  0  0
   -0.2942   -3.4143    0.5703 H   0  0  0  0  0  0  0  0  0  0  0  0
  1  2  1  0
  1 23  1  0
  1 24  1  0
  1 25  1  0
  2  3  1  0
  2  6  1  0
  3  4  2  0
  3 26  1  0
  4  5  1  0
  4 27  1  0
  5  6  2  0
  6  7  1  0
  7  8  1  0
  7 28  1  0
  7 29  1  0
  8  9  1  0
  8 22  1  0
  9 10  1  0
  9 30  1  0
  9 31  1  0
 10 11  1  0
 10 32  1  0
 10 33  1  0
 11 12  1  0
 11 21  1  0
 11 34  1  6
 12 13  2  0
 12 14  1  0
 14 15  1  0
 14 35  1  0
 15 16  1  0
 15 36  1  0
 15 37  1  0
 16 17  1  6
 16 18  1  0
 16 20  1  0
 17 38  1  0
 18 19  1  0
 18 39  1  0
 18 40  1  0
 19 20  1  0
 19 41  1  0
 19 42  1  0
 20 43  1  0
 20 44  1  0
 21 22  1  0
 21 45  1  0
 21 46  1  0
 22 47  1  0
 22 48  1  0
M  END

