
     RDKit          3D

 37 39  0  0  0  0  0  0  0  0999 V2000
    2.9965   -1.8677    0.0881 C   0  0  0  0  0  0  0  0  0  0  0  0
    2.6419   -0.5556    0.4636 O   0  0  0  0  0  0  0  0  0  0  0  0
    3.2689    0.0276    1.5142 C   0  0  0  0  0  0  0  0  0  0  0  0
    4.2732   -0.5792    2.2833 C   0  0  0  0  0  0  0  0  0  0  0  0
    4.8523    0.1175    3.3471 C   0  0  0  0  0  0  0  0  0  0  0  0
    4.4556    1.4229    3.6750 C   0  0  0  0  0  0  0  0  0  0  0  0
    5.0884    2.1302    4.8058 C   0  0  0  0  0  0  0  0  0  0  0  0
    4.7946    3.4100    5.2447 C   0  0  0  0  0  0  0  0  0  0  0  0
    5.7737    3.8377    6.5945 S   0  0  0  0  0  0  0  0  0  0  0  0
    6.5349    2.2567    6.4975 C   0  0  0  0  0  0  0  0  0  0  0  0
    7.5949    1.8444    7.4362 C   0  0  0  0  0  0  0  0  0  0  0  0
    7.9679    2.8134    8.4255 C   0  0  0  0  0  0  0  0  0  0  0  0
    8.2439    3.6234    9.2120 N   0  0  0  0  0  0  0  0  0  0  0  0
    8.1482    0.5993    7.3194 C   0  0  0  0  0  0  0  0  0  0  0  0
    9.1890   -0.0767    8.0797 C   0  0  0  0  0  0  0  0  0  0  0  0
    9.8865    0.5083    9.1647 C   0  0  0  0  0  0  0  0  0  0  0  0
   10.8757   -0.1786    9.8606 C   0  0  0  0  0  0  0  0  0  0  0  0
   11.2093   -1.4872    9.4969 C   0  0  0  0  0  0  0  0  0  0  0  0
   10.5468   -2.1009    8.4335 C   0  0  0  0  0  0  0  0  0  0  0  0
    9.5549   -1.4084    7.7372 C   0  0  0  0  0  0  0  0  0  0  0  0
    8.7753   -2.2567    6.4165 Cl  0  0  0  0  0  0  0  0  0  0  0  0
    6.0729    1.5101    5.5339 N   0  0  0  0  0  0  0  0  0  0  0  0
    3.4449    2.0168    2.8908 C   0  0  0  0  0  0  0  0  0  0  0  0
    2.8609    1.3367    1.8314 C   0  0  0  0  0  0  0  0  0  0  0  0
    2.3662   -2.1281   -0.7729 H   0  0  0  0  0  0  0  0  0  0  0  0
    2.8094   -2.5929    0.9005 H   0  0  0  0  0  0  0  0  0  0  0  0
    4.0578   -1.9372   -0.2118 H   0  0  0  0  0  0  0  0  0  0  0  0
    4.6134   -1.5918    2.0656 H   0  0  0  0  0  0  0  0  0  0  0  0
    5.6328   -0.3572    3.9429 H   0  0  0  0  0  0  0  0  0  0  0  0
    4.0640    4.1119    4.8501 H   0  0  0  0  0  0  0  0  0  0  0  0
    7.7192    0.0178    6.5020 H   0  0  0  0  0  0  0  0  0  0  0  0
    9.6462    1.5260    9.4671 H   0  0  0  0  0  0  0  0  0  0  0  0
   11.3888    0.3110   10.6912 H   0  0  0  0  0  0  0  0  0  0  0  0
   11.9850   -2.0339   10.0385 H   0  0  0  0  0  0  0  0  0  0  0  0
   10.7920   -3.1209    8.1339 H   0  0  0  0  0  0  0  0  0  0  0  0
    3.1043    3.0315    3.1087 H   0  0  0  0  0  0  0  0  0  0  0  0
    2.0786    1.7971    1.2248 H   0  0  0  0  0  0  0  0  0  0  0  0
  1  2  1  0
  1 25  1  0
  1 26  1  0
  1 27  1  0
  2  3  1  0
  3  4  2  0
  3 24  1  0
  4  5  1  0
  4 28  1  0
  5  6  2  0
  5 29  1  0
  6  7  1  0
  6 23  1  0
  7  8  2  0
  7 22  1  0
  8  9  1  0
  8 30  1  0
  9 10  1  0
 10 11  1  0
 10 22  2  0
 11 12  1  0
 11 14  2  0
 12 13  3  0
 14 15  1  0
 14 31  1  0
 15 16  2  0
 15 20  1  0
 16 17  1  0
 16 32  1  0
 17 18  2  0
 17 33  1  0
 18 19  1  0
 18 34  1  0
 19 20  2  0
 19 35  1  0
 20 21  1  0
 23 24  2  0
 23 36  1  0
 24 37  1  0
M  END

