
     RDKit          3D

 53 55  0  0  0  0  0  0  0  0999 V2000
    6.1474   -0.8605    5.3605 C   0  0  0  0  0  0  0  0  0  0  0  0
    4.7318   -0.8253    5.0043 N   0  0  0  0  0  0  0  0  0  0  0  0
    4.1387    0.5552    4.2666 S   0  0  1  0  0  0  0  0  0  0  0  0
    2.6872    0.4034    4.3113 O   0  0  0  0  0  0  0  0  0  0  0  0
    4.7756    1.7806    4.7563 O   0  0  0  0  0  0  0  0  0  0  0  0
    4.7588    0.3360    2.7313 N   0  0  0  0  0  0  0  0  0  0  0  0
    5.1946    1.4851    1.9419 C   0  0  0  0  0  0  0  0  0  0  0  0
    6.6856    1.7720    2.0886 C   0  0  2  0  0  0  0  0  0  0  0  0
    7.1343    2.9797    1.2682 C   0  0  0  0  0  0  0  0  0  0  0  0
    8.5799    3.1703    1.3967 N   0  0  0  0  0  0  0  0  0  0  0  0
    9.1267    4.4435    2.4157 S   0  0  1  0  0  0  0  0  0  0  0  0
    7.9297    5.1665    2.8517 O   0  0  0  0  0  0  0  0  0  0  0  0
   10.0678    3.9179    3.4028 O   0  0  0  0  0  0  0  0  0  0  0  0
   10.0332    5.4713    1.3040 C   0  0  0  0  0  0  0  0  0  0  0  0
   10.0587    5.4374   -0.0751 C   0  0  0  0  0  0  0  0  0  0  0  0
   10.9156    6.4266   -0.4412 N   0  0  0  0  0  0  0  0  0  0  0  0
   11.2447    6.8608   -1.7676 C   0  0  1  0  0  0  0  0  0  0  0  0
   11.2359    5.7963   -2.5906 F   0  0  0  0  0  0  0  0  0  0  0  0
   10.3228    7.7346   -2.2275 F   0  0  0  0  0  0  0  0  0  0  0  0
   11.4303    7.0992    0.6124 N   0  0  0  0  0  0  0  0  0  0  0  0
   10.9128    6.5350    1.6917 C   0  0  0  0  0  0  0  0  0  0  0  0
   11.2555    6.9880    3.0732 C   0  0  0  0  0  0  0  0  0  0  0  0
    9.3618    1.9881    1.2705 C   0  0  0  0  0  0  0  0  0  0  0  0
   10.7308    2.0441    0.9715 C   0  0  0  0  0  0  0  0  0  0  0  0
   11.4682    0.8697    0.7953 C   0  0  0  0  0  0  0  0  0  0  0  0
   12.8543    0.8721    0.5112 N   0  0  0  0  0  0  0  0  0  0  0  0
   13.6255    1.9503    0.1215 C   0  0  0  0  0  0  0  0  0  0  0  0
   13.2248    3.0733   -0.0471 O   0  0  0  0  0  0  0  0  0  0  0  0
   14.9370    1.6523   -0.0713 O   0  0  0  0  0  0  0  0  0  0  0  0
   10.8193   -0.3732    0.9032 C   0  0  0  0  0  0  0  0  0  0  0  0
    9.4619   -0.4320    1.1970 C   0  0  0  0  0  0  0  0  0  0  0  0
    8.7191    0.7383    1.3915 C   0  0  0  0  0  0  0  0  0  0  0  0
    7.3896    0.6056    1.6594 O   0  0  0  0  0  0  0  0  0  0  0  0
    6.3832   -1.8641    5.7439 H   0  0  0  0  0  0  0  0  0  0  0  0
    6.4315   -0.1055    6.1136 H   0  0  0  0  0  0  0  0  0  0  0  0
    6.7446   -0.6958    4.4518 H   0  0  0  0  0  0  0  0  0  0  0  0
    4.0812   -1.0851    5.7455 H   0  0  0  0  0  0  0  0  0  0  0  0
    4.3024   -0.4241    2.2354 H   0  0  0  0  0  0  0  0  0  0  0  0
    4.6349    2.3950    2.2118 H   0  0  0  0  0  0  0  0  0  0  0  0
    4.9766    1.2591    0.8863 H   0  0  0  0  0  0  0  0  0  0  0  0
    6.9092    1.9650    3.1527 H   0  0  0  0  0  0  0  0  0  0  0  0
    6.6267    3.8872    1.6158 H   0  0  0  0  0  0  0  0  0  0  0  0
    6.8916    2.8224    0.2024 H   0  0  0  0  0  0  0  0  0  0  0  0
    9.5726    4.7851   -0.7947 H   0  0  0  0  0  0  0  0  0  0  0  0
   12.2334    7.3432   -1.7477 H   0  0  0  0  0  0  0  0  0  0  0  0
   11.9452    7.8409    3.0258 H   0  0  0  0  0  0  0  0  0  0  0  0
   11.7211    6.1696    3.6433 H   0  0  0  0  0  0  0  0  0  0  0  0
   10.3477    7.2877    3.6206 H   0  0  0  0  0  0  0  0  0  0  0  0
   11.2313    3.0016    0.8694 H   0  0  0  0  0  0  0  0  0  0  0  0
   13.2759   -0.0484    0.4865 H   0  0  0  0  0  0  0  0  0  0  0  0
   15.1634    0.7622    0.2303 H   0  0  0  0  0  0  0  0  0  0  0  0
   11.3801   -1.3011    0.7582 H   0  0  0  0  0  0  0  0  0  0  0  0
    8.9463   -1.3900    1.2868 H   0  0  0  0  0  0  0  0  0  0  0  0
  1  2  1  0
  1 34  1  0
  1 35  1  0
  1 36  1  0
  3  2  1  1
  2 37  1  0
  3  4  2  0
  3  5  2  0
  3  6  1  0
  6  7  1  0
  6 38  1  0
  7  8  1  0
  7 39  1  0
  7 40  1  0
  8  9  1  0
  8 33  1  0
  8 41  1  1
  9 10  1  0
  9 42  1  0
  9 43  1  0
 10 11  1  0
 10 23  1  0
 11 12  2  0
 11 13  2  0
 11 14  1  6
 14 15  2  0
 14 21  1  0
 15 16  1  0
 15 44  1  0
 16 17  1  0
 16 20  1  0
 17 18  1  0
 17 19  1  0
 17 45  1  1
 20 21  2  0
 21 22  1  0
 22 46  1  0
 22 47  1  0
 22 48  1  0
 23 24  1  0
 23 32  2  0
 24 25  2  0
 24 49  1  0
 25 26  1  0
 25 30  1  0
 26 27  1  0
 26 50  1  0
 27 28  2  0
 27 29  1  0
 29 51  1  0
 30 31  2  0
 30 52  1  0
 31 32  1  0
 31 53  1  0
 32 33  1  0
M  END

