
     RDKit          3D

 56 59  0  0  0  0  0  0  0  0999 V2000
    0.9985   -0.6729   -0.8039 C   0  0  0  0  0  0  0  0  0  0  0  0
    2.5161   -0.5274   -0.6306 C   0  0  1  0  0  0  0  0  0  0  0  0
    3.3026   -1.7500   -1.1419 C   0  0  0  0  0  0  0  0  0  0  0  0
    3.3380   -1.8434   -2.6763 C   0  0  2  0  0  0  0  0  0  0  0  0
    4.2171   -2.9966   -3.1646 C   0  0  0  0  0  0  0  0  0  0  0  0
    3.8136   -0.5059   -3.2599 C   0  0  0  0  0  0  0  0  0  0  0  0
    3.0320    0.6299   -2.7552 N   0  0  0  0  0  0  0  0  0  0  0  0
    2.3891    1.5141   -3.5624 C   0  0  0  0  0  0  0  0  0  0  0  0
    2.0338    2.8326   -3.3700 C   0  0  0  0  0  0  0  0  0  0  0  0
    2.4511    3.8099   -2.3488 C   0  0  0  0  0  0  0  0  0  0  0  0
    3.7808    3.8483   -1.8796 C   0  0  0  0  0  0  0  0  0  0  0  0
    4.1937    4.7941   -0.9416 C   0  0  0  0  0  0  0  0  0  0  0  0
    3.2682    5.7230   -0.4697 C   0  0  0  0  0  0  0  0  0  0  0  0
    3.6577    6.6341    0.4328 F   0  0  0  0  0  0  0  0  0  0  0  0
    1.9501    5.7277   -0.9201 C   0  0  0  0  0  0  0  0  0  0  0  0
    1.5490    4.7761   -1.8578 C   0  0  0  0  0  0  0  0  0  0  0  0
    1.2065    3.2545   -4.5200 C   0  0  0  0  0  0  0  0  0  0  0  0
    0.6984    4.3318   -4.7272 O   0  0  0  0  0  0  0  0  0  0  0  0
    1.1013    2.1394   -5.4158 N   0  0  0  0  0  0  0  0  0  0  0  0
    0.3845    2.1429   -6.6415 C   0  0  0  0  0  0  0  0  0  0  0  0
    0.3560    3.3035   -7.4349 C   0  0  0  0  0  0  0  0  0  0  0  0
   -0.3523    3.3116   -8.6351 C   0  0  0  0  0  0  0  0  0  0  0  0
   -1.0159    2.1557   -9.0513 C   0  0  0  0  0  0  0  0  0  0  0  0
   -1.9117    2.1612  -10.6033 S   0  0  1  0  0  0  0  0  0  0  0  0
   -0.7504    1.6786  -11.7356 N   0  0  0  0  0  0  0  0  0  0  0  0
   -2.9155    1.0957  -10.5400 O   0  0  0  0  0  0  0  0  0  0  0  0
   -2.2546    3.5510  -10.9148 O   0  0  0  0  0  0  0  0  0  0  0  0
   -1.0026    0.9987   -8.2698 C   0  0  0  0  0  0  0  0  0  0  0  0
   -0.3057    0.9927   -7.0629 C   0  0  0  0  0  0  0  0  0  0  0  0
    1.7724    1.0461   -4.8749 C   0  0  0  0  0  0  0  0  0  0  0  0
    1.8143   -0.0703   -5.3431 O   0  0  0  0  0  0  0  0  0  0  0  0
    3.0491    0.7579   -1.2988 C   0  0  0  0  0  0  0  0  0  0  0  0
    0.6336   -1.5897   -0.3137 H   0  0  0  0  0  0  0  0  0  0  0  0
    0.7065   -0.7245   -1.8644 H   0  0  0  0  0  0  0  0  0  0  0  0
    0.4653    0.1806   -0.3550 H   0  0  0  0  0  0  0  0  0  0  0  0
    2.7223   -0.4185    0.4491 H   0  0  0  0  0  0  0  0  0  0  0  0
    2.8805   -2.6756   -0.7148 H   0  0  0  0  0  0  0  0  0  0  0  0
    4.3434   -1.6860   -0.7725 H   0  0  0  0  0  0  0  0  0  0  0  0
    2.3139   -2.0080   -3.0526 H   0  0  0  0  0  0  0  0  0  0  0  0
    5.2650   -2.8658   -2.8435 H   0  0  0  0  0  0  0  0  0  0  0  0
    4.2084   -3.0715   -4.2639 H   0  0  0  0  0  0  0  0  0  0  0  0
    3.8649   -3.9591   -2.7609 H   0  0  0  0  0  0  0  0  0  0  0  0
    3.7676   -0.5252   -4.3525 H   0  0  0  0  0  0  0  0  0  0  0  0
    4.8703   -0.3399   -2.9648 H   0  0  0  0  0  0  0  0  0  0  0  0
    4.5108    3.1379   -2.2729 H   0  0  0  0  0  0  0  0  0  0  0  0
    5.2235    4.8309   -0.5808 H   0  0  0  0  0  0  0  0  0  0  0  0
    1.2543    6.4755   -0.5345 H   0  0  0  0  0  0  0  0  0  0  0  0
    0.5216    4.7851   -2.2224 H   0  0  0  0  0  0  0  0  0  0  0  0
    0.8701    4.2027   -7.1017 H   0  0  0  0  0  0  0  0  0  0  0  0
   -0.3977    4.2146   -9.2461 H   0  0  0  0  0  0  0  0  0  0  0  0
   -1.0328    0.7987  -12.1673 H   0  0  0  0  0  0  0  0  0  0  0  0
   -0.6171    2.4162  -12.4274 H   0  0  0  0  0  0  0  0  0  0  0  0
   -1.5536    0.1156   -8.5976 H   0  0  0  0  0  0  0  0  0  0  0  0
   -0.2908    0.0932   -6.4509 H   0  0  0  0  0  0  0  0  0  0  0  0
    2.4394    1.6187   -1.0030 H   0  0  0  0  0  0  0  0  0  0  0  0
    4.0828    0.9531   -0.9547 H   0  0  0  0  0  0  0  0  0  0  0  0
  1  2  1  0
  1 33  1  0
  1 34  1  0
  1 35  1  0
  2  3  1  0
  2 32  1  0
  2 36  1  1
  3  4  1  0
  3 37  1  0
  3 38  1  0
  4  5  1  0
  4  6  1  0
  4 39  1  6
  5 40  1  0
  5 41  1  0
  5 42  1  0
  6  7  1  0
  6 43  1  0
  6 44  1  0
  7  8  1  0
  7 32  1  0
  8  9  2  0
  8 30  1  0
  9 10  1  0
  9 17  1  0
 10 11  2  0
 10 16  1  0
 11 12  1  0
 11 45  1  0
 12 13  2  0
 12 46  1  0
 13 14  1  0
 13 15  1  0
 15 16  2  0
 15 47  1  0
 16 48  1  0
 17 18  2  0
 17 19  1  0
 19 20  1  0
 19 30  1  0
 20 21  2  0
 20 29  1  0
 21 22  1  0
 21 49  1  0
 22 23  2  0
 22 50  1  0
 23 24  1  0
 23 28  1  0
 24 25  1  6
 24 26  2  0
 24 27  2  0
 25 51  1  0
 25 52  1  0
 28 29  2  0
 28 53  1  0
 29 54  1  0
 30 31  2  0
 32 55  1  0
 32 56  1  0
M  END

