
     RDKit          3D

130136  0  0  0  0  0  0  0  0999 V2000
    1.5690    2.1220   -2.9881 C   0  0  0  0  0  0  0  0  0  0  0  0
    2.7622    1.6348   -2.1648 C   0  0  0  0  0  0  0  0  0  0  0  0
    3.4724    2.7514   -1.3931 C   0  0  0  0  0  0  0  0  0  0  0  0
    4.6688    2.2721   -0.5658 C   0  0  0  0  0  0  0  0  0  0  0  0
    5.3779    3.3899    0.2043 C   0  0  0  0  0  0  0  0  0  0  0  0
    6.5736    2.9097    1.0335 C   0  0  0  0  0  0  0  0  0  0  0  0
    7.2781    4.0472    1.7829 C   0  0  0  0  0  0  0  0  0  0  0  0
    8.4075    3.5479    2.7019 C   0  0  1  0  0  0  0  0  0  0  0  0
    9.6249    2.9024    2.0048 C   0  0  0  0  0  0  0  0  0  0  0  0
   10.3963    3.7138    0.9566 C   0  0  0  0  0  0  0  0  0  0  0  0
   11.5774    2.9519    0.3345 C   0  0  0  0  0  0  0  0  0  0  0  0
   11.2003    1.7612   -0.5549 C   0  0  0  0  0  0  0  0  0  0  0  0
   12.4062    1.0750   -1.2040 C   0  0  0  0  0  0  0  0  0  0  0  0
   12.0399   -0.1142   -2.0975 C   0  0  0  0  0  0  0  0  0  0  0  0
   13.2499   -0.7925   -2.7418 C   0  0  0  0  0  0  0  0  0  0  0  0
    8.8040    4.5533    3.7401 N   0  0  0  0  0  0  0  0  0  0  0  0
    8.8936    4.0645    5.0598 C   0  0  0  0  0  0  0  0  0  0  0  0
    8.6911    2.8904    5.3155 O   0  0  0  0  0  0  0  0  0  0  0  0
    9.2383    5.0353    6.1327 C   0  0  0  0  0  0  0  0  0  0  0  0
    9.3175    4.5972    7.4467 C   0  0  0  0  0  0  0  0  0  0  0  0
    9.6301    5.4947    8.4766 C   0  0  0  0  0  0  0  0  0  0  0  0
    9.8719    6.8502    8.2298 C   0  0  0  0  0  0  0  0  0  0  0  0
   10.1990    7.8019    9.3039 C   0  0  0  0  0  0  0  0  0  0  0  0
   10.2906    7.4159   10.6453 C   0  0  0  0  0  0  0  0  0  0  0  0
   10.6007    8.3304   11.6609 C   0  0  0  0  0  0  0  0  0  0  0  0
   10.8300    9.6648   11.3593 C   0  0  0  0  0  0  0  0  0  0  0  0
   10.7485   10.1014   10.0147 C   0  0  0  0  0  0  0  0  0  0  0  0
   10.9838   11.4659    9.7171 C   0  0  0  0  0  0  0  0  0  0  0  0
   10.9049   11.9031    8.4027 C   0  0  0  0  0  0  0  0  0  0  0  0
   10.5961   11.0046    7.3725 C   0  0  0  0  0  0  0  0  0  0  0  0
   10.3572    9.6486    7.6195 C   0  0  0  0  0  0  0  0  0  0  0  0
   10.0331    8.6963    6.5451 C   0  0  0  0  0  0  0  0  0  0  0  0
    9.9471    9.0804    5.2028 C   0  0  0  0  0  0  0  0  0  0  0  0
    9.6395    8.1649    4.1871 C   0  0  0  0  0  0  0  0  0  0  0  0
    9.4029    6.8320    4.4897 C   0  0  0  0  0  0  0  0  0  0  0  0
    9.4780    6.3984    5.8353 C   0  0  0  0  0  0  0  0  0  0  0  0
    9.7971    7.3234    6.8795 C   0  0  0  0  0  0  0  0  0  0  0  0
    9.0855    5.8806    3.3871 C   0  0  0  0  0  0  0  0  0  0  0  0
    9.0726    6.2529    2.2269 O   0  0  0  0  0  0  0  0  0  0  0  0
   10.4322    9.1758    8.9700 C   0  0  0  0  0  0  0  0  0  0  0  0
   11.3144   12.4413   10.7905 C   0  0  0  0  0  0  0  0  0  0  0  0
   11.5152   13.6164   10.5336 O   0  0  0  0  0  0  0  0  0  0  0  0
   11.3887   11.9527   12.1084 N   0  0  0  0  0  0  0  0  0  0  0  0
   11.7131   12.9399   13.1828 C   0  0  1  0  0  0  0  0  0  0  0  0
   10.5272   13.1180   14.1522 C   0  0  0  0  0  0  0  0  0  0  0  0
   10.5917   14.4073   14.9793 C   0  0  0  0  0  0  0  0  0  0  0  0
    9.3609   14.6107   15.8689 C   0  0  0  0  0  0  0  0  0  0  0  0
    9.4120   15.8873   16.7134 C   0  0  0  0  0  0  0  0  0  0  0  0
    8.1808   16.0944   17.6003 C   0  0  0  0  0  0  0  0  0  0  0  0
    8.2316   17.3704   18.4466 C   0  0  0  0  0  0  0  0  0  0  0  0
    6.9984   17.5702   19.3288 C   0  0  0  0  0  0  0  0  0  0  0  0
   13.0499   12.6228   13.8802 C   0  0  0  0  0  0  0  0  0  0  0  0
   14.2793   12.5270   12.9655 C   0  0  0  0  0  0  0  0  0  0  0  0
   14.6850   13.8310   12.2674 C   0  0  0  0  0  0  0  0  0  0  0  0
   15.9724   13.7057   11.4461 C   0  0  0  0  0  0  0  0  0  0  0  0
   16.3911   15.0032   10.7487 C   0  0  0  0  0  0  0  0  0  0  0  0
   17.6756   14.8796    9.9232 C   0  0  0  0  0  0  0  0  0  0  0  0
   18.0872   16.1800    9.2313 C   0  0  0  0  0  0  0  0  0  0  0  0
   11.1534   10.6153   12.4590 C   0  0  0  0  0  0  0  0  0  0  0  0
   11.2112   10.2425   13.6181 O   0  0  0  0  0  0  0  0  0  0  0  0
    1.0834    1.2937   -3.5287 H   0  0  0  0  0  0  0  0  0  0  0  0
    1.8773    2.8717   -3.7363 H   0  0  0  0  0  0  0  0  0  0  0  0
    0.8052    2.5936   -2.3470 H   0  0  0  0  0  0  0  0  0  0  0  0
    3.4898    1.1345   -2.8299 H   0  0  0  0  0  0  0  0  0  0  0  0
    2.4268    0.8587   -1.4526 H   0  0  0  0  0  0  0  0  0  0  0  0
    2.7453    3.2527   -0.7269 H   0  0  0  0  0  0  0  0  0  0  0  0
    3.8089    3.5286   -2.1048 H   0  0  0  0  0  0  0  0  0  0  0  0
    5.3953    1.7707   -1.2322 H   0  0  0  0  0  0  0  0  0  0  0  0
    4.3321    1.4954    0.1461 H   0  0  0  0  0  0  0  0  0  0  0  0
    4.6514    3.8929    0.8694 H   0  0  0  0  0  0  0  0  0  0  0  0
    5.7175    4.1656   -0.5066 H   0  0  0  0  0  0  0  0  0  0  0  0
    7.2884    2.3995    0.3636 H   0  0  0  0  0  0  0  0  0  0  0  0
    6.2343    2.1417    1.7534 H   0  0  0  0  0  0  0  0  0  0  0  0
    6.5352    4.5680    2.4126 H   0  0  0  0  0  0  0  0  0  0  0  0
    7.6490    4.7947    1.0694 H   0  0  0  0  0  0  0  0  0  0  0  0
    7.9794    2.7449    3.3141 H   0  0  0  0  0  0  0  0  0  0  0  0
    9.2539    1.9722    1.5429 H   0  0  0  0  0  0  0  0  0  0  0  0
   10.3191    2.5702    2.7965 H   0  0  0  0  0  0  0  0  0  0  0  0
   10.7727    4.6432    1.4085 H   0  0  0  0  0  0  0  0  0  0  0  0
    9.7116    4.0374    0.1531 H   0  0  0  0  0  0  0  0  0  0  0  0
   12.2530    2.6048    1.1392 H   0  0  0  0  0  0  0  0  0  0  0  0
   12.1723    3.6627   -0.2666 H   0  0  0  0  0  0  0  0  0  0  0  0
   10.5080    2.1061   -1.3461 H   0  0  0  0  0  0  0  0  0  0  0  0
   10.6377    1.0119    0.0304 H   0  0  0  0  0  0  0  0  0  0  0  0
   13.1014    0.7352   -0.4133 H   0  0  0  0  0  0  0  0  0  0  0  0
   12.9720    1.8166   -1.7989 H   0  0  0  0  0  0  0  0  0  0  0  0
   11.3444    0.2260   -2.8865 H   0  0  0  0  0  0  0  0  0  0  0  0
   11.4758   -0.8551   -1.5018 H   0  0  0  0  0  0  0  0  0  0  0  0
   13.8145   -0.0877   -3.3754 H   0  0  0  0  0  0  0  0  0  0  0  0
   12.9494   -1.6418   -3.3762 H   0  0  0  0  0  0  0  0  0  0  0  0
   13.9470   -1.1779   -1.9787 H   0  0  0  0  0  0  0  0  0  0  0  0
    9.1299    3.5431    7.6582 H   0  0  0  0  0  0  0  0  0  0  0  0
    9.6810    5.1068    9.4936 H   0  0  0  0  0  0  0  0  0  0  0  0
   10.1182    6.3777   10.9282 H   0  0  0  0  0  0  0  0  0  0  0  0
   10.6670    8.0121   12.7027 H   0  0  0  0  0  0  0  0  0  0  0  0
   11.0886   12.9578    8.1913 H   0  0  0  0  0  0  0  0  0  0  0  0
   10.5448   11.3922    6.3554 H   0  0  0  0  0  0  0  0  0  0  0  0
   10.1231   10.1177    4.9188 H   0  0  0  0  0  0  0  0  0  0  0  0
    9.5815    8.4814    3.1443 H   0  0  0  0  0  0  0  0  0  0  0  0
   11.8235   13.8803   12.6307 H   0  0  0  0  0  0  0  0  0  0  0  0
   10.4535   12.2451   14.8183 H   0  0  0  0  0  0  0  0  0  0  0  0
    9.5998   13.1338   13.5530 H   0  0  0  0  0  0  0  0  0  0  0  0
   10.7009   15.2755   14.3031 H   0  0  0  0  0  0  0  0  0  0  0  0
   11.4938   14.4056   15.6162 H   0  0  0  0  0  0  0  0  0  0  0  0
    9.2456   13.7357   16.5350 H   0  0  0  0  0  0  0  0  0  0  0  0
    8.4530   14.6267   15.2376 H   0  0  0  0  0  0  0  0  0  0  0  0
    9.5320   16.7613   16.0463 H   0  0  0  0  0  0  0  0  0  0  0  0
   10.3186   15.8692   17.3469 H   0  0  0  0  0  0  0  0  0  0  0  0
    8.0600   15.2200   18.2671 H   0  0  0  0  0  0  0  0  0  0  0  0
    7.2739   16.1136   16.9672 H   0  0  0  0  0  0  0  0  0  0  0  0
    8.3532   18.2432   17.7793 H   0  0  0  0  0  0  0  0  0  0  0  0
    9.1381   17.3500   19.0789 H   0  0  0  0  0  0  0  0  0  0  0  0
    6.0783   17.6333   18.7236 H   0  0  0  0  0  0  0  0  0  0  0  0
    7.0694   18.4958   19.9224 H   0  0  0  0  0  0  0  0  0  0  0  0
    6.8698   16.7320   20.0342 H   0  0  0  0  0  0  0  0  0  0  0  0
   12.9418   11.6906   14.4528 H   0  0  0  0  0  0  0  0  0  0  0  0
   13.2226   13.4254   14.6169 H   0  0  0  0  0  0  0  0  0  0  0  0
   14.1203   11.7393   12.2063 H   0  0  0  0  0  0  0  0  0  0  0  0
   15.1280   12.1723   13.5773 H   0  0  0  0  0  0  0  0  0  0  0  0
   14.8158   14.6228   13.0290 H   0  0  0  0  0  0  0  0  0  0  0  0
   13.8712   14.1740   11.6058 H   0  0  0  0  0  0  0  0  0  0  0  0
   15.8437   12.9107   10.6877 H   0  0  0  0  0  0  0  0  0  0  0  0
   16.7948   13.3617   12.1013 H   0  0  0  0  0  0  0  0  0  0  0  0
   16.5211   15.7989   11.5062 H   0  0  0  0  0  0  0  0  0  0  0  0
   15.5685   15.3469   10.0942 H   0  0  0  0  0  0  0  0  0  0  0  0
   17.5448   14.0846    9.1662 H   0  0  0  0  0  0  0  0  0  0  0  0
   18.4964   14.5347   10.5785 H   0  0  0  0  0  0  0  0  0  0  0  0
   17.3029   16.5320    8.5401 H   0  0  0  0  0  0  0  0  0  0  0  0
   19.0130   16.0543    8.6471 H   0  0  0  0  0  0  0  0  0  0  0  0
   18.2634   16.9855    9.9641 H   0  0  0  0  0  0  0  0  0  0  0  0
  1  2  1  0
  1 61  1  0
  1 62  1  0
  1 63  1  0
  2  3  1  0
  2 64  1  0
  2 65  1  0
  3  4  1  0
  3 66  1  0
  3 67  1  0
  4  5  1  0
  4 68  1  0
  4 69  1  0
  5  6  1  0
  5 70  1  0
  5 71  1  0
  6  7  1  0
  6 72  1  0
  6 73  1  0
  7  8  1  0
  7 74  1  0
  7 75  1  0
  8  9  1  0
  8 16  1  0
  8 76  1  1
  9 10  1  0
  9 77  1  0
  9 78  1  0
 10 11  1  0
 10 79  1  0
 10 80  1  0
 11 12  1  0
 11 81  1  0
 11 82  1  0
 12 13  1  0
 12 83  1  0
 12 84  1  0
 13 14  1  0
 13 85  1  0
 13 86  1  0
 14 15  1  0
 14 87  1  0
 14 88  1  0
 15 89  1  0
 15 90  1  0
 15 91  1  0
 16 17  1  0
 16 38  1  0
 17 18  2  0
 17 19  1  0
 19 20  1  0
 19 36  2  0
 20 21  2  0
 20 92  1  0
 21 22  1  0
 21 93  1  0
 22 23  1  0
 22 37  2  0
 23 24  2  0
 23 40  1  0
 24 25  1  0
 24 94  1  0
 25 26  2  0
 25 95  1  0
 26 27  1  0
 26 59  1  0
 27 28  1  0
 27 40  2  0
 28 29  2  0
 28 41  1  0
 29 30  1  0
 29 96  1  0
 30 31  2  0
 30 97  1  0
 31 32  1  0
 31 40  1  0
 32 33  2  0
 32 37  1  0
 33 34  1  0
 33 98  1  0
 34 35  2  0
 34 99  1  0
 35 36  1  0
 35 38  1  0
 36 37  1  0
 38 39  2  0
 41 42  2  0
 41 43  1  0
 43 44  1  0
 43 59  1  0
 44 45  1  0
 44 52  1  0
 44100  1  6
 45 46  1  0
 45101  1  0
 45102  1  0
 46 47  1  0
 46103  1  0
 46104  1  0
 47 48  1  0
 47105  1  0
 47106  1  0
 48 49  1  0
 48107  1  0
 48108  1  0
 49 50  1  0
 49109  1  0
 49110  1  0
 50 51  1  0
 50111  1  0
 50112  1  0
 51113  1  0
 51114  1  0
 51115  1  0
 52 53  1  0
 52116  1  0
 52117  1  0
 53 54  1  0
 53118  1  0
 53119  1  0
 54 55  1  0
 54120  1  0
 54121  1  0
 55 56  1  0
 55122  1  0
 55123  1  0
 56 57  1  0
 56124  1  0
 56125  1  0
 57 58  1  0
 57126  1  0
 57127  1  0
 58128  1  0
 58129  1  0
 58130  1  0
 59 60  2  0
M  END

