
     RDKit          3D

 60 62  0  0  0  0  0  0  0  0999 V2000
    1.2172    1.5894    0.7670 C   0  0  0  0  0  0  0  0  0  0  0  0
    2.4897    0.8429    0.4500 C   0  0  0  0  0  0  0  0  0  0  0  0
    2.7175    0.2336   -0.5594 O   0  0  0  0  0  0  0  0  0  0  0  0
    3.3709    0.9548    1.4850 O   0  0  0  0  0  0  0  0  0  0  0  0
    4.6324    0.3505    1.3776 C   0  0  0  0  0  0  0  0  0  0  0  0
    5.7385    1.1797    1.1194 C   0  0  0  0  0  0  0  0  0  0  0  0
    5.5467    2.6656    0.9203 C   0  0  0  0  0  0  0  0  0  0  0  0
    7.0132    0.5898    1.0571 C   0  0  0  0  0  0  0  0  0  0  0  0
    8.2714    1.3740    0.7780 C   0  0  0  0  0  0  0  0  0  0  0  0
    7.1312   -0.8022    1.2537 C   0  0  0  0  0  0  0  0  0  0  0  0
    6.0175   -1.6225    1.4977 C   0  0  0  0  0  0  0  0  0  0  0  0
    4.7413   -1.0292    1.5835 C   0  0  0  0  0  0  0  0  0  0  0  0
    3.5177   -1.8626    1.8739 C   0  0  0  0  0  0  0  0  0  0  0  0
    6.2081   -3.1174    1.6422 C   0  0  0  0  0  0  0  0  0  0  0  0
    7.5765   -3.5657    1.1274 C   0  0  0  0  0  0  0  0  0  0  0  0
    8.6923   -2.6349    1.6184 C   0  0  1  0  0  0  0  0  0  0  0  0
    8.8305   -2.6187    3.1465 C   0  0  0  0  0  0  0  0  0  0  0  0
   10.0409   -2.9353    0.9398 C   0  0  0  0  0  0  0  0  0  0  0  0
   10.7279   -4.2349    1.3525 C   0  0  0  0  0  0  0  0  0  0  0  0
   10.1204   -5.2257    1.7256 O   0  0  0  0  0  0  0  0  0  0  0  0
   12.0959   -4.1888    1.2238 N   0  0  0  0  0  0  0  0  0  0  0  0
   13.0542   -5.1975    1.4259 C   0  0  0  0  0  0  0  0  0  0  0  0
   12.7362   -6.5012    1.8461 C   0  0  0  0  0  0  0  0  0  0  0  0
   13.7835   -7.4113    2.0085 C   0  0  0  0  0  0  0  0  0  0  0  0
   13.5213   -8.8270    2.4557 C   0  0  0  0  0  0  0  0  0  0  0  0
   15.0915   -6.9718    1.7447 C   0  0  0  0  0  0  0  0  0  0  0  0
   15.3101   -5.6532    1.3318 C   0  0  0  0  0  0  0  0  0  0  0  0
   16.6920   -5.1282    1.0363 C   0  0  0  0  0  0  0  0  0  0  0  0
   14.2986   -4.7872    1.1777 N   0  0  0  0  0  0  0  0  0  0  0  0
    8.4065   -1.2916    1.1660 O   0  0  0  0  0  0  0  0  0  0  0  0
    0.4928    1.4411   -0.0424 H   0  0  0  0  0  0  0  0  0  0  0  0
    1.4330    2.6632    0.8824 H   0  0  0  0  0  0  0  0  0  0  0  0
    0.7988    1.2394    1.7228 H   0  0  0  0  0  0  0  0  0  0  0  0
    4.5214    2.9686    1.1639 H   0  0  0  0  0  0  0  0  0  0  0  0
    5.7473    2.9628   -0.1232 H   0  0  0  0  0  0  0  0  0  0  0  0
    6.2270    3.2499    1.5593 H   0  0  0  0  0  0  0  0  0  0  0  0
    8.0759    2.4410    0.6182 H   0  0  0  0  0  0  0  0  0  0  0  0
    8.7849    0.9830   -0.1157 H   0  0  0  0  0  0  0  0  0  0  0  0
    8.9907    1.2749    1.6079 H   0  0  0  0  0  0  0  0  0  0  0  0
    3.7391   -2.6851    2.5691 H   0  0  0  0  0  0  0  0  0  0  0  0
    3.1094   -2.3064    0.9495 H   0  0  0  0  0  0  0  0  0  0  0  0
    2.7219   -1.2526    2.3226 H   0  0  0  0  0  0  0  0  0  0  0  0
    5.4211   -3.6526    1.0874 H   0  0  0  0  0  0  0  0  0  0  0  0
    6.0803   -3.4199    2.6981 H   0  0  0  0  0  0  0  0  0  0  0  0
    7.5798   -3.5369    0.0243 H   0  0  0  0  0  0  0  0  0  0  0  0
    7.8062   -4.5965    1.4268 H   0  0  0  0  0  0  0  0  0  0  0  0
    9.0339   -3.6303    3.5259 H   0  0  0  0  0  0  0  0  0  0  0  0
    7.9127   -2.2446    3.6222 H   0  0  0  0  0  0  0  0  0  0  0  0
    9.6549   -1.9528    3.4459 H   0  0  0  0  0  0  0  0  0  0  0  0
   10.7062   -2.0761    1.1214 H   0  0  0  0  0  0  0  0  0  0  0  0
    9.8813   -2.9745   -0.1522 H   0  0  0  0  0  0  0  0  0  0  0  0
   12.5235   -3.3195    0.9193 H   0  0  0  0  0  0  0  0  0  0  0  0
   11.6995   -6.7712    2.0334 H   0  0  0  0  0  0  0  0  0  0  0  0
   12.4489   -9.0109    2.6118 H   0  0  0  0  0  0  0  0  0  0  0  0
   14.0478   -9.0457    3.3995 H   0  0  0  0  0  0  0  0  0  0  0  0
   13.8887   -9.5504    1.7091 H   0  0  0  0  0  0  0  0  0  0  0  0
   15.9373   -7.6542    1.8607 H   0  0  0  0  0  0  0  0  0  0  0  0
   17.4644   -5.8967    1.1809 H   0  0  0  0  0  0  0  0  0  0  0  0
   16.9213   -4.2696    1.6880 H   0  0  0  0  0  0  0  0  0  0  0  0
   16.7471   -4.7622   -0.0017 H   0  0  0  0  0  0  0  0  0  0  0  0
  1  2  1  0
  1 31  1  0
  1 32  1  0
  1 33  1  0
  2  3  2  0
  2  4  1  0
  4  5  1  0
  5  6  2  0
  5 12  1  0
  6  7  1  0
  6  8  1  0
  7 34  1  0
  7 35  1  0
  7 36  1  0
  8  9  1  0
  8 10  2  0
  9 37  1  0
  9 38  1  0
  9 39  1  0
 10 11  1  0
 10 30  1  0
 11 12  2  0
 11 14  1  0
 12 13  1  0
 13 40  1  0
 13 41  1  0
 13 42  1  0
 14 15  1  0
 14 43  1  0
 14 44  1  0
 15 16  1  0
 15 45  1  0
 15 46  1  0
 16 17  1  1
 16 18  1  0
 16 30  1  0
 17 47  1  0
 17 48  1  0
 17 49  1  0
 18 19  1  0
 18 50  1  0
 18 51  1  0
 19 20  2  0
 19 21  1  0
 21 22  1  0
 21 52  1  0
 22 23  2  0
 22 29  1  0
 23 24  1  0
 23 53  1  0
 24 25  1  0
 24 26  2  0
 25 54  1  0
 25 55  1  0
 25 56  1  0
 26 27  1  0
 26 57  1  0
 27 28  1  0
 27 29  2  0
 28 58  1  0
 28 59  1  0
 28 60  1  0
M  END

