
     RDKit          3D

 29 31  0  0  0  0  0  0  0  0999 V2000
    2.9385   -0.8181    0.7421 O   0  0  0  0  0  0  0  0  0  0  0  0
    2.5592    0.2014   -0.2373 S   0  0  1  0  0  0  0  0  0  0  0  0
    1.1577    0.4966   -0.5467 O   0  0  0  0  0  0  0  0  0  0  0  0
    3.3470    1.5998    0.3081 N   0  0  0  0  0  0  0  0  0  0  0  0
    2.9234    2.9117   -0.0764 C   0  0  0  0  0  0  0  0  0  0  0  0
    3.8270    3.7139   -0.8160 C   0  0  0  0  0  0  0  0  0  0  0  0
    3.4982    5.0056   -1.2068 C   0  0  0  0  0  0  0  0  0  0  0  0
    2.2307    5.5006   -0.8589 C   0  0  0  0  0  0  0  0  0  0  0  0
    1.4877    7.0471   -1.1800 S   0  0  0  0  0  0  0  0  0  0  0  0
    0.0428    6.6574   -0.3924 N   0  0  0  0  0  0  0  0  0  0  0  0
    0.0912    5.4478    0.0899 C   0  0  0  0  0  0  0  0  0  0  0  0
    1.3104    4.7061   -0.1285 C   0  0  0  0  0  0  0  0  0  0  0  0
    1.6651    3.4033    0.2655 C   0  0  0  0  0  0  0  0  0  0  0  0
    3.3755   -0.1637   -1.7908 C   0  0  0  0  0  0  0  0  0  0  0  0
    4.6135   -0.8144   -1.7707 C   0  0  0  0  0  0  0  0  0  0  0  0
    5.2524   -1.1045   -2.9749 C   0  0  0  0  0  0  0  0  0  0  0  0
    4.6408   -0.7430   -4.1826 C   0  0  0  0  0  0  0  0  0  0  0  0
    5.4415   -1.1053   -5.6885 Cl  0  0  0  0  0  0  0  0  0  0  0  0
    3.3970   -0.1034   -4.2006 C   0  0  0  0  0  0  0  0  0  0  0  0
    2.7572    0.1856   -2.9934 C   0  0  0  0  0  0  0  0  0  0  0  0
    3.6158    1.4533    1.2808 H   0  0  0  0  0  0  0  0  0  0  0  0
    4.8009    3.2905   -1.0697 H   0  0  0  0  0  0  0  0  0  0  0  0
    4.2095    5.6126   -1.7709 H   0  0  0  0  0  0  0  0  0  0  0  0
   -0.7786    5.0551    0.6277 H   0  0  0  0  0  0  0  0  0  0  0  0
    0.9641    2.7736    0.8152 H   0  0  0  0  0  0  0  0  0  0  0  0
    5.0629   -1.1013   -0.8182 H   0  0  0  0  0  0  0  0  0  0  0  0
    6.2168   -1.6146   -2.9867 H   0  0  0  0  0  0  0  0  0  0  0  0
    2.9342    0.1586   -5.1532 H   0  0  0  0  0  0  0  0  0  0  0  0
    1.7787    0.6682   -2.9792 H   0  0  0  0  0  0  0  0  0  0  0  0
  1  2  2  0
  2  3  2  0
  2  4  1  1
  2 14  1  0
  4  5  1  0
  4 21  1  0
  5  6  2  0
  5 13  1  0
  6  7  1  0
  6 22  1  0
  7  8  2  0
  7 23  1  0
  8  9  1  0
  8 12  1  0
  9 10  1  0
 10 11  2  0
 11 12  1  0
 11 24  1  0
 12 13  2  0
 13 25  1  0
 14 15  2  0
 14 20  1  0
 15 16  1  0
 15 26  1  0
 16 17  2  0
 16 27  1  0
 17 18  1  0
 17 19  1  0
 19 20  2  0
 19 28  1  0
 20 29  1  0
M  END

