
     RDKit          3D

 34 35  0  0  0  0  0  0  0  0999 V2000
    1.9477   -4.7534   -0.9075 N   0  0  0  0  0  0  0  0  0  0  0  0
    3.0361   -4.3478   -0.8981 C   0  0  0  0  0  0  0  0  0  0  0  0
    4.3808   -3.8477   -0.8880 C   0  0  0  0  0  0  0  0  0  0  0  0
    5.3600   -4.4105   -1.7339 C   0  0  0  0  0  0  0  0  0  0  0  0
    6.6596   -3.9252   -1.7227 C   0  0  0  0  0  0  0  0  0  0  0  0
    7.0143   -2.8660   -0.8673 C   0  0  0  0  0  0  0  0  0  0  0  0
    8.3064   -2.4571   -0.9252 O   0  0  0  0  0  0  0  0  0  0  0  0
    8.7578   -1.3986   -0.0993 C   0  0  0  0  0  0  0  0  0  0  0  0
   10.2404   -1.1055   -0.3309 C   0  0  0  0  0  0  0  0  0  0  0  0
   10.7852   -0.2388    0.3329 O   0  0  0  0  0  0  0  0  0  0  0  0
   10.8444   -1.8432   -1.2934 N   0  0  0  0  0  0  0  0  0  0  0  0
   12.2582   -1.6991   -1.6120 C   0  0  0  0  0  0  0  0  0  0  0  0
   13.1482   -2.7131   -0.9144 C   0  0  0  0  0  0  0  0  0  0  0  0
   13.3829   -2.6153    0.4675 C   0  0  0  0  0  0  0  0  0  0  0  0
   14.1858   -3.5574    1.1117 C   0  0  0  0  0  0  0  0  0  0  0  0
   14.7700   -4.6088    0.3960 C   0  0  0  0  0  0  0  0  0  0  0  0
   14.5358   -4.6987   -0.9768 C   0  0  0  0  0  0  0  0  0  0  0  0
   15.3240   -6.1212   -1.9772 Br  0  0  0  0  0  0  0  0  0  0  0  0
   13.7323   -3.7626   -1.6354 C   0  0  0  0  0  0  0  0  0  0  0  0
    6.0479   -2.2993   -0.0210 C   0  0  0  0  0  0  0  0  0  0  0  0
    4.7424   -2.7909   -0.0361 C   0  0  0  0  0  0  0  0  0  0  0  0
    5.0899   -5.2326   -2.3994 H   0  0  0  0  0  0  0  0  0  0  0  0
    7.4247   -4.3538   -2.3725 H   0  0  0  0  0  0  0  0  0  0  0  0
    8.6335   -1.6422    0.9703 H   0  0  0  0  0  0  0  0  0  0  0  0
    8.2015   -0.4659   -0.3002 H   0  0  0  0  0  0  0  0  0  0  0  0
   10.3052   -2.5893   -1.7188 H   0  0  0  0  0  0  0  0  0  0  0  0
   12.5433   -0.6816   -1.3082 H   0  0  0  0  0  0  0  0  0  0  0  0
   12.3829   -1.7758   -2.7033 H   0  0  0  0  0  0  0  0  0  0  0  0
   12.9326   -1.7928    1.0287 H   0  0  0  0  0  0  0  0  0  0  0  0
   14.3688   -3.4749    2.1862 H   0  0  0  0  0  0  0  0  0  0  0  0
   15.4005   -5.3449    0.8972 H   0  0  0  0  0  0  0  0  0  0  0  0
   13.5675   -3.8517   -2.7116 H   0  0  0  0  0  0  0  0  0  0  0  0
    6.2986   -1.4789    0.6509 H   0  0  0  0  0  0  0  0  0  0  0  0
    3.9922   -2.3490    0.6224 H   0  0  0  0  0  0  0  0  0  0  0  0
  1  2  3  0
  2  3  1  0
  3  4  2  0
  3 21  1  0
  4  5  1  0
  4 22  1  0
  5  6  2  0
  5 23  1  0
  6  7  1  0
  6 20  1  0
  7  8  1  0
  8  9  1  0
  8 24  1  0
  8 25  1  0
  9 10  2  0
  9 11  1  0
 11 12  1  0
 11 26  1  0
 12 13  1  0
 12 27  1  0
 12 28  1  0
 13 14  2  0
 13 19  1  0
 14 15  1  0
 14 29  1  0
 15 16  2  0
 15 30  1  0
 16 17  1  0
 16 31  1  0
 17 18  1  0
 17 19  2  0
 19 32  1  0
 20 21  2  0
 20 33  1  0
 21 34  1  0
M  END

