
     RDKit          3D

 33 34  0  0  0  0  0  0  0  0999 V2000
   -1.2971   -0.5773    0.3772 C   0  0  0  0  0  0  0  0  0  0  0  0
   -0.8512    0.6913    0.6378 C   0  0  0  0  0  0  0  0  0  0  0  0
    0.5300    0.6275    0.4644 N   0  0  0  0  0  0  0  0  0  0  0  0
    1.1794    1.3886    0.6052 H   0  0  0  0  0  0  0  0  0  0  0  0
    0.8350   -0.6630    0.1087 C   0  0  0  0  0  0  0  0  0  0  0  0
    2.1230   -1.0916   -0.1598 N   0  0  0  0  0  0  0  0  0  0  0  0
    2.3652   -2.5357   -0.1166 C   0  0  0  0  0  0  0  0  0  0  0  0
    3.2704   -3.0675   -1.2361 C   0  0  0  0  0  0  0  0  0  0  0  0
    2.7963   -2.7109   -2.6636 C   0  0  0  0  0  0  0  0  0  0  0  0
    3.8198   -1.9461   -3.5224 C   0  0  0  0  0  0  0  0  0  0  0  0
    4.3756   -0.6461   -2.9141 C   0  0  0  0  0  0  0  0  0  0  0  0
    3.3130    0.4069   -2.5187 C   0  0  0  0  0  0  0  0  0  0  0  0
    3.3969    0.9066   -1.0689 C   0  0  0  0  0  0  0  0  0  0  0  0
    3.2396   -0.1782    0.0203 C   0  0  0  0  0  0  0  0  0  0  0  0
   -0.2509   -1.4103    0.0502 N   0  0  0  0  0  0  0  0  0  0  0  0
   -2.3238   -0.9408    0.4042 H   0  0  0  0  0  0  0  0  0  0  0  0
   -1.3565    1.6121    0.9157 H   0  0  0  0  0  0  0  0  0  0  0  0
    1.3758   -3.0067   -0.1833 H   0  0  0  0  0  0  0  0  0  0  0  0
    2.7919   -2.8231    0.8668 H   0  0  0  0  0  0  0  0  0  0  0  0
    3.3207   -4.1618   -1.1067 H   0  0  0  0  0  0  0  0  0  0  0  0
    4.3061   -2.7209   -1.0780 H   0  0  0  0  0  0  0  0  0  0  0  0
    1.8666   -2.1234   -2.5932 H   0  0  0  0  0  0  0  0  0  0  0  0
    2.5185   -3.6301   -3.2053 H   0  0  0  0  0  0  0  0  0  0  0  0
    3.3516   -1.7173   -4.4969 H   0  0  0  0  0  0  0  0  0  0  0  0
    4.6728   -2.6110   -3.7500 H   0  0  0  0  0  0  0  0  0  0  0  0
    5.0832   -0.2055   -3.6364 H   0  0  0  0  0  0  0  0  0  0  0  0
    4.9965   -0.8974   -2.0374 H   0  0  0  0  0  0  0  0  0  0  0  0
    2.3020    0.0022   -2.6828 H   0  0  0  0  0  0  0  0  0  0  0  0
    3.3904    1.2832   -3.1833 H   0  0  0  0  0  0  0  0  0  0  0  0
    2.6338    1.6929   -0.9350 H   0  0  0  0  0  0  0  0  0  0  0  0
    4.3674    1.4051   -0.8921 H   0  0  0  0  0  0  0  0  0  0  0  0
    3.1942    0.3158    1.0148 H   0  0  0  0  0  0  0  0  0  0  0  0
    4.1515   -0.7903    0.0472 H   0  0  0  0  0  0  0  0  0  0  0  0
  1  2  2  0
  1 15  1  0
  1 16  1  0
  2  3  1  0
  2 17  1  0
  3  4  1  0
  3  5  1  0
  5  6  1  0
  5 15  2  0
  6  7  1  0
  6 14  1  0
  7  8  1  0
  7 18  1  0
  7 19  1  0
  8  9  1  0
  8 20  1  0
  8 21  1  0
  9 10  1  0
  9 22  1  0
  9 23  1  0
 10 11  1  0
 10 24  1  0
 10 25  1  0
 11 12  1  0
 11 26  1  0
 11 27  1  0
 12 13  1  0
 12 28  1  0
 12 29  1  0
 13 14  1  0
 13 30  1  0
 13 31  1  0
 14 32  1  0
 14 33  1  0
M  END

