
     RDKit          3D

 53 55  0  0  0  0  0  0  0  0999 V2000
    1.7090   -0.5107   -1.9270 O   0  0  0  0  0  0  0  0  0  0  0  0
    2.1015   -0.4845   -0.7713 C   0  0  0  0  0  0  0  0  0  0  0  0
    1.5989   -1.2982    0.2196 N   0  0  0  0  0  0  0  0  0  0  0  0
    0.6106   -2.3003    0.1365 C   0  0  0  0  0  0  0  0  0  0  0  0
   -0.0696   -2.6220   -1.0537 C   0  0  0  0  0  0  0  0  0  0  0  0
   -1.0301   -3.6315   -1.0520 C   0  0  0  0  0  0  0  0  0  0  0  0
   -1.3365   -4.3260    0.1214 C   0  0  0  0  0  0  0  0  0  0  0  0
   -2.3226   -5.2911    0.0358 O   0  0  0  0  0  0  0  0  0  0  0  0
   -2.2247   -6.4115    0.8085 C   0  0  1  0  0  0  0  0  0  0  0  0
   -2.6762   -6.1732    2.0701 F   0  0  0  0  0  0  0  0  0  0  0  0
   -3.0217   -7.3394    0.2676 F   0  0  0  0  0  0  0  0  0  0  0  0
   -0.6803   -4.0043    1.3144 C   0  0  0  0  0  0  0  0  0  0  0  0
    0.2917   -3.0032    1.3101 C   0  0  0  0  0  0  0  0  0  0  0  0
    3.2346    0.4344   -0.2977 C   0  0  1  0  0  0  0  0  0  0  0  0
    4.6060   -0.2811   -0.4122 C   0  0  0  0  0  0  0  0  0  0  0  0
    5.0936   -0.3703   -1.8615 C   0  0  0  0  0  0  0  0  0  0  0  0
    5.1289    0.9539   -2.4753 N   0  0  0  0  0  0  0  0  0  0  0  0
    6.3218    1.4413   -2.9567 C   0  0  0  0  0  0  0  0  0  0  0  0
    7.3590    0.7967   -2.8816 O   0  0  0  0  0  0  0  0  0  0  0  0
    6.3093    2.8296   -3.6021 C   0  0  0  0  0  0  0  0  0  0  0  0
    7.6961    3.2401   -4.1183 C   0  0  0  0  0  0  0  0  0  0  0  0
    7.6968    4.6132   -4.7535 C   0  0  0  0  0  0  0  0  0  0  0  0
    7.9469    5.7634   -3.9872 C   0  0  0  0  0  0  0  0  0  0  0  0
    7.9158    7.0360   -4.5645 C   0  0  0  0  0  0  0  0  0  0  0  0
    7.6327    7.1827   -5.9257 C   0  0  0  0  0  0  0  0  0  0  0  0
    7.3845    6.0471   -6.7028 C   0  0  0  0  0  0  0  0  0  0  0  0
    7.4170    4.7770   -6.1202 C   0  0  0  0  0  0  0  0  0  0  0  0
    3.8408    1.6403   -2.4915 C   0  0  0  0  0  0  0  0  0  0  0  0
    3.2661    1.7685   -1.0711 C   0  0  0  0  0  0  0  0  0  0  0  0
    1.9939   -1.1672    1.1432 H   0  0  0  0  0  0  0  0  0  0  0  0
    0.1671   -2.0803   -1.9660 H   0  0  0  0  0  0  0  0  0  0  0  0
   -1.5592   -3.8943   -1.9700 H   0  0  0  0  0  0  0  0  0  0  0  0
   -1.1886   -6.7916    0.8818 H   0  0  0  0  0  0  0  0  0  0  0  0
   -0.9384   -4.5097    2.2453 H   0  0  0  0  0  0  0  0  0  0  0  0
    0.8022   -2.7578    2.2463 H   0  0  0  0  0  0  0  0  0  0  0  0
    3.0561    0.6611    0.7679 H   0  0  0  0  0  0  0  0  0  0  0  0
    4.5521   -1.2914    0.0270 H   0  0  0  0  0  0  0  0  0  0  0  0
    5.3453    0.2872    0.1770 H   0  0  0  0  0  0  0  0  0  0  0  0
    4.4244   -1.0247   -2.4486 H   0  0  0  0  0  0  0  0  0  0  0  0
    6.1086   -0.7827   -1.9094 H   0  0  0  0  0  0  0  0  0  0  0  0
    5.9465    3.5749   -2.8730 H   0  0  0  0  0  0  0  0  0  0  0  0
    5.5801    2.8455   -4.4304 H   0  0  0  0  0  0  0  0  0  0  0  0
    8.0423    2.4840   -4.8392 H   0  0  0  0  0  0  0  0  0  0  0  0
    8.4098    3.2043   -3.2814 H   0  0  0  0  0  0  0  0  0  0  0  0
    8.1780    5.6580   -2.9227 H   0  0  0  0  0  0  0  0  0  0  0  0
    8.1190    7.9170   -3.9495 H   0  0  0  0  0  0  0  0  0  0  0  0
    7.6116    8.1765   -6.3802 H   0  0  0  0  0  0  0  0  0  0  0  0
    7.1695    6.1501   -7.7698 H   0  0  0  0  0  0  0  0  0  0  0  0
    7.2296    3.8936   -6.7384 H   0  0  0  0  0  0  0  0  0  0  0  0
    3.1321    1.0730   -3.1159 H   0  0  0  0  0  0  0  0  0  0  0  0
    3.9496    2.6377   -2.9316 H   0  0  0  0  0  0  0  0  0  0  0  0
    2.2545    2.2011   -1.1272 H   0  0  0  0  0  0  0  0  0  0  0  0
    3.8916    2.4747   -0.4987 H   0  0  0  0  0  0  0  0  0  0  0  0
  1  2  2  0
  2  3  1  0
  2 14  1  0
  3  4  1  0
  3 30  1  0
  4  5  2  0
  4 13  1  0
  5  6  1  0
  5 31  1  0
  6  7  2  0
  6 32  1  0
  7  8  1  0
  7 12  1  0
  8  9  1  0
  9 10  1  0
  9 11  1  0
  9 33  1  1
 12 13  2  0
 12 34  1  0
 13 35  1  0
 14 15  1  0
 14 29  1  0
 14 36  1  1
 15 16  1  0
 15 37  1  0
 15 38  1  0
 16 17  1  0
 16 39  1  0
 16 40  1  0
 17 18  1  0
 17 28  1  0
 18 19  2  0
 18 20  1  0
 20 21  1  0
 20 41  1  0
 20 42  1  0
 21 22  1  0
 21 43  1  0
 21 44  1  0
 22 23  2  0
 22 27  1  0
 23 24  1  0
 23 45  1  0
 24 25  2  0
 24 46  1  0
 25 26  1  0
 25 47  1  0
 26 27  2  0
 26 48  1  0
 27 49  1  0
 28 29  1  0
 28 50  1  0
 28 51  1  0
 29 52  1  0
 29 53  1  0
M  END

