
     RDKit          3D

 45 47  0  0  0  0  0  0  0  0999 V2000
    1.1619   -1.9673   -0.5649 O   0  0  0  0  0  0  0  0  0  0  0  0
    2.5720   -1.9049   -0.4468 C   0  0  0  0  0  0  0  0  0  0  0  0
    3.0164   -0.5204   -0.8907 C   0  0  0  0  0  0  0  0  0  0  0  0
    4.5408   -0.3497   -0.9963 C   0  0  1  0  0  0  0  0  0  0  0  0
    4.9145    1.0947   -1.3931 C   0  0  0  0  0  0  0  0  0  0  0  0
    4.6629    2.0193   -0.2933 N   0  0  0  0  0  0  0  0  0  0  0  0
    4.8512    3.4124   -0.6656 C   0  0  0  0  0  0  0  0  0  0  0  0
    4.2187    4.3603    0.3151 C   0  0  0  0  0  0  0  0  0  0  0  0
    2.8905    4.3185    0.8467 C   0  0  0  0  0  0  0  0  0  0  0  0
    2.8425    5.4200    1.6462 C   0  0  0  0  0  0  0  0  0  0  0  0
    4.0166    6.0684    1.6123 O   0  0  0  0  0  0  0  0  0  0  0  0
    4.8857    5.3941    0.7760 N   0  0  0  0  0  0  0  0  0  0  0  0
    5.4146    1.6349    0.8986 C   0  0  0  0  0  0  0  0  0  0  0  0
    5.0644    0.2004    1.3102 C   0  0  0  0  0  0  0  0  0  0  0  0
    5.2339   -0.7734    0.2308 N   0  0  0  0  0  0  0  0  0  0  0  0
    6.6051   -1.2374    0.0441 C   0  0  0  0  0  0  0  0  0  0  0  0
    7.1104   -2.1054    1.1853 C   0  0  0  0  0  0  0  0  0  0  0  0
    6.3051   -3.1213    1.7254 C   0  0  0  0  0  0  0  0  0  0  0  0
    6.7866   -3.9487    2.7418 C   0  0  0  0  0  0  0  0  0  0  0  0
    8.0838   -3.7746    3.2380 C   0  0  0  0  0  0  0  0  0  0  0  0
    8.8924   -2.7648    2.7113 C   0  0  0  0  0  0  0  0  0  0  0  0
    8.4053   -1.9358    1.6947 C   0  0  0  0  0  0  0  0  0  0  0  0
    0.8662   -2.8211   -0.2266 H   0  0  0  0  0  0  0  0  0  0  0  0
    3.0668   -2.6734   -1.0788 H   0  0  0  0  0  0  0  0  0  0  0  0
    2.9033   -2.0881    0.5927 H   0  0  0  0  0  0  0  0  0  0  0  0
    2.5861    0.2343   -0.2144 H   0  0  0  0  0  0  0  0  0  0  0  0
    2.5751   -0.3238   -1.8827 H   0  0  0  0  0  0  0  0  0  0  0  0
    4.8943   -1.0135   -1.8037 H   0  0  0  0  0  0  0  0  0  0  0  0
    4.3153    1.4048   -2.2649 H   0  0  0  0  0  0  0  0  0  0  0  0
    5.9830    1.1247   -1.7114 H   0  0  0  0  0  0  0  0  0  0  0  0
    4.3759    3.5658   -1.6498 H   0  0  0  0  0  0  0  0  0  0  0  0
    5.9207    3.6948   -0.7795 H   0  0  0  0  0  0  0  0  0  0  0  0
    2.1193    3.5781    0.6554 H   0  0  0  0  0  0  0  0  0  0  0  0
    2.0727    5.8577    2.2794 H   0  0  0  0  0  0  0  0  0  0  0  0
    5.1672    2.3219    1.7233 H   0  0  0  0  0  0  0  0  0  0  0  0
    6.5120    1.7316    0.7246 H   0  0  0  0  0  0  0  0  0  0  0  0
    4.0148    0.1794    1.6487 H   0  0  0  0  0  0  0  0  0  0  0  0
    5.6811   -0.1066    2.1683 H   0  0  0  0  0  0  0  0  0  0  0  0
    7.3373   -0.4183   -0.1211 H   0  0  0  0  0  0  0  0  0  0  0  0
    6.6189   -1.8385   -0.8824 H   0  0  0  0  0  0  0  0  0  0  0  0
    5.2903   -3.2488    1.3420 H   0  0  0  0  0  0  0  0  0  0  0  0
    6.1471   -4.7358    3.1507 H   0  0  0  0  0  0  0  0  0  0  0  0
    8.4597   -4.4217    4.0349 H   0  0  0  0  0  0  0  0  0  0  0  0
    9.9049   -2.6155    3.0958 H   0  0  0  0  0  0  0  0  0  0  0  0
    9.0424   -1.1430    1.2909 H   0  0  0  0  0  0  0  0  0  0  0  0
  1  2  1  0
  1 23  1  0
  2  3  1  0
  2 24  1  0
  2 25  1  0
  3  4  1  0
  3 26  1  0
  3 27  1  0
  4  5  1  0
  4 15  1  0
  4 28  1  6
  5  6  1  0
  5 29  1  0
  5 30  1  0
  6  7  1  0
  6 13  1  0
  7  8  1  0
  7 31  1  0
  7 32  1  0
  8  9  1  0
  8 12  2  0
  9 10  2  0
  9 33  1  0
 10 11  1  0
 10 34  1  0
 11 12  1  0
 13 14  1  0
 13 35  1  0
 13 36  1  0
 14 15  1  0
 14 37  1  0
 14 38  1  0
 15 16  1  0
 16 17  1  0
 16 39  1  0
 16 40  1  0
 17 18  2  0
 17 22  1  0
 18 19  1  0
 18 41  1  0
 19 20  2  0
 19 42  1  0
 20 21  1  0
 20 43  1  0
 21 22  2  0
 21 44  1  0
 22 45  1  0
M  END

