
     RDKit          3D

 36 36  0  0  0  0  0  0  0  0999 V2000
    6.2789   -0.3843   -1.4566 C   0  0  0  0  0  0  0  0  0  0  0  0
    5.0068    0.3095   -0.9830 C   0  0  0  0  0  0  0  0  0  0  0  0
    5.2513    1.1208    0.1989 N   0  0  0  0  0  0  0  0  0  0  0  0
    4.0856    1.8196    0.7087 C   0  0  0  0  0  0  0  0  0  0  0  0
    4.3674    2.5775    1.9927 C   0  0  0  0  0  0  0  0  0  0  0  0
    3.6661    3.7540    2.2783 C   0  0  0  0  0  0  0  0  0  0  0  0
    3.9109    4.4017    3.4893 C   0  0  0  0  0  0  0  0  0  0  0  0
    3.2393    5.5319    3.7641 F   0  0  0  0  0  0  0  0  0  0  0  0
    4.8269    3.9293    4.4173 C   0  0  0  0  0  0  0  0  0  0  0  0
    5.5329    2.7499    4.1219 C   0  0  0  0  0  0  0  0  0  0  0  0
    6.4160    2.3403    5.0652 O   0  0  0  0  0  0  0  0  0  0  0  0
    7.1733    1.1578    4.8614 C   0  0  0  0  0  0  0  0  0  0  0  0
    8.0628    0.9234    6.0817 C   0  0  1  0  0  0  0  0  0  0  0  0
    7.2363    0.7412    7.3593 C   0  0  0  0  0  0  0  0  0  0  0  0
    8.9936   -0.2682    5.8286 C   0  0  0  0  0  0  0  0  0  0  0  0
    5.3030    2.0764    2.9124 C   0  0  0  0  0  0  0  0  0  0  0  0
    6.0779   -1.0255   -2.3289 H   0  0  0  0  0  0  0  0  0  0  0  0
    6.7041   -1.0069   -0.6540 H   0  0  0  0  0  0  0  0  0  0  0  0
    7.0460    0.3503   -1.7562 H   0  0  0  0  0  0  0  0  0  0  0  0
    4.2463   -0.4488   -0.7225 H   0  0  0  0  0  0  0  0  0  0  0  0
    4.5693    0.8969   -1.8235 H   0  0  0  0  0  0  0  0  0  0  0  0
    6.0010    1.7893    0.0171 H   0  0  0  0  0  0  0  0  0  0  0  0
    3.3050    1.0609    0.9109 H   0  0  0  0  0  0  0  0  0  0  0  0
    3.6317    2.5188   -0.0291 H   0  0  0  0  0  0  0  0  0  0  0  0
    2.9401    4.1766    1.5810 H   0  0  0  0  0  0  0  0  0  0  0  0
    5.0030    4.4604    5.3530 H   0  0  0  0  0  0  0  0  0  0  0  0
    7.7913    1.2595    3.9497 H   0  0  0  0  0  0  0  0  0  0  0  0
    6.4965    0.2943    4.7093 H   0  0  0  0  0  0  0  0  0  0  0  0
    8.6826    1.8312    6.1981 H   0  0  0  0  0  0  0  0  0  0  0  0
    6.6097   -0.1657    7.2971 H   0  0  0  0  0  0  0  0  0  0  0  0
    6.5711    1.6009    7.5255 H   0  0  0  0  0  0  0  0  0  0  0  0
    7.8896    0.6358    8.2402 H   0  0  0  0  0  0  0  0  0  0  0  0
    8.4195   -1.1996    5.6836 H   0  0  0  0  0  0  0  0  0  0  0  0
    9.6680   -0.4274    6.6846 H   0  0  0  0  0  0  0  0  0  0  0  0
    9.6195   -0.1171    4.9339 H   0  0  0  0  0  0  0  0  0  0  0  0
    5.8387    1.1661    2.6493 H   0  0  0  0  0  0  0  0  0  0  0  0
  1  2  1  0
  1 17  1  0
  1 18  1  0
  1 19  1  0
  2  3  1  0
  2 20  1  0
  2 21  1  0
  3  4  1  0
  3 22  1  0
  4  5  1  0
  4 23  1  0
  4 24  1  0
  5  6  2  0
  5 16  1  0
  6  7  1  0
  6 25  1  0
  7  8  1  0
  7  9  2  0
  9 10  1  0
  9 26  1  0
 10 11  1  0
 10 16  2  0
 11 12  1  0
 12 13  1  0
 12 27  1  0
 12 28  1  0
 13 14  1  0
 13 15  1  0
 13 29  1  1
 14 30  1  0
 14 31  1  0
 14 32  1  0
 15 33  1  0
 15 34  1  0
 15 35  1  0
 16 36  1  0
M  END

