
     RDKit          3D

 50 54  0  0  0  0  0  0  0  0999 V2000
    1.6403    1.5905   -1.0194 Cl  0  0  0  0  0  0  0  0  0  0  0  0
    3.3079    1.0783   -0.8913 C   0  0  0  0  0  0  0  0  0  0  0  0
    3.6131   -0.1459   -0.2909 C   0  0  0  0  0  0  0  0  0  0  0  0
    4.9434   -0.5538   -0.1954 C   0  0  0  0  0  0  0  0  0  0  0  0
    5.9887    0.2490   -0.6899 C   0  0  0  0  0  0  0  0  0  0  0  0
    7.4153   -0.1311   -0.5863 C   0  0  0  0  0  0  0  0  0  0  0  0
    8.3597    0.8592   -0.6936 N   0  0  0  0  0  0  0  0  0  0  0  0
    9.5853    0.4338   -0.5654 C   0  0  0  0  0  0  0  0  0  0  0  0
   10.7693    1.3086   -0.5832 C   0  0  0  0  0  0  0  0  0  0  0  0
   12.0769    0.7962   -0.5011 C   0  0  0  0  0  0  0  0  0  0  0  0
   13.1780    1.6532   -0.5198 C   0  0  0  0  0  0  0  0  0  0  0  0
   12.9917    3.0351   -0.6245 C   0  0  0  0  0  0  0  0  0  0  0  0
   11.6946    3.5542   -0.7087 C   0  0  0  0  0  0  0  0  0  0  0  0
   10.5918    2.7018   -0.6875 C   0  0  0  0  0  0  0  0  0  0  0  0
    9.7047   -1.3020   -0.3273 S   0  0  0  0  0  0  0  0  0  0  0  0
    7.9443   -1.4019   -0.3916 C   0  0  0  0  0  0  0  0  0  0  0  0
    7.3041   -2.6452   -0.3444 N   0  0  0  0  0  0  0  0  0  0  0  0
    6.6742   -3.1494   -1.5198 C   0  0  0  0  0  0  0  0  0  0  0  0
    7.1666   -2.8216   -2.7942 C   0  0  0  0  0  0  0  0  0  0  0  0
    6.5254   -3.2959   -3.9405 C   0  0  0  0  0  0  0  0  0  0  0  0
    5.3945   -4.1105   -3.8392 C   0  0  0  0  0  0  0  0  0  0  0  0
    4.9041   -4.4407   -2.5716 C   0  0  0  0  0  0  0  0  0  0  0  0
    5.5288   -3.9604   -1.4203 C   0  0  0  0  0  0  0  0  0  0  0  0
    7.4842   -3.4597    0.8118 C   0  0  0  0  0  0  0  0  0  0  0  0
    7.4657   -2.8716    2.0892 C   0  0  0  0  0  0  0  0  0  0  0  0
    7.6685   -3.6525    3.2281 C   0  0  0  0  0  0  0  0  0  0  0  0
    7.8822   -5.0297    3.1170 C   0  0  0  0  0  0  0  0  0  0  0  0
    7.9016   -5.6168    1.8479 C   0  0  0  0  0  0  0  0  0  0  0  0
    7.7132   -4.8430    0.7016 C   0  0  0  0  0  0  0  0  0  0  0  0
    5.6524    1.4835   -1.2790 C   0  0  0  0  0  0  0  0  0  0  0  0
    4.3263    1.8981   -1.3860 C   0  0  0  0  0  0  0  0  0  0  0  0
    2.8111   -0.7733    0.1013 H   0  0  0  0  0  0  0  0  0  0  0  0
    5.1660   -1.5045    0.2870 H   0  0  0  0  0  0  0  0  0  0  0  0
   12.2383   -0.2824   -0.4244 H   0  0  0  0  0  0  0  0  0  0  0  0
   14.1870    1.2386   -0.4547 H   0  0  0  0  0  0  0  0  0  0  0  0
   13.8546    3.7056   -0.6404 H   0  0  0  0  0  0  0  0  0  0  0  0
   11.5419    4.6335   -0.7891 H   0  0  0  0  0  0  0  0  0  0  0  0
    9.5759    3.0946   -0.7474 H   0  0  0  0  0  0  0  0  0  0  0  0
    8.0551   -2.1952   -2.8854 H   0  0  0  0  0  0  0  0  0  0  0  0
    6.9230   -3.0299   -4.9233 H   0  0  0  0  0  0  0  0  0  0  0  0
    4.8976   -4.4819   -4.7383 H   0  0  0  0  0  0  0  0  0  0  0  0
    4.0145   -5.0686   -2.4746 H   0  0  0  0  0  0  0  0  0  0  0  0
    5.1292   -4.2144   -0.4369 H   0  0  0  0  0  0  0  0  0  0  0  0
    7.2922   -1.7979    2.1835 H   0  0  0  0  0  0  0  0  0  0  0  0
    7.6494   -3.1779    4.2126 H   0  0  0  0  0  0  0  0  0  0  0  0
    8.0351   -5.6394    4.0105 H   0  0  0  0  0  0  0  0  0  0  0  0
    8.0791   -6.6905    1.7440 H   0  0  0  0  0  0  0  0  0  0  0  0
    7.7466   -5.3097   -0.2840 H   0  0  0  0  0  0  0  0  0  0  0  0
    6.4541    2.1209   -1.6531 H   0  0  0  0  0  0  0  0  0  0  0  0
    4.0769    2.8540   -1.8497 H   0  0  0  0  0  0  0  0  0  0  0  0
  1  2  1  0
  2  3  2  0
  2 31  1  0
  3  4  1  0
  3 32  1  0
  4  5  2  0
  4 33  1  0
  5  6  1  0
  5 30  1  0
  6  7  1  0
  6 16  2  0
  7  8  2  0
  8  9  1  0
  8 15  1  0
  9 10  2  0
  9 14  1  0
 10 11  1  0
 10 34  1  0
 11 12  2  0
 11 35  1  0
 12 13  1  0
 12 36  1  0
 13 14  2  0
 13 37  1  0
 14 38  1  0
 15 16  1  0
 16 17  1  0
 17 18  1  0
 17 24  1  0
 18 19  2  0
 18 23  1  0
 19 20  1  0
 19 39  1  0
 20 21  2  0
 20 40  1  0
 21 22  1  0
 21 41  1  0
 22 23  2  0
 22 42  1  0
 23 43  1  0
 24 25  2  0
 24 29  1  0
 25 26  1  0
 25 44  1  0
 26 27  2  0
 26 45  1  0
 27 28  1  0
 27 46  1  0
 28 29  2  0
 28 47  1  0
 29 48  1  0
 30 31  2  0
 30 49  1  0
 31 50  1  0
M  END

