
     RDKit          3D

 45 46  0  0  0  0  0  0  0  0999 V2000
    2.3891   -0.3271   -1.1091 O   0  0  0  0  0  0  0  0  0  0  0  0
    2.0340   -0.1566    0.0587 C   0  0  0  0  0  0  0  0  0  0  0  0
    0.7726   -0.3015    0.4964 N   0  0  0  0  0  0  0  0  0  0  0  0
   -0.3388   -0.7066   -0.3501 C   0  0  0  0  0  0  0  0  0  0  0  0
   -1.1038    0.4478   -1.0122 C   0  0  0  0  0  0  0  0  0  0  0  0
   -0.2526    1.2855   -1.9781 C   0  0  0  0  0  0  0  0  0  0  0  0
    0.4001    0.5092   -2.9496 O   0  0  0  0  0  0  0  0  0  0  0  0
    2.9621    0.2693    1.2361 C   0  0  0  0  0  0  0  0  0  0  0  0
    2.4124    0.5619    2.2974 O   0  0  0  0  0  0  0  0  0  0  0  0
    4.3071    0.3169    1.0644 N   0  0  0  0  0  0  0  0  0  0  0  0
    5.0896   -0.0637   -0.1200 C   0  0  0  0  0  0  0  0  0  0  0  0
    6.0117    1.0963   -0.5318 C   0  0  0  0  0  0  0  0  0  0  0  0
    6.8588    1.5864    0.5526 N   0  0  0  0  0  0  0  0  0  0  0  0
    8.0615    0.8030    0.8071 C   0  0  0  0  0  0  0  0  0  0  0  0
    9.0976    0.9165   -0.2993 C   0  0  0  0  0  0  0  0  0  0  0  0
    9.3573    2.1523   -0.9127 C   0  0  0  0  0  0  0  0  0  0  0  0
   10.3448    2.2664   -1.8935 C   0  0  0  0  0  0  0  0  0  0  0  0
   11.0905    1.1462   -2.2775 C   0  0  0  0  0  0  0  0  0  0  0  0
   10.8373   -0.0892   -1.6761 C   0  0  0  0  0  0  0  0  0  0  0  0
    9.8447   -0.2012   -0.6967 C   0  0  0  0  0  0  0  0  0  0  0  0
    6.0554    1.9147    1.7227 C   0  0  0  0  0  0  0  0  0  0  0  0
    5.1366    0.7714    2.1859 C   0  0  0  0  0  0  0  0  0  0  0  0
    0.6373   -0.0532    1.4753 H   0  0  0  0  0  0  0  0  0  0  0  0
   -1.0258   -1.3101    0.2633 H   0  0  0  0  0  0  0  0  0  0  0  0
    0.0646   -1.3606   -1.1378 H   0  0  0  0  0  0  0  0  0  0  0  0
   -1.5420    1.1069   -0.2411 H   0  0  0  0  0  0  0  0  0  0  0  0
   -1.9444    0.0003   -1.5704 H   0  0  0  0  0  0  0  0  0  0  0  0
    0.4647    1.9036   -1.3995 H   0  0  0  0  0  0  0  0  0  0  0  0
   -0.9144    1.9953   -2.5038 H   0  0  0  0  0  0  0  0  0  0  0  0
    1.1833    0.1176   -2.5206 H   0  0  0  0  0  0  0  0  0  0  0  0
    4.4141   -0.3317   -0.9357 H   0  0  0  0  0  0  0  0  0  0  0  0
    5.6920   -0.9537    0.1413 H   0  0  0  0  0  0  0  0  0  0  0  0
    5.3801    1.9295   -0.8884 H   0  0  0  0  0  0  0  0  0  0  0  0
    6.6434    0.7830   -1.3766 H   0  0  0  0  0  0  0  0  0  0  0  0
    7.8665   -0.2756    0.9953 H   0  0  0  0  0  0  0  0  0  0  0  0
    8.5054    1.1898    1.7419 H   0  0  0  0  0  0  0  0  0  0  0  0
    8.7642    3.0204   -0.6159 H   0  0  0  0  0  0  0  0  0  0  0  0
   10.5346    3.2357   -2.3625 H   0  0  0  0  0  0  0  0  0  0  0  0
   11.8623    1.2359   -3.0463 H   0  0  0  0  0  0  0  0  0  0  0  0
   11.4091   -0.9721   -1.9740 H   0  0  0  0  0  0  0  0  0  0  0  0
    9.6473   -1.1734   -0.2345 H   0  0  0  0  0  0  0  0  0  0  0  0
    5.4224    2.7867    1.4773 H   0  0  0  0  0  0  0  0  0  0  0  0
    6.7172    2.2151    2.5508 H   0  0  0  0  0  0  0  0  0  0  0  0
    4.4724    1.0922    2.9971 H   0  0  0  0  0  0  0  0  0  0  0  0
    5.7368   -0.0822    2.5521 H   0  0  0  0  0  0  0  0  0  0  0  0
  1  2  2  0
  2  3  1  0
  2  8  1  0
  3  4  1  0
  3 23  1  0
  4  5  1  0
  4 24  1  0
  4 25  1  0
  5  6  1  0
  5 26  1  0
  5 27  1  0
  6  7  1  0
  6 28  1  0
  6 29  1  0
  7 30  1  0
  8  9  2  0
  8 10  1  0
 10 11  1  0
 10 22  1  0
 11 12  1  0
 11 31  1  0
 11 32  1  0
 12 13  1  0
 12 33  1  0
 12 34  1  0
 13 14  1  0
 13 21  1  0
 14 15  1  0
 14 35  1  0
 14 36  1  0
 15 16  2  0
 15 20  1  0
 16 17  1  0
 16 37  1  0
 17 18  2  0
 17 38  1  0
 18 19  1  0
 18 39  1  0
 19 20  2  0
 19 40  1  0
 20 41  1  0
 21 22  1  0
 21 42  1  0
 21 43  1  0
 22 44  1  0
 22 45  1  0
M  END

