
     RDKit          3D

 48 51  0  0  0  0  0  0  0  0999 V2000
    0.1677   -0.2118   -0.1602 O   0  0  0  0  0  0  0  0  0  0  0  0
    1.6046   -0.4109    0.0594 S   0  0  1  0  0  0  0  0  0  0  0  0
    2.1103   -0.9330    1.3328 O   0  0  0  0  0  0  0  0  0  0  0  0
    2.1554   -1.4651   -1.2421 C   0  0  0  0  0  0  0  0  0  0  0  0
    3.4357   -2.0245   -1.4700 C   0  0  0  0  0  0  0  0  0  0  0  0
    3.4117   -2.8321   -2.5215 N   0  0  0  0  0  0  0  0  0  0  0  0
    2.1406   -2.8125   -2.9749 N   0  0  0  0  0  0  0  0  0  0  0  0
    1.7221   -3.6083   -4.1384 C   0  0  1  0  0  0  0  0  0  0  0  0
    2.4486   -3.1944   -5.4346 C   0  0  0  0  0  0  0  0  0  0  0  0
    3.8335   -3.8360   -5.5687 C   0  0  0  0  0  0  0  0  0  0  0  0
    3.7602   -5.2420   -5.4252 O   0  0  0  0  0  0  0  0  0  0  0  0
    3.2932   -5.6299   -4.1460 C   0  0  0  0  0  0  0  0  0  0  0  0
    1.8670   -5.1260   -3.9030 C   0  0  0  0  0  0  0  0  0  0  0  0
    1.3474   -2.0035   -2.2332 C   0  0  0  0  0  0  0  0  0  0  0  0
    2.4714    0.9942   -0.2343 N   0  0  0  0  0  0  0  0  0  0  0  0
    2.1133    1.8463   -1.3713 C   0  0  0  0  0  0  0  0  0  0  0  0
    3.1796    2.9641   -1.3083 C   0  0  0  0  0  0  0  0  0  0  0  0
    3.8231    2.8459    0.1009 C   0  0  0  0  0  0  0  0  0  0  0  0
    2.9522    1.8410    0.8888 C   0  0  1  0  0  0  0  0  0  0  0  0
    3.5650    1.2073    1.5433 H   0  0  0  0  0  0  0  0  0  0  0  0
    1.8393    2.4618    1.7346 C   0  0  0  0  0  0  0  0  0  0  0  0
    1.2276    3.6827    1.4033 C   0  0  0  0  0  0  0  0  0  0  0  0
    0.1992    4.2095    2.1905 C   0  0  0  0  0  0  0  0  0  0  0  0
   -0.2334    3.5271    3.3301 C   0  0  0  0  0  0  0  0  0  0  0  0
    0.3694    2.3140    3.6743 C   0  0  0  0  0  0  0  0  0  0  0  0
    1.3933    1.7870    2.8838 C   0  0  0  0  0  0  0  0  0  0  0  0
    4.3540   -1.8660   -0.9065 H   0  0  0  0  0  0  0  0  0  0  0  0
    0.6531   -3.3712   -4.2450 H   0  0  0  0  0  0  0  0  0  0  0  0
    2.5184   -2.0962   -5.4975 H   0  0  0  0  0  0  0  0  0  0  0  0
    1.8257   -3.5328   -6.2796 H   0  0  0  0  0  0  0  0  0  0  0  0
    4.5265   -3.4054   -4.8228 H   0  0  0  0  0  0  0  0  0  0  0  0
    4.2436   -3.6431   -6.5721 H   0  0  0  0  0  0  0  0  0  0  0  0
    3.9698   -5.2553   -3.3563 H   0  0  0  0  0  0  0  0  0  0  0  0
    3.3140   -6.7303   -4.1241 H   0  0  0  0  0  0  0  0  0  0  0  0
    1.5273   -5.3870   -2.8877 H   0  0  0  0  0  0  0  0  0  0  0  0
    1.1935   -5.6319   -4.6152 H   0  0  0  0  0  0  0  0  0  0  0  0
    0.2876   -1.8597   -2.4295 H   0  0  0  0  0  0  0  0  0  0  0  0
    1.0903    2.2497   -1.2690 H   0  0  0  0  0  0  0  0  0  0  0  0
    2.1536    1.2663   -2.3063 H   0  0  0  0  0  0  0  0  0  0  0  0
    2.7199    3.9491   -1.4786 H   0  0  0  0  0  0  0  0  0  0  0  0
    3.9383    2.8269   -2.0924 H   0  0  0  0  0  0  0  0  0  0  0  0
    3.9055    3.8101    0.6210 H   0  0  0  0  0  0  0  0  0  0  0  0
    4.8387    2.4336    0.0135 H   0  0  0  0  0  0  0  0  0  0  0  0
    1.5556    4.2455    0.5270 H   0  0  0  0  0  0  0  0  0  0  0  0
   -0.2618    5.1610    1.9125 H   0  0  0  0  0  0  0  0  0  0  0  0
   -1.0352    3.9398    3.9478 H   0  0  0  0  0  0  0  0  0  0  0  0
    0.0400    1.7712    4.5641 H   0  0  0  0  0  0  0  0  0  0  0  0
    1.8431    0.8272    3.1452 H   0  0  0  0  0  0  0  0  0  0  0  0
  1  2  2  0
  2  3  2  0
  2  4  1  6
  2 15  1  0
  4  5  1  0
  4 14  2  0
  5  6  2  0
  5 27  1  0
  6  7  1  0
  7  8  1  0
  7 14  1  0
  8  9  1  0
  8 13  1  0
  8 28  1  6
  9 10  1  0
  9 29  1  0
  9 30  1  0
 10 11  1  0
 10 31  1  0
 10 32  1  0
 11 12  1  0
 12 13  1  0
 12 33  1  0
 12 34  1  0
 13 35  1  0
 13 36  1  0
 14 37  1  0
 15 16  1  0
 15 19  1  0
 16 17  1  0
 16 38  1  0
 16 39  1  0
 17 18  1  0
 17 40  1  0
 17 41  1  0
 18 19  1  0
 18 42  1  0
 18 43  1  0
 19 20  1  1
 19 21  1  0
 21 22  2  0
 21 26  1  0
 22 23  1  0
 22 44  1  0
 23 24  2  0
 23 45  1  0
 24 25  1  0
 24 46  1  0
 25 26  2  0
 25 47  1  0
 26 48  1  0
M  END

