
     RDKit          3D

 44 45  0  0  0  0  0  0  0  0999 V2000
    3.4699   -1.2130    1.0547 C   0  0  0  0  0  0  0  0  0  0  0  0
    2.9647   -0.2590   -0.0067 C   0  0  0  0  0  0  0  0  0  0  0  0
    3.4357    1.0656    0.0110 C   0  0  0  0  0  0  0  0  0  0  0  0
    3.0516    2.0096   -0.9401 C   0  0  0  0  0  0  0  0  0  0  0  0
    2.1859    1.6193   -1.9643 C   0  0  0  0  0  0  0  0  0  0  0  0
    1.6611    2.8832   -3.2940 Br  0  0  0  0  0  0  0  0  0  0  0  0
    1.7125    0.3128   -2.0255 C   0  0  0  0  0  0  0  0  0  0  0  0
    2.0723   -0.6251   -1.0424 C   0  0  0  0  0  0  0  0  0  0  0  0
    1.4759   -2.0027   -1.2512 C   0  0  0  0  0  0  0  0  0  0  0  0
    1.2915   -2.4450   -2.3762 O   0  0  0  0  0  0  0  0  0  0  0  0
    1.1281   -2.7023   -0.1309 N   0  0  0  0  0  0  0  0  0  0  0  0
    0.4759   -4.0005   -0.2104 C   0  0  0  0  0  0  0  0  0  0  0  0
   -1.0391   -3.9193   -0.4347 C   0  0  0  0  0  0  0  0  0  0  0  0
   -1.7026   -5.2896   -0.4767 C   0  0  0  0  0  0  0  0  0  0  0  0
   -1.4943   -5.9158    0.7724 O   0  0  0  0  0  0  0  0  0  0  0  0
   -2.0008   -7.2229    1.0379 C   0  0  1  0  0  0  0  0  0  0  0  0
   -3.5424   -7.3203    1.0572 C   0  0  0  0  0  0  0  0  0  0  0  0
   -4.1879   -7.6972   -0.2823 C   0  0  0  0  0  0  0  0  0  0  0  0
   -3.5432   -8.8891   -0.8181 N   0  0  0  0  0  0  0  0  0  0  0  0
   -2.1341   -8.6683   -1.1173 C   0  0  0  0  0  0  0  0  0  0  0  0
   -1.3770   -8.3435    0.1766 C   0  0  0  0  0  0  0  0  0  0  0  0
    4.4206   -0.8497    1.4718 H   0  0  0  0  0  0  0  0  0  0  0  0
    3.6311   -2.2272    0.6642 H   0  0  0  0  0  0  0  0  0  0  0  0
    2.7690   -1.2981    1.9052 H   0  0  0  0  0  0  0  0  0  0  0  0
    4.1383    1.3653    0.7936 H   0  0  0  0  0  0  0  0  0  0  0  0
    3.4320    3.0313   -0.8945 H   0  0  0  0  0  0  0  0  0  0  0  0
    1.0618   -0.0128   -2.8376 H   0  0  0  0  0  0  0  0  0  0  0  0
    1.1441   -2.2286    0.7629 H   0  0  0  0  0  0  0  0  0  0  0  0
    0.6814   -4.5534    0.7176 H   0  0  0  0  0  0  0  0  0  0  0  0
    0.9391   -4.5514   -1.0432 H   0  0  0  0  0  0  0  0  0  0  0  0
   -1.2346   -3.3986   -1.3860 H   0  0  0  0  0  0  0  0  0  0  0  0
   -1.5017   -3.3249    0.3725 H   0  0  0  0  0  0  0  0  0  0  0  0
   -1.2699   -5.8862   -1.3039 H   0  0  0  0  0  0  0  0  0  0  0  0
   -2.7806   -5.1677   -0.6940 H   0  0  0  0  0  0  0  0  0  0  0  0
   -1.6560   -7.3825    2.0716 H   0  0  0  0  0  0  0  0  0  0  0  0
   -3.9554   -6.3739    1.4433 H   0  0  0  0  0  0  0  0  0  0  0  0
   -3.8074   -8.1082    1.7822 H   0  0  0  0  0  0  0  0  0  0  0  0
   -4.1449   -6.8359   -0.9863 H   0  0  0  0  0  0  0  0  0  0  0  0
   -5.2568   -7.9136   -0.1204 H   0  0  0  0  0  0  0  0  0  0  0  0
   -4.0364   -9.2232   -1.6431 H   0  0  0  0  0  0  0  0  0  0  0  0
   -1.9786   -7.8605   -1.8671 H   0  0  0  0  0  0  0  0  0  0  0  0
   -1.7163   -9.5878   -1.5596 H   0  0  0  0  0  0  0  0  0  0  0  0
   -0.3249   -8.0909   -0.0342 H   0  0  0  0  0  0  0  0  0  0  0  0
   -1.3722   -9.2588    0.7923 H   0  0  0  0  0  0  0  0  0  0  0  0
  1  2  1  0
  1 22  1  0
  1 23  1  0
  1 24  1  0
  2  3  2  0
  2  8  1  0
  3  4  1  0
  3 25  1  0
  4  5  2  0
  4 26  1  0
  5  6  1  0
  5  7  1  0
  7  8  2  0
  7 27  1  0
  8  9  1  0
  9 10  2  0
  9 11  1  0
 11 12  1  0
 11 28  1  0
 12 13  1  0
 12 29  1  0
 12 30  1  0
 13 14  1  0
 13 31  1  0
 13 32  1  0
 14 15  1  0
 14 33  1  0
 14 34  1  0
 15 16  1  0
 16 17  1  0
 16 21  1  0
 16 35  1  1
 17 18  1  0
 17 36  1  0
 17 37  1  0
 18 19  1  0
 18 38  1  0
 18 39  1  0
 19 20  1  0
 19 40  1  0
 20 21  1  0
 20 41  1  0
 20 42  1  0
 21 43  1  0
 21 44  1  0
M  END

