
     RDKit          3D

110116  0  0  0  0  0  0  0  0999 V2000
    0.8560   -1.4517   -0.1273 C   0  0  0  0  0  0  0  0  0  0  0  0
    2.2060   -0.7238    0.0067 C   0  0  1  0  0  0  0  0  0  0  0  0
    1.9939    0.7062    0.5304 C   0  0  0  0  0  0  0  0  0  0  0  0
    3.4899   -1.7638    0.9927 Si  0  0  1  0  0  4  0  0  0  0  0  0
    2.7633   -2.2061    2.6375 C   0  0  0  0  0  0  0  0  0  0  0  0
    2.3091   -2.5837    3.7117 C   0  0  0  0  0  0  0  0  0  0  0  0
    1.7780   -3.0090    4.9589 C   0  0  0  0  0  0  0  0  0  0  0  0
    1.1451   -2.0782    5.8459 C   0  0  0  0  0  0  0  0  0  0  0  0
    1.0335   -0.7121    5.5143 C   0  0  0  0  0  0  0  0  0  0  0  0
    0.4200    0.2118    6.3622 C   0  0  0  0  0  0  0  0  0  0  0  0
    0.3060    1.6023    6.0266 C   0  0  0  0  0  0  0  0  0  0  0  0
   -0.3029    2.4836    6.8812 C   0  0  0  0  0  0  0  0  0  0  0  0
   -0.8389    2.0331    8.1299 C   0  0  0  0  0  0  0  0  0  0  0  0
   -0.7513    0.7137    8.4899 C   0  0  0  0  0  0  0  0  0  0  0  0
   -0.1223   -0.2442    7.6265 C   0  0  0  0  0  0  0  0  0  0  0  0
   -0.0158   -1.5951    7.9635 C   0  0  0  0  0  0  0  0  0  0  0  0
    0.6031   -2.5352    7.1143 C   0  0  0  0  0  0  0  0  0  0  0  0
    0.7044   -3.9177    7.4804 C   0  0  0  0  0  0  0  0  0  0  0  0
    0.1794   -4.3824    8.7170 C   0  0  0  0  0  0  0  0  0  0  0  0
   -0.2867   -4.7521    9.7892 C   0  0  0  0  0  0  0  0  0  0  0  0
   -0.9689   -5.3550   11.4024 Si  0  0  1  0  0  4  0  0  0  0  0  0
   -1.1121   -7.2637   11.2523 C   0  0  1  0  0  0  0  0  0  0  0  0
   -1.5677   -7.9581   12.5478 C   0  0  0  0  0  0  0  0  0  0  0  0
   -1.9312   -7.7431   10.0417 C   0  0  0  0  0  0  0  0  0  0  0  0
    0.2995   -4.9081   12.7727 C   0  0  1  0  0  0  0  0  0  0  0  0
    1.6487   -5.6226   12.5808 C   0  0  0  0  0  0  0  0  0  0  0  0
    0.5005   -3.3886   12.9089 C   0  0  0  0  0  0  0  0  0  0  0  0
   -2.6025   -4.3915   11.7025 C   0  0  1  0  0  0  0  0  0  0  0  0
   -3.6529   -4.5699   10.5931 C   0  0  0  0  0  0  0  0  0  0  0  0
   -3.2187   -4.6193   13.0943 C   0  0  0  0  0  0  0  0  0  0  0  0
    1.3362   -4.8278    6.5973 C   0  0  0  0  0  0  0  0  0  0  0  0
    1.4346   -6.1356    6.9484 N   0  0  0  0  0  0  0  0  0  0  0  0
    2.0213   -6.9760    6.1273 C   0  0  0  0  0  0  0  0  0  0  0  0
    2.5589   -6.5186    4.8507 C   0  0  0  0  0  0  0  0  0  0  0  0
    3.1936   -7.4746    3.9675 C   0  0  0  0  0  0  0  0  0  0  0  0
    3.2958   -8.7840    4.3115 C   0  0  0  0  0  0  0  0  0  0  0  0
    2.7846   -9.2968    5.5686 C   0  0  0  0  0  0  0  0  0  0  0  0
    2.9012  -10.6415    5.9056 C   0  0  0  0  0  0  0  0  0  0  0  0
    2.4075  -11.1478    7.1313 C   0  0  0  0  0  0  0  0  0  0  0  0
    2.5191  -12.5222    7.4910 C   0  0  0  0  0  0  0  0  0  0  0  0
    2.0269  -12.9783    8.6947 C   0  0  0  0  0  0  0  0  0  0  0  0
    1.3981  -12.0829    9.6009 C   0  0  0  0  0  0  0  0  0  0  0  0
    1.2733  -10.7474    9.2849 C   0  0  0  0  0  0  0  0  0  0  0  0
    1.7697  -10.2404    8.0487 C   0  0  0  0  0  0  0  0  0  0  0  0
    1.6551   -8.8749    7.6960 C   0  0  0  0  0  0  0  0  0  0  0  0
    2.1432   -8.3941    6.4891 C   0  0  0  0  0  0  0  0  0  0  0  0
    2.4751   -5.2536    4.4910 N   0  0  0  0  0  0  0  0  0  0  0  0
    1.8740   -4.3735    5.3318 C   0  0  0  0  0  0  0  0  0  0  0  0
    3.7445   -3.4177    0.0483 C   0  0  1  0  0  0  0  0  0  0  0  0
    4.4168   -3.2359   -1.3246 C   0  0  0  0  0  0  0  0  0  0  0  0
    4.4129   -4.5331    0.8714 C   0  0  0  0  0  0  0  0  0  0  0  0
    5.1028   -0.7539    1.2939 C   0  0  1  0  0  0  0  0  0  0  0  0
    4.9673    0.2498    2.4549 C   0  0  0  0  0  0  0  0  0  0  0  0
    6.3591   -1.6177    1.5043 C   0  0  0  0  0  0  0  0  0  0  0  0
    0.1543   -0.8657   -0.7465 H   0  0  0  0  0  0  0  0  0  0  0  0
    0.3825   -1.5992    0.8575 H   0  0  0  0  0  0  0  0  0  0  0  0
    0.9535   -2.4433   -0.5961 H   0  0  0  0  0  0  0  0  0  0  0  0
    2.6460   -0.6412   -1.0067 H   0  0  0  0  0  0  0  0  0  0  0  0
    1.6180    0.7065    1.5677 H   0  0  0  0  0  0  0  0  0  0  0  0
    1.2470    1.2393   -0.0840 H   0  0  0  0  0  0  0  0  0  0  0  0
    2.9181    1.3035    0.5087 H   0  0  0  0  0  0  0  0  0  0  0  0
    1.4437   -0.3733    4.5613 H   0  0  0  0  0  0  0  0  0  0  0  0
    0.7161    1.9442    5.0726 H   0  0  0  0  0  0  0  0  0  0  0  0
   -0.3836    3.5403    6.6142 H   0  0  0  0  0  0  0  0  0  0  0  0
   -1.3205    2.7530    8.7964 H   0  0  0  0  0  0  0  0  0  0  0  0
   -1.1599    0.3680    9.4431 H   0  0  0  0  0  0  0  0  0  0  0  0
   -0.4228   -1.9419    8.9148 H   0  0  0  0  0  0  0  0  0  0  0  0
   -0.0614   -7.5612   11.0688 H   0  0  0  0  0  0  0  0  0  0  0  0
   -2.6191   -7.7265   12.7852 H   0  0  0  0  0  0  0  0  0  0  0  0
   -0.9611   -7.6674   13.4207 H   0  0  0  0  0  0  0  0  0  0  0  0
   -1.4969   -9.0560   12.4517 H   0  0  0  0  0  0  0  0  0  0  0  0
   -3.0051   -7.5301   10.1658 H   0  0  0  0  0  0  0  0  0  0  0  0
   -1.8342   -8.8355    9.9103 H   0  0  0  0  0  0  0  0  0  0  0  0
   -1.6023   -7.2648    9.1060 H   0  0  0  0  0  0  0  0  0  0  0  0
   -0.1457   -5.2751   13.7176 H   0  0  0  0  0  0  0  0  0  0  0  0
    2.1196   -5.3404   11.6243 H   0  0  0  0  0  0  0  0  0  0  0  0
    1.5485   -6.7194   12.5884 H   0  0  0  0  0  0  0  0  0  0  0  0
    2.3543   -5.3540   13.3865 H   0  0  0  0  0  0  0  0  0  0  0  0
    0.9031   -2.9537   11.9787 H   0  0  0  0  0  0  0  0  0  0  0  0
    1.2179   -3.1568   13.7155 H   0  0  0  0  0  0  0  0  0  0  0  0
   -0.4365   -2.8591   13.1442 H   0  0  0  0  0  0  0  0  0  0  0  0
   -2.2649   -3.3379   11.6605 H   0  0  0  0  0  0  0  0  0  0  0  0
   -4.0883   -5.5822   10.6050 H   0  0  0  0  0  0  0  0  0  0  0  0
   -3.2296   -4.4023    9.5903 H   0  0  0  0  0  0  0  0  0  0  0  0
   -4.4879   -3.8595   10.7261 H   0  0  0  0  0  0  0  0  0  0  0  0
   -3.5961   -5.6486   13.2099 H   0  0  0  0  0  0  0  0  0  0  0  0
   -4.0765   -3.9435   13.2583 H   0  0  0  0  0  0  0  0  0  0  0  0
   -2.5008   -4.4383   13.9103 H   0  0  0  0  0  0  0  0  0  0  0  0
    3.5812   -7.0943    3.0208 H   0  0  0  0  0  0  0  0  0  0  0  0
    3.7778   -9.4920    3.6316 H   0  0  0  0  0  0  0  0  0  0  0  0
    3.3876  -11.3284    5.2071 H   0  0  0  0  0  0  0  0  0  0  0  0
    3.0035  -13.2115    6.7940 H   0  0  0  0  0  0  0  0  0  0  0  0
    2.1191  -14.0350    8.9581 H   0  0  0  0  0  0  0  0  0  0  0  0
    1.0132  -12.4597   10.5518 H   0  0  0  0  0  0  0  0  0  0  0  0
    0.7909  -10.0545    9.9791 H   0  0  0  0  0  0  0  0  0  0  0  0
    1.1745   -8.1715    8.3788 H   0  0  0  0  0  0  0  0  0  0  0  0
    2.7047   -3.7460   -0.1382 H   0  0  0  0  0  0  0  0  0  0  0  0
    5.4628   -2.8996   -1.2299 H   0  0  0  0  0  0  0  0  0  0  0  0
    3.8921   -2.5017   -1.9575 H   0  0  0  0  0  0  0  0  0  0  0  0
    4.4363   -4.1891   -1.8819 H   0  0  0  0  0  0  0  0  0  0  0  0
    5.4726   -4.3155    1.0780 H   0  0  0  0  0  0  0  0  0  0  0  0
    4.3832   -5.4896    0.3189 H   0  0  0  0  0  0  0  0  0  0  0  0
    3.9077   -4.6843    1.8381 H   0  0  0  0  0  0  0  0  0  0  0  0
    5.2452   -0.1766    0.3590 H   0  0  0  0  0  0  0  0  0  0  0  0
    4.8374   -0.2753    3.4151 H   0  0  0  0  0  0  0  0  0  0  0  0
    4.1124    0.9315    2.3380 H   0  0  0  0  0  0  0  0  0  0  0  0
    5.8762    0.8714    2.5383 H   0  0  0  0  0  0  0  0  0  0  0  0
    6.2647   -2.2564    2.3983 H   0  0  0  0  0  0  0  0  0  0  0  0
    7.2465   -0.9782    1.6563 H   0  0  0  0  0  0  0  0  0  0  0  0
    6.5727   -2.2736    0.6475 H   0  0  0  0  0  0  0  0  0  0  0  0
  1  2  1  0
  1 55  1  0
  1 56  1  0
  1 57  1  0
  2  3  1  0
  2  4  1  0
  2 58  1  6
  3 59  1  0
  3 60  1  0
  3 61  1  0
  4  5  1  1
  4 49  1  0
  4 52  1  0
  5  6  3  0
  6  7  1  0
  7  8  2  0
  7 48  1  0
  8  9  1  0
  8 17  1  0
  9 10  2  0
  9 62  1  0
 10 11  1  0
 10 15  1  0
 11 12  2  0
 11 63  1  0
 12 13  1  0
 12 64  1  0
 13 14  2  0
 13 65  1  0
 14 15  1  0
 14 66  1  0
 15 16  2  0
 16 17  1  0
 16 67  1  0
 17 18  2  0
 18 19  1  0
 18 31  1  0
 19 20  3  0
 21 20  1  6
 21 22  1  0
 21 25  1  0
 21 28  1  0
 22 23  1  0
 22 24  1  0
 22 68  1  6
 23 69  1  0
 23 70  1  0
 23 71  1  0
 24 72  1  0
 24 73  1  0
 24 74  1  0
 25 26  1  0
 25 27  1  0
 25 75  1  1
 26 76  1  0
 26 77  1  0
 26 78  1  0
 27 79  1  0
 27 80  1  0
 27 81  1  0
 28 29  1  0
 28 30  1  0
 28 82  1  1
 29 83  1  0
 29 84  1  0
 29 85  1  0
 30 86  1  0
 30 87  1  0
 30 88  1  0
 31 32  1  0
 31 48  2  0
 32 33  2  0
 33 34  1  0
 33 46  1  0
 34 35  1  0
 34 47  2  0
 35 36  2  0
 35 89  1  0
 36 37  1  0
 36 90  1  0
 37 38  1  0
 37 46  2  0
 38 39  2  0
 38 91  1  0
 39 40  1  0
 39 44  1  0
 40 41  2  0
 40 92  1  0
 41 42  1  0
 41 93  1  0
 42 43  2  0
 42 94  1  0
 43 44  1  0
 43 95  1  0
 44 45  2  0
 45 46  1  0
 45 96  1  0
 47 48  1  0
 49 50  1  0
 49 51  1  0
 49 97  1  6
 50 98  1  0
 50 99  1  0
 50100  1  0
 51101  1  0
 51102  1  0
 51103  1  0
 52 53  1  0
 52 54  1  0
 52104  1  6
 53105  1  0
 53106  1  0
 53107  1  0
 54108  1  0
 54109  1  0
 54110  1  0
M  END

