
     RDKit          3D

 35 35  0  0  0  0  0  0  0  0999 V2000
    4.3924   -1.7100    4.6186 O   0  0  0  0  0  0  0  0  0  0  0  0
    4.7555   -1.4192    3.4871 C   0  0  0  0  0  0  0  0  0  0  0  0
    4.4518   -2.2115    2.2981 C   0  0  0  0  0  0  0  0  0  0  0  0
    4.6815   -1.7858    0.9991 C   0  0  0  0  0  0  0  0  0  0  0  0
    4.1634   -2.9516   -0.1436 S   0  0  0  0  0  0  0  0  0  0  0  0
    3.6245   -4.0564    1.1135 C   0  0  0  0  0  0  0  0  0  0  0  0
    3.0343   -5.3971    0.7669 C   0  0  0  0  0  0  0  0  0  0  0  0
    1.7704   -5.3466   -0.0793 C   0  0  0  0  0  0  0  0  0  0  0  0
    1.6914   -6.0466   -1.2898 C   0  0  0  0  0  0  0  0  0  0  0  0
    0.5202   -6.0078   -2.0542 C   0  0  0  0  0  0  0  0  0  0  0  0
   -0.5842   -5.2783   -1.6177 C   0  0  0  0  0  0  0  0  0  0  0  0
   -0.5036   -4.5804   -0.4076 C   0  0  0  0  0  0  0  0  0  0  0  0
   -1.6206   -3.8488   -0.0452 O   0  0  0  0  0  0  0  0  0  0  0  0
   -2.2462   -3.5874    1.4221 P   0  0  1  0  0  0  0  0  0  0  0  0
   -3.6116   -3.0339    1.3788 O   0  0  0  0  0  0  0  0  0  0  0  0
   -2.0708   -4.9945    2.2025 O   0  0  0  0  0  0  0  0  0  0  0  0
   -1.1110   -2.6838    2.1279 O   0  0  0  0  0  0  0  0  0  0  0  0
    0.6633   -4.6023    0.3579 C   0  0  0  0  0  0  0  0  0  0  0  0
    3.8379   -3.5108    2.3493 C   0  0  0  0  0  0  0  0  0  0  0  0
    5.8031    0.1390    3.3549 P   0  0  0  0  0  0  0  0  0  0  0  0
    5.7145    0.9766    2.1298 O   0  0  0  0  0  0  0  0  0  0  0  0
    5.3812    0.8393    4.7393 O   0  0  0  0  0  0  0  0  0  0  0  0
    7.2937   -0.4629    3.6191 O   0  0  0  0  0  0  0  0  0  0  0  0
    5.0993   -0.8258    0.6928 H   0  0  0  0  0  0  0  0  0  0  0  0
    2.8199   -5.9105    1.7193 H   0  0  0  0  0  0  0  0  0  0  0  0
    3.7865   -6.0138    0.2477 H   0  0  0  0  0  0  0  0  0  0  0  0
    2.5503   -6.6259   -1.6388 H   0  0  0  0  0  0  0  0  0  0  0  0
    0.4676   -6.5532   -2.9997 H   0  0  0  0  0  0  0  0  0  0  0  0
   -1.5088   -5.2315   -2.1957 H   0  0  0  0  0  0  0  0  0  0  0  0
   -2.8807   -5.5235    2.1415 H   0  0  0  0  0  0  0  0  0  0  0  0
   -1.5031   -2.0525    2.7500 H   0  0  0  0  0  0  0  0  0  0  0  0
    0.7169   -4.0301    1.2854 H   0  0  0  0  0  0  0  0  0  0  0  0
    3.5816   -4.0047    3.2873 H   0  0  0  0  0  0  0  0  0  0  0  0
    4.9949    0.1564    5.3242 H   0  0  0  0  0  0  0  0  0  0  0  0
    7.9202   -0.1035    2.9718 H   0  0  0  0  0  0  0  0  0  0  0  0
  1  2  2  0
  2  3  2  0
  3  4  1  0
  3 19  1  0
  4  5  2  0
  4 24  1  0
  5  6  1  0
  6  7  1  0
  6 19  2  0
  7  8  1  0
  7 25  1  0
  7 26  1  0
  8  9  2  0
  8 18  1  0
  9 10  1  0
  9 27  1  0
 10 11  2  0
 10 28  1  0
 11 12  1  0
 11 29  1  0
 12 13  1  0
 12 18  2  0
 14 13  1  6
 14 15  2  0
 14 16  1  0
 14 17  1  0
 16 30  1  0
 17 31  1  0
 18 32  1  0
 19 33  1  0
 20 21  1  0
 20 22  1  0
 20 23  1  0
 22 34  1  0
 23 35  1  0
M  CHG  2   5   1  21  -1
M  END

