
     RDKit          3D

 50 52  0  0  0  0  0  0  0  0999 V2000
    1.7616   -3.4844   -8.0760 C   0  0  0  0  0  0  0  0  0  0  0  0
    2.0062   -3.6691   -6.5876 C   0  0  0  0  0  0  0  0  0  0  0  0
    2.7606   -2.5759   -6.0314 O   0  0  0  0  0  0  0  0  0  0  0  0
    4.1037   -2.6421   -6.1049 C   0  0  0  0  0  0  0  0  0  0  0  0
    4.7063   -3.5656   -6.5973 O   0  0  0  0  0  0  0  0  0  0  0  0
    4.7414   -1.4094   -5.4954 C   0  0  0  0  0  0  0  0  0  0  0  0
    6.2654   -1.4816   -5.4382 C   0  0  0  0  0  0  0  0  0  0  0  0
    6.9028   -0.2177   -4.8498 C   0  0  0  0  0  0  0  0  0  0  0  0
    8.4315   -0.2700   -4.7232 C   0  0  0  0  0  0  0  0  0  0  0  0
    9.1672   -0.2696   -6.0717 C   0  0  0  0  0  0  0  0  0  0  0  0
   10.6263   -0.2877   -5.9575 N   0  0  0  0  0  0  0  0  0  0  0  0
   11.3304    0.9096   -5.8744 C   0  0  0  0  0  0  0  0  0  0  0  0
   10.6683    2.1640   -5.8132 C   0  0  0  0  0  0  0  0  0  0  0  0
   11.3891    3.3491   -5.7505 C   0  0  0  0  0  0  0  0  0  0  0  0
   12.7938    3.3476   -5.7404 C   0  0  0  0  0  0  0  0  0  0  0  0
   13.4556    2.1315   -5.7872 C   0  0  0  0  0  0  0  0  0  0  0  0
   12.7520    0.9135   -5.8501 C   0  0  0  0  0  0  0  0  0  0  0  0
   13.5263   -0.3407   -5.8880 C   0  0  0  0  0  0  0  0  0  0  0  0
   14.7543   -0.3606   -5.8886 O   0  0  0  0  0  0  0  0  0  0  0  0
   12.7148   -1.5746   -5.9060 C   0  0  0  0  0  0  0  0  0  0  0  0
   13.3870   -2.8070   -5.8927 C   0  0  0  0  0  0  0  0  0  0  0  0
   12.7009   -4.0224   -5.8926 C   0  0  0  0  0  0  0  0  0  0  0  0
   13.3636   -5.2430   -5.9372 N   0  0  0  0  0  0  0  0  0  0  0  0
   11.2883   -3.9622   -5.8941 C   0  0  0  0  0  0  0  0  0  0  0  0
   10.6077   -2.7531   -5.9062 C   0  0  0  0  0  0  0  0  0  0  0  0
   11.2992   -1.5185   -5.9246 C   0  0  0  0  0  0  0  0  0  0  0  0
    1.1176   -4.2946   -8.4539 H   0  0  0  0  0  0  0  0  0  0  0  0
    2.7091   -3.5143   -8.6342 H   0  0  0  0  0  0  0  0  0  0  0  0
    1.2603   -2.5247   -8.2772 H   0  0  0  0  0  0  0  0  0  0  0  0
    2.5428   -4.6093   -6.3916 H   0  0  0  0  0  0  0  0  0  0  0  0
    1.0612   -3.6709   -6.0252 H   0  0  0  0  0  0  0  0  0  0  0  0
    4.3018   -1.2612   -4.4940 H   0  0  0  0  0  0  0  0  0  0  0  0
    4.4039   -0.5400   -6.0879 H   0  0  0  0  0  0  0  0  0  0  0  0
    6.6433   -1.6778   -6.4549 H   0  0  0  0  0  0  0  0  0  0  0  0
    6.5621   -2.3599   -4.8393 H   0  0  0  0  0  0  0  0  0  0  0  0
    6.4757   -0.0347   -3.8482 H   0  0  0  0  0  0  0  0  0  0  0  0
    6.6138    0.6592   -5.4598 H   0  0  0  0  0  0  0  0  0  0  0  0
    8.7278   -1.1647   -4.1491 H   0  0  0  0  0  0  0  0  0  0  0  0
    8.7785    0.5952   -4.1349 H   0  0  0  0  0  0  0  0  0  0  0  0
    8.8767    0.6131   -6.6586 H   0  0  0  0  0  0  0  0  0  0  0  0
    8.8654   -1.1296   -6.6825 H   0  0  0  0  0  0  0  0  0  0  0  0
    9.5816    2.2210   -5.8002 H   0  0  0  0  0  0  0  0  0  0  0  0
   10.8432    4.2953   -5.7026 H   0  0  0  0  0  0  0  0  0  0  0  0
   13.3494    4.2866   -5.6908 H   0  0  0  0  0  0  0  0  0  0  0  0
   14.5454    2.0643   -5.7770 H   0  0  0  0  0  0  0  0  0  0  0  0
   14.4787   -2.7662   -5.8828 H   0  0  0  0  0  0  0  0  0  0  0  0
   14.3356   -5.2314   -5.6503 H   0  0  0  0  0  0  0  0  0  0  0  0
   12.8572   -6.0439   -5.5775 H   0  0  0  0  0  0  0  0  0  0  0  0
   10.7104   -4.8910   -5.8847 H   0  0  0  0  0  0  0  0  0  0  0  0
    9.5200   -2.7880   -5.8888 H   0  0  0  0  0  0  0  0  0  0  0  0
  1  2  1  0
  1 27  1  0
  1 28  1  0
  1 29  1  0
  2  3  1  0
  2 30  1  0
  2 31  1  0
  3  4  1  0
  4  5  2  0
  4  6  1  0
  6  7  1  0
  6 32  1  0
  6 33  1  0
  7  8  1  0
  7 34  1  0
  7 35  1  0
  8  9  1  0
  8 36  1  0
  8 37  1  0
  9 10  1  0
  9 38  1  0
  9 39  1  0
 10 11  1  0
 10 40  1  0
 10 41  1  0
 11 12  1  0
 11 26  1  0
 12 13  2  0
 12 17  1  0
 13 14  1  0
 13 42  1  0
 14 15  2  0
 14 43  1  0
 15 16  1  0
 15 44  1  0
 16 17  2  0
 16 45  1  0
 17 18  1  0
 18 19  2  0
 18 20  1  0
 20 21  1  0
 20 26  2  0
 21 22  2  0
 21 46  1  0
 22 23  1  0
 22 24  1  0
 23 47  1  0
 23 48  1  0
 24 25  2  0
 24 49  1  0
 25 26  1  0
 25 50  1  0
M  END

