
     RDKit          3D

 34 35  0  0  0  0  0  0  0  0999 V2000
    2.1549    0.4878   -0.8731 C   0  0  0  0  0  0  0  0  0  0  0  0
    3.3935    0.2590    0.0001 C   0  0  1  0  0  0  0  0  0  0  0  0
    4.3648    1.2640   -0.2341 O   0  0  0  0  0  0  0  0  0  0  0  0
    3.0488    0.1269    1.4838 C   0  0  0  0  0  0  0  0  0  0  0  0
    3.4307    1.1021    2.4061 C   0  0  0  0  0  0  0  0  0  0  0  0
    3.1148    1.0098    3.7671 C   0  0  0  0  0  0  0  0  0  0  0  0
    2.4080   -0.1035    4.1972 C   0  0  0  0  0  0  0  0  0  0  0  0
    2.0864   -0.2273    5.4940 F   0  0  0  0  0  0  0  0  0  0  0  0
    2.0194   -1.1195    3.3227 C   0  0  0  0  0  0  0  0  0  0  0  0
    2.3479   -1.0037    1.9661 C   0  0  0  0  0  0  0  0  0  0  0  0
    2.0288   -1.9527    1.0386 O   0  0  0  0  0  0  0  0  0  0  0  0
    1.3629   -3.1348    1.4443 C   0  0  0  0  0  0  0  0  0  0  0  0
    1.1980   -4.0500    0.2537 C   0  0  0  0  0  0  0  0  0  0  0  0
    2.2345   -4.2112   -0.6792 C   0  0  0  0  0  0  0  0  0  0  0  0
    2.0925   -5.0907   -1.7546 C   0  0  0  0  0  0  0  0  0  0  0  0
    0.9193   -5.8284   -1.9152 C   0  0  0  0  0  0  0  0  0  0  0  0
   -0.1256   -5.6750   -0.9870 C   0  0  0  0  0  0  0  0  0  0  0  0
   -1.3446   -6.4210   -1.1398 C   0  0  0  0  0  0  0  0  0  0  0  0
   -2.3297   -7.0234   -1.2619 N   0  0  0  0  0  0  0  0  0  0  0  0
    0.0182   -4.7807    0.0904 C   0  0  0  0  0  0  0  0  0  0  0  0
    2.4512    0.5581   -1.9314 H   0  0  0  0  0  0  0  0  0  0  0  0
    1.6536    1.4287   -0.5853 H   0  0  0  0  0  0  0  0  0  0  0  0
    1.4304   -0.3301   -0.7616 H   0  0  0  0  0  0  0  0  0  0  0  0
    3.8690   -0.6853   -0.3156 H   0  0  0  0  0  0  0  0  0  0  0  0
    3.9083    2.1140   -0.2942 H   0  0  0  0  0  0  0  0  0  0  0  0
    4.0160    1.9494    2.0459 H   0  0  0  0  0  0  0  0  0  0  0  0
    3.4154    1.7751    4.4841 H   0  0  0  0  0  0  0  0  0  0  0  0
    1.4751   -1.9704    3.7287 H   0  0  0  0  0  0  0  0  0  0  0  0
    0.3762   -2.8949    1.8800 H   0  0  0  0  0  0  0  0  0  0  0  0
    1.9538   -3.6443    2.2304 H   0  0  0  0  0  0  0  0  0  0  0  0
    3.1539   -3.6346   -0.5609 H   0  0  0  0  0  0  0  0  0  0  0  0
    2.9058   -5.2040   -2.4752 H   0  0  0  0  0  0  0  0  0  0  0  0
    0.8030   -6.5185   -2.7528 H   0  0  0  0  0  0  0  0  0  0  0  0
   -0.8062   -4.6624    0.7974 H   0  0  0  0  0  0  0  0  0  0  0  0
  1  2  1  0
  1 21  1  0
  1 22  1  0
  1 23  1  0
  2  3  1  0
  2  4  1  0
  2 24  1  6
  3 25  1  0
  4  5  2  0
  4 10  1  0
  5  6  1  0
  5 26  1  0
  6  7  2  0
  6 27  1  0
  7  8  1  0
  7  9  1  0
  9 10  2  0
  9 28  1  0
 10 11  1  0
 11 12  1  0
 12 13  1  0
 12 29  1  0
 12 30  1  0
 13 14  2  0
 13 20  1  0
 14 15  1  0
 14 31  1  0
 15 16  2  0
 15 32  1  0
 16 17  1  0
 16 33  1  0
 17 18  1  0
 17 20  2  0
 18 19  3  0
 20 34  1  0
M  END

