
     RDKit          3D

 36 38  0  0  0  0  0  0  0  0999 V2000
    1.5200   -0.3039    0.5895 C   0  0  0  0  0  0  0  0  0  0  0  0
    2.9378   -0.0154    0.1019 C   0  0  0  0  0  0  0  0  0  0  0  0
    3.2102   -0.4369   -1.2645 N   0  0  0  0  0  0  0  0  0  0  0  0
    4.4084    0.1595   -1.8520 C   0  0  0  0  0  0  0  0  0  0  0  0
    4.7520   -0.7653   -3.0172 C   0  0  0  0  0  0  0  0  0  0  0  0
    4.4361   -2.1425   -2.4179 C   0  0  0  0  0  0  0  0  0  0  0  0
    3.1887   -1.8840   -1.5429 C   0  0  2  0  0  0  0  0  0  0  0  0
    1.8679   -2.2654   -2.2487 C   0  0  0  0  0  0  0  0  0  0  0  0
    1.6985   -3.6956   -2.4702 N   0  0  0  0  0  0  0  0  0  0  0  0
    1.2452   -4.5571   -1.5265 C   0  0  0  0  0  0  0  0  0  0  0  0
    0.9176   -4.0762   -0.3208 N   0  0  0  0  0  0  0  0  0  0  0  0
    0.4606   -4.9288    0.5956 C   0  0  0  0  0  0  0  0  0  0  0  0
    0.0592   -4.1995    2.1405 Cl  0  0  0  0  0  0  0  0  0  0  0  0
    0.2776   -6.2242    0.4992 N   0  0  0  0  0  0  0  0  0  0  0  0
    0.6008   -6.7449   -0.7071 C   0  0  0  0  0  0  0  0  0  0  0  0
    0.4970   -8.1311   -1.0840 C   0  0  0  0  0  0  0  0  0  0  0  0
    0.8962   -8.3478   -2.3695 C   0  0  0  0  0  0  0  0  0  0  0  0
    1.4165   -6.8993   -3.1915 S   0  0  0  0  0  0  0  0  0  0  0  0
    1.0917   -5.9509   -1.7625 C   0  0  0  0  0  0  0  0  0  0  0  0
    1.3834    0.0998    1.6056 H   0  0  0  0  0  0  0  0  0  0  0  0
    1.3016   -1.3821    0.6339 H   0  0  0  0  0  0  0  0  0  0  0  0
    0.7774    0.1726   -0.0709 H   0  0  0  0  0  0  0  0  0  0  0  0
    3.6699   -0.4680    0.8130 H   0  0  0  0  0  0  0  0  0  0  0  0
    3.1120    1.0736    0.1437 H   0  0  0  0  0  0  0  0  0  0  0  0
    5.2580    0.1837   -1.1309 H   0  0  0  0  0  0  0  0  0  0  0  0
    4.2217    1.2023   -2.1627 H   0  0  0  0  0  0  0  0  0  0  0  0
    5.7945   -0.6640   -3.3548 H   0  0  0  0  0  0  0  0  0  0  0  0
    4.0986   -0.5509   -3.8795 H   0  0  0  0  0  0  0  0  0  0  0  0
    5.2763   -2.4733   -1.7863 H   0  0  0  0  0  0  0  0  0  0  0  0
    4.2758   -2.9307   -3.1709 H   0  0  0  0  0  0  0  0  0  0  0  0
    3.2437   -2.4697   -0.6067 H   0  0  0  0  0  0  0  0  0  0  0  0
    1.8191   -1.7620   -3.2265 H   0  0  0  0  0  0  0  0  0  0  0  0
    1.0243   -1.9033   -1.6481 H   0  0  0  0  0  0  0  0  0  0  0  0
    1.9651   -4.0821   -3.3657 H   0  0  0  0  0  0  0  0  0  0  0  0
    0.1376   -8.9047   -0.4060 H   0  0  0  0  0  0  0  0  0  0  0  0
    0.9204   -9.2944   -2.9085 H   0  0  0  0  0  0  0  0  0  0  0  0
  1  2  1  0
  1 20  1  0
  1 21  1  0
  1 22  1  0
  2  3  1  0
  2 23  1  0
  2 24  1  0
  3  4  1  0
  3  7  1  0
  4  5  1  0
  4 25  1  0
  4 26  1  0
  5  6  1  0
  5 27  1  0
  5 28  1  0
  6  7  1  0
  6 29  1  0
  6 30  1  0
  7  8  1  0
  7 31  1  1
  8  9  1  0
  8 32  1  0
  8 33  1  0
  9 10  1  0
  9 34  1  0
 10 11  2  0
 10 19  1  0
 11 12  1  0
 12 13  1  0
 12 14  2  0
 14 15  1  0
 15 16  1  0
 15 19  2  0
 16 17  2  0
 16 35  1  0
 17 18  1  0
 17 36  1  0
 18 19  1  0
M  END

