
     RDKit          3D

 35 37  0  0  0  0  0  0  0  0999 V2000
    3.5116    1.2067    0.8367 C   0  0  0  0  0  0  0  0  0  0  0  0
    4.0966    0.1023   -0.0522 C   0  0  1  0  0  0  0  0  0  0  0  0
    3.7165    0.3425   -1.5335 C   0  0  0  0  0  0  0  0  0  0  0  0
    5.5484    0.0434    0.1669 N   0  0  0  0  0  0  0  0  0  0  0  0
    3.5596   -1.2540    0.3554 C   0  0  0  0  0  0  0  0  0  0  0  0
    2.5656   -1.4316    1.1858 N   0  0  0  0  0  0  0  0  0  0  0  0
    2.4210   -2.8146    1.2398 O   0  0  0  0  0  0  0  0  0  0  0  0
    3.3493   -3.3326    0.4298 C   0  0  0  0  0  0  0  0  0  0  0  0
    3.4219   -4.8224    0.2793 C   0  0  0  0  0  0  0  0  0  0  0  0
    2.3768   -5.3459   -0.5910 N   0  0  0  0  0  0  0  0  0  0  0  0
    2.1647   -4.9117   -1.8861 C   0  0  0  0  0  0  0  0  0  0  0  0
    1.0240   -5.5511   -2.3121 C   0  0  0  0  0  0  0  0  0  0  0  0
    0.5383   -6.3654   -1.3297 N   0  0  0  0  0  0  0  0  0  0  0  0
    1.3556   -6.2358   -0.2982 C   0  0  0  0  0  0  0  0  0  0  0  0
    1.1542   -6.9425    0.9654 C   0  0  0  0  0  0  0  0  0  0  0  0
   -0.0733   -7.3086    1.4785 C   0  0  0  0  0  0  0  0  0  0  0  0
    0.0206   -8.0738    2.6758 C   0  0  0  0  0  0  0  0  0  0  0  0
    1.3169   -8.2968    3.0665 C   0  0  0  0  0  0  0  0  0  0  0  0
    2.4428   -7.5894    1.9613 S   0  0  0  0  0  0  0  0  0  0  0  0
    4.0804   -2.4290   -0.1471 N   0  0  0  0  0  0  0  0  0  0  0  0
    3.9240    2.1817    0.5309 H   0  0  0  0  0  0  0  0  0  0  0  0
    3.7758    1.0321    1.8887 H   0  0  0  0  0  0  0  0  0  0  0  0
    2.4167    1.2538    0.7528 H   0  0  0  0  0  0  0  0  0  0  0  0
    4.1333    1.3058   -1.8703 H   0  0  0  0  0  0  0  0  0  0  0  0
    2.6244    0.3734   -1.6773 H   0  0  0  0  0  0  0  0  0  0  0  0
    4.1266   -0.4546   -2.1729 H   0  0  0  0  0  0  0  0  0  0  0  0
    5.9768    0.9093   -0.1622 H   0  0  0  0  0  0  0  0  0  0  0  0
    5.9496   -0.7147   -0.3872 H   0  0  0  0  0  0  0  0  0  0  0  0
    3.3222   -5.2865    1.2685 H   0  0  0  0  0  0  0  0  0  0  0  0
    4.4153   -5.0696   -0.1232 H   0  0  0  0  0  0  0  0  0  0  0  0
    2.8330   -4.1993   -2.3634 H   0  0  0  0  0  0  0  0  0  0  0  0
    0.5377   -5.4711   -3.2838 H   0  0  0  0  0  0  0  0  0  0  0  0
   -1.0053   -7.0266    0.9889 H   0  0  0  0  0  0  0  0  0  0  0  0
   -0.8429   -8.4413    3.2324 H   0  0  0  0  0  0  0  0  0  0  0  0
    1.6798   -8.8341    3.9415 H   0  0  0  0  0  0  0  0  0  0  0  0
  1  2  1  0
  1 21  1  0
  1 22  1  0
  1 23  1  0
  2  3  1  0
  2  4  1  6
  2  5  1  0
  3 24  1  0
  3 25  1  0
  3 26  1  0
  4 27  1  0
  4 28  1  0
  5  6  2  0
  5 20  1  0
  6  7  1  0
  7  8  1  0
  8  9  1  0
  8 20  2  0
  9 10  1  0
  9 29  1  0
  9 30  1  0
 10 11  1  0
 10 14  1  0
 11 12  2  0
 11 31  1  0
 12 13  1  0
 12 32  1  0
 13 14  2  0
 14 15  1  0
 15 16  2  0
 15 19  1  0
 16 17  1  0
 16 33  1  0
 17 18  2  0
 17 34  1  0
 18 19  1  0
 18 35  1  0
M  END

