
     RDKit          3D

 52 53  0  0  0  0  0  0  0  0999 V2000
   12.1546   -1.7739   -6.7130 C   0  0  0  0  0  0  0  0  0  0  0  0
   11.5568   -2.8121   -5.7509 C   0  0  0  0  0  0  0  0  0  0  0  0
   10.0662   -2.9783   -5.8625 C   0  0  0  0  0  0  0  0  0  0  0  0
    9.0909   -2.5811   -4.9782 C   0  0  0  0  0  0  0  0  0  0  0  0
    7.7634   -2.8669   -5.4195 C   0  0  0  0  0  0  0  0  0  0  0  0
    7.7216   -3.4797   -6.6480 C   0  0  0  0  0  0  0  0  0  0  0  0
    6.5110   -3.9762   -7.3942 C   0  0  0  0  0  0  0  0  0  0  0  0
    6.1283   -5.3434   -7.0685 N   0  0  0  0  0  0  0  0  0  0  0  0
    5.1819   -5.6388   -6.1596 C   0  0  0  0  0  0  0  0  0  0  0  0
    4.4802   -4.8366   -5.5544 O   0  0  0  0  0  0  0  0  0  0  0  0
    5.0385   -7.1646   -5.9442 C   0  0  0  0  0  0  0  0  0  0  0  0
    5.7572   -7.9620   -6.5286 O   0  0  0  0  0  0  0  0  0  0  0  0
    4.0493   -7.4275   -5.0568 N   0  0  0  0  0  0  0  0  0  0  0  0
    3.5822   -8.6618   -4.5736 C   0  0  0  0  0  0  0  0  0  0  0  0
    4.1184   -9.8928   -4.9843 C   0  0  0  0  0  0  0  0  0  0  0  0
    3.5851  -11.0730   -4.4577 C   0  0  0  0  0  0  0  0  0  0  0  0
    2.5385  -11.0522   -3.5353 C   0  0  0  0  0  0  0  0  0  0  0  0
    2.0046   -9.8226   -3.1116 C   0  0  0  0  0  0  0  0  0  0  0  0
    0.8631   -9.7831   -2.1091 C   0  0  0  0  0  0  0  0  0  0  0  0
    1.1898  -10.2662   -0.7638 N   0  0  0  0  0  0  0  0  0  0  0  0
    1.8606   -9.3523    0.1584 C   0  0  0  0  0  0  0  0  0  0  0  0
    3.3911   -9.3629    0.0872 C   0  0  0  0  0  0  0  0  0  0  0  0
    0.8730  -11.5717   -0.4561 C   0  0  0  0  0  0  0  0  0  0  0  0
    1.1340  -12.0460    0.9673 C   0  0  0  0  0  0  0  0  0  0  0  0
    0.3835  -12.3272   -1.2845 O   0  0  0  0  0  0  0  0  0  0  0  0
    2.5303   -8.6400   -3.6386 C   0  0  0  0  0  0  0  0  0  0  0  0
    9.3358   -3.7146   -7.2677 S   0  0  0  0  0  0  0  0  0  0  0  0
   13.2447   -1.6943   -6.5738 H   0  0  0  0  0  0  0  0  0  0  0  0
   11.7135   -0.7788   -6.5450 H   0  0  0  0  0  0  0  0  0  0  0  0
   11.9681   -2.0479   -7.7636 H   0  0  0  0  0  0  0  0  0  0  0  0
   11.7797   -2.5243   -4.7102 H   0  0  0  0  0  0  0  0  0  0  0  0
   12.0536   -3.7853   -5.9107 H   0  0  0  0  0  0  0  0  0  0  0  0
    9.3237   -2.0918   -4.0300 H   0  0  0  0  0  0  0  0  0  0  0  0
    6.8617   -2.6369   -4.8485 H   0  0  0  0  0  0  0  0  0  0  0  0
    6.6680   -3.9058   -8.4821 H   0  0  0  0  0  0  0  0  0  0  0  0
    5.6515   -3.3411   -7.1369 H   0  0  0  0  0  0  0  0  0  0  0  0
    6.6573   -6.1375   -7.4226 H   0  0  0  0  0  0  0  0  0  0  0  0
    3.6040   -6.5771   -4.7108 H   0  0  0  0  0  0  0  0  0  0  0  0
    4.9326   -9.9100   -5.7057 H   0  0  0  0  0  0  0  0  0  0  0  0
    3.9968  -12.0312   -4.7859 H   0  0  0  0  0  0  0  0  0  0  0  0
    2.1172  -11.9799   -3.1422 H   0  0  0  0  0  0  0  0  0  0  0  0
    0.0433  -10.4166   -2.4748 H   0  0  0  0  0  0  0  0  0  0  0  0
    0.4881   -8.7508   -2.0182 H   0  0  0  0  0  0  0  0  0  0  0  0
    1.5350   -9.5740    1.1852 H   0  0  0  0  0  0  0  0  0  0  0  0
    1.4902   -8.3359   -0.0578 H   0  0  0  0  0  0  0  0  0  0  0  0
    3.7957  -10.3606    0.3191 H   0  0  0  0  0  0  0  0  0  0  0  0
    3.8093   -8.6495    0.8162 H   0  0  0  0  0  0  0  0  0  0  0  0
    3.7497   -9.0813   -0.9133 H   0  0  0  0  0  0  0  0  0  0  0  0
    0.5169  -11.4941    1.6946 H   0  0  0  0  0  0  0  0  0  0  0  0
    2.1872  -11.9257    1.2630 H   0  0  0  0  0  0  0  0  0  0  0  0
    0.8675  -13.1085    1.0109 H   0  0  0  0  0  0  0  0  0  0  0  0
    2.1172   -7.6758   -3.3245 H   0  0  0  0  0  0  0  0  0  0  0  0
  1  2  1  0
  1 28  1  0
  1 29  1  0
  1 30  1  0
  2  3  1  0
  2 31  1  0
  2 32  1  0
  3  4  2  0
  3 27  1  0
  4  5  1  0
  4 33  1  0
  5  6  2  0
  5 34  1  0
  6  7  1  0
  6 27  1  0
  7  8  1  0
  7 35  1  0
  7 36  1  0
  8  9  1  0
  8 37  1  0
  9 10  2  0
  9 11  1  0
 11 12  2  0
 11 13  1  0
 13 14  1  0
 13 38  1  0
 14 15  2  0
 14 26  1  0
 15 16  1  0
 15 39  1  0
 16 17  2  0
 16 40  1  0
 17 18  1  0
 17 41  1  0
 18 19  1  0
 18 26  2  0
 19 20  1  0
 19 42  1  0
 19 43  1  0
 20 21  1  0
 20 23  1  0
 21 22  1  0
 21 44  1  0
 21 45  1  0
 22 46  1  0
 22 47  1  0
 22 48  1  0
 23 24  1  0
 23 25  2  0
 24 49  1  0
 24 50  1  0
 24 51  1  0
 26 52  1  0
M  END

