
     RDKit          3D

 36 38  0  0  0  0  0  0  0  0999 V2000
    3.5429    1.1028   -3.7136 N   0  0  0  0  0  0  0  0  0  0  0  0
    3.9966    0.9129   -2.6608 C   0  0  0  0  0  0  0  0  0  0  0  0
    4.5576    0.6733   -1.3731 C   0  0  0  0  0  0  0  0  0  0  0  0
    4.4750    1.6209   -0.2645 C   0  0  0  0  0  0  0  0  0  0  0  0
    3.6801    2.8674   -0.4188 C   0  0  0  0  0  0  0  0  0  0  0  0
    2.3443    2.8058   -0.8402 C   0  0  0  0  0  0  0  0  0  0  0  0
    1.5537    3.9534   -0.9197 C   0  0  0  0  0  0  0  0  0  0  0  0
    2.1146    5.1879   -0.5920 C   0  0  0  0  0  0  0  0  0  0  0  0
    3.4503    5.2834   -0.1913 C   0  0  0  0  0  0  0  0  0  0  0  0
    4.2464    4.1310   -0.1012 C   0  0  0  0  0  0  0  0  0  0  0  0
    5.5523    4.1442    0.2343 O   0  0  0  0  0  0  0  0  0  0  0  0
    6.1759    5.3664    0.6178 C   0  0  0  0  0  0  0  0  0  0  0  0
    7.5961    5.0614    1.0146 C   0  0  0  0  0  0  0  0  0  0  0  0
    8.6377    5.0307    0.0669 C   0  0  0  0  0  0  0  0  0  0  0  0
    8.3031    5.3824   -1.6173 Cl  0  0  0  0  0  0  0  0  0  0  0  0
    9.9555    4.7273    0.4163 C   0  0  0  0  0  0  0  0  0  0  0  0
   10.2561    4.4301    1.7456 C   0  0  0  0  0  0  0  0  0  0  0  0
    9.2539    4.4370    2.7150 C   0  0  0  0  0  0  0  0  0  0  0  0
    7.9426    4.7451    2.3433 C   0  0  0  0  0  0  0  0  0  0  0  0
    6.7203    4.7344    3.5935 Cl  0  0  0  0  0  0  0  0  0  0  0  0
    5.0614    1.4049    0.8862 N   0  0  0  0  0  0  0  0  0  0  0  0
    5.7872    0.2799    1.1364 C   0  0  0  0  0  0  0  0  0  0  0  0
    6.5883   -0.0549    2.5443 S   0  0  0  0  0  0  0  0  0  0  0  0
    5.8342   -0.6731    0.0893 N   0  0  0  0  0  0  0  0  0  0  0  0
    6.3579   -1.5235    0.2853 H   0  0  0  0  0  0  0  0  0  0  0  0
    5.2651   -0.4893   -1.1126 C   0  0  0  0  0  0  0  0  0  0  0  0
    5.4828   -1.7432   -2.2704 Cl  0  0  0  0  0  0  0  0  0  0  0  0
    1.9074    1.8352   -1.0849 H   0  0  0  0  0  0  0  0  0  0  0  0
    0.5110    3.8804   -1.2345 H   0  0  0  0  0  0  0  0  0  0  0  0
    1.5117    6.0976   -0.6526 H   0  0  0  0  0  0  0  0  0  0  0  0
    3.8685    6.2615    0.0436 H   0  0  0  0  0  0  0  0  0  0  0  0
    5.6364    5.8118    1.4675 H   0  0  0  0  0  0  0  0  0  0  0  0
    6.1640    6.0759   -0.2248 H   0  0  0  0  0  0  0  0  0  0  0  0
   10.7281    4.7218   -0.3534 H   0  0  0  0  0  0  0  0  0  0  0  0
   11.2832    4.1883    2.0288 H   0  0  0  0  0  0  0  0  0  0  0  0
    9.4734    4.1993    3.7563 H   0  0  0  0  0  0  0  0  0  0  0  0
  1  2  3  0
  2  3  1  0
  3  4  1  0
  3 26  2  0
  4  5  1  0
  4 21  2  0
  5  6  2  0
  5 10  1  0
  6  7  1  0
  6 28  1  0
  7  8  2  0
  7 29  1  0
  8  9  1  0
  8 30  1  0
  9 10  2  0
  9 31  1  0
 10 11  1  0
 11 12  1  0
 12 13  1  0
 12 32  1  0
 12 33  1  0
 13 14  2  0
 13 19  1  0
 14 15  1  0
 14 16  1  0
 16 17  2  0
 16 34  1  0
 17 18  1  0
 17 35  1  0
 18 19  2  0
 18 36  1  0
 19 20  1  0
 21 22  1  0
 22 23  2  0
 22 24  1  0
 24 25  1  0
 24 26  1  0
 26 27  1  0
M  END

