
     RDKit          3D

 55 56  0  0  0  0  0  0  0  0999 V2000
    1.0727   -0.1936    0.9019 C   0  0  0  0  0  0  0  0  0  0  0  0
    2.5672   -0.0115    0.6331 C   0  0  0  0  0  0  0  0  0  0  0  0
    2.9854   -0.3905   -0.7911 C   0  0  0  0  0  0  0  0  0  0  0  0
    4.4808   -0.2109   -1.0684 C   0  0  0  0  0  0  0  0  0  0  0  0
    4.8989   -0.5883   -2.4926 C   0  0  0  0  0  0  0  0  0  0  0  0
    6.3947   -0.4081   -2.7679 C   0  0  0  0  0  0  0  0  0  0  0  0
    6.8126   -0.7824   -4.1929 C   0  0  0  0  0  0  0  0  0  0  0  0
    8.3089   -0.6011   -4.4653 C   0  0  0  0  0  0  0  0  0  0  0  0
    8.7215   -0.9710   -5.8924 C   0  0  0  0  0  0  0  0  0  0  0  0
   10.2219   -0.7791   -6.1379 C   0  0  0  0  0  0  0  0  0  0  0  0
   10.6393   -1.1175   -7.4895 N   0  0  0  0  0  0  0  0  0  0  0  0
   11.0651   -2.3523   -7.9154 C   0  0  0  0  0  0  0  0  0  0  0  0
   11.1990   -3.3792   -7.2772 O   0  0  0  0  0  0  0  0  0  0  0  0
   11.3621   -2.2203   -9.3740 C   0  0  0  0  0  0  0  0  0  0  0  0
   11.8014   -3.3027  -10.0160 O   0  0  0  0  0  0  0  0  0  0  0  0
   11.1188   -0.9516   -9.8041 C   0  0  0  0  0  0  0  0  0  0  0  0
   11.2686   -0.3686  -11.1383 C   0  0  0  0  0  0  0  0  0  0  0  0
   10.9651    0.9885  -11.4013 C   0  0  0  0  0  0  0  0  0  0  0  0
   11.1131    1.5223  -12.6738 C   0  0  0  0  0  0  0  0  0  0  0  0
   11.5704    0.7255  -13.7383 C   0  0  0  0  0  0  0  0  0  0  0  0
   11.6820    1.3370  -14.9422 O   0  0  0  0  0  0  0  0  0  0  0  0
   12.1358    0.5998  -16.0552 C   0  0  0  0  0  0  0  0  0  0  0  0
   11.8771   -0.6237  -13.4975 C   0  0  0  0  0  0  0  0  0  0  0  0
   11.7261   -1.1543  -12.2160 C   0  0  0  0  0  0  0  0  0  0  0  0
   10.6427   -0.2109   -8.5791 C   0  0  0  0  0  0  0  0  0  0  0  0
   10.3109    0.9461   -8.4623 O   0  0  0  0  0  0  0  0  0  0  0  0
    0.8085    0.0881    1.9339 H   0  0  0  0  0  0  0  0  0  0  0  0
    0.7634   -1.2421    0.7541 H   0  0  0  0  0  0  0  0  0  0  0  0
    0.4644    0.4265    0.2221 H   0  0  0  0  0  0  0  0  0  0  0  0
    3.1480   -0.6154    1.3541 H   0  0  0  0  0  0  0  0  0  0  0  0
    2.8516    1.0390    0.8268 H   0  0  0  0  0  0  0  0  0  0  0  0
    2.4050    0.2136   -1.5137 H   0  0  0  0  0  0  0  0  0  0  0  0
    2.7015   -1.4417   -0.9862 H   0  0  0  0  0  0  0  0  0  0  0  0
    5.0606   -0.8156   -0.3461 H   0  0  0  0  0  0  0  0  0  0  0  0
    4.7642    0.8401   -0.8721 H   0  0  0  0  0  0  0  0  0  0  0  0
    4.3199    0.0166   -3.2151 H   0  0  0  0  0  0  0  0  0  0  0  0
    4.6159   -1.6392   -2.6896 H   0  0  0  0  0  0  0  0  0  0  0  0
    6.9739   -1.0145   -2.0467 H   0  0  0  0  0  0  0  0  0  0  0  0
    6.6779    0.6425   -2.5694 H   0  0  0  0  0  0  0  0  0  0  0  0
    6.2355   -0.1753   -4.9146 H   0  0  0  0  0  0  0  0  0  0  0  0
    6.5307   -1.8328   -4.3927 H   0  0  0  0  0  0  0  0  0  0  0  0
    8.8869   -1.2112   -3.7464 H   0  0  0  0  0  0  0  0  0  0  0  0
    8.5914    0.4489   -4.2637 H   0  0  0  0  0  0  0  0  0  0  0  0
    8.1615   -0.3531   -6.6153 H   0  0  0  0  0  0  0  0  0  0  0  0
    8.4561   -2.0227   -6.0979 H   0  0  0  0  0  0  0  0  0  0  0  0
   10.8065   -1.4099   -5.4504 H   0  0  0  0  0  0  0  0  0  0  0  0
   10.5036    0.2707   -5.9655 H   0  0  0  0  0  0  0  0  0  0  0  0
   11.8432   -4.0178   -9.3512 H   0  0  0  0  0  0  0  0  0  0  0  0
   10.6103    1.6213  -10.5888 H   0  0  0  0  0  0  0  0  0  0  0  0
   10.8787    2.5696  -12.8751 H   0  0  0  0  0  0  0  0  0  0  0  0
   12.1451    1.2930  -16.9070 H   0  0  0  0  0  0  0  0  0  0  0  0
   11.4647   -0.2459  -16.2901 H   0  0  0  0  0  0  0  0  0  0  0  0
   13.1580    0.2093  -15.9011 H   0  0  0  0  0  0  0  0  0  0  0  0
   12.2342   -1.2712  -14.2986 H   0  0  0  0  0  0  0  0  0  0  0  0
   11.9700   -2.2041  -12.0519 H   0  0  0  0  0  0  0  0  0  0  0  0
  1  2  1  0
  1 27  1  0
  1 28  1  0
  1 29  1  0
  2  3  1  0
  2 30  1  0
  2 31  1  0
  3  4  1  0
  3 32  1  0
  3 33  1  0
  4  5  1  0
  4 34  1  0
  4 35  1  0
  5  6  1  0
  5 36  1  0
  5 37  1  0
  6  7  1  0
  6 38  1  0
  6 39  1  0
  7  8  1  0
  7 40  1  0
  7 41  1  0
  8  9  1  0
  8 42  1  0
  8 43  1  0
  9 10  1  0
  9 44  1  0
  9 45  1  0
 10 11  1  0
 10 46  1  0
 10 47  1  0
 11 12  1  0
 11 25  1  0
 12 13  2  0
 12 14  1  0
 14 15  1  0
 14 16  2  0
 15 48  1  0
 16 17  1  0
 16 25  1  0
 17 18  2  0
 17 24  1  0
 18 19  1  0
 18 49  1  0
 19 20  2  0
 19 50  1  0
 20 21  1  0
 20 23  1  0
 21 22  1  0
 22 51  1  0
 22 52  1  0
 22 53  1  0
 23 24  2  0
 23 54  1  0
 24 55  1  0
 25 26  2  0
M  END

