
     RDKit          3D

 45 47  0  0  0  0  0  0  0  0999 V2000
    6.0370   -1.1103   -1.1219 C   0  0  0  0  0  0  0  0  0  0  0  0
    4.8202   -1.3557   -0.2455 C   0  0  0  0  0  0  0  0  0  0  0  0
    5.0520   -0.9550    1.1171 O   0  0  0  0  0  0  0  0  0  0  0  0
    4.8274    0.3442    1.4382 C   0  0  0  0  0  0  0  0  0  0  0  0
    4.4598    1.1483    0.6062 O   0  0  0  0  0  0  0  0  0  0  0  0
    5.0928    0.5734    2.8810 C   0  0  0  0  0  0  0  0  0  0  0  0
    5.0800    1.8185    3.4520 C   0  0  0  0  0  0  0  0  0  0  0  0
    4.7441    3.0910    2.7274 C   0  0  0  0  0  0  0  0  0  0  0  0
    5.3840    1.9643    4.8161 N   0  0  0  0  0  0  0  0  0  0  0  0
    5.3728    3.2276    5.4663 C   0  0  0  0  0  0  0  0  0  0  0  0
    4.4961    3.6622    6.5023 C   0  0  0  0  0  0  0  0  0  0  0  0
    4.9189    4.9351    6.7604 C   0  0  0  0  0  0  0  0  0  0  0  0
    4.4927    5.9931    7.7149 C   0  0  0  0  0  0  0  0  0  0  0  0
    5.9517    5.2285    5.9400 O   0  0  0  0  0  0  0  0  0  0  0  0
    6.2441    4.1518    5.1385 N   0  0  0  0  0  0  0  0  0  0  0  0
    5.8574    0.8970    5.6271 C   0  0  0  0  0  0  0  0  0  0  0  0
    6.1660    1.0781    6.7870 O   0  0  0  0  0  0  0  0  0  0  0  0
    5.9623   -0.2978    4.9900 N   0  0  0  0  0  0  0  0  0  0  0  0
    5.3685   -0.6708    3.7120 C   0  0  1  0  0  0  0  0  0  0  0  0
    6.1002   -1.2903    3.1742 H   0  0  0  0  0  0  0  0  0  0  0  0
    4.1195   -1.5394    3.9222 C   0  0  0  0  0  0  0  0  0  0  0  0
    2.9524   -1.0019    4.4868 C   0  0  0  0  0  0  0  0  0  0  0  0
    1.8314   -1.8033    4.7135 C   0  0  0  0  0  0  0  0  0  0  0  0
    1.8532   -3.1576    4.3776 C   0  0  0  0  0  0  0  0  0  0  0  0
    3.0149   -3.7089    3.8088 C   0  0  0  0  0  0  0  0  0  0  0  0
    3.0546   -5.1003    3.4506 C   0  0  0  0  0  0  0  0  0  0  0  0
    3.0897   -6.2237    3.1593 N   0  0  0  0  0  0  0  0  0  0  0  0
    4.1417   -2.8946    3.5859 C   0  0  0  0  0  0  0  0  0  0  0  0
    5.8513   -1.5003   -2.1355 H   0  0  0  0  0  0  0  0  0  0  0  0
    6.9257   -1.6191   -0.7165 H   0  0  0  0  0  0  0  0  0  0  0  0
    6.2493   -0.0342   -1.2030 H   0  0  0  0  0  0  0  0  0  0  0  0
    4.5826   -2.4277   -0.1822 H   0  0  0  0  0  0  0  0  0  0  0  0
    3.9435   -0.8150   -0.6304 H   0  0  0  0  0  0  0  0  0  0  0  0
    4.4354    2.8787    1.7025 H   0  0  0  0  0  0  0  0  0  0  0  0
    5.6106    3.7679    2.7323 H   0  0  0  0  0  0  0  0  0  0  0  0
    3.9325    3.6161    3.2570 H   0  0  0  0  0  0  0  0  0  0  0  0
    3.7049    3.0995    6.9875 H   0  0  0  0  0  0  0  0  0  0  0  0
    3.6322    5.6505    8.3046 H   0  0  0  0  0  0  0  0  0  0  0  0
    4.2115    6.9144    7.1799 H   0  0  0  0  0  0  0  0  0  0  0  0
    5.3126    6.2483    8.4056 H   0  0  0  0  0  0  0  0  0  0  0  0
    6.2716   -1.0466    5.6008 H   0  0  0  0  0  0  0  0  0  0  0  0
    2.9176    0.0591    4.7467 H   0  0  0  0  0  0  0  0  0  0  0  0
    0.9304   -1.3691    5.1530 H   0  0  0  0  0  0  0  0  0  0  0  0
    0.9804   -3.7902    4.5492 H   0  0  0  0  0  0  0  0  0  0  0  0
    5.0364   -3.3305    3.1359 H   0  0  0  0  0  0  0  0  0  0  0  0
  1  2  1  0
  1 29  1  0
  1 30  1  0
  1 31  1  0
  2  3  1  0
  2 32  1  0
  2 33  1  0
  3  4  1  0
  4  5  2  0
  4  6  1  0
  6  7  2  0
  6 19  1  0
  7  8  1  0
  7  9  1  0
  8 34  1  0
  8 35  1  0
  8 36  1  0
  9 10  1  0
  9 16  1  0
 10 11  1  0
 10 15  2  0
 11 12  2  0
 11 37  1  0
 12 13  1  0
 12 14  1  0
 13 38  1  0
 13 39  1  0
 13 40  1  0
 14 15  1  0
 16 17  2  0
 16 18  1  0
 18 19  1  0
 18 41  1  0
 19 20  1  6
 19 21  1  0
 21 22  2  0
 21 28  1  0
 22 23  1  0
 22 42  1  0
 23 24  2  0
 23 43  1  0
 24 25  1  0
 24 44  1  0
 25 26  1  0
 25 28  2  0
 26 27  3  0
 28 45  1  0
M  END

