
     RDKit          3D

 35 36  0  0  0  0  0  0  0  0999 V2000
    3.4909   -1.6839    0.6217 O   0  0  0  0  0  0  0  0  0  0  0  0
    2.6621   -0.7941    0.5497 C   0  0  0  0  0  0  0  0  0  0  0  0
    2.8801    0.5498    1.2692 C   0  0  0  0  0  0  0  0  0  0  0  0
    1.6800    1.3636    1.3840 N   0  0  0  0  0  0  0  0  0  0  0  0
    0.8341    1.0471    2.5421 C   0  0  0  0  0  0  0  0  0  0  0  0
    1.3256    1.6920    3.8472 C   0  0  0  0  0  0  0  0  0  0  0  0
    1.4985    3.2070    3.6725 C   0  0  0  0  0  0  0  0  0  0  0  0
    2.3837    3.5293    2.4638 C   0  0  2  0  0  0  0  0  0  0  0  0
    2.5199    4.9175    2.2354 O   0  0  0  0  0  0  0  0  0  0  0  0
    1.8505    2.8055    1.2126 C   0  0  0  0  0  0  0  0  0  0  0  0
    1.4983   -0.8304   -0.1691 N   0  0  0  0  0  0  0  0  0  0  0  0
    0.9840   -1.8591   -0.9624 C   0  0  0  0  0  0  0  0  0  0  0  0
    1.6649   -3.0727   -1.1836 C   0  0  0  0  0  0  0  0  0  0  0  0
    1.1127   -4.0713   -1.9851 C   0  0  0  0  0  0  0  0  0  0  0  0
   -0.1300   -3.8674   -2.5777 C   0  0  0  0  0  0  0  0  0  0  0  0
   -0.6646   -4.8246   -3.3502 F   0  0  0  0  0  0  0  0  0  0  0  0
   -0.8370   -2.6843   -2.3855 C   0  0  0  0  0  0  0  0  0  0  0  0
   -0.2758   -1.6934   -1.5804 C   0  0  0  0  0  0  0  0  0  0  0  0
   -1.1749   -0.2049   -1.3360 Cl  0  0  0  0  0  0  0  0  0  0  0  0
    3.6360    1.0907    0.6760 H   0  0  0  0  0  0  0  0  0  0  0  0
    3.3706    0.3024    2.2297 H   0  0  0  0  0  0  0  0  0  0  0  0
    0.7677   -0.0475    2.6436 H   0  0  0  0  0  0  0  0  0  0  0  0
   -0.1890    1.4036    2.3226 H   0  0  0  0  0  0  0  0  0  0  0  0
    2.2886    1.2411    4.1457 H   0  0  0  0  0  0  0  0  0  0  0  0
    0.6162    1.4720    4.6623 H   0  0  0  0  0  0  0  0  0  0  0  0
    1.9192    3.6744    4.5775 H   0  0  0  0  0  0  0  0  0  0  0  0
    0.5061    3.6720    3.5066 H   0  0  0  0  0  0  0  0  0  0  0  0
    3.4083    3.1701    2.6672 H   0  0  0  0  0  0  0  0  0  0  0  0
    1.6353    5.2916    2.1184 H   0  0  0  0  0  0  0  0  0  0  0  0
    2.5136    3.0038    0.3566 H   0  0  0  0  0  0  0  0  0  0  0  0
    0.8643    3.2432    0.9602 H   0  0  0  0  0  0  0  0  0  0  0  0
    0.9492    0.0276   -0.0825 H   0  0  0  0  0  0  0  0  0  0  0  0
    2.6344   -3.2089   -0.7084 H   0  0  0  0  0  0  0  0  0  0  0  0
    1.6417   -5.0108   -2.1552 H   0  0  0  0  0  0  0  0  0  0  0  0
   -1.8098   -2.5400   -2.8556 H   0  0  0  0  0  0  0  0  0  0  0  0
  1  2  2  0
  2  3  1  0
  2 11  1  0
  3  4  1  0
  3 20  1  0
  3 21  1  0
  4  5  1  0
  4 10  1  0
  5  6  1  0
  5 22  1  0
  5 23  1  0
  6  7  1  0
  6 24  1  0
  6 25  1  0
  7  8  1  0
  7 26  1  0
  7 27  1  0
  8  9  1  0
  8 10  1  0
  8 28  1  1
  9 29  1  0
 10 30  1  0
 10 31  1  0
 11 12  1  0
 11 32  1  0
 12 13  2  0
 12 18  1  0
 13 14  1  0
 13 33  1  0
 14 15  2  0
 14 34  1  0
 15 16  1  0
 15 17  1  0
 17 18  2  0
 17 35  1  0
 18 19  1  0
M  END

