
     RDKit          3D

 61 65  0  0  0  0  0  0  0  0999 V2000
    8.6822   -0.0588   -0.6531 C   0  0  0  0  0  0  0  0  0  0  0  0
    7.3738   -0.7900   -0.3489 C   0  0  0  0  0  0  0  0  0  0  0  0
    6.5609   -0.1319    0.7698 C   0  0  0  0  0  0  0  0  0  0  0  0
    5.2259   -0.8329    1.0966 C   0  0  0  0  0  0  0  0  0  0  0  0
    5.3727   -2.2207    1.6821 C   0  0  0  0  0  0  0  0  0  0  0  0
    5.7654   -2.3949    3.0210 C   0  0  0  0  0  0  0  0  0  0  0  0
    5.9254   -3.6649    3.5704 C   0  0  0  0  0  0  0  0  0  0  0  0
    5.6930   -4.8087    2.7866 C   0  0  0  0  0  0  0  0  0  0  0  0
    5.8607   -6.1424    3.3686 C   0  0  0  0  0  0  0  0  0  0  0  0
    6.2425   -6.3656    4.6649 N   0  0  0  0  0  0  0  0  0  0  0  0
    6.2891   -7.6451    4.8315 N   0  0  0  0  0  0  0  0  0  0  0  0
    5.9431   -8.1919    3.6619 N   0  0  0  0  0  0  0  0  0  0  0  0
    5.8784   -9.5921    3.4547 C   0  0  0  0  0  0  0  0  0  0  0  0
    6.2026  -10.4608    4.5063 C   0  0  0  0  0  0  0  0  0  0  0  0
    6.1358  -11.8366    4.2976 C   0  0  0  0  0  0  0  0  0  0  0  0
    5.7447  -12.3264    3.0452 C   0  0  0  0  0  0  0  0  0  0  0  0
    5.6195  -14.0921    2.7790 S   0  0  1  0  0  0  0  0  0  0  0  0
    5.9757  -14.3724    1.3940 O   0  0  0  0  0  0  0  0  0  0  0  0
    6.3125  -14.7448    3.9080 O   0  0  0  0  0  0  0  0  0  0  0  0
    4.0091  -14.5437    2.9934 N   0  0  0  0  0  0  0  0  0  0  0  0
    2.9840  -14.2725    2.0374 C   0  0  0  0  0  0  0  0  0  0  0  0
    3.0518  -14.3721    0.6452 C   0  0  0  0  0  0  0  0  0  0  0  0
    1.8934  -14.0800   -0.0854 C   0  0  0  0  0  0  0  0  0  0  0  0
    0.7025  -13.7232    0.5569 C   0  0  0  0  0  0  0  0  0  0  0  0
    0.6476  -13.6531    1.9551 C   0  0  0  0  0  0  0  0  0  0  0  0
    1.7950  -13.9259    2.6963 C   0  0  0  0  0  0  0  0  0  0  0  0
    1.9985  -13.9419    4.1910 C   0  0  0  0  0  0  0  0  0  0  0  0
    3.4207  -14.5197    4.3663 C   0  0  1  0  0  0  0  0  0  0  0  0
    3.4157  -15.9414    4.9947 C   0  0  0  0  0  0  0  0  0  0  0  0
    2.4245  -16.4179    5.4836 O   0  0  0  0  0  0  0  0  0  0  0  0
    4.5830  -16.5748    4.9943 O   0  0  0  0  0  0  0  0  0  0  0  0
    5.4384  -11.4579    1.9899 C   0  0  0  0  0  0  0  0  0  0  0  0
    5.5005  -10.0821    2.1969 C   0  0  0  0  0  0  0  0  0  0  0  0
    5.6681   -7.2902    2.7251 N   0  0  0  0  0  0  0  0  0  0  0  0
    5.2969   -4.6486    1.4489 C   0  0  0  0  0  0  0  0  0  0  0  0
    5.1408   -3.3719    0.9107 C   0  0  0  0  0  0  0  0  0  0  0  0
    9.2409   -0.5515   -1.4647 H   0  0  0  0  0  0  0  0  0  0  0  0
    9.3396   -0.0295    0.2320 H   0  0  0  0  0  0  0  0  0  0  0  0
    8.4988    0.9844   -0.9612 H   0  0  0  0  0  0  0  0  0  0  0  0
    7.5924   -1.8378   -0.0785 H   0  0  0  0  0  0  0  0  0  0  0  0
    6.7557   -0.8374   -1.2645 H   0  0  0  0  0  0  0  0  0  0  0  0
    6.3422    0.9147    0.4911 H   0  0  0  0  0  0  0  0  0  0  0  0
    7.1759   -0.0780    1.6866 H   0  0  0  0  0  0  0  0  0  0  0  0
    4.6122   -0.8853    0.1815 H   0  0  0  0  0  0  0  0  0  0  0  0
    4.6675   -0.2031    1.8098 H   0  0  0  0  0  0  0  0  0  0  0  0
    5.9436   -1.5162    3.6476 H   0  0  0  0  0  0  0  0  0  0  0  0
    6.2273   -3.7867    4.6121 H   0  0  0  0  0  0  0  0  0  0  0  0
    6.5106  -10.0519    5.4681 H   0  0  0  0  0  0  0  0  0  0  0  0
    6.4105  -12.5314    5.0924 H   0  0  0  0  0  0  0  0  0  0  0  0
    3.9752  -14.6732    0.1529 H   0  0  0  0  0  0  0  0  0  0  0  0
    1.9222  -14.1488   -1.1757 H   0  0  0  0  0  0  0  0  0  0  0  0
   -0.1919  -13.5112   -0.0336 H   0  0  0  0  0  0  0  0  0  0  0  0
   -0.2855  -13.3900    2.4601 H   0  0  0  0  0  0  0  0  0  0  0  0
    1.2838  -14.5952    4.7123 H   0  0  0  0  0  0  0  0  0  0  0  0
    1.9120  -12.9317    4.6242 H   0  0  0  0  0  0  0  0  0  0  0  0
    4.0385  -13.8881    5.0246 H   0  0  0  0  0  0  0  0  0  0  0  0
    5.2987  -16.0323    4.5914 H   0  0  0  0  0  0  0  0  0  0  0  0
    5.1671  -11.8556    1.0112 H   0  0  0  0  0  0  0  0  0  0  0  0
    5.2691   -9.3803    1.3963 H   0  0  0  0  0  0  0  0  0  0  0  0
    5.1108   -5.5317    0.8346 H   0  0  0  0  0  0  0  0  0  0  0  0
    4.8278   -3.2646   -0.1315 H   0  0  0  0  0  0  0  0  0  0  0  0
  1  2  1  0
  1 37  1  0
  1 38  1  0
  1 39  1  0
  2  3  1  0
  2 40  1  0
  2 41  1  0
  3  4  1  0
  3 42  1  0
  3 43  1  0
  4  5  1  0
  4 44  1  0
  4 45  1  0
  5  6  2  0
  5 36  1  0
  6  7  1  0
  6 46  1  0
  7  8  2  0
  7 47  1  0
  8  9  1  0
  8 35  1  0
  9 10  1  0
  9 34  2  0
 10 11  2  0
 11 12  1  0
 12 13  1  0
 12 34  1  0
 13 14  2  0
 13 33  1  0
 14 15  1  0
 14 48  1  0
 15 16  2  0
 15 49  1  0
 17 16  1  1
 16 32  1  0
 17 18  2  0
 17 19  2  0
 17 20  1  0
 20 21  1  0
 20 28  1  0
 21 22  2  0
 21 26  1  0
 22 23  1  0
 22 50  1  0
 23 24  2  0
 23 51  1  0
 24 25  1  0
 24 52  1  0
 25 26  2  0
 25 53  1  0
 26 27  1  0
 27 28  1  0
 27 54  1  0
 27 55  1  0
 28 29  1  0
 28 56  1  1
 29 30  2  0
 29 31  1  0
 31 57  1  0
 32 33  2  0
 32 58  1  0
 33 59  1  0
 35 36  2  0
 35 60  1  0
 36 61  1  0
M  END

