
     RDKit          3D

 33 34  0  0  0  0  0  0  0  0999 V2000
    2.3914   -0.6636   -0.7645 C   0  0  0  0  0  0  0  0  0  0  0  0
    2.2397   -0.4435    0.6214 O   0  0  0  0  0  0  0  0  0  0  0  0
    2.9755    0.5121    1.2256 C   0  0  0  0  0  0  0  0  0  0  0  0
    3.8980    1.3444    0.5744 C   0  0  0  0  0  0  0  0  0  0  0  0
    4.6159    2.3111    1.2844 C   0  0  0  0  0  0  0  0  0  0  0  0
    4.4394    2.4818    2.6622 C   0  0  0  0  0  0  0  0  0  0  0  0
    5.2312    3.5044    3.4441 C   0  0  0  0  0  0  0  0  0  0  0  0
    6.5758    2.9657    4.0378 C   0  0  1  0  0  0  0  0  0  0  0  0
    7.4916    2.5509    2.9650 C   0  0  0  0  0  0  0  0  0  0  0  0
    8.2000    2.2531    2.0977 N   0  0  0  0  0  0  0  0  0  0  0  0
    7.2219    3.9833    4.9759 C   0  0  0  0  0  0  0  0  0  0  0  0
    8.1051    4.9656    4.5067 C   0  0  0  0  0  0  0  0  0  0  0  0
    8.6279    5.9186    5.3849 C   0  0  0  0  0  0  0  0  0  0  0  0
    8.2816    5.9096    6.7378 C   0  0  0  0  0  0  0  0  0  0  0  0
    7.4024    4.9267    7.2009 C   0  0  0  0  0  0  0  0  0  0  0  0
    6.9611    4.8879    8.8921 Cl  0  0  0  0  0  0  0  0  0  0  0  0
    6.8736    3.9676    6.3338 C   0  0  0  0  0  0  0  0  0  0  0  0
    3.5134    1.6507    3.3149 C   0  0  0  0  0  0  0  0  0  0  0  0
    2.7942    0.6852    2.6166 C   0  0  0  0  0  0  0  0  0  0  0  0
    1.6469   -0.3223    3.4597 Cl  0  0  0  0  0  0  0  0  0  0  0  0
    1.7065   -1.4814   -1.0243 H   0  0  0  0  0  0  0  0  0  0  0  0
    3.4230   -0.9635   -1.0212 H   0  0  0  0  0  0  0  0  0  0  0  0
    2.1217    0.2311   -1.3536 H   0  0  0  0  0  0  0  0  0  0  0  0
    4.0640    1.2426   -0.4981 H   0  0  0  0  0  0  0  0  0  0  0  0
    5.3305    2.9382    0.7462 H   0  0  0  0  0  0  0  0  0  0  0  0
    4.6374    3.8700    4.2956 H   0  0  0  0  0  0  0  0  0  0  0  0
    5.4598    4.3800    2.8167 H   0  0  0  0  0  0  0  0  0  0  0  0
    6.3405    2.0586    4.6192 H   0  0  0  0  0  0  0  0  0  0  0  0
    8.3980    4.9773    3.4544 H   0  0  0  0  0  0  0  0  0  0  0  0
    9.3198    6.6779    5.0123 H   0  0  0  0  0  0  0  0  0  0  0  0
    8.6879    6.6475    7.4311 H   0  0  0  0  0  0  0  0  0  0  0  0
    6.1936    3.2087    6.7268 H   0  0  0  0  0  0  0  0  0  0  0  0
    3.3332    1.7530    4.3877 H   0  0  0  0  0  0  0  0  0  0  0  0
  1  2  1  0
  1 21  1  0
  1 22  1  0
  1 23  1  0
  2  3  1  0
  3  4  2  0
  3 19  1  0
  4  5  1  0
  4 24  1  0
  5  6  2  0
  5 25  1  0
  6  7  1  0
  6 18  1  0
  7  8  1  0
  7 26  1  0
  7 27  1  0
  8  9  1  0
  8 11  1  0
  8 28  1  1
  9 10  3  0
 11 12  2  0
 11 17  1  0
 12 13  1  0
 12 29  1  0
 13 14  2  0
 13 30  1  0
 14 15  1  0
 14 31  1  0
 15 16  1  0
 15 17  2  0
 17 32  1  0
 18 19  2  0
 18 33  1  0
 19 20  1  0
M  END

