
     RDKit          3D

 57 61  0  0  0  0  0  0  0  0999 V2000
    5.3058    2.3895    0.1080 O   0  0  0  0  0  0  0  0  0  0  0  0
    4.9004    1.4692   -0.5774 C   0  0  0  0  0  0  0  0  0  0  0  0
    3.4002    1.2160   -0.7916 C   0  0  0  0  0  0  0  0  0  0  0  0
    2.3905    2.7211   -0.7018 S   0  0  0  0  0  0  0  0  0  0  0  0
    2.7607    3.4445   -2.2710 C   0  0  0  0  0  0  0  0  0  0  0  0
    3.5876    2.8319   -3.0876 N   0  0  0  0  0  0  0  0  0  0  0  0
    3.8339    3.3935   -4.3031 C   0  0  0  0  0  0  0  0  0  0  0  0
    4.8199    2.6772   -5.2069 C   0  0  0  0  0  0  0  0  0  0  0  0
    4.4958    1.2724   -5.4318 N   0  0  0  0  0  0  0  0  0  0  0  0
    3.1986    1.0166   -6.0651 C   0  0  0  0  0  0  0  0  0  0  0  0
    3.2332    1.2011   -7.5852 C   0  0  0  0  0  0  0  0  0  0  0  0
    4.2542    0.4081   -8.1670 O   0  0  0  0  0  0  0  0  0  0  0  0
    5.5299    0.7113   -7.6351 C   0  0  0  0  0  0  0  0  0  0  0  0
    5.5441    0.5137   -6.1151 C   0  0  0  0  0  0  0  0  0  0  0  0
    3.3114    4.5114   -4.7512 N   0  0  0  0  0  0  0  0  0  0  0  0
    2.4623    5.1865   -3.9220 C   0  0  0  0  0  0  0  0  0  0  0  0
    1.8861    6.4083   -4.3590 C   0  0  0  0  0  0  0  0  0  0  0  0
    1.0264    7.1066   -3.5346 C   0  0  0  0  0  0  0  0  0  0  0  0
    0.7072    6.6168   -2.2447 C   0  0  0  0  0  0  0  0  0  0  0  0
    1.2521    5.4292   -1.7947 C   0  0  0  0  0  0  0  0  0  0  0  0
    2.1350    4.6930   -2.6234 C   0  0  0  0  0  0  0  0  0  0  0  0
    5.7378    0.5454   -1.1433 N   0  0  0  0  0  0  0  0  0  0  0  0
    5.3858   -0.4294   -2.1934 C   0  0  0  0  0  0  0  0  0  0  0  0
    6.7358   -1.0569   -2.5698 C   0  0  0  0  0  0  0  0  0  0  0  0
    7.7385    0.0672   -2.2854 C   0  0  0  0  0  0  0  0  0  0  0  0
    7.1908    0.7067   -0.9884 C   0  0  2  0  0  0  0  0  0  0  0  0
    7.7029    0.0454    0.2753 C   0  0  0  0  0  0  0  0  0  0  0  0
    7.0856   -0.8733    1.0890 C   0  0  0  0  0  0  0  0  0  0  0  0
    7.9005   -1.2992    2.1845 C   0  0  0  0  0  0  0  0  0  0  0  0
    9.1322   -0.6994    2.1910 C   0  0  0  0  0  0  0  0  0  0  0  0
    9.3073    0.3998    0.8632 S   0  0  0  0  0  0  0  0  0  0  0  0
    3.0335    0.5904    0.0389 H   0  0  0  0  0  0  0  0  0  0  0  0
    3.1824    0.7063   -1.7360 H   0  0  0  0  0  0  0  0  0  0  0  0
    5.8074    2.7094   -4.7127 H   0  0  0  0  0  0  0  0  0  0  0  0
    4.8972    3.2903   -6.1253 H   0  0  0  0  0  0  0  0  0  0  0  0
    2.4289    1.6630   -5.6157 H   0  0  0  0  0  0  0  0  0  0  0  0
    2.9155   -0.0293   -5.8488 H   0  0  0  0  0  0  0  0  0  0  0  0
    3.3838    2.2701   -7.8430 H   0  0  0  0  0  0  0  0  0  0  0  0
    2.2821    0.8797   -8.0380 H   0  0  0  0  0  0  0  0  0  0  0  0
    5.8167    1.7524   -7.8941 H   0  0  0  0  0  0  0  0  0  0  0  0
    6.2507    0.0358   -8.1230 H   0  0  0  0  0  0  0  0  0  0  0  0
    6.5278    0.7869   -5.6986 H   0  0  0  0  0  0  0  0  0  0  0  0
    5.3809   -0.5603   -5.9097 H   0  0  0  0  0  0  0  0  0  0  0  0
    2.1511    6.7650   -5.3561 H   0  0  0  0  0  0  0  0  0  0  0  0
    0.5881    8.0479   -3.8760 H   0  0  0  0  0  0  0  0  0  0  0  0
    0.0287    7.1833   -1.6026 H   0  0  0  0  0  0  0  0  0  0  0  0
    1.0083    5.0571   -0.7971 H   0  0  0  0  0  0  0  0  0  0  0  0
    4.9313    0.0882   -3.0569 H   0  0  0  0  0  0  0  0  0  0  0  0
    4.6726   -1.1846   -1.8244 H   0  0  0  0  0  0  0  0  0  0  0  0
    6.7535   -1.4041   -3.6132 H   0  0  0  0  0  0  0  0  0  0  0  0
    6.9509   -1.9233   -1.9242 H   0  0  0  0  0  0  0  0  0  0  0  0
    7.7140    0.8168   -3.0940 H   0  0  0  0  0  0  0  0  0  0  0  0
    8.7746   -0.2825   -2.1757 H   0  0  0  0  0  0  0  0  0  0  0  0
    7.4191    1.7821   -0.9347 H   0  0  0  0  0  0  0  0  0  0  0  0
    6.0670   -1.2216    0.9144 H   0  0  0  0  0  0  0  0  0  0  0  0
    7.5793   -2.0196    2.9388 H   0  0  0  0  0  0  0  0  0  0  0  0
    9.9456   -0.8297    2.9033 H   0  0  0  0  0  0  0  0  0  0  0  0
  1  2  2  0
  2  3  1  0
  2 22  1  0
  3  4  1  0
  3 32  1  0
  3 33  1  0
  4  5  1  0
  5  6  2  0
  5 21  1  0
  6  7  1  0
  7  8  1  0
  7 15  2  0
  8  9  1  0
  8 34  1  0
  8 35  1  0
  9 10  1  0
  9 14  1  0
 10 11  1  0
 10 36  1  0
 10 37  1  0
 11 12  1  0
 11 38  1  0
 11 39  1  0
 12 13  1  0
 13 14  1  0
 13 40  1  0
 13 41  1  0
 14 42  1  0
 14 43  1  0
 15 16  1  0
 16 17  1  0
 16 21  2  0
 17 18  2  0
 17 44  1  0
 18 19  1  0
 18 45  1  0
 19 20  2  0
 19 46  1  0
 20 21  1  0
 20 47  1  0
 22 23  1  0
 22 26  1  0
 23 24  1  0
 23 48  1  0
 23 49  1  0
 24 25  1  0
 24 50  1  0
 24 51  1  0
 25 26  1  0
 25 52  1  0
 25 53  1  0
 26 27  1  0
 26 54  1  1
 27 28  2  0
 27 31  1  0
 28 29  1  0
 28 55  1  0
 29 30  2  0
 29 56  1  0
 30 31  1  0
 30 57  1  0
M  END

