
     RDKit          3D

 61 64  0  0  0  0  0  0  0  0999 V2000
    0.9867    0.5975    0.2722 C   0  0  0  0  0  0  0  0  0  0  0  0
    2.4985    0.6505    0.4496 C   0  0  1  0  0  0  0  0  0  0  0  0
    2.9830    1.3323    1.7319 C   0  0  0  0  0  0  0  0  0  0  0  0
    4.3348    0.7932    1.9461 N   0  0  0  0  0  0  0  0  0  0  0  0
    5.2866    1.5873    2.5351 C   0  0  0  0  0  0  0  0  0  0  0  0
    5.0145    2.7160    2.9323 O   0  0  0  0  0  0  0  0  0  0  0  0
    6.6571    1.0129    2.6994 C   0  0  0  0  0  0  0  0  0  0  0  0
    6.9617   -0.2141    3.2632 C   0  0  0  0  0  0  0  0  0  0  0  0
    8.3182   -0.3050    3.3352 N   0  0  0  0  0  0  0  0  0  0  0  0
    9.1031   -1.3750    3.8397 C   0  0  0  0  0  0  0  0  0  0  0  0
    8.5313   -2.3556    4.6638 C   0  0  0  0  0  0  0  0  0  0  0  0
    9.3171   -3.4093    5.1358 C   0  0  0  0  0  0  0  0  0  0  0  0
   10.6724   -3.4888    4.8046 C   0  0  0  0  0  0  0  0  0  0  0  0
   11.2388   -2.5000    3.9938 C   0  0  0  0  0  0  0  0  0  0  0  0
   10.4641   -1.4463    3.5079 C   0  0  0  0  0  0  0  0  0  0  0  0
    8.9102    0.7974    2.8293 N   0  0  0  0  0  0  0  0  0  0  0  0
    7.9409    1.6204    2.4526 C   0  0  0  0  0  0  0  0  0  0  0  0
    8.2857    2.9885    1.8731 C   0  0  1  0  0  0  0  0  0  0  0  0
    9.7759    3.0331    1.4867 C   0  0  0  0  0  0  0  0  0  0  0  0
    7.4343    3.2719    0.6171 C   0  0  0  0  0  0  0  0  0  0  0  0
    8.0052    4.0686    2.9455 C   0  0  0  0  0  0  0  0  0  0  0  0
    4.5716   -0.4066    1.1364 C   0  0  0  0  0  0  0  0  0  0  0  0
    3.1737   -0.7379    0.5446 C   0  0  2  0  0  0  0  0  0  0  0  0
    3.1040   -1.5437   -0.6541 N   0  0  0  0  0  0  0  0  0  0  0  0
    3.8260   -1.1555   -1.8589 C   0  0  0  0  0  0  0  0  0  0  0  0
    5.1061   -1.9760   -2.0670 C   0  0  0  0  0  0  0  0  0  0  0  0
    4.8399   -3.3644   -2.0073 O   0  0  0  0  0  0  0  0  0  0  0  0
    4.2540   -3.7405   -0.7757 C   0  0  0  0  0  0  0  0  0  0  0  0
    2.9402   -2.9866   -0.5527 C   0  0  0  0  0  0  0  0  0  0  0  0
    0.5538    1.6050    0.1663 H   0  0  0  0  0  0  0  0  0  0  0  0
    0.5027    0.1131    1.1375 H   0  0  0  0  0  0  0  0  0  0  0  0
    0.7279    0.0163   -0.6260 H   0  0  0  0  0  0  0  0  0  0  0  0
    2.9429    1.1875   -0.4084 H   0  0  0  0  0  0  0  0  0  0  0  0
    2.3251    1.0787    2.5853 H   0  0  0  0  0  0  0  0  0  0  0  0
    3.0286    2.4281    1.6738 H   0  0  0  0  0  0  0  0  0  0  0  0
    6.3104   -1.0055    3.6217 H   0  0  0  0  0  0  0  0  0  0  0  0
    7.4822   -2.2943    4.9568 H   0  0  0  0  0  0  0  0  0  0  0  0
    8.8633   -4.1678    5.7786 H   0  0  0  0  0  0  0  0  0  0  0  0
   11.2838   -4.3126    5.1801 H   0  0  0  0  0  0  0  0  0  0  0  0
   12.2985   -2.5487    3.7307 H   0  0  0  0  0  0  0  0  0  0  0  0
   10.8910   -0.6691    2.8753 H   0  0  0  0  0  0  0  0  0  0  0  0
   10.0177    2.2774    0.7231 H   0  0  0  0  0  0  0  0  0  0  0  0
   10.4223    2.8442    2.3550 H   0  0  0  0  0  0  0  0  0  0  0  0
   10.0221    4.0268    1.0793 H   0  0  0  0  0  0  0  0  0  0  0  0
    7.5794    2.4918   -0.1484 H   0  0  0  0  0  0  0  0  0  0  0  0
    7.7330    4.2356    0.1736 H   0  0  0  0  0  0  0  0  0  0  0  0
    6.3644    3.3396    0.8583 H   0  0  0  0  0  0  0  0  0  0  0  0
    8.6363    3.9050    3.8338 H   0  0  0  0  0  0  0  0  0  0  0  0
    6.9514    4.0458    3.2554 H   0  0  0  0  0  0  0  0  0  0  0  0
    8.2373    5.0692    2.5439 H   0  0  0  0  0  0  0  0  0  0  0  0
    4.9617   -1.2494    1.7256 H   0  0  0  0  0  0  0  0  0  0  0  0
    5.3045   -0.2012    0.3373 H   0  0  0  0  0  0  0  0  0  0  0  0
    2.6191   -1.2984    1.3177 H   0  0  0  0  0  0  0  0  0  0  0  0
    4.0649   -0.0812   -1.8328 H   0  0  0  0  0  0  0  0  0  0  0  0
    3.1723   -1.3165   -2.7385 H   0  0  0  0  0  0  0  0  0  0  0  0
    5.8658   -1.7038   -1.3044 H   0  0  0  0  0  0  0  0  0  0  0  0
    5.5378   -1.7770   -3.0608 H   0  0  0  0  0  0  0  0  0  0  0  0
    4.9569   -3.5382    0.0616 H   0  0  0  0  0  0  0  0  0  0  0  0
    4.0830   -4.8280   -0.8220 H   0  0  0  0  0  0  0  0  0  0  0  0
    2.5092   -3.2438    0.4280 H   0  0  0  0  0  0  0  0  0  0  0  0
    2.2227   -3.3260   -1.3261 H   0  0  0  0  0  0  0  0  0  0  0  0
  1  2  1  0
  1 30  1  0
  1 31  1  0
  1 32  1  0
  2  3  1  0
  2 23  1  0
  2 33  1  6
  3  4  1  0
  3 34  1  0
  3 35  1  0
  4  5  1  0
  4 22  1  0
  5  6  2  0
  5  7  1  0
  7  8  2  0
  7 17  1  0
  8  9  1  0
  8 36  1  0
  9 10  1  0
  9 16  1  0
 10 11  2  0
 10 15  1  0
 11 12  1  0
 11 37  1  0
 12 13  2  0
 12 38  1  0
 13 14  1  0
 13 39  1  0
 14 15  2  0
 14 40  1  0
 15 41  1  0
 16 17  2  0
 17 18  1  0
 18 19  1  6
 18 20  1  0
 18 21  1  0
 19 42  1  0
 19 43  1  0
 19 44  1  0
 20 45  1  0
 20 46  1  0
 20 47  1  0
 21 48  1  0
 21 49  1  0
 21 50  1  0
 22 23  1  0
 22 51  1  0
 22 52  1  0
 23 24  1  0
 23 53  1  1
 24 25  1  0
 24 29  1  0
 25 26  1  0
 25 54  1  0
 25 55  1  0
 26 27  1  0
 26 56  1  0
 26 57  1  0
 27 28  1  0
 28 29  1  0
 28 58  1  0
 28 59  1  0
 29 60  1  0
 29 61  1  0
M  END

