
     RDKit          3D

 59 62  0  0  0  0  0  0  0  0999 V2000
    3.1124    2.2637   -1.0802 C   0  0  0  0  0  0  0  0  0  0  0  0
    2.7807    1.2567   -2.1832 C   0  0  0  0  0  0  0  0  0  0  0  0
    3.0221   -0.2390   -1.8383 C   0  0  1  0  0  0  0  0  0  0  0  0
    2.1604   -0.6900   -0.6494 C   0  0  0  0  0  0  0  0  0  0  0  0
    2.6838   -1.0957   -3.0782 C   0  0  0  0  0  0  0  0  0  0  0  0
    4.5041   -0.4560   -1.4844 C   0  0  0  0  0  0  0  0  0  0  0  0
    4.8973   -0.9126   -0.4365 O   0  0  0  0  0  0  0  0  0  0  0  0
    5.3072   -0.0777   -2.4971 O   0  0  0  0  0  0  0  0  0  0  0  0
    6.7573   -0.1944   -2.4373 C   0  0  2  0  0  0  0  0  0  0  0  0
    7.3604    0.6660   -1.3131 C   0  0  0  0  0  0  0  0  0  0  0  0
    8.8988    0.6020   -1.4081 C   0  0  1  0  0  0  0  0  0  0  0  0
    9.3615   -0.8602   -1.2521 C   0  0  0  0  0  0  0  0  0  0  0  0
    8.7491   -1.7142   -2.3798 C   0  0  2  0  0  0  0  0  0  0  0  0
    9.2219   -1.1763   -3.7454 C   0  0  0  0  0  0  0  0  0  0  0  0
    8.7643    0.2861   -3.8922 C   0  0  2  0  0  0  0  0  0  0  0  0
    9.0551    0.8199   -5.2066 O   0  0  0  0  0  0  0  0  0  0  0  0
   10.3309    0.9226   -5.6613 C   0  0  0  0  0  0  0  0  0  0  0  0
   11.3301    0.6050   -5.0425 O   0  0  0  0  0  0  0  0  0  0  0  0
   10.3474    1.4377   -6.9202 N   0  0  0  0  0  0  0  0  0  0  0  0
   11.6137    1.6862   -7.6126 C   0  0  0  0  0  0  0  0  0  0  0  0
   11.1991    2.5867   -8.7834 C   0  0  0  0  0  0  0  0  0  0  0  0
    9.7628    2.1321   -9.0875 C   0  0  0  0  0  0  0  0  0  0  0  0
    9.1756    1.8515   -7.6965 C   0  0  0  0  0  0  0  0  0  0  0  0
    9.3719    1.1473   -2.7704 C   0  0  0  0  0  0  0  0  0  0  0  0
    7.2307    0.3450   -3.7965 C   0  0  0  0  0  0  0  0  0  0  0  0
    7.2104   -1.6574   -2.2877 C   0  0  0  0  0  0  0  0  0  0  0  0
    2.9333    3.2924   -1.4315 H   0  0  0  0  0  0  0  0  0  0  0  0
    4.1697    2.2028   -0.7738 H   0  0  0  0  0  0  0  0  0  0  0  0
    2.4973    2.1136   -0.1795 H   0  0  0  0  0  0  0  0  0  0  0  0
    3.3671    1.4988   -3.0837 H   0  0  0  0  0  0  0  0  0  0  0  0
    1.7186    1.3599   -2.4679 H   0  0  0  0  0  0  0  0  0  0  0  0
    1.0951   -0.5122   -0.8675 H   0  0  0  0  0  0  0  0  0  0  0  0
    2.4232   -0.1565    0.2743 H   0  0  0  0  0  0  0  0  0  0  0  0
    2.2983   -1.7629   -0.4498 H   0  0  0  0  0  0  0  0  0  0  0  0
    1.6178   -0.9820   -3.3331 H   0  0  0  0  0  0  0  0  0  0  0  0
    2.8706   -2.1647   -2.8868 H   0  0  0  0  0  0  0  0  0  0  0  0
    3.2821   -0.7925   -3.9492 H   0  0  0  0  0  0  0  0  0  0  0  0
    7.0160    0.2980   -0.3373 H   0  0  0  0  0  0  0  0  0  0  0  0
    7.0092    1.7059   -1.4247 H   0  0  0  0  0  0  0  0  0  0  0  0
    9.3331    1.2174   -0.6032 H   0  0  0  0  0  0  0  0  0  0  0  0
    9.0524   -1.2528   -0.2688 H   0  0  0  0  0  0  0  0  0  0  0  0
   10.4622   -0.9146   -1.2915 H   0  0  0  0  0  0  0  0  0  0  0  0
    9.0760   -2.7615   -2.2726 H   0  0  0  0  0  0  0  0  0  0  0  0
    8.7913   -1.7729   -4.5674 H   0  0  0  0  0  0  0  0  0  0  0  0
   10.3156   -1.2298   -3.8294 H   0  0  0  0  0  0  0  0  0  0  0  0
   12.0599    0.7373   -7.9643 H   0  0  0  0  0  0  0  0  0  0  0  0
   12.3430    2.1507   -6.9322 H   0  0  0  0  0  0  0  0  0  0  0  0
   11.8761    2.4975   -9.6459 H   0  0  0  0  0  0  0  0  0  0  0  0
   11.2021    3.6430   -8.4659 H   0  0  0  0  0  0  0  0  0  0  0  0
    9.7788    1.2035   -9.6825 H   0  0  0  0  0  0  0  0  0  0  0  0
    9.1778    2.8756   -9.6493 H   0  0  0  0  0  0  0  0  0  0  0  0
    8.4054    1.0658   -7.7025 H   0  0  0  0  0  0  0  0  0  0  0  0
    8.7135    2.7560   -7.2596 H   0  0  0  0  0  0  0  0  0  0  0  0
    9.0476    2.1933   -2.9035 H   0  0  0  0  0  0  0  0  0  0  0  0
   10.4676    1.1242   -2.8423 H   0  0  0  0  0  0  0  0  0  0  0  0
    6.7849   -0.2508   -4.6084 H   0  0  0  0  0  0  0  0  0  0  0  0
    6.8907    1.3846   -3.9233 H   0  0  0  0  0  0  0  0  0  0  0  0
    6.8645   -2.0574   -1.3249 H   0  0  0  0  0  0  0  0  0  0  0  0
    6.7518   -2.2620   -3.0883 H   0  0  0  0  0  0  0  0  0  0  0  0
  1  2  1  0
  1 27  1  0
  1 28  1  0
  1 29  1  0
  2  3  1  0
  2 30  1  0
  2 31  1  0
  3  4  1  0
  3  5  1  0
  3  6  1  1
  4 32  1  0
  4 33  1  0
  4 34  1  0
  5 35  1  0
  5 36  1  0
  5 37  1  0
  6  7  2  0
  6  8  1  0
  9  8  1  6
  9 10  1  0
  9 25  1  0
  9 26  1  0
 10 11  1  0
 10 38  1  0
 10 39  1  0
 11 12  1  0
 11 24  1  0
 11 40  1  1
 12 13  1  0
 12 41  1  0
 12 42  1  0
 13 14  1  0
 13 26  1  0
 13 43  1  1
 14 15  1  0
 14 44  1  0
 14 45  1  0
 15 16  1  6
 15 24  1  0
 15 25  1  0
 16 17  1  0
 17 18  2  0
 17 19  1  0
 19 20  1  0
 19 23  1  0
 20 21  1  0
 20 46  1  0
 20 47  1  0
 21 22  1  0
 21 48  1  0
 21 49  1  0
 22 23  1  0
 22 50  1  0
 22 51  1  0
 23 52  1  0
 23 53  1  0
 24 54  1  0
 24 55  1  0
 25 56  1  0
 25 57  1  0
 26 58  1  0
 26 59  1  0
M  END

