
     RDKit          3D

 36 36  0  0  0  0  0  0  0  0999 V2000
    0.9468    0.1237    1.9381 C   0  0  0  0  0  0  0  0  0  0  0  0
    2.3660    0.0630    1.7763 O   0  0  0  0  0  0  0  0  0  0  0  0
    2.8903    0.8209    0.8022 C   0  0  0  0  0  0  0  0  0  0  0  0
    2.2334    1.5279    0.0756 O   0  0  0  0  0  0  0  0  0  0  0  0
    4.4097    0.7010    0.7592 C   0  0  1  0  0  0  0  0  0  0  0  0
    4.8778    1.2733   -0.4856 N   0  0  0  0  0  0  0  0  0  0  0  0
    5.7784    0.6270   -1.2801 C   0  0  0  0  0  0  0  0  0  0  0  0
    6.3181   -0.4196   -0.9437 O   0  0  0  0  0  0  0  0  0  0  0  0
    6.1064    1.2615   -2.6135 C   0  0  0  0  0  0  0  0  0  0  0  0
    6.9903    0.5392   -3.4335 C   0  0  0  0  0  0  0  0  0  0  0  0
    7.4015    0.9906   -4.6935 C   0  0  0  0  0  0  0  0  0  0  0  0
    8.2255    0.2612   -5.5330 N   0  0  0  0  0  0  0  0  0  0  0  0
    6.8885    2.2339   -5.1138 C   0  0  0  0  0  0  0  0  0  0  0  0
    7.2835    2.7000   -6.3137 F   0  0  0  0  0  0  0  0  0  0  0  0
    6.0174    2.9841   -4.3400 C   0  0  0  0  0  0  0  0  0  0  0  0
    5.6326    2.4880   -3.0967 C   0  0  0  0  0  0  0  0  0  0  0  0
    4.7810    3.2477   -2.3684 F   0  0  0  0  0  0  0  0  0  0  0  0
    5.0508    1.3406    2.0296 C   0  0  1  0  0  0  0  0  0  0  0  0
    6.5548    1.0548    2.0914 C   0  0  0  0  0  0  0  0  0  0  0  0
    4.7623    2.8437    2.1251 C   0  0  0  0  0  0  0  0  0  0  0  0
    0.7054   -0.5506    2.7687 H   0  0  0  0  0  0  0  0  0  0  0  0
    0.4366   -0.2027    1.0196 H   0  0  0  0  0  0  0  0  0  0  0  0
    0.6235    1.1494    2.1711 H   0  0  0  0  0  0  0  0  0  0  0  0
    4.6720   -0.3677    0.7550 H   0  0  0  0  0  0  0  0  0  0  0  0
    4.3454    2.0508   -0.8619 H   0  0  0  0  0  0  0  0  0  0  0  0
    7.3529   -0.4123   -3.0393 H   0  0  0  0  0  0  0  0  0  0  0  0
    8.8138   -0.4364   -5.0935 H   0  0  0  0  0  0  0  0  0  0  0  0
    8.6850    0.7855   -6.2682 H   0  0  0  0  0  0  0  0  0  0  0  0
    5.6436    3.9444   -4.6967 H   0  0  0  0  0  0  0  0  0  0  0  0
    4.5697    0.8362    2.8850 H   0  0  0  0  0  0  0  0  0  0  0  0
    7.0884    1.5519    1.2660 H   0  0  0  0  0  0  0  0  0  0  0  0
    6.7683   -0.0220    2.0194 H   0  0  0  0  0  0  0  0  0  0  0  0
    6.9771    1.4308    3.0372 H   0  0  0  0  0  0  0  0  0  0  0  0
    5.1952    3.3813    1.2654 H   0  0  0  0  0  0  0  0  0  0  0  0
    5.2073    3.2664    3.0396 H   0  0  0  0  0  0  0  0  0  0  0  0
    3.6829    3.0642    2.1479 H   0  0  0  0  0  0  0  0  0  0  0  0
  1  2  1  0
  1 21  1  0
  1 22  1  0
  1 23  1  0
  2  3  1  0
  3  4  2  0
  3  5  1  0
  5  6  1  0
  5 18  1  0
  5 24  1  6
  6  7  1  0
  6 25  1  0
  7  8  2  0
  7  9  1  0
  9 10  2  0
  9 16  1  0
 10 11  1  0
 10 26  1  0
 11 12  1  0
 11 13  2  0
 12 27  1  0
 12 28  1  0
 13 14  1  0
 13 15  1  0
 15 16  2  0
 15 29  1  0
 16 17  1  0
 18 19  1  0
 18 20  1  0
 18 30  1  1
 19 31  1  0
 19 32  1  0
 19 33  1  0
 20 34  1  0
 20 35  1  0
 20 36  1  0
M  END

