
     RDKit          3D

 41 42  0  0  0  0  0  0  0  0999 V2000
    6.1323   -3.7157    1.6743 C   0  0  0  0  0  0  0  0  0  0  0  0
    5.5572   -2.4239    1.4711 O   0  0  0  0  0  0  0  0  0  0  0  0
    4.4133   -2.3872    0.7762 C   0  0  0  0  0  0  0  0  0  0  0  0
    3.7928   -3.3601    0.4289 O   0  0  0  0  0  0  0  0  0  0  0  0
    3.9480   -0.9523    0.5220 C   0  0  1  0  0  0  0  0  0  0  0  0
    3.1068   -1.0266   -0.1880 H   0  0  0  0  0  0  0  0  0  0  0  0
    3.5038   -0.2318    1.8171 C   0  0  0  0  0  0  0  0  0  0  0  0
    3.8152    1.2411    1.5506 C   0  0  2  0  0  0  0  0  0  0  0  0
    3.8808    1.8493    2.4611 H   0  0  0  0  0  0  0  0  0  0  0  0
    2.4958    1.9980    0.5421 Cl  0  0  0  0  0  0  0  0  0  0  0  0
    5.1245    1.1786    0.7685 C   0  0  0  0  0  0  0  0  0  0  0  0
    5.0016   -0.0709    0.0164 N   0  0  0  0  0  0  0  0  0  0  0  0
    5.6449   -0.2764   -1.5174 S   0  0  1  0  0  0  0  0  0  0  0  0
    6.6464    0.7837   -1.6565 O   0  0  0  0  0  0  0  0  0  0  0  0
    5.9829   -1.6972   -1.6327 O   0  0  0  0  0  0  0  0  0  0  0  0
    4.3120    0.0417   -2.6657 C   0  0  0  0  0  0  0  0  0  0  0  0
    3.5642   -1.0190   -3.1637 C   0  0  0  0  0  0  0  0  0  0  0  0
    2.4953   -0.7472   -4.0299 C   0  0  0  0  0  0  0  0  0  0  0  0
    2.1778    0.5661   -4.3862 C   0  0  0  0  0  0  0  0  0  0  0  0
    1.1701    0.9214   -5.2078 O   0  0  0  0  0  0  0  0  0  0  0  0
    0.3541   -0.0806   -5.7742 C   0  0  0  0  0  0  0  0  0  0  0  0
    2.9551    1.6456   -3.8659 C   0  0  0  0  0  0  0  0  0  0  0  0
    2.5799    2.8816   -4.2597 O   0  0  0  0  0  0  0  0  0  0  0  0
    3.2526    3.9987   -3.7202 C   0  0  0  0  0  0  0  0  0  0  0  0
    4.0234    1.3722   -3.0164 C   0  0  0  0  0  0  0  0  0  0  0  0
    7.0282   -3.5592    2.2877 H   0  0  0  0  0  0  0  0  0  0  0  0
    6.4079   -4.1619    0.7071 H   0  0  0  0  0  0  0  0  0  0  0  0
    5.4257   -4.3854    2.1871 H   0  0  0  0  0  0  0  0  0  0  0  0
    4.1322   -0.5679    2.6578 H   0  0  0  0  0  0  0  0  0  0  0  0
    2.4517   -0.4176    2.0689 H   0  0  0  0  0  0  0  0  0  0  0  0
    5.9746    1.1334    1.4748 H   0  0  0  0  0  0  0  0  0  0  0  0
    5.2830    2.0437    0.1129 H   0  0  0  0  0  0  0  0  0  0  0  0
    3.8155   -2.0442   -2.8897 H   0  0  0  0  0  0  0  0  0  0  0  0
    1.9118   -1.5783   -4.4253 H   0  0  0  0  0  0  0  0  0  0  0  0
   -0.3853    0.4376   -6.3988 H   0  0  0  0  0  0  0  0  0  0  0  0
   -0.1754   -0.6640   -4.9997 H   0  0  0  0  0  0  0  0  0  0  0  0
    0.9366   -0.7739   -6.4070 H   0  0  0  0  0  0  0  0  0  0  0  0
    2.7579    4.8887   -4.1312 H   0  0  0  0  0  0  0  0  0  0  0  0
    4.3187    4.0158   -4.0100 H   0  0  0  0  0  0  0  0  0  0  0  0
    3.1817    4.0204   -2.6178 H   0  0  0  0  0  0  0  0  0  0  0  0
    4.6554    2.1713   -2.6336 H   0  0  0  0  0  0  0  0  0  0  0  0
  1  2  1  0
  1 26  1  0
  1 27  1  0
  1 28  1  0
  2  3  1  0
  3  4  2  0
  3  5  1  0
  5  6  1  6
  5  7  1  0
  5 12  1  0
  7  8  1  0
  7 29  1  0
  7 30  1  0
  8  9  1  1
  8 10  1  0
  8 11  1  0
 11 12  1  0
 11 31  1  0
 11 32  1  0
 12 13  1  0
 13 14  2  0
 13 15  2  0
 13 16  1  6
 16 17  2  0
 16 25  1  0
 17 18  1  0
 17 33  1  0
 18 19  2  0
 18 34  1  0
 19 20  1  0
 19 22  1  0
 20 21  1  0
 21 35  1  0
 21 36  1  0
 21 37  1  0
 22 23  1  0
 22 25  2  0
 23 24  1  0
 24 38  1  0
 24 39  1  0
 24 40  1  0
 25 41  1  0
M  END

