
     RDKit          3D

 41 42  0  0  0  0  0  0  0  0999 V2000
    2.1364    0.2590   -2.8083 N   0  0  0  0  0  0  0  0  0  0  0  0
    3.2079   -0.0890   -2.0273 C   0  0  0  0  0  0  0  0  0  0  0  0
    2.9053   -1.0119   -0.8570 C   0  0  0  0  0  0  0  0  0  0  0  0
    2.2286   -2.2610   -1.2217 N   0  0  0  0  0  0  0  0  0  0  0  0
    0.8617   -2.2226   -1.2996 C   0  0  0  0  0  0  0  0  0  0  0  0
    0.2407   -1.1752   -1.1480 O   0  0  0  0  0  0  0  0  0  0  0  0
    0.1140   -3.5398   -1.5688 C   0  0  0  0  0  0  0  0  0  0  0  0
   -1.3814   -3.3580   -1.6102 C   0  0  0  0  0  0  0  0  0  0  0  0
   -2.1727   -3.6707   -0.4951 C   0  0  0  0  0  0  0  0  0  0  0  0
   -3.5590   -3.5062   -0.5074 C   0  0  0  0  0  0  0  0  0  0  0  0
   -4.1887   -3.0195   -1.6554 C   0  0  0  0  0  0  0  0  0  0  0  0
   -3.4290   -2.7005   -2.7824 C   0  0  0  0  0  0  0  0  0  0  0  0
   -2.0426   -2.8694   -2.7502 C   0  0  0  0  0  0  0  0  0  0  0  0
   -1.1235   -2.4597   -4.1892 Cl  0  0  0  0  0  0  0  0  0  0  0  0
    3.0455   -3.4605   -1.4226 C   0  0  1  0  0  0  0  0  0  0  0  0
    4.2251   -3.3139   -2.4045 C   0  0  0  0  0  0  0  0  0  0  0  0
    5.0260   -4.5931   -2.1365 C   0  0  0  0  0  0  0  0  0  0  0  0
    4.9967   -4.7401   -0.5966 C   0  0  0  0  0  0  0  0  0  0  0  0
    3.6888   -4.0436   -0.1324 C   0  0  0  0  0  0  0  0  0  0  0  0
    4.3755    0.3741   -2.3202 N   0  0  0  0  0  0  0  0  0  0  0  0
    5.3902   -0.1594   -1.4879 O   0  0  0  0  0  0  0  0  0  0  0  0
    1.2130    0.1668   -2.3929 H   0  0  0  0  0  0  0  0  0  0  0  0
    2.2876    0.9856   -3.4978 H   0  0  0  0  0  0  0  0  0  0  0  0
    2.2479   -0.4674   -0.1622 H   0  0  0  0  0  0  0  0  0  0  0  0
    3.8422   -1.2412   -0.3419 H   0  0  0  0  0  0  0  0  0  0  0  0
    0.3758   -4.2707   -0.7875 H   0  0  0  0  0  0  0  0  0  0  0  0
    0.4645   -3.9553   -2.5264 H   0  0  0  0  0  0  0  0  0  0  0  0
   -1.6817   -4.0500    0.4055 H   0  0  0  0  0  0  0  0  0  0  0  0
   -4.1460   -3.7584    0.3789 H   0  0  0  0  0  0  0  0  0  0  0  0
   -5.2732   -2.8869   -1.6792 H   0  0  0  0  0  0  0  0  0  0  0  0
   -3.9006   -2.3198   -3.6897 H   0  0  0  0  0  0  0  0  0  0  0  0
    2.3860   -4.2285   -1.8440 H   0  0  0  0  0  0  0  0  0  0  0  0
    4.8323   -2.4288   -2.1560 H   0  0  0  0  0  0  0  0  0  0  0  0
    3.8885   -3.2069   -3.4474 H   0  0  0  0  0  0  0  0  0  0  0  0
    6.0484   -4.5553   -2.5423 H   0  0  0  0  0  0  0  0  0  0  0  0
    4.5242   -5.4550   -2.6103 H   0  0  0  0  0  0  0  0  0  0  0  0
    5.8698   -4.2341   -0.1551 H   0  0  0  0  0  0  0  0  0  0  0  0
    5.0504   -5.7929   -0.2801 H   0  0  0  0  0  0  0  0  0  0  0  0
    3.9057   -3.2337    0.5807 H   0  0  0  0  0  0  0  0  0  0  0  0
    2.9959   -4.7310    0.3778 H   0  0  0  0  0  0  0  0  0  0  0  0
    6.1817    0.2490   -1.8581 H   0  0  0  0  0  0  0  0  0  0  0  0
  1  2  1  0
  1 22  1  0
  1 23  1  0
  2  3  1  0
  2 20  2  0
  3  4  1  0
  3 24  1  0
  3 25  1  0
  4  5  1  0
  4 15  1  0
  5  6  2  0
  5  7  1  0
  7  8  1  0
  7 26  1  0
  7 27  1  0
  8  9  2  0
  8 13  1  0
  9 10  1  0
  9 28  1  0
 10 11  2  0
 10 29  1  0
 11 12  1  0
 11 30  1  0
 12 13  2  0
 12 31  1  0
 13 14  1  0
 15 16  1  0
 15 19  1  0
 15 32  1  6
 16 17  1  0
 16 33  1  0
 16 34  1  0
 17 18  1  0
 17 35  1  0
 17 36  1  0
 18 19  1  0
 18 37  1  0
 18 38  1  0
 19 39  1  0
 19 40  1  0
 20 21  1  0
 21 41  1  0
M  END

