
     RDKit          3D

 42 42  0  0  0  0  0  0  0  0999 V2000
    7.1903    2.4671   -0.6239 C   0  0  0  0  0  0  0  0  0  0  0  0
    6.4660    1.3305   -1.3210 C   0  0  0  0  0  0  0  0  0  0  0  0
    5.1961    1.1618   -0.7202 O   0  0  0  0  0  0  0  0  0  0  0  0
    4.3486    0.1933   -1.3101 C   0  0  1  0  0  0  0  0  0  0  0  0
    4.5665   -1.1966   -0.7131 C   0  0  0  0  0  0  0  0  0  0  0  0
    4.2709   -1.2529    0.7841 C   0  0  0  0  0  0  0  0  0  0  0  0
    4.5545   -2.5767    1.3009 N   0  0  0  0  0  0  0  0  0  0  0  0
    4.3987   -2.9553    2.5919 C   0  0  0  0  0  0  0  0  0  0  0  0
    3.9281   -2.0367    3.5749 C   0  0  0  0  0  0  0  0  0  0  0  0
    3.7629   -2.4039    4.8978 C   0  0  0  0  0  0  0  0  0  0  0  0
    4.0483   -3.7087    5.3619 C   0  0  0  0  0  0  0  0  0  0  0  0
    3.8571   -4.0780    6.8120 C   0  0  0  0  0  0  0  0  0  0  0  0
    4.5082   -4.6205    4.4231 C   0  0  0  0  0  0  0  0  0  0  0  0
    4.6857   -4.2739    3.0704 C   0  0  0  0  0  0  0  0  0  0  0  0
    5.1739   -5.3204    2.1904 N   0  0  0  0  0  0  0  0  0  0  0  0
    5.3439   -5.0598    0.9907 O   0  0  0  0  0  0  0  0  0  0  0  0
    5.4032   -6.4261    2.6584 O   0  0  0  0  0  0  0  0  0  0  0  0
    3.0276    0.5540   -1.0838 O   0  0  0  0  0  0  0  0  0  0  0  0
    2.6000    1.7514   -1.7176 C   0  0  0  0  0  0  0  0  0  0  0  0
    1.1346    1.9727   -1.3965 C   0  0  0  0  0  0  0  0  0  0  0  0
    8.1827    2.6248   -1.0743 H   0  0  0  0  0  0  0  0  0  0  0  0
    7.3257    2.2436    0.4455 H   0  0  0  0  0  0  0  0  0  0  0  0
    6.6162    3.4029   -0.7075 H   0  0  0  0  0  0  0  0  0  0  0  0
    7.0636    0.3993   -1.2487 H   0  0  0  0  0  0  0  0  0  0  0  0
    6.3483    1.5496   -2.4026 H   0  0  0  0  0  0  0  0  0  0  0  0
    4.5588    0.1663   -2.4049 H   0  0  0  0  0  0  0  0  0  0  0  0
    5.6113   -1.4986   -0.8985 H   0  0  0  0  0  0  0  0  0  0  0  0
    3.9234   -1.9112   -1.2531 H   0  0  0  0  0  0  0  0  0  0  0  0
    3.2151   -0.9789    0.9528 H   0  0  0  0  0  0  0  0  0  0  0  0
    4.8808   -0.4891    1.2990 H   0  0  0  0  0  0  0  0  0  0  0  0
    4.8885   -3.3129    0.6825 H   0  0  0  0  0  0  0  0  0  0  0  0
    3.6921   -1.0174    3.2710 H   0  0  0  0  0  0  0  0  0  0  0  0
    3.3974   -1.6536    5.6059 H   0  0  0  0  0  0  0  0  0  0  0  0
    4.4794   -3.4522    7.4742 H   0  0  0  0  0  0  0  0  0  0  0  0
    4.1251   -5.1285    6.9966 H   0  0  0  0  0  0  0  0  0  0  0  0
    2.8098   -3.9385    7.1303 H   0  0  0  0  0  0  0  0  0  0  0  0
    4.7495   -5.6452    4.7045 H   0  0  0  0  0  0  0  0  0  0  0  0
    2.7525    1.6641   -2.8134 H   0  0  0  0  0  0  0  0  0  0  0  0
    3.2135    2.5997   -1.3677 H   0  0  0  0  0  0  0  0  0  0  0  0
    0.5243    1.1266   -1.7489 H   0  0  0  0  0  0  0  0  0  0  0  0
    0.7700    2.8917   -1.8814 H   0  0  0  0  0  0  0  0  0  0  0  0
    0.9872    2.0722   -0.3100 H   0  0  0  0  0  0  0  0  0  0  0  0
  1  2  1  0
  1 21  1  0
  1 22  1  0
  1 23  1  0
  2  3  1  0
  2 24  1  0
  2 25  1  0
  3  4  1  0
  4  5  1  0
  4 18  1  0
  4 26  1  6
  5  6  1  0
  5 27  1  0
  5 28  1  0
  6  7  1  0
  6 29  1  0
  6 30  1  0
  7  8  1  0
  7 31  1  0
  8  9  2  0
  8 14  1  0
  9 10  1  0
  9 32  1  0
 10 11  2  0
 10 33  1  0
 11 12  1  0
 11 13  1  0
 12 34  1  0
 12 35  1  0
 12 36  1  0
 13 14  2  0
 13 37  1  0
 14 15  1  0
 15 16  2  0
 15 17  1  0
 18 19  1  0
 19 20  1  0
 19 38  1  0
 19 39  1  0
 20 40  1  0
 20 41  1  0
 20 42  1  0
M  CHG  2  15   1  17  -1
M  END

