
     RDKit          3D

166168  0  0  0  0  0  0  0  0999 V2000
   13.2621   -5.1991   -4.4650 C   0  0  0  0  0  0  0  0  0  0  0  0
   11.7538   -4.9656   -4.3441 C   0  0  0  0  0  0  0  0  0  0  0  0
   11.2184   -3.7464   -5.1107 C   0  0  0  0  0  0  0  0  0  0  0  0
   11.7074   -2.3949   -4.5738 C   0  0  0  0  0  0  0  0  0  0  0  0
   11.2156   -1.1716   -5.3621 C   0  0  0  0  0  0  0  0  0  0  0  0
    9.7071   -0.9339   -5.3201 C   0  0  0  0  0  0  0  0  0  0  0  0
    9.2077   -0.7771   -3.9891 O   0  0  0  0  0  0  0  0  0  0  0  0
    9.0905    0.4158   -3.3844 C   0  0  0  0  0  0  0  0  0  0  0  0
    9.6521    1.5995   -3.8659 C   0  0  0  0  0  0  0  0  0  0  0  0
    9.5439    2.8240   -3.1802 C   0  0  0  0  0  0  0  0  0  0  0  0
   10.1260    4.0645   -3.6763 C   0  0  0  0  0  0  0  0  0  0  0  0
   10.7168    4.2421   -4.8859 C   0  0  0  0  0  0  0  0  0  0  0  0
   11.3100    5.4724   -5.3918 C   0  0  0  0  0  0  0  0  0  0  0  0
   11.3799    6.6591   -4.6333 C   0  0  0  0  0  0  0  0  0  0  0  0
   11.9500    7.8347   -5.1202 C   0  0  0  0  0  0  0  0  0  0  0  0
   11.9993    8.9840   -4.4008 O   0  0  0  0  0  0  0  0  0  0  0  0
   11.3966    9.0514   -3.1143 C   0  0  0  0  0  0  0  0  0  0  0  0
   11.4702   10.4848   -2.6108 C   0  0  0  0  0  0  0  0  0  0  0  0
   10.6512   11.4831   -3.4348 C   0  0  0  0  0  0  0  0  0  0  0  0
   10.7364   12.9203   -2.9145 C   0  0  0  0  0  0  0  0  0  0  0  0
    9.9121   13.9221   -3.7290 C   0  0  0  0  0  0  0  0  0  0  0  0
   10.0047   15.3573   -3.2093 C   0  0  0  0  0  0  0  0  0  0  0  0
   12.5060    7.8589   -6.4341 C   0  0  0  0  0  0  0  0  0  0  0  0
   13.1481    9.0054   -7.0630 C   0  0  0  0  0  0  0  0  0  0  0  0
   13.5338   10.1906   -6.5200 C   0  0  0  0  0  0  0  0  0  0  0  0
   14.1794   11.2738   -7.2534 C   0  0  0  0  0  0  0  0  0  0  0  0
   14.1623   11.3644   -8.6585 C   0  0  0  0  0  0  0  0  0  0  0  0
   14.7876   12.4052   -9.3459 C   0  0  0  0  0  0  0  0  0  0  0  0
   14.7816   12.5187  -10.6944 O   0  0  0  0  0  0  0  0  0  0  0  0
   14.1265   11.5502  -11.5034 C   0  0  0  0  0  0  0  0  0  0  0  0
   14.3033   11.9459  -12.9606 C   0  0  0  0  0  0  0  0  0  0  0  0
   13.6316   10.9667  -13.9274 C   0  0  0  0  0  0  0  0  0  0  0  0
   13.8002   11.3529  -15.3999 C   0  0  0  0  0  0  0  0  0  0  0  0
   13.1315   10.3792  -16.3750 C   0  0  0  0  0  0  0  0  0  0  0  0
   13.3036   10.7712  -17.8431 C   0  0  0  0  0  0  0  0  0  0  0  0
   15.4691   13.4291   -8.6175 C   0  0  0  0  0  0  0  0  0  0  0  0
   16.0976   14.4865   -9.3684 C   0  0  0  0  0  0  0  0  0  0  0  0
   16.8136   15.5910   -8.9632 C   0  0  0  0  0  0  0  0  0  0  0  0
   17.1008   15.9432   -7.6042 C   0  0  0  0  0  0  0  0  0  0  0  0
   17.3388   16.2381   -6.5049 N   0  0  0  0  0  0  0  0  0  0  0  0
   17.3323   16.4892   -9.9563 C   0  0  0  0  0  0  0  0  0  0  0  0
   17.7500   17.2129  -10.7638 N   0  0  0  0  0  0  0  0  0  0  0  0
   15.4786   13.3413   -7.2047 C   0  0  0  0  0  0  0  0  0  0  0  0
   14.8546   12.3006   -6.5256 C   0  0  0  0  0  0  0  0  0  0  0  0
   14.8548   12.1835   -5.1750 O   0  0  0  0  0  0  0  0  0  0  0  0
   15.5584   13.1351   -4.3838 C   0  0  0  0  0  0  0  0  0  0  0  0
   15.4334   12.7340   -2.9230 C   0  0  0  0  0  0  0  0  0  0  0  0
   16.1747   13.6875   -1.9815 C   0  0  0  0  0  0  0  0  0  0  0  0
   16.0576   13.2992   -0.5047 C   0  0  0  0  0  0  0  0  0  0  0  0
   16.7981   14.2468    0.4441 C   0  0  0  0  0  0  0  0  0  0  0  0
   16.6771   13.8543    1.9171 C   0  0  0  0  0  0  0  0  0  0  0  0
   12.4209    6.6722   -7.1955 C   0  0  0  0  0  0  0  0  0  0  0  0
   11.8460    5.4986   -6.7085 C   0  0  0  0  0  0  0  0  0  0  0  0
   11.7608    4.3474   -7.4264 O   0  0  0  0  0  0  0  0  0  0  0  0
   12.2759    4.2863   -8.7469 C   0  0  0  0  0  0  0  0  0  0  0  0
   12.0363    2.8870   -9.2922 C   0  0  0  0  0  0  0  0  0  0  0  0
   12.5523    2.7174  -10.7254 C   0  0  0  0  0  0  0  0  0  0  0  0
   12.3878    1.3043  -11.3027 C   0  0  0  0  0  0  0  0  0  0  0  0
   10.9390    0.8554  -11.5276 C   0  0  0  0  0  0  0  0  0  0  0  0
   10.8301   -0.5315  -12.1636 C   0  0  0  0  0  0  0  0  0  0  0  0
    8.8461    2.8316   -1.9342 C   0  0  0  0  0  0  0  0  0  0  0  0
    8.7682    4.0268   -1.2910 O   0  0  0  0  0  0  0  0  0  0  0  0
    8.1108    4.1185   -0.0348 C   0  0  0  0  0  0  0  0  0  0  0  0
    8.1722    5.5629    0.4432 C   0  0  0  0  0  0  0  0  0  0  0  0
    7.4682    6.5874   -0.4580 C   0  0  0  0  0  0  0  0  0  0  0  0
    5.9465    6.4328   -0.5537 C   0  0  0  0  0  0  0  0  0  0  0  0
    5.2755    7.5176   -1.4030 C   0  0  0  0  0  0  0  0  0  0  0  0
    3.7573    7.3643   -1.5037 C   0  0  0  0  0  0  0  0  0  0  0  0
    8.2930    1.6535   -1.4475 C   0  0  0  0  0  0  0  0  0  0  0  0
    8.3678    0.4264   -2.1572 C   0  0  0  0  0  0  0  0  0  0  0  0
    7.7080   -0.7063   -1.5515 C   0  0  0  0  0  0  0  0  0  0  0  0
    7.3423   -1.9719   -1.9571 C   0  0  0  0  0  0  0  0  0  0  0  0
    7.4744   -2.5991   -3.2411 C   0  0  0  0  0  0  0  0  0  0  0  0
    7.4900   -3.2099   -4.2300 N   0  0  0  0  0  0  0  0  0  0  0  0
    6.6690   -2.7992   -0.9895 C   0  0  0  0  0  0  0  0  0  0  0  0
    6.1292   -3.4611   -0.2016 N   0  0  0  0  0  0  0  0  0  0  0  0
   13.5663   -6.1159   -3.9346 H   0  0  0  0  0  0  0  0  0  0  0  0
   13.8490   -4.3689   -4.0395 H   0  0  0  0  0  0  0  0  0  0  0  0
   13.5656   -5.3116   -5.5201 H   0  0  0  0  0  0  0  0  0  0  0  0
   11.4792   -4.8690   -3.2778 H   0  0  0  0  0  0  0  0  0  0  0  0
   11.2234   -5.8632   -4.7062 H   0  0  0  0  0  0  0  0  0  0  0  0
   10.1166   -3.7788   -5.0787 H   0  0  0  0  0  0  0  0  0  0  0  0
   11.4996   -3.8375   -6.1777 H   0  0  0  0  0  0  0  0  0  0  0  0
   12.8102   -2.3711   -4.5731 H   0  0  0  0  0  0  0  0  0  0  0  0
   11.4008   -2.2896   -3.5181 H   0  0  0  0  0  0  0  0  0  0  0  0
   11.4934   -1.2781   -6.4269 H   0  0  0  0  0  0  0  0  0  0  0  0
   11.7391   -0.2706   -4.9989 H   0  0  0  0  0  0  0  0  0  0  0  0
    9.1582   -1.8030   -5.7106 H   0  0  0  0  0  0  0  0  0  0  0  0
    9.4233   -0.0602   -5.9301 H   0  0  0  0  0  0  0  0  0  0  0  0
   10.2204    1.5752   -4.7932 H   0  0  0  0  0  0  0  0  0  0  0  0
   10.0501    4.9036   -2.9837 H   0  0  0  0  0  0  0  0  0  0  0  0
   10.7659    3.4060   -5.5854 H   0  0  0  0  0  0  0  0  0  0  0  0
   10.9711    6.6444   -3.6256 H   0  0  0  0  0  0  0  0  0  0  0  0
   11.9217    8.3676   -2.4217 H   0  0  0  0  0  0  0  0  0  0  0  0
   10.3428    8.7207   -3.1784 H   0  0  0  0  0  0  0  0  0  0  0  0
   12.5291   10.7951   -2.5813 H   0  0  0  0  0  0  0  0  0  0  0  0
   11.1183   10.4843   -1.5637 H   0  0  0  0  0  0  0  0  0  0  0  0
    9.5932   11.1601   -3.4469 H   0  0  0  0  0  0  0  0  0  0  0  0
   10.9906   11.4492   -4.4837 H   0  0  0  0  0  0  0  0  0  0  0  0
   11.7948   13.2417   -2.9071 H   0  0  0  0  0  0  0  0  0  0  0  0
   10.4073   12.9504   -1.8585 H   0  0  0  0  0  0  0  0  0  0  0  0
    8.8548   13.5996   -3.7363 H   0  0  0  0  0  0  0  0  0  0  0  0
   10.2421   13.8883   -4.7832 H   0  0  0  0  0  0  0  0  0  0  0  0
    9.6468   15.4315   -2.1685 H   0  0  0  0  0  0  0  0  0  0  0  0
    9.4003   16.0483   -3.8182 H   0  0  0  0  0  0  0  0  0  0  0  0
   11.0449   15.7239   -3.2258 H   0  0  0  0  0  0  0  0  0  0  0  0
   13.3770    8.8340   -8.1208 H   0  0  0  0  0  0  0  0  0  0  0  0
   13.3972   10.3573   -5.4550 H   0  0  0  0  0  0  0  0  0  0  0  0
   13.6181   10.6053   -9.2164 H   0  0  0  0  0  0  0  0  0  0  0  0
   13.0533   11.5046  -11.2388 H   0  0  0  0  0  0  0  0  0  0  0  0
   14.5595   10.5497  -11.3147 H   0  0  0  0  0  0  0  0  0  0  0  0
   15.3830   12.0140  -13.1782 H   0  0  0  0  0  0  0  0  0  0  0  0
   13.8924   12.9603  -13.1016 H   0  0  0  0  0  0  0  0  0  0  0  0
   12.5533   10.8961  -13.6916 H   0  0  0  0  0  0  0  0  0  0  0  0
   14.0415    9.9517  -13.7689 H   0  0  0  0  0  0  0  0  0  0  0  0
   14.8780   11.4246  -15.6363 H   0  0  0  0  0  0  0  0  0  0  0  0
   13.3913   12.3679  -15.5590 H   0  0  0  0  0  0  0  0  0  0  0  0
   12.0546   10.3085  -16.1355 H   0  0  0  0  0  0  0  0  0  0  0  0
   13.5411    9.3652  -16.2131 H   0  0  0  0  0  0  0  0  0  0  0  0
   12.8703   11.7648  -18.0463 H   0  0  0  0  0  0  0  0  0  0  0  0
   12.8111   10.0503  -18.5148 H   0  0  0  0  0  0  0  0  0  0  0  0
   14.3692   10.8138  -18.1245 H   0  0  0  0  0  0  0  0  0  0  0  0
   15.9862   14.3932  -10.4498 H   0  0  0  0  0  0  0  0  0  0  0  0
   15.9927   14.1116   -6.6387 H   0  0  0  0  0  0  0  0  0  0  0  0
   15.1432   14.1467   -4.5491 H   0  0  0  0  0  0  0  0  0  0  0  0
   16.6206   13.1647   -4.6896 H   0  0  0  0  0  0  0  0  0  0  0  0
   15.8199   11.7067   -2.8064 H   0  0  0  0  0  0  0  0  0  0  0  0
   14.3625   12.6965   -2.6575 H   0  0  0  0  0  0  0  0  0  0  0  0
   15.7910   14.7150   -2.1199 H   0  0  0  0  0  0  0  0  0  0  0  0
   17.2427   13.7272   -2.2641 H   0  0  0  0  0  0  0  0  0  0  0  0
   16.4411   12.2710   -0.3663 H   0  0  0  0  0  0  0  0  0  0  0  0
   14.9892   13.2605   -0.2210 H   0  0  0  0  0  0  0  0  0  0  0  0
   16.4148   15.2737    0.3026 H   0  0  0  0  0  0  0  0  0  0  0  0
   17.8650   14.2848    0.1583 H   0  0  0  0  0  0  0  0  0  0  0  0
   15.6238   13.8445    2.2448 H   0  0  0  0  0  0  0  0  0  0  0  0
   17.2208   14.5565    2.5690 H   0  0  0  0  0  0  0  0  0  0  0  0
   17.0871   12.8466    2.0990 H   0  0  0  0  0  0  0  0  0  0  0  0
   12.8371    6.6940   -8.2022 H   0  0  0  0  0  0  0  0  0  0  0  0
   13.3573    4.5228   -8.7429 H   0  0  0  0  0  0  0  0  0  0  0  0
   11.7749    5.0404   -9.3839 H   0  0  0  0  0  0  0  0  0  0  0  0
   10.9554    2.6774   -9.2379 H   0  0  0  0  0  0  0  0  0  0  0  0
   12.5316    2.1600   -8.6249 H   0  0  0  0  0  0  0  0  0  0  0  0
   13.6234    2.9873  -10.7535 H   0  0  0  0  0  0  0  0  0  0  0  0
   12.0416    3.4411  -11.3879 H   0  0  0  0  0  0  0  0  0  0  0  0
   12.8965    0.5791  -10.6403 H   0  0  0  0  0  0  0  0  0  0  0  0
   12.9254    1.2556  -12.2665 H   0  0  0  0  0  0  0  0  0  0  0  0
   10.4273    1.5969  -12.1686 H   0  0  0  0  0  0  0  0  0  0  0  0
   10.3906    0.8580  -10.5692 H   0  0  0  0  0  0  0  0  0  0  0  0
   11.3298   -0.5627  -13.1463 H   0  0  0  0  0  0  0  0  0  0  0  0
    9.7795   -0.8259  -12.3150 H   0  0  0  0  0  0  0  0  0  0  0  0
   11.3027   -1.3011  -11.5305 H   0  0  0  0  0  0  0  0  0  0  0  0
    8.6081    3.4548    0.6972 H   0  0  0  0  0  0  0  0  0  0  0  0
    7.0641    3.7763   -0.1343 H   0  0  0  0  0  0  0  0  0  0  0  0
    9.2341    5.8398    0.5562 H   0  0  0  0  0  0  0  0  0  0  0  0
    7.7343    5.5918    1.4567 H   0  0  0  0  0  0  0  0  0  0  0  0
    7.9057    6.5380   -1.4703 H   0  0  0  0  0  0  0  0  0  0  0  0
    7.6997    7.5971   -0.0751 H   0  0  0  0  0  0  0  0  0  0  0  0
    5.5119    6.4461    0.4638 H   0  0  0  0  0  0  0  0  0  0  0  0
    5.6921    5.4442   -0.9774 H   0  0  0  0  0  0  0  0  0  0  0  0
    5.7160    7.5063   -2.4165 H   0  0  0  0  0  0  0  0  0  0  0  0
    5.5195    8.5099   -0.9814 H   0  0  0  0  0  0  0  0  0  0  0  0
    3.4807    6.3980   -1.9578 H   0  0  0  0  0  0  0  0  0  0  0  0
    3.3104    8.1605   -2.1201 H   0  0  0  0  0  0  0  0  0  0  0  0
    3.2826    7.4082   -0.5091 H   0  0  0  0  0  0  0  0  0  0  0  0
    7.7566    1.6548   -0.4994 H   0  0  0  0  0  0  0  0  0  0  0  0
    7.3914   -0.5012   -0.5241 H   0  0  0  0  0  0  0  0  0  0  0  0
  1  2  1  0
  1 77  1  0
  1 78  1  0
  1 79  1  0
  2  3  1  0
  2 80  1  0
  2 81  1  0
  3  4  1  0
  3 82  1  0
  3 83  1  0
  4  5  1  0
  4 84  1  0
  4 85  1  0
  5  6  1  0
  5 86  1  0
  5 87  1  0
  6  7  1  0
  6 88  1  0
  6 89  1  0
  7  8  1  0
  8  9  2  0
  8 70  1  0
  9 10  1  0
  9 90  1  0
 10 11  1  0
 10 61  2  0
 11 12  2  0
 11 91  1  0
 12 13  1  0
 12 92  1  0
 13 14  2  0
 13 53  1  0
 14 15  1  0
 14 93  1  0
 15 16  1  0
 15 23  2  0
 16 17  1  0
 17 18  1  0
 17 94  1  0
 17 95  1  0
 18 19  1  0
 18 96  1  0
 18 97  1  0
 19 20  1  0
 19 98  1  0
 19 99  1  0
 20 21  1  0
 20100  1  0
 20101  1  0
 21 22  1  0
 21102  1  0
 21103  1  0
 22104  1  0
 22105  1  0
 22106  1  0
 23 24  1  0
 23 52  1  0
 24 25  2  0
 24107  1  0
 25 26  1  0
 25108  1  0
 26 27  2  0
 26 44  1  0
 27 28  1  0
 27109  1  0
 28 29  1  0
 28 36  2  0
 29 30  1  0
 30 31  1  0
 30110  1  0
 30111  1  0
 31 32  1  0
 31112  1  0
 31113  1  0
 32 33  1  0
 32114  1  0
 32115  1  0
 33 34  1  0
 33116  1  0
 33117  1  0
 34 35  1  0
 34118  1  0
 34119  1  0
 35120  1  0
 35121  1  0
 35122  1  0
 36 37  1  0
 36 43  1  0
 37 38  2  0
 37123  1  0
 38 39  1  0
 38 41  1  0
 39 40  3  0
 41 42  3  0
 43 44  2  0
 43124  1  0
 44 45  1  0
 45 46  1  0
 46 47  1  0
 46125  1  0
 46126  1  0
 47 48  1  0
 47127  1  0
 47128  1  0
 48 49  1  0
 48129  1  0
 48130  1  0
 49 50  1  0
 49131  1  0
 49132  1  0
 50 51  1  0
 50133  1  0
 50134  1  0
 51135  1  0
 51136  1  0
 51137  1  0
 52 53  2  0
 52138  1  0
 53 54  1  0
 54 55  1  0
 55 56  1  0
 55139  1  0
 55140  1  0
 56 57  1  0
 56141  1  0
 56142  1  0
 57 58  1  0
 57143  1  0
 57144  1  0
 58 59  1  0
 58145  1  0
 58146  1  0
 59 60  1  0
 59147  1  0
 59148  1  0
 60149  1  0
 60150  1  0
 60151  1  0
 61 62  1  0
 61 69  1  0
 62 63  1  0
 63 64  1  0
 63152  1  0
 63153  1  0
 64 65  1  0
 64154  1  0
 64155  1  0
 65 66  1  0
 65156  1  0
 65157  1  0
 66 67  1  0
 66158  1  0
 66159  1  0
 67 68  1  0
 67160  1  0
 67161  1  0
 68162  1  0
 68163  1  0
 68164  1  0
 69 70  2  0
 69165  1  0
 70 71  1  0
 71 72  2  0
 71166  1  0
 72 73  1  0
 72 75  1  0
 73 74  3  0
 75 76  3  0
M  END

