
     RDKit          3D

 38 39  0  0  0  0  0  0  0  0999 V2000
    1.6957    0.8292   -3.8724 O   0  0  0  0  0  0  0  0  0  0  0  0
    2.2927    0.0907   -3.2123 C   0  0  0  0  0  0  0  0  0  0  0  0
    2.8866   -0.8006   -2.6084 N   0  0  0  0  0  0  0  0  0  0  0  0
    3.5372   -0.7191   -1.0514 S   0  0  1  0  0  0  0  0  0  0  0  0
    3.0559    0.4770   -0.3844 O   0  0  0  0  0  0  0  0  0  0  0  0
    3.3360   -2.0340   -0.4741 O   0  0  0  0  0  0  0  0  0  0  0  0
    5.2369   -0.6089   -1.3725 N   0  0  0  0  0  0  0  0  0  0  0  0
    6.0781   -1.5247   -0.4991 C   0  0  1  0  0  0  0  0  0  0  0  0
    7.4806   -1.8726   -1.0451 C   0  0  0  0  0  0  0  0  0  0  0  0
    8.6286   -0.9390   -0.6339 C   0  0  0  0  0  0  0  0  0  0  0  0
    8.6252   -0.6142    0.8585 C   0  0  2  0  0  0  0  0  0  0  0  0
    9.1257   -2.1022    1.8262 Cl  0  0  0  0  0  0  0  0  0  0  0  0
    7.2596   -0.1161    1.3268 C   0  0  0  0  0  0  0  0  0  0  0  0
    6.1348   -1.0962    0.9818 C   0  0  0  0  0  0  0  0  0  0  0  0
    5.7958    0.7784   -2.2252 S   0  0  1  0  0  0  0  0  0  0  0  0
    4.5922    1.4700   -2.6851 O   0  0  0  0  0  0  0  0  0  0  0  0
    6.7897    1.4974   -1.4298 O   0  0  0  0  0  0  0  0  0  0  0  0
    6.6244    0.0923   -3.6639 C   0  0  0  0  0  0  0  0  0  0  0  0
    7.8508    0.6467   -4.0401 C   0  0  0  0  0  0  0  0  0  0  0  0
    8.4619    0.1965   -5.2143 C   0  0  0  0  0  0  0  0  0  0  0  0
    7.8480   -0.7884   -5.9927 C   0  0  0  0  0  0  0  0  0  0  0  0
    6.6152   -1.3280   -5.6052 C   0  0  0  0  0  0  0  0  0  0  0  0
    5.9901   -0.8855   -4.4385 C   0  0  0  0  0  0  0  0  0  0  0  0
    5.4997   -2.4535   -0.5478 H   0  0  0  0  0  0  0  0  0  0  0  0
    7.4541   -2.0057   -2.1361 H   0  0  0  0  0  0  0  0  0  0  0  0
    7.7004   -2.8669   -0.6237 H   0  0  0  0  0  0  0  0  0  0  0  0
    8.5597    0.0224   -1.1617 H   0  0  0  0  0  0  0  0  0  0  0  0
    9.5889   -1.3985   -0.9146 H   0  0  0  0  0  0  0  0  0  0  0  0
    9.4066    0.1207    1.0911 H   0  0  0  0  0  0  0  0  0  0  0  0
    7.0828    0.8531    0.8328 H   0  0  0  0  0  0  0  0  0  0  0  0
    7.2779    0.0657    2.4122 H   0  0  0  0  0  0  0  0  0  0  0  0
    5.1617   -0.6910    1.2961 H   0  0  0  0  0  0  0  0  0  0  0  0
    6.2860   -2.0191    1.5654 H   0  0  0  0  0  0  0  0  0  0  0  0
    8.3134    1.4171   -3.4216 H   0  0  0  0  0  0  0  0  0  0  0  0
    9.4217    0.6198   -5.5193 H   0  0  0  0  0  0  0  0  0  0  0  0
    8.3311   -1.1390   -6.9079 H   0  0  0  0  0  0  0  0  0  0  0  0
    6.1367   -2.0976   -6.2153 H   0  0  0  0  0  0  0  0  0  0  0  0
    5.0317   -1.3043   -4.1263 H   0  0  0  0  0  0  0  0  0  0  0  0
  1  2  2  0
  2  3  2  0
  4  3  1  6
  4  5  2  0
  4  6  2  0
  4  7  1  0
  7  8  1  0
 15  7  1  1
  8  9  1  0
  8 14  1  0
  8 24  1  1
  9 10  1  0
  9 25  1  0
  9 26  1  0
 10 11  1  0
 10 27  1  0
 10 28  1  0
 11 12  1  0
 11 13  1  0
 11 29  1  6
 13 14  1  0
 13 30  1  0
 13 31  1  0
 14 32  1  0
 14 33  1  0
 15 16  2  0
 15 17  2  0
 15 18  1  0
 18 19  2  0
 18 23  1  0
 19 20  1  0
 19 34  1  0
 20 21  2  0
 20 35  1  0
 21 22  1  0
 21 36  1  0
 22 23  2  0
 22 37  1  0
 23 38  1  0
M  END

