
     RDKit          3D

 50 52  0  0  0  0  0  0  0  0999 V2000
    2.3026   -2.2873   -5.0837 C   0  0  0  0  0  0  0  0  0  0  0  0
    2.8817   -2.6600   -3.8506 O   0  0  0  0  0  0  0  0  0  0  0  0
    3.8935   -3.5550   -3.8306 C   0  0  0  0  0  0  0  0  0  0  0  0
    4.4162   -3.8695   -2.5611 C   0  0  0  0  0  0  0  0  0  0  0  0
    5.4600   -4.7779   -2.4369 C   0  0  0  0  0  0  0  0  0  0  0  0
    6.0023   -5.4015   -3.5758 C   0  0  0  0  0  0  0  0  0  0  0  0
    7.3969   -6.5095   -3.4250 S   0  0  0  0  0  0  0  0  0  0  0  0
    6.6645   -8.1157   -3.2026 C   0  0  0  0  0  0  0  0  0  0  0  0
    7.5625   -9.1933   -3.0543 C   0  0  0  0  0  0  0  0  0  0  0  0
    7.0879  -10.4883   -2.8779 C   0  0  0  0  0  0  0  0  0  0  0  0
    5.7050  -10.7087   -2.8452 C   0  0  0  0  0  0  0  0  0  0  0  0
    5.0917  -12.3624   -2.6120 S   0  0  1  0  0  0  0  0  0  0  0  0
    3.6877  -12.4364   -3.0308 O   0  0  0  0  0  0  0  0  0  0  0  0
    6.0698  -13.3308   -3.0922 O   0  0  0  0  0  0  0  0  0  0  0  0
    5.1648  -12.4142   -0.8442 N   0  0  0  0  0  0  0  0  0  0  0  0
    4.4107  -13.5562   -0.4556 O   0  0  0  0  0  0  0  0  0  0  0  0
    3.1627  -13.2724    0.0200 C   0  0  0  0  0  0  0  0  0  0  0  0
    2.7916  -12.1407    0.2070 O   0  0  0  0  0  0  0  0  0  0  0  0
    2.3197  -14.5386    0.2280 C   0  0  1  0  0  0  0  0  0  0  0  0
    3.1078  -15.7301    0.8023 C   0  0  0  0  0  0  0  0  0  0  0  0
    3.3935  -15.5481    2.2973 C   0  0  0  0  0  0  0  0  0  0  0  0
    2.0995  -15.2417    3.0608 C   0  0  0  0  0  0  0  0  0  0  0  0
    1.3805  -14.0435    2.4387 C   0  0  0  0  0  0  0  0  0  0  0  0
    1.1300  -14.2844    1.0166 N   0  0  0  0  0  0  0  0  0  0  0  0
    4.7992   -9.6538   -2.9953 C   0  0  0  0  0  0  0  0  0  0  0  0
    5.2802   -8.3574   -3.1745 C   0  0  0  0  0  0  0  0  0  0  0  0
    5.4870   -5.0806   -4.8372 C   0  0  0  0  0  0  0  0  0  0  0  0
    4.4371   -4.1670   -4.9726 C   0  0  0  0  0  0  0  0  0  0  0  0
    1.5129   -1.5613   -4.8497 H   0  0  0  0  0  0  0  0  0  0  0  0
    1.8521   -3.1522   -5.6023 H   0  0  0  0  0  0  0  0  0  0  0  0
    3.0395   -1.8115   -5.7548 H   0  0  0  0  0  0  0  0  0  0  0  0
    3.9843   -3.3784   -1.6870 H   0  0  0  0  0  0  0  0  0  0  0  0
    5.8654   -5.0118   -1.4501 H   0  0  0  0  0  0  0  0  0  0  0  0
    8.6397   -9.0104   -3.0830 H   0  0  0  0  0  0  0  0  0  0  0  0
    7.7748  -11.3305   -2.7762 H   0  0  0  0  0  0  0  0  0  0  0  0
    4.6049  -11.6105   -0.5105 H   0  0  0  0  0  0  0  0  0  0  0  0
    2.0089  -14.8006   -0.8013 H   0  0  0  0  0  0  0  0  0  0  0  0
    4.0358  -15.8755    0.2316 H   0  0  0  0  0  0  0  0  0  0  0  0
    2.4844  -16.6269    0.6547 H   0  0  0  0  0  0  0  0  0  0  0  0
    4.1114  -14.7190    2.4390 H   0  0  0  0  0  0  0  0  0  0  0  0
    3.8820  -16.4507    2.6998 H   0  0  0  0  0  0  0  0  0  0  0  0
    2.3105  -15.0390    4.1239 H   0  0  0  0  0  0  0  0  0  0  0  0
    1.4320  -16.1202    3.0212 H   0  0  0  0  0  0  0  0  0  0  0  0
    1.9842  -13.1269    2.6162 H   0  0  0  0  0  0  0  0  0  0  0  0
    0.4085  -13.8828    2.9325 H   0  0  0  0  0  0  0  0  0  0  0  0
    0.6034  -13.5118    0.6143 H   0  0  0  0  0  0  0  0  0  0  0  0
    3.7262   -9.8557   -2.9836 H   0  0  0  0  0  0  0  0  0  0  0  0
    4.5772   -7.5327   -3.2970 H   0  0  0  0  0  0  0  0  0  0  0  0
    5.9112   -5.5504   -5.7274 H   0  0  0  0  0  0  0  0  0  0  0  0
    4.0571   -3.9388   -5.9684 H   0  0  0  0  0  0  0  0  0  0  0  0
  1  2  1  0
  1 29  1  0
  1 30  1  0
  1 31  1  0
  2  3  1  0
  3  4  2  0
  3 28  1  0
  4  5  1  0
  4 32  1  0
  5  6  2  0
  5 33  1  0
  6  7  1  0
  6 27  1  0
  7  8  1  0
  8  9  2  0
  8 26  1  0
  9 10  1  0
  9 34  1  0
 10 11  2  0
 10 35  1  0
 11 12  1  0
 11 25  1  0
 12 13  2  0
 12 14  2  0
 12 15  1  1
 15 16  1  0
 15 36  1  0
 16 17  1  0
 17 18  2  0
 17 19  1  0
 19 20  1  0
 19 24  1  0
 19 37  1  6
 20 21  1  0
 20 38  1  0
 20 39  1  0
 21 22  1  0
 21 40  1  0
 21 41  1  0
 22 23  1  0
 22 42  1  0
 22 43  1  0
 23 24  1  0
 23 44  1  0
 23 45  1  0
 24 46  1  0
 25 26  2  0
 25 47  1  0
 26 48  1  0
 27 28  2  0
 27 49  1  0
 28 50  1  0
M  END

