
     RDKit          3D

 43 45  0  0  0  0  0  0  0  0999 V2000
    1.8196    0.9439    0.4841 O   0  0  0  0  0  0  0  0  0  0  0  0
    2.4087    0.0414   -0.0957 C   0  0  0  0  0  0  0  0  0  0  0  0
    2.2902   -1.2787    0.2011 N   0  0  0  0  0  0  0  0  0  0  0  0
    1.4369   -1.7880    1.2648 C   0  0  1  0  0  0  0  0  0  0  0  0
    0.3185   -2.6967    0.7136 C   0  0  0  0  0  0  0  0  0  0  0  0
    0.8531   -4.0426    0.2037 C   0  0  0  0  0  0  0  0  0  0  0  0
    1.6697   -4.7697    1.2818 C   0  0  0  0  0  0  0  0  0  0  0  0
    2.7939   -3.8815    1.8337 C   0  0  0  0  0  0  0  0  0  0  0  0
    2.2534   -2.5362    2.3388 C   0  0  0  0  0  0  0  0  0  0  0  0
    3.3610    0.3252   -1.2438 C   0  0  0  0  0  0  0  0  0  0  0  0
    3.5473    1.6469   -1.6469 C   0  0  0  0  0  0  0  0  0  0  0  0
    4.4331    1.8758   -2.7069 C   0  0  0  0  0  0  0  0  0  0  0  0
    5.0835    0.8096   -3.3125 C   0  0  0  0  0  0  0  0  0  0  0  0
    4.8250   -0.5057   -2.8352 C   0  0  0  0  0  0  0  0  0  0  0  0
    5.4285   -1.6030   -3.3859 N   0  0  0  0  0  0  0  0  0  0  0  0
    5.2490   -2.9554   -2.8596 C   0  0  0  0  0  0  0  0  0  0  0  0
    6.3471   -3.7590   -3.5681 C   0  0  0  0  0  0  0  0  0  0  0  0
    6.5014   -3.0353   -4.9131 C   0  0  0  0  0  0  0  0  0  0  0  0
    6.3195   -1.5571   -4.5396 C   0  0  0  0  0  0  0  0  0  0  0  0
    3.9750   -0.7186   -1.8163 N   0  0  0  0  0  0  0  0  0  0  0  0
    2.8473   -1.8987   -0.3801 H   0  0  0  0  0  0  0  0  0  0  0  0
    0.9846   -0.8918    1.7133 H   0  0  0  0  0  0  0  0  0  0  0  0
   -0.2271   -2.1641   -0.0819 H   0  0  0  0  0  0  0  0  0  0  0  0
   -0.4056   -2.8809    1.5275 H   0  0  0  0  0  0  0  0  0  0  0  0
    1.4875   -3.8748   -0.6869 H   0  0  0  0  0  0  0  0  0  0  0  0
    0.0176   -4.6762   -0.1382 H   0  0  0  0  0  0  0  0  0  0  0  0
    2.0837   -5.7109    0.8819 H   0  0  0  0  0  0  0  0  0  0  0  0
    0.9967   -5.0555    2.1116 H   0  0  0  0  0  0  0  0  0  0  0  0
    3.5444   -3.7042    1.0405 H   0  0  0  0  0  0  0  0  0  0  0  0
    3.3318   -4.4013    2.6443 H   0  0  0  0  0  0  0  0  0  0  0  0
    3.0740   -1.8905    2.6911 H   0  0  0  0  0  0  0  0  0  0  0  0
    1.5944   -2.7155    3.2073 H   0  0  0  0  0  0  0  0  0  0  0  0
    3.0099    2.4433   -1.1331 H   0  0  0  0  0  0  0  0  0  0  0  0
    4.6204    2.8936   -3.0601 H   0  0  0  0  0  0  0  0  0  0  0  0
    5.7833    0.9807   -4.1302 H   0  0  0  0  0  0  0  0  0  0  0  0
    4.2390   -3.3426   -3.0956 H   0  0  0  0  0  0  0  0  0  0  0  0
    5.3444   -2.9646   -1.7628 H   0  0  0  0  0  0  0  0  0  0  0  0
    6.0913   -4.8238   -3.6730 H   0  0  0  0  0  0  0  0  0  0  0  0
    7.2875   -3.6974   -2.9950 H   0  0  0  0  0  0  0  0  0  0  0  0
    5.7010   -3.3471   -5.6046 H   0  0  0  0  0  0  0  0  0  0  0  0
    7.4636   -3.2293   -5.4098 H   0  0  0  0  0  0  0  0  0  0  0  0
    5.8810   -0.9708   -5.3656 H   0  0  0  0  0  0  0  0  0  0  0  0
    7.2880   -1.0822   -4.2833 H   0  0  0  0  0  0  0  0  0  0  0  0
  1  2  2  0
  2  3  1  0
  2 10  1  0
  3  4  1  0
  3 21  1  0
  4  5  1  0
  4  9  1  0
  4 22  1  1
  5  6  1  0
  5 23  1  0
  5 24  1  0
  6  7  1  0
  6 25  1  0
  6 26  1  0
  7  8  1  0
  7 27  1  0
  7 28  1  0
  8  9  1  0
  8 29  1  0
  8 30  1  0
  9 31  1  0
  9 32  1  0
 10 11  2  0
 10 20  1  0
 11 12  1  0
 11 33  1  0
 12 13  2  0
 12 34  1  0
 13 14  1  0
 13 35  1  0
 14 15  1  0
 14 20  2  0
 15 16  1  0
 15 19  1  0
 16 17  1  0
 16 36  1  0
 16 37  1  0
 17 18  1  0
 17 38  1  0
 17 39  1  0
 18 19  1  0
 18 40  1  0
 18 41  1  0
 19 42  1  0
 19 43  1  0
M  END

