
     RDKit          3D

 57 59  0  0  0  0  0  0  0  0999 V2000
    4.7568    0.0936    1.6549 C   0  0  0  0  0  0  0  0  0  0  0  0
    5.1730   -1.3558    1.5755 C   0  0  0  0  0  0  0  0  0  0  0  0
    6.0150   -1.9286    2.5400 C   0  0  0  0  0  0  0  0  0  0  0  0
    6.3993   -3.2706    2.4529 C   0  0  0  0  0  0  0  0  0  0  0  0
    5.9514   -4.0640    1.3974 C   0  0  0  0  0  0  0  0  0  0  0  0
    5.0874   -3.5203    0.4348 C   0  0  0  0  0  0  0  0  0  0  0  0
    4.6945   -4.3689   -0.7481 C   0  0  0  0  0  0  0  0  0  0  0  0
    5.5569   -4.9529   -1.3975 O   0  0  0  0  0  0  0  0  0  0  0  0
    3.3672   -4.4296   -1.1048 N   0  0  0  0  0  0  0  0  0  0  0  0
    2.2424   -4.1971   -0.1909 C   0  0  0  0  0  0  0  0  0  0  0  0
    1.7391   -5.4639    0.5139 C   0  0  0  0  0  0  0  0  0  0  0  0
    1.4694   -6.6712   -0.3989 C   0  0  0  0  0  0  0  0  0  0  0  0
    2.6759   -7.2311   -1.0032 N   0  0  0  0  0  0  0  0  0  0  0  0
    3.3936   -8.1352   -0.2271 C   0  0  0  0  0  0  0  0  0  0  0  0
    3.0849   -8.3677    0.9377 O   0  0  0  0  0  0  0  0  0  0  0  0
    4.4669   -8.7491   -0.8296 N   0  0  0  0  0  0  0  0  0  0  0  0
    5.3266   -9.6724   -0.0867 C   0  0  1  0  0  0  0  0  0  0  0  0
    6.1565  -10.5144   -1.0669 C   0  0  0  0  0  0  0  0  0  0  0  0
    7.2362   -9.7017   -1.8009 C   0  0  0  0  0  0  0  0  0  0  0  0
    8.1437   -8.9171   -0.8378 C   0  0  2  0  0  0  0  0  0  0  0  0
    9.1324   -9.8459   -0.1216 C   0  0  0  0  0  0  0  0  0  0  0  0
    9.2195  -11.0306   -0.3050 O   0  0  0  0  0  0  0  0  0  0  0  0
    9.9666   -9.2390    0.7563 O   0  0  0  0  0  0  0  0  0  0  0  0
    7.2963   -8.0705    0.1433 C   0  0  0  0  0  0  0  0  0  0  0  0
    6.2550   -8.9160    0.8851 C   0  0  0  0  0  0  0  0  0  0  0  0
    3.1683   -6.6760   -2.2531 C   0  0  0  0  0  0  0  0  0  0  0  0
    3.0453   -5.1400   -2.3379 C   0  0  0  0  0  0  0  0  0  0  0  0
    4.7132   -2.1726    0.5299 C   0  0  0  0  0  0  0  0  0  0  0  0
    5.3411    0.6413    2.4088 H   0  0  0  0  0  0  0  0  0  0  0  0
    3.6915    0.1891    1.9270 H   0  0  0  0  0  0  0  0  0  0  0  0
    4.8886    0.6036    0.6871 H   0  0  0  0  0  0  0  0  0  0  0  0
    6.3818   -1.3132    3.3664 H   0  0  0  0  0  0  0  0  0  0  0  0
    7.0611   -3.6958    3.2119 H   0  0  0  0  0  0  0  0  0  0  0  0
    6.2663   -5.1054    1.3081 H   0  0  0  0  0  0  0  0  0  0  0  0
    1.4275   -3.7428   -0.7817 H   0  0  0  0  0  0  0  0  0  0  0  0
    2.5361   -3.4565    0.5620 H   0  0  0  0  0  0  0  0  0  0  0  0
    0.8091   -5.2065    1.0515 H   0  0  0  0  0  0  0  0  0  0  0  0
    2.4655   -5.7863    1.2763 H   0  0  0  0  0  0  0  0  0  0  0  0
    0.7635   -6.4094   -1.2065 H   0  0  0  0  0  0  0  0  0  0  0  0
    1.0012   -7.4613    0.2027 H   0  0  0  0  0  0  0  0  0  0  0  0
    4.5418   -8.7424   -1.8369 H   0  0  0  0  0  0  0  0  0  0  0  0
    4.6767  -10.3338    0.5090 H   0  0  0  0  0  0  0  0  0  0  0  0
    5.4901  -11.0077   -1.7957 H   0  0  0  0  0  0  0  0  0  0  0  0
    6.6489  -11.3181   -0.4996 H   0  0  0  0  0  0  0  0  0  0  0  0
    6.7717   -8.9775   -2.4926 H   0  0  0  0  0  0  0  0  0  0  0  0
    7.8482  -10.3776   -2.4161 H   0  0  0  0  0  0  0  0  0  0  0  0
    8.7734   -8.2265   -1.4302 H   0  0  0  0  0  0  0  0  0  0  0  0
    9.7802   -8.2901    0.7955 H   0  0  0  0  0  0  0  0  0  0  0  0
    6.7909   -7.2783   -0.4330 H   0  0  0  0  0  0  0  0  0  0  0  0
    7.9365   -7.5394    0.8706 H   0  0  0  0  0  0  0  0  0  0  0  0
    5.6397   -8.2875    1.5459 H   0  0  0  0  0  0  0  0  0  0  0  0
    6.7559   -9.6578    1.5325 H   0  0  0  0  0  0  0  0  0  0  0  0
    2.6475   -7.1070   -3.1326 H   0  0  0  0  0  0  0  0  0  0  0  0
    4.2352   -6.9089   -2.3388 H   0  0  0  0  0  0  0  0  0  0  0  0
    2.0236   -4.8477   -2.6222 H   0  0  0  0  0  0  0  0  0  0  0  0
    3.7218   -4.7973   -3.1353 H   0  0  0  0  0  0  0  0  0  0  0  0
    4.0665   -1.7409   -0.2399 H   0  0  0  0  0  0  0  0  0  0  0  0
  1  2  1  0
  1 29  1  0
  1 30  1  0
  1 31  1  0
  2  3  2  0
  2 28  1  0
  3  4  1  0
  3 32  1  0
  4  5  2  0
  4 33  1  0
  5  6  1  0
  5 34  1  0
  6  7  1  0
  6 28  2  0
  7  8  2  0
  7  9  1  0
  9 10  1  0
  9 27  1  0
 10 11  1  0
 10 35  1  0
 10 36  1  0
 11 12  1  0
 11 37  1  0
 11 38  1  0
 12 13  1  0
 12 39  1  0
 12 40  1  0
 13 14  1  0
 13 26  1  0
 14 15  2  0
 14 16  1  0
 16 17  1  0
 16 41  1  0
 17 18  1  0
 17 25  1  0
 17 42  1  1
 18 19  1  0
 18 43  1  0
 18 44  1  0
 19 20  1  0
 19 45  1  0
 19 46  1  0
 20 21  1  0
 20 24  1  0
 20 47  1  6
 21 22  2  0
 21 23  1  0
 23 48  1  0
 24 25  1  0
 24 49  1  0
 24 50  1  0
 25 51  1  0
 25 52  1  0
 26 27  1  0
 26 53  1  0
 26 54  1  0
 27 55  1  0
 27 56  1  0
 28 57  1  0
M  END

