
     RDKit          3D

 58 61  0  0  0  0  0  0  0  0999 V2000
    0.1076    0.6889    2.4401 C   0  0  0  0  0  0  0  0  0  0  0  0
    1.1063   -0.0878    1.5850 C   0  0  2  0  0  0  0  0  0  0  0  0
    1.5763   -1.4231    2.2300 C   0  0  0  0  0  0  0  0  0  0  0  0
    2.9999   -1.1532    2.6614 C   0  0  0  0  0  0  0  0  0  0  0  0
    3.8669   -1.9279    3.4169 C   0  0  0  0  0  0  0  0  0  0  0  0
    5.1736   -1.4688    3.6767 C   0  0  0  0  0  0  0  0  0  0  0  0
    6.1010   -2.3936    4.4170 C   0  0  0  0  0  0  0  0  0  0  0  0
    6.0854   -3.5929    4.1807 O   0  0  0  0  0  0  0  0  0  0  0  0
    6.9902   -1.8489    5.3290 N   0  0  0  0  0  0  0  0  0  0  0  0
    7.9735   -2.7373    5.9456 C   0  0  0  0  0  0  0  0  0  0  0  0
    9.2955   -2.0021    6.1567 C   0  0  0  0  0  0  0  0  0  0  0  0
    9.0793   -0.7706    6.9162 N   0  0  0  0  0  0  0  0  0  0  0  0
   10.0273   -0.4002    7.8468 C   0  0  0  0  0  0  0  0  0  0  0  0
   11.0561   -1.0362    8.0157 O   0  0  0  0  0  0  0  0  0  0  0  0
    9.7514    0.8054    8.7142 C   0  0  0  0  0  0  0  0  0  0  0  0
    8.5392    0.9841    9.3981 C   0  0  0  0  0  0  0  0  0  0  0  0
    8.3717    2.0561   10.2763 C   0  0  0  0  0  0  0  0  0  0  0  0
    9.4155    2.9666   10.4723 C   0  0  0  0  0  0  0  0  0  0  0  0
    9.2539    4.1046   11.4509 C   0  0  1  0  0  0  0  0  0  0  0  0
    7.9680    4.4769   11.5768 F   0  0  0  0  0  0  0  0  0  0  0  0
    9.6868    3.7647   12.6798 F   0  0  0  0  0  0  0  0  0  0  0  0
    9.9552    5.1879   11.0744 F   0  0  0  0  0  0  0  0  0  0  0  0
   10.6324    2.7906    9.8013 C   0  0  0  0  0  0  0  0  0  0  0  0
   10.8020    1.7075    8.9410 C   0  0  0  0  0  0  0  0  0  0  0  0
    8.0905    0.1160    6.3101 C   0  0  0  0  0  0  0  0  0  0  0  0
    6.7698   -0.6244    6.0913 C   0  0  0  0  0  0  0  0  0  0  0  0
    5.5895   -0.2465    3.1254 C   0  0  0  0  0  0  0  0  0  0  0  0
    4.7313    0.5445    2.3523 C   0  0  0  0  0  0  0  0  0  0  0  0
    3.4305    0.0793    2.1343 C   0  0  0  0  0  0  0  0  0  0  0  0
    2.3778    0.6821    1.4193 N   0  0  0  0  0  0  0  0  0  0  0  0
    2.5736    1.8113    0.1857 S   0  0  1  0  0  0  0  0  0  0  0  0
    3.3128    0.8897   -1.1766 C   0  0  0  0  0  0  0  0  0  0  0  0
    1.2247    2.2020   -0.2197 O   0  0  0  0  0  0  0  0  0  0  0  0
    3.5604    2.7955    0.6242 O   0  0  0  0  0  0  0  0  0  0  0  0
   -0.8260    0.1138    2.5503 H   0  0  0  0  0  0  0  0  0  0  0  0
   -0.1281    1.6519    1.9664 H   0  0  0  0  0  0  0  0  0  0  0  0
    0.5195    0.8787    3.4444 H   0  0  0  0  0  0  0  0  0  0  0  0
    0.6659   -0.2592    0.5914 H   0  0  0  0  0  0  0  0  0  0  0  0
    1.5386   -2.2581    1.5093 H   0  0  0  0  0  0  0  0  0  0  0  0
    0.9258   -1.7015    3.0738 H   0  0  0  0  0  0  0  0  0  0  0  0
    3.5622   -2.9021    3.8055 H   0  0  0  0  0  0  0  0  0  0  0  0
    8.1057   -3.6084    5.2927 H   0  0  0  0  0  0  0  0  0  0  0  0
    7.5950   -3.1062    6.9189 H   0  0  0  0  0  0  0  0  0  0  0  0
    9.7473   -1.7630    5.1748 H   0  0  0  0  0  0  0  0  0  0  0  0
   10.0110   -2.6225    6.7097 H   0  0  0  0  0  0  0  0  0  0  0  0
    7.7252    0.2684    9.2623 H   0  0  0  0  0  0  0  0  0  0  0  0
    7.4280    2.1872   10.8089 H   0  0  0  0  0  0  0  0  0  0  0  0
   11.4465    3.5010    9.9566 H   0  0  0  0  0  0  0  0  0  0  0  0
   11.7572    1.5453    8.4381 H   0  0  0  0  0  0  0  0  0  0  0  0
    8.4690    0.4708    5.3309 H   0  0  0  0  0  0  0  0  0  0  0  0
    7.9294    0.9982    6.9396 H   0  0  0  0  0  0  0  0  0  0  0  0
    6.0539    0.0250    5.5757 H   0  0  0  0  0  0  0  0  0  0  0  0
    6.3360   -0.8792    7.0796 H   0  0  0  0  0  0  0  0  0  0  0  0
    6.6156    0.0946    3.2812 H   0  0  0  0  0  0  0  0  0  0  0  0
    5.0576    1.4981    1.9392 H   0  0  0  0  0  0  0  0  0  0  0  0
    2.6126    0.1099   -1.5031 H   0  0  0  0  0  0  0  0  0  0  0  0
    4.2670    0.4615   -0.8424 H   0  0  0  0  0  0  0  0  0  0  0  0
    3.4802    1.6182   -1.9818 H   0  0  0  0  0  0  0  0  0  0  0  0
  1  2  1  0
  1 35  1  0
  1 36  1  0
  1 37  1  0
  2  3  1  0
  2 30  1  0
  2 38  1  6
  3  4  1  0
  3 39  1  0
  3 40  1  0
  4  5  2  0
  4 29  1  0
  5  6  1  0
  5 41  1  0
  6  7  1  0
  6 27  2  0
  7  8  2  0
  7  9  1  0
  9 10  1  0
  9 26  1  0
 10 11  1  0
 10 42  1  0
 10 43  1  0
 11 12  1  0
 11 44  1  0
 11 45  1  0
 12 13  1  0
 12 25  1  0
 13 14  2  0
 13 15  1  0
 15 16  2  0
 15 24  1  0
 16 17  1  0
 16 46  1  0
 17 18  2  0
 17 47  1  0
 18 19  1  0
 18 23  1  0
 19 20  1  1
 19 21  1  0
 19 22  1  0
 23 24  2  0
 23 48  1  0
 24 49  1  0
 25 26  1  0
 25 50  1  0
 25 51  1  0
 26 52  1  0
 26 53  1  0
 27 28  1  0
 27 54  1  0
 28 29  2  0
 28 55  1  0
 29 30  1  0
 30 31  1  0
 31 32  1  6
 31 33  2  0
 31 34  2  0
 32 56  1  0
 32 57  1  0
 32 58  1  0
M  END

