
     RDKit          3D

 59 62  0  0  0  0  0  0  0  0999 V2000
   14.4286    0.0996    1.2943 C   0  0  0  0  0  0  0  0  0  0  0  0
   13.5712    0.1795    2.5584 C   0  0  0  0  0  0  0  0  0  0  0  0
   12.1568    0.7120    2.3082 C   0  0  0  0  0  0  0  0  0  0  0  0
   11.2904    0.7956    3.5682 C   0  0  0  0  0  0  0  0  0  0  0  0
    9.8809    1.3401    3.3129 C   0  0  0  0  0  0  0  0  0  0  0  0
    9.0288    1.4062    4.5813 C   0  0  0  0  0  0  0  0  0  0  0  0
    7.6404    2.0867    4.4568 C   0  0  2  0  0  0  0  0  0  0  0  0
    6.7896    1.4180    3.3513 C   0  0  0  0  0  0  0  0  0  0  0  0
    7.8540    3.4660    4.0606 N   0  0  0  0  0  0  0  0  0  0  0  0
    7.3500    4.4573    4.6926 C   0  0  0  0  0  0  0  0  0  0  0  0
    7.6719    5.8367    4.2115 C   0  0  0  0  0  0  0  0  0  0  0  0
    7.2749    6.9803    4.9234 C   0  0  0  0  0  0  0  0  0  0  0  0
    7.5904    8.2822    4.4870 C   0  0  0  0  0  0  0  0  0  0  0  0
    8.3092    8.3931    3.3117 C   0  0  0  0  0  0  0  0  0  0  0  0
    8.7098    7.2611    2.5918 C   0  0  0  0  0  0  0  0  0  0  0  0
    8.4146    5.9833    3.0102 C   0  0  0  0  0  0  0  0  0  0  0  0
    9.4036    7.6598    1.4802 O   0  0  0  0  0  0  0  0  0  0  0  0
    9.4103    9.0819    1.4887 C   0  0  0  0  0  0  0  0  0  0  0  0
    8.7403    9.5175    2.6714 O   0  0  0  0  0  0  0  0  0  0  0  0
    6.4503    4.3080    5.9063 C   0  0  0  0  0  0  0  0  0  0  0  0
    5.8964    2.8796    6.0150 C   0  0  2  0  0  0  0  0  0  0  0  0
    5.1001    2.7828    5.2487 H   0  0  0  0  0  0  0  0  0  0  0  0
    5.2444    2.6332    7.3646 C   0  0  0  0  0  0  0  0  0  0  0  0
    5.9309    2.0274    8.4240 C   0  0  0  0  0  0  0  0  0  0  0  0
    5.3244    1.8185    9.6677 C   0  0  0  0  0  0  0  0  0  0  0  0
    4.0042    2.2253    9.8667 C   0  0  0  0  0  0  0  0  0  0  0  0
    3.3008    2.8414    8.8281 C   0  0  0  0  0  0  0  0  0  0  0  0
    3.9152    3.0503    7.5874 C   0  0  0  0  0  0  0  0  0  0  0  0
    3.2659    3.6628    6.5552 O   0  0  0  0  0  0  0  0  0  0  0  0
    7.0076    1.9684    5.7839 N   0  0  0  0  0  0  0  0  0  0  0  0
   15.4377   -0.2862    1.5112 H   0  0  0  0  0  0  0  0  0  0  0  0
   14.5453    1.0915    0.8260 H   0  0  0  0  0  0  0  0  0  0  0  0
   13.9728   -0.5661    0.5420 H   0  0  0  0  0  0  0  0  0  0  0  0
   14.0735    0.8219    3.3047 H   0  0  0  0  0  0  0  0  0  0  0  0
   13.5051   -0.8215    3.0231 H   0  0  0  0  0  0  0  0  0  0  0  0
   11.6536    0.0702    1.5606 H   0  0  0  0  0  0  0  0  0  0  0  0
   12.2214    1.7142    1.8445 H   0  0  0  0  0  0  0  0  0  0  0  0
   11.7966    1.4328    4.3169 H   0  0  0  0  0  0  0  0  0  0  0  0
   11.2210   -0.2078    4.0295 H   0  0  0  0  0  0  0  0  0  0  0  0
    9.3868    0.7078    2.5541 H   0  0  0  0  0  0  0  0  0  0  0  0
    9.9476    2.3501    2.8760 H   0  0  0  0  0  0  0  0  0  0  0  0
    9.5712    1.9523    5.3704 H   0  0  0  0  0  0  0  0  0  0  0  0
    8.8642    0.3857    4.9739 H   0  0  0  0  0  0  0  0  0  0  0  0
    5.7711    1.8352    3.3401 H   0  0  0  0  0  0  0  0  0  0  0  0
    6.7207    0.3314    3.5250 H   0  0  0  0  0  0  0  0  0  0  0  0
    7.2268    1.5850    2.3571 H   0  0  0  0  0  0  0  0  0  0  0  0
    6.7111    6.8773    5.8508 H   0  0  0  0  0  0  0  0  0  0  0  0
    7.2825    9.1652    5.0487 H   0  0  0  0  0  0  0  0  0  0  0  0
    8.7282    5.0986    2.4581 H   0  0  0  0  0  0  0  0  0  0  0  0
    8.8769    9.4659    0.5988 H   0  0  0  0  0  0  0  0  0  0  0  0
   10.4513    9.4525    1.4956 H   0  0  0  0  0  0  0  0  0  0  0  0
    5.6158    5.0223    5.8567 H   0  0  0  0  0  0  0  0  0  0  0  0
    7.0299    4.5481    6.8145 H   0  0  0  0  0  0  0  0  0  0  0  0
    6.9641    1.7184    8.2533 H   0  0  0  0  0  0  0  0  0  0  0  0
    5.8832    1.3407   10.4757 H   0  0  0  0  0  0  0  0  0  0  0  0
    3.5139    2.0679   10.8308 H   0  0  0  0  0  0  0  0  0  0  0  0
    2.2659    3.1671    8.9772 H   0  0  0  0  0  0  0  0  0  0  0  0
    2.3626    3.8752    6.8238 H   0  0  0  0  0  0  0  0  0  0  0  0
    6.7196    1.0037    5.9413 H   0  0  0  0  0  0  0  0  0  0  0  0
  1  2  1  0
  1 31  1  0
  1 32  1  0
  1 33  1  0
  2  3  1  0
  2 34  1  0
  2 35  1  0
  3  4  1  0
  3 36  1  0
  3 37  1  0
  4  5  1  0
  4 38  1  0
  4 39  1  0
  5  6  1  0
  5 40  1  0
  5 41  1  0
  7  6  1  1
  6 42  1  0
  6 43  1  0
  7  8  1  0
  7  9  1  0
  7 30  1  0
  8 44  1  0
  8 45  1  0
  8 46  1  0
  9 10  2  0
 10 11  1  0
 10 20  1  0
 11 12  2  0
 11 16  1  0
 12 13  1  0
 12 47  1  0
 13 14  2  0
 13 48  1  0
 14 15  1  0
 14 19  1  0
 15 16  2  0
 15 17  1  0
 16 49  1  0
 17 18  1  0
 18 19  1  0
 18 50  1  0
 18 51  1  0
 20 21  1  0
 20 52  1  0
 20 53  1  0
 21 22  1  6
 21 23  1  0
 21 30  1  0
 23 24  2  0
 23 28  1  0
 24 25  1  0
 24 54  1  0
 25 26  2  0
 25 55  1  0
 26 27  1  0
 26 56  1  0
 27 28  2  0
 27 57  1  0
 28 29  1  0
 29 58  1  0
 30 59  1  0
M  END

