
     RDKit          3D

 54 56  0  0  0  0  0  0  0  0999 V2000
    4.0089   -4.0557   -4.3656 C   0  0  0  0  0  0  0  0  0  0  0  0
    5.1984   -4.4730   -3.4832 C   0  0  1  0  0  0  0  0  0  0  0  0
    5.6390   -3.3212   -2.5629 C   0  0  0  0  0  0  0  0  0  0  0  0
    4.9131   -5.7513   -2.7055 C   0  0  0  0  0  0  0  0  0  0  0  0
    5.6639   -6.9148   -2.9231 C   0  0  0  0  0  0  0  0  0  0  0  0
    5.4248   -8.1030   -2.2270 C   0  0  0  0  0  0  0  0  0  0  0  0
    4.3979   -8.1515   -1.2696 C   0  0  0  0  0  0  0  0  0  0  0  0
    4.0746   -9.2994   -0.5206 N   0  0  0  0  0  0  0  0  0  0  0  0
    4.6955  -10.5153   -0.5171 C   0  0  0  0  0  0  0  0  0  0  0  0
    5.6509  -10.8274   -1.2098 O   0  0  0  0  0  0  0  0  0  0  0  0
    4.0582  -11.5715    0.4239 C   0  0  2  0  0  0  0  0  0  0  0  0
    4.7953  -12.3850    0.4066 H   0  0  0  0  0  0  0  0  0  0  0  0
    2.7298  -12.1007   -0.1369 C   0  0  0  0  0  0  0  0  0  0  0  0
    3.9602  -11.1575    1.8284 N   0  0  0  0  0  0  0  0  0  0  0  0
    3.1046  -10.2559    2.3560 C   0  0  0  0  0  0  0  0  0  0  0  0
    2.3429   -9.5471    1.6979 O   0  0  0  0  0  0  0  0  0  0  0  0
    3.1048  -10.2254    3.9022 C   0  0  2  0  0  0  0  0  0  0  0  0
    2.3727  -11.0060    4.1754 H   0  0  0  0  0  0  0  0  0  0  0  0
    2.6030   -8.8860    4.4639 C   0  0  0  0  0  0  0  0  0  0  0  0
    3.6983   -7.8630    4.6920 C   0  0  0  0  0  0  0  0  0  0  0  0
    3.3622   -6.5289    4.9770 C   0  0  0  0  0  0  0  0  0  0  0  0
    4.3462   -5.5732    5.2249 C   0  0  0  0  0  0  0  0  0  0  0  0
    5.6960   -5.9427    5.1924 C   0  0  0  0  0  0  0  0  0  0  0  0
    6.0405   -7.2633    4.9094 C   0  0  0  0  0  0  0  0  0  0  0  0
    5.0543   -8.2306    4.6590 C   0  0  0  0  0  0  0  0  0  0  0  0
    5.4573   -9.6509    4.3029 C   0  0  0  0  0  0  0  0  0  0  0  0
    4.4014  -10.6580    4.4272 N   0  0  0  0  0  0  0  0  0  0  0  0
    3.6358   -6.9908   -1.0363 C   0  0  0  0  0  0  0  0  0  0  0  0
    3.8910   -5.8184   -1.7427 C   0  0  0  0  0  0  0  0  0  0  0  0
    4.2590   -3.1663   -4.9677 H   0  0  0  0  0  0  0  0  0  0  0  0
    3.1249   -3.8053   -3.7558 H   0  0  0  0  0  0  0  0  0  0  0  0
    3.7196   -4.8644   -5.0548 H   0  0  0  0  0  0  0  0  0  0  0  0
    6.0441   -4.6954   -4.1573 H   0  0  0  0  0  0  0  0  0  0  0  0
    4.8345   -3.0334   -1.8658 H   0  0  0  0  0  0  0  0  0  0  0  0
    5.9027   -2.4268   -3.1516 H   0  0  0  0  0  0  0  0  0  0  0  0
    6.5161   -3.6043   -1.9602 H   0  0  0  0  0  0  0  0  0  0  0  0
    6.4683   -6.8985   -3.6650 H   0  0  0  0  0  0  0  0  0  0  0  0
    6.0222   -8.9924   -2.4131 H   0  0  0  0  0  0  0  0  0  0  0  0
    3.2899   -9.2034    0.1334 H   0  0  0  0  0  0  0  0  0  0  0  0
    2.3810  -12.9586    0.4593 H   0  0  0  0  0  0  0  0  0  0  0  0
    2.8746  -12.4373   -1.1745 H   0  0  0  0  0  0  0  0  0  0  0  0
    1.9494  -11.3278   -0.1215 H   0  0  0  0  0  0  0  0  0  0  0  0
    4.5366  -11.6289    2.5244 H   0  0  0  0  0  0  0  0  0  0  0  0
    2.0948   -9.0788    5.4258 H   0  0  0  0  0  0  0  0  0  0  0  0
    1.8391   -8.4820    3.7826 H   0  0  0  0  0  0  0  0  0  0  0  0
    2.3068   -6.2409    5.0003 H   0  0  0  0  0  0  0  0  0  0  0  0
    4.0631   -4.5400    5.4418 H   0  0  0  0  0  0  0  0  0  0  0  0
    6.4757   -5.2020    5.3872 H   0  0  0  0  0  0  0  0  0  0  0  0
    7.0953   -7.5547    4.8797 H   0  0  0  0  0  0  0  0  0  0  0  0
    6.3100   -9.9718    4.9223 H   0  0  0  0  0  0  0  0  0  0  0  0
    5.8277   -9.6599    3.2605 H   0  0  0  0  0  0  0  0  0  0  0  0
    4.2992  -10.9431    5.3992 H   0  0  0  0  0  0  0  0  0  0  0  0
    2.8387   -7.0150   -0.2878 H   0  0  0  0  0  0  0  0  0  0  0  0
    3.2772   -4.9379   -1.5333 H   0  0  0  0  0  0  0  0  0  0  0  0
  1  2  1  0
  1 30  1  0
  1 31  1  0
  1 32  1  0
  2  3  1  0
  2  4  1  0
  2 33  1  6
  3 34  1  0
  3 35  1  0
  3 36  1  0
  4  5  2  0
  4 29  1  0
  5  6  1  0
  5 37  1  0
  6  7  2  0
  6 38  1  0
  7  8  1  0
  7 28  1  0
  8  9  1  0
  8 39  1  0
  9 10  2  0
  9 11  1  0
 11 12  1  1
 11 13  1  0
 11 14  1  0
 13 40  1  0
 13 41  1  0
 13 42  1  0
 14 15  1  0
 14 43  1  0
 15 16  2  0
 15 17  1  0
 17 18  1  1
 17 19  1  0
 17 27  1  0
 19 20  1  0
 19 44  1  0
 19 45  1  0
 20 21  2  0
 20 25  1  0
 21 22  1  0
 21 46  1  0
 22 23  2  0
 22 47  1  0
 23 24  1  0
 23 48  1  0
 24 25  2  0
 24 49  1  0
 25 26  1  0
 26 27  1  0
 26 50  1  0
 26 51  1  0
 27 52  1  0
 28 29  2  0
 28 53  1  0
 29 54  1  0
M  END

