
     RDKit          3D

 40 40  0  0  0  0  0  0  0  0999 V2000
    1.0734    6.0105    1.4282 C   0  0  0  0  0  0  0  0  0  0  0  0
    1.9374    6.0422    2.6896 C   0  0  0  0  0  0  0  0  0  0  0  0
    3.1520    5.1116    2.6137 C   0  0  0  0  0  0  0  0  0  0  0  0
    4.0042    5.1579    3.8759 C   0  0  0  0  0  0  0  0  0  0  0  0
    5.0857    4.2150    3.8315 O   0  0  0  0  0  0  0  0  0  0  0  0
    6.2320    4.6232    3.2361 C   0  0  0  0  0  0  0  0  0  0  0  0
    6.4118    5.7258    2.7608 O   0  0  0  0  0  0  0  0  0  0  0  0
    7.1533    3.6164    3.2452 N   0  0  0  0  0  0  0  0  0  0  0  0
    8.5332    3.8334    2.8117 C   0  0  1  0  0  0  0  0  0  0  0  0
    9.4189    2.6715    3.2862 C   0  0  0  0  0  0  0  0  0  0  0  0
    9.1488    1.3721    2.5174 C   0  0  0  0  0  0  0  0  0  0  0  0
    9.2341    1.5877    1.0731 N   0  0  0  0  0  0  0  0  0  0  0  0
   10.0760    0.7936    0.3373 C   0  0  0  0  0  0  0  0  0  0  0  0
   10.7677   -0.0783    0.8279 O   0  0  0  0  0  0  0  0  0  0  0  0
   10.1111    1.0622   -1.1834 C   0  0  0  0  0  0  0  0  0  0  0  0
   11.0327    0.1702   -1.8845 C   0  0  0  0  0  0  0  0  0  0  0  0
   11.7480   -0.5083   -2.4906 N   0  0  0  0  0  0  0  0  0  0  0  0
    8.3609    2.6463    0.5669 C   0  0  0  0  0  0  0  0  0  0  0  0
    8.6345    3.9737    1.2800 C   0  0  0  0  0  0  0  0  0  0  0  0
    0.2112    6.6907    1.5131 H   0  0  0  0  0  0  0  0  0  0  0  0
    0.6815    4.9977    1.2360 H   0  0  0  0  0  0  0  0  0  0  0  0
    1.6518    6.3145    0.5400 H   0  0  0  0  0  0  0  0  0  0  0  0
    1.3204    5.7694    3.5654 H   0  0  0  0  0  0  0  0  0  0  0  0
    2.2817    7.0759    2.8737 H   0  0  0  0  0  0  0  0  0  0  0  0
    3.7827    5.3926    1.7533 H   0  0  0  0  0  0  0  0  0  0  0  0
    2.8206    4.0714    2.4450 H   0  0  0  0  0  0  0  0  0  0  0  0
    3.4147    4.8714    4.7602 H   0  0  0  0  0  0  0  0  0  0  0  0
    4.4131    6.1677    4.0317 H   0  0  0  0  0  0  0  0  0  0  0  0
    6.9125    2.7859    3.7733 H   0  0  0  0  0  0  0  0  0  0  0  0
    8.8884    4.7748    3.2636 H   0  0  0  0  0  0  0  0  0  0  0  0
    9.2814    2.5021    4.3676 H   0  0  0  0  0  0  0  0  0  0  0  0
   10.4723    2.9589    3.1404 H   0  0  0  0  0  0  0  0  0  0  0  0
    8.1437    0.9766    2.7605 H   0  0  0  0  0  0  0  0  0  0  0  0
    9.8776    0.5960    2.7797 H   0  0  0  0  0  0  0  0  0  0  0  0
   10.4128    2.1037   -1.3842 H   0  0  0  0  0  0  0  0  0  0  0  0
    9.1053    0.9377   -1.6183 H   0  0  0  0  0  0  0  0  0  0  0  0
    7.3073    2.3518    0.7320 H   0  0  0  0  0  0  0  0  0  0  0  0
    8.4888    2.7671   -0.5147 H   0  0  0  0  0  0  0  0  0  0  0  0
    7.9283    4.7455    0.9406 H   0  0  0  0  0  0  0  0  0  0  0  0
    9.6508    4.3217    1.0277 H   0  0  0  0  0  0  0  0  0  0  0  0
  1  2  1  0
  1 20  1  0
  1 21  1  0
  1 22  1  0
  2  3  1  0
  2 23  1  0
  2 24  1  0
  3  4  1  0
  3 25  1  0
  3 26  1  0
  4  5  1  0
  4 27  1  0
  4 28  1  0
  5  6  1  0
  6  7  2  0
  6  8  1  0
  8  9  1  0
  8 29  1  0
  9 10  1  0
  9 19  1  0
  9 30  1  1
 10 11  1  0
 10 31  1  0
 10 32  1  0
 11 12  1  0
 11 33  1  0
 11 34  1  0
 12 13  1  0
 12 18  1  0
 13 14  2  0
 13 15  1  0
 15 16  1  0
 15 35  1  0
 15 36  1  0
 16 17  3  0
 18 19  1  0
 18 37  1  0
 18 38  1  0
 19 39  1  0
 19 40  1  0
M  END

