
     RDKit          3D

 51 54  0  0  0  0  0  0  0  0999 V2000
    1.6702   -0.5058    0.6711 C   0  0  0  0  0  0  0  0  0  0  0  0
    3.0745   -0.1885    0.2390 C   0  0  0  0  0  0  0  0  0  0  0  0
    3.5634    0.5869   -0.7597 C   0  0  0  0  0  0  0  0  0  0  0  0
    5.0710    0.7213   -0.8898 C   0  0  0  0  0  0  0  0  0  0  0  0
    5.4643    2.1823   -1.1028 C   0  0  0  0  0  0  0  0  0  0  0  0
    4.8379    2.7199   -2.3887 C   0  0  0  0  0  0  0  0  0  0  0  0
    3.4078    2.2702   -2.5755 C   0  0  0  0  0  0  0  0  0  0  0  0
    2.8052    1.3267   -1.7911 C   0  0  0  0  0  0  0  0  0  0  0  0
    1.3670    0.9761   -2.1353 C   0  0  1  0  0  0  0  0  0  0  0  0
    0.2934    1.8297   -1.4321 C   0  0  0  0  0  0  0  0  0  0  0  0
    0.6043    3.0226   -0.7635 C   0  0  0  0  0  0  0  0  0  0  0  0
   -0.3751    3.8106   -0.1622 C   0  0  0  0  0  0  0  0  0  0  0  0
   -1.7211    3.4105   -0.2132 C   0  0  0  0  0  0  0  0  0  0  0  0
   -2.7438    4.2087    0.4041 C   0  0  0  0  0  0  0  0  0  0  0  0
   -3.5673    4.8557    0.9050 N   0  0  0  0  0  0  0  0  0  0  0  0
   -2.0631    2.2145   -0.8676 C   0  0  0  0  0  0  0  0  0  0  0  0
   -1.0624    1.4485   -1.4614 C   0  0  0  0  0  0  0  0  0  0  0  0
   -1.5460   -0.0474   -2.2471 Cl  0  0  0  0  0  0  0  0  0  0  0  0
    1.2174    1.0448   -3.5871 N   0  0  0  0  0  0  0  0  0  0  0  0
    1.6785    2.0992   -4.3243 C   0  0  0  0  0  0  0  0  0  0  0  0
    1.2621    2.3933   -5.4270 O   0  0  0  0  0  0  0  0  0  0  0  0
    2.7282    2.8089   -3.6926 N   0  0  0  0  0  0  0  0  0  0  0  0
    3.1644    4.0176   -4.3318 C   0  0  0  0  0  0  0  0  0  0  0  0
    3.0049    5.2447   -3.6776 C   0  0  0  0  0  0  0  0  0  0  0  0
    3.4271    6.4286   -4.2886 C   0  0  0  0  0  0  0  0  0  0  0  0
    3.9930    6.3961   -5.5629 C   0  0  0  0  0  0  0  0  0  0  0  0
    4.1389    5.1690   -6.2229 C   0  0  0  0  0  0  0  0  0  0  0  0
    4.7966    5.1341   -7.5817 C   0  0  1  0  0  0  0  0  0  0  0  0
    4.4124    6.1726   -8.3447 F   0  0  0  0  0  0  0  0  0  0  0  0
    6.1395    5.2060   -7.4764 F   0  0  0  0  0  0  0  0  0  0  0  0
    4.5143    4.0077   -8.2538 F   0  0  0  0  0  0  0  0  0  0  0  0
    3.7260    3.9824   -5.6133 C   0  0  0  0  0  0  0  0  0  0  0  0
    1.6289   -0.5871    1.7696 H   0  0  0  0  0  0  0  0  0  0  0  0
    1.3310   -1.4837    0.2811 H   0  0  0  0  0  0  0  0  0  0  0  0
    0.9283    0.2466    0.3778 H   0  0  0  0  0  0  0  0  0  0  0  0
    3.8393   -0.6821    0.8509 H   0  0  0  0  0  0  0  0  0  0  0  0
    5.4199    0.1285   -1.7571 H   0  0  0  0  0  0  0  0  0  0  0  0
    5.5661    0.3078    0.0011 H   0  0  0  0  0  0  0  0  0  0  0  0
    6.5590    2.2940   -1.1521 H   0  0  0  0  0  0  0  0  0  0  0  0
    5.1219    2.7791   -0.2395 H   0  0  0  0  0  0  0  0  0  0  0  0
    5.4144    2.3824   -3.2705 H   0  0  0  0  0  0  0  0  0  0  0  0
    4.8971    3.8185   -2.4120 H   0  0  0  0  0  0  0  0  0  0  0  0
    1.1809   -0.0693   -1.8604 H   0  0  0  0  0  0  0  0  0  0  0  0
    1.6511    3.3251   -0.7048 H   0  0  0  0  0  0  0  0  0  0  0  0
   -0.1035    4.7340    0.3519 H   0  0  0  0  0  0  0  0  0  0  0  0
   -3.1009    1.8833   -0.9105 H   0  0  0  0  0  0  0  0  0  0  0  0
    0.4201    0.5740   -4.0028 H   0  0  0  0  0  0  0  0  0  0  0  0
    2.5392    5.2674   -2.6899 H   0  0  0  0  0  0  0  0  0  0  0  0
    3.2986    7.3827   -3.7724 H   0  0  0  0  0  0  0  0  0  0  0  0
    4.3109    7.3193   -6.0512 H   0  0  0  0  0  0  0  0  0  0  0  0
    3.8238    3.0320   -6.1360 H   0  0  0  0  0  0  0  0  0  0  0  0
  1  2  1  0
  1 33  1  0
  1 34  1  0
  1 35  1  0
  2  3  2  0
  2 36  1  0
  3  4  1  0
  3  8  1  0
  4  5  1  0
  4 37  1  0
  4 38  1  0
  5  6  1  0
  5 39  1  0
  5 40  1  0
  6  7  1  0
  6 41  1  0
  6 42  1  0
  7  8  2  0
  7 22  1  0
  8  9  1  0
  9 10  1  0
  9 19  1  0
  9 43  1  1
 10 11  2  0
 10 17  1  0
 11 12  1  0
 11 44  1  0
 12 13  2  0
 12 45  1  0
 13 14  1  0
 13 16  1  0
 14 15  3  0
 16 17  2  0
 16 46  1  0
 17 18  1  0
 19 20  1  0
 19 47  1  0
 20 21  2  0
 20 22  1  0
 22 23  1  0
 23 24  2  0
 23 32  1  0
 24 25  1  0
 24 48  1  0
 25 26  2  0
 25 49  1  0
 26 27  1  0
 26 50  1  0
 27 28  1  0
 27 32  2  0
 28 29  1  6
 28 30  1  0
 28 31  1  0
 32 51  1  0
M  END

