
     RDKit          3D

 35 37  0  0  0  0  0  0  0  0999 V2000
    3.3366   -0.7103   -1.0663 O   0  0  0  0  0  0  0  0  0  0  0  0
    2.6546    0.1827   -0.6331 C   0  0  0  0  0  0  0  0  0  0  0  0
    1.4776    0.4798   -1.2336 O   0  0  0  0  0  0  0  0  0  0  0  0
    3.0079    1.0389    0.5542 C   0  0  0  0  0  0  0  0  0  0  0  0
    2.5938    2.3679    0.5833 C   0  0  0  0  0  0  0  0  0  0  0  0
    2.9262    3.2101    1.6656 C   0  0  0  0  0  0  0  0  0  0  0  0
    3.6625    2.7230    2.7248 C   0  0  0  0  0  0  0  0  0  0  0  0
    4.1129    1.3737    2.7402 C   0  0  0  0  0  0  0  0  0  0  0  0
    4.8323    0.9533    3.8141 N   0  0  0  0  0  0  0  0  0  0  0  0
    5.2796   -0.2899    3.8454 C   0  0  0  0  0  0  0  0  0  0  0  0
    6.0229   -0.6888    4.9222 N   0  0  0  0  0  0  0  0  0  0  0  0
    6.3716    0.1831    6.0231 C   0  0  0  0  0  0  0  0  0  0  0  0
    5.2246    0.3666    7.0327 C   0  0  0  0  0  0  0  0  0  0  0  0
    5.6336    1.1708    8.1687 N   0  0  0  0  0  0  0  0  0  0  0  0
    5.2560    2.4424    8.4774 C   0  0  0  0  0  0  0  0  0  0  0  0
    5.9446    2.7957    9.6261 C   0  0  0  0  0  0  0  0  0  0  0  0
    6.7233    1.6528    9.9276 C   0  0  0  0  0  0  0  0  0  0  0  0
    6.5296    0.6799    9.0408 N   0  0  0  0  0  0  0  0  0  0  0  0
    5.0179   -1.2251    2.7856 C   0  0  0  0  0  0  0  0  0  0  0  0
    4.2873   -0.8223    1.7025 C   0  0  0  0  0  0  0  0  0  0  0  0
    3.7941    0.5197    1.6316 C   0  0  0  0  0  0  0  0  0  0  0  0
    0.9863    1.1190   -0.6981 H   0  0  0  0  0  0  0  0  0  0  0  0
    2.0379    2.7889   -0.2588 H   0  0  0  0  0  0  0  0  0  0  0  0
    2.6010    4.2533    1.6546 H   0  0  0  0  0  0  0  0  0  0  0  0
    3.9314    3.3526    3.5752 H   0  0  0  0  0  0  0  0  0  0  0  0
    6.3281   -1.6518    4.9518 H   0  0  0  0  0  0  0  0  0  0  0  0
    6.6560    1.1698    5.6262 H   0  0  0  0  0  0  0  0  0  0  0  0
    7.2398   -0.2394    6.5492 H   0  0  0  0  0  0  0  0  0  0  0  0
    4.8874   -0.6153    7.4004 H   0  0  0  0  0  0  0  0  0  0  0  0
    4.3790    0.8667    6.5417 H   0  0  0  0  0  0  0  0  0  0  0  0
    4.5352    2.9847    7.8687 H   0  0  0  0  0  0  0  0  0  0  0  0
    5.8887    3.7370   10.1675 H   0  0  0  0  0  0  0  0  0  0  0  0
    7.4131    1.5019   10.7582 H   0  0  0  0  0  0  0  0  0  0  0  0
    5.4077   -2.2445    2.8482 H   0  0  0  0  0  0  0  0  0  0  0  0
    4.0918   -1.5061    0.8780 H   0  0  0  0  0  0  0  0  0  0  0  0
  1  2  2  0
  2  3  1  0
  2  4  1  0
  3 22  1  0
  4  5  2  0
  4 21  1  0
  5  6  1  0
  5 23  1  0
  6  7  2  0
  6 24  1  0
  7  8  1  0
  7 25  1  0
  8  9  1  0
  8 21  2  0
  9 10  2  0
 10 11  1  0
 10 19  1  0
 11 12  1  0
 11 26  1  0
 12 13  1  0
 12 27  1  0
 12 28  1  0
 13 14  1  0
 13 29  1  0
 13 30  1  0
 14 15  1  0
 14 18  1  0
 15 16  2  0
 15 31  1  0
 16 17  1  0
 16 32  1  0
 17 18  2  0
 17 33  1  0
 19 20  2  0
 19 34  1  0
 20 21  1  0
 20 35  1  0
M  END

