
     RDKit          3D

 40 40  0  0  0  0  0  0  0  0999 V2000
    3.7144    0.4015    5.5624 C   0  0  0  0  0  0  0  0  0  0  0  0
    4.0208    0.4739    4.0669 C   0  0  0  0  0  0  0  0  0  0  0  0
    4.5552   -0.8493    3.5056 C   0  0  0  0  0  0  0  0  0  0  0  0
    4.9400   -0.7598    2.0553 C   0  0  0  0  0  0  0  0  0  0  0  0
    5.3029    0.3517    1.4463 N   0  0  0  0  0  0  0  0  0  0  0  0
    5.5934    0.0102    0.1515 C   0  0  0  0  0  0  0  0  0  0  0  0
    5.4032   -1.3368   -0.0369 C   0  0  0  0  0  0  0  0  0  0  0  0
    4.9797   -1.8350    1.1863 N   0  0  0  0  0  0  0  0  0  0  0  0
    4.6420   -3.2377    1.4368 C   0  0  1  0  0  0  0  0  0  0  0  0
    5.5519   -3.9221    2.4566 C   0  0  0  0  0  0  0  0  0  0  0  0
    3.1407   -3.4608    1.7613 C   0  0  0  0  0  0  0  0  0  0  0  0
    2.7876   -4.4387    2.3987 O   0  0  0  0  0  0  0  0  0  0  0  0
    2.2848   -2.5504    1.2237 N   0  0  0  0  0  0  0  0  0  0  0  0
    0.8315   -2.6240    1.3692 C   0  0  1  0  0  0  0  0  0  0  0  0
    0.3169   -1.5054    2.2820 C   0  0  0  0  0  0  0  0  0  0  0  0
    0.1394   -2.6123   -0.0049 C   0  0  0  0  0  0  0  0  0  0  0  0
    0.5245   -3.7760   -0.9174 C   0  0  0  0  0  0  0  0  0  0  0  0
    3.3299    1.3628    5.9382 H   0  0  0  0  0  0  0  0  0  0  0  0
    4.6166    0.1546    6.1473 H   0  0  0  0  0  0  0  0  0  0  0  0
    2.9575   -0.3693    5.7868 H   0  0  0  0  0  0  0  0  0  0  0  0
    4.7570    1.2657    3.8594 H   0  0  0  0  0  0  0  0  0  0  0  0
    3.1137    0.7602    3.5073 H   0  0  0  0  0  0  0  0  0  0  0  0
    3.8078   -1.6467    3.6530 H   0  0  0  0  0  0  0  0  0  0  0  0
    5.4390   -1.1589    4.0957 H   0  0  0  0  0  0  0  0  0  0  0  0
    5.9243    0.7483   -0.5785 H   0  0  0  0  0  0  0  0  0  0  0  0
    5.5299   -1.9826   -0.9028 H   0  0  0  0  0  0  0  0  0  0  0  0
    4.7869   -3.7441    0.4677 H   0  0  0  0  0  0  0  0  0  0  0  0
    5.4499   -3.4823    3.4580 H   0  0  0  0  0  0  0  0  0  0  0  0
    6.6023   -3.8417    2.1401 H   0  0  0  0  0  0  0  0  0  0  0  0
    5.2736   -4.9812    2.5318 H   0  0  0  0  0  0  0  0  0  0  0  0
    2.6769   -1.7455    0.7456 H   0  0  0  0  0  0  0  0  0  0  0  0
    0.6456   -3.5944    1.8547 H   0  0  0  0  0  0  0  0  0  0  0  0
    0.5235   -0.5113    1.8499 H   0  0  0  0  0  0  0  0  0  0  0  0
    0.7963   -1.5546    3.2714 H   0  0  0  0  0  0  0  0  0  0  0  0
   -0.7721   -1.5882    2.4255 H   0  0  0  0  0  0  0  0  0  0  0  0
    0.3560   -1.6499   -0.5065 H   0  0  0  0  0  0  0  0  0  0  0  0
   -0.9506   -2.6194    0.1674 H   0  0  0  0  0  0  0  0  0  0  0  0
    1.6042   -3.7749   -1.1353 H   0  0  0  0  0  0  0  0  0  0  0  0
   -0.0098   -3.7208   -1.8789 H   0  0  0  0  0  0  0  0  0  0  0  0
    0.2825   -4.7456   -0.4527 H   0  0  0  0  0  0  0  0  0  0  0  0
  1  2  1  0
  1 18  1  0
  1 19  1  0
  1 20  1  0
  2  3  1  0
  2 21  1  0
  2 22  1  0
  3  4  1  0
  3 23  1  0
  3 24  1  0
  4  5  2  0
  4  8  1  0
  5  6  1  0
  6  7  2  0
  6 25  1  0
  7  8  1  0
  7 26  1  0
  8  9  1  0
  9 10  1  0
  9 11  1  0
  9 27  1  6
 10 28  1  0
 10 29  1  0
 10 30  1  0
 11 12  2  0
 11 13  1  0
 13 14  1  0
 13 31  1  0
 14 15  1  0
 14 16  1  0
 14 32  1  1
 15 33  1  0
 15 34  1  0
 15 35  1  0
 16 17  1  0
 16 36  1  0
 16 37  1  0
 17 38  1  0
 17 39  1  0
 17 40  1  0
M  END

