
     RDKit          3D

 36 36  0  0  0  0  0  0  0  0999 V2000
    2.7437   -0.6907    1.6075 C   0  0  0  0  0  0  0  0  0  0  0  0
    3.4799   -2.0315    1.7351 C   0  0  1  0  0  0  0  0  0  0  0  0
    2.4828   -3.1969    1.7589 C   0  0  0  0  0  0  0  0  0  0  0  0
    4.5254   -2.2443    0.6202 C   0  0  0  0  0  0  0  0  0  0  0  0
    5.6741   -1.2305    0.5546 C   0  0  0  0  0  0  0  0  0  0  0  0
    6.4941   -1.2241    1.7568 N   0  0  0  0  0  0  0  0  0  0  0  0
    7.8333   -1.4483    1.7496 C   0  0  0  0  0  0  0  0  0  0  0  0
    8.5088   -1.6220    0.7509 O   0  0  0  0  0  0  0  0  0  0  0  0
    8.5233   -1.4615    3.1309 C   0  0  0  0  0  0  0  0  0  0  0  0
    7.6407   -1.4114    4.2787 N   0  0  0  0  0  0  0  0  0  0  0  0
    7.2699   -0.2967    4.9860 C   0  0  0  0  0  0  0  0  0  0  0  0
    6.3017   -0.5495    5.8355 N   0  0  0  0  0  0  0  0  0  0  0  0
    6.0082   -1.8865    5.6845 C   0  0  0  0  0  0  0  0  0  0  0  0
    4.8611   -2.5110    6.4175 C   0  0  0  0  0  0  0  0  0  0  0  0
    3.5941   -2.0313    5.8517 N   0  0  0  0  0  0  0  0  0  0  0  0
    6.8297   -2.4387    4.7253 C   0  0  0  0  0  0  0  0  0  0  0  0
    2.0058   -0.5728    2.4170 H   0  0  0  0  0  0  0  0  0  0  0  0
    2.2013   -0.6250    0.6480 H   0  0  0  0  0  0  0  0  0  0  0  0
    3.4260    0.1728    1.6628 H   0  0  0  0  0  0  0  0  0  0  0  0
    3.9912   -2.0400    2.7162 H   0  0  0  0  0  0  0  0  0  0  0  0
    1.8972   -3.2401    0.8239 H   0  0  0  0  0  0  0  0  0  0  0  0
    1.7759   -3.0932    2.5971 H   0  0  0  0  0  0  0  0  0  0  0  0
    2.9975   -4.1646    1.8749 H   0  0  0  0  0  0  0  0  0  0  0  0
    4.0094   -2.2313   -0.3577 H   0  0  0  0  0  0  0  0  0  0  0  0
    4.9611   -3.2533    0.7249 H   0  0  0  0  0  0  0  0  0  0  0  0
    5.2832   -0.2143    0.3681 H   0  0  0  0  0  0  0  0  0  0  0  0
    6.3505   -1.4704   -0.2777 H   0  0  0  0  0  0  0  0  0  0  0  0
    6.0275   -1.1137    2.6496 H   0  0  0  0  0  0  0  0  0  0  0  0
    9.2092   -0.6016    3.1649 H   0  0  0  0  0  0  0  0  0  0  0  0
    9.1467   -2.3673    3.1659 H   0  0  0  0  0  0  0  0  0  0  0  0
    7.7571    0.6672    4.8307 H   0  0  0  0  0  0  0  0  0  0  0  0
    4.9774   -2.2933    7.4998 H   0  0  0  0  0  0  0  0  0  0  0  0
    4.9094   -3.6063    6.3031 H   0  0  0  0  0  0  0  0  0  0  0  0
    3.5718   -1.0128    5.9311 H   0  0  0  0  0  0  0  0  0  0  0  0
    2.8101   -2.3757    6.4078 H   0  0  0  0  0  0  0  0  0  0  0  0
    6.8969   -3.4442    4.3165 H   0  0  0  0  0  0  0  0  0  0  0  0
  1  2  1  0
  1 17  1  0
  1 18  1  0
  1 19  1  0
  2  3  1  0
  2  4  1  0
  2 20  1  1
  3 21  1  0
  3 22  1  0
  3 23  1  0
  4  5  1  0
  4 24  1  0
  4 25  1  0
  5  6  1  0
  5 26  1  0
  5 27  1  0
  6  7  1  0
  6 28  1  0
  7  8  2  0
  7  9  1  0
  9 10  1  0
  9 29  1  0
  9 30  1  0
 10 11  1  0
 10 16  1  0
 11 12  2  0
 11 31  1  0
 12 13  1  0
 13 14  1  0
 13 16  2  0
 14 15  1  0
 14 32  1  0
 14 33  1  0
 15 34  1  0
 15 35  1  0
 16 36  1  0
M  END

