
     RDKit          3D

 61 62  0  0  0  0  0  0  0  0999 V2000
    7.7084   -0.0192    4.5299 C   0  0  0  0  0  0  0  0  0  0  0  0
    7.3925   -0.7279    3.2211 C   0  0  0  0  0  0  0  0  0  0  0  0
    7.1875   -1.9226    3.2141 O   0  0  0  0  0  0  0  0  0  0  0  0
    7.3818    0.0844    1.8993 C   0  0  1  0  0  0  0  0  0  0  0  0
    8.8363    0.5848    1.6821 C   0  0  0  0  0  0  0  0  0  0  0  0
    7.0313   -0.8589    0.7395 C   0  0  0  0  0  0  0  0  0  0  0  0
    6.4855    1.3622    1.9757 C   0  0  0  0  0  0  0  0  0  0  0  0
    4.9139    1.3063    1.9524 C   0  0  1  0  0  0  0  0  0  0  0  0
    4.3690    0.9640    0.5486 C   0  0  0  0  0  0  0  0  0  0  0  0
    4.3898    0.3545    3.0562 C   0  0  0  0  0  0  0  0  0  0  0  0
    2.8478    0.2294    3.2542 C   0  0  1  0  0  0  0  0  0  0  0  0
    2.2064   -0.8466    2.3623 C   0  0  0  0  0  0  0  0  0  0  0  0
    2.5397    0.0081    4.7355 C   0  0  0  0  0  0  0  0  0  0  0  0
    2.4809   -1.2713    5.3077 C   0  0  0  0  0  0  0  0  0  0  0  0
    2.2578   -1.4377    6.6804 C   0  0  0  0  0  0  0  0  0  0  0  0
    2.0859   -0.3292    7.5039 C   0  0  0  0  0  0  0  0  0  0  0  0
    2.1136    0.9640    6.9518 C   0  0  0  0  0  0  0  0  0  0  0  0
    1.9784    2.1272    7.8949 C   0  0  0  0  0  0  0  0  0  0  0  0
    2.3391    2.0118    9.0550 O   0  0  0  0  0  0  0  0  0  0  0  0
    1.3948    3.4323    7.4243 C   0  0  0  0  0  0  0  0  0  0  0  0
    1.7589    4.5985    8.1213 C   0  0  0  0  0  0  0  0  0  0  0  0
    1.2134    5.8328    7.7729 C   0  0  0  0  0  0  0  0  0  0  0  0
    0.2738    5.9162    6.7381 C   0  0  0  0  0  0  0  0  0  0  0  0
   -0.1151    4.7601    6.0560 C   0  0  0  0  0  0  0  0  0  0  0  0
    0.4458    3.5246    6.3919 C   0  0  0  0  0  0  0  0  0  0  0  0
    2.3503    1.1183    5.5766 C   0  0  0  0  0  0  0  0  0  0  0  0
    4.5112    2.7648    2.3212 C   0  0  0  0  0  0  0  0  0  0  0  0
    4.5351    3.8306    1.2376 C   0  0  0  0  0  0  0  0  0  0  0  0
    4.2028    3.0625    3.4555 O   0  0  0  0  0  0  0  0  0  0  0  0
    8.1157   -0.7555    5.2357 H   0  0  0  0  0  0  0  0  0  0  0  0
    6.7740    0.3743    4.9614 H   0  0  0  0  0  0  0  0  0  0  0  0
    8.4029    0.8251    4.4213 H   0  0  0  0  0  0  0  0  0  0  0  0
    9.5558   -0.2465    1.7515 H   0  0  0  0  0  0  0  0  0  0  0  0
    9.1305    1.3550    2.4108 H   0  0  0  0  0  0  0  0  0  0  0  0
    8.9313    1.0253    0.6768 H   0  0  0  0  0  0  0  0  0  0  0  0
    7.8023   -1.6366    0.6389 H   0  0  0  0  0  0  0  0  0  0  0  0
    6.9759   -0.3042   -0.2097 H   0  0  0  0  0  0  0  0  0  0  0  0
    6.0813   -1.3830    0.9027 H   0  0  0  0  0  0  0  0  0  0  0  0
    6.8010    2.0045    1.1359 H   0  0  0  0  0  0  0  0  0  0  0  0
    6.7803    1.9087    2.8870 H   0  0  0  0  0  0  0  0  0  0  0  0
    4.4694   -0.1052    0.3278 H   0  0  0  0  0  0  0  0  0  0  0  0
    4.9027    1.5138   -0.2410 H   0  0  0  0  0  0  0  0  0  0  0  0
    3.3013    1.2169    0.4613 H   0  0  0  0  0  0  0  0  0  0  0  0
    4.8139    0.7148    4.0022 H   0  0  0  0  0  0  0  0  0  0  0  0
    4.7978   -0.6542    2.8888 H   0  0  0  0  0  0  0  0  0  0  0  0
    2.3930    1.1981    2.9930 H   0  0  0  0  0  0  0  0  0  0  0  0
    2.6822   -1.8303    2.5031 H   0  0  0  0  0  0  0  0  0  0  0  0
    2.2958   -0.5979    1.2962 H   0  0  0  0  0  0  0  0  0  0  0  0
    1.1344   -0.9585    2.5893 H   0  0  0  0  0  0  0  0  0  0  0  0
    2.6173   -2.1574    4.6842 H   0  0  0  0  0  0  0  0  0  0  0  0
    2.2231   -2.4447    7.1044 H   0  0  0  0  0  0  0  0  0  0  0  0
    1.9303   -0.4377    8.5788 H   0  0  0  0  0  0  0  0  0  0  0  0
    2.4746    4.5091    8.9408 H   0  0  0  0  0  0  0  0  0  0  0  0
    1.5147    6.7344    8.3124 H   0  0  0  0  0  0  0  0  0  0  0  0
   -0.1598    6.8828    6.4683 H   0  0  0  0  0  0  0  0  0  0  0  0
   -0.8617    4.8187    5.2598 H   0  0  0  0  0  0  0  0  0  0  0  0
    0.1243    2.6252    5.8641 H   0  0  0  0  0  0  0  0  0  0  0  0
    2.4362    2.1187    5.1482 H   0  0  0  0  0  0  0  0  0  0  0  0
    5.4234    3.7599    0.5928 H   0  0  0  0  0  0  0  0  0  0  0  0
    4.4902    4.8191    1.7128 H   0  0  0  0  0  0  0  0  0  0  0  0
    3.6544    3.7144    0.5848 H   0  0  0  0  0  0  0  0  0  0  0  0
  1  2  1  0
  1 30  1  0
  1 31  1  0
  1 32  1  0
  2  3  2  0
  4  2  1  1
  4  5  1  0
  4  6  1  0
  4  7  1  0
  5 33  1  0
  5 34  1  0
  5 35  1  0
  6 36  1  0
  6 37  1  0
  6 38  1  0
  7  8  1  0
  7 39  1  0
  7 40  1  0
  8  9  1  0
  8 10  1  0
  8 27  1  1
  9 41  1  0
  9 42  1  0
  9 43  1  0
 10 11  1  0
 10 44  1  0
 10 45  1  0
 11 12  1  0
 11 13  1  0
 11 46  1  6
 12 47  1  0
 12 48  1  0
 12 49  1  0
 13 14  2  0
 13 26  1  0
 14 15  1  0
 14 50  1  0
 15 16  2  0
 15 51  1  0
 16 17  1  0
 16 52  1  0
 17 18  1  0
 17 26  2  0
 18 19  2  0
 18 20  1  0
 20 21  2  0
 20 25  1  0
 21 22  1  0
 21 53  1  0
 22 23  2  0
 22 54  1  0
 23 24  1  0
 23 55  1  0
 24 25  2  0
 24 56  1  0
 25 57  1  0
 26 58  1  0
 27 28  1  0
 27 29  2  0
 28 59  1  0
 28 60  1  0
 28 61  1  0
M  END

