
     RDKit          3D

 40 41  0  0  0  0  0  0  0  0999 V2000
    1.8151   -0.3019   -0.4373 C   0  0  0  0  0  0  0  0  0  0  0  0
    1.0197    0.9286   -0.0691 C   0  0  0  0  0  0  0  0  0  0  0  0
    1.2935    2.2573   -0.7129 C   0  0  0  0  0  0  0  0  0  0  0  0
    0.7126    3.2785   -0.3680 O   0  0  0  0  0  0  0  0  0  0  0  0
    2.2432    2.2302   -1.7138 N   0  0  0  0  0  0  0  0  0  0  0  0
    2.7350    3.2882   -2.5029 C   0  0  0  0  0  0  0  0  0  0  0  0
    2.2956    4.6153   -2.3904 C   0  0  0  0  0  0  0  0  0  0  0  0
    2.8488    5.5780   -3.2369 C   0  0  0  0  0  0  0  0  0  0  0  0
    3.8271    5.2915   -4.1963 C   0  0  0  0  0  0  0  0  0  0  0  0
    4.3155    6.3682   -5.1323 C   0  0  0  0  0  0  0  0  0  0  0  0
    4.2876    3.9514   -4.2893 C   0  0  0  0  0  0  0  0  0  0  0  0
    5.2732    3.6071   -5.2539 N   0  0  0  0  0  0  0  0  0  0  0  0
    6.6170    4.1108   -5.0105 C   0  0  0  0  0  0  0  0  0  0  0  0
    5.2767    2.2490   -5.7564 C   0  0  0  0  0  0  0  0  0  0  0  0
    3.7284    2.9771   -3.4483 C   0  0  0  0  0  0  0  0  0  0  0  0
    0.0424    0.8833    0.8519 C   0  0  0  0  0  0  0  0  0  0  0  0
   -0.5624   -0.2013    1.7220 C   0  0  0  0  0  0  0  0  0  0  0  0
   -1.6514    0.7338    2.0837 N   0  0  0  0  0  0  0  0  0  0  0  0
   -0.9495    1.8670    1.4275 C   0  0  0  0  0  0  0  0  0  0  0  0
    2.8959   -0.1642   -0.2570 H   0  0  0  0  0  0  0  0  0  0  0  0
    1.6896   -0.5727   -1.5014 H   0  0  0  0  0  0  0  0  0  0  0  0
    1.4971   -1.1727    0.1529 H   0  0  0  0  0  0  0  0  0  0  0  0
    2.6511    1.3282   -1.9215 H   0  0  0  0  0  0  0  0  0  0  0  0
    1.5270    4.8700   -1.6659 H   0  0  0  0  0  0  0  0  0  0  0  0
    2.4773    6.6047   -3.1639 H   0  0  0  0  0  0  0  0  0  0  0  0
    3.5589    7.1593   -5.2443 H   0  0  0  0  0  0  0  0  0  0  0  0
    4.5383    5.9489   -6.1255 H   0  0  0  0  0  0  0  0  0  0  0  0
    5.2388    6.8581   -4.7739 H   0  0  0  0  0  0  0  0  0  0  0  0
    6.5942    5.1586   -4.6866 H   0  0  0  0  0  0  0  0  0  0  0  0
    7.2131    4.0558   -5.9366 H   0  0  0  0  0  0  0  0  0  0  0  0
    7.1513    3.5291   -4.2275 H   0  0  0  0  0  0  0  0  0  0  0  0
    4.2543    1.9317   -6.0081 H   0  0  0  0  0  0  0  0  0  0  0  0
    5.7069    1.5049   -5.0488 H   0  0  0  0  0  0  0  0  0  0  0  0
    5.8836    2.2046   -6.6757 H   0  0  0  0  0  0  0  0  0  0  0  0
    4.0823    1.9459   -3.5161 H   0  0  0  0  0  0  0  0  0  0  0  0
    0.1055   -0.5026    2.5553 H   0  0  0  0  0  0  0  0  0  0  0  0
   -0.8959   -1.1244    1.2112 H   0  0  0  0  0  0  0  0  0  0  0  0
   -1.8106    0.8413    3.0831 H   0  0  0  0  0  0  0  0  0  0  0  0
   -0.4753    2.6039    2.1039 H   0  0  0  0  0  0  0  0  0  0  0  0
   -1.5490    2.4354    0.6971 H   0  0  0  0  0  0  0  0  0  0  0  0
  1  2  1  0
  1 20  1  0
  1 21  1  0
  1 22  1  0
  2  3  1  0
  2 16  2  0
  3  4  2  0
  3  5  1  0
  5  6  1  0
  5 23  1  0
  6  7  2  0
  6 15  1  0
  7  8  1  0
  7 24  1  0
  8  9  2  0
  8 25  1  0
  9 10  1  0
  9 11  1  0
 10 26  1  0
 10 27  1  0
 10 28  1  0
 11 12  1  0
 11 15  2  0
 12 13  1  0
 12 14  1  0
 13 29  1  0
 13 30  1  0
 13 31  1  0
 14 32  1  0
 14 33  1  0
 14 34  1  0
 15 35  1  0
 16 17  1  0
 16 19  1  0
 17 18  1  0
 17 36  1  0
 17 37  1  0
 18 19  1  0
 18 38  1  0
 19 39  1  0
 19 40  1  0
M  END

