
     RDKit          3D

 38 40  0  0  0  0  0  0  0  0999 V2000
    0.8328   -0.5570   -0.5345 C   0  0  0  0  0  0  0  0  0  0  0  0
    2.2262   -0.4520   -0.9418 N   0  0  0  0  0  0  0  0  0  0  0  0
    2.6755   -1.4641   -1.8824 C   0  0  0  0  0  0  0  0  0  0  0  0
    3.0135    0.4988   -0.3516 C   0  0  0  0  0  0  0  0  0  0  0  0
    2.5672    1.3060    0.4570 O   0  0  0  0  0  0  0  0  0  0  0  0
    4.5189    0.5312   -0.7285 C   0  0  1  0  0  0  0  0  0  0  0  0
    5.1951    1.8144   -0.1952 C   0  0  0  0  0  0  0  0  0  0  0  0
    5.3462    1.8374    1.2501 N   0  0  0  0  0  0  0  0  0  0  0  0
    5.9955    0.6359    1.7467 C   0  0  0  0  0  0  0  0  0  0  0  0
    5.3356   -0.6697    1.2648 C   0  0  0  0  0  0  0  0  0  0  0  0
    5.1914   -0.6708   -0.2026 N   0  0  0  0  0  0  0  0  0  0  0  0
    6.0410   -1.4002   -0.9984 C   0  0  0  0  0  0  0  0  0  0  0  0
    6.7426   -0.7812   -2.4771 S   0  0  0  0  0  0  0  0  0  0  0  0
    7.5889   -2.1506   -2.8882 N   0  0  0  0  0  0  0  0  0  0  0  0
    7.4035   -3.0649   -1.9343 C   0  0  0  0  0  0  0  0  0  0  0  0
    7.9968   -4.3689   -1.9706 C   0  0  0  0  0  0  0  0  0  0  0  0
    7.6935   -5.2758   -0.9871 C   0  0  0  0  0  0  0  0  0  0  0  0
    6.7850   -4.9521    0.0702 C   0  0  0  0  0  0  0  0  0  0  0  0
    6.2084   -3.7067    0.1495 C   0  0  0  0  0  0  0  0  0  0  0  0
    6.5206   -2.7182   -0.8352 C   0  0  0  0  0  0  0  0  0  0  0  0
    0.6344   -1.5408   -0.0729 H   0  0  0  0  0  0  0  0  0  0  0  0
    0.1660   -0.4483   -1.4071 H   0  0  0  0  0  0  0  0  0  0  0  0
    0.6148    0.2350    0.1902 H   0  0  0  0  0  0  0  0  0  0  0  0
    1.9197   -1.5827   -2.6762 H   0  0  0  0  0  0  0  0  0  0  0  0
    2.8123   -2.4452   -1.3934 H   0  0  0  0  0  0  0  0  0  0  0  0
    3.6208   -1.1936   -2.3644 H   0  0  0  0  0  0  0  0  0  0  0  0
    4.6018    0.5161   -1.8253 H   0  0  0  0  0  0  0  0  0  0  0  0
    4.6200    2.6949   -0.5162 H   0  0  0  0  0  0  0  0  0  0  0  0
    6.1950    1.8819   -0.6597 H   0  0  0  0  0  0  0  0  0  0  0  0
    4.4184    1.9367    1.6615 H   0  0  0  0  0  0  0  0  0  0  0  0
    6.0058    0.6524    2.8493 H   0  0  0  0  0  0  0  0  0  0  0  0
    7.0505    0.6384    1.4155 H   0  0  0  0  0  0  0  0  0  0  0  0
    4.3371   -0.7789    1.7246 H   0  0  0  0  0  0  0  0  0  0  0  0
    5.9387   -1.5336    1.5663 H   0  0  0  0  0  0  0  0  0  0  0  0
    8.6735   -4.6091   -2.7928 H   0  0  0  0  0  0  0  0  0  0  0  0
    8.1420   -6.2726   -1.0123 H   0  0  0  0  0  0  0  0  0  0  0  0
    6.5430   -5.7117    0.8173 H   0  0  0  0  0  0  0  0  0  0  0  0
    5.4998   -3.4873    0.9500 H   0  0  0  0  0  0  0  0  0  0  0  0
  1  2  1  0
  1 21  1  0
  1 22  1  0
  1 23  1  0
  2  3  1  0
  2  4  1  0
  3 24  1  0
  3 25  1  0
  3 26  1  0
  4  5  2  0
  4  6  1  0
  6  7  1  0
  6 11  1  0
  6 27  1  6
  7  8  1  0
  7 28  1  0
  7 29  1  0
  8  9  1  0
  8 30  1  0
  9 10  1  0
  9 31  1  0
  9 32  1  0
 10 11  1  0
 10 33  1  0
 10 34  1  0
 11 12  1  0
 12 13  1  0
 12 20  2  0
 13 14  1  0
 14 15  2  0
 15 16  1  0
 15 20  1  0
 16 17  2  0
 16 35  1  0
 17 18  1  0
 17 36  1  0
 18 19  2  0
 18 37  1  0
 19 20  1  0
 19 38  1  0
M  END

