
     RDKit          3D

 43 44  0  0  0  0  0  0  0  0999 V2000
    1.1862   -0.1210   -0.1015 C   0  0  0  0  0  0  0  0  0  0  0  0
    2.7061   -0.2490    0.0216 C   0  0  0  0  0  0  0  0  0  0  0  0
    3.3597    0.7154    1.0433 C   0  0  1  0  0  0  0  0  0  0  0  0
    3.0427    0.3141    2.4996 C   0  0  0  0  0  0  0  0  0  0  0  0
    3.4733    1.3472    3.5416 C   0  0  0  0  0  0  0  0  0  0  0  0
    4.8528    0.8080    0.8085 C   0  0  0  0  0  0  0  0  0  0  0  0
    5.6389   -0.1862    1.1922 N   0  0  0  0  0  0  0  0  0  0  0  0
    6.9022    0.1946    0.8628 N   0  0  0  0  0  0  0  0  0  0  0  0
    8.0183   -0.6818    1.1218 C   0  0  0  0  0  0  0  0  0  0  0  0
    6.9354    1.4233    0.2837 C   0  0  0  0  0  0  0  0  0  0  0  0
    8.1070    1.9847   -0.1902 N   0  0  0  0  0  0  0  0  0  0  0  0
    5.6083    1.8772    0.2134 C   0  0  0  0  0  0  0  0  0  0  0  0
    5.0976    3.1226   -0.3861 C   0  0  0  0  0  0  0  0  0  0  0  0
    3.9524    3.0874   -1.2022 C   0  0  0  0  0  0  0  0  0  0  0  0
    3.3985    4.2492   -1.7422 C   0  0  0  0  0  0  0  0  0  0  0  0
    1.9573    4.1339   -2.7342 Cl  0  0  0  0  0  0  0  0  0  0  0  0
    3.9827    5.4907   -1.5054 C   0  0  0  0  0  0  0  0  0  0  0  0
    5.1357    5.5536   -0.7173 C   0  0  0  0  0  0  0  0  0  0  0  0
    5.6896    4.3947   -0.1606 C   0  0  0  0  0  0  0  0  0  0  0  0
    6.8167    4.4182    0.6190 O   0  0  0  0  0  0  0  0  0  0  0  0
    7.3084    5.6533    1.0953 C   0  0  0  0  0  0  0  0  0  0  0  0
    0.7891   -0.8303   -0.8456 H   0  0  0  0  0  0  0  0  0  0  0  0
    0.8971    0.8934   -0.4251 H   0  0  0  0  0  0  0  0  0  0  0  0
    0.6708   -0.3246    0.8505 H   0  0  0  0  0  0  0  0  0  0  0  0
    3.1587   -0.0759   -0.9700 H   0  0  0  0  0  0  0  0  0  0  0  0
    2.9870   -1.2818    0.2917 H   0  0  0  0  0  0  0  0  0  0  0  0
    2.9372    1.7204    0.8720 H   0  0  0  0  0  0  0  0  0  0  0  0
    3.5375   -0.6494    2.7056 H   0  0  0  0  0  0  0  0  0  0  0  0
    1.9577    0.1390    2.5935 H   0  0  0  0  0  0  0  0  0  0  0  0
    4.5608    1.5189    3.5101 H   0  0  0  0  0  0  0  0  0  0  0  0
    3.2174    1.0147    4.5608 H   0  0  0  0  0  0  0  0  0  0  0  0
    2.9775    2.3187    3.3751 H   0  0  0  0  0  0  0  0  0  0  0  0
    7.6152   -1.5892    1.5869 H   0  0  0  0  0  0  0  0  0  0  0  0
    8.7452   -0.2238    1.8161 H   0  0  0  0  0  0  0  0  0  0  0  0
    8.5416   -0.9580    0.1904 H   0  0  0  0  0  0  0  0  0  0  0  0
    8.9554    1.6215    0.2335 H   0  0  0  0  0  0  0  0  0  0  0  0
    8.0750    3.0013   -0.1466 H   0  0  0  0  0  0  0  0  0  0  0  0
    3.4922    2.1278   -1.4320 H   0  0  0  0  0  0  0  0  0  0  0  0
    3.5502    6.3969   -1.9318 H   0  0  0  0  0  0  0  0  0  0  0  0
    5.5934    6.5264   -0.5380 H   0  0  0  0  0  0  0  0  0  0  0  0
    8.1327    5.4175    1.7825 H   0  0  0  0  0  0  0  0  0  0  0  0
    6.5312    6.2120    1.6452 H   0  0  0  0  0  0  0  0  0  0  0  0
    7.6960    6.2901    0.2799 H   0  0  0  0  0  0  0  0  0  0  0  0
  1  2  1  0
  1 22  1  0
  1 23  1  0
  1 24  1  0
  2  3  1  0
  2 25  1  0
  2 26  1  0
  3  4  1  0
  3  6  1  0
  3 27  1  6
  4  5  1  0
  4 28  1  0
  4 29  1  0
  5 30  1  0
  5 31  1  0
  5 32  1  0
  6  7  2  0
  6 12  1  0
  7  8  1  0
  8  9  1  0
  8 10  1  0
  9 33  1  0
  9 34  1  0
  9 35  1  0
 10 11  1  0
 10 12  2  0
 11 36  1  0
 11 37  1  0
 12 13  1  0
 13 14  2  0
 13 19  1  0
 14 15  1  0
 14 38  1  0
 15 16  1  0
 15 17  2  0
 17 18  1  0
 17 39  1  0
 18 19  2  0
 18 40  1  0
 19 20  1  0
 20 21  1  0
 21 41  1  0
 21 42  1  0
 21 43  1  0
M  END

