
     RDKit          3D

 63 69  0  0  0  0  0  0  0  0999 V2000
    0.8480   -0.4595   -0.1980 C   0  0  0  0  0  0  0  0  0  0  0  0
    2.3363   -0.2402   -0.2408 C   0  0  0  0  0  0  0  0  0  0  0  0
    2.9017    1.0388   -0.2087 C   0  0  0  0  0  0  0  0  0  0  0  0
    4.3032    1.1411   -0.2573 C   0  0  0  0  0  0  0  0  0  0  0  0
    5.0135    2.4478   -0.2308 C   0  0  0  0  0  0  0  0  0  0  0  0
    4.3656    3.6493    0.1082 C   0  0  0  0  0  0  0  0  0  0  0  0
    5.0557    4.8592    0.1238 C   0  0  0  0  0  0  0  0  0  0  0  0
    6.4237    4.9250   -0.2024 C   0  0  0  0  0  0  0  0  0  0  0  0
    7.1581    6.2169   -0.1900 C   0  0  0  0  0  0  0  0  0  0  0  0
    6.8676    7.2083    0.7672 C   0  0  0  0  0  0  0  0  0  0  0  0
    7.5585    8.4214    0.7790 C   0  0  0  0  0  0  0  0  0  0  0  0
    8.5560    8.6737   -0.1676 C   0  0  0  0  0  0  0  0  0  0  0  0
    8.8562    7.7003   -1.1253 C   0  0  0  0  0  0  0  0  0  0  0  0
    8.1664    6.4865   -1.1355 C   0  0  0  0  0  0  0  0  0  0  0  0
    7.0692    3.7192   -0.5390 C   0  0  0  0  0  0  0  0  0  0  0  0
    6.3823    2.5087   -0.5487 C   0  0  0  0  0  0  0  0  0  0  0  0
    5.0519    0.0326   -0.3420 N   0  0  0  0  0  0  0  0  0  0  0  0
    4.4344   -1.1547   -0.3655 C   0  0  0  0  0  0  0  0  0  0  0  0
    5.2824   -2.3752   -0.4518 C   0  0  0  0  0  0  0  0  0  0  0  0
    6.6845   -2.2826   -0.4533 C   0  0  0  0  0  0  0  0  0  0  0  0
    7.4754   -3.4270   -0.5270 C   0  0  0  0  0  0  0  0  0  0  0  0
    6.8790   -4.6952   -0.6164 C   0  0  0  0  0  0  0  0  0  0  0  0
    7.6821   -5.8615   -0.6993 N   0  0  0  0  0  0  0  0  0  0  0  0
    7.6139   -6.9651    0.1585 C   0  0  0  0  0  0  0  0  0  0  0  0
    6.8024   -7.1745    1.2812 C   0  0  0  0  0  0  0  0  0  0  0  0
    6.9558   -8.3711    1.9827 C   0  0  0  0  0  0  0  0  0  0  0  0
    7.8964   -9.3402    1.5856 C   0  0  0  0  0  0  0  0  0  0  0  0
    8.7119   -9.1220    0.4761 C   0  0  0  0  0  0  0  0  0  0  0  0
    8.5786   -7.9274   -0.2464 C   0  0  0  0  0  0  0  0  0  0  0  0
    9.2571   -7.3780   -1.4039 C   0  0  0  0  0  0  0  0  0  0  0  0
   10.2752   -7.8523   -2.2437 C   0  0  0  0  0  0  0  0  0  0  0  0
   10.6971   -7.0637   -3.3131 C   0  0  0  0  0  0  0  0  0  0  0  0
   10.1042   -5.8099   -3.5540 C   0  0  0  0  0  0  0  0  0  0  0  0
    9.0900   -5.3141   -2.7335 C   0  0  0  0  0  0  0  0  0  0  0  0
    8.6786   -6.1034   -1.6515 C   0  0  0  0  0  0  0  0  0  0  0  0
    5.4783   -4.7950   -0.6215 C   0  0  0  0  0  0  0  0  0  0  0  0
    4.6923   -3.6485   -0.5318 C   0  0  0  0  0  0  0  0  0  0  0  0
    3.1071   -1.3308   -0.3150 N   0  0  0  0  0  0  0  0  0  0  0  0
    0.2902    0.4848   -0.1280 H   0  0  0  0  0  0  0  0  0  0  0  0
    0.5874   -1.0947    0.6635 H   0  0  0  0  0  0  0  0  0  0  0  0
    0.5223   -1.0011   -1.1005 H   0  0  0  0  0  0  0  0  0  0  0  0
    2.2622    1.9197   -0.1642 H   0  0  0  0  0  0  0  0  0  0  0  0
    3.3071    3.6508    0.3743 H   0  0  0  0  0  0  0  0  0  0  0  0
    4.5160    5.7752    0.3736 H   0  0  0  0  0  0  0  0  0  0  0  0
    6.1085    7.0160    1.5290 H   0  0  0  0  0  0  0  0  0  0  0  0
    7.3214    9.1713    1.5382 H   0  0  0  0  0  0  0  0  0  0  0  0
    9.0965    9.6234   -0.1589 H   0  0  0  0  0  0  0  0  0  0  0  0
    9.6283    7.8897   -1.8756 H   0  0  0  0  0  0  0  0  0  0  0  0
    8.3955    5.7456   -1.9049 H   0  0  0  0  0  0  0  0  0  0  0  0
    8.1361    3.7270   -0.7732 H   0  0  0  0  0  0  0  0  0  0  0  0
    6.8982    1.5821   -0.8011 H   0  0  0  0  0  0  0  0  0  0  0  0
    7.1454   -1.2974   -0.3781 H   0  0  0  0  0  0  0  0  0  0  0  0
    8.5638   -3.3462   -0.5015 H   0  0  0  0  0  0  0  0  0  0  0  0
    6.0765   -6.4269    1.6039 H   0  0  0  0  0  0  0  0  0  0  0  0
    6.3321   -8.5556    2.8612 H   0  0  0  0  0  0  0  0  0  0  0  0
    7.9897  -10.2672    2.1562 H   0  0  0  0  0  0  0  0  0  0  0  0
    9.4494   -9.8702    0.1744 H   0  0  0  0  0  0  0  0  0  0  0  0
   10.7285   -8.8304   -2.0634 H   0  0  0  0  0  0  0  0  0  0  0  0
   11.4901   -7.4215   -3.9741 H   0  0  0  0  0  0  0  0  0  0  0  0
   10.4414   -5.2101   -4.4033 H   0  0  0  0  0  0  0  0  0  0  0  0
    8.6317   -4.3451   -2.9355 H   0  0  0  0  0  0  0  0  0  0  0  0
    5.0103   -5.7774   -0.7091 H   0  0  0  0  0  0  0  0  0  0  0  0
    3.6041   -3.7186   -0.5361 H   0  0  0  0  0  0  0  0  0  0  0  0
  1  2  1  0
  1 39  1  0
  1 40  1  0
  1 41  1  0
  2  3  2  0
  2 38  1  0
  3  4  1  0
  3 42  1  0
  4  5  1  0
  4 17  2  0
  5  6  2  0
  5 16  1  0
  6  7  1  0
  6 43  1  0
  7  8  2  0
  7 44  1  0
  8  9  1  0
  8 15  1  0
  9 10  2  0
  9 14  1  0
 10 11  1  0
 10 45  1  0
 11 12  2  0
 11 46  1  0
 12 13  1  0
 12 47  1  0
 13 14  2  0
 13 48  1  0
 14 49  1  0
 15 16  2  0
 15 50  1  0
 16 51  1  0
 17 18  1  0
 18 19  1  0
 18 38  2  0
 19 20  2  0
 19 37  1  0
 20 21  1  0
 20 52  1  0
 21 22  2  0
 21 53  1  0
 22 23  1  0
 22 36  1  0
 23 24  1  0
 23 35  1  0
 24 25  2  0
 24 29  1  0
 25 26  1  0
 25 54  1  0
 26 27  2  0
 26 55  1  0
 27 28  1  0
 27 56  1  0
 28 29  2  0
 28 57  1  0
 29 30  1  0
 30 31  1  0
 30 35  2  0
 31 32  2  0
 31 58  1  0
 32 33  1  0
 32 59  1  0
 33 34  2  0
 33 60  1  0
 34 35  1  0
 34 61  1  0
 36 37  2  0
 36 62  1  0
 37 63  1  0
M  END

