
     RDKit          3D

 37 38  0  0  0  0  0  0  0  0999 V2000
    0.8467    0.2105   -0.4258 N   0  0  0  0  0  0  0  0  0  0  0  0
    2.2877    0.0198   -0.2356 C   0  0  1  0  0  0  0  0  0  0  0  0
    2.7652   -1.4479   -0.3455 C   0  0  0  0  0  0  0  0  0  0  0  0
    2.6896   -1.9853   -1.7807 C   0  0  0  0  0  0  0  0  0  0  0  0
    3.4617   -1.0863   -2.7551 C   0  0  0  0  0  0  0  0  0  0  0  0
    3.0004    0.3750   -2.6600 C   0  0  0  0  0  0  0  0  0  0  0  0
    3.0577    0.9370   -1.2216 C   0  0  2  0  0  0  0  0  0  0  0  0
    4.5036    1.1983   -0.7285 C   0  0  0  0  0  0  0  0  0  0  0  0
    5.2621    2.1859   -1.6058 C   0  0  0  0  0  0  0  0  0  0  0  0
    5.9804    1.8230   -2.5213 O   0  0  0  0  0  0  0  0  0  0  0  0
    5.0289    3.5108   -1.2940 N   0  0  0  0  0  0  0  0  0  0  0  0
    5.5123    4.6714   -1.9247 C   0  0  0  0  0  0  0  0  0  0  0  0
    5.1013    5.9157   -1.4117 C   0  0  0  0  0  0  0  0  0  0  0  0
    5.5391    7.1093   -1.9825 C   0  0  0  0  0  0  0  0  0  0  0  0
    6.4003    7.0687   -3.0820 C   0  0  0  0  0  0  0  0  0  0  0  0
    7.0064    8.6969   -3.8715 Br  0  0  0  0  0  0  0  0  0  0  0  0
    6.8178    5.8423   -3.6031 C   0  0  0  0  0  0  0  0  0  0  0  0
    6.3799    4.6455   -3.0321 C   0  0  0  0  0  0  0  0  0  0  0  0
    0.3275   -0.3442    0.2557 H   0  0  0  0  0  0  0  0  0  0  0  0
    0.5515   -0.1270   -1.3422 H   0  0  0  0  0  0  0  0  0  0  0  0
    2.5067    0.3711    0.7887 H   0  0  0  0  0  0  0  0  0  0  0  0
    2.1626   -2.0734    0.3364 H   0  0  0  0  0  0  0  0  0  0  0  0
    3.8066   -1.5231    0.0161 H   0  0  0  0  0  0  0  0  0  0  0  0
    1.6310   -2.0414   -2.0961 H   0  0  0  0  0  0  0  0  0  0  0  0
    3.0705   -3.0193   -1.8198 H   0  0  0  0  0  0  0  0  0  0  0  0
    3.3391   -1.4476   -3.7898 H   0  0  0  0  0  0  0  0  0  0  0  0
    4.5430   -1.1466   -2.5410 H   0  0  0  0  0  0  0  0  0  0  0  0
    1.9588    0.4503   -3.0208 H   0  0  0  0  0  0  0  0  0  0  0  0
    3.5990    1.0032   -3.3374 H   0  0  0  0  0  0  0  0  0  0  0  0
    2.5248    1.9029   -1.2116 H   0  0  0  0  0  0  0  0  0  0  0  0
    5.0978    0.2744   -0.7279 H   0  0  0  0  0  0  0  0  0  0  0  0
    4.4649    1.5644    0.3120 H   0  0  0  0  0  0  0  0  0  0  0  0
    4.4121    3.6784   -0.5078 H   0  0  0  0  0  0  0  0  0  0  0  0
    4.4262    5.9528   -0.5514 H   0  0  0  0  0  0  0  0  0  0  0  0
    5.2106    8.0658   -1.5728 H   0  0  0  0  0  0  0  0  0  0  0  0
    7.4908    5.8140   -4.4619 H   0  0  0  0  0  0  0  0  0  0  0  0
    6.7024    3.6877   -3.4332 H   0  0  0  0  0  0  0  0  0  0  0  0
  1  2  1  0
  1 19  1  0
  1 20  1  0
  2  3  1  0
  2  7  1  0
  2 21  1  1
  3  4  1  0
  3 22  1  0
  3 23  1  0
  4  5  1  0
  4 24  1  0
  4 25  1  0
  5  6  1  0
  5 26  1  0
  5 27  1  0
  6  7  1  0
  6 28  1  0
  6 29  1  0
  7  8  1  0
  7 30  1  6
  8  9  1  0
  8 31  1  0
  8 32  1  0
  9 10  2  0
  9 11  1  0
 11 12  1  0
 11 33  1  0
 12 13  2  0
 12 18  1  0
 13 14  1  0
 13 34  1  0
 14 15  2  0
 14 35  1  0
 15 16  1  0
 15 17  1  0
 17 18  2  0
 17 36  1  0
 18 37  1  0
M  END

