
     RDKit          3D

 31 32  0  0  0  0  0  0  0  0999 V2000
    1.4300    0.8821   -0.8483 C   0  0  0  0  0  0  0  0  0  0  0  0
    2.7167    0.2602   -0.2987 C   0  0  0  0  0  0  0  0  0  0  0  0
    3.4428    1.1138    0.7365 C   0  0  2  0  0  0  0  0  0  0  0  0
    4.7910    0.6028    1.3187 C   0  0  1  0  0  0  0  0  0  0  0  0
    6.0968    1.0295    0.6652 C   0  0  0  0  0  0  0  0  0  0  0  0
    4.3835    1.2176    2.6812 C   0  0  0  0  0  0  0  0  0  0  0  0
    2.9109    1.2574    2.1931 C   0  0  2  0  0  0  0  0  0  0  0  0
    1.9607    0.2062    2.8315 C   0  0  0  0  0  0  0  0  0  0  0  0
    1.3438    1.3390    3.6971 C   0  0  2  0  0  0  0  0  0  0  0  0
   -0.1572    1.3488    3.9423 C   0  0  0  0  0  0  0  0  0  0  0  0
    1.9589    2.3632    2.7045 C   0  0  0  0  0  0  0  0  0  0  0  0
    0.9646    0.2369   -1.6110 H   0  0  0  0  0  0  0  0  0  0  0  0
    1.6284    1.8607   -1.3167 H   0  0  0  0  0  0  0  0  0  0  0  0
    0.6826    1.0452   -0.0550 H   0  0  0  0  0  0  0  0  0  0  0  0
    3.4112    0.0685   -1.1373 H   0  0  0  0  0  0  0  0  0  0  0  0
    2.4962   -0.7315    0.1358 H   0  0  0  0  0  0  0  0  0  0  0  0
    3.5971    2.1305    0.3261 H   0  0  0  0  0  0  0  0  0  0  0  0
    4.7535   -0.4992    1.3877 H   0  0  0  0  0  0  0  0  0  0  0  0
    6.1628    2.1284    0.5912 H   0  0  0  0  0  0  0  0  0  0  0  0
    6.1908    0.6197   -0.3547 H   0  0  0  0  0  0  0  0  0  0  0  0
    6.9702    0.6812    1.2422 H   0  0  0  0  0  0  0  0  0  0  0  0
    4.7941    2.2350    2.8004 H   0  0  0  0  0  0  0  0  0  0  0  0
    4.6047    0.6414    3.5948 H   0  0  0  0  0  0  0  0  0  0  0  0
    2.4209   -0.6503    3.3515 H   0  0  0  0  0  0  0  0  0  0  0  0
    1.2247   -0.1822    2.1082 H   0  0  0  0  0  0  0  0  0  0  0  0
    1.8762    1.3973    4.6619 H   0  0  0  0  0  0  0  0  0  0  0  0
   -0.7157    1.2923    2.9922 H   0  0  0  0  0  0  0  0  0  0  0  0
   -0.4744    2.2694    4.4607 H   0  0  0  0  0  0  0  0  0  0  0  0
   -0.4699    0.4928    4.5641 H   0  0  0  0  0  0  0  0  0  0  0  0
    2.4224    3.2735    3.1199 H   0  0  0  0  0  0  0  0  0  0  0  0
    1.2301    2.6638    1.9327 H   0  0  0  0  0  0  0  0  0  0  0  0
  1  2  1  0
  1 12  1  0
  1 13  1  0
  1 14  1  0
  2  3  1  0
  2 15  1  0
  2 16  1  0
  3  4  1  0
  3  7  1  0
  3 17  1  6
  4  5  1  0
  4  6  1  0
  4 18  1  1
  5 19  1  0
  5 20  1  0
  5 21  1  0
  7  6  1  1
  6 22  1  0
  6 23  1  0
  7  8  1  0
  7 11  1  0
  8  9  1  0
  8 24  1  0
  8 25  1  0
  9 10  1  0
  9 11  1  0
  9 26  1  1
 10 27  1  0
 10 28  1  0
 10 29  1  0
 11 30  1  0
 11 31  1  0
M  END

