
     RDKit          3D

 32 33  0  0  0  0  0  0  0  0999 V2000
    3.3964   -1.4286    0.7971 C   0  0  0  0  0  0  0  0  0  0  0  0
    3.1375   -0.0702    0.1845 C   0  0  0  0  0  0  0  0  0  0  0  0
    2.6101    0.8070    0.8428 O   0  0  0  0  0  0  0  0  0  0  0  0
    3.5261    0.2245   -1.2490 C   0  0  0  0  0  0  0  0  0  0  0  0
    3.2304    1.5234   -1.7003 C   0  0  0  0  0  0  0  0  0  0  0  0
    3.5268    1.9021   -2.9973 C   0  0  0  0  0  0  0  0  0  0  0  0
    3.2293    3.1421   -3.4183 F   0  0  0  0  0  0  0  0  0  0  0  0
    4.1405    1.0185   -3.8822 C   0  0  0  0  0  0  0  0  0  0  0  0
    4.4680   -0.2736   -3.4605 C   0  0  0  0  0  0  0  0  0  0  0  0
    5.2038   -1.2098   -4.3790 C   0  0  0  0  0  0  0  0  0  0  0  0
    4.0985   -2.6425   -4.8489 S   0  0  0  0  0  0  0  0  0  0  0  0
    5.2792   -3.8626   -5.3984 C   0  0  0  0  0  0  0  0  0  0  0  0
    5.2281   -4.3493   -6.7130 C   0  0  0  0  0  0  0  0  0  0  0  0
    6.0998   -5.3627   -7.1067 C   0  0  0  0  0  0  0  0  0  0  0  0
    6.0385   -5.8185   -8.3637 F   0  0  0  0  0  0  0  0  0  0  0  0
    7.0380   -5.9061   -6.2309 C   0  0  0  0  0  0  0  0  0  0  0  0
    7.0973   -5.4246   -4.9208 C   0  0  0  0  0  0  0  0  0  0  0  0
    6.2186   -4.4239   -4.5204 C   0  0  0  0  0  0  0  0  0  0  0  0
    6.2779   -3.9771   -3.2518 F   0  0  0  0  0  0  0  0  0  0  0  0
    4.1403   -0.6845   -2.1419 C   0  0  0  0  0  0  0  0  0  0  0  0
    4.4396   -1.9361   -1.7223 O   0  0  0  0  0  0  0  0  0  0  0  0
    3.0364   -1.4093    1.8338 H   0  0  0  0  0  0  0  0  0  0  0  0
    4.4675   -1.6782    0.7661 H   0  0  0  0  0  0  0  0  0  0  0  0
    2.8869   -2.2196    0.2270 H   0  0  0  0  0  0  0  0  0  0  0  0
    2.7559    2.2169   -1.0048 H   0  0  0  0  0  0  0  0  0  0  0  0
    4.3759    1.3536   -4.8947 H   0  0  0  0  0  0  0  0  0  0  0  0
    6.0882   -1.6346   -3.8819 H   0  0  0  0  0  0  0  0  0  0  0  0
    5.5216   -0.6981   -5.2966 H   0  0  0  0  0  0  0  0  0  0  0  0
    4.5135   -3.9396   -7.4285 H   0  0  0  0  0  0  0  0  0  0  0  0
    7.7079   -6.6940   -6.5790 H   0  0  0  0  0  0  0  0  0  0  0  0
    7.8129   -5.8235   -4.1994 H   0  0  0  0  0  0  0  0  0  0  0  0
    4.5211   -2.5408   -2.4827 H   0  0  0  0  0  0  0  0  0  0  0  0
  1  2  1  0
  1 22  1  0
  1 23  1  0
  1 24  1  0
  2  3  2  0
  2  4  1  0
  4  5  2  0
  4 20  1  0
  5  6  1  0
  5 25  1  0
  6  7  1  0
  6  8  2  0
  8  9  1  0
  8 26  1  0
  9 10  1  0
  9 20  2  0
 10 11  1  0
 10 27  1  0
 10 28  1  0
 11 12  1  0
 12 13  2  0
 12 18  1  0
 13 14  1  0
 13 29  1  0
 14 15  1  0
 14 16  2  0
 16 17  1  0
 16 30  1  0
 17 18  2  0
 17 31  1  0
 18 19  1  0
 20 21  1  0
 21 32  1  0
M  END

