
     RDKit          3D

 71 75  0  0  0  0  0  0  0  0999 V2000
    7.9060    5.3106   -1.8688 C   0  0  0  0  0  0  0  0  0  0  0  0
    7.7337    3.8503   -1.5265 C   0  0  0  0  0  0  0  0  0  0  0  0
    8.3864    2.8433   -2.2555 C   0  0  0  0  0  0  0  0  0  0  0  0
    8.2274    1.4947   -1.9313 C   0  0  0  0  0  0  0  0  0  0  0  0
    7.4087    1.1015   -0.8623 C   0  0  0  0  0  0  0  0  0  0  0  0
    7.2033   -0.3641   -0.5318 C   0  0  0  0  0  0  0  0  0  0  0  0
    8.4515   -1.1091   -0.3703 N   0  0  0  0  0  0  0  0  0  0  0  0
    9.4153   -0.6525    0.6214 C   0  0  0  0  0  0  0  0  0  0  0  0
    9.2135   -1.1513    2.0882 C   0  0  2  0  0  0  0  0  0  0  0  0
    8.0564   -0.4018    2.7953 C   0  0  0  0  0  0  0  0  0  0  0  0
   10.5122   -0.9339    2.8753 C   0  0  0  0  0  0  0  0  0  0  0  0
    8.8283   -2.6438    2.1010 C   0  0  0  0  0  0  0  0  0  0  0  0
    9.2547   -3.3988    2.9551 O   0  0  0  0  0  0  0  0  0  0  0  0
    7.8923   -3.0777    1.0099 C   0  0  0  0  0  0  0  0  0  0  0  0
    6.7367   -3.7688    1.1494 C   0  0  0  0  0  0  0  0  0  0  0  0
    6.0074   -4.3116    2.3160 C   0  0  0  0  0  0  0  0  0  0  0  0
    6.5942   -4.6784    3.5374 C   0  0  0  0  0  0  0  0  0  0  0  0
    5.7481   -5.1691    4.5366 C   0  0  0  0  0  0  0  0  0  0  0  0
    4.3845   -5.2999    4.3108 C   0  0  0  0  0  0  0  0  0  0  0  0
    3.8774   -4.9482    3.0311 C   0  0  0  0  0  0  0  0  0  0  0  0
    2.5402   -5.1049    2.6902 N   0  0  0  0  0  0  0  0  0  0  0  0
    2.0017   -4.4024    1.5278 C   0  0  0  0  0  0  0  0  0  0  0  0
    0.8288   -5.1741    0.9374 C   0  0  0  0  0  0  0  0  0  0  0  0
   -0.1622   -5.4363    1.9126 O   0  0  0  0  0  0  0  0  0  0  0  0
    0.3650   -6.1938    2.9767 C   0  0  0  0  0  0  0  0  0  0  0  0
    1.5328   -5.4856    3.6674 C   0  0  0  0  0  0  0  0  0  0  0  0
    4.6889   -4.4643    2.0849 N   0  0  0  0  0  0  0  0  0  0  0  0
    8.3074   -2.5644   -0.3752 C   0  0  2  0  0  0  0  0  0  0  0  0
    9.5671   -3.2582   -0.9186 C   0  0  0  0  0  0  0  0  0  0  0  0
   10.0230   -4.4818   -0.4059 C   0  0  0  0  0  0  0  0  0  0  0  0
   11.1287   -5.1323   -0.9635 C   0  0  0  0  0  0  0  0  0  0  0  0
   11.7795   -4.5490   -2.0454 C   0  0  0  0  0  0  0  0  0  0  0  0
   12.8418   -5.1654   -2.5861 F   0  0  0  0  0  0  0  0  0  0  0  0
   11.3538   -3.3333   -2.5791 C   0  0  0  0  0  0  0  0  0  0  0  0
   10.2502   -2.6972   -2.0106 C   0  0  0  0  0  0  0  0  0  0  0  0
    6.7581    2.1050   -0.1303 C   0  0  0  0  0  0  0  0  0  0  0  0
    6.9148    3.4539   -0.4580 C   0  0  0  0  0  0  0  0  0  0  0  0
    8.5270    5.4456   -2.7667 H   0  0  0  0  0  0  0  0  0  0  0  0
    8.3874    5.8617   -1.0431 H   0  0  0  0  0  0  0  0  0  0  0  0
    6.9341    5.7972   -2.0546 H   0  0  0  0  0  0  0  0  0  0  0  0
    9.0293    3.1213   -3.0959 H   0  0  0  0  0  0  0  0  0  0  0  0
    8.7484    0.7312   -2.5142 H   0  0  0  0  0  0  0  0  0  0  0  0
    6.6646   -0.8405   -1.3703 H   0  0  0  0  0  0  0  0  0  0  0  0
    6.5216   -0.4408    0.3389 H   0  0  0  0  0  0  0  0  0  0  0  0
    9.4391    0.4477    0.6171 H   0  0  0  0  0  0  0  0  0  0  0  0
   10.4143   -0.9883    0.2958 H   0  0  0  0  0  0  0  0  0  0  0  0
    8.2288    0.6856    2.7511 H   0  0  0  0  0  0  0  0  0  0  0  0
    8.0010   -0.6983    3.8544 H   0  0  0  0  0  0  0  0  0  0  0  0
    7.0769   -0.6099    2.3421 H   0  0  0  0  0  0  0  0  0  0  0  0
   10.7714    0.1371    2.8954 H   0  0  0  0  0  0  0  0  0  0  0  0
   11.3518   -1.4830    2.4219 H   0  0  0  0  0  0  0  0  0  0  0  0
   10.4070   -1.2881    3.9101 H   0  0  0  0  0  0  0  0  0  0  0  0
    6.1555   -3.9154    0.2312 H   0  0  0  0  0  0  0  0  0  0  0  0
    7.6676   -4.5887    3.6847 H   0  0  0  0  0  0  0  0  0  0  0  0
    6.1621   -5.4531    5.5080 H   0  0  0  0  0  0  0  0  0  0  0  0
    3.7372   -5.6687    5.1047 H   0  0  0  0  0  0  0  0  0  0  0  0
    2.8044   -4.2830    0.7910 H   0  0  0  0  0  0  0  0  0  0  0  0
    1.6572   -3.3883    1.8206 H   0  0  0  0  0  0  0  0  0  0  0  0
    1.1927   -6.1260    0.4979 H   0  0  0  0  0  0  0  0  0  0  0  0
    0.3490   -4.5858    0.1405 H   0  0  0  0  0  0  0  0  0  0  0  0
    0.7106   -7.1830    2.6095 H   0  0  0  0  0  0  0  0  0  0  0  0
   -0.4517   -6.3590    3.6963 H   0  0  0  0  0  0  0  0  0  0  0  0
    1.9586   -6.1783    4.4055 H   0  0  0  0  0  0  0  0  0  0  0  0
    1.1539   -4.5981    4.2176 H   0  0  0  0  0  0  0  0  0  0  0  0
    7.4872   -2.8048   -1.0725 H   0  0  0  0  0  0  0  0  0  0  0  0
    9.5171   -4.9394    0.4462 H   0  0  0  0  0  0  0  0  0  0  0  0
   11.4913   -6.0822   -0.5660 H   0  0  0  0  0  0  0  0  0  0  0  0
   11.8902   -2.9032   -3.4274 H   0  0  0  0  0  0  0  0  0  0  0  0
    9.9086   -1.7403   -2.4099 H   0  0  0  0  0  0  0  0  0  0  0  0
    6.1151    1.8262    0.7098 H   0  0  0  0  0  0  0  0  0  0  0  0
    6.3926    4.2136    0.1316 H   0  0  0  0  0  0  0  0  0  0  0  0
  1  2  1  0
  1 38  1  0
  1 39  1  0
  1 40  1  0
  2  3  2  0
  2 37  1  0
  3  4  1  0
  3 41  1  0
  4  5  2  0
  4 42  1  0
  5  6  1  0
  5 36  1  0
  6  7  1  0
  6 43  1  0
  6 44  1  0
  7  8  1  0
  7 28  1  0
  8  9  1  0
  8 45  1  0
  8 46  1  0
  9 10  1  1
  9 11  1  0
  9 12  1  0
 10 47  1  0
 10 48  1  0
 10 49  1  0
 11 50  1  0
 11 51  1  0
 11 52  1  0
 12 13  2  0
 12 14  1  0
 14 15  2  0
 14 28  1  0
 15 16  1  0
 15 53  1  0
 16 17  2  0
 16 27  1  0
 17 18  1  0
 17 54  1  0
 18 19  2  0
 18 55  1  0
 19 20  1  0
 19 56  1  0
 20 21  1  0
 20 27  2  0
 21 22  1  0
 21 26  1  0
 22 23  1  0
 22 57  1  0
 22 58  1  0
 23 24  1  0
 23 59  1  0
 23 60  1  0
 24 25  1  0
 25 26  1  0
 25 61  1  0
 25 62  1  0
 26 63  1  0
 26 64  1  0
 28 29  1  0
 28 65  1  6
 29 30  2  0
 29 35  1  0
 30 31  1  0
 30 66  1  0
 31 32  2  0
 31 67  1  0
 32 33  1  0
 32 34  1  0
 34 35  2  0
 34 68  1  0
 35 69  1  0
 36 37  2  0
 36 70  1  0
 37 71  1  0
M  END

