
     RDKit          3D

 48 49  0  0  0  0  0  0  0  0999 V2000
    0.9118   -0.0461    0.2967 C   0  0  0  0  0  0  0  0  0  0  0  0
    2.4343    0.0585    0.1171 C   0  0  1  0  0  0  0  0  0  0  0  0
    3.0983   -1.3140   -0.1143 C   0  0  0  0  0  0  0  0  0  0  0  0
    2.8832   -1.8444   -1.5389 C   0  0  0  0  0  0  0  0  0  0  0  0
    3.3968   -0.8797   -2.6351 C   0  0  2  0  0  0  0  0  0  0  0  0
    4.9541   -0.7542   -2.7084 C   0  0  1  0  0  0  0  0  0  0  0  0
    5.6898   -2.0630   -2.3714 C   0  0  0  0  0  0  0  0  0  0  0  0
    5.4402   -0.2847   -4.0920 C   0  0  0  0  0  0  0  0  0  0  0  0
    2.6181    0.4681   -2.4302 C   0  0  2  0  0  0  0  0  0  0  0  0
    2.8153    1.5432   -3.3960 N   0  0  0  0  0  0  0  0  0  0  0  0
    2.3662    1.3356   -4.7626 C   0  0  0  0  0  0  0  0  0  0  0  0
    0.8494    1.5735   -4.9211 C   0  0  0  0  0  0  0  0  0  0  0  0
    0.3632    1.3666   -6.3345 C   0  0  0  0  0  0  0  0  0  0  0  0
    0.1050    2.4329   -7.2096 C   0  0  0  0  0  0  0  0  0  0  0  0
   -0.3217    2.2174   -8.5239 C   0  0  0  0  0  0  0  0  0  0  0  0
   -0.4986    0.9134   -8.9948 C   0  0  0  0  0  0  0  0  0  0  0  0
   -0.2482   -0.1710   -8.1491 C   0  0  0  0  0  0  0  0  0  0  0  0
    0.1774    0.0760   -6.8476 C   0  0  0  0  0  0  0  0  0  0  0  0
    0.4159   -0.9765   -6.0376 F   0  0  0  0  0  0  0  0  0  0  0  0
    2.8285    1.0315   -1.0126 C   0  0  0  0  0  0  0  0  0  0  0  0
    0.6607   -0.7021    1.1463 H   0  0  0  0  0  0  0  0  0  0  0  0
    0.4056   -0.4554   -0.5922 H   0  0  0  0  0  0  0  0  0  0  0  0
    0.4704    0.9436    0.4972 H   0  0  0  0  0  0  0  0  0  0  0  0
    2.8343    0.4696    1.0612 H   0  0  0  0  0  0  0  0  0  0  0  0
    2.7171   -2.0438    0.6210 H   0  0  0  0  0  0  0  0  0  0  0  0
    4.1806   -1.2226    0.0828 H   0  0  0  0  0  0  0  0  0  0  0  0
    1.8042   -2.0062   -1.7065 H   0  0  0  0  0  0  0  0  0  0  0  0
    3.3427   -2.8383   -1.6456 H   0  0  0  0  0  0  0  0  0  0  0  0
    3.0730   -1.3061   -3.6023 H   0  0  0  0  0  0  0  0  0  0  0  0
    5.2815   -0.0018   -1.9672 H   0  0  0  0  0  0  0  0  0  0  0  0
    5.3737   -2.8811   -3.0412 H   0  0  0  0  0  0  0  0  0  0  0  0
    5.5269   -2.3959   -1.3365 H   0  0  0  0  0  0  0  0  0  0  0  0
    6.7762   -1.9335   -2.5047 H   0  0  0  0  0  0  0  0  0  0  0  0
    5.1498   -1.0089   -4.8722 H   0  0  0  0  0  0  0  0  0  0  0  0
    6.5393   -0.2031   -4.1112 H   0  0  0  0  0  0  0  0  0  0  0  0
    5.0337    0.6915   -4.3847 H   0  0  0  0  0  0  0  0  0  0  0  0
    1.5522    0.1905   -2.5097 H   0  0  0  0  0  0  0  0  0  0  0  0
    3.7606    1.9113   -3.3601 H   0  0  0  0  0  0  0  0  0  0  0  0
    2.6076    0.3284   -5.1584 H   0  0  0  0  0  0  0  0  0  0  0  0
    2.8983    2.0520   -5.4098 H   0  0  0  0  0  0  0  0  0  0  0  0
    0.6217    2.5980   -4.5894 H   0  0  0  0  0  0  0  0  0  0  0  0
    0.3087    0.8892   -4.2476 H   0  0  0  0  0  0  0  0  0  0  0  0
    0.2370    3.4547   -6.8423 H   0  0  0  0  0  0  0  0  0  0  0  0
   -0.5182    3.0692   -9.1792 H   0  0  0  0  0  0  0  0  0  0  0  0
   -0.8332    0.7356  -10.0197 H   0  0  0  0  0  0  0  0  0  0  0  0
   -0.3765   -1.2040   -8.4788 H   0  0  0  0  0  0  0  0  0  0  0  0
    2.2547    1.9685   -0.9319 H   0  0  0  0  0  0  0  0  0  0  0  0
    3.8908    1.3135   -0.8931 H   0  0  0  0  0  0  0  0  0  0  0  0
  1  2  1  0
  1 21  1  0
  1 22  1  0
  1 23  1  0
  2  3  1  0
  2 20  1  0
  2 24  1  1
  3  4  1  0
  3 25  1  0
  3 26  1  0
  4  5  1  0
  4 27  1  0
  4 28  1  0
  5  6  1  0
  5  9  1  0
  5 29  1  6
  6  7  1  0
  6  8  1  0
  6 30  1  1
  7 31  1  0
  7 32  1  0
  7 33  1  0
  8 34  1  0
  8 35  1  0
  8 36  1  0
  9 10  1  0
  9 20  1  0
  9 37  1  1
 10 11  1  0
 10 38  1  0
 11 12  1  0
 11 39  1  0
 11 40  1  0
 12 13  1  0
 12 41  1  0
 12 42  1  0
 13 14  2  0
 13 18  1  0
 14 15  1  0
 14 43  1  0
 15 16  2  0
 15 44  1  0
 16 17  1  0
 16 45  1  0
 17 18  2  0
 17 46  1  0
 18 19  1  0
 20 47  1  0
 20 48  1  0
M  END

