
     RDKit          3D

 35 36  0  0  0  0  0  0  0  0999 V2000
    0.8459   -0.0890   -0.3479 C   0  0  0  0  0  0  0  0  0  0  0  0
    2.2966   -0.1678   -0.3397 N   0  0  0  0  0  0  0  0  0  0  0  0
    2.8256   -1.1500   -1.2744 C   0  0  0  0  0  0  0  0  0  0  0  0
    4.0707   -1.8904   -0.7699 C   0  0  0  0  0  0  0  0  0  0  0  0
    5.0550   -1.0987   -0.1390 O   0  0  0  0  0  0  0  0  0  0  0  0
    5.3190    0.1875   -0.6666 C   0  0  2  0  0  0  0  0  0  0  0  0
    6.7961    0.5134   -0.4751 C   0  0  0  0  0  0  0  0  0  0  0  0
    7.3456    1.6518   -1.0873 C   0  0  0  0  0  0  0  0  0  0  0  0
    8.6957    1.9712   -0.9262 C   0  0  0  0  0  0  0  0  0  0  0  0
    9.5220    1.1529   -0.1487 C   0  0  0  0  0  0  0  0  0  0  0  0
    8.9859    0.0140    0.4572 C   0  0  0  0  0  0  0  0  0  0  0  0
    7.6338   -0.3059    0.2938 C   0  0  0  0  0  0  0  0  0  0  0  0
    4.3779    1.2260   -0.0015 C   0  0  2  0  0  0  0  0  0  0  0  0
    4.4442    1.1529    1.5331 C   0  0  0  0  0  0  0  0  0  0  0  0
    3.7571    2.2274    2.1524 O   0  0  0  0  0  0  0  0  0  0  0  0
    2.9214    1.1424   -0.4876 C   0  0  0  0  0  0  0  0  0  0  0  0
    0.4100   -1.0795   -0.1427 H   0  0  0  0  0  0  0  0  0  0  0  0
    0.4238    0.2738   -1.3139 H   0  0  0  0  0  0  0  0  0  0  0  0
    0.5029    0.5957    0.4429 H   0  0  0  0  0  0  0  0  0  0  0  0
    3.0295   -0.6849   -2.2654 H   0  0  0  0  0  0  0  0  0  0  0  0
    2.0642   -1.9243   -1.4640 H   0  0  0  0  0  0  0  0  0  0  0  0
    4.5092   -2.4480   -1.6246 H   0  0  0  0  0  0  0  0  0  0  0  0
    3.7713   -2.6298   -0.0104 H   0  0  0  0  0  0  0  0  0  0  0  0
    5.1307    0.2025   -1.7585 H   0  0  0  0  0  0  0  0  0  0  0  0
    6.7137    2.2936   -1.7092 H   0  0  0  0  0  0  0  0  0  0  0  0
    9.1057    2.8591   -1.4149 H   0  0  0  0  0  0  0  0  0  0  0  0
   10.5791    1.4001   -0.0219 H   0  0  0  0  0  0  0  0  0  0  0  0
    9.6248   -0.6353    1.0619 H   0  0  0  0  0  0  0  0  0  0  0  0
    7.2130   -1.1995    0.7557 H   0  0  0  0  0  0  0  0  0  0  0  0
    4.7414    2.2266   -0.3026 H   0  0  0  0  0  0  0  0  0  0  0  0
    5.4974    1.1023    1.8661 H   0  0  0  0  0  0  0  0  0  0  0  0
    3.9472    0.2319    1.8669 H   0  0  0  0  0  0  0  0  0  0  0  0
    4.2490    3.0396    1.9735 H   0  0  0  0  0  0  0  0  0  0  0  0
    2.8674    1.4879   -1.5482 H   0  0  0  0  0  0  0  0  0  0  0  0
    2.3501    1.8634    0.1155 H   0  0  0  0  0  0  0  0  0  0  0  0
  1  2  1  0
  1 17  1  0
  1 18  1  0
  1 19  1  0
  2  3  1  0
  2 16  1  0
  3  4  1  0
  3 20  1  0
  3 21  1  0
  4  5  1  0
  4 22  1  0
  4 23  1  0
  5  6  1  0
  6  7  1  0
  6 13  1  0
  6 24  1  6
  7  8  2  0
  7 12  1  0
  8  9  1  0
  8 25  1  0
  9 10  2  0
  9 26  1  0
 10 11  1  0
 10 27  1  0
 11 12  2  0
 11 28  1  0
 12 29  1  0
 13 14  1  0
 13 16  1  0
 13 30  1  6
 14 15  1  0
 14 31  1  0
 14 32  1  0
 15 33  1  0
 16 34  1  0
 16 35  1  0
M  END

