
     RDKit          3D

 35 35  0  0  0  0  0  0  0  0999 V2000
    2.8745   -0.2406    0.8416 C   0  0  0  0  0  0  0  0  0  0  0  0
    2.3464   -1.0523   -0.3459 C   0  0  1  0  0  0  0  0  0  0  0  0
    0.8161   -1.0123   -0.4186 C   0  0  0  0  0  0  0  0  0  0  0  0
    2.9472   -0.5802   -1.6845 C   0  0  0  0  0  0  0  0  0  0  0  0
    4.3950   -0.6886   -1.7746 N   0  0  0  0  0  0  0  0  0  0  0  0
    5.0135   -1.8047   -2.2603 C   0  0  0  0  0  0  0  0  0  0  0  0
    4.3823   -2.7781   -2.6521 O   0  0  0  0  0  0  0  0  0  0  0  0
    6.5376   -1.7614   -2.3556 C   0  0  1  0  0  0  0  0  0  0  0  0
    7.3324   -0.9681   -1.2876 C   0  0  0  0  0  0  0  0  0  0  0  0
    8.4041   -1.8670   -0.8673 N   0  0  0  0  0  0  0  0  0  0  0  0
    9.5819   -1.2350   -0.3338 C   0  0  0  0  0  0  0  0  0  0  0  0
    8.5964   -2.8804   -1.8871 C   0  0  0  0  0  0  0  0  0  0  0  0
    7.1693   -3.1857   -2.3422 C   0  0  2  0  0  0  0  0  0  0  0  0
    7.0889   -3.9664   -3.5570 N   0  0  0  0  0  0  0  0  0  0  0  0
    2.4699   -0.6188    1.7940 H   0  0  0  0  0  0  0  0  0  0  0  0
    2.5848    0.8221    0.7577 H   0  0  0  0  0  0  0  0  0  0  0  0
    3.9731   -0.2889    0.9105 H   0  0  0  0  0  0  0  0  0  0  0  0
    2.6578   -2.1040   -0.2160 H   0  0  0  0  0  0  0  0  0  0  0  0
    0.4506    0.0184   -0.5714 H   0  0  0  0  0  0  0  0  0  0  0  0
    0.3637   -1.3880    0.5129 H   0  0  0  0  0  0  0  0  0  0  0  0
    0.4347   -1.6290   -1.2485 H   0  0  0  0  0  0  0  0  0  0  0  0
    2.6662    0.4721   -1.8672 H   0  0  0  0  0  0  0  0  0  0  0  0
    2.5279   -1.1868   -2.5007 H   0  0  0  0  0  0  0  0  0  0  0  0
    4.9632    0.0836   -1.4521 H   0  0  0  0  0  0  0  0  0  0  0  0
    6.7546   -1.3289   -3.3502 H   0  0  0  0  0  0  0  0  0  0  0  0
    6.7156   -0.6824   -0.4144 H   0  0  0  0  0  0  0  0  0  0  0  0
    7.7276   -0.0218   -1.7210 H   0  0  0  0  0  0  0  0  0  0  0  0
    9.3170   -0.5848    0.5168 H   0  0  0  0  0  0  0  0  0  0  0  0
   10.1259   -0.6065   -1.0795 H   0  0  0  0  0  0  0  0  0  0  0  0
   10.2867   -1.9959    0.0386 H   0  0  0  0  0  0  0  0  0  0  0  0
    9.1082   -3.7674   -1.4803 H   0  0  0  0  0  0  0  0  0  0  0  0
    9.2015   -2.5208   -2.7569 H   0  0  0  0  0  0  0  0  0  0  0  0
    6.6756   -3.7639   -1.5444 H   0  0  0  0  0  0  0  0  0  0  0  0
    7.4650   -3.4389   -4.3473 H   0  0  0  0  0  0  0  0  0  0  0  0
    6.1036   -4.1361   -3.7616 H   0  0  0  0  0  0  0  0  0  0  0  0
  1  2  1  0
  1 15  1  0
  1 16  1  0
  1 17  1  0
  2  3  1  0
  2  4  1  0
  2 18  1  1
  3 19  1  0
  3 20  1  0
  3 21  1  0
  4  5  1  0
  4 22  1  0
  4 23  1  0
  5  6  1  0
  5 24  1  0
  6  7  2  0
  6  8  1  0
  8  9  1  0
  8 13  1  0
  8 25  1  6
  9 10  1  0
  9 26  1  0
  9 27  1  0
 10 11  1  0
 10 12  1  0
 11 28  1  0
 11 29  1  0
 11 30  1  0
 12 13  1  0
 12 31  1  0
 12 32  1  0
 13 14  1  0
 13 33  1  1
 14 34  1  0
 14 35  1  0
M  END

