
     RDKit          3D

 59 61  0  0  0  0  0  0  0  0999 V2000
    4.2152    0.4516    1.4832 C   0  0  0  0  0  0  0  0  0  0  0  0
    5.0583   -0.8123    1.2456 C   0  0  0  0  0  0  0  0  0  0  0  0
    4.4426   -1.7658    0.2403 C   0  0  0  0  0  0  0  0  0  0  0  0
    4.7808   -1.6266   -1.1124 C   0  0  0  0  0  0  0  0  0  0  0  0
    4.2155   -2.4464   -2.1003 C   0  0  0  0  0  0  0  0  0  0  0  0
    4.5807   -2.3464   -3.4612 N   0  0  0  0  0  0  0  0  0  0  0  0
    4.7945   -1.2028   -4.1990 C   0  0  0  0  0  0  0  0  0  0  0  0
    4.5369    0.0851   -3.8194 C   0  0  0  0  0  0  0  0  0  0  0  0
    4.8216    1.1929   -4.7083 C   0  0  0  0  0  0  0  0  0  0  0  0
    4.6200    2.3661   -4.4375 O   0  0  0  0  0  0  0  0  0  0  0  0
    5.3573    0.8484   -5.9846 N   0  0  0  0  0  0  0  0  0  0  0  0
    5.6497    1.9456   -6.9164 C   0  0  0  0  0  0  0  0  0  0  0  0
    7.0107    2.6021   -6.6503 C   0  0  0  0  0  0  0  0  0  0  0  0
    7.1807    3.9525   -7.3505 C   0  0  0  0  0  0  0  0  0  0  0  0
    7.2602    3.8492   -8.8746 C   0  0  0  0  0  0  0  0  0  0  0  0
    7.2693    2.7616   -9.4362 O   0  0  0  0  0  0  0  0  0  0  0  0
    7.3162    5.0195   -9.5974 N   0  0  0  0  0  0  0  0  0  0  0  0
    7.4469    6.3556   -9.0458 C   0  0  0  0  0  0  0  0  0  0  0  0
    7.4340    4.9008  -11.0545 C   0  0  0  0  0  0  0  0  0  0  0  0
    8.8429    4.8506  -11.5537 C   0  0  0  0  0  0  0  0  0  0  0  0
    9.7010    3.8180  -11.8181 C   0  0  0  0  0  0  0  0  0  0  0  0
   10.9402    4.4140  -12.2272 C   0  0  0  0  0  0  0  0  0  0  0  0
   10.7439    5.7642  -12.1766 C   0  0  0  0  0  0  0  0  0  0  0  0
    9.4786    6.0417  -11.7685 O   0  0  0  0  0  0  0  0  0  0  0  0
    5.6377   -0.4439   -6.3920 C   0  0  0  0  0  0  0  0  0  0  0  0
    6.1270   -0.7463   -7.4610 O   0  0  0  0  0  0  0  0  0  0  0  0
    5.3173   -1.4329   -5.4563 N   0  0  0  0  0  0  0  0  0  0  0  0
    5.6297   -2.3592   -5.7273 H   0  0  0  0  0  0  0  0  0  0  0  0
    3.3080   -3.4406   -1.7115 C   0  0  0  0  0  0  0  0  0  0  0  0
    2.9848   -3.5968   -0.3643 C   0  0  0  0  0  0  0  0  0  0  0  0
    3.5257   -2.7707    0.6313 C   0  0  0  0  0  0  0  0  0  0  0  0
    3.1413   -2.9801    2.0772 C   0  0  0  0  0  0  0  0  0  0  0  0
    4.6980    1.1136    2.2199 H   0  0  0  0  0  0  0  0  0  0  0  0
    3.2097    0.2054    1.8598 H   0  0  0  0  0  0  0  0  0  0  0  0
    4.0865    1.0218    0.5496 H   0  0  0  0  0  0  0  0  0  0  0  0
    5.2221   -1.3274    2.2055 H   0  0  0  0  0  0  0  0  0  0  0  0
    6.0566   -0.5114    0.8875 H   0  0  0  0  0  0  0  0  0  0  0  0
    5.5153   -0.8718   -1.3988 H   0  0  0  0  0  0  0  0  0  0  0  0
    4.4296   -3.1897   -4.0039 H   0  0  0  0  0  0  0  0  0  0  0  0
    4.0817    0.3254   -2.8635 H   0  0  0  0  0  0  0  0  0  0  0  0
    4.8482    2.6859   -6.7856 H   0  0  0  0  0  0  0  0  0  0  0  0
    5.6228    1.5385   -7.9329 H   0  0  0  0  0  0  0  0  0  0  0  0
    7.8111    1.9155   -6.9666 H   0  0  0  0  0  0  0  0  0  0  0  0
    7.1114    2.7726   -5.5673 H   0  0  0  0  0  0  0  0  0  0  0  0
    8.1046    4.4369   -6.9885 H   0  0  0  0  0  0  0  0  0  0  0  0
    6.3559    4.6280   -7.0637 H   0  0  0  0  0  0  0  0  0  0  0  0
    7.3177    6.3516   -7.9586 H   0  0  0  0  0  0  0  0  0  0  0  0
    6.6809    7.0254   -9.4747 H   0  0  0  0  0  0  0  0  0  0  0  0
    8.4356    6.7906   -9.2754 H   0  0  0  0  0  0  0  0  0  0  0  0
    6.9139    5.7581  -11.5117 H   0  0  0  0  0  0  0  0  0  0  0  0
    6.9255    3.9759  -11.3509 H   0  0  0  0  0  0  0  0  0  0  0  0
    9.4664    2.7609  -11.7152 H   0  0  0  0  0  0  0  0  0  0  0  0
   11.8547    3.9035  -12.5226 H   0  0  0  0  0  0  0  0  0  0  0  0
   11.3756    6.6207  -12.3976 H   0  0  0  0  0  0  0  0  0  0  0  0
    2.8536   -4.0922   -2.4633 H   0  0  0  0  0  0  0  0  0  0  0  0
    2.2796   -4.3822   -0.0783 H   0  0  0  0  0  0  0  0  0  0  0  0
    2.3944   -3.7815    2.1739 H   0  0  0  0  0  0  0  0  0  0  0  0
    2.7132   -2.0708    2.5294 H   0  0  0  0  0  0  0  0  0  0  0  0
    4.0109   -3.2625    2.6949 H   0  0  0  0  0  0  0  0  0  0  0  0
  1  2  1  0
  1 33  1  0
  1 34  1  0
  1 35  1  0
  2  3  1  0
  2 36  1  0
  2 37  1  0
  3  4  2  0
  3 31  1  0
  4  5  1  0
  4 38  1  0
  5  6  1  0
  5 29  2  0
  6  7  1  0
  6 39  1  0
  7  8  2  0
  7 27  1  0
  8  9  1  0
  8 40  1  0
  9 10  2  0
  9 11  1  0
 11 12  1  0
 11 25  1  0
 12 13  1  0
 12 41  1  0
 12 42  1  0
 13 14  1  0
 13 43  1  0
 13 44  1  0
 14 15  1  0
 14 45  1  0
 14 46  1  0
 15 16  2  0
 15 17  1  0
 17 18  1  0
 17 19  1  0
 18 47  1  0
 18 48  1  0
 18 49  1  0
 19 20  1  0
 19 50  1  0
 19 51  1  0
 20 21  2  0
 20 24  1  0
 21 22  1  0
 21 52  1  0
 22 23  2  0
 22 53  1  0
 23 24  1  0
 23 54  1  0
 25 26  2  0
 25 27  1  0
 27 28  1  0
 29 30  1  0
 29 55  1  0
 30 31  2  0
 30 56  1  0
 31 32  1  0
 32 57  1  0
 32 58  1  0
 32 59  1  0
M  END

