
     RDKit          3D

 34 35  0  0  0  0  0  0  0  0999 V2000
    2.6181   -0.0886    1.7309 C   0  0  0  0  0  0  0  0  0  0  0  0
    2.3028   -0.0660    0.2379 C   0  0  1  0  0  0  0  0  0  0  0  0
    2.7521    1.1380   -0.5285 C   0  0  0  0  0  0  0  0  0  0  0  0
    2.3486    1.5326   -1.7855 C   0  0  0  0  0  0  0  0  0  0  0  0
    3.0101    2.7086   -2.2458 C   0  0  0  0  0  0  0  0  0  0  0  0
    3.9141    3.1987   -1.3371 C   0  0  0  0  0  0  0  0  0  0  0  0
    3.9691    2.2309    0.0935 S   0  0  0  0  0  0  0  0  0  0  0  0
    2.8780   -1.6466   -0.5869 S   0  0  1  0  0  0  0  0  0  0  0  0
    2.5487   -2.7549    0.3290 O   0  0  0  0  0  0  0  0  0  0  0  0
    2.3298   -1.6394   -1.9546 O   0  0  0  0  0  0  0  0  0  0  0  0
    4.6920   -1.5449   -0.7119 C   0  0  0  0  0  0  0  0  0  0  0  0
    5.2253   -2.7888   -1.4225 C   0  0  0  0  0  0  0  0  0  0  0  0
    6.7618   -2.7821   -1.5316 C   0  0  0  0  0  0  0  0  0  0  0  0
    7.3133   -3.9822   -2.2480 C   0  0  0  0  0  0  0  0  0  0  0  0
    7.4485   -4.1843   -3.6497 C   0  0  0  0  0  0  0  0  0  0  0  0
    7.9479   -5.3818   -3.9391 N   0  0  0  0  0  0  0  0  0  0  0  0
    8.1353   -5.9629   -2.7484 N   0  0  0  0  0  0  0  0  0  0  0  0
    8.5195   -6.8992   -2.7080 H   0  0  0  0  0  0  0  0  0  0  0  0
    7.7735   -5.1727   -1.7024 C   0  0  0  0  0  0  0  0  0  0  0  0
    2.0963    0.7393    2.2350 H   0  0  0  0  0  0  0  0  0  0  0  0
    3.6963    0.0273    1.9254 H   0  0  0  0  0  0  0  0  0  0  0  0
    2.2873   -1.0386    2.1703 H   0  0  0  0  0  0  0  0  0  0  0  0
    1.2199   -0.2087    0.0823 H   0  0  0  0  0  0  0  0  0  0  0  0
    1.6143    0.9717   -2.3643 H   0  0  0  0  0  0  0  0  0  0  0  0
    2.8190    3.1753   -3.2133 H   0  0  0  0  0  0  0  0  0  0  0  0
    4.5440    4.0834   -1.4195 H   0  0  0  0  0  0  0  0  0  0  0  0
    5.0721   -1.4619    0.3180 H   0  0  0  0  0  0  0  0  0  0  0  0
    4.9201   -0.6186   -1.2593 H   0  0  0  0  0  0  0  0  0  0  0  0
    4.7765   -2.8473   -2.4264 H   0  0  0  0  0  0  0  0  0  0  0  0
    4.8936   -3.6861   -0.8764 H   0  0  0  0  0  0  0  0  0  0  0  0
    7.1977   -2.7231   -0.5195 H   0  0  0  0  0  0  0  0  0  0  0  0
    7.0824   -1.8651   -2.0558 H   0  0  0  0  0  0  0  0  0  0  0  0
    7.2012   -3.4902   -4.4539 H   0  0  0  0  0  0  0  0  0  0  0  0
    7.8702   -5.5026   -0.6695 H   0  0  0  0  0  0  0  0  0  0  0  0
  1  2  1  0
  1 20  1  0
  1 21  1  0
  1 22  1  0
  2  3  1  0
  2  8  1  0
  2 23  1  1
  3  4  2  0
  3  7  1  0
  4  5  1  0
  4 24  1  0
  5  6  2  0
  5 25  1  0
  6  7  1  0
  6 26  1  0
  8  9  2  0
  8 10  2  0
  8 11  1  6
 11 12  1  0
 11 27  1  0
 11 28  1  0
 12 13  1  0
 12 29  1  0
 12 30  1  0
 13 14  1  0
 13 31  1  0
 13 32  1  0
 14 15  1  0
 14 19  2  0
 15 16  2  0
 15 33  1  0
 16 17  1  0
 17 18  1  0
 17 19  1  0
 19 34  1  0
M  END

