
     RDKit          3D

 52 53  0  0  0  0  0  0  0  0999 V2000
    1.6495    0.2528    1.4032 O   0  0  0  0  0  0  0  0  0  0  0  0
    2.7453    0.1351    0.8866 C   0  0  0  0  0  0  0  0  0  0  0  0
    3.4381   -1.0344    0.8100 N   0  0  0  0  0  0  0  0  0  0  0  0
    2.8311   -2.2444    1.3697 C   0  0  0  0  0  0  0  0  0  0  0  0
    2.7975   -3.3618    0.3256 C   0  0  0  0  0  0  0  0  0  0  0  0
    4.1409   -3.5932   -0.1927 N   0  0  0  0  0  0  0  0  0  0  0  0
    4.5236   -4.8491   -0.7028 C   0  0  0  0  0  0  0  0  0  0  0  0
    5.8753   -5.2502   -0.6510 C   0  0  0  0  0  0  0  0  0  0  0  0
    6.2986   -6.4847   -1.1414 C   0  0  0  0  0  0  0  0  0  0  0  0
    5.3725   -7.3831   -1.6817 C   0  0  0  0  0  0  0  0  0  0  0  0
    4.0261   -7.0210   -1.7389 C   0  0  0  0  0  0  0  0  0  0  0  0
    3.6245   -5.7715   -1.2744 C   0  0  0  0  0  0  0  0  0  0  0  0
    2.3203   -5.4462   -1.3909 F   0  0  0  0  0  0  0  0  0  0  0  0
    4.7386   -2.3929   -0.7658 C   0  0  0  0  0  0  0  0  0  0  0  0
    4.7755   -1.2580    0.2593 C   0  0  0  0  0  0  0  0  0  0  0  0
    3.4348    1.3886    0.2779 C   0  0  1  0  0  0  0  0  0  0  0  0
    4.5999    1.6225    0.9347 F   0  0  0  0  0  0  0  0  0  0  0  0
    3.7364    1.1959   -1.0366 F   0  0  0  0  0  0  0  0  0  0  0  0
    2.6147    2.7181    0.3623 C   0  0  1  0  0  0  0  0  0  0  0  0
    2.1804    2.9052    1.6172 F   0  0  0  0  0  0  0  0  0  0  0  0
    3.4717    3.7174    0.0669 F   0  0  0  0  0  0  0  0  0  0  0  0
    1.4287    2.8143   -0.6658 C   0  0  1  0  0  0  0  0  0  0  0  0
    1.9361    3.2147   -1.8484 F   0  0  0  0  0  0  0  0  0  0  0  0
    0.8566    1.6117   -0.8368 F   0  0  0  0  0  0  0  0  0  0  0  0
    0.3290    3.8337   -0.2242 C   0  0  1  0  0  0  0  0  0  0  0  0
   -0.3976    3.2806    0.7603 F   0  0  0  0  0  0  0  0  0  0  0  0
    0.9302    4.9478    0.2327 F   0  0  0  0  0  0  0  0  0  0  0  0
   -0.6302    4.2479   -1.3921 C   0  0  1  0  0  0  0  0  0  0  0  0
    0.0143    5.1236   -2.1835 F   0  0  0  0  0  0  0  0  0  0  0  0
   -0.9543    3.1586   -2.1100 F   0  0  0  0  0  0  0  0  0  0  0  0
   -1.9550    4.9086   -0.8834 C   0  0  1  0  0  0  0  0  0  0  0  0
   -2.7668    3.9385   -0.4254 F   0  0  0  0  0  0  0  0  0  0  0  0
   -1.6717    5.7574    0.1204 F   0  0  0  0  0  0  0  0  0  0  0  0
   -2.7070    5.7066   -1.9959 C   0  0  1  0  0  0  0  0  0  0  0  0
   -2.0711    6.8717   -2.1974 F   0  0  0  0  0  0  0  0  0  0  0  0
   -2.7039    4.9958   -3.1392 F   0  0  0  0  0  0  0  0  0  0  0  0
   -4.1919    6.0299   -1.6476 C   0  0  1  0  0  0  0  0  0  0  0  0
   -4.2801    6.5623   -0.4286 F   0  0  0  0  0  0  0  0  0  0  0  0
   -4.6579    6.9069   -2.5346 F   0  0  0  0  0  0  0  0  0  0  0  0
   -4.9380    4.9307   -1.7005 F   0  0  0  0  0  0  0  0  0  0  0  0
    1.8193   -1.9911    1.7078 H   0  0  0  0  0  0  0  0  0  0  0  0
    3.4264   -2.5696    2.2417 H   0  0  0  0  0  0  0  0  0  0  0  0
    2.0817   -3.0886   -0.4749 H   0  0  0  0  0  0  0  0  0  0  0  0
    2.4257   -4.2807    0.7984 H   0  0  0  0  0  0  0  0  0  0  0  0
    6.5977   -4.5719   -0.1913 H   0  0  0  0  0  0  0  0  0  0  0  0
    7.3556   -6.7542   -1.0805 H   0  0  0  0  0  0  0  0  0  0  0  0
    5.6929   -8.3580   -2.0552 H   0  0  0  0  0  0  0  0  0  0  0  0
    3.2673   -7.6822   -2.1629 H   0  0  0  0  0  0  0  0  0  0  0  0
    4.1674   -2.0472   -1.6549 H   0  0  0  0  0  0  0  0  0  0  0  0
    5.7628   -2.6095   -1.0980 H   0  0  0  0  0  0  0  0  0  0  0  0
    5.1691   -0.3516   -0.2066 H   0  0  0  0  0  0  0  0  0  0  0  0
    5.4521   -1.5365    1.0875 H   0  0  0  0  0  0  0  0  0  0  0  0
  1  2  2  0
  2  3  1  0
  2 16  1  0
  3  4  1  0
  3 15  1  0
  4  5  1  0
  4 41  1  0
  4 42  1  0
  5  6  1  0
  5 43  1  0
  5 44  1  0
  6  7  1  0
  6 14  1  0
  7  8  2  0
  7 12  1  0
  8  9  1  0
  8 45  1  0
  9 10  2  0
  9 46  1  0
 10 11  1  0
 10 47  1  0
 11 12  2  0
 11 48  1  0
 12 13  1  0
 14 15  1  0
 14 49  1  0
 14 50  1  0
 15 51  1  0
 15 52  1  0
 16 17  1  1
 16 18  1  0
 16 19  1  0
 19 20  1  1
 19 21  1  0
 19 22  1  0
 22 23  1  6
 22 24  1  0
 22 25  1  0
 25 26  1  1
 25 27  1  0
 25 28  1  0
 28 29  1  6
 28 30  1  0
 28 31  1  0
 31 32  1  1
 31 33  1  0
 31 34  1  0
 34 35  1  6
 34 36  1  0
 34 37  1  0
 37 38  1  1
 37 39  1  0
 37 40  1  0
M  END

