
     RDKit          3D

 33 33  0  0  0  0  0  0  0  0999 V2000
    1.2796    0.5957    0.1457 C   0  0  0  0  0  0  0  0  0  0  0  0
    2.6861    0.0164   -0.1275 C   0  0  1  0  0  0  0  0  0  0  0  0
    2.6819   -0.7032   -1.4904 C   0  0  0  0  0  0  0  0  0  0  0  0
    3.6670    1.2078   -0.1854 C   0  0  0  0  0  0  0  0  0  0  0  0
    3.0921   -0.9593    1.0300 C   0  0  1  0  0  0  0  0  0  0  0  0
    2.2851   -2.2640    1.1998 C   0  0  0  0  0  0  0  0  0  0  0  0
    0.9006   -2.0531    1.6173 N   0  0  0  0  0  0  0  0  0  0  0  0
    4.8879   -1.4623    0.8329 S   0  0  0  0  0  0  0  0  0  0  0  0
    5.3444   -1.9059    2.5038 C   0  0  0  0  0  0  0  0  0  0  0  0
    5.2500   -0.9956    3.5718 C   0  0  0  0  0  0  0  0  0  0  0  0
    5.6769   -1.3667    4.8486 C   0  0  0  0  0  0  0  0  0  0  0  0
    6.2278   -2.6310    5.0817 C   0  0  0  0  0  0  0  0  0  0  0  0
    6.3321   -3.5128    4.0090 C   0  0  0  0  0  0  0  0  0  0  0  0
    6.8565   -4.7302    4.2130 F   0  0  0  0  0  0  0  0  0  0  0  0
    5.8925   -3.1781    2.7294 C   0  0  0  0  0  0  0  0  0  0  0  0
    1.0071    1.2980   -0.6596 H   0  0  0  0  0  0  0  0  0  0  0  0
    1.2643    1.1592    1.0942 H   0  0  0  0  0  0  0  0  0  0  0  0
    0.5207   -0.1924    0.2170 H   0  0  0  0  0  0  0  0  0  0  0  0
    2.4686    0.0159   -2.2974 H   0  0  0  0  0  0  0  0  0  0  0  0
    1.9092   -1.4860   -1.5375 H   0  0  0  0  0  0  0  0  0  0  0  0
    3.6553   -1.1709   -1.7111 H   0  0  0  0  0  0  0  0  0  0  0  0
    3.3017    1.9557   -0.9076 H   0  0  0  0  0  0  0  0  0  0  0  0
    4.6800    0.9072   -0.4873 H   0  0  0  0  0  0  0  0  0  0  0  0
    3.7464    1.7044    0.7962 H   0  0  0  0  0  0  0  0  0  0  0  0
    3.0445   -0.3865    1.9712 H   0  0  0  0  0  0  0  0  0  0  0  0
    2.8542   -2.9045    1.9020 H   0  0  0  0  0  0  0  0  0  0  0  0
    2.2812   -2.8041    0.2396 H   0  0  0  0  0  0  0  0  0  0  0  0
    0.8676   -1.6826    2.5684 H   0  0  0  0  0  0  0  0  0  0  0  0
    0.4053   -2.9444    1.6421 H   0  0  0  0  0  0  0  0  0  0  0  0
    4.8591    0.0088    3.3982 H   0  0  0  0  0  0  0  0  0  0  0  0
    5.5972   -0.6545    5.6739 H   0  0  0  0  0  0  0  0  0  0  0  0
    6.5775   -2.9382    6.0689 H   0  0  0  0  0  0  0  0  0  0  0  0
    5.9721   -3.9088    1.9231 H   0  0  0  0  0  0  0  0  0  0  0  0
  2  1  1  1
  1 16  1  0
  1 17  1  0
  1 18  1  0
  2  3  1  0
  2  4  1  0
  2  5  1  0
  3 19  1  0
  3 20  1  0
  3 21  1  0
  4 22  1  0
  4 23  1  0
  4 24  1  0
  5  6  1  0
  5  8  1  0
  5 25  1  1
  6  7  1  0
  6 26  1  0
  6 27  1  0
  7 28  1  0
  7 29  1  0
  8  9  1  0
  9 10  2  0
  9 15  1  0
 10 11  1  0
 10 30  1  0
 11 12  2  0
 11 31  1  0
 12 13  1  0
 12 32  1  0
 13 14  1  0
 13 15  2  0
 15 33  1  0
M  END

