
     RDKit          3D

 26 28  0  0  0  0  0  0  0  0999 V2000
    1.0372   -0.1658   -0.3492 C   0  0  0  0  0  0  0  0  0  0  0  0
    2.4717    0.0909   -0.4106 N   0  0  0  0  0  0  0  0  0  0  0  0
    3.0384    1.1229    0.3508 C   0  0  0  0  0  0  0  0  0  0  0  0
    4.0263    0.8825    1.3191 C   0  0  0  0  0  0  0  0  0  0  0  0
    4.6238   -0.7135    1.7646 S   0  0  0  0  0  0  0  0  0  0  0  0
    5.7307   -0.0075    2.9176 C   0  0  0  0  0  0  0  0  0  0  0  0
    5.6484    1.3478    2.9797 C   0  0  0  0  0  0  0  0  0  0  0  0
    4.6697    1.9119    2.0734 C   0  0  0  0  0  0  0  0  0  0  0  0
    4.3053    3.2606    1.8927 C   0  0  0  0  0  0  0  0  0  0  0  0
    4.9420    4.3878    2.6663 C   0  0  0  0  0  0  0  0  0  0  0  0
    3.3102    3.5289    0.9291 C   0  0  0  0  0  0  0  0  0  0  0  0
    2.7987    4.8210    0.5278 C   0  0  0  0  0  0  0  0  0  0  0  0
    1.8871    4.7508   -0.4790 C   0  0  0  0  0  0  0  0  0  0  0  0
    1.5810    3.1185   -1.0162 S   0  0  0  0  0  0  0  0  0  0  0  0
    2.7066    2.4792    0.1736 C   0  0  0  0  0  0  0  0  0  0  0  0
    0.7899   -0.9769   -1.0506 H   0  0  0  0  0  0  0  0  0  0  0  0
    0.4649    0.7199   -0.6609 H   0  0  0  0  0  0  0  0  0  0  0  0
    0.6821   -0.4559    0.6599 H   0  0  0  0  0  0  0  0  0  0  0  0
    3.0073   -0.7688   -0.3366 H   0  0  0  0  0  0  0  0  0  0  0  0
    6.3855   -0.6605    3.4936 H   0  0  0  0  0  0  0  0  0  0  0  0
    6.2669    1.9418    3.6526 H   0  0  0  0  0  0  0  0  0  0  0  0
    5.6685    4.0271    3.4061 H   0  0  0  0  0  0  0  0  0  0  0  0
    4.1865    4.9796    3.2103 H   0  0  0  0  0  0  0  0  0  0  0  0
    5.4737    5.0863    1.9973 H   0  0  0  0  0  0  0  0  0  0  0  0
    3.1161    5.7625    0.9769 H   0  0  0  0  0  0  0  0  0  0  0  0
    1.3629    5.5764   -0.9595 H   0  0  0  0  0  0  0  0  0  0  0  0
  1  2  1  0
  1 16  1  0
  1 17  1  0
  1 18  1  0
  2  3  1  0
  2 19  1  0
  3  4  2  0
  3 15  1  0
  4  5  1  0
  4  8  1  0
  5  6  1  0
  6  7  2  0
  6 20  1  0
  7  8  1  0
  7 21  1  0
  8  9  2  0
  9 10  1  0
  9 11  1  0
 10 22  1  0
 10 23  1  0
 10 24  1  0
 11 12  1  0
 11 15  2  0
 12 13  2  0
 12 25  1  0
 13 14  1  0
 13 26  1  0
 14 15  1  0
M  END

