
     RDKit          3D

 36 36  0  0  0  0  0  0  0  0999 V2000
    1.7127   -3.7754    1.8859 C   0  0  0  0  0  0  0  0  0  0  0  0
    2.4757   -3.4661    3.1709 C   0  0  0  0  0  0  0  0  0  0  0  0
    2.7783   -2.0345    3.3132 N   0  0  0  0  0  0  0  0  0  0  0  0
    1.6873   -1.1779    3.7724 C   0  0  0  0  0  0  0  0  0  0  0  0
    4.3184   -1.6653    3.8771 S   0  0  1  0  0  0  0  0  0  0  0  0
    4.3248   -0.2306    4.1716 O   0  0  0  0  0  0  0  0  0  0  0  0
    4.7892   -2.6073    4.8956 O   0  0  0  0  0  0  0  0  0  0  0  0
    5.1912   -2.0235    2.4785 N   0  0  0  0  0  0  0  0  0  0  0  0
    6.6598   -2.1043    2.6196 C   0  0  0  0  0  0  0  0  0  0  0  0
    7.1501   -3.5145    2.9496 C   0  0  0  0  0  0  0  0  0  0  0  0
    8.6711   -3.6138    2.9720 C   0  0  1  0  0  0  0  0  0  0  0  0
    9.0597   -2.8673    3.6927 H   0  0  0  0  0  0  0  0  0  0  0  0
    9.2390   -4.9996    3.3684 C   0  0  0  0  0  0  0  0  0  0  0  0
   10.6380   -5.0407    2.7022 C   0  0  0  0  0  0  0  0  0  0  0  0
   10.6614   -3.7758    1.7897 C   0  0  0  0  0  0  0  0  0  0  0  0
    9.2805   -3.3004    1.6715 N   0  0  0  0  0  0  0  0  0  0  0  0
    1.5150   -4.8568    1.8144 H   0  0  0  0  0  0  0  0  0  0  0  0
    2.3001   -3.4712    1.0058 H   0  0  0  0  0  0  0  0  0  0  0  0
    0.7405   -3.2593    1.8448 H   0  0  0  0  0  0  0  0  0  0  0  0
    3.4267   -4.0151    3.1757 H   0  0  0  0  0  0  0  0  0  0  0  0
    1.9088   -3.8148    4.0555 H   0  0  0  0  0  0  0  0  0  0  0  0
    0.8511   -1.2592    3.0618 H   0  0  0  0  0  0  0  0  0  0  0  0
    2.0234   -0.1352    3.7973 H   0  0  0  0  0  0  0  0  0  0  0  0
    1.3198   -1.4607    4.7776 H   0  0  0  0  0  0  0  0  0  0  0  0
    4.8943   -1.3675    1.7568 H   0  0  0  0  0  0  0  0  0  0  0  0
    7.0317   -1.3854    3.3723 H   0  0  0  0  0  0  0  0  0  0  0  0
    7.0886   -1.7871    1.6580 H   0  0  0  0  0  0  0  0  0  0  0  0
    6.7435   -4.2194    2.2006 H   0  0  0  0  0  0  0  0  0  0  0  0
    6.7429   -3.8184    3.9255 H   0  0  0  0  0  0  0  0  0  0  0  0
    8.5875   -5.7909    2.9596 H   0  0  0  0  0  0  0  0  0  0  0  0
    9.2746   -5.1429    4.4595 H   0  0  0  0  0  0  0  0  0  0  0  0
   10.7729   -5.9626    2.1151 H   0  0  0  0  0  0  0  0  0  0  0  0
   11.4521   -5.0143    3.4434 H   0  0  0  0  0  0  0  0  0  0  0  0
   11.0957   -3.9597    0.7953 H   0  0  0  0  0  0  0  0  0  0  0  0
   11.2669   -2.9835    2.2628 H   0  0  0  0  0  0  0  0  0  0  0  0
    8.8022   -3.8572    0.9584 H   0  0  0  0  0  0  0  0  0  0  0  0
  1  2  1  0
  1 17  1  0
  1 18  1  0
  1 19  1  0
  2  3  1  0
  2 20  1  0
  2 21  1  0
  3  4  1  0
  5  3  1  6
  4 22  1  0
  4 23  1  0
  4 24  1  0
  5  6  2  0
  5  7  2  0
  5  8  1  0
  8  9  1  0
  8 25  1  0
  9 10  1  0
  9 26  1  0
  9 27  1  0
 10 11  1  0
 10 28  1  0
 10 29  1  0
 11 12  1  1
 11 13  1  0
 11 16  1  0
 13 14  1  0
 13 30  1  0
 13 31  1  0
 14 15  1  0
 14 32  1  0
 14 33  1  0
 15 16  1  0
 15 34  1  0
 15 35  1  0
 16 36  1  0
M  END

