
     RDKit          3D

 34 35  0  0  0  0  0  0  0  0999 V2000
    4.4395    0.9801    0.3332 C   0  0  0  0  0  0  0  0  0  0  0  0
    4.2026   -0.4224    0.8947 C   0  0  1  0  0  0  0  0  0  0  0  0
    4.1359   -0.4827    2.4407 C   0  0  0  0  0  0  0  0  0  0  0  0
    3.0645   -1.5473    2.7157 C   0  0  0  0  0  0  0  0  0  0  0  0
    2.0637   -1.3602    1.6547 N   0  0  0  0  0  0  0  0  0  0  0  0
    2.8476   -1.0587    0.4384 C   0  0  2  0  0  0  0  0  0  0  0  0
    3.0769   -2.3440   -0.4005 C   0  0  0  0  0  0  0  0  0  0  0  0
    4.1999   -2.7749   -0.6101 O   0  0  0  0  0  0  0  0  0  0  0  0
    1.9677   -2.9761   -0.9306 N   0  0  0  0  0  0  0  0  0  0  0  0
    2.1879   -4.1560   -1.7510 C   0  0  0  0  0  0  0  0  0  0  0  0
    1.3135   -5.3308   -1.3518 C   0  0  0  0  0  0  0  0  0  0  0  0
    1.5735   -6.4785   -1.6248 O   0  0  0  0  0  0  0  0  0  0  0  0
    0.1416   -4.9889   -0.6809 N   0  0  0  0  0  0  0  0  0  0  0  0
   -0.3443   -3.7131   -0.4244 C   0  0  0  0  0  0  0  0  0  0  0  0
   -1.4549   -3.5392    0.0230 O   0  0  0  0  0  0  0  0  0  0  0  0
    0.5845   -2.5408   -0.7556 C   0  0  2  0  0  0  0  0  0  0  0  0
    0.0254   -1.7449   -1.9472 C   0  0  0  0  0  0  0  0  0  0  0  0
    5.3855    1.4030    0.7085 H   0  0  0  0  0  0  0  0  0  0  0  0
    3.6304    1.6746    0.6213 H   0  0  0  0  0  0  0  0  0  0  0  0
    4.4994    0.9680   -0.7674 H   0  0  0  0  0  0  0  0  0  0  0  0
    5.0058   -1.0845    0.5428 H   0  0  0  0  0  0  0  0  0  0  0  0
    3.8055    0.4892    2.8503 H   0  0  0  0  0  0  0  0  0  0  0  0
    5.1110   -0.7156    2.8966 H   0  0  0  0  0  0  0  0  0  0  0  0
    2.5926   -1.4731    3.7071 H   0  0  0  0  0  0  0  0  0  0  0  0
    3.4927   -2.5609    2.6296 H   0  0  0  0  0  0  0  0  0  0  0  0
    1.5041   -0.5393    1.8883 H   0  0  0  0  0  0  0  0  0  0  0  0
    2.2762   -0.3575   -0.1921 H   0  0  0  0  0  0  0  0  0  0  0  0
    3.2384   -4.4556   -1.6583 H   0  0  0  0  0  0  0  0  0  0  0  0
    2.0019   -3.9535   -2.8243 H   0  0  0  0  0  0  0  0  0  0  0  0
   -0.4799   -5.7606   -0.4398 H   0  0  0  0  0  0  0  0  0  0  0  0
    0.5423   -1.9362    0.1572 H   0  0  0  0  0  0  0  0  0  0  0  0
    0.0435   -2.3344   -2.8777 H   0  0  0  0  0  0  0  0  0  0  0  0
    0.6188   -0.8325   -2.1101 H   0  0  0  0  0  0  0  0  0  0  0  0
   -1.0163   -1.4574   -1.7442 H   0  0  0  0  0  0  0  0  0  0  0  0
  1  2  1  0
  1 18  1  0
  1 19  1  0
  1 20  1  0
  2  3  1  0
  2  6  1  0
  2 21  1  6
  3  4  1  0
  3 22  1  0
  3 23  1  0
  4  5  1  0
  4 24  1  0
  4 25  1  0
  5  6  1  0
  5 26  1  0
  6  7  1  0
  6 27  1  6
  7  8  2  0
  7  9  1  0
  9 10  1  0
  9 16  1  0
 10 11  1  0
 10 28  1  0
 10 29  1  0
 11 12  2  0
 11 13  1  0
 13 14  1  0
 13 30  1  0
 14 15  2  0
 14 16  1  0
 16 17  1  0
 16 31  1  1
 17 32  1  0
 17 33  1  0
 17 34  1  0
M  END

