
     RDKit          3D

 48 51  0  0  0  0  0  0  0  0999 V2000
    8.2888    0.1287   -1.6869 C   0  0  0  0  0  0  0  0  0  0  0  0
    8.0398    1.4387   -1.6506 C   0  0  0  0  0  0  0  0  0  0  0  0
    7.0226    2.1280   -0.7907 C   0  0  0  0  0  0  0  0  0  0  0  0
    6.3860    1.2013    0.0680 O   0  0  0  0  0  0  0  0  0  0  0  0
    5.4403    1.6142    0.9459 C   0  0  0  0  0  0  0  0  0  0  0  0
    4.9724    2.9323    1.0057 C   0  0  0  0  0  0  0  0  0  0  0  0
    3.9845    3.2895    1.9260 C   0  0  0  0  0  0  0  0  0  0  0  0
    3.4627    2.3278    2.7927 C   0  0  0  0  0  0  0  0  0  0  0  0
    2.2349    2.7865    3.9505 Cl  0  0  0  0  0  0  0  0  0  0  0  0
    3.9143    1.0110    2.7505 C   0  0  0  0  0  0  0  0  0  0  0  0
    4.9107    0.6209    1.8320 C   0  0  0  0  0  0  0  0  0  0  0  0
    5.5025   -0.7083    1.7455 C   0  0  0  0  0  0  0  0  0  0  0  0
    5.1287   -1.9764    2.0979 C   0  0  0  0  0  0  0  0  0  0  0  0
    6.1207   -3.0517    1.7953 C   0  0  0  0  0  0  0  0  0  0  0  0
    7.3895   -2.9807    1.7326 N   0  0  0  0  0  0  0  0  0  0  0  0
    5.5328   -4.3162    1.5220 N   0  0  0  0  0  0  0  0  0  0  0  0
    6.1587   -5.4630    0.9926 C   0  0  0  0  0  0  0  0  0  0  0  0
    7.8775   -5.4814    0.6009 S   0  0  0  0  0  0  0  0  0  0  0  0
    7.9520   -7.1880   -0.1250 C   0  0  0  0  0  0  0  0  0  0  0  0
    9.3690   -7.4521   -0.5631 C   0  0  0  0  0  0  0  0  0  0  0  0
   10.3025   -8.0066    0.3276 C   0  0  0  0  0  0  0  0  0  0  0  0
   11.6199   -8.2412   -0.0738 C   0  0  0  0  0  0  0  0  0  0  0  0
   12.0251   -7.9201   -1.3729 C   0  0  0  0  0  0  0  0  0  0  0  0
   11.1059   -7.3628   -2.2671 C   0  0  0  0  0  0  0  0  0  0  0  0
    9.7892   -7.1285   -1.8633 C   0  0  0  0  0  0  0  0  0  0  0  0
    5.3891   -6.4843    0.7964 N   0  0  0  0  0  0  0  0  0  0  0  0
    3.7891   -6.1441    1.2691 S   0  0  0  0  0  0  0  0  0  0  0  0
    4.1749   -4.5083    1.7742 C   0  0  0  0  0  0  0  0  0  0  0  0
    3.3559   -3.6749    2.3051 N   0  0  0  0  0  0  0  0  0  0  0  0
    3.7956   -2.4036    2.6569 C   0  0  0  0  0  0  0  0  0  0  0  0
    3.1124   -1.6863    3.3640 O   0  0  0  0  0  0  0  0  0  0  0  0
    9.0528   -0.2769   -2.3547 H   0  0  0  0  0  0  0  0  0  0  0  0
    7.7434   -0.5803   -1.0601 H   0  0  0  0  0  0  0  0  0  0  0  0
    8.6018    2.1217   -2.2989 H   0  0  0  0  0  0  0  0  0  0  0  0
    6.2726    2.6281   -1.4355 H   0  0  0  0  0  0  0  0  0  0  0  0
    7.5115    2.9258   -0.1968 H   0  0  0  0  0  0  0  0  0  0  0  0
    5.3654    3.6951    0.3351 H   0  0  0  0  0  0  0  0  0  0  0  0
    3.6220    4.3180    1.9708 H   0  0  0  0  0  0  0  0  0  0  0  0
    3.5067    0.2613    3.4255 H   0  0  0  0  0  0  0  0  0  0  0  0
    6.4594   -0.6668    1.2187 H   0  0  0  0  0  0  0  0  0  0  0  0
    7.7364   -2.0508    1.9704 H   0  0  0  0  0  0  0  0  0  0  0  0
    7.2432   -7.2360   -0.9628 H   0  0  0  0  0  0  0  0  0  0  0  0
    7.6159   -7.8986    0.6421 H   0  0  0  0  0  0  0  0  0  0  0  0
    9.9903   -8.2593    1.3448 H   0  0  0  0  0  0  0  0  0  0  0  0
   12.3324   -8.6786    0.6303 H   0  0  0  0  0  0  0  0  0  0  0  0
   13.0550   -8.1056   -1.6885 H   0  0  0  0  0  0  0  0  0  0  0  0
   11.4150   -7.1111   -3.2850 H   0  0  0  0  0  0  0  0  0  0  0  0
    9.0738   -6.6924   -2.5663 H   0  0  0  0  0  0  0  0  0  0  0  0
  1  2  2  0
  1 32  1  0
  1 33  1  0
  2  3  1  0
  2 34  1  0
  3  4  1  0
  3 35  1  0
  3 36  1  0
  4  5  1  0
  5  6  2  0
  5 11  1  0
  6  7  1  0
  6 37  1  0
  7  8  2  0
  7 38  1  0
  8  9  1  0
  8 10  1  0
 10 11  2  0
 10 39  1  0
 11 12  1  0
 12 13  2  0
 12 40  1  0
 13 14  1  0
 13 30  1  0
 14 15  2  0
 14 16  1  0
 15 41  1  0
 16 17  1  0
 16 28  1  0
 17 18  1  0
 17 26  2  0
 18 19  1  0
 19 20  1  0
 19 42  1  0
 19 43  1  0
 20 21  2  0
 20 25  1  0
 21 22  1  0
 21 44  1  0
 22 23  2  0
 22 45  1  0
 23 24  1  0
 23 46  1  0
 24 25  2  0
 24 47  1  0
 25 48  1  0
 26 27  1  0
 27 28  2  0
 28 29  1  0
 29 30  2  0
 30 31  1  0
M  CHG  2  27   1  31  -1
M  END

