
     RDKit          3D

 33 35  0  0  0  0  0  0  0  0999 V2000
    2.4854   -1.1462    0.6977 O   0  0  0  0  0  0  0  0  0  0  0  0
    2.7540   -0.0715    0.1921 C   0  0  0  0  0  0  0  0  0  0  0  0
    3.3316   -0.0137   -1.1980 C   0  0  0  0  0  0  0  0  0  0  0  0
    3.5135   -1.2337   -1.8727 C   0  0  0  0  0  0  0  0  0  0  0  0
    4.0445   -1.2632   -3.1680 C   0  0  0  0  0  0  0  0  0  0  0  0
    4.4035   -0.0710   -3.7858 C   0  0  0  0  0  0  0  0  0  0  0  0
    4.2242    1.1573   -3.1158 C   0  0  0  0  0  0  0  0  0  0  0  0
    3.6906    1.1979   -1.8260 C   0  0  0  0  0  0  0  0  0  0  0  0
    4.6173    2.2152   -3.9316 N   0  0  0  0  0  0  0  0  0  0  0  0
    5.4403    1.6843   -5.0254 C   0  0  0  0  0  0  0  0  0  0  0  0
    4.9511    0.2228   -5.1659 C   0  0  0  0  0  0  0  0  0  0  0  0
    2.5512    1.2384    0.9635 C   0  0  1  0  0  0  0  0  0  0  0  0
    1.5829    1.0863    2.1667 C   0  0  0  0  0  0  0  0  0  0  0  0
    2.3043    1.7099    3.3750 C   0  0  0  0  0  0  0  0  0  0  0  0
    3.7830    1.4278    3.0863 C   0  0  0  0  0  0  0  0  0  0  0  0
    3.9097    1.7228    1.5841 C   0  0  0  0  0  0  0  0  0  0  0  0
    3.2302   -2.1515   -1.3560 H   0  0  0  0  0  0  0  0  0  0  0  0
    4.1808   -2.2183   -3.6833 H   0  0  0  0  0  0  0  0  0  0  0  0
    3.5642    2.1562   -1.3202 H   0  0  0  0  0  0  0  0  0  0  0  0
    4.9228    3.0738   -3.4867 H   0  0  0  0  0  0  0  0  0  0  0  0
    6.5186    1.7013   -4.7660 H   0  0  0  0  0  0  0  0  0  0  0  0
    5.3080    2.2699   -5.9482 H   0  0  0  0  0  0  0  0  0  0  0  0
    5.7508   -0.4624   -5.4849 H   0  0  0  0  0  0  0  0  0  0  0  0
    4.1420    0.1531   -5.9159 H   0  0  0  0  0  0  0  0  0  0  0  0
    2.1809    1.9964    0.2586 H   0  0  0  0  0  0  0  0  0  0  0  0
    1.4152    0.0130    2.3405 H   0  0  0  0  0  0  0  0  0  0  0  0
    0.6031    1.5476    1.9691 H   0  0  0  0  0  0  0  0  0  0  0  0
    1.9602    1.2981    4.3370 H   0  0  0  0  0  0  0  0  0  0  0  0
    2.1347    2.8012    3.4102 H   0  0  0  0  0  0  0  0  0  0  0  0
    4.0037    0.3638    3.2791 H   0  0  0  0  0  0  0  0  0  0  0  0
    4.4778    2.0251    3.6984 H   0  0  0  0  0  0  0  0  0  0  0  0
    4.7873    1.2436    1.1231 H   0  0  0  0  0  0  0  0  0  0  0  0
    4.0179    2.8086    1.4230 H   0  0  0  0  0  0  0  0  0  0  0  0
  1  2  2  0
  2  3  1  0
  2 12  1  0
  3  4  2  0
  3  8  1  0
  4  5  1  0
  4 17  1  0
  5  6  2  0
  5 18  1  0
  6  7  1  0
  6 11  1  0
  7  8  2  0
  7  9  1  0
  8 19  1  0
  9 10  1  0
  9 20  1  0
 10 11  1  0
 10 21  1  0
 10 22  1  0
 11 23  1  0
 11 24  1  0
 12 13  1  0
 12 16  1  0
 12 25  1  6
 13 14  1  0
 13 26  1  0
 13 27  1  0
 14 15  1  0
 14 28  1  0
 14 29  1  0
 15 16  1  0
 15 30  1  0
 15 31  1  0
 16 32  1  0
 16 33  1  0
M  END

