
     RDKit          3D

 46 48  0  0  0  0  0  0  0  0999 V2000
    3.1593   -0.2355    1.0963 C   0  0  0  0  0  0  0  0  0  0  0  0
    4.6881   -0.2273    0.9924 C   0  0  1  0  0  0  0  0  0  0  0  0
    5.2204    1.0829    0.4030 C   0  0  0  0  0  0  0  0  0  0  0  0
    5.3235   -0.5035    2.3567 C   0  0  0  0  0  0  0  0  0  0  0  0
    5.1447   -1.3636    0.1850 O   0  0  0  0  0  0  0  0  0  0  0  0
    4.8043   -1.4983   -1.1131 C   0  0  0  0  0  0  0  0  0  0  0  0
    4.0904   -0.7283   -1.7326 O   0  0  0  0  0  0  0  0  0  0  0  0
    5.3738   -2.6186   -1.6692 N   0  0  0  0  0  0  0  0  0  0  0  0
    6.0224   -3.6888   -0.9158 C   0  0  0  0  0  0  0  0  0  0  0  0
    5.1363   -4.9429   -0.8959 C   0  0  0  0  0  0  0  0  0  0  0  0
    4.6910   -5.3437   -2.3097 C   0  0  0  0  0  0  0  0  0  0  0  0
    4.0646   -4.1620   -3.0536 C   0  0  2  0  0  0  0  0  0  0  0  0
    3.7824   -4.5897   -4.3755 O   0  0  0  0  0  0  0  0  0  0  0  0
    2.8224   -3.9772   -5.1361 C   0  0  0  0  0  0  0  0  0  0  0  0
    2.1390   -2.7936   -4.7413 C   0  0  0  0  0  0  0  0  0  0  0  0
    1.1686   -2.2162   -5.5535 C   0  0  0  0  0  0  0  0  0  0  0  0
    0.8847   -2.8345   -6.7797 C   0  0  0  0  0  0  0  0  0  0  0  0
    0.0110   -2.5372   -7.7950 N   0  0  0  0  0  0  0  0  0  0  0  0
   -0.6370   -1.7629   -7.8534 H   0  0  0  0  0  0  0  0  0  0  0  0
    0.0764   -3.4216   -8.8083 N   0  0  0  0  0  0  0  0  0  0  0  0
    0.9927   -4.3107   -8.4724 C   0  0  0  0  0  0  0  0  0  0  0  0
    1.5628   -4.0132   -7.1904 C   0  0  0  0  0  0  0  0  0  0  0  0
    2.5390   -4.5872   -6.3568 C   0  0  0  0  0  0  0  0  0  0  0  0
    5.0313   -2.9645   -3.0407 C   0  0  0  0  0  0  0  0  0  0  0  0
    2.8309    0.5502    1.7946 H   0  0  0  0  0  0  0  0  0  0  0  0
    2.8068   -1.2042    1.4844 H   0  0  0  0  0  0  0  0  0  0  0  0
    2.6967   -0.0553    0.1180 H   0  0  0  0  0  0  0  0  0  0  0  0
    4.9699    1.9199    1.0735 H   0  0  0  0  0  0  0  0  0  0  0  0
    4.7837    1.2771   -0.5845 H   0  0  0  0  0  0  0  0  0  0  0  0
    6.3166    1.0409    0.3051 H   0  0  0  0  0  0  0  0  0  0  0  0
    5.0551    0.2909    3.0695 H   0  0  0  0  0  0  0  0  0  0  0  0
    6.4203   -0.5408    2.2737 H   0  0  0  0  0  0  0  0  0  0  0  0
    4.9740   -1.4659    2.7608 H   0  0  0  0  0  0  0  0  0  0  0  0
    6.2386   -3.3344    0.0971 H   0  0  0  0  0  0  0  0  0  0  0  0
    6.9872   -3.9217   -1.4040 H   0  0  0  0  0  0  0  0  0  0  0  0
    4.2506   -4.7382   -0.2689 H   0  0  0  0  0  0  0  0  0  0  0  0
    5.6795   -5.7748   -0.4176 H   0  0  0  0  0  0  0  0  0  0  0  0
    3.9746   -6.1799   -2.2777 H   0  0  0  0  0  0  0  0  0  0  0  0
    5.5586   -5.6907   -2.8986 H   0  0  0  0  0  0  0  0  0  0  0  0
    3.1301   -3.8665   -2.5410 H   0  0  0  0  0  0  0  0  0  0  0  0
    2.3769   -2.3055   -3.7960 H   0  0  0  0  0  0  0  0  0  0  0  0
    0.6578   -1.3046   -5.2354 H   0  0  0  0  0  0  0  0  0  0  0  0
    1.2251   -5.1364   -9.1447 H   0  0  0  0  0  0  0  0  0  0  0  0
    3.0784   -5.4949   -6.6334 H   0  0  0  0  0  0  0  0  0  0  0  0
    4.5988   -2.0835   -3.5265 H   0  0  0  0  0  0  0  0  0  0  0  0
    5.9469   -3.2493   -3.5893 H   0  0  0  0  0  0  0  0  0  0  0  0
  1  2  1  0
  1 25  1  0
  1 26  1  0
  1 27  1  0
  2  3  1  0
  2  4  1  0
  2  5  1  6
  3 28  1  0
  3 29  1  0
  3 30  1  0
  4 31  1  0
  4 32  1  0
  4 33  1  0
  5  6  1  0
  6  7  2  0
  6  8  1  0
  8  9  1  0
  8 24  1  0
  9 10  1  0
  9 34  1  0
  9 35  1  0
 10 11  1  0
 10 36  1  0
 10 37  1  0
 11 12  1  0
 11 38  1  0
 11 39  1  0
 12 13  1  0
 12 24  1  0
 12 40  1  1
 13 14  1  0
 14 15  2  0
 14 23  1  0
 15 16  1  0
 15 41  1  0
 16 17  2  0
 16 42  1  0
 17 18  1  0
 17 22  1  0
 18 19  1  0
 18 20  1  0
 20 21  2  0
 21 22  1  0
 21 43  1  0
 22 23  2  0
 23 44  1  0
 24 45  1  0
 24 46  1  0
M  END

