
     RDKit          3D

 39 41  0  0  0  0  0  0  0  0999 V2000
    0.9168   -0.5038   -0.1755 C   0  0  0  0  0  0  0  0  0  0  0  0
    2.2852   -0.0745    0.3377 C   0  0  0  0  0  0  0  0  0  0  0  0
    2.6643    1.0797    0.2216 O   0  0  0  0  0  0  0  0  0  0  0  0
    3.0727   -1.0398    0.9309 N   0  0  0  0  0  0  0  0  0  0  0  0
    2.7022   -2.4280    1.1637 C   0  0  0  0  0  0  0  0  0  0  0  0
    3.8014   -3.3757    0.6700 C   0  0  0  0  0  0  0  0  0  0  0  0
    5.0931   -3.0081    1.2411 N   0  0  0  0  0  0  0  0  0  0  0  0
    5.8068   -3.9698    1.9060 C   0  0  0  0  0  0  0  0  0  0  0  0
    5.3944   -5.1201    2.0310 O   0  0  0  0  0  0  0  0  0  0  0  0
    7.1379   -3.6605    2.5187 C   0  0  0  0  0  0  0  0  0  0  0  0
    7.8983   -4.6349    3.1436 C   0  0  0  0  0  0  0  0  0  0  0  0
    9.0072   -3.9826    3.5691 N   0  0  0  0  0  0  0  0  0  0  0  0
   10.1371   -4.4846    4.2738 C   0  0  0  0  0  0  0  0  0  0  0  0
   10.0437   -5.6757    5.0038 C   0  0  0  0  0  0  0  0  0  0  0  0
   11.1601   -6.1666    5.6812 C   0  0  0  0  0  0  0  0  0  0  0  0
   12.3636   -5.4568    5.6370 C   0  0  0  0  0  0  0  0  0  0  0  0
   13.7590   -6.0672    6.4876 Cl  0  0  0  0  0  0  0  0  0  0  0  0
   12.4565   -4.2600    4.9186 C   0  0  0  0  0  0  0  0  0  0  0  0
   11.3444   -3.7747    4.2330 C   0  0  0  0  0  0  0  0  0  0  0  0
    8.9400   -2.6706    3.2272 N   0  0  0  0  0  0  0  0  0  0  0  0
    7.8278   -2.4833    2.6023 N   0  0  0  0  0  0  0  0  0  0  0  0
    5.4699   -1.6170    0.9840 C   0  0  0  0  0  0  0  0  0  0  0  0
    4.3740   -0.6697    1.4773 C   0  0  0  0  0  0  0  0  0  0  0  0
    0.4368    0.3847   -0.6024 H   0  0  0  0  0  0  0  0  0  0  0  0
    0.2810   -0.9015    0.6315 H   0  0  0  0  0  0  0  0  0  0  0  0
    0.9934   -1.2770   -0.9565 H   0  0  0  0  0  0  0  0  0  0  0  0
    1.7632   -2.6663    0.6504 H   0  0  0  0  0  0  0  0  0  0  0  0
    2.5423   -2.5986    2.2465 H   0  0  0  0  0  0  0  0  0  0  0  0
    3.8632   -3.3167   -0.4331 H   0  0  0  0  0  0  0  0  0  0  0  0
    3.5849   -4.4123    0.9542 H   0  0  0  0  0  0  0  0  0  0  0  0
    7.7133   -5.6954    3.2733 H   0  0  0  0  0  0  0  0  0  0  0  0
    9.1006   -6.2211    5.0626 H   0  0  0  0  0  0  0  0  0  0  0  0
   11.0956   -7.0938    6.2522 H   0  0  0  0  0  0  0  0  0  0  0  0
   13.4010   -3.7145    4.8926 H   0  0  0  0  0  0  0  0  0  0  0  0
   11.3988   -2.8459    3.6659 H   0  0  0  0  0  0  0  0  0  0  0  0
    5.6012   -1.4830   -0.1063 H   0  0  0  0  0  0  0  0  0  0  0  0
    6.4199   -1.3881    1.4766 H   0  0  0  0  0  0  0  0  0  0  0  0
    4.5819    0.3632    1.1721 H   0  0  0  0  0  0  0  0  0  0  0  0
    4.3367   -0.7044    2.5833 H   0  0  0  0  0  0  0  0  0  0  0  0
  1  2  1  0
  1 24  1  0
  1 25  1  0
  1 26  1  0
  2  3  2  0
  2  4  1  0
  4  5  1  0
  4 23  1  0
  5  6  1  0
  5 27  1  0
  5 28  1  0
  6  7  1  0
  6 29  1  0
  6 30  1  0
  7  8  1  0
  7 22  1  0
  8  9  2  0
  8 10  1  0
 10 11  2  0
 10 21  1  0
 11 12  1  0
 11 31  1  0
 12 13  1  0
 12 20  1  0
 13 14  2  0
 13 19  1  0
 14 15  1  0
 14 32  1  0
 15 16  2  0
 15 33  1  0
 16 17  1  0
 16 18  1  0
 18 19  2  0
 18 34  1  0
 19 35  1  0
 20 21  2  0
 22 23  1  0
 22 36  1  0
 22 37  1  0
 23 38  1  0
 23 39  1  0
M  END

