
     RDKit          3D

 47 51  0  0  0  0  0  0  0  0999 V2000
    3.6827    0.7297   -1.1954 C   0  0  0  0  0  0  0  0  0  0  0  0
    2.8155    0.5288    0.0501 C   0  0  1  0  0  0  0  0  0  0  0  0
    1.3104    0.5845   -0.2468 C   0  0  0  0  0  0  0  0  0  0  0  0
    3.1711   -0.7087    0.8254 N   0  0  0  0  0  0  0  0  0  0  0  0
    2.7696   -1.9391    0.2394 C   0  0  0  0  0  0  0  0  0  0  0  0
    2.4927   -2.0153   -0.9371 O   0  0  0  0  0  0  0  0  0  0  0  0
    2.6523   -3.0641    1.1672 C   0  0  0  0  0  0  0  0  0  0  0  0
    2.1523   -4.3661    1.0702 C   0  0  0  0  0  0  0  0  0  0  0  0
    1.5207   -5.0537   -0.0509 C   0  0  0  0  0  0  0  0  0  0  0  0
    0.8993   -4.5719   -1.0882 N   0  0  0  0  0  0  0  0  0  0  0  0
    0.5052   -5.7065   -1.7550 C   0  0  0  0  0  0  0  0  0  0  0  0
   -0.2742   -5.6606   -3.0277 C   0  0  1  0  0  0  0  0  0  0  0  0
   -0.6927   -7.0148   -3.6159 C   0  0  0  0  0  0  0  0  0  0  0  0
   -1.8620   -6.6218   -4.5303 C   0  0  0  0  0  0  0  0  0  0  0  0
   -2.3897   -5.3982   -4.0199 O   0  0  0  0  0  0  0  0  0  0  0  0
   -1.6429   -4.9613   -2.9013 C   0  0  0  0  0  0  0  0  0  0  0  0
    0.8604   -6.8220   -1.1622 N   0  0  0  0  0  0  0  0  0  0  0  0
    1.5351   -6.3982   -0.0308 O   0  0  0  0  0  0  0  0  0  0  0  0
    2.2900   -5.0012    2.2739 N   0  0  0  0  0  0  0  0  0  0  0  0
    2.8430   -4.1392    3.0900 C   0  0  0  0  0  0  0  0  0  0  0  0
    3.0852   -2.9365    2.4742 N   0  0  0  0  0  0  0  0  0  0  0  0
    3.7129   -1.7733    2.9539 C   0  0  0  0  0  0  0  0  0  0  0  0
    4.2551   -1.7462    4.2410 C   0  0  0  0  0  0  0  0  0  0  0  0
    4.9063   -0.6184    4.7256 C   0  0  0  0  0  0  0  0  0  0  0  0
    5.0421    0.4643    3.8717 C   0  0  0  0  0  0  0  0  0  0  0  0
    5.7107    1.5360    4.2892 F   0  0  0  0  0  0  0  0  0  0  0  0
    4.5295    0.4751    2.5589 C   0  0  0  0  0  0  0  0  0  0  0  0
    4.9086    1.6168    1.7810 C   0  0  0  0  0  0  0  0  0  0  0  0
    5.2899    2.5516    1.2069 N   0  0  0  0  0  0  0  0  0  0  0  0
    3.7838   -0.6513    2.0785 C   0  0  0  0  0  0  0  0  0  0  0  0
    3.4950    1.7345   -1.6047 H   0  0  0  0  0  0  0  0  0  0  0  0
    3.4480   -0.0186   -1.9626 H   0  0  0  0  0  0  0  0  0  0  0  0
    4.7530    0.6701   -0.9525 H   0  0  0  0  0  0  0  0  0  0  0  0
    3.0129    1.3541    0.7399 H   0  0  0  0  0  0  0  0  0  0  0  0
    1.0032   -0.1688   -0.9829 H   0  0  0  0  0  0  0  0  0  0  0  0
    1.0723    1.5806   -0.6507 H   0  0  0  0  0  0  0  0  0  0  0  0
    0.7203    0.4460    0.6729 H   0  0  0  0  0  0  0  0  0  0  0  0
    0.3267   -5.0986   -3.7643 H   0  0  0  0  0  0  0  0  0  0  0  0
   -1.0250   -7.6820   -2.8058 H   0  0  0  0  0  0  0  0  0  0  0  0
    0.1215   -7.5251   -4.1507 H   0  0  0  0  0  0  0  0  0  0  0  0
   -2.6535   -7.3913   -4.5513 H   0  0  0  0  0  0  0  0  0  0  0  0
   -1.5279   -6.4589   -5.5720 H   0  0  0  0  0  0  0  0  0  0  0  0
   -2.1344   -5.2546   -1.9506 H   0  0  0  0  0  0  0  0  0  0  0  0
   -1.5670   -3.8633   -2.9202 H   0  0  0  0  0  0  0  0  0  0  0  0
    3.0864   -4.3305    4.1330 H   0  0  0  0  0  0  0  0  0  0  0  0
    4.1681   -2.6244    4.8802 H   0  0  0  0  0  0  0  0  0  0  0  0
    5.3274   -0.5757    5.7301 H   0  0  0  0  0  0  0  0  0  0  0  0
  1  2  1  0
  1 31  1  0
  1 32  1  0
  1 33  1  0
  2  3  1  0
  2  4  1  0
  2 34  1  1
  3 35  1  0
  3 36  1  0
  3 37  1  0
  4  5  1  0
  4 30  1  0
  5  6  2  0
  5  7  1  0
  7  8  2  0
  7 21  1  0
  8  9  1  0
  8 19  1  0
  9 10  2  0
  9 18  1  0
 10 11  1  0
 11 12  1  0
 11 17  2  0
 12 13  1  0
 12 16  1  0
 12 38  1  6
 13 14  1  0
 13 39  1  0
 13 40  1  0
 14 15  1  0
 14 41  1  0
 14 42  1  0
 15 16  1  0
 16 43  1  0
 16 44  1  0
 17 18  1  0
 19 20  2  0
 20 21  1  0
 20 45  1  0
 21 22  1  0
 22 23  1  0
 22 30  2  0
 23 24  2  0
 23 46  1  0
 24 25  1  0
 24 47  1  0
 25 26  1  0
 25 27  2  0
 27 28  1  0
 27 30  1  0
 28 29  3  0
M  END

