
     RDKit          3D

 50 52  0  0  0  0  0  0  0  0999 V2000
    2.9085    0.4569    2.8422 C   0  0  0  0  0  0  0  0  0  0  0  0
    3.7479   -0.0146    1.7990 O   0  0  0  0  0  0  0  0  0  0  0  0
    4.5552   -1.0709    2.1083 C   0  0  0  0  0  0  0  0  0  0  0  0
    5.8813   -0.8292    2.4973 C   0  0  0  0  0  0  0  0  0  0  0  0
    6.7566   -1.8836    2.7718 C   0  0  0  0  0  0  0  0  0  0  0  0
    8.0963   -1.7290    3.1567 N   0  0  0  0  0  0  0  0  0  0  0  0
    8.8041   -0.5678    3.3601 C   0  0  0  0  0  0  0  0  0  0  0  0
    8.3318    0.5472    3.2499 O   0  0  0  0  0  0  0  0  0  0  0  0
   10.2821   -0.8356    3.6969 C   0  0  0  0  0  0  0  0  0  0  0  0
   10.9744    0.3209    4.2206 N   0  0  0  0  0  0  0  0  0  0  0  0
   11.2967    1.3245    3.2187 C   0  0  0  0  0  0  0  0  0  0  0  0
   12.0546    0.0257    5.1642 C   0  0  2  0  0  0  0  0  0  0  0  0
   12.5231    1.0035    5.3802 H   0  0  0  0  0  0  0  0  0  0  0  0
   13.1653   -0.9152    4.6706 C   0  0  0  0  0  0  0  0  0  0  0  0
   11.4702   -0.4400    6.4818 C   0  0  0  0  0  0  0  0  0  0  0  0
   12.0514   -1.2255    7.3248 N   0  0  0  0  0  0  0  0  0  0  0  0
   11.2919   -1.3956    8.4691 C   0  0  0  0  0  0  0  0  0  0  0  0
   11.6468   -2.1881    9.5740 C   0  0  0  0  0  0  0  0  0  0  0  0
   10.7761   -2.2669   10.6569 C   0  0  0  0  0  0  0  0  0  0  0  0
    9.5539   -1.5669   10.6528 C   0  0  0  0  0  0  0  0  0  0  0  0
    9.1821   -0.7761    9.5661 C   0  0  0  0  0  0  0  0  0  0  0  0
   10.0580   -0.6920    8.4763 C   0  0  0  0  0  0  0  0  0  0  0  0
    9.8842    0.1943    6.9756 S   0  0  0  0  0  0  0  0  0  0  0  0
    6.2846   -3.2175    2.6581 C   0  0  0  0  0  0  0  0  0  0  0  0
    7.2057   -4.1855    2.9409 O   0  0  0  0  0  0  0  0  0  0  0  0
    6.8313   -5.5439    2.8579 C   0  0  0  0  0  0  0  0  0  0  0  0
    4.9678   -3.4651    2.2757 C   0  0  0  0  0  0  0  0  0  0  0  0
    4.1061   -2.3934    2.0055 C   0  0  0  0  0  0  0  0  0  0  0  0
    2.4625   -2.7264    1.5110 Cl  0  0  0  0  0  0  0  0  0  0  0  0
    2.3487    1.3124    2.4390 H   0  0  0  0  0  0  0  0  0  0  0  0
    3.4998    0.7927    3.7134 H   0  0  0  0  0  0  0  0  0  0  0  0
    2.1928   -0.3171    3.1696 H   0  0  0  0  0  0  0  0  0  0  0  0
    6.2335    0.1966    2.5765 H   0  0  0  0  0  0  0  0  0  0  0  0
    8.5772   -2.6106    3.3045 H   0  0  0  0  0  0  0  0  0  0  0  0
   10.7577   -1.2475    2.7764 H   0  0  0  0  0  0  0  0  0  0  0  0
   10.3135   -1.6458    4.4431 H   0  0  0  0  0  0  0  0  0  0  0  0
   10.3816    1.6081    2.6840 H   0  0  0  0  0  0  0  0  0  0  0  0
   12.0500    0.9809    2.4750 H   0  0  0  0  0  0  0  0  0  0  0  0
   11.6920    2.2267    3.7107 H   0  0  0  0  0  0  0  0  0  0  0  0
   13.9521   -1.0030    5.4323 H   0  0  0  0  0  0  0  0  0  0  0  0
   13.6132   -0.5273    3.7429 H   0  0  0  0  0  0  0  0  0  0  0  0
   12.7825   -1.9294    4.4806 H   0  0  0  0  0  0  0  0  0  0  0  0
   12.5981   -2.7239    9.5612 H   0  0  0  0  0  0  0  0  0  0  0  0
   11.0422   -2.8785   11.5225 H   0  0  0  0  0  0  0  0  0  0  0  0
    8.8858   -1.6429   11.5144 H   0  0  0  0  0  0  0  0  0  0  0  0
    8.2330   -0.2354    9.5687 H   0  0  0  0  0  0  0  0  0  0  0  0
    7.7185   -6.1318    3.1284 H   0  0  0  0  0  0  0  0  0  0  0  0
    6.5165   -5.8170    1.8352 H   0  0  0  0  0  0  0  0  0  0  0  0
    6.0133   -5.7834    3.5602 H   0  0  0  0  0  0  0  0  0  0  0  0
    4.5868   -4.4800    2.1775 H   0  0  0  0  0  0  0  0  0  0  0  0
  1  2  1  0
  1 30  1  0
  1 31  1  0
  1 32  1  0
  2  3  1  0
  3  4  2  0
  3 28  1  0
  4  5  1  0
  4 33  1  0
  5  6  1  0
  5 24  2  0
  6  7  1  0
  6 34  1  0
  7  8  2  0
  7  9  1  0
  9 10  1  0
  9 35  1  0
  9 36  1  0
 10 11  1  0
 10 12  1  0
 11 37  1  0
 11 38  1  0
 11 39  1  0
 12 13  1  1
 12 14  1  0
 12 15  1  0
 14 40  1  0
 14 41  1  0
 14 42  1  0
 15 16  2  0
 15 23  1  0
 16 17  1  0
 17 18  2  0
 17 22  1  0
 18 19  1  0
 18 43  1  0
 19 20  2  0
 19 44  1  0
 20 21  1  0
 20 45  1  0
 21 22  2  0
 21 46  1  0
 22 23  1  0
 24 25  1  0
 24 27  1  0
 25 26  1  0
 26 47  1  0
 26 48  1  0
 26 49  1  0
 27 28  2  0
 27 50  1  0
 28 29  1  0
M  END

