
     RDKit          3D

 50 54  0  0  0  0  0  0  0  0999 V2000
    3.8139    1.1876   -1.0197 C   0  0  0  0  0  0  0  0  0  0  0  0
    2.9550    0.0946   -0.4030 C   0  0  2  0  0  0  0  0  0  0  0  0
    1.9776    0.5379   -0.0977 H   0  0  0  0  0  0  0  0  0  0  0  0
    3.6394   -0.4118    0.7246 O   0  0  0  0  0  0  0  0  0  0  0  0
    2.6373   -1.0619   -1.3589 C   0  0  1  0  0  0  0  0  0  0  0  0
    3.6023   -1.4995   -1.6662 H   0  0  0  0  0  0  0  0  0  0  0  0
    1.8727   -2.0967   -0.6441 N   0  0  0  0  0  0  0  0  0  0  0  0
    1.2613   -2.9546   -1.6632 C   0  0  2  0  0  0  0  0  0  0  0  0
   -0.0095   -3.6148   -1.0605 C   0  0  0  0  0  0  0  0  0  0  0  0
   -0.9308   -3.0120   -0.5563 O   0  0  0  0  0  0  0  0  0  0  0  0
    0.1261   -4.9695   -1.1994 N   0  0  0  0  0  0  0  0  0  0  0  0
    1.3575   -5.3250   -1.7713 C   0  0  0  0  0  0  0  0  0  0  0  0
    1.8557   -6.5973   -2.0313 C   0  0  0  0  0  0  0  0  0  0  0  0
    3.1347   -6.7057   -2.5952 C   0  0  0  0  0  0  0  0  0  0  0  0
    3.8639   -5.5541   -2.8758 C   0  0  0  0  0  0  0  0  0  0  0  0
    5.0883   -5.6698   -3.4134 F   0  0  0  0  0  0  0  0  0  0  0  0
    3.3647   -4.2722   -2.6188 C   0  0  0  0  0  0  0  0  0  0  0  0
    2.0956   -4.1623   -2.0616 C   0  0  0  0  0  0  0  0  0  0  0  0
    0.8645   -1.9516   -2.8173 C   0  0  2  0  0  0  0  0  0  0  0  0
   -0.2012   -1.7072   -2.6974 H   0  0  0  0  0  0  0  0  0  0  0  0
    1.1050   -2.4258   -4.2420 C   0  0  0  0  0  0  0  0  0  0  0  0
    0.5558   -3.3339   -4.8193 O   0  0  0  0  0  0  0  0  0  0  0  0
    2.1031   -1.6199   -4.7916 N   0  0  0  0  0  0  0  0  0  0  0  0
    2.6090   -1.7937   -6.1551 C   0  0  0  0  0  0  0  0  0  0  0  0
    1.8420   -0.9911   -7.1874 C   0  0  0  0  0  0  0  0  0  0  0  0
    2.2389    0.3155   -7.5136 C   0  0  0  0  0  0  0  0  0  0  0  0
    1.5291    1.0659   -8.4535 C   0  0  0  0  0  0  0  0  0  0  0  0
    0.4137    0.4968   -9.0645 C   0  0  0  0  0  0  0  0  0  0  0  0
   -0.2707    1.2105   -9.9700 F   0  0  0  0  0  0  0  0  0  0  0  0
   -0.0083   -0.7956   -8.7589 C   0  0  0  0  0  0  0  0  0  0  0  0
    0.7110   -1.5345   -7.8172 C   0  0  0  0  0  0  0  0  0  0  0  0
    2.5572   -0.6176   -3.9332 C   0  0  0  0  0  0  0  0  0  0  0  0
    3.4210    0.1811   -4.2133 O   0  0  0  0  0  0  0  0  0  0  0  0
    1.7863   -0.7332   -2.6229 C   0  0  2  0  0  0  0  0  0  0  0  0
    1.2220    0.2009   -2.4705 H   0  0  0  0  0  0  0  0  0  0  0  0
    4.7834    0.7740   -1.3368 H   0  0  0  0  0  0  0  0  0  0  0  0
    4.0041    1.9668   -0.2666 H   0  0  0  0  0  0  0  0  0  0  0  0
    3.3347    1.6449   -1.8967 H   0  0  0  0  0  0  0  0  0  0  0  0
    3.2476   -1.2727    0.9361 H   0  0  0  0  0  0  0  0  0  0  0  0
    1.0927   -1.6458   -0.1515 H   0  0  0  0  0  0  0  0  0  0  0  0
   -0.5822   -5.6205   -0.8805 H   0  0  0  0  0  0  0  0  0  0  0  0
    1.2743   -7.4931   -1.8035 H   0  0  0  0  0  0  0  0  0  0  0  0
    3.5730   -7.6798   -2.8193 H   0  0  0  0  0  0  0  0  0  0  0  0
    3.9859   -3.4097   -2.8630 H   0  0  0  0  0  0  0  0  0  0  0  0
    2.5472   -2.8675   -6.3780 H   0  0  0  0  0  0  0  0  0  0  0  0
    3.6645   -1.4900   -6.1396 H   0  0  0  0  0  0  0  0  0  0  0  0
    3.1097    0.7523   -7.0186 H   0  0  0  0  0  0  0  0  0  0  0  0
    1.8272    2.0817   -8.7204 H   0  0  0  0  0  0  0  0  0  0  0  0
   -0.8878   -1.2051   -9.2596 H   0  0  0  0  0  0  0  0  0  0  0  0
    0.3860   -2.5453   -7.5590 H   0  0  0  0  0  0  0  0  0  0  0  0
  1  2  1  0
  1 36  1  0
  1 37  1  0
  1 38  1  0
  2  3  1  1
  2  4  1  0
  2  5  1  0
  4 39  1  0
  5  6  1  6
  5  7  1  0
  5 34  1  0
  7  8  1  0
  7 40  1  0
  8  9  1  1
  8 18  1  0
  8 19  1  0
  9 10  2  0
  9 11  1  0
 11 12  1  0
 11 41  1  0
 12 13  1  0
 12 18  2  0
 13 14  2  0
 13 42  1  0
 14 15  1  0
 14 43  1  0
 15 16  1  0
 15 17  2  0
 17 18  1  0
 17 44  1  0
 19 20  1  6
 19 21  1  0
 19 34  1  0
 21 22  2  0
 21 23  1  0
 23 24  1  0
 23 32  1  0
 24 25  1  0
 24 45  1  0
 24 46  1  0
 25 26  2  0
 25 31  1  0
 26 27  1  0
 26 47  1  0
 27 28  2  0
 27 48  1  0
 28 29  1  0
 28 30  1  0
 30 31  2  0
 30 49  1  0
 31 50  1  0
 32 33  2  0
 32 34  1  0
 34 35  1  1
M  END

