
     RDKit          3D

 56 62  0  0  0  0  0  0  0  0999 V2000
    0.8766   -0.8796    1.7953 C   0  0  0  0  0  0  0  0  0  0  0  0
    2.0932   -0.7740    1.0876 O   0  0  0  0  0  0  0  0  0  0  0  0
    2.4794   -1.7829    0.2726 C   0  0  0  0  0  0  0  0  0  0  0  0
    3.7159   -1.6215   -0.3780 C   0  0  0  0  0  0  0  0  0  0  0  0
    4.1983   -2.6075   -1.2276 C   0  0  0  0  0  0  0  0  0  0  0  0
    3.4714   -3.7938   -1.4704 C   0  0  0  0  0  0  0  0  0  0  0  0
    3.9899   -4.8503   -2.3490 C   0  0  0  0  0  0  0  0  0  0  0  0
    3.5974   -6.1667   -2.4186 C   0  0  0  0  0  0  0  0  0  0  0  0
    4.3126   -6.9574   -3.3804 C   0  0  0  0  0  0  0  0  0  0  0  0
    5.2398   -6.1545   -4.0997 C   0  0  0  0  0  0  0  0  0  0  0  0
    5.9717   -6.6251   -5.2022 C   0  0  0  0  0  0  0  0  0  0  0  0
    5.7482   -7.9200   -5.6426 C   0  0  0  0  0  0  0  0  0  0  0  0
    4.8523   -8.7416   -4.9331 C   0  0  0  0  0  0  0  0  0  0  0  0
    4.4195  -10.3609   -5.4430 S   0  0  0  0  0  0  0  0  0  0  0  0
    3.3868  -10.5596   -4.0427 C   0  0  0  0  0  0  0  0  0  0  0  0
    2.6364  -11.7244   -3.7927 C   0  0  0  0  0  0  0  0  0  0  0  0
    1.9065  -11.8243   -2.6196 C   0  0  0  0  0  0  0  0  0  0  0  0
    1.9976  -10.7797   -1.6842 C   0  0  0  0  0  0  0  0  0  0  0  0
    1.2858  -10.8030   -0.0888 S   0  0  0  0  0  0  0  0  0  0  0  0
    2.0713   -9.2890    0.3369 C   0  0  0  0  0  0  0  0  0  0  0  0
    1.9076   -8.7027    1.6721 C   0  0  0  0  0  0  0  0  0  0  0  0
    1.4146   -9.4594    2.7542 C   0  0  0  0  0  0  0  0  0  0  0  0
    1.2558   -8.8926    4.0171 C   0  0  0  0  0  0  0  0  0  0  0  0
    1.5857   -7.5469    4.2478 C   0  0  0  0  0  0  0  0  0  0  0  0
    1.4280   -6.8742    5.5805 C   0  0  0  0  0  0  0  0  0  0  0  0
    0.9209   -7.6929    6.7547 C   0  0  0  0  0  0  0  0  0  0  0  0
    1.7002   -5.6959    5.7148 O   0  0  0  0  0  0  0  0  0  0  0  0
    2.0821   -6.7881    3.1719 C   0  0  0  0  0  0  0  0  0  0  0  0
    2.2379   -7.3494    1.9118 C   0  0  0  0  0  0  0  0  0  0  0  0
    2.8071   -8.7977   -0.7165 C   0  0  0  0  0  0  0  0  0  0  0  0
    2.7619   -9.6007   -1.9058 C   0  0  0  0  0  0  0  0  0  0  0  0
    3.4106   -9.4383   -3.1749 C   0  0  0  0  0  0  0  0  0  0  0  0
    4.1816   -8.3366   -3.7505 C   0  0  0  0  0  0  0  0  0  0  0  0
    5.2635   -4.5089   -3.5110 S   0  0  0  0  0  0  0  0  0  0  0  0
    2.2309   -3.9327   -0.8212 C   0  0  0  0  0  0  0  0  0  0  0  0
    1.7364   -2.9523    0.0409 C   0  0  0  0  0  0  0  0  0  0  0  0
    0.7825    0.0371    2.3924 H   0  0  0  0  0  0  0  0  0  0  0  0
    0.8714   -1.7509    2.4743 H   0  0  0  0  0  0  0  0  0  0  0  0
    0.0101   -0.9526    1.1136 H   0  0  0  0  0  0  0  0  0  0  0  0
    4.2858   -0.7097   -0.1894 H   0  0  0  0  0  0  0  0  0  0  0  0
    5.1722   -2.4626   -1.7019 H   0  0  0  0  0  0  0  0  0  0  0  0
    2.7822   -6.5510   -1.8147 H   0  0  0  0  0  0  0  0  0  0  0  0
    6.6693   -5.9710   -5.7295 H   0  0  0  0  0  0  0  0  0  0  0  0
    6.2572   -8.2996   -6.5310 H   0  0  0  0  0  0  0  0  0  0  0  0
    2.6350  -12.5419   -4.5168 H   0  0  0  0  0  0  0  0  0  0  0  0
    1.3115  -12.7149   -2.4075 H   0  0  0  0  0  0  0  0  0  0  0  0
    1.1634  -10.5127    2.6083 H   0  0  0  0  0  0  0  0  0  0  0  0
    0.8720   -9.5159    4.8269 H   0  0  0  0  0  0  0  0  0  0  0  0
    1.5822   -8.5514    6.9550 H   0  0  0  0  0  0  0  0  0  0  0  0
   -0.0842   -8.0962    6.5502 H   0  0  0  0  0  0  0  0  0  0  0  0
    0.8799   -7.0484    7.6417 H   0  0  0  0  0  0  0  0  0  0  0  0
    2.3326   -5.7412    3.3536 H   0  0  0  0  0  0  0  0  0  0  0  0
    2.6041   -6.7252    1.0948 H   0  0  0  0  0  0  0  0  0  0  0  0
    3.4329   -7.9167   -0.6131 H   0  0  0  0  0  0  0  0  0  0  0  0
    1.6202   -4.8198   -1.0016 H   0  0  0  0  0  0  0  0  0  0  0  0
    0.7685   -3.1068    0.5177 H   0  0  0  0  0  0  0  0  0  0  0  0
  1  2  1  0
  1 37  1  0
  1 38  1  0
  1 39  1  0
  2  3  1  0
  3  4  2  0
  3 36  1  0
  4  5  1  0
  4 40  1  0
  5  6  2  0
  5 41  1  0
  6  7  1  0
  6 35  1  0
  7  8  2  0
  7 34  1  0
  8  9  1  0
  8 42  1  0
  9 10  2  0
  9 33  1  0
 10 11  1  0
 10 34  1  0
 11 12  2  0
 11 43  1  0
 12 13  1  0
 12 44  1  0
 13 14  2  0
 13 33  1  0
 14 15  1  0
 15 16  2  0
 15 32  1  0
 16 17  1  0
 16 45  1  0
 17 18  2  0
 17 46  1  0
 18 19  1  0
 18 31  1  0
 19 20  1  0
 20 21  2  0
 20 30  1  0
 21 22  1  0
 21 29  1  0
 22 23  2  0
 22 47  1  0
 23 24  1  0
 23 48  1  0
 24 25  2  0
 24 28  1  0
 25 26  1  0
 25 27  1  0
 26 49  1  0
 26 50  1  0
 26 51  1  0
 28 29  2  0
 28 52  1  0
 29 53  1  0
 30 31  2  0
 30 54  1  0
 31 32  1  0
 32 33  2  0
 35 36  2  0
 35 55  1  0
 36 56  1  0
M  CHG  2  14   1  27  -1
M  END

