
     RDKit          3D

 55 55  0  0  0  0  0  0  0  0999 V2000
    5.3722    1.3143   -2.7875 C   0  0  0  0  0  0  0  0  0  0  0  0
    4.8153    0.0320   -2.1684 C   0  0  0  0  0  0  0  0  0  0  0  0
    5.0535   -0.0729   -0.6599 C   0  0  0  0  0  0  0  0  0  0  0  0
    4.5494   -1.3825   -0.0375 C   0  0  0  0  0  0  0  0  0  0  0  0
    5.2237   -2.5686   -0.5622 N   0  0  0  0  0  0  0  0  0  0  0  0
    6.5412   -2.8463   -0.0071 C   0  0  0  0  0  0  0  0  0  0  0  0
    6.4999   -3.5712    1.3580 C   0  0  2  0  0  0  0  0  0  0  0  0
    7.9124   -3.8249    1.9328 C   0  0  0  0  0  0  0  0  0  0  0  0
    8.8066   -4.6416    1.0220 C   0  0  0  0  0  0  0  0  0  0  0  0
    8.6658   -5.8160    0.7725 O   0  0  0  0  0  0  0  0  0  0  0  0
    9.7942   -3.8942    0.4896 O   0  0  0  0  0  0  0  0  0  0  0  0
   10.6855   -4.5654   -0.4021 C   0  0  0  0  0  0  0  0  0  0  0  0
    5.6467   -4.8465    1.2550 C   0  0  0  0  0  0  0  0  0  0  0  0
    4.2671   -4.5481    0.6552 C   0  0  2  0  0  0  0  0  0  0  0  0
    3.5037   -5.7726    0.4903 N   0  0  0  0  0  0  0  0  0  0  0  0
    2.1493   -5.8245    0.6521 C   0  0  0  0  0  0  0  0  0  0  0  0
    1.4620   -4.8868    1.0096 O   0  0  0  0  0  0  0  0  0  0  0  0
    1.7055   -7.0701    0.3636 O   0  0  0  0  0  0  0  0  0  0  0  0
    0.2913   -7.4296    0.4671 C   0  0  1  0  0  0  0  0  0  0  0  0
   -0.5393   -6.5886   -0.5088 C   0  0  0  0  0  0  0  0  0  0  0  0
    0.2828   -8.9029    0.0534 C   0  0  0  0  0  0  0  0  0  0  0  0
   -0.1877   -7.2709    1.9144 C   0  0  0  0  0  0  0  0  0  0  0  0
    4.4240   -3.7779   -0.6768 C   0  0  0  0  0  0  0  0  0  0  0  0
    5.1793    1.3573   -3.8716 H   0  0  0  0  0  0  0  0  0  0  0  0
    6.4633    1.3889   -2.6422 H   0  0  0  0  0  0  0  0  0  0  0  0
    4.9196    2.2128   -2.3345 H   0  0  0  0  0  0  0  0  0  0  0  0
    5.2634   -0.8502   -2.6552 H   0  0  0  0  0  0  0  0  0  0  0  0
    3.7293   -0.0328   -2.3661 H   0  0  0  0  0  0  0  0  0  0  0  0
    4.5551    0.7664   -0.1411 H   0  0  0  0  0  0  0  0  0  0  0  0
    6.1320    0.0486   -0.4486 H   0  0  0  0  0  0  0  0  0  0  0  0
    3.4744   -1.4858   -0.2592 H   0  0  0  0  0  0  0  0  0  0  0  0
    4.6205   -1.3025    1.0690 H   0  0  0  0  0  0  0  0  0  0  0  0
    7.1086   -1.9064    0.0797 H   0  0  0  0  0  0  0  0  0  0  0  0
    7.0950   -3.4753   -0.7300 H   0  0  0  0  0  0  0  0  0  0  0  0
    6.0022   -2.8963    2.0775 H   0  0  0  0  0  0  0  0  0  0  0  0
    7.8196   -4.3825    2.8788 H   0  0  0  0  0  0  0  0  0  0  0  0
    8.4063   -2.8663    2.1471 H   0  0  0  0  0  0  0  0  0  0  0  0
   11.4154   -3.8143   -0.7285 H   0  0  0  0  0  0  0  0  0  0  0  0
   10.1414   -4.9708   -1.2687 H   0  0  0  0  0  0  0  0  0  0  0  0
   11.1947   -5.3978    0.1067 H   0  0  0  0  0  0  0  0  0  0  0  0
    5.5312   -5.3150    2.2472 H   0  0  0  0  0  0  0  0  0  0  0  0
    6.1715   -5.5837    0.6213 H   0  0  0  0  0  0  0  0  0  0  0  0
    3.6872   -3.9184    1.3484 H   0  0  0  0  0  0  0  0  0  0  0  0
    3.9633   -6.6033    0.1352 H   0  0  0  0  0  0  0  0  0  0  0  0
   -0.1474   -6.6931   -1.5329 H   0  0  0  0  0  0  0  0  0  0  0  0
   -0.5195   -5.5278   -0.2287 H   0  0  0  0  0  0  0  0  0  0  0  0
   -1.5838   -6.9376   -0.5062 H   0  0  0  0  0  0  0  0  0  0  0  0
    0.6685   -9.0196   -0.9709 H   0  0  0  0  0  0  0  0  0  0  0  0
   -0.7414   -9.3043    0.0887 H   0  0  0  0  0  0  0  0  0  0  0  0
    0.9151   -9.4984    0.7293 H   0  0  0  0  0  0  0  0  0  0  0  0
   -0.1622   -6.2183    2.2234 H   0  0  0  0  0  0  0  0  0  0  0  0
    0.4508   -7.8563    2.5947 H   0  0  0  0  0  0  0  0  0  0  0  0
   -1.2195   -7.6445    2.0090 H   0  0  0  0  0  0  0  0  0  0  0  0
    3.4292   -3.5255   -1.0743 H   0  0  0  0  0  0  0  0  0  0  0  0
    4.9045   -4.4554   -1.4099 H   0  0  0  0  0  0  0  0  0  0  0  0
  1  2  1  0
  1 24  1  0
  1 25  1  0
  1 26  1  0
  2  3  1  0
  2 27  1  0
  2 28  1  0
  3  4  1  0
  3 29  1  0
  3 30  1  0
  4  5  1  0
  4 31  1  0
  4 32  1  0
  5  6  1  0
  5 23  1  0
  6  7  1  0
  6 33  1  0
  6 34  1  0
  7  8  1  0
  7 13  1  0
  7 35  1  1
  8  9  1  0
  8 36  1  0
  8 37  1  0
  9 10  2  0
  9 11  1  0
 11 12  1  0
 12 38  1  0
 12 39  1  0
 12 40  1  0
 13 14  1  0
 13 41  1  0
 13 42  1  0
 14 15  1  0
 14 23  1  0
 14 43  1  1
 15 16  1  0
 15 44  1  0
 16 17  2  0
 16 18  1  0
 19 18  1  1
 19 20  1  0
 19 21  1  0
 19 22  1  0
 20 45  1  0
 20 46  1  0
 20 47  1  0
 21 48  1  0
 21 49  1  0
 21 50  1  0
 22 51  1  0
 22 52  1  0
 22 53  1  0
 23 54  1  0
 23 55  1  0
M  END

