
     RDKit          3D

 45 48  0  0  0  0  0  0  0  0999 V2000
    9.5450    0.7394   -0.9702 C   0  0  0  0  0  0  0  0  0  0  0  0
    8.4861   -0.1597   -1.2097 O   0  0  0  0  0  0  0  0  0  0  0  0
    8.6240   -1.4625   -0.8540 C   0  0  0  0  0  0  0  0  0  0  0  0
    9.7766   -2.0059   -0.2623 C   0  0  0  0  0  0  0  0  0  0  0  0
    9.8014   -3.3658    0.0627 C   0  0  0  0  0  0  0  0  0  0  0  0
    8.7031   -4.1873   -0.1941 C   0  0  0  0  0  0  0  0  0  0  0  0
    7.5478   -3.6480   -0.7826 C   0  0  0  0  0  0  0  0  0  0  0  0
    6.3401   -4.5232   -1.0605 C   0  0  0  0  0  0  0  0  0  0  0  0
    5.9621   -4.5425   -2.4654 N   0  0  0  0  0  0  0  0  0  0  0  0
    4.7272   -4.2008   -2.9049 C   0  0  0  0  0  0  0  0  0  0  0  0
    3.8084   -3.8437   -2.1849 O   0  0  0  0  0  0  0  0  0  0  0  0
    4.5147   -4.2431   -4.4441 C   0  0  2  0  0  0  0  0  0  0  0  0
    4.3560   -3.1919   -4.7338 H   0  0  0  0  0  0  0  0  0  0  0  0
    3.2219   -5.0048   -4.7610 C   0  0  0  0  0  0  0  0  0  0  0  0
    3.4861   -6.4287   -4.6969 N   0  0  0  0  0  0  0  0  0  0  0  0
    4.6867   -6.9782   -5.1362 C   0  0  0  0  0  0  0  0  0  0  0  0
    4.5994   -8.3546   -5.1410 C   0  0  0  0  0  0  0  0  0  0  0  0
    3.2802   -8.6869   -4.6967 C   0  0  0  0  0  0  0  0  0  0  0  0
    2.5921   -9.9012   -4.4900 C   0  0  0  0  0  0  0  0  0  0  0  0
    1.2744   -9.8632   -4.0543 C   0  0  0  0  0  0  0  0  0  0  0  0
    0.6198   -8.6315   -3.8155 C   0  0  0  0  0  0  0  0  0  0  0  0
    1.2678   -7.4159   -4.0042 C   0  0  0  0  0  0  0  0  0  0  0  0
    2.6025   -7.4535   -4.4402 C   0  0  0  0  0  0  0  0  0  0  0  0
    5.8179   -6.1107   -5.5173 C   0  0  0  0  0  0  0  0  0  0  0  0
    6.8361   -6.5157   -6.0508 O   0  0  0  0  0  0  0  0  0  0  0  0
    5.6265   -4.7709   -5.2173 N   0  0  0  0  0  0  0  0  0  0  0  0
    7.5178   -2.2889   -1.1075 C   0  0  0  0  0  0  0  0  0  0  0  0
    9.2083    1.7219   -1.3277 H   0  0  0  0  0  0  0  0  0  0  0  0
   10.4607    0.4546   -1.5197 H   0  0  0  0  0  0  0  0  0  0  0  0
    9.7864    0.8148    0.1055 H   0  0  0  0  0  0  0  0  0  0  0  0
   10.6490   -1.3864   -0.0540 H   0  0  0  0  0  0  0  0  0  0  0  0
   10.7000   -3.7872    0.5209 H   0  0  0  0  0  0  0  0  0  0  0  0
    8.7394   -5.2491    0.0627 H   0  0  0  0  0  0  0  0  0  0  0  0
    5.4560   -4.1575   -0.5167 H   0  0  0  0  0  0  0  0  0  0  0  0
    6.5401   -5.5504   -0.7122 H   0  0  0  0  0  0  0  0  0  0  0  0
    6.6488   -4.8369   -3.1507 H   0  0  0  0  0  0  0  0  0  0  0  0
    2.8533   -4.7235   -5.7640 H   0  0  0  0  0  0  0  0  0  0  0  0
    2.4682   -4.7264   -4.0132 H   0  0  0  0  0  0  0  0  0  0  0  0
    5.4040   -9.0291   -5.4240 H   0  0  0  0  0  0  0  0  0  0  0  0
    3.0919  -10.8555   -4.6750 H   0  0  0  0  0  0  0  0  0  0  0  0
    0.7291  -10.7963   -3.8924 H   0  0  0  0  0  0  0  0  0  0  0  0
   -0.4183   -8.6359   -3.4735 H   0  0  0  0  0  0  0  0  0  0  0  0
    0.7550   -6.4707   -3.8147 H   0  0  0  0  0  0  0  0  0  0  0  0
    6.3663   -4.1507   -5.5313 H   0  0  0  0  0  0  0  0  0  0  0  0
    6.6320   -1.8370   -1.5601 H   0  0  0  0  0  0  0  0  0  0  0  0
  1  2  1  0
  1 28  1  0
  1 29  1  0
  1 30  1  0
  2  3  1  0
  3  4  2  0
  3 27  1  0
  4  5  1  0
  4 31  1  0
  5  6  2  0
  5 32  1  0
  6  7  1  0
  6 33  1  0
  7  8  1  0
  7 27  2  0
  8  9  1  0
  8 34  1  0
  8 35  1  0
  9 10  1  0
  9 36  1  0
 10 11  2  0
 10 12  1  0
 12 13  1  6
 12 14  1  0
 12 26  1  0
 14 15  1  0
 14 37  1  0
 14 38  1  0
 15 16  1  0
 15 23  1  0
 16 17  2  0
 16 24  1  0
 17 18  1  0
 17 39  1  0
 18 19  1  0
 18 23  2  0
 19 20  2  0
 19 40  1  0
 20 21  1  0
 20 41  1  0
 21 22  2  0
 21 42  1  0
 22 23  1  0
 22 43  1  0
 24 25  2  0
 24 26  1  0
 26 44  1  0
 27 45  1  0
M  END

