
     RDKit          3D

 42 43  0  0  0  0  0  0  0  0999 V2000
    2.1408    0.9530   -0.3617 C   0  0  0  0  0  0  0  0  0  0  0  0
    2.4617   -0.3866   -0.0776 O   0  0  0  0  0  0  0  0  0  0  0  0
    3.2931   -0.6752    0.9648 C   0  0  0  0  0  0  0  0  0  0  0  0
    3.8692    0.3029    1.7848 C   0  0  0  0  0  0  0  0  0  0  0  0
    4.7319   -0.0409    2.8373 C   0  0  0  0  0  0  0  0  0  0  0  0
    5.3298    1.0393    3.7055 C   0  0  0  0  0  0  0  0  0  0  0  0
    5.0273   -1.3987    3.0678 C   0  0  0  0  0  0  0  0  0  0  0  0
    5.9483   -1.8158    4.1891 C   0  0  0  0  0  0  0  0  0  0  0  0
    4.4415   -2.3640    2.2333 C   0  0  0  0  0  0  0  0  0  0  0  0
    3.5777   -2.0415    1.1823 C   0  0  0  0  0  0  0  0  0  0  0  0
    2.9173   -3.0734    0.2729 C   0  0  1  0  0  0  0  0  0  0  0  0
    3.6874   -4.4021    0.1141 C   0  0  0  0  0  0  0  0  0  0  0  0
    3.5541   -5.2808    1.2713 N   0  0  0  0  0  0  0  0  0  0  0  0
    4.3230   -6.4983    1.1298 C   0  0  0  0  0  0  0  0  0  0  0  0
    2.1569   -5.5308    1.6034 C   0  0  0  0  0  0  0  0  0  0  0  0
    1.4184   -4.2028    1.8111 C   0  0  0  0  0  0  0  0  0  0  0  0
    1.5184   -3.2978    0.6762 N   0  0  0  0  0  0  0  0  0  0  0  0
    0.5961   -3.5470   -0.4131 C   0  0  0  0  0  0  0  0  0  0  0  0
    1.4686    0.9383   -1.2308 H   0  0  0  0  0  0  0  0  0  0  0  0
    3.0360    1.5506   -0.6145 H   0  0  0  0  0  0  0  0  0  0  0  0
    1.6194    1.4406    0.4821 H   0  0  0  0  0  0  0  0  0  0  0  0
    3.6537    1.3582    1.6137 H   0  0  0  0  0  0  0  0  0  0  0  0
    5.0109    2.0412    3.3822 H   0  0  0  0  0  0  0  0  0  0  0  0
    6.4328    1.0150    3.6846 H   0  0  0  0  0  0  0  0  0  0  0  0
    5.0365    0.9196    4.7629 H   0  0  0  0  0  0  0  0  0  0  0  0
    6.9563   -1.3787    4.0800 H   0  0  0  0  0  0  0  0  0  0  0  0
    6.0626   -2.9092    4.2235 H   0  0  0  0  0  0  0  0  0  0  0  0
    5.5729   -1.4892    5.1747 H   0  0  0  0  0  0  0  0  0  0  0  0
    4.6487   -3.4207    2.4146 H   0  0  0  0  0  0  0  0  0  0  0  0
    2.8786   -2.6154   -0.7259 H   0  0  0  0  0  0  0  0  0  0  0  0
    4.7569   -4.1947   -0.0543 H   0  0  0  0  0  0  0  0  0  0  0  0
    3.3152   -4.9109   -0.8075 H   0  0  0  0  0  0  0  0  0  0  0  0
    5.3864   -6.2603    0.9649 H   0  0  0  0  0  0  0  0  0  0  0  0
    3.9836   -7.1332    0.2775 H   0  0  0  0  0  0  0  0  0  0  0  0
    4.2485   -7.1036    2.0475 H   0  0  0  0  0  0  0  0  0  0  0  0
    2.1113   -6.1312    2.5281 H   0  0  0  0  0  0  0  0  0  0  0  0
    1.6532   -6.1310    0.8070 H   0  0  0  0  0  0  0  0  0  0  0  0
    1.8482   -3.7050    2.6978 H   0  0  0  0  0  0  0  0  0  0  0  0
    0.3547   -4.3927    2.0279 H   0  0  0  0  0  0  0  0  0  0  0  0
   -0.4335   -3.5927   -0.0210 H   0  0  0  0  0  0  0  0  0  0  0  0
    0.7699   -4.4849   -0.9873 H   0  0  0  0  0  0  0  0  0  0  0  0
    0.6399   -2.7088   -1.1270 H   0  0  0  0  0  0  0  0  0  0  0  0
  1  2  1  0
  1 19  1  0
  1 20  1  0
  1 21  1  0
  2  3  1  0
  3  4  2  0
  3 10  1  0
  4  5  1  0
  4 22  1  0
  5  6  1  0
  5  7  2  0
  6 23  1  0
  6 24  1  0
  6 25  1  0
  7  8  1  0
  7  9  1  0
  8 26  1  0
  8 27  1  0
  8 28  1  0
  9 10  2  0
  9 29  1  0
 10 11  1  0
 11 12  1  0
 11 17  1  0
 11 30  1  6
 12 13  1  0
 12 31  1  0
 12 32  1  0
 13 14  1  0
 13 15  1  0
 14 33  1  0
 14 34  1  0
 14 35  1  0
 15 16  1  0
 15 36  1  0
 15 37  1  0
 16 17  1  0
 16 38  1  0
 16 39  1  0
 17 18  1  0
 18 40  1  0
 18 41  1  0
 18 42  1  0
M  END

