
     RDKit          3D

 40 41  0  0  0  0  0  0  0  0999 V2000
    0.8397   -0.3473   -0.1953 C   0  0  0  0  0  0  0  0  0  0  0  0
    2.3591   -0.1995   -0.0851 C   0  0  1  0  0  0  0  0  0  0  0  0
    3.0626   -0.7739   -1.3297 C   0  0  0  0  0  0  0  0  0  0  0  0
    4.5998   -0.8081   -1.3156 C   0  0  0  0  0  0  0  0  0  0  0  0
    5.2845    0.5635   -1.4286 C   0  0  0  0  0  0  0  0  0  0  0  0
    5.3573    1.4092   -0.1410 C   0  0  0  0  0  0  0  0  0  0  0  0
    4.1993    1.2318    0.8504 C   0  0  0  0  0  0  0  0  0  0  0  0
    2.8435    1.1600    0.2742 N   0  0  0  0  0  0  0  0  0  0  0  0
    2.0472    2.6003   -0.0158 S   0  0  1  0  0  0  0  0  0  0  0  0
    0.6109    2.4549    0.2410 O   0  0  0  0  0  0  0  0  0  0  0  0
    2.8176    3.6438    0.6653 O   0  0  0  0  0  0  0  0  0  0  0  0
    2.1977    2.9352   -1.8235 C   0  0  0  0  0  0  0  0  0  0  0  0
    1.7500    4.3338   -2.1342 C   0  0  0  0  0  0  0  0  0  0  0  0
    0.3855    4.6458   -2.1978 C   0  0  0  0  0  0  0  0  0  0  0  0
   -0.0421    5.9505   -2.4491 C   0  0  0  0  0  0  0  0  0  0  0  0
    0.8914    6.9747   -2.6380 C   0  0  0  0  0  0  0  0  0  0  0  0
    2.2538    6.6914   -2.5703 C   0  0  0  0  0  0  0  0  0  0  0  0
    2.6890    5.3783   -2.3147 C   0  0  0  0  0  0  0  0  0  0  0  0
    4.0971    5.1015   -2.2477 C   0  0  0  0  0  0  0  0  0  0  0  0
    5.2317    4.8574   -2.2014 N   0  0  0  0  0  0  0  0  0  0  0  0
    0.6068   -1.4178   -0.3032 H   0  0  0  0  0  0  0  0  0  0  0  0
    0.4262    0.1749   -1.0703 H   0  0  0  0  0  0  0  0  0  0  0  0
    0.3284    0.0427    0.6929 H   0  0  0  0  0  0  0  0  0  0  0  0
    2.6687   -0.8192    0.7764 H   0  0  0  0  0  0  0  0  0  0  0  0
    2.7239   -0.2162   -2.2227 H   0  0  0  0  0  0  0  0  0  0  0  0
    2.6889   -1.8044   -1.4601 H   0  0  0  0  0  0  0  0  0  0  0  0
    4.9203   -1.4241   -2.1726 H   0  0  0  0  0  0  0  0  0  0  0  0
    4.9573   -1.3461   -0.4180 H   0  0  0  0  0  0  0  0  0  0  0  0
    4.7701    1.1351   -2.2211 H   0  0  0  0  0  0  0  0  0  0  0  0
    6.3115    0.4255   -1.8043 H   0  0  0  0  0  0  0  0  0  0  0  0
    5.4495    2.4724   -0.4157 H   0  0  0  0  0  0  0  0  0  0  0  0
    6.2803    1.1636    0.4134 H   0  0  0  0  0  0  0  0  0  0  0  0
    4.2233    2.0424    1.5896 H   0  0  0  0  0  0  0  0  0  0  0  0
    4.3232    0.2902    1.4086 H   0  0  0  0  0  0  0  0  0  0  0  0
    1.5729    2.1797   -2.3193 H   0  0  0  0  0  0  0  0  0  0  0  0
    3.2513    2.7691   -2.0781 H   0  0  0  0  0  0  0  0  0  0  0  0
   -0.3460    3.8534   -2.0275 H   0  0  0  0  0  0  0  0  0  0  0  0
   -1.1116    6.1696   -2.4939 H   0  0  0  0  0  0  0  0  0  0  0  0
    0.5575    7.9959   -2.8351 H   0  0  0  0  0  0  0  0  0  0  0  0
    2.9945    7.4807   -2.7113 H   0  0  0  0  0  0  0  0  0  0  0  0
  1  2  1  0
  1 21  1  0
  1 22  1  0
  1 23  1  0
  2  3  1  0
  2  8  1  0
  2 24  1  1
  3  4  1  0
  3 25  1  0
  3 26  1  0
  4  5  1  0
  4 27  1  0
  4 28  1  0
  5  6  1  0
  5 29  1  0
  5 30  1  0
  6  7  1  0
  6 31  1  0
  6 32  1  0
  7  8  1  0
  7 33  1  0
  7 34  1  0
  8  9  1  0
  9 10  2  0
  9 11  2  0
  9 12  1  6
 12 13  1  0
 12 35  1  0
 12 36  1  0
 13 14  2  0
 13 18  1  0
 14 15  1  0
 14 37  1  0
 15 16  2  0
 15 38  1  0
 16 17  1  0
 16 39  1  0
 17 18  2  0
 17 40  1  0
 18 19  1  0
 19 20  3  0
M  END

