
     RDKit          3D

 39 40  0  0  0  0  0  0  0  0999 V2000
    9.2413   -2.2956   -1.5433 C   0  0  0  0  0  0  0  0  0  0  0  0
    8.0397   -2.4382   -0.5959 C   0  0  0  0  0  0  0  0  0  0  0  0
    6.7517   -2.8054   -1.3014 C   0  0  0  0  0  0  0  0  0  0  0  0
    6.3719   -4.1413   -1.4881 C   0  0  0  0  0  0  0  0  0  0  0  0
    5.2080   -4.4943   -2.1757 C   0  0  0  0  0  0  0  0  0  0  0  0
    4.3635   -3.4998   -2.7069 C   0  0  0  0  0  0  0  0  0  0  0  0
    3.2000   -3.8048   -3.4045 N   0  0  0  0  0  0  0  0  0  0  0  0
    2.5547   -5.0937   -3.3668 C   0  0  0  0  0  0  0  0  0  0  0  0
    3.0059   -6.0737   -4.4423 C   0  0  0  0  0  0  0  0  0  0  0  0
    3.8572   -5.6989   -5.4741 C   0  0  0  0  0  0  0  0  0  0  0  0
    4.2321   -6.6320   -6.4470 C   0  0  0  0  0  0  0  0  0  0  0  0
    5.1299   -6.2145   -7.5348 N   0  0  0  0  0  0  0  0  0  0  0  0
    5.4920   -5.0481   -7.5561 O   0  0  0  0  0  0  0  0  0  0  0  0
    5.4582   -7.0596   -8.3553 O   0  0  0  0  0  0  0  0  0  0  0  0
    3.7724   -7.9458   -6.4129 C   0  0  0  0  0  0  0  0  0  0  0  0
    2.9141   -8.3360   -5.3849 C   0  0  0  0  0  0  0  0  0  0  0  0
    2.5276   -7.4076   -4.4042 C   0  0  0  0  0  0  0  0  0  0  0  0
    1.6927   -7.6927   -3.3784 O   0  0  0  0  0  0  0  0  0  0  0  0
    1.1673   -8.9978   -3.2365 C   0  0  0  0  0  0  0  0  0  0  0  0
    4.7388   -2.1521   -2.5234 C   0  0  0  0  0  0  0  0  0  0  0  0
    5.9049   -1.8210   -1.8389 C   0  0  0  0  0  0  0  0  0  0  0  0
   10.1563   -2.0262   -0.9902 H   0  0  0  0  0  0  0  0  0  0  0  0
    9.0601   -1.5150   -2.2998 H   0  0  0  0  0  0  0  0  0  0  0  0
    9.4349   -3.2368   -2.0827 H   0  0  0  0  0  0  0  0  0  0  0  0
    7.8986   -1.4911   -0.0468 H   0  0  0  0  0  0  0  0  0  0  0  0
    8.2690   -3.2023    0.1665 H   0  0  0  0  0  0  0  0  0  0  0  0
    7.0044   -4.9392   -1.0861 H   0  0  0  0  0  0  0  0  0  0  0  0
    4.9677   -5.5502   -2.3085 H   0  0  0  0  0  0  0  0  0  0  0  0
    2.6114   -3.0153   -3.6324 H   0  0  0  0  0  0  0  0  0  0  0  0
    1.4659   -4.9464   -3.4688 H   0  0  0  0  0  0  0  0  0  0  0  0
    2.6829   -5.5712   -2.3784 H   0  0  0  0  0  0  0  0  0  0  0  0
    4.2358   -4.6788   -5.5249 H   0  0  0  0  0  0  0  0  0  0  0  0
    4.0883   -8.6442   -7.1871 H   0  0  0  0  0  0  0  0  0  0  0  0
    2.5499   -9.3626   -5.3568 H   0  0  0  0  0  0  0  0  0  0  0  0
    0.5336   -8.9813   -2.3402 H   0  0  0  0  0  0  0  0  0  0  0  0
    1.9677   -9.7453   -3.0980 H   0  0  0  0  0  0  0  0  0  0  0  0
    0.5525   -9.2854   -4.1071 H   0  0  0  0  0  0  0  0  0  0  0  0
    4.0990   -1.3583   -2.9215 H   0  0  0  0  0  0  0  0  0  0  0  0
    6.1601   -0.7642   -1.7119 H   0  0  0  0  0  0  0  0  0  0  0  0
  1  2  1  0
  1 22  1  0
  1 23  1  0
  1 24  1  0
  2  3  1  0
  2 25  1  0
  2 26  1  0
  3  4  2  0
  3 21  1  0
  4  5  1  0
  4 27  1  0
  5  6  2  0
  5 28  1  0
  6  7  1  0
  6 20  1  0
  7  8  1  0
  7 29  1  0
  8  9  1  0
  8 30  1  0
  8 31  1  0
  9 10  2  0
  9 17  1  0
 10 11  1  0
 10 32  1  0
 11 12  1  0
 11 15  2  0
 12 13  2  0
 12 14  1  0
 15 16  1  0
 15 33  1  0
 16 17  2  0
 16 34  1  0
 17 18  1  0
 18 19  1  0
 19 35  1  0
 19 36  1  0
 19 37  1  0
 20 21  2  0
 20 38  1  0
 21 39  1  0
M  CHG  2  12   1  14  -1
M  END

