
     RDKit          3D

 48 51  0  0  0  0  0  0  0  0999 V2000
    0.6169   -0.6470   -2.3135 C   0  0  0  0  0  0  0  0  0  0  0  0
    2.0843   -1.0491   -2.4692 C   0  0  0  0  0  0  0  0  0  0  0  0
    2.8536   -1.1720   -1.1264 C   0  0  1  0  0  0  0  0  0  0  0  0
    2.6654   -0.2721   -0.5263 H   0  0  0  0  0  0  0  0  0  0  0  0
    2.2741   -2.3241   -0.3037 C   0  0  0  0  0  0  0  0  0  0  0  0
    1.3456   -2.1582    0.4664 O   0  0  0  0  0  0  0  0  0  0  0  0
    2.8235   -3.5666   -0.5656 N   0  0  0  0  0  0  0  0  0  0  0  0
    2.2285   -4.7426    0.0550 C   0  0  0  0  0  0  0  0  0  0  0  0
    3.9749   -3.6999   -1.3597 C   0  0  0  0  0  0  0  0  0  0  0  0
    4.4827   -4.9179   -1.7967 C   0  0  0  0  0  0  0  0  0  0  0  0
    5.6552   -5.0254   -2.4345 N   0  0  0  0  0  0  0  0  0  0  0  0
    6.3607   -3.9073   -2.6194 C   0  0  0  0  0  0  0  0  0  0  0  0
    7.6649   -4.0193   -3.2663 C   0  0  0  0  0  0  0  0  0  0  0  0
    8.5451   -2.9434   -3.5665 C   0  0  0  0  0  0  0  0  0  0  0  0
    9.6583   -3.3614   -4.1542 N   0  0  0  0  0  0  0  0  0  0  0  0
    9.5183   -4.6852   -4.2423 N   0  0  0  0  0  0  0  0  0  0  0  0
   10.2305   -5.2794   -4.6556 H   0  0  0  0  0  0  0  0  0  0  0  0
    8.3472   -5.1605   -3.7320 C   0  0  0  0  0  0  0  0  0  0  0  0
    8.1440   -6.6036   -3.8020 C   0  0  0  0  0  0  0  0  0  0  0  0
    9.0854   -7.3549   -4.3343 N   0  0  0  0  0  0  0  0  0  0  0  0
    8.7491   -8.6744   -4.3273 C   0  0  0  0  0  0  0  0  0  0  0  0
    7.5244   -8.9620   -3.7808 C   0  0  0  0  0  0  0  0  0  0  0  0
    6.7472   -7.5116   -3.2470 S   0  0  0  0  0  0  0  0  0  0  0  0
    5.9520   -2.6779   -2.2584 N   0  0  0  0  0  0  0  0  0  0  0  0
    4.7686   -2.5484   -1.6652 C   0  0  0  0  0  0  0  0  0  0  0  0
    4.2994   -1.3165   -1.2984 N   0  0  0  0  0  0  0  0  0  0  0  0
    5.2003   -0.1502   -1.2194 C   0  0  1  0  0  0  0  0  0  0  0  0
    4.9561    0.8871   -2.3219 C   0  0  0  0  0  0  0  0  0  0  0  0
    5.1715    0.4768    0.1804 C   0  0  0  0  0  0  0  0  0  0  0  0
    0.1282   -0.5801   -3.2980 H   0  0  0  0  0  0  0  0  0  0  0  0
    0.5237    0.3379   -1.8267 H   0  0  0  0  0  0  0  0  0  0  0  0
    0.0539   -1.3658   -1.6999 H   0  0  0  0  0  0  0  0  0  0  0  0
    2.6107   -0.3071   -3.0880 H   0  0  0  0  0  0  0  0  0  0  0  0
    2.1632   -2.0077   -3.0111 H   0  0  0  0  0  0  0  0  0  0  0  0
    1.4397   -4.3953    0.7319 H   0  0  0  0  0  0  0  0  0  0  0  0
    2.9858   -5.3049    0.6239 H   0  0  0  0  0  0  0  0  0  0  0  0
    1.7864   -5.4113   -0.7017 H   0  0  0  0  0  0  0  0  0  0  0  0
    3.9434   -5.8518   -1.6112 H   0  0  0  0  0  0  0  0  0  0  0  0
    8.3799   -1.8870   -3.3655 H   0  0  0  0  0  0  0  0  0  0  0  0
    9.4420   -9.4104   -4.7400 H   0  0  0  0  0  0  0  0  0  0  0  0
    7.0480   -9.9346   -3.6674 H   0  0  0  0  0  0  0  0  0  0  0  0
    6.1984   -0.5763   -1.3854 H   0  0  0  0  0  0  0  0  0  0  0  0
    3.9770    1.3825   -2.2168 H   0  0  0  0  0  0  0  0  0  0  0  0
    5.0111    0.4247   -3.3187 H   0  0  0  0  0  0  0  0  0  0  0  0
    5.7263    1.6730   -2.2702 H   0  0  0  0  0  0  0  0  0  0  0  0
    4.2036    0.9527    0.4078 H   0  0  0  0  0  0  0  0  0  0  0  0
    5.9428    1.2592    0.2552 H   0  0  0  0  0  0  0  0  0  0  0  0
    5.3737   -0.2776    0.9559 H   0  0  0  0  0  0  0  0  0  0  0  0
  1  2  1  0
  1 30  1  0
  1 31  1  0
  1 32  1  0
  2  3  1  0
  2 33  1  0
  2 34  1  0
  3  4  1  1
  3  5  1  0
  3 26  1  0
  5  6  2  0
  5  7  1  0
  7  8  1  0
  7  9  1  0
  8 35  1  0
  8 36  1  0
  8 37  1  0
  9 10  1  0
  9 25  2  0
 10 11  2  0
 10 38  1  0
 11 12  1  0
 12 13  1  0
 12 24  2  0
 13 14  1  0
 13 18  2  0
 14 15  2  0
 14 39  1  0
 15 16  1  0
 16 17  1  0
 16 18  1  0
 18 19  1  0
 19 20  2  0
 19 23  1  0
 20 21  1  0
 21 22  2  0
 21 40  1  0
 22 23  1  0
 22 41  1  0
 24 25  1  0
 25 26  1  0
 26 27  1  0
 27 28  1  0
 27 29  1  0
 27 42  1  6
 28 43  1  0
 28 44  1  0
 28 45  1  0
 29 46  1  0
 29 47  1  0
 29 48  1  0
M  END

