
     RDKit          3D

 59 62  0  0  0  0  0  0  0  0999 V2000
    9.8847    0.7187   -3.0216 C   0  0  0  0  0  0  0  0  0  0  0  0
    8.4025    0.4429   -2.7697 C   0  0  0  0  0  0  0  0  0  0  0  0
    8.1141   -1.0507   -2.5775 C   0  0  0  0  0  0  0  0  0  0  0  0
    6.7124   -1.3535   -2.3206 N   0  0  0  0  0  0  0  0  0  0  0  0
    5.7295   -1.6552   -3.2476 C   0  0  0  0  0  0  0  0  0  0  0  0
    6.1338   -1.7368   -4.9700 S   0  0  0  0  0  0  0  0  0  0  0  0
    4.5293   -2.3047   -5.6551 C   0  0  0  0  0  0  0  0  0  0  0  0
    3.7508   -1.3360   -6.5594 C   0  0  0  0  0  0  0  0  0  0  0  0
    2.9472   -1.8097   -7.3450 O   0  0  0  0  0  0  0  0  0  0  0  0
    3.9903   -0.0104   -6.3680 N   0  0  0  0  0  0  0  0  0  0  0  0
    3.3876    1.1011   -7.0013 C   0  0  0  0  0  0  0  0  0  0  0  0
    3.8209    2.3851   -6.6355 C   0  0  0  0  0  0  0  0  0  0  0  0
    3.2771    3.5288   -7.2130 C   0  0  0  0  0  0  0  0  0  0  0  0
    2.2593    3.4355   -8.1925 C   0  0  0  0  0  0  0  0  0  0  0  0
    1.7111    4.5613   -8.7700 N   0  0  0  0  0  0  0  0  0  0  0  0
    0.7419    4.5201   -9.8572 C   0  0  0  0  0  0  0  0  0  0  0  0
    0.6638    5.9782  -10.3290 C   0  0  0  0  0  0  0  0  0  0  0  0
    0.9619    6.7746   -9.0516 C   0  0  0  0  0  0  0  0  0  0  0  0
    2.0235    5.9196   -8.3462 C   0  0  0  0  0  0  0  0  0  0  0  0
    1.8305    2.1353   -8.5514 C   0  0  0  0  0  0  0  0  0  0  0  0
    2.3795    0.9925   -7.9733 C   0  0  0  0  0  0  0  0  0  0  0  0
    4.5520   -1.8653   -2.7234 N   0  0  0  0  0  0  0  0  0  0  0  0
    4.7274   -1.6971   -1.3629 C   0  0  0  0  0  0  0  0  0  0  0  0
    3.8030   -1.8011   -0.3161 C   0  0  0  0  0  0  0  0  0  0  0  0
    4.2802   -1.5751    0.9738 C   0  0  0  0  0  0  0  0  0  0  0  0
    3.1363   -1.6960    2.3474 S   0  0  1  0  0  0  0  0  0  0  0  0
    3.4685   -3.2295    2.9897 N   0  0  0  0  0  0  0  0  0  0  0  0
    3.5551   -0.7496    3.3849 O   0  0  0  0  0  0  0  0  0  0  0  0
    1.7784   -1.6947    1.7966 O   0  0  0  0  0  0  0  0  0  0  0  0
    5.6212   -1.2384    1.2486 C   0  0  0  0  0  0  0  0  0  0  0  0
    6.5458   -1.1305    0.2126 C   0  0  0  0  0  0  0  0  0  0  0  0
    6.0804   -1.3668   -1.0866 C   0  0  0  0  0  0  0  0  0  0  0  0
   10.0690    1.7951   -3.1582 H   0  0  0  0  0  0  0  0  0  0  0  0
   10.2429    0.2026   -3.9278 H   0  0  0  0  0  0  0  0  0  0  0  0
   10.5085    0.3797   -2.1777 H   0  0  0  0  0  0  0  0  0  0  0  0
    7.7990    0.8135   -3.6155 H   0  0  0  0  0  0  0  0  0  0  0  0
    8.0585    0.9926   -1.8771 H   0  0  0  0  0  0  0  0  0  0  0  0
    8.7006   -1.4507   -1.7344 H   0  0  0  0  0  0  0  0  0  0  0  0
    8.4242   -1.6195   -3.4691 H   0  0  0  0  0  0  0  0  0  0  0  0
    3.9010   -2.5594   -4.7861 H   0  0  0  0  0  0  0  0  0  0  0  0
    4.7130   -3.2151   -6.2399 H   0  0  0  0  0  0  0  0  0  0  0  0
    4.7156    0.2099   -5.6926 H   0  0  0  0  0  0  0  0  0  0  0  0
    4.6056    2.4966   -5.8804 H   0  0  0  0  0  0  0  0  0  0  0  0
    3.6548    4.5030   -6.9015 H   0  0  0  0  0  0  0  0  0  0  0  0
   -0.2463    4.1536   -9.5100 H   0  0  0  0  0  0  0  0  0  0  0  0
    1.0697    3.8400  -10.6628 H   0  0  0  0  0  0  0  0  0  0  0  0
   -0.3076    6.2251  -10.7826 H   0  0  0  0  0  0  0  0  0  0  0  0
    1.4432    6.1696  -11.0854 H   0  0  0  0  0  0  0  0  0  0  0  0
    0.0563    6.8386   -8.4255 H   0  0  0  0  0  0  0  0  0  0  0  0
    1.3053    7.8017   -9.2454 H   0  0  0  0  0  0  0  0  0  0  0  0
    1.9733    6.0204   -7.2475 H   0  0  0  0  0  0  0  0  0  0  0  0
    3.0491    6.2167   -8.6491 H   0  0  0  0  0  0  0  0  0  0  0  0
    1.0419    2.0070   -9.2935 H   0  0  0  0  0  0  0  0  0  0  0  0
    2.0288    0.0054   -8.2667 H   0  0  0  0  0  0  0  0  0  0  0  0
    2.7541   -2.0366   -0.4982 H   0  0  0  0  0  0  0  0  0  0  0  0
    3.4900   -3.1512    4.0074 H   0  0  0  0  0  0  0  0  0  0  0  0
    2.7655   -3.9035    2.6848 H   0  0  0  0  0  0  0  0  0  0  0  0
    5.9206   -1.0481    2.2803 H   0  0  0  0  0  0  0  0  0  0  0  0
    7.5836   -0.8618    0.4187 H   0  0  0  0  0  0  0  0  0  0  0  0
  1  2  1  0
  1 33  1  0
  1 34  1  0
  1 35  1  0
  2  3  1  0
  2 36  1  0
  2 37  1  0
  3  4  1  0
  3 38  1  0
  3 39  1  0
  4  5  1  0
  4 32  1  0
  5  6  1  0
  5 22  2  0
  6  7  1  0
  7  8  1  0
  7 40  1  0
  7 41  1  0
  8  9  2  0
  8 10  1  0
 10 11  1  0
 10 42  1  0
 11 12  2  0
 11 21  1  0
 12 13  1  0
 12 43  1  0
 13 14  2  0
 13 44  1  0
 14 15  1  0
 14 20  1  0
 15 16  1  0
 15 19  1  0
 16 17  1  0
 16 45  1  0
 16 46  1  0
 17 18  1  0
 17 47  1  0
 17 48  1  0
 18 19  1  0
 18 49  1  0
 18 50  1  0
 19 51  1  0
 19 52  1  0
 20 21  2  0
 20 53  1  0
 21 54  1  0
 22 23  1  0
 23 24  1  0
 23 32  2  0
 24 25  2  0
 24 55  1  0
 25 26  1  0
 25 30  1  0
 26 27  1  1
 26 28  2  0
 26 29  2  0
 27 56  1  0
 27 57  1  0
 30 31  2  0
 30 58  1  0
 31 32  1  0
 31 59  1  0
M  END

