
     RDKit          3D

 43 44  0  0  0  0  0  0  0  0999 V2000
    4.5515   -1.9377    1.5648 C   0  0  0  0  0  0  0  0  0  0  0  0
    3.9894   -0.8337    0.7082 C   0  0  0  0  0  0  0  0  0  0  0  0
    4.5336    0.4550    0.7693 C   0  0  0  0  0  0  0  0  0  0  0  0
    4.1020    1.5355   -0.0194 C   0  0  0  0  0  0  0  0  0  0  0  0
    4.7838    2.8702    0.1363 C   0  0  0  0  0  0  0  0  0  0  0  0
    3.0387    1.2580   -0.9022 C   0  0  0  0  0  0  0  0  0  0  0  0
    2.4675    2.2849   -1.7964 N   0  0  0  0  0  0  0  0  0  0  0  0
    3.0747    3.3363   -1.9330 O   0  0  0  0  0  0  0  0  0  0  0  0
    1.4125    2.0253   -2.3576 O   0  0  0  0  0  0  0  0  0  0  0  0
    2.4550   -0.0103   -0.9737 C   0  0  0  0  0  0  0  0  0  0  0  0
    2.9124   -1.0605   -0.1811 C   0  0  0  0  0  0  0  0  0  0  0  0
    2.3586   -2.4547   -0.3802 C   0  0  0  0  0  0  0  0  0  0  0  0
    3.1155   -3.3614   -0.6972 O   0  0  0  0  0  0  0  0  0  0  0  0
    1.0024   -2.6392   -0.2425 N   0  0  0  0  0  0  0  0  0  0  0  0
    0.0612   -1.7087    0.3754 C   0  0  0  0  0  0  0  0  0  0  0  0
   -1.1536   -1.4879   -0.5303 C   0  0  0  0  0  0  0  0  0  0  0  0
   -1.7926   -2.8249   -0.9277 C   0  0  0  0  0  0  0  0  0  0  0  0
   -0.7609   -3.8337   -1.5149 C   0  0  2  0  0  0  0  0  0  0  0  0
   -0.2665   -3.3983   -2.9093 C   0  0  0  0  0  0  0  0  0  0  0  0
   -1.4491   -5.2102   -1.5881 C   0  0  0  0  0  0  0  0  0  0  0  0
   -1.2463   -6.1077   -0.8163 O   0  0  0  0  0  0  0  0  0  0  0  0
   -2.3629   -5.3600   -2.5736 O   0  0  0  0  0  0  0  0  0  0  0  0
    0.4322   -3.9511   -0.5364 C   0  0  0  0  0  0  0  0  0  0  0  0
    5.3240   -1.5586    2.2483 H   0  0  0  0  0  0  0  0  0  0  0  0
    4.9825   -2.7271    0.9313 H   0  0  0  0  0  0  0  0  0  0  0  0
    3.7643   -2.4211    2.1659 H   0  0  0  0  0  0  0  0  0  0  0  0
    5.3531    0.6356    1.4700 H   0  0  0  0  0  0  0  0  0  0  0  0
    5.5009    2.8298    0.9686 H   0  0  0  0  0  0  0  0  0  0  0  0
    4.0631    3.6792    0.3228 H   0  0  0  0  0  0  0  0  0  0  0  0
    5.3187    3.1535   -0.7821 H   0  0  0  0  0  0  0  0  0  0  0  0
    1.6374   -0.1511   -1.6792 H   0  0  0  0  0  0  0  0  0  0  0  0
    0.5624   -0.7619    0.6053 H   0  0  0  0  0  0  0  0  0  0  0  0
   -0.2761   -2.1394    1.3389 H   0  0  0  0  0  0  0  0  0  0  0  0
   -0.8478   -0.9201   -1.4247 H   0  0  0  0  0  0  0  0  0  0  0  0
   -1.8947   -0.8652   -0.0031 H   0  0  0  0  0  0  0  0  0  0  0  0
   -2.6156   -2.6578   -1.6428 H   0  0  0  0  0  0  0  0  0  0  0  0
   -2.2475   -3.2825   -0.0319 H   0  0  0  0  0  0  0  0  0  0  0  0
   -1.0956   -3.1607   -3.5985 H   0  0  0  0  0  0  0  0  0  0  0  0
    0.3549   -4.1792   -3.3740 H   0  0  0  0  0  0  0  0  0  0  0  0
    0.3471   -2.4894   -2.8383 H   0  0  0  0  0  0  0  0  0  0  0  0
   -2.3919   -4.5730   -3.1357 H   0  0  0  0  0  0  0  0  0  0  0  0
    1.2263   -4.5834   -0.9501 H   0  0  0  0  0  0  0  0  0  0  0  0
    0.0830   -4.4276    0.3943 H   0  0  0  0  0  0  0  0  0  0  0  0
  1  2  1  0
  1 24  1  0
  1 25  1  0
  1 26  1  0
  2  3  2  0
  2 11  1  0
  3  4  1  0
  3 27  1  0
  4  5  1  0
  4  6  2  0
  5 28  1  0
  5 29  1  0
  5 30  1  0
  6  7  1  0
  6 10  1  0
  7  8  2  0
  7  9  1  0
 10 11  2  0
 10 31  1  0
 11 12  1  0
 12 13  2  0
 12 14  1  0
 14 15  1  0
 14 23  1  0
 15 16  1  0
 15 32  1  0
 15 33  1  0
 16 17  1  0
 16 34  1  0
 16 35  1  0
 17 18  1  0
 17 36  1  0
 17 37  1  0
 18 19  1  0
 18 20  1  6
 18 23  1  0
 19 38  1  0
 19 39  1  0
 19 40  1  0
 20 21  2  0
 20 22  1  0
 22 41  1  0
 23 42  1  0
 23 43  1  0
M  CHG  2   7   1   9  -1
M  END

