
     RDKit          3D

 43 46  0  0  0  0  0  0  0  0999 V2000
    1.9571   -0.1973   -1.1438 O   0  0  0  0  0  0  0  0  0  0  0  0
    2.7305    0.1568   -0.2664 C   0  0  0  0  0  0  0  0  0  0  0  0
    2.9038    1.4725    0.1036 N   0  0  0  0  0  0  0  0  0  0  0  0
    2.2862    2.6322   -0.4026 C   0  0  0  0  0  0  0  0  0  0  0  0
    1.3306    2.6175   -1.4365 C   0  0  0  0  0  0  0  0  0  0  0  0
    0.7704    3.8130   -1.8777 C   0  0  0  0  0  0  0  0  0  0  0  0
    1.1302    5.0545   -1.3188 C   0  0  0  0  0  0  0  0  0  0  0  0
    0.5321    6.2930   -1.7955 C   0  0  0  0  0  0  0  0  0  0  0  0
   -0.3945    6.6242   -2.7514 C   0  0  0  0  0  0  0  0  0  0  0  0
   -0.5804    7.9908   -2.7655 N   0  0  0  0  0  0  0  0  0  0  0  0
    0.2147    8.4479   -1.8439 C   0  0  0  0  0  0  0  0  0  0  0  0
    0.4296    9.8408   -1.4208 C   0  0  1  0  0  0  0  0  0  0  0  0
    0.3515   10.9488   -2.4565 C   0  0  0  0  0  0  0  0  0  0  0  0
   -0.7399   10.8095   -1.4434 C   0  0  0  0  0  0  0  0  0  0  0  0
    0.9213    7.4768   -1.2130 O   0  0  0  0  0  0  0  0  0  0  0  0
    2.0864    5.0564   -0.2852 C   0  0  0  0  0  0  0  0  0  0  0  0
    2.6519    3.8675    0.1625 C   0  0  0  0  0  0  0  0  0  0  0  0
    3.5993   -0.8360    0.5121 C   0  0  1  0  0  0  0  0  0  0  0  0
    2.7327   -1.8582    1.2889 C   0  0  0  0  0  0  0  0  0  0  0  0
    2.0125   -2.8900    0.4185 C   0  0  0  0  0  0  0  0  0  0  0  0
    3.1746   -3.9043   -0.5718 S   0  0  0  0  0  0  0  0  0  0  0  0
    4.0409   -2.5234   -1.4095 C   0  0  0  0  0  0  0  0  0  0  0  0
    4.6330   -1.5199   -0.4182 C   0  0  0  0  0  0  0  0  0  0  0  0
    3.5724    1.6382    0.8461 H   0  0  0  0  0  0  0  0  0  0  0  0
    1.0405    1.6682   -1.8796 H   0  0  0  0  0  0  0  0  0  0  0  0
    0.0314    3.7746   -2.6813 H   0  0  0  0  0  0  0  0  0  0  0  0
   -0.9355    5.9637   -3.4262 H   0  0  0  0  0  0  0  0  0  0  0  0
    1.1622    9.9449   -0.6171 H   0  0  0  0  0  0  0  0  0  0  0  0
    0.1360   10.6363   -3.4815 H   0  0  0  0  0  0  0  0  0  0  0  0
    1.0609   11.7755   -2.3601 H   0  0  0  0  0  0  0  0  0  0  0  0
   -1.6967   10.4022   -1.7803 H   0  0  0  0  0  0  0  0  0  0  0  0
   -0.8032   11.5374   -0.6297 H   0  0  0  0  0  0  0  0  0  0  0  0
    2.3861    6.0023    0.1684 H   0  0  0  0  0  0  0  0  0  0  0  0
    3.3932    3.8963    0.9672 H   0  0  0  0  0  0  0  0  0  0  0  0
    4.1749   -0.2707    1.2650 H   0  0  0  0  0  0  0  0  0  0  0  0
    1.9883   -1.3108    1.8947 H   0  0  0  0  0  0  0  0  0  0  0  0
    3.3923   -2.3890    1.9961 H   0  0  0  0  0  0  0  0  0  0  0  0
    1.2942   -2.4025   -0.2559 H   0  0  0  0  0  0  0  0  0  0  0  0
    1.4626   -3.6041    1.0505 H   0  0  0  0  0  0  0  0  0  0  0  0
    3.3457   -2.0285   -2.1030 H   0  0  0  0  0  0  0  0  0  0  0  0
    4.8416   -2.9925   -2.0015 H   0  0  0  0  0  0  0  0  0  0  0  0
    5.1861   -0.7414   -0.9740 H   0  0  0  0  0  0  0  0  0  0  0  0
    5.3675   -2.0409    0.2190 H   0  0  0  0  0  0  0  0  0  0  0  0
  1  2  2  0
  2  3  1  0
  2 18  1  0
  3  4  1  0
  3 24  1  0
  4  5  2  0
  4 17  1  0
  5  6  1  0
  5 25  1  0
  6  7  2  0
  6 26  1  0
  7  8  1  0
  7 16  1  0
  8  9  2  0
  8 15  1  0
  9 10  1  0
  9 27  1  0
 10 11  2  0
 11 12  1  0
 11 15  1  0
 12 13  1  0
 12 14  1  0
 12 28  1  1
 13 14  1  0
 13 29  1  0
 13 30  1  0
 14 31  1  0
 14 32  1  0
 16 17  2  0
 16 33  1  0
 17 34  1  0
 18 19  1  0
 18 23  1  0
 18 35  1  1
 19 20  1  0
 19 36  1  0
 19 37  1  0
 20 21  1  0
 20 38  1  0
 20 39  1  0
 21 22  1  0
 22 23  1  0
 22 40  1  0
 22 41  1  0
 23 42  1  0
 23 43  1  0
M  END

