
     RDKit          3D

 42 43  0  0  0  0  0  0  0  0999 V2000
    3.7717    3.4051    2.6689 O   0  0  0  0  0  0  0  0  0  0  0  0
    2.9591    2.7101    2.0844 C   0  0  0  0  0  0  0  0  0  0  0  0
    1.6256    2.9363    2.0323 N   0  0  0  0  0  0  0  0  0  0  0  0
    0.9664    4.0687    2.6559 C   0  0  0  0  0  0  0  0  0  0  0  0
    0.3596    3.7585    4.0337 C   0  0  0  0  0  0  0  0  0  0  0  0
    1.3693    3.6917    5.1732 C   0  0  0  0  0  0  0  0  0  0  0  0
    2.0230    5.3326    5.5812 Cl  0  0  0  0  0  0  0  0  0  0  0  0
    3.3106    1.4084    1.3092 C   0  0  0  0  0  0  0  0  0  0  0  0
    2.3936    0.6785    0.9409 O   0  0  0  0  0  0  0  0  0  0  0  0
    4.6241    1.1049    1.1186 N   0  0  0  0  0  0  0  0  0  0  0  0
    4.9379   -0.1996    0.4918 C   0  0  0  0  0  0  0  0  0  0  0  0
    5.1301   -0.1361   -1.0115 C   0  0  0  0  0  0  0  0  0  0  0  0
    6.4165   -0.1419   -1.5704 C   0  0  0  0  0  0  0  0  0  0  0  0
    6.5943   -0.0790   -2.9563 C   0  0  0  0  0  0  0  0  0  0  0  0
    5.4839   -0.0073   -3.8012 C   0  0  0  0  0  0  0  0  0  0  0  0
    4.1960   -0.0015   -3.2537 C   0  0  0  0  0  0  0  0  0  0  0  0
    4.0188   -0.0667   -1.8699 C   0  0  0  0  0  0  0  0  0  0  0  0
    5.7331    1.9917    1.3519 C   0  0  0  0  0  0  0  0  0  0  0  0
    6.5696    1.7820    2.4549 C   0  0  0  0  0  0  0  0  0  0  0  0
    7.6833    2.5997    2.6505 C   0  0  0  0  0  0  0  0  0  0  0  0
    7.9667    3.6291    1.7466 C   0  0  0  0  0  0  0  0  0  0  0  0
    7.1354    3.8323    0.6420 C   0  0  0  0  0  0  0  0  0  0  0  0
    6.0238    3.0108    0.4382 C   0  0  0  0  0  0  0  0  0  0  0  0
    1.0864    2.2134    1.5615 H   0  0  0  0  0  0  0  0  0  0  0  0
    0.1720    4.4178    1.9770 H   0  0  0  0  0  0  0  0  0  0  0  0
    1.7049    4.8786    2.7538 H   0  0  0  0  0  0  0  0  0  0  0  0
   -0.1708    2.7900    3.9849 H   0  0  0  0  0  0  0  0  0  0  0  0
   -0.3979    4.5216    4.2774 H   0  0  0  0  0  0  0  0  0  0  0  0
    2.2386    3.0701    4.9215 H   0  0  0  0  0  0  0  0  0  0  0  0
    0.9058    3.3089    6.0923 H   0  0  0  0  0  0  0  0  0  0  0  0
    4.1084   -0.8748    0.7385 H   0  0  0  0  0  0  0  0  0  0  0  0
    5.8537   -0.5748    0.9702 H   0  0  0  0  0  0  0  0  0  0  0  0
    7.2895   -0.1984   -0.9142 H   0  0  0  0  0  0  0  0  0  0  0  0
    7.6037   -0.0869   -3.3758 H   0  0  0  0  0  0  0  0  0  0  0  0
    5.6204    0.0403   -4.8847 H   0  0  0  0  0  0  0  0  0  0  0  0
    3.3233    0.0485   -3.9104 H   0  0  0  0  0  0  0  0  0  0  0  0
    3.0152   -0.0635   -1.4384 H   0  0  0  0  0  0  0  0  0  0  0  0
    6.3298    0.9885    3.1664 H   0  0  0  0  0  0  0  0  0  0  0  0
    8.3270    2.4396    3.5190 H   0  0  0  0  0  0  0  0  0  0  0  0
    8.8361    4.2723    1.9042 H   0  0  0  0  0  0  0  0  0  0  0  0
    7.3535    4.6329   -0.0692 H   0  0  0  0  0  0  0  0  0  0  0  0
    5.3738    3.1571   -0.4267 H   0  0  0  0  0  0  0  0  0  0  0  0
  1  2  2  0
  2  3  1  0
  2  8  1  0
  3  4  1  0
  3 24  1  0
  4  5  1  0
  4 25  1  0
  4 26  1  0
  5  6  1  0
  5 27  1  0
  5 28  1  0
  6  7  1  0
  6 29  1  0
  6 30  1  0
  8  9  2  0
  8 10  1  0
 10 11  1  0
 10 18  1  0
 11 12  1  0
 11 31  1  0
 11 32  1  0
 12 13  2  0
 12 17  1  0
 13 14  1  0
 13 33  1  0
 14 15  2  0
 14 34  1  0
 15 16  1  0
 15 35  1  0
 16 17  2  0
 16 36  1  0
 17 37  1  0
 18 19  2  0
 18 23  1  0
 19 20  1  0
 19 38  1  0
 20 21  2  0
 20 39  1  0
 21 22  1  0
 21 40  1  0
 22 23  2  0
 22 41  1  0
 23 42  1  0
M  END

