
     RDKit          3D

 51 54  0  0  0  0  0  0  0  0999 V2000
    7.4911   -1.2497   -3.3743 C   0  0  0  0  0  0  0  0  0  0  0  0
    7.9616   -2.4264   -2.8694 C   0  0  0  0  0  0  0  0  0  0  0  0
    6.9299   -3.2013   -2.4427 O   0  0  0  0  0  0  0  0  0  0  0  0
    5.7700   -2.5189   -2.6744 C   0  0  0  0  0  0  0  0  0  0  0  0
    4.5028   -3.1851   -2.2602 C   0  0  0  0  0  0  0  0  0  0  0  0
    4.3740   -3.3560   -0.7301 C   0  0  0  0  0  0  0  0  0  0  0  0
    3.1474   -4.0139   -0.3222 N   0  0  0  0  0  0  0  0  0  0  0  0
    2.8792   -5.3620   -0.4282 C   0  0  0  0  0  0  0  0  0  0  0  0
    1.7266   -5.9162   -0.2031 N   0  0  0  0  0  0  0  0  0  0  0  0
    0.5888   -5.0509    0.0266 C   0  0  0  0  0  0  0  0  0  0  0  0
    0.5557   -4.4631    1.4083 C   0  0  0  0  0  0  0  0  0  0  0  0
    1.0420   -3.2826    1.7475 N   0  0  0  0  0  0  0  0  0  0  0  0
    0.9440   -3.1038    3.0878 N   0  0  0  0  0  0  0  0  0  0  0  0
    0.3953   -4.2016    3.5842 C   0  0  0  0  0  0  0  0  0  0  0  0
    0.0519   -4.5724    4.9134 C   0  0  0  0  0  0  0  0  0  0  0  0
   -0.4980   -5.8096    5.1345 C   0  0  0  0  0  0  0  0  0  0  0  0
   -0.7178   -6.7177    4.0466 C   0  0  0  0  0  0  0  0  0  0  0  0
   -0.3943   -6.3608    2.7691 C   0  0  0  0  0  0  0  0  0  0  0  0
    0.1376   -5.1100    2.5473 N   0  0  0  0  0  0  0  0  0  0  0  0
    3.9344   -6.1444   -0.8669 N   0  0  0  0  0  0  0  0  0  0  0  0
    3.8028   -7.5855   -0.9524 C   0  0  0  0  0  0  0  0  0  0  0  0
    4.1521   -8.2908    0.3558 C   0  0  1  0  0  0  0  0  0  0  0  0
    4.1534   -9.8233    0.2904 C   0  0  0  0  0  0  0  0  0  0  0  0
    5.2427  -10.1935    1.3045 C   0  0  0  0  0  0  0  0  0  0  0  0
    6.2533   -9.0618    1.0947 C   0  0  0  0  0  0  0  0  0  0  0  0
    5.4872   -7.9178    0.7395 O   0  0  0  0  0  0  0  0  0  0  0  0
    6.0621   -1.3084   -3.2442 C   0  0  0  0  0  0  0  0  0  0  0  0
    8.0853   -0.4382   -3.7894 H   0  0  0  0  0  0  0  0  0  0  0  0
    8.9575   -2.8450   -2.7500 H   0  0  0  0  0  0  0  0  0  0  0  0
    4.4337   -4.1827   -2.7256 H   0  0  0  0  0  0  0  0  0  0  0  0
    3.6524   -2.5928   -2.6296 H   0  0  0  0  0  0  0  0  0  0  0  0
    4.3858   -2.3648   -0.2522 H   0  0  0  0  0  0  0  0  0  0  0  0
    5.2719   -3.8780   -0.3504 H   0  0  0  0  0  0  0  0  0  0  0  0
    2.5184   -3.4710    0.2694 H   0  0  0  0  0  0  0  0  0  0  0  0
   -0.3358   -5.6310   -0.1395 H   0  0  0  0  0  0  0  0  0  0  0  0
    0.5500   -4.1915   -0.6720 H   0  0  0  0  0  0  0  0  0  0  0  0
    0.2432   -3.8587    5.7154 H   0  0  0  0  0  0  0  0  0  0  0  0
   -0.7669   -6.1170    6.1474 H   0  0  0  0  0  0  0  0  0  0  0  0
   -1.1384   -7.7074    4.2307 H   0  0  0  0  0  0  0  0  0  0  0  0
   -0.5092   -7.0055    1.8975 H   0  0  0  0  0  0  0  0  0  0  0  0
    4.8589   -5.8426   -0.5748 H   0  0  0  0  0  0  0  0  0  0  0  0
    4.4765   -7.9548   -1.7454 H   0  0  0  0  0  0  0  0  0  0  0  0
    2.7651   -7.8134   -1.2307 H   0  0  0  0  0  0  0  0  0  0  0  0
    3.4532   -7.9358    1.1362 H   0  0  0  0  0  0  0  0  0  0  0  0
    4.4407  -10.1612   -0.7209 H   0  0  0  0  0  0  0  0  0  0  0  0
    3.1690  -10.2566    0.5215 H   0  0  0  0  0  0  0  0  0  0  0  0
    5.6757  -11.1926    1.1444 H   0  0  0  0  0  0  0  0  0  0  0  0
    4.8380  -10.1600    2.3296 H   0  0  0  0  0  0  0  0  0  0  0  0
    6.9650   -9.3134    0.2829 H   0  0  0  0  0  0  0  0  0  0  0  0
    6.8450   -8.8341    1.9973 H   0  0  0  0  0  0  0  0  0  0  0  0
    5.3406   -0.5497   -3.5403 H   0  0  0  0  0  0  0  0  0  0  0  0
  1  2  2  0
  1 27  1  0
  1 28  1  0
  2  3  1  0
  2 29  1  0
  3  4  1  0
  4  5  1  0
  4 27  2  0
  5  6  1  0
  5 30  1  0
  5 31  1  0
  6  7  1  0
  6 32  1  0
  6 33  1  0
  7  8  1  0
  7 34  1  0
  8  9  2  0
  8 20  1  0
  9 10  1  0
 10 11  1  0
 10 35  1  0
 10 36  1  0
 11 12  2  0
 11 19  1  0
 12 13  1  0
 13 14  2  0
 14 15  1  0
 14 19  1  0
 15 16  2  0
 15 37  1  0
 16 17  1  0
 16 38  1  0
 17 18  2  0
 17 39  1  0
 18 19  1  0
 18 40  1  0
 20 21  1  0
 20 41  1  0
 21 22  1  0
 21 42  1  0
 21 43  1  0
 22 23  1  0
 22 26  1  0
 22 44  1  1
 23 24  1  0
 23 45  1  0
 23 46  1  0
 24 25  1  0
 24 47  1  0
 24 48  1  0
 25 26  1  0
 25 49  1  0
 25 50  1  0
 27 51  1  0
M  END

