
     RDKit          3D

 46 47  0  0  0  0  0  0  0  0999 V2000
    0.8024   -0.6424    0.1259 C   0  0  0  0  0  0  0  0  0  0  0  0
    2.2843   -0.3001   -0.0405 C   0  0  1  0  0  0  0  0  0  0  0  0
    2.9203    0.1322    1.2844 C   0  0  0  0  0  0  0  0  0  0  0  0
    3.1116   -1.4429   -0.6824 C   0  0  0  0  0  0  0  0  0  0  0  0
    2.6910   -1.8043   -2.0347 N   0  0  0  0  0  0  0  0  0  0  0  0
    1.9299   -2.9395   -2.2009 C   0  0  0  0  0  0  0  0  0  0  0  0
    1.6630   -3.6730   -1.2585 O   0  0  0  0  0  0  0  0  0  0  0  0
    1.4468   -3.3277   -3.6006 C   0  0  0  0  0  0  0  0  0  0  0  0
    0.0289   -3.8925   -3.5350 C   0  0  0  0  0  0  0  0  0  0  0  0
   -0.9820   -2.7975   -3.1928 C   0  0  0  0  0  0  0  0  0  0  0  0
   -0.6144   -1.6342   -3.0409 O   0  0  0  0  0  0  0  0  0  0  0  0
   -2.2948   -3.1566   -3.0642 N   0  0  0  0  0  0  0  0  0  0  0  0
   -3.2933   -2.1544   -2.6921 C   0  0  0  0  0  0  0  0  0  0  0  0
   -4.5108   -2.2717   -3.6052 C   0  0  0  0  0  0  0  0  0  0  0  0
   -5.0285   -3.5893   -3.6086 O   0  0  0  0  0  0  0  0  0  0  0  0
   -4.0705   -4.5289   -4.0402 C   0  0  0  0  0  0  0  0  0  0  0  0
   -2.8269   -4.5132   -3.1471 C   0  0  0  0  0  0  0  0  0  0  0  0
    2.9350   -0.7763   -3.0407 C   0  0  0  0  0  0  0  0  0  0  0  0
    2.0566    0.4563   -2.8061 C   0  0  0  0  0  0  0  0  0  0  0  0
    2.4351    1.1735   -1.1761 S   0  0  1  0  0  0  0  0  0  0  0  0
    1.4116    2.1745   -0.8364 O   0  0  0  0  0  0  0  0  0  0  0  0
    3.8628    1.5534   -1.2137 O   0  0  0  0  0  0  0  0  0  0  0  0
    0.7059   -1.4908    0.8215 H   0  0  0  0  0  0  0  0  0  0  0  0
    0.3244   -0.9357   -0.8196 H   0  0  0  0  0  0  0  0  0  0  0  0
    0.2581    0.2201    0.5357 H   0  0  0  0  0  0  0  0  0  0  0  0
    2.8751   -0.7046    2.0000 H   0  0  0  0  0  0  0  0  0  0  0  0
    2.3742    0.9838    1.7167 H   0  0  0  0  0  0  0  0  0  0  0  0
    3.9701    0.4282    1.1484 H   0  0  0  0  0  0  0  0  0  0  0  0
    3.0125   -2.3374   -0.0535 H   0  0  0  0  0  0  0  0  0  0  0  0
    4.1710   -1.1416   -0.7100 H   0  0  0  0  0  0  0  0  0  0  0  0
    2.1299   -4.1142   -3.9640 H   0  0  0  0  0  0  0  0  0  0  0  0
    1.4787   -2.5026   -4.3190 H   0  0  0  0  0  0  0  0  0  0  0  0
   -0.0059   -4.6785   -2.7646 H   0  0  0  0  0  0  0  0  0  0  0  0
   -0.2375   -4.3601   -4.4975 H   0  0  0  0  0  0  0  0  0  0  0  0
   -2.8281   -1.1634   -2.7639 H   0  0  0  0  0  0  0  0  0  0  0  0
   -3.6042   -2.3192   -1.6434 H   0  0  0  0  0  0  0  0  0  0  0  0
   -4.2330   -1.9667   -4.6354 H   0  0  0  0  0  0  0  0  0  0  0  0
   -5.3178   -1.6106   -3.2556 H   0  0  0  0  0  0  0  0  0  0  0  0
   -3.7691   -4.3218   -5.0889 H   0  0  0  0  0  0  0  0  0  0  0  0
   -4.5491   -5.5196   -4.0075 H   0  0  0  0  0  0  0  0  0  0  0  0
   -2.0739   -5.2044   -3.5436 H   0  0  0  0  0  0  0  0  0  0  0  0
   -3.1053   -4.8629   -2.1346 H   0  0  0  0  0  0  0  0  0  0  0  0
    2.7618   -1.1686   -4.0485 H   0  0  0  0  0  0  0  0  0  0  0  0
    3.9945   -0.4749   -2.9894 H   0  0  0  0  0  0  0  0  0  0  0  0
    0.9866    0.2099   -2.8444 H   0  0  0  0  0  0  0  0  0  0  0  0
    2.2852    1.2727   -3.5082 H   0  0  0  0  0  0  0  0  0  0  0  0
  2  1  1  1
  1 23  1  0
  1 24  1  0
  1 25  1  0
  2  3  1  0
  2  4  1  0
  2 20  1  0
  3 26  1  0
  3 27  1  0
  3 28  1  0
  4  5  1  0
  4 29  1  0
  4 30  1  0
  5  6  1  0
  5 18  1  0
  6  7  2  0
  6  8  1  0
  8  9  1  0
  8 31  1  0
  8 32  1  0
  9 10  1  0
  9 33  1  0
  9 34  1  0
 10 11  2  0
 10 12  1  0
 12 13  1  0
 12 17  1  0
 13 14  1  0
 13 35  1  0
 13 36  1  0
 14 15  1  0
 14 37  1  0
 14 38  1  0
 15 16  1  0
 16 17  1  0
 16 39  1  0
 16 40  1  0
 17 41  1  0
 17 42  1  0
 18 19  1  0
 18 43  1  0
 18 44  1  0
 20 19  1  6
 19 45  1  0
 19 46  1  0
 20 21  2  0
 20 22  2  0
M  END

