
     RDKit          3D

 56 58  0  0  0  0  0  0  0  0999 V2000
    1.2312    0.8622   -0.0942 C   0  0  0  0  0  0  0  0  0  0  0  0
    2.6484    0.3872    0.0120 C   0  0  0  0  0  0  0  0  0  0  0  0
    3.8069    1.2401   -0.0030 C   0  0  0  0  0  0  0  0  0  0  0  0
    3.8560    2.6524   -0.1237 C   0  0  0  0  0  0  0  0  0  0  0  0
    3.9324    3.8099   -0.2241 N   0  0  0  0  0  0  0  0  0  0  0  0
    4.9322    0.4270    0.1411 C   0  0  0  0  0  0  0  0  0  0  0  0
    6.2620    0.8432    0.1054 N   0  0  0  0  0  0  0  0  0  0  0  0
    7.2668    0.5824    1.0007 C   0  0  0  0  0  0  0  0  0  0  0  0
    7.2165   -0.2271    1.9100 O   0  0  0  0  0  0  0  0  0  0  0  0
    8.5396    1.3953    0.7089 C   0  0  0  0  0  0  0  0  0  0  0  0
    8.2896    2.5833   -0.0926 N   0  0  0  0  0  0  0  0  0  0  0  0
    7.8491    3.7593    0.6724 C   0  0  0  0  0  0  0  0  0  0  0  0
    9.0228    4.5416    1.2778 C   0  0  2  0  0  0  0  0  0  0  0  0
    9.5297    3.8988    2.0302 H   0  0  0  0  0  0  0  0  0  0  0  0
    8.5893    5.8382    1.9401 C   0  0  0  0  0  0  0  0  0  0  0  0
    9.9606    4.8688    0.2571 O   0  0  0  0  0  0  0  0  0  0  0  0
   10.4782    3.7419   -0.4376 C   0  0  2  0  0  0  0  0  0  0  0  0
   11.0025    3.0817    0.2885 H   0  0  0  0  0  0  0  0  0  0  0  0
   11.4766    4.2500   -1.4640 C   0  0  0  0  0  0  0  0  0  0  0  0
    9.3202    2.9531   -1.0650 C   0  0  0  0  0  0  0  0  0  0  0  0
    4.5113   -0.8714    0.2366 N   0  0  0  0  0  0  0  0  0  0  0  0
    5.3856   -2.0384    0.3109 C   0  0  0  0  0  0  0  0  0  0  0  0
    6.1300   -2.3465   -0.9778 C   0  0  0  0  0  0  0  0  0  0  0  0
    7.4267   -2.8783   -0.9143 C   0  0  0  0  0  0  0  0  0  0  0  0
    8.1234   -3.2235   -2.0752 C   0  0  0  0  0  0  0  0  0  0  0  0
    7.5119   -3.0223   -3.3103 C   0  0  0  0  0  0  0  0  0  0  0  0
    8.1751   -3.3447   -4.4306 F   0  0  0  0  0  0  0  0  0  0  0  0
    6.2295   -2.4864   -3.4087 C   0  0  0  0  0  0  0  0  0  0  0  0
    5.5446   -2.1525   -2.2381 C   0  0  0  0  0  0  0  0  0  0  0  0
    3.1145   -0.9057    0.1678 C   0  0  0  0  0  0  0  0  0  0  0  0
    2.3512   -2.1867    0.2847 C   0  0  0  0  0  0  0  0  0  0  0  0
    0.9574    1.5090    0.7565 H   0  0  0  0  0  0  0  0  0  0  0  0
    0.5183    0.0259   -0.1174 H   0  0  0  0  0  0  0  0  0  0  0  0
    1.0759    1.4590   -1.0082 H   0  0  0  0  0  0  0  0  0  0  0  0
    6.4981    1.6315   -0.5065 H   0  0  0  0  0  0  0  0  0  0  0  0
    9.2171    0.7190    0.1610 H   0  0  0  0  0  0  0  0  0  0  0  0
    9.0145    1.5765    1.6911 H   0  0  0  0  0  0  0  0  0  0  0  0
    7.1470    3.4418    1.4591 H   0  0  0  0  0  0  0  0  0  0  0  0
    7.2893    4.4272   -0.0049 H   0  0  0  0  0  0  0  0  0  0  0  0
    7.9005    5.6407    2.7760 H   0  0  0  0  0  0  0  0  0  0  0  0
    8.0792    6.4887    1.2123 H   0  0  0  0  0  0  0  0  0  0  0  0
    9.4663    6.3782    2.3268 H   0  0  0  0  0  0  0  0  0  0  0  0
   12.2612    4.8412   -0.9691 H   0  0  0  0  0  0  0  0  0  0  0  0
   10.9743    4.8985   -2.1994 H   0  0  0  0  0  0  0  0  0  0  0  0
   11.9523    3.4133   -1.9992 H   0  0  0  0  0  0  0  0  0  0  0  0
    9.6918    2.0451   -1.5664 H   0  0  0  0  0  0  0  0  0  0  0  0
    8.8520    3.5907   -1.8362 H   0  0  0  0  0  0  0  0  0  0  0  0
    4.7558   -2.8951    0.5899 H   0  0  0  0  0  0  0  0  0  0  0  0
    6.0997   -1.8775    1.1297 H   0  0  0  0  0  0  0  0  0  0  0  0
    7.9036   -3.0202    0.0595 H   0  0  0  0  0  0  0  0  0  0  0  0
    9.1328   -3.6378   -2.0369 H   0  0  0  0  0  0  0  0  0  0  0  0
    5.7853   -2.3366   -4.3947 H   0  0  0  0  0  0  0  0  0  0  0  0
    4.5420   -1.7234   -2.3114 H   0  0  0  0  0  0  0  0  0  0  0  0
    2.4911   -2.6712    1.2668 H   0  0  0  0  0  0  0  0  0  0  0  0
    2.6312   -2.9221   -0.4891 H   0  0  0  0  0  0  0  0  0  0  0  0
    1.2768   -1.9904    0.1715 H   0  0  0  0  0  0  0  0  0  0  0  0
  1  2  1  0
  1 32  1  0
  1 33  1  0
  1 34  1  0
  2  3  1  0
  2 30  2  0
  3  4  1  0
  3  6  2  0
  4  5  3  0
  6  7  1  0
  6 21  1  0
  7  8  1  0
  7 35  1  0
  8  9  2  0
  8 10  1  0
 10 11  1  0
 10 36  1  0
 10 37  1  0
 11 12  1  0
 11 20  1  0
 12 13  1  0
 12 38  1  0
 12 39  1  0
 13 14  1  1
 13 15  1  0
 13 16  1  0
 15 40  1  0
 15 41  1  0
 15 42  1  0
 16 17  1  0
 17 18  1  1
 17 19  1  0
 17 20  1  0
 19 43  1  0
 19 44  1  0
 19 45  1  0
 20 46  1  0
 20 47  1  0
 21 22  1  0
 21 30  1  0
 22 23  1  0
 22 48  1  0
 22 49  1  0
 23 24  2  0
 23 29  1  0
 24 25  1  0
 24 50  1  0
 25 26  2  0
 25 51  1  0
 26 27  1  0
 26 28  1  0
 28 29  2  0
 28 52  1  0
 29 53  1  0
 30 31  1  0
 31 54  1  0
 31 55  1  0
 31 56  1  0
M  END

