
     RDKit          3D

 63 65  0  0  0  0  0  0  0  0999 V2000
    1.2057    0.2414    3.8478 C   0  0  0  0  0  0  0  0  0  0  0  0
    2.3304    1.1655    3.4208 C   0  0  0  0  0  0  0  0  0  0  0  0
    3.1258    0.4834    2.4658 O   0  0  0  0  0  0  0  0  0  0  0  0
    4.2479    1.0797    1.9734 C   0  0  0  0  0  0  0  0  0  0  0  0
    4.6414    2.3832    2.2893 C   0  0  0  0  0  0  0  0  0  0  0  0
    5.8532    2.8890    1.7857 C   0  0  0  0  0  0  0  0  0  0  0  0
    6.3699    4.2400    2.2100 C   0  0  0  0  0  0  0  0  0  0  0  0
    7.4932    4.3540    2.6730 O   0  0  0  0  0  0  0  0  0  0  0  0
    5.5049    5.3211    2.1426 N   0  0  0  0  0  0  0  0  0  0  0  0
    5.9495    6.5637    2.7524 C   0  0  0  0  0  0  0  0  0  0  0  0
    4.3857    5.4141    1.2086 C   0  0  0  0  0  0  0  0  0  0  0  0
    4.6235    6.3773    0.0656 C   0  0  0  0  0  0  0  0  0  0  0  0
    3.9524    7.5547   -0.0721 C   0  0  0  0  0  0  0  0  0  0  0  0
    4.1874    8.4631   -1.1633 C   0  0  0  0  0  0  0  0  0  0  0  0
    3.5072    9.6834   -1.3289 C   0  0  0  0  0  0  0  0  0  0  0  0
    3.7733   10.5323   -2.3963 C   0  0  0  0  0  0  0  0  0  0  0  0
    4.7540   10.1641   -3.3447 C   0  0  0  0  0  0  0  0  0  0  0  0
    5.0894   10.9157   -4.4176 O   0  0  0  0  0  0  0  0  0  0  0  0
    4.4454   12.1532   -4.6367 C   0  0  0  0  0  0  0  0  0  0  0  0
    5.4470    8.9560   -3.2066 C   0  0  0  0  0  0  0  0  0  0  0  0
    5.1712    8.1076   -2.1279 C   0  0  0  0  0  0  0  0  0  0  0  0
    5.8326    6.9099   -1.9615 N   0  0  0  0  0  0  0  0  0  0  0  0
    6.5337    6.6298   -2.6422 H   0  0  0  0  0  0  0  0  0  0  0  0
    5.6335    5.9861   -0.9351 C   0  0  0  0  0  0  0  0  0  0  0  0
    6.2664    4.9409   -0.9128 O   0  0  0  0  0  0  0  0  0  0  0  0
    6.6573    2.0913    0.9792 C   0  0  0  0  0  0  0  0  0  0  0  0
    6.2585    0.7922    0.6260 C   0  0  0  0  0  0  0  0  0  0  0  0
    7.1394    0.0944   -0.1361 O   0  0  0  0  0  0  0  0  0  0  0  0
    6.7195   -0.8326   -1.1336 C   0  0  0  0  0  0  0  0  0  0  0  0
    7.8761   -1.0236   -2.0978 C   0  0  0  0  0  0  0  0  0  0  0  0
    5.0442    0.2712    1.1213 C   0  0  0  0  0  0  0  0  0  0  0  0
    4.6988   -1.0292    0.8750 O   0  0  0  0  0  0  0  0  0  0  0  0
    3.5113   -1.2819    0.1192 C   0  0  0  0  0  0  0  0  0  0  0  0
    3.2306   -2.7708    0.1679 C   0  0  0  0  0  0  0  0  0  0  0  0
    0.5754    0.7347    4.6040 H   0  0  0  0  0  0  0  0  0  0  0  0
    1.6097   -0.6859    4.2818 H   0  0  0  0  0  0  0  0  0  0  0  0
    0.5704   -0.0278    2.9898 H   0  0  0  0  0  0  0  0  0  0  0  0
    2.9514    1.4530    4.2898 H   0  0  0  0  0  0  0  0  0  0  0  0
    1.9248    2.0981    2.9837 H   0  0  0  0  0  0  0  0  0  0  0  0
    4.0370    3.0009    2.9521 H   0  0  0  0  0  0  0  0  0  0  0  0
    6.6083    6.3306    3.5974 H   0  0  0  0  0  0  0  0  0  0  0  0
    5.0750    7.1333    3.1080 H   0  0  0  0  0  0  0  0  0  0  0  0
    6.5164    7.2030    2.0522 H   0  0  0  0  0  0  0  0  0  0  0  0
    3.4759    5.7294    1.7513 H   0  0  0  0  0  0  0  0  0  0  0  0
    4.2028    4.4144    0.7958 H   0  0  0  0  0  0  0  0  0  0  0  0
    3.1989    7.8349    0.6722 H   0  0  0  0  0  0  0  0  0  0  0  0
    2.7496    9.9665   -0.5931 H   0  0  0  0  0  0  0  0  0  0  0  0
    3.2255   11.4691   -2.4897 H   0  0  0  0  0  0  0  0  0  0  0  0
    4.8818   12.5718   -5.5532 H   0  0  0  0  0  0  0  0  0  0  0  0
    4.6175   12.8584   -3.8043 H   0  0  0  0  0  0  0  0  0  0  0  0
    3.3576   12.0297   -4.7827 H   0  0  0  0  0  0  0  0  0  0  0  0
    6.1998    8.6955   -3.9530 H   0  0  0  0  0  0  0  0  0  0  0  0
    7.6033    2.4681    0.5922 H   0  0  0  0  0  0  0  0  0  0  0  0
    5.8337   -0.4358   -1.6635 H   0  0  0  0  0  0  0  0  0  0  0  0
    6.4317   -1.7880   -0.6684 H   0  0  0  0  0  0  0  0  0  0  0  0
    8.1427   -0.0738   -2.5864 H   0  0  0  0  0  0  0  0  0  0  0  0
    7.6078   -1.7567   -2.8752 H   0  0  0  0  0  0  0  0  0  0  0  0
    8.7649   -1.3948   -1.5642 H   0  0  0  0  0  0  0  0  0  0  0  0
    3.6624   -0.9420   -0.9239 H   0  0  0  0  0  0  0  0  0  0  0  0
    2.6680   -0.7139    0.5404 H   0  0  0  0  0  0  0  0  0  0  0  0
    4.0679   -3.3480   -0.2549 H   0  0  0  0  0  0  0  0  0  0  0  0
    2.3216   -3.0074   -0.4075 H   0  0  0  0  0  0  0  0  0  0  0  0
    3.0812   -3.0976    1.2084 H   0  0  0  0  0  0  0  0  0  0  0  0
  1  2  1  0
  1 35  1  0
  1 36  1  0
  1 37  1  0
  2  3  1  0
  2 38  1  0
  2 39  1  0
  3  4  1  0
  4  5  2  0
  4 31  1  0
  5  6  1  0
  5 40  1  0
  6  7  1  0
  6 26  2  0
  7  8  2  0
  7  9  1  0
  9 10  1  0
  9 11  1  0
 10 41  1  0
 10 42  1  0
 10 43  1  0
 11 12  1  0
 11 44  1  0
 11 45  1  0
 12 13  2  0
 12 24  1  0
 13 14  1  0
 13 46  1  0
 14 15  2  0
 14 21  1  0
 15 16  1  0
 15 47  1  0
 16 17  2  0
 16 48  1  0
 17 18  1  0
 17 20  1  0
 18 19  1  0
 19 49  1  0
 19 50  1  0
 19 51  1  0
 20 21  2  0
 20 52  1  0
 21 22  1  0
 22 23  1  0
 22 24  1  0
 24 25  2  0
 26 27  1  0
 26 53  1  0
 27 28  1  0
 27 31  2  0
 28 29  1  0
 29 30  1  0
 29 54  1  0
 29 55  1  0
 30 56  1  0
 30 57  1  0
 30 58  1  0
 31 32  1  0
 32 33  1  0
 33 34  1  0
 33 59  1  0
 33 60  1  0
 34 61  1  0
 34 62  1  0
 34 63  1  0
M  END

