
     RDKit          3D

 39 41  0  0  0  0  0  0  0  0999 V2000
    0.5047   -0.8987    0.0496 C   0  0  0  0  0  0  0  0  0  0  0  0
    0.2452   -1.4475    1.3219 O   0  0  0  0  0  0  0  0  0  0  0  0
    1.2813   -1.8465    2.0936 C   0  0  0  0  0  0  0  0  0  0  0  0
    2.6326   -1.7644    1.7308 C   0  0  0  0  0  0  0  0  0  0  0  0
    3.6517   -2.1980    2.5849 C   0  0  0  0  0  0  0  0  0  0  0  0
    3.3322   -2.7319    3.8406 C   0  0  0  0  0  0  0  0  0  0  0  0
    4.2939   -3.1894    4.7659 N   0  0  0  0  0  0  0  0  0  0  0  0
    5.6476   -3.2676    4.6166 C   0  0  0  0  0  0  0  0  0  0  0  0
    6.2838   -2.9117    3.6368 O   0  0  0  0  0  0  0  0  0  0  0  0
    6.3561   -3.8780    5.8403 C   0  0  0  0  0  0  0  0  0  0  0  0
    6.1593   -5.3254    5.9827 N   0  0  0  0  0  0  0  0  0  0  0  0
    5.0797   -5.7199    6.7486 C   0  0  0  0  0  0  0  0  0  0  0  0
    4.2457   -4.9262    7.1528 O   0  0  0  0  0  0  0  0  0  0  0  0
    4.9885   -7.1999    7.1328 C   0  0  0  0  0  0  0  0  0  0  0  0
    4.1328   -7.6070    7.8839 O   0  0  0  0  0  0  0  0  0  0  0  0
    5.9550   -8.0047    6.5785 N   0  0  0  0  0  0  0  0  0  0  0  0
    5.8936   -8.9875    6.8333 H   0  0  0  0  0  0  0  0  0  0  0  0
    6.9267   -7.6042    5.6657 C   0  0  0  0  0  0  0  0  0  0  0  0
    7.7920   -8.5318    5.0705 C   0  0  0  0  0  0  0  0  0  0  0  0
    8.7404   -8.1126    4.1399 C   0  0  0  0  0  0  0  0  0  0  0  0
    8.8158   -6.7620    3.7848 C   0  0  0  0  0  0  0  0  0  0  0  0
    7.9609   -5.8284    4.3715 C   0  0  0  0  0  0  0  0  0  0  0  0
    7.0233   -6.2349    5.3344 C   0  0  0  0  0  0  0  0  0  0  0  0
    1.9797   -2.8219    4.2178 C   0  0  0  0  0  0  0  0  0  0  0  0
    0.9744   -2.3870    3.3621 C   0  0  0  0  0  0  0  0  0  0  0  0
   -0.6927   -2.5106    3.8585 Cl  0  0  0  0  0  0  0  0  0  0  0  0
   -0.4720   -0.6499   -0.3864 H   0  0  0  0  0  0  0  0  0  0  0  0
    1.0191   -1.6190   -0.6121 H   0  0  0  0  0  0  0  0  0  0  0  0
    1.1131    0.0215    0.1148 H   0  0  0  0  0  0  0  0  0  0  0  0
    2.9113   -1.3530    0.7604 H   0  0  0  0  0  0  0  0  0  0  0  0
    4.6934   -2.1256    2.2817 H   0  0  0  0  0  0  0  0  0  0  0  0
    3.9343   -3.5578    5.6484 H   0  0  0  0  0  0  0  0  0  0  0  0
    5.9782   -3.4145    6.7619 H   0  0  0  0  0  0  0  0  0  0  0  0
    7.4262   -3.6668    5.7442 H   0  0  0  0  0  0  0  0  0  0  0  0
    7.7084   -9.5869    5.3441 H   0  0  0  0  0  0  0  0  0  0  0  0
    9.4097   -8.8439    3.6817 H   0  0  0  0  0  0  0  0  0  0  0  0
    9.5368   -6.4283    3.0358 H   0  0  0  0  0  0  0  0  0  0  0  0
    7.9924   -4.7878    4.0480 H   0  0  0  0  0  0  0  0  0  0  0  0
    1.7000   -3.2372    5.1883 H   0  0  0  0  0  0  0  0  0  0  0  0
  1  2  1  0
  1 27  1  0
  1 28  1  0
  1 29  1  0
  2  3  1  0
  3  4  2  0
  3 25  1  0
  4  5  1  0
  4 30  1  0
  5  6  2  0
  5 31  1  0
  6  7  1  0
  6 24  1  0
  7  8  1  0
  7 32  1  0
  8  9  2  0
  8 10  1  0
 10 11  1  0
 10 33  1  0
 10 34  1  0
 11 12  1  0
 11 23  1  0
 12 13  2  0
 12 14  1  0
 14 15  2  0
 14 16  1  0
 16 17  1  0
 16 18  1  0
 18 19  1  0
 18 23  2  0
 19 20  2  0
 19 35  1  0
 20 21  1  0
 20 36  1  0
 21 22  2  0
 21 37  1  0
 22 23  1  0
 22 38  1  0
 24 25  2  0
 24 39  1  0
 25 26  1  0
M  END

