
     RDKit          3D

 23 24  0  0  0  0  0  0  0  0999 V2000
    1.5587    0.0671    1.5561 N   0  0  0  0  0  0  0  0  0  0  0  0
    2.6906   -0.0362    0.8591 C   0  0  0  0  0  0  0  0  0  0  0  0
    3.6368    0.8824    0.6930 N   0  0  0  0  0  0  0  0  0  0  0  0
    4.3977   -0.0285   -0.0892 C   0  0  0  0  0  0  0  0  0  0  0  0
    5.8339    0.0752   -0.8311 S   0  0  0  0  0  0  0  0  0  0  0  0
    3.3449   -1.0957    0.0523 C   0  0  0  0  0  0  0  0  0  0  0  0
    3.2102   -2.3629   -0.3653 C   0  0  0  0  0  0  0  0  0  0  0  0
    2.0201   -3.2075   -0.1752 C   0  0  0  0  0  0  0  0  0  0  0  0
    0.7401   -2.6343   -0.3110 C   0  0  0  0  0  0  0  0  0  0  0  0
   -0.4193   -3.3900   -0.1750 C   0  0  0  0  0  0  0  0  0  0  0  0
   -1.5960   -2.7879   -0.3070 F   0  0  0  0  0  0  0  0  0  0  0  0
   -0.3608   -4.7673    0.0780 C   0  0  0  0  0  0  0  0  0  0  0  0
   -1.9517   -5.7715    0.2439 Br  0  0  0  0  0  0  0  0  0  0  0  0
    0.8902   -5.3663    0.1936 C   0  0  0  0  0  0  0  0  0  0  0  0
    2.0520   -4.6000    0.0757 C   0  0  0  0  0  0  0  0  0  0  0  0
    3.3268   -5.3284    0.2663 N   0  0  0  0  0  0  0  0  0  0  0  0
    4.3293   -4.6716    0.4948 O   0  0  0  0  0  0  0  0  0  0  0  0
    3.2917   -6.5452    0.1959 O   0  0  0  0  0  0  0  0  0  0  0  0
    1.3822    0.9192    2.0783 H   0  0  0  0  0  0  0  0  0  0  0  0
    0.9547   -0.7304    1.7020 H   0  0  0  0  0  0  0  0  0  0  0  0
    4.0701   -2.7796   -0.8954 H   0  0  0  0  0  0  0  0  0  0  0  0
    0.6344   -1.5812   -0.5760 H   0  0  0  0  0  0  0  0  0  0  0  0
    0.9856   -6.4347    0.3817 H   0  0  0  0  0  0  0  0  0  0  0  0
  1  2  1  0
  1 19  1  0
  1 20  1  0
  2  3  2  0
  2  6  1  0
  3  4  1  0
  4  5  2  0
  4  6  1  0
  6  7  2  0
  7  8  1  0
  7 21  1  0
  8  9  2  0
  8 15  1  0
  9 10  1  0
  9 22  1  0
 10 11  1  0
 10 12  2  0
 12 13  1  0
 12 14  1  0
 14 15  2  0
 14 23  1  0
 15 16  1  0
 16 17  2  0
 16 18  1  0
M  CHG  2  16   1  18  -1
M  END

