
     RDKit          3D

 40 41  0  0  0  0  0  0  0  0999 V2000
    3.2907   -2.7737    0.0095 C   0  0  0  0  0  0  0  0  0  0  0  0
    3.8635   -1.5150   -0.6405 C   0  0  0  0  0  0  0  0  0  0  0  0
    2.8457   -0.5655   -1.1143 N   0  0  0  0  0  0  0  0  0  0  0  0
    2.2080   -0.8374   -2.3940 C   0  0  0  0  0  0  0  0  0  0  0  0
    0.7395   -1.3073   -2.4024 C   0  0  0  0  0  0  0  0  0  0  0  0
    0.1744   -1.4577   -3.4717 O   0  0  0  0  0  0  0  0  0  0  0  0
    0.1937   -1.5311   -1.1722 N   0  0  0  0  0  0  0  0  0  0  0  0
   -1.1086   -1.9664   -0.8409 C   0  0  0  0  0  0  0  0  0  0  0  0
   -2.0840   -2.2868   -1.8056 C   0  0  0  0  0  0  0  0  0  0  0  0
   -3.3454   -2.7108   -1.4017 C   0  0  0  0  0  0  0  0  0  0  0  0
   -3.6753   -2.8294   -0.0412 C   0  0  0  0  0  0  0  0  0  0  0  0
   -4.9357   -3.2526    0.2407 O   0  0  0  0  0  0  0  0  0  0  0  0
   -5.3295   -3.3904    1.5855 C   0  0  0  0  0  0  0  0  0  0  0  0
   -2.7064   -2.5109    0.9212 C   0  0  0  0  0  0  0  0  0  0  0  0
   -1.4386   -2.0841    0.5159 C   0  0  0  0  0  0  0  0  0  0  0  0
    2.7220    0.6431   -0.4414 C   0  0  0  0  0  0  0  0  0  0  0  0
    3.3766    0.8835    0.5636 O   0  0  0  0  0  0  0  0  0  0  0  0
    1.7406    1.6487   -0.9720 C   0  0  1  0  0  0  0  0  0  0  0  0
    1.1088    2.5812    0.0477 C   0  0  0  0  0  0  0  0  0  0  0  0
    2.1512    3.1112   -0.8763 C   0  0  0  0  0  0  0  0  0  0  0  0
    4.1081   -3.4459    0.3156 H   0  0  0  0  0  0  0  0  0  0  0  0
    2.6359   -3.3367   -0.6750 H   0  0  0  0  0  0  0  0  0  0  0  0
    2.7118   -2.5219    0.9127 H   0  0  0  0  0  0  0  0  0  0  0  0
    4.5034   -1.7896   -1.4973 H   0  0  0  0  0  0  0  0  0  0  0  0
    4.4856   -0.9705    0.0809 H   0  0  0  0  0  0  0  0  0  0  0  0
    2.7751   -1.6313   -2.9040 H   0  0  0  0  0  0  0  0  0  0  0  0
    2.2521    0.0305   -3.0696 H   0  0  0  0  0  0  0  0  0  0  0  0
    0.8102   -1.3433   -0.3885 H   0  0  0  0  0  0  0  0  0  0  0  0
   -1.8377   -2.1967   -2.8613 H   0  0  0  0  0  0  0  0  0  0  0  0
   -4.1089   -2.9614   -2.1412 H   0  0  0  0  0  0  0  0  0  0  0  0
   -6.3714   -3.7382    1.5743 H   0  0  0  0  0  0  0  0  0  0  0  0
   -5.2806   -2.4301    2.1311 H   0  0  0  0  0  0  0  0  0  0  0  0
   -4.7120   -4.1335    2.1231 H   0  0  0  0  0  0  0  0  0  0  0  0
   -2.9207   -2.5883    1.9872 H   0  0  0  0  0  0  0  0  0  0  0  0
   -0.6939   -1.8370    1.2786 H   0  0  0  0  0  0  0  0  0  0  0  0
    1.1178    1.3748   -1.8231 H   0  0  0  0  0  0  0  0  0  0  0  0
    1.4019    2.4147    1.0871 H   0  0  0  0  0  0  0  0  0  0  0  0
    0.0638    2.8580   -0.1151 H   0  0  0  0  0  0  0  0  0  0  0  0
    3.1423    3.3019   -0.4575 H   0  0  0  0  0  0  0  0  0  0  0  0
    1.8515    3.7662   -1.6989 H   0  0  0  0  0  0  0  0  0  0  0  0
  1  2  1  0
  1 21  1  0
  1 22  1  0
  1 23  1  0
  2  3  1  0
  2 24  1  0
  2 25  1  0
  3  4  1  0
  3 16  1  0
  4  5  1  0
  4 26  1  0
  4 27  1  0
  5  6  2  0
  5  7  1  0
  7  8  1  0
  7 28  1  0
  8  9  2  0
  8 15  1  0
  9 10  1  0
  9 29  1  0
 10 11  2  0
 10 30  1  0
 11 12  1  0
 11 14  1  0
 12 13  1  0
 13 31  1  0
 13 32  1  0
 13 33  1  0
 14 15  2  0
 14 34  1  0
 15 35  1  0
 16 17  2  0
 16 18  1  0
 18 19  1  0
 18 20  1  0
 18 36  1  6
 19 20  1  0
 19 37  1  0
 19 38  1  0
 20 39  1  0
 20 40  1  0
M  END

