
     RDKit          3D

 35 35  0  0  0  0  0  0  0  0999 V2000
    4.1286   -0.3890    1.0597 C   0  0  0  0  0  0  0  0  0  0  0  0
    2.9620   -0.3028    0.0731 C   0  0  0  0  0  0  0  0  0  0  0  0
    3.0960   -1.2044   -1.0658 N   0  0  0  0  0  0  0  0  0  0  0  0
    3.7918   -0.9040   -2.2378 C   0  0  0  0  0  0  0  0  0  0  0  0
    4.3570    0.4511   -2.5204 C   0  0  0  0  0  0  0  0  0  0  0  0
    3.7995   -2.0383   -3.0136 C   0  0  0  0  0  0  0  0  0  0  0  0
    3.0801   -3.0646   -2.3106 C   0  0  0  0  0  0  0  0  0  0  0  0
    2.8636   -4.4545   -2.7275 C   0  0  0  0  0  0  0  0  0  0  0  0
    2.1004   -5.2294   -2.1622 O   0  0  0  0  0  0  0  0  0  0  0  0
    3.7005   -4.9939   -3.8850 C   0  0  0  0  0  0  0  0  0  0  0  0
    5.4319   -5.3660   -3.3767 S   0  0  0  0  0  0  0  0  0  0  0  0
    5.1813   -6.5107   -1.9494 C   0  0  0  0  0  0  0  0  0  0  0  0
    5.7485   -5.9153   -0.6581 C   0  0  0  0  0  0  0  0  0  0  0  0
    5.1568   -4.6910   -0.3038 O   0  0  0  0  0  0  0  0  0  0  0  0
    2.6582   -2.5047   -1.0960 C   0  0  0  0  0  0  0  0  0  0  0  0
    1.9305   -3.1408    0.0431 C   0  0  0  0  0  0  0  0  0  0  0  0
    3.9614    0.2955    1.9065 H   0  0  0  0  0  0  0  0  0  0  0  0
    5.0800   -0.1118    0.5801 H   0  0  0  0  0  0  0  0  0  0  0  0
    4.2387   -1.4091    1.4576 H   0  0  0  0  0  0  0  0  0  0  0  0
    2.8619    0.7228   -0.3127 H   0  0  0  0  0  0  0  0  0  0  0  0
    2.0162   -0.5363    0.5828 H   0  0  0  0  0  0  0  0  0  0  0  0
    5.0971    0.7726   -1.7676 H   0  0  0  0  0  0  0  0  0  0  0  0
    3.5774    1.2321   -2.5660 H   0  0  0  0  0  0  0  0  0  0  0  0
    4.8645    0.4382   -3.4951 H   0  0  0  0  0  0  0  0  0  0  0  0
    4.2628   -2.1146   -3.9948 H   0  0  0  0  0  0  0  0  0  0  0  0
    3.8082   -4.2715   -4.7069 H   0  0  0  0  0  0  0  0  0  0  0  0
    3.2182   -5.9053   -4.2646 H   0  0  0  0  0  0  0  0  0  0  0  0
    5.6774   -7.4653   -2.1859 H   0  0  0  0  0  0  0  0  0  0  0  0
    4.1009   -6.6908   -1.8483 H   0  0  0  0  0  0  0  0  0  0  0  0
    6.8519   -5.8262   -0.7503 H   0  0  0  0  0  0  0  0  0  0  0  0
    5.5552   -6.6205    0.1688 H   0  0  0  0  0  0  0  0  0  0  0  0
    5.2159   -4.1119   -1.0819 H   0  0  0  0  0  0  0  0  0  0  0  0
    1.5920   -4.1340   -0.2701 H   0  0  0  0  0  0  0  0  0  0  0  0
    1.0516   -2.5504    0.3530 H   0  0  0  0  0  0  0  0  0  0  0  0
    2.5863   -3.2635    0.9216 H   0  0  0  0  0  0  0  0  0  0  0  0
  1  2  1  0
  1 17  1  0
  1 18  1  0
  1 19  1  0
  2  3  1  0
  2 20  1  0
  2 21  1  0
  3  4  1  0
  3 15  1  0
  4  5  1  0
  4  6  2  0
  5 22  1  0
  5 23  1  0
  5 24  1  0
  6  7  1  0
  6 25  1  0
  7  8  1  0
  7 15  2  0
  8  9  2  0
  8 10  1  0
 10 11  1  0
 10 26  1  0
 10 27  1  0
 11 12  1  0
 12 13  1  0
 12 28  1  0
 12 29  1  0
 13 14  1  0
 13 30  1  0
 13 31  1  0
 14 32  1  0
 15 16  1  0
 16 33  1  0
 16 34  1  0
 16 35  1  0
M  END

