
     RDKit          3D

 42 42  0  0  0  0  0  0  0  0999 V2000
    6.9133    0.2838   -1.6689 C   0  0  0  0  0  0  0  0  0  0  0  0
    6.2742    1.5411   -1.1073 C   0  0  0  0  0  0  0  0  0  0  0  0
    6.2177    1.5028    0.3378 O   0  0  0  0  0  0  0  0  0  0  0  0
    5.1738    0.8901    0.8986 C   0  0  0  0  0  0  0  0  0  0  0  0
    4.2430    0.3941    0.3296 O   0  0  0  0  0  0  0  0  0  0  0  0
    5.3197    0.9433    2.4385 C   0  0  1  0  0  0  0  0  0  0  0  0
    5.3056    2.2453    2.8196 F   0  0  0  0  0  0  0  0  0  0  0  0
    4.2438    0.3381    2.9941 F   0  0  0  0  0  0  0  0  0  0  0  0
    6.5948    0.1650    2.8976 C   0  0  0  0  0  0  0  0  0  0  0  0
    6.8966   -0.7935    2.2272 O   0  0  0  0  0  0  0  0  0  0  0  0
    7.3381    0.5994    4.1790 C   0  0  1  0  0  0  0  0  0  0  0  0
    6.3609    0.9362    5.1562 O   0  0  0  0  0  0  0  0  0  0  0  0
    5.6036   -0.1120    5.7526 C   0  0  0  0  0  0  0  0  0  0  0  0
    4.4301    0.5192    6.4785 C   0  0  0  0  0  0  0  0  0  0  0  0
    8.3042   -0.5042    4.6591 C   0  0  0  0  0  0  0  0  0  0  0  0
    9.5680   -0.6557    3.7988 C   0  0  0  0  0  0  0  0  0  0  0  0
   10.2908    0.6765    3.5829 C   0  0  0  0  0  0  0  0  0  0  0  0
    9.3512    1.7505    3.0141 C   0  0  2  0  0  0  0  0  0  0  0  0
   10.0602    3.0936    2.8183 C   0  0  0  0  0  0  0  0  0  0  0  0
    8.1238    1.9079    3.9239 C   0  0  0  0  0  0  0  0  0  0  0  0
    7.0019    0.3714   -2.7636 H   0  0  0  0  0  0  0  0  0  0  0  0
    6.3016   -0.6021   -1.4438 H   0  0  0  0  0  0  0  0  0  0  0  0
    7.9200    0.1313   -1.2511 H   0  0  0  0  0  0  0  0  0  0  0  0
    5.2536    1.6781   -1.4931 H   0  0  0  0  0  0  0  0  0  0  0  0
    6.8691    2.4365   -1.3353 H   0  0  0  0  0  0  0  0  0  0  0  0
    6.2309   -0.6854    6.4603 H   0  0  0  0  0  0  0  0  0  0  0  0
    5.2380   -0.8218    4.9872 H   0  0  0  0  0  0  0  0  0  0  0  0
    4.7854    1.2471    7.2243 H   0  0  0  0  0  0  0  0  0  0  0  0
    3.8388   -0.2517    6.9971 H   0  0  0  0  0  0  0  0  0  0  0  0
    3.7767    1.0443    5.7661 H   0  0  0  0  0  0  0  0  0  0  0  0
    7.7790   -1.4696    4.7162 H   0  0  0  0  0  0  0  0  0  0  0  0
    8.5888   -0.2263    5.6888 H   0  0  0  0  0  0  0  0  0  0  0  0
    9.2913   -1.0884    2.8253 H   0  0  0  0  0  0  0  0  0  0  0  0
   10.2430   -1.3806    4.2837 H   0  0  0  0  0  0  0  0  0  0  0  0
   11.1540    0.5343    2.9106 H   0  0  0  0  0  0  0  0  0  0  0  0
   10.7015    1.0406    4.5440 H   0  0  0  0  0  0  0  0  0  0  0  0
    9.0033    1.4069    2.0213 H   0  0  0  0  0  0  0  0  0  0  0  0
   10.4247    3.4924    3.7805 H   0  0  0  0  0  0  0  0  0  0  0  0
    9.3840    3.8460    2.3812 H   0  0  0  0  0  0  0  0  0  0  0  0
   10.9298    2.9917    2.1491 H   0  0  0  0  0  0  0  0  0  0  0  0
    7.4397    2.6741    3.5355 H   0  0  0  0  0  0  0  0  0  0  0  0
    8.4429    2.2523    4.9233 H   0  0  0  0  0  0  0  0  0  0  0  0
  1  2  1  0
  1 21  1  0
  1 22  1  0
  1 23  1  0
  2  3  1  0
  2 24  1  0
  2 25  1  0
  3  4  1  0
  4  5  2  0
  4  6  1  0
  6  7  1  1
  6  8  1  0
  6  9  1  0
  9 10  2  0
  9 11  1  0
 11 12  1  1
 11 15  1  0
 11 20  1  0
 12 13  1  0
 13 14  1  0
 13 26  1  0
 13 27  1  0
 14 28  1  0
 14 29  1  0
 14 30  1  0
 15 16  1  0
 15 31  1  0
 15 32  1  0
 16 17  1  0
 16 33  1  0
 16 34  1  0
 17 18  1  0
 17 35  1  0
 17 36  1  0
 18 19  1  0
 18 20  1  0
 18 37  1  6
 19 38  1  0
 19 39  1  0
 19 40  1  0
 20 41  1  0
 20 42  1  0
M  END

