
     RDKit          3D

 32 33  0  0  0  0  0  0  0  0999 V2000
    0.2449   -0.1910    0.5617 C   0  0  0  0  0  0  0  0  0  0  0  0
    1.6353    0.1226   -0.0099 C   0  0  1  0  0  0  0  0  0  0  0  0
    1.9972    1.4790    0.3605 N   0  0  0  0  0  0  0  0  0  0  0  0
    2.9408    2.2440   -0.2481 C   0  0  0  0  0  0  0  0  0  0  0  0
    3.6812    1.7594   -1.3640 C   0  0  0  0  0  0  0  0  0  0  0  0
    4.6271    2.5331   -2.0127 C   0  0  0  0  0  0  0  0  0  0  0  0
    4.8982    3.8430   -1.5791 C   0  0  0  0  0  0  0  0  0  0  0  0
    6.0958    4.8061   -2.4106 Cl  0  0  0  0  0  0  0  0  0  0  0  0
    4.2168    4.3567   -0.4910 C   0  0  0  0  0  0  0  0  0  0  0  0
    3.2558    3.5757    0.1739 C   0  0  0  0  0  0  0  0  0  0  0  0
    2.6044    4.2004    1.3178 N   0  0  0  0  0  0  0  0  0  0  0  0
    1.7701    3.5452    1.9562 O   0  0  0  0  0  0  0  0  0  0  0  0
    2.9085    5.3444    1.6122 O   0  0  0  0  0  0  0  0  0  0  0  0
    2.6638   -0.9169    0.4498 C   0  0  0  0  0  0  0  0  0  0  0  0
    3.3845   -0.7125    1.6379 C   0  0  0  0  0  0  0  0  0  0  0  0
    4.2956   -1.6541    2.1169 C   0  0  0  0  0  0  0  0  0  0  0  0
    4.5115   -2.8368    1.4050 C   0  0  0  0  0  0  0  0  0  0  0  0
    3.8127   -3.0693    0.2193 C   0  0  0  0  0  0  0  0  0  0  0  0
    2.9001   -2.1157   -0.2431 C   0  0  0  0  0  0  0  0  0  0  0  0
    1.9773   -2.5082   -1.8822 Br  0  0  0  0  0  0  0  0  0  0  0  0
   -0.4977    0.5284    0.1832 H   0  0  0  0  0  0  0  0  0  0  0  0
    0.2553   -0.1416    1.6624 H   0  0  0  0  0  0  0  0  0  0  0  0
   -0.0684   -1.2029    0.2696 H   0  0  0  0  0  0  0  0  0  0  0  0
    1.5629    0.0627   -1.1073 H   0  0  0  0  0  0  0  0  0  0  0  0
    1.5380    1.9267    1.1512 H   0  0  0  0  0  0  0  0  0  0  0  0
    3.5049    0.7445   -1.7178 H   0  0  0  0  0  0  0  0  0  0  0  0
    5.1721    2.1246   -2.8657 H   0  0  0  0  0  0  0  0  0  0  0  0
    4.4050    5.3635   -0.1234 H   0  0  0  0  0  0  0  0  0  0  0  0
    3.2251    0.2186    2.1870 H   0  0  0  0  0  0  0  0  0  0  0  0
    4.8393   -1.4615    3.0447 H   0  0  0  0  0  0  0  0  0  0  0  0
    5.2255   -3.5810    1.7661 H   0  0  0  0  0  0  0  0  0  0  0  0
    3.9727   -3.9858   -0.3508 H   0  0  0  0  0  0  0  0  0  0  0  0
  1  2  1  0
  1 21  1  0
  1 22  1  0
  1 23  1  0
  2  3  1  0
  2 14  1  0
  2 24  1  6
  3  4  1  0
  3 25  1  0
  4  5  2  0
  4 10  1  0
  5  6  1  0
  5 26  1  0
  6  7  2  0
  6 27  1  0
  7  8  1  0
  7  9  1  0
  9 10  2  0
  9 28  1  0
 10 11  1  0
 11 12  2  0
 11 13  1  0
 14 15  2  0
 14 19  1  0
 15 16  1  0
 15 29  1  0
 16 17  2  0
 16 30  1  0
 17 18  1  0
 17 31  1  0
 18 19  2  0
 18 32  1  0
 19 20  1  0
M  CHG  2  11   1  13  -1
M  END

