
     RDKit          3D

 30 31  0  0  0  0  0  0  0  0999 V2000
    5.1522   -0.1704   -0.2132 O   0  0  0  0  0  0  0  0  0  0  0  0
    3.9537   -0.0077   -0.1233 C   0  0  0  0  0  0  0  0  0  0  0  0
    3.3526    1.3986   -0.0643 C   0  0  0  0  0  0  0  0  0  0  0  0
    3.1739    2.0968   -1.4343 C   0  0  0  0  0  0  0  0  0  0  0  0
    2.4392    1.3147   -2.5319 C   0  0  1  0  0  0  0  0  0  0  0  0
    3.2165    0.0895   -3.1184 C   0  0  2  0  0  0  0  0  0  0  0  0
    3.3492    0.1206   -4.6267 C   0  0  0  0  0  0  0  0  0  0  0  0
    4.1039   -1.5600   -5.3470 Br  0  0  0  0  0  0  0  0  0  0  0  0
    2.1410   -0.8735   -2.5363 C   0  0  1  0  0  0  0  0  0  0  0  0
    2.6304   -1.8244   -1.4346 C   0  0  0  0  0  0  0  0  0  0  0  0
    2.9979   -1.2022   -0.0652 C   0  0  0  0  0  0  0  0  0  0  0  0
    1.2751    0.3638   -2.1107 C   0  0  2  0  0  0  0  0  0  0  0  0
   -0.0197    0.5014   -2.8839 C   0  0  0  0  0  0  0  0  0  0  0  0
   -0.9530    2.1968   -2.4717 Br  0  0  0  0  0  0  0  0  0  0  0  0
    4.0423    2.0108    0.5373 H   0  0  0  0  0  0  0  0  0  0  0  0
    2.3867    1.3703    0.4628 H   0  0  0  0  0  0  0  0  0  0  0  0
    4.1700    2.3698   -1.8233 H   0  0  0  0  0  0  0  0  0  0  0  0
    2.6420    3.0446   -1.2481 H   0  0  0  0  0  0  0  0  0  0  0  0
    2.1277    2.0317   -3.3095 H   0  0  0  0  0  0  0  0  0  0  0  0
    4.2164   -0.0494   -2.6822 H   0  0  0  0  0  0  0  0  0  0  0  0
    4.0301    0.9153   -4.9593 H   0  0  0  0  0  0  0  0  0  0  0  0
    2.3833    0.2431   -5.1349 H   0  0  0  0  0  0  0  0  0  0  0  0
    1.6641   -1.4818   -3.3226 H   0  0  0  0  0  0  0  0  0  0  0  0
    3.5096   -2.3596   -1.8306 H   0  0  0  0  0  0  0  0  0  0  0  0
    1.8622   -2.5933   -1.2451 H   0  0  0  0  0  0  0  0  0  0  0  0
    3.5015   -1.9790    0.5311 H   0  0  0  0  0  0  0  0  0  0  0  0
    2.0796   -0.9149    0.4701 H   0  0  0  0  0  0  0  0  0  0  0  0
    1.0380    0.3948   -1.0382 H   0  0  0  0  0  0  0  0  0  0  0  0
   -0.7326   -0.2956   -2.6335 H   0  0  0  0  0  0  0  0  0  0  0  0
    0.1333    0.5136   -3.9711 H   0  0  0  0  0  0  0  0  0  0  0  0
  1  2  2  0
  2  3  1  0
  2 11  1  0
  3  4  1  0
  3 15  1  0
  3 16  1  0
  4  5  1  0
  4 17  1  0
  4 18  1  0
  5  6  1  0
  5 12  1  0
  5 19  1  6
  6  7  1  0
  6  9  1  0
  6 20  1  1
  7  8  1  0
  7 21  1  0
  7 22  1  0
  9 10  1  0
  9 12  1  0
  9 23  1  6
 10 11  1  0
 10 24  1  0
 10 25  1  0
 11 26  1  0
 11 27  1  0
 12 13  1  0
 12 28  1  1
 13 14  1  0
 13 29  1  0
 13 30  1  0
M  END

