
     RDKit          3D

 28 30  0  0  0  0  0  0  0  0999 V2000
    1.3093    1.2799   -0.5674 N   0  0  0  0  0  0  0  0  0  0  0  0
    2.4092    0.9403   -0.4163 C   0  0  0  0  0  0  0  0  0  0  0  0
    3.7710    0.5280   -0.2334 C   0  0  0  0  0  0  0  0  0  0  0  0
    4.7777    1.4950   -0.0814 C   0  0  0  0  0  0  0  0  0  0  0  0
    6.1245    1.1228    0.0793 C   0  0  0  0  0  0  0  0  0  0  0  0
    7.1071    2.0754    0.2748 N   0  0  0  0  0  0  0  0  0  0  0  0
    6.4342   -0.2540    0.0784 C   0  0  0  0  0  0  0  0  0  0  0  0
    5.4370   -1.2153   -0.0661 C   0  0  0  0  0  0  0  0  0  0  0  0
    4.1040   -0.8400   -0.2183 C   0  0  0  0  0  0  0  0  0  0  0  0
    3.1548   -1.8171   -0.4510 O   0  0  0  0  0  0  0  0  0  0  0  0
    2.2140   -2.1281    0.4770 C   0  0  0  0  0  0  0  0  0  0  0  0
    1.2229   -3.0105    0.1276 C   0  0  0  0  0  0  0  0  0  0  0  0
    0.2610   -3.3251    1.1326 C   0  0  0  0  0  0  0  0  0  0  0  0
   -0.7843   -4.1062    1.1410 N   0  0  0  0  0  0  0  0  0  0  0  0
   -1.2955   -3.9688    2.4160 N   0  0  0  0  0  0  0  0  0  0  0  0
   -2.1296   -4.4766    2.6829 H   0  0  0  0  0  0  0  0  0  0  0  0
   -0.6139   -3.1186    3.2461 C   0  0  0  0  0  0  0  0  0  0  0  0
   -0.7964   -2.7895    4.3964 O   0  0  0  0  0  0  0  0  0  0  0  0
    0.4330   -2.6891    2.3753 N   0  0  0  0  0  0  0  0  0  0  0  0
    1.4597   -1.8250    2.6137 C   0  0  0  0  0  0  0  0  0  0  0  0
    2.3388   -1.5412    1.7107 N   0  0  0  0  0  0  0  0  0  0  0  0
    4.4987    2.5507   -0.0904 H   0  0  0  0  0  0  0  0  0  0  0  0
    6.8983    3.0264   -0.0033 H   0  0  0  0  0  0  0  0  0  0  0  0
    8.0653    1.7983    0.1007 H   0  0  0  0  0  0  0  0  0  0  0  0
    7.4735   -0.5714    0.1985 H   0  0  0  0  0  0  0  0  0  0  0  0
    5.6847   -2.2783   -0.0676 H   0  0  0  0  0  0  0  0  0  0  0  0
    1.1616   -3.4461   -0.8680 H   0  0  0  0  0  0  0  0  0  0  0  0
    1.4967   -1.3882    3.6177 H   0  0  0  0  0  0  0  0  0  0  0  0
  1  2  3  0
  2  3  1  0
  3  4  2  0
  3  9  1  0
  4  5  1  0
  4 22  1  0
  5  6  1  0
  5  7  2  0
  6 23  1  0
  6 24  1  0
  7  8  1  0
  7 25  1  0
  8  9  2  0
  8 26  1  0
  9 10  1  0
 10 11  1  0
 11 12  2  0
 11 21  1  0
 12 13  1  0
 12 27  1  0
 13 14  2  0
 13 19  1  0
 14 15  1  0
 15 16  1  0
 15 17  1  0
 17 18  2  0
 17 19  1  0
 19 20  1  0
 20 21  2  0
 20 28  1  0
M  END

