
     RDKit          3D

 55 57  0  0  0  0  0  0  0  0999 V2000
   -3.8953   -4.0958   -5.5962 C   0  0  0  0  0  0  0  0  0  0  0  0
   -3.0693   -4.2132   -4.4594 O   0  0  0  0  0  0  0  0  0  0  0  0
   -3.0987   -5.3629   -3.7235 C   0  0  0  0  0  0  0  0  0  0  0  0
   -3.9102   -6.4650   -3.9982 C   0  0  0  0  0  0  0  0  0  0  0  0
   -3.8591   -7.5948   -3.1694 C   0  0  0  0  0  0  0  0  0  0  0  0
   -2.9995   -7.6188   -2.0735 C   0  0  0  0  0  0  0  0  0  0  0  0
   -2.1797   -6.5196   -1.7900 C   0  0  0  0  0  0  0  0  0  0  0  0
   -2.2190   -5.3843   -2.6090 C   0  0  0  0  0  0  0  0  0  0  0  0
   -1.4361   -4.2381   -2.4106 N   0  0  0  0  0  0  0  0  0  0  0  0
   -0.5411   -3.9674   -1.4186 C   0  0  0  0  0  0  0  0  0  0  0  0
   -0.2520   -4.7069   -0.4922 O   0  0  0  0  0  0  0  0  0  0  0  0
    0.1844   -2.6079   -1.5908 C   0  0  1  0  0  0  0  0  0  0  0  0
    1.5529   -2.8997   -2.2192 C   0  0  0  0  0  0  0  0  0  0  0  0
   -0.6421   -1.6639   -2.3558 N   0  0  0  0  0  0  0  0  0  0  0  0
   -1.7712   -1.1271   -1.5957 C   0  0  0  0  0  0  0  0  0  0  0  0
   -1.4003    0.0468   -0.6721 C   0  0  0  0  0  0  0  0  0  0  0  0
   -0.7382    1.0952   -1.4438 N   0  0  0  0  0  0  0  0  0  0  0  0
   -0.8484    2.4186   -1.0717 C   0  0  0  0  0  0  0  0  0  0  0  0
   -1.2110    2.7681    0.2576 C   0  0  0  0  0  0  0  0  0  0  0  0
   -1.2791    4.0838    0.6883 C   0  0  0  0  0  0  0  0  0  0  0  0
   -0.9689    5.1404   -0.1825 C   0  0  0  0  0  0  0  0  0  0  0  0
   -0.9834    6.5603    0.3168 C   0  0  1  0  0  0  0  0  0  0  0  0
   -2.0631    6.7998    1.0850 F   0  0  0  0  0  0  0  0  0  0  0  0
    0.0963    6.8317    1.0768 F   0  0  0  0  0  0  0  0  0  0  0  0
   -0.9932    7.4489   -0.6894 F   0  0  0  0  0  0  0  0  0  0  0  0
   -0.6328    4.8441   -1.4975 C   0  0  0  0  0  0  0  0  0  0  0  0
   -0.6042    3.5200   -1.9460 C   0  0  0  0  0  0  0  0  0  0  0  0
   -0.4401    3.3661   -3.4029 N   0  0  0  0  0  0  0  0  0  0  0  0
   -0.9855    2.4174   -3.9492 O   0  0  0  0  0  0  0  0  0  0  0  0
    0.1948    4.2270   -3.9926 O   0  0  0  0  0  0  0  0  0  0  0  0
    0.4127    0.5951   -2.2036 C   0  0  0  0  0  0  0  0  0  0  0  0
    0.0011   -0.5791   -3.0973 C   0  0  0  0  0  0  0  0  0  0  0  0
   -3.7014   -3.1034   -6.0246 H   0  0  0  0  0  0  0  0  0  0  0  0
   -4.9657   -4.1705   -5.3331 H   0  0  0  0  0  0  0  0  0  0  0  0
   -3.6607   -4.8657   -6.3528 H   0  0  0  0  0  0  0  0  0  0  0  0
   -4.5857   -6.4528   -4.8538 H   0  0  0  0  0  0  0  0  0  0  0  0
   -4.4987   -8.4523   -3.3919 H   0  0  0  0  0  0  0  0  0  0  0  0
   -2.9579   -8.4977   -1.4258 H   0  0  0  0  0  0  0  0  0  0  0  0
   -1.5029   -6.5202   -0.9381 H   0  0  0  0  0  0  0  0  0  0  0  0
   -1.5575   -3.4821   -3.0846 H   0  0  0  0  0  0  0  0  0  0  0  0
    0.3645   -2.2708   -0.5509 H   0  0  0  0  0  0  0  0  0  0  0  0
    1.4499   -3.2322   -3.2643 H   0  0  0  0  0  0  0  0  0  0  0  0
    2.0325   -3.7060   -1.6469 H   0  0  0  0  0  0  0  0  0  0  0  0
    2.2202   -2.0256   -2.1908 H   0  0  0  0  0  0  0  0  0  0  0  0
   -2.2313   -1.9276   -0.9969 H   0  0  0  0  0  0  0  0  0  0  0  0
   -2.5333   -0.7720   -2.3103 H   0  0  0  0  0  0  0  0  0  0  0  0
   -0.7599   -0.3048    0.1635 H   0  0  0  0  0  0  0  0  0  0  0  0
   -2.3251    0.4457   -0.2329 H   0  0  0  0  0  0  0  0  0  0  0  0
   -1.4039    1.9745    0.9780 H   0  0  0  0  0  0  0  0  0  0  0  0
   -1.5538    4.2948    1.7242 H   0  0  0  0  0  0  0  0  0  0  0  0
   -0.4192    5.6341   -2.2160 H   0  0  0  0  0  0  0  0  0  0  0  0
    1.1936    0.2673   -1.4855 H   0  0  0  0  0  0  0  0  0  0  0  0
    0.8568    1.3895   -2.8109 H   0  0  0  0  0  0  0  0  0  0  0  0
    0.8728   -0.9537   -3.6484 H   0  0  0  0  0  0  0  0  0  0  0  0
   -0.7172   -0.2010   -3.8420 H   0  0  0  0  0  0  0  0  0  0  0  0
  1  2  1  0
  1 33  1  0
  1 34  1  0
  1 35  1  0
  2  3  1  0
  3  4  2  0
  3  8  1  0
  4  5  1  0
  4 36  1  0
  5  6  2  0
  5 37  1  0
  6  7  1  0
  6 38  1  0
  7  8  2  0
  7 39  1  0
  8  9  1  0
  9 10  1  0
  9 40  1  0
 10 11  2  0
 10 12  1  0
 12 13  1  0
 12 14  1  0
 12 41  1  1
 13 42  1  0
 13 43  1  0
 13 44  1  0
 14 15  1  0
 14 32  1  0
 15 16  1  0
 15 45  1  0
 15 46  1  0
 16 17  1  0
 16 47  1  0
 16 48  1  0
 17 18  1  0
 17 31  1  0
 18 19  2  0
 18 27  1  0
 19 20  1  0
 19 49  1  0
 20 21  2  0
 20 50  1  0
 21 22  1  0
 21 26  1  0
 22 23  1  1
 22 24  1  0
 22 25  1  0
 26 27  2  0
 26 51  1  0
 27 28  1  0
 28 29  2  0
 28 30  1  0
 31 32  1  0
 31 52  1  0
 31 53  1  0
 32 54  1  0
 32 55  1  0
M  CHG  2  28   1  30  -1
M  END

