
     RDKit          3D

 35 37  0  0  0  0  0  0  0  0999 V2000
   -1.0254    0.5750   -0.2444 C   0  0  0  0  0  0  0  0  0  0  0  0
   -1.3332   -0.6983    0.0577 C   0  0  0  0  0  0  0  0  0  0  0  0
   -2.7584   -1.1920    0.1170 C   0  0  0  0  0  0  0  0  0  0  0  0
   -3.0948   -2.2364   -0.9692 C   0  0  0  0  0  0  0  0  0  0  0  0
   -4.4596   -2.7236   -0.9134 N   0  0  0  0  0  0  0  0  0  0  0  0
   -4.8639   -3.7344   -0.0801 C   0  0  0  0  0  0  0  0  0  0  0  0
   -3.9378   -4.3904    0.6227 N   0  0  0  0  0  0  0  0  0  0  0  0
   -4.2960   -5.4088    1.4249 C   0  0  0  0  0  0  0  0  0  0  0  0
   -5.5984   -5.8615    1.6121 C   0  0  0  0  0  0  0  0  0  0  0  0
   -6.5604   -5.1626    0.8744 C   0  0  0  0  0  0  0  0  0  0  0  0
   -7.8985   -5.3860    0.8568 O   0  0  0  0  0  0  0  0  0  0  0  0
   -8.4423   -4.4742   -0.0078 C   0  0  0  0  0  0  0  0  0  0  0  0
   -7.4926   -3.6657   -0.5511 C   0  0  0  0  0  0  0  0  0  0  0  0
   -6.2383   -4.1004    0.0189 C   0  0  0  0  0  0  0  0  0  0  0  0
   -0.2308   -1.6984    0.3555 C   0  0  0  0  0  0  0  0  0  0  0  0
    1.1018   -0.9972    0.6643 C   0  0  0  0  0  0  0  0  0  0  0  0
    1.4260    0.0674   -0.2783 N   0  0  0  0  0  0  0  0  0  0  0  0
    0.3920    1.0962   -0.3192 C   0  0  0  0  0  0  0  0  0  0  0  0
   -1.8300    1.3009   -0.4172 H   0  0  0  0  0  0  0  0  0  0  0  0
   -3.4529   -0.3398    0.0227 H   0  0  0  0  0  0  0  0  0  0  0  0
   -2.9490   -1.6637    1.0973 H   0  0  0  0  0  0  0  0  0  0  0  0
   -2.4333   -3.1071   -0.8664 H   0  0  0  0  0  0  0  0  0  0  0  0
   -2.9235   -1.7994   -1.9672 H   0  0  0  0  0  0  0  0  0  0  0  0
   -5.1837   -2.1385   -1.3081 H   0  0  0  0  0  0  0  0  0  0  0  0
   -3.4753   -5.8968    1.9633 H   0  0  0  0  0  0  0  0  0  0  0  0
   -5.8466   -6.6883    2.2771 H   0  0  0  0  0  0  0  0  0  0  0  0
   -9.5210   -4.5290   -0.1309 H   0  0  0  0  0  0  0  0  0  0  0  0
   -7.6737   -2.8678   -1.2684 H   0  0  0  0  0  0  0  0  0  0  0  0
   -0.1015   -2.3848   -0.5039 H   0  0  0  0  0  0  0  0  0  0  0  0
   -0.5340   -2.3451    1.1989 H   0  0  0  0  0  0  0  0  0  0  0  0
    1.9287   -1.7259    0.6844 H   0  0  0  0  0  0  0  0  0  0  0  0
    1.0517   -0.5512    1.6741 H   0  0  0  0  0  0  0  0  0  0  0  0
    1.5380   -0.3332   -1.2096 H   0  0  0  0  0  0  0  0  0  0  0  0
    0.5274    1.6956   -1.2367 H   0  0  0  0  0  0  0  0  0  0  0  0
    0.5554    1.8098    0.5150 H   0  0  0  0  0  0  0  0  0  0  0  0
  1  2  2  0
  1 18  1  0
  1 19  1  0
  2  3  1  0
  2 15  1  0
  3  4  1  0
  3 20  1  0
  3 21  1  0
  4  5  1  0
  4 22  1  0
  4 23  1  0
  5  6  1  0
  5 24  1  0
  6  7  2  0
  6 14  1  0
  7  8  1  0
  8  9  2  0
  8 25  1  0
  9 10  1  0
  9 26  1  0
 10 11  1  0
 10 14  2  0
 11 12  1  0
 12 13  2  0
 12 27  1  0
 13 14  1  0
 13 28  1  0
 15 16  1  0
 15 29  1  0
 15 30  1  0
 16 17  1  0
 16 31  1  0
 16 32  1  0
 17 18  1  0
 17 33  1  0
 18 34  1  0
 18 35  1  0
M  END

