
     RDKit          3D

 56 55  0  0  0  0  0  0  0  0999 V2000
    1.6251   -1.9031   -0.5428 C   0  0  0  0  0  0  0  0  0  0  0  0
    3.1130   -2.1905   -0.3365 C   0  0  0  0  0  0  0  0  0  0  0  0
    3.6500   -1.7080    1.0146 C   0  0  0  0  0  0  0  0  0  0  0  0
    5.1393   -1.9926    1.2293 C   0  0  0  0  0  0  0  0  0  0  0  0
    5.6756   -1.5109    2.5807 C   0  0  0  0  0  0  0  0  0  0  0  0
    7.1650   -1.7970    2.7939 C   0  0  0  0  0  0  0  0  0  0  0  0
    7.7004   -1.3173    4.1465 C   0  0  0  0  0  0  0  0  0  0  0  0
    9.1909   -1.6113    4.3518 C   0  0  0  0  0  0  0  0  0  0  0  0
    9.7010   -1.1354    5.7120 C   0  0  0  0  0  0  0  0  0  0  0  0
   11.4900   -1.4224    5.9788 S   0  0  0  0  0  0  0  0  0  0  0  0
   11.4494   -3.1030    6.6152 C   0  0  0  0  0  0  0  0  0  0  0  0
   10.4278   -3.7328    6.7498 O   0  0  0  0  0  0  0  0  0  0  0  0
   12.8244   -3.6324    6.9932 C   0  0  0  0  0  0  0  0  0  0  0  0
   12.9880   -5.1271    6.6995 C   0  0  0  0  0  0  0  0  0  0  0  0
   14.3188   -5.6984    7.1953 C   0  0  0  0  0  0  0  0  0  0  0  0
   14.4921   -7.1902    6.8951 C   0  0  0  0  0  0  0  0  0  0  0  0
   15.8164   -7.7740    7.3960 C   0  0  0  0  0  0  0  0  0  0  0  0
   15.9906   -9.2650    7.0933 C   0  0  0  0  0  0  0  0  0  0  0  0
   17.3145   -9.8509    7.5941 C   0  0  0  0  0  0  0  0  0  0  0  0
   17.4805  -11.3400    7.2874 C   0  0  0  0  0  0  0  0  0  0  0  0
    1.2741   -2.2632   -1.5232 H   0  0  0  0  0  0  0  0  0  0  0  0
    1.4146   -0.8214   -0.4913 H   0  0  0  0  0  0  0  0  0  0  0  0
    1.0108   -2.3937    0.2309 H   0  0  0  0  0  0  0  0  0  0  0  0
    3.6961   -1.7178   -1.1480 H   0  0  0  0  0  0  0  0  0  0  0  0
    3.2956   -3.2766   -0.4319 H   0  0  0  0  0  0  0  0  0  0  0  0
    3.0672   -2.1806    1.8276 H   0  0  0  0  0  0  0  0  0  0  0  0
    3.4683   -0.6210    1.1112 H   0  0  0  0  0  0  0  0  0  0  0  0
    5.7217   -1.5198    0.4165 H   0  0  0  0  0  0  0  0  0  0  0  0
    5.3205   -3.0794    1.1322 H   0  0  0  0  0  0  0  0  0  0  0  0
    5.0938   -1.9840    3.3935 H   0  0  0  0  0  0  0  0  0  0  0  0
    5.4951   -0.4240    2.6782 H   0  0  0  0  0  0  0  0  0  0  0  0
    7.7478   -1.3232    1.9822 H   0  0  0  0  0  0  0  0  0  0  0  0
    7.3460   -2.8835    2.6968 H   0  0  0  0  0  0  0  0  0  0  0  0
    7.1196   -1.7923    4.9585 H   0  0  0  0  0  0  0  0  0  0  0  0
    7.5223   -0.2299    4.2450 H   0  0  0  0  0  0  0  0  0  0  0  0
    9.7799   -1.1329    3.5498 H   0  0  0  0  0  0  0  0  0  0  0  0
    9.3685   -2.6963    4.2673 H   0  0  0  0  0  0  0  0  0  0  0  0
    9.1761   -1.6509    6.5301 H   0  0  0  0  0  0  0  0  0  0  0  0
    9.5591   -0.0506    5.8387 H   0  0  0  0  0  0  0  0  0  0  0  0
   12.9374   -3.4485    8.0783 H   0  0  0  0  0  0  0  0  0  0  0  0
   13.6060   -3.0342    6.4967 H   0  0  0  0  0  0  0  0  0  0  0  0
   12.8949   -5.2940    5.6115 H   0  0  0  0  0  0  0  0  0  0  0  0
   12.1461   -5.6679    7.1617 H   0  0  0  0  0  0  0  0  0  0  0  0
   14.4039   -5.5326    8.2856 H   0  0  0  0  0  0  0  0  0  0  0  0
   15.1555   -5.1351    6.7414 H   0  0  0  0  0  0  0  0  0  0  0  0
   14.4104   -7.3538    5.8044 H   0  0  0  0  0  0  0  0  0  0  0  0
   13.6516   -7.7508    7.3443 H   0  0  0  0  0  0  0  0  0  0  0  0
   15.8969   -7.6116    8.4871 H   0  0  0  0  0  0  0  0  0  0  0  0
   16.6561   -7.2104    6.9480 H   0  0  0  0  0  0  0  0  0  0  0  0
   15.9103   -9.4277    6.0020 H   0  0  0  0  0  0  0  0  0  0  0  0
   15.1506   -9.8289    7.5408 H   0  0  0  0  0  0  0  0  0  0  0  0
   17.3935   -9.6877    8.6845 H   0  0  0  0  0  0  0  0  0  0  0  0
   18.1530   -9.2863    7.1466 H   0  0  0  0  0  0  0  0  0  0  0  0
   16.6784  -11.9372    7.7531 H   0  0  0  0  0  0  0  0  0  0  0  0
   18.4421  -11.7267    7.6612 H   0  0  0  0  0  0  0  0  0  0  0  0
   17.4442  -11.5324    6.2019 H   0  0  0  0  0  0  0  0  0  0  0  0
  1  2  1  0
  1 21  1  0
  1 22  1  0
  1 23  1  0
  2  3  1  0
  2 24  1  0
  2 25  1  0
  3  4  1  0
  3 26  1  0
  3 27  1  0
  4  5  1  0
  4 28  1  0
  4 29  1  0
  5  6  1  0
  5 30  1  0
  5 31  1  0
  6  7  1  0
  6 32  1  0
  6 33  1  0
  7  8  1  0
  7 34  1  0
  7 35  1  0
  8  9  1  0
  8 36  1  0
  8 37  1  0
  9 10  1  0
  9 38  1  0
  9 39  1  0
 10 11  2  0
 11 12  1  0
 11 13  1  0
 13 14  1  0
 13 40  1  0
 13 41  1  0
 14 15  1  0
 14 42  1  0
 14 43  1  0
 15 16  1  0
 15 44  1  0
 15 45  1  0
 16 17  1  0
 16 46  1  0
 16 47  1  0
 17 18  1  0
 17 48  1  0
 17 49  1  0
 18 19  1  0
 18 50  1  0
 18 51  1  0
 19 20  1  0
 19 52  1  0
 19 53  1  0
 20 54  1  0
 20 55  1  0
 20 56  1  0
M  CHG  2  10   1  12  -1
M  END

