
     RDKit          3D

 38 38  0  0  0  0  0  0  0  0999 V2000
    4.3364    2.0871    2.6371 C   0  0  0  0  0  0  0  0  0  0  0  0
    3.5841    2.1041    1.2994 C   0  0  1  0  0  0  0  0  0  0  0  0
    4.3360    2.7000    0.2010 N   0  0  0  0  0  0  0  0  0  0  0  0
    3.1216    0.6693    0.9058 C   0  0  1  0  0  0  0  0  0  0  0  0
    2.3271    0.0359    1.9323 N   0  0  0  0  0  0  0  0  0  0  0  0
    1.0625    0.6219    2.3290 C   0  0  0  0  0  0  0  0  0  0  0  0
   -0.1306   -0.1286    1.7482 C   0  0  0  0  0  0  0  0  0  0  0  0
    0.0008   -1.5633    1.9538 N   0  0  0  0  0  0  0  0  0  0  0  0
   -1.2032   -2.3495    1.7453 C   0  0  0  0  0  0  0  0  0  0  0  0
    1.1823   -2.2090    2.2032 C   0  0  0  0  0  0  0  0  0  0  0  0
    1.2397   -3.4217    2.3577 O   0  0  0  0  0  0  0  0  0  0  0  0
    2.4915   -1.3696    2.3581 C   0  0  1  0  0  0  0  0  0  0  0  0
    3.5765   -2.1171    1.5667 C   0  0  0  0  0  0  0  0  0  0  0  0
    2.8683   -1.4245    3.8618 C   0  0  0  0  0  0  0  0  0  0  0  0
    2.4516    0.6358   -0.4932 C   0  0  1  0  0  0  0  0  0  0  0  0
    1.5259    1.6045   -0.6467 F   0  0  0  0  0  0  0  0  0  0  0  0
    3.3301    0.7366   -1.4973 F   0  0  0  0  0  0  0  0  0  0  0  0
    1.8062   -0.5416   -0.6749 F   0  0  0  0  0  0  0  0  0  0  0  0
    4.6553    3.1089    2.8994 H   0  0  0  0  0  0  0  0  0  0  0  0
    5.2430    1.4610    2.5663 H   0  0  0  0  0  0  0  0  0  0  0  0
    3.7208    1.6962    3.4598 H   0  0  0  0  0  0  0  0  0  0  0  0
    2.6809    2.7259    1.4194 H   0  0  0  0  0  0  0  0  0  0  0  0
    5.2344    2.2306    0.0749 H   0  0  0  0  0  0  0  0  0  0  0  0
    4.5425    3.6776    0.4013 H   0  0  0  0  0  0  0  0  0  0  0  0
    4.0356    0.0762    0.7697 H   0  0  0  0  0  0  0  0  0  0  0  0
    1.0104    1.6715    2.0113 H   0  0  0  0  0  0  0  0  0  0  0  0
    0.9770    0.6255    3.4325 H   0  0  0  0  0  0  0  0  0  0  0  0
   -0.2467    0.0914    0.6720 H   0  0  0  0  0  0  0  0  0  0  0  0
   -1.0561    0.2124    2.2474 H   0  0  0  0  0  0  0  0  0  0  0  0
   -1.9920   -2.0489    2.4571 H   0  0  0  0  0  0  0  0  0  0  0  0
   -0.9617   -3.4077    1.8946 H   0  0  0  0  0  0  0  0  0  0  0  0
   -1.5915   -2.2030    0.7215 H   0  0  0  0  0  0  0  0  0  0  0  0
    3.3768   -2.1102    0.4862 H   0  0  0  0  0  0  0  0  0  0  0  0
    3.5779   -3.1616    1.9004 H   0  0  0  0  0  0  0  0  0  0  0  0
    4.5735   -1.6906    1.7555 H   0  0  0  0  0  0  0  0  0  0  0  0
    2.1362   -0.8901    4.4865 H   0  0  0  0  0  0  0  0  0  0  0  0
    3.8539   -0.9589    4.0147 H   0  0  0  0  0  0  0  0  0  0  0  0
    2.9058   -2.4673    4.2067 H   0  0  0  0  0  0  0  0  0  0  0  0
  1  2  1  0
  1 19  1  0
  1 20  1  0
  1 21  1  0
  2  3  1  0
  2  4  1  0
  2 22  1  1
  3 23  1  0
  3 24  1  0
  4  5  1  0
  4 15  1  0
  4 25  1  6
  5  6  1  0
  5 12  1  0
  6  7  1  0
  6 26  1  0
  6 27  1  0
  7  8  1  0
  7 28  1  0
  7 29  1  0
  8  9  1  0
  8 10  1  0
  9 30  1  0
  9 31  1  0
  9 32  1  0
 10 11  2  0
 10 12  1  0
 12 13  1  6
 12 14  1  0
 13 33  1  0
 13 34  1  0
 13 35  1  0
 14 36  1  0
 14 37  1  0
 14 38  1  0
 15 16  1  1
 15 17  1  0
 15 18  1  0
M  END

