
     RDKit          3D

 65 65  0  0  0  0  0  0  0  0999 V2000
    0.6542    0.0187    0.0508 C   0  0  0  0  0  0  0  0  0  0  0  0
    2.1822   -0.0060   -0.0085 C   0  0  0  0  0  0  0  0  0  0  0  0
    2.7718   -1.4185   -0.0715 C   0  0  0  0  0  0  0  0  0  0  0  0
    4.3016   -1.4521   -0.1312 C   0  0  0  0  0  0  0  0  0  0  0  0
    4.8911   -2.8642   -0.1937 C   0  0  0  0  0  0  0  0  0  0  0  0
    6.4211   -2.8967   -0.2539 C   0  0  0  0  0  0  0  0  0  0  0  0
    7.0114   -4.3085   -0.3158 C   0  0  0  0  0  0  0  0  0  0  0  0
    8.5414   -4.3400   -0.3769 C   0  0  0  0  0  0  0  0  0  0  0  0
    9.1329   -5.7514   -0.4380 C   0  0  0  0  0  0  0  0  0  0  0  0
   10.6629   -5.7814   -0.5005 C   0  0  0  0  0  0  0  0  0  0  0  0
   11.2557   -7.1923   -0.5609 C   0  0  0  0  0  0  0  0  0  0  0  0
   12.7856   -7.2199   -0.6253 C   0  0  0  0  0  0  0  0  0  0  0  0
   13.3807   -8.6298   -0.6858 C   0  0  0  0  0  0  0  0  0  0  0  0
   14.9101   -8.6450   -0.7505 C   0  0  0  0  0  0  0  0  0  0  0  0
   15.4907  -10.0568   -0.8234 C   0  0  0  0  0  0  0  0  0  0  0  0
   17.0174  -10.0579   -0.8710 C   0  0  0  0  0  0  0  0  0  0  0  0
   17.6515   -9.0235   -0.7640 O   0  0  0  0  0  0  0  0  0  0  0  0
   17.6632  -11.2823   -1.0388 N   0  0  0  0  0  0  0  0  0  0  0  0
   19.0991  -11.2403   -1.2557 C   0  0  0  0  0  0  0  0  0  0  0  0
   19.5198  -11.3468   -2.7411 C   0  0  0  0  0  0  0  0  0  0  0  0
   18.6037  -10.6549   -3.5866 O   0  0  0  0  0  0  0  0  0  0  0  0
   17.5755  -11.5448   -4.5384 P   0  0  0  0  0  0  0  0  0  0  0  0
   16.4920   -9.9539   -5.3055 Cl  0  0  0  0  0  0  0  0  0  0  0  0
   16.4055  -12.0668   -3.4594 O   0  0  0  0  0  0  0  0  0  0  0  0
   16.7772  -13.1016   -2.5563 C   0  0  0  0  0  0  0  0  0  0  0  0
   16.9658  -12.5503   -1.1262 C   0  0  0  0  0  0  0  0  0  0  0  0
    0.2660    1.0489    0.0953 H   0  0  0  0  0  0  0  0  0  0  0  0
    0.2786   -0.5167    0.9391 H   0  0  0  0  0  0  0  0  0  0  0  0
    0.2105   -0.4656   -0.8355 H   0  0  0  0  0  0  0  0  0  0  0  0
    2.5941    0.5197    0.8724 H   0  0  0  0  0  0  0  0  0  0  0  0
    2.5266    0.5699   -0.8870 H   0  0  0  0  0  0  0  0  0  0  0  0
    2.3603   -1.9455   -0.9529 H   0  0  0  0  0  0  0  0  0  0  0  0
    2.4278   -1.9957    0.8074 H   0  0  0  0  0  0  0  0  0  0  0  0
    4.7124   -0.9245    0.7500 H   0  0  0  0  0  0  0  0  0  0  0  0
    4.6448   -0.8748   -1.0101 H   0  0  0  0  0  0  0  0  0  0  0  0
    4.4803   -3.3921   -1.0747 H   0  0  0  0  0  0  0  0  0  0  0  0
    4.5485   -3.4416    0.6854 H   0  0  0  0  0  0  0  0  0  0  0  0
    6.8318   -2.3682    0.6267 H   0  0  0  0  0  0  0  0  0  0  0  0
    6.7636   -2.3197   -1.1332 H   0  0  0  0  0  0  0  0  0  0  0  0
    6.6004   -4.8373   -1.1961 H   0  0  0  0  0  0  0  0  0  0  0  0
    6.6696   -4.8854    0.5640 H   0  0  0  0  0  0  0  0  0  0  0  0
    8.9524   -3.8104    0.5030 H   0  0  0  0  0  0  0  0  0  0  0  0
    8.8829   -3.7635   -1.2569 H   0  0  0  0  0  0  0  0  0  0  0  0
    8.7215   -6.2813   -1.3175 H   0  0  0  0  0  0  0  0  0  0  0  0
    8.7923   -6.3277    0.4426 H   0  0  0  0  0  0  0  0  0  0  0  0
   11.0742   -5.2507    0.3784 H   0  0  0  0  0  0  0  0  0  0  0  0
   11.0031   -5.2056   -1.3814 H   0  0  0  0  0  0  0  0  0  0  0  0
   10.8439   -7.7234   -1.4394 H   0  0  0  0  0  0  0  0  0  0  0  0
   10.9167   -7.7680    0.3208 H   0  0  0  0  0  0  0  0  0  0  0  0
   13.1983   -6.6888    0.2525 H   0  0  0  0  0  0  0  0  0  0  0  0
   13.1248   -6.6452   -1.5069 H   0  0  0  0  0  0  0  0  0  0  0  0
   12.9687   -9.1614   -1.5641 H   0  0  0  0  0  0  0  0  0  0  0  0
   13.0416   -9.2054    0.1966 H   0  0  0  0  0  0  0  0  0  0  0  0
   15.3330   -8.1229    0.1233 H   0  0  0  0  0  0  0  0  0  0  0  0
   15.2561   -8.0739   -1.6280 H   0  0  0  0  0  0  0  0  0  0  0  0
   15.1134  -10.5796   -1.7177 H   0  0  0  0  0  0  0  0  0  0  0  0
   15.1516  -10.6481    0.0473 H   0  0  0  0  0  0  0  0  0  0  0  0
   19.5934  -12.0469   -0.6852 H   0  0  0  0  0  0  0  0  0  0  0  0
   19.4384  -10.2753   -0.8603 H   0  0  0  0  0  0  0  0  0  0  0  0
   19.6170  -12.4034   -3.0566 H   0  0  0  0  0  0  0  0  0  0  0  0
   20.5122  -10.8850   -2.8693 H   0  0  0  0  0  0  0  0  0  0  0  0
   17.6933  -13.6154   -2.9047 H   0  0  0  0  0  0  0  0  0  0  0  0
   15.9758  -13.8593   -2.5496 H   0  0  0  0  0  0  0  0  0  0  0  0
   17.5097  -13.3102   -0.5345 H   0  0  0  0  0  0  0  0  0  0  0  0
   15.9811  -12.4442   -0.6574 H   0  0  0  0  0  0  0  0  0  0  0  0
  1  2  1  0
  1 27  1  0
  1 28  1  0
  1 29  1  0
  2  3  1  0
  2 30  1  0
  2 31  1  0
  3  4  1  0
  3 32  1  0
  3 33  1  0
  4  5  1  0
  4 34  1  0
  4 35  1  0
  5  6  1  0
  5 36  1  0
  5 37  1  0
  6  7  1  0
  6 38  1  0
  6 39  1  0
  7  8  1  0
  7 40  1  0
  7 41  1  0
  8  9  1  0
  8 42  1  0
  8 43  1  0
  9 10  1  0
  9 44  1  0
  9 45  1  0
 10 11  1  0
 10 46  1  0
 10 47  1  0
 11 12  1  0
 11 48  1  0
 11 49  1  0
 12 13  1  0
 12 50  1  0
 12 51  1  0
 13 14  1  0
 13 52  1  0
 13 53  1  0
 14 15  1  0
 14 54  1  0
 14 55  1  0
 15 16  1  0
 15 56  1  0
 15 57  1  0
 16 17  2  0
 16 18  1  0
 18 19  1  0
 18 26  1  0
 19 20  1  0
 19 58  1  0
 19 59  1  0
 20 21  1  0
 20 60  1  0
 20 61  1  0
 21 22  1  0
 22 23  1  0
 22 24  1  0
 24 25  1  0
 25 26  1  0
 25 62  1  0
 25 63  1  0
 26 64  1  0
 26 65  1  0
M  END

