
     RDKit          3D

 45 46  0  0  0  0  0  0  0  0999 V2000
    7.1928   -1.1122   -0.9327 C   0  0  0  0  0  0  0  0  0  0  0  0
    6.9413   -0.9764    0.5692 C   0  0  0  0  0  0  0  0  0  0  0  0
    5.4807   -0.6585    0.9059 C   0  0  0  0  0  0  0  0  0  0  0  0
    5.1816   -0.5656    2.3964 C   0  0  0  0  0  0  0  0  0  0  0  0
    5.9835    0.4449    3.0474 O   0  0  0  0  0  0  0  0  0  0  0  0
    5.5281    1.7188    3.0855 C   0  0  0  0  0  0  0  0  0  0  0  0
    4.4617    2.0401    2.6156 O   0  0  0  0  0  0  0  0  0  0  0  0
    6.4638    2.6729    3.7643 C   0  0  0  0  0  0  0  0  0  0  0  0
    5.9921    3.9954    3.8497 C   0  0  0  0  0  0  0  0  0  0  0  0
    6.7407    5.0044    4.4447 C   0  0  0  0  0  0  0  0  0  0  0  0
    7.9990    4.6938    4.9703 C   0  0  0  0  0  0  0  0  0  0  0  0
    8.4996    3.3961    4.9035 C   0  0  0  0  0  0  0  0  0  0  0  0
    7.7475    2.3647    4.3053 C   0  0  0  0  0  0  0  0  0  0  0  0
    8.2521    1.0606    4.2395 N   0  0  0  0  0  0  0  0  0  0  0  0
    9.4435    0.5690    4.6617 C   0  0  0  0  0  0  0  0  0  0  0  0
   10.3611    1.1645    5.2075 O   0  0  0  0  0  0  0  0  0  0  0  0
    9.5466   -0.9486    4.3629 C   0  0  0  0  0  0  0  0  0  0  0  0
    8.6385   -1.5672    3.8224 O   0  0  0  0  0  0  0  0  0  0  0  0
   10.7301   -1.4548    4.7578 N   0  0  0  0  0  0  0  0  0  0  0  0
   11.0751   -2.8637    4.6446 C   0  0  0  0  0  0  0  0  0  0  0  0
   11.2385   -3.5452    5.9635 C   0  0  0  0  0  0  0  0  0  0  0  0
   10.4963   -4.4679    6.6484 C   0  0  0  0  0  0  0  0  0  0  0  0
   11.1843   -4.7029    7.8861 C   0  0  0  0  0  0  0  0  0  0  0  0
   12.2885   -3.9011    7.8599 C   0  0  0  0  0  0  0  0  0  0  0  0
   12.3328   -3.1975    6.6995 O   0  0  0  0  0  0  0  0  0  0  0  0
    8.2514   -1.3305   -1.1454 H   0  0  0  0  0  0  0  0  0  0  0  0
    6.9300   -0.1853   -1.4699 H   0  0  0  0  0  0  0  0  0  0  0  0
    6.5911   -1.9268   -1.3703 H   0  0  0  0  0  0  0  0  0  0  0  0
    7.5881   -0.1849    0.9839 H   0  0  0  0  0  0  0  0  0  0  0  0
    7.2447   -1.9019    1.0896 H   0  0  0  0  0  0  0  0  0  0  0  0
    4.8220   -1.4459    0.4952 H   0  0  0  0  0  0  0  0  0  0  0  0
    5.1696    0.2822    0.4194 H   0  0  0  0  0  0  0  0  0  0  0  0
    5.4522   -1.4966    2.9148 H   0  0  0  0  0  0  0  0  0  0  0  0
    4.1220   -0.3349    2.5730 H   0  0  0  0  0  0  0  0  0  0  0  0
    5.0077    4.2000    3.4259 H   0  0  0  0  0  0  0  0  0  0  0  0
    6.3493    6.0226    4.4981 H   0  0  0  0  0  0  0  0  0  0  0  0
    8.6053    5.4719    5.4415 H   0  0  0  0  0  0  0  0  0  0  0  0
    9.4787    3.1541    5.3103 H   0  0  0  0  0  0  0  0  0  0  0  0
    7.6368    0.3610    3.8147 H   0  0  0  0  0  0  0  0  0  0  0  0
   11.3594   -0.8015    5.2194 H   0  0  0  0  0  0  0  0  0  0  0  0
   12.0046   -2.9642    4.0570 H   0  0  0  0  0  0  0  0  0  0  0  0
   10.2642   -3.3472    4.0841 H   0  0  0  0  0  0  0  0  0  0  0  0
    9.5679   -4.9232    6.3098 H   0  0  0  0  0  0  0  0  0  0  0  0
   10.8929   -5.3790    8.6871 H   0  0  0  0  0  0  0  0  0  0  0  0
   13.1044   -3.7287    8.5571 H   0  0  0  0  0  0  0  0  0  0  0  0
  1  2  1  0
  1 26  1  0
  1 27  1  0
  1 28  1  0
  2  3  1  0
  2 29  1  0
  2 30  1  0
  3  4  1  0
  3 31  1  0
  3 32  1  0
  4  5  1  0
  4 33  1  0
  4 34  1  0
  5  6  1  0
  6  7  2  0
  6  8  1  0
  8  9  2  0
  8 13  1  0
  9 10  1  0
  9 35  1  0
 10 11  2  0
 10 36  1  0
 11 12  1  0
 11 37  1  0
 12 13  2  0
 12 38  1  0
 13 14  1  0
 14 15  1  0
 14 39  1  0
 15 16  2  0
 15 17  1  0
 17 18  2  0
 17 19  1  0
 19 20  1  0
 19 40  1  0
 20 21  1  0
 20 41  1  0
 20 42  1  0
 21 22  2  0
 21 25  1  0
 22 23  1  0
 22 43  1  0
 23 24  2  0
 23 44  1  0
 24 25  1  0
 24 45  1  0
M  END

