
     RDKit          3D

 31 32  0  0  0  0  0  0  0  0999 V2000
    0.7227   -0.0774    0.8991 C   0  0  0  0  0  0  0  0  0  0  0  0
    2.0994   -0.1347    0.3123 C   0  0  0  0  0  0  0  0  0  0  0  0
    2.6227    0.7856   -0.4427 N   0  0  0  0  0  0  0  0  0  0  0  0
    3.9004    0.4699   -0.8265 C   0  0  0  0  0  0  0  0  0  0  0  0
    4.4101   -0.7262   -0.3689 C   0  0  0  0  0  0  0  0  0  0  0  0
    5.6993   -1.4656   -0.6742 C   0  0  1  0  0  0  0  0  0  0  0  0
    5.7704   -1.9477   -2.0750 N   0  0  0  0  0  0  0  0  0  0  0  0
    5.7229   -0.9997   -3.1074 N   0  0  0  0  0  0  0  0  0  0  0  0
    7.0079   -0.7606   -0.2980 C   0  0  0  0  0  0  0  0  0  0  0  0
    7.0592    0.6117   -0.0256 C   0  0  0  0  0  0  0  0  0  0  0  0
    8.2704    1.2246    0.2866 C   0  0  0  0  0  0  0  0  0  0  0  0
    8.2817    2.5444    0.5374 F   0  0  0  0  0  0  0  0  0  0  0  0
    9.4546    0.5043    0.3461 C   0  0  0  0  0  0  0  0  0  0  0  0
    9.4000   -0.8685    0.0908 C   0  0  0  0  0  0  0  0  0  0  0  0
    8.2031   -1.5258   -0.2281 C   0  0  0  0  0  0  0  0  0  0  0  0
    8.2149   -3.0174   -0.4626 C   0  0  0  0  0  0  0  0  0  0  0  0
    3.1791   -1.4910    0.6079 S   0  0  0  0  0  0  0  0  0  0  0  0
    0.2428    0.8529    0.5663 H   0  0  0  0  0  0  0  0  0  0  0  0
    0.7506   -0.0861    2.0009 H   0  0  0  0  0  0  0  0  0  0  0  0
    0.1059   -0.9311    0.5747 H   0  0  0  0  0  0  0  0  0  0  0  0
    4.4441    1.1812   -1.4501 H   0  0  0  0  0  0  0  0  0  0  0  0
    5.6715   -2.3937   -0.0802 H   0  0  0  0  0  0  0  0  0  0  0  0
    5.0427   -2.6409   -2.2394 H   0  0  0  0  0  0  0  0  0  0  0  0
    6.6225   -0.5249   -3.1700 H   0  0  0  0  0  0  0  0  0  0  0  0
    4.9917   -0.2943   -2.9654 H   0  0  0  0  0  0  0  0  0  0  0  0
    6.1620    1.2280   -0.0298 H   0  0  0  0  0  0  0  0  0  0  0  0
   10.3899    1.0092    0.5947 H   0  0  0  0  0  0  0  0  0  0  0  0
   10.3227   -1.4525    0.1461 H   0  0  0  0  0  0  0  0  0  0  0  0
    9.2375   -3.4171   -0.4036 H   0  0  0  0  0  0  0  0  0  0  0  0
    7.7846   -3.2647   -1.4435 H   0  0  0  0  0  0  0  0  0  0  0  0
    7.6105   -3.5491    0.2940 H   0  0  0  0  0  0  0  0  0  0  0  0
  1  2  1  0
  1 18  1  0
  1 19  1  0
  1 20  1  0
  2  3  2  0
  2 17  1  0
  3  4  1  0
  4  5  2  0
  4 21  1  0
  5  6  1  0
  5 17  1  0
  6  7  1  0
  6  9  1  0
  6 22  1  1
  7  8  1  0
  7 23  1  0
  8 24  1  0
  8 25  1  0
  9 10  2  0
  9 15  1  0
 10 11  1  0
 10 26  1  0
 11 12  1  0
 11 13  2  0
 13 14  1  0
 13 27  1  0
 14 15  2  0
 14 28  1  0
 15 16  1  0
 16 29  1  0
 16 30  1  0
 16 31  1  0
M  END

