
     RDKit          3D

 46 47  0  0  0  0  0  0  0  0999 V2000
    2.4831    0.7168    2.1915 C   0  0  0  0  0  0  0  0  0  0  0  0
    2.7335    0.4760    0.7018 C   0  0  1  0  0  0  0  0  0  0  0  0
    1.4705    0.0236   -0.0423 C   0  0  0  0  0  0  0  0  0  0  0  0
    3.3151    1.6753    0.1005 N   0  0  0  0  0  0  0  0  0  0  0  0
    4.2044    1.6138   -0.9387 C   0  0  0  0  0  0  0  0  0  0  0  0
    4.5957    0.5531   -1.4052 O   0  0  0  0  0  0  0  0  0  0  0  0
    4.6847    2.9318   -1.4814 C   0  0  0  0  0  0  0  0  0  0  0  0
    4.5964    4.1638   -0.8004 C   0  0  0  0  0  0  0  0  0  0  0  0
    5.0577    5.3355   -1.3740 C   0  0  0  0  0  0  0  0  0  0  0  0
    5.6581    5.3649   -2.6628 C   0  0  0  0  0  0  0  0  0  0  0  0
    5.9793    6.5789   -3.1994 N   0  0  0  0  0  0  0  0  0  0  0  0
    6.1373    6.9354   -4.6051 C   0  0  0  0  0  0  0  0  0  0  0  0
    5.6732    8.3553   -4.8531 C   0  0  0  0  0  0  0  0  0  0  0  0
    6.5819    9.3517   -5.2411 C   0  0  0  0  0  0  0  0  0  0  0  0
    6.1604   10.6604   -5.4738 C   0  0  0  0  0  0  0  0  0  0  0  0
    4.8127   10.9940   -5.3074 C   0  0  0  0  0  0  0  0  0  0  0  0
    4.4774   12.3109   -5.5356 O   0  0  0  0  0  0  0  0  0  0  0  0
    3.2134   12.6245   -5.9535 C   0  0  1  0  0  0  0  0  0  0  0  0
    2.3479   12.6395   -4.9063 F   0  0  0  0  0  0  0  0  0  0  0  0
    3.2610   13.8614   -6.4562 F   0  0  0  0  0  0  0  0  0  0  0  0
    3.8880   10.0220   -4.9024 C   0  0  0  0  0  0  0  0  0  0  0  0
    4.3268    8.7131   -4.6887 C   0  0  0  0  0  0  0  0  0  0  0  0
    5.8237    4.0976   -3.2894 C   0  0  0  0  0  0  0  0  0  0  0  0
    6.6505    3.9181   -4.4885 N   0  0  0  0  0  0  0  0  0  0  0  0
    7.6557    4.6127   -4.5886 O   0  0  0  0  0  0  0  0  0  0  0  0
    6.3267    3.0497   -5.2831 O   0  0  0  0  0  0  0  0  0  0  0  0
    5.3184    2.9248   -2.7219 C   0  0  0  0  0  0  0  0  0  0  0  0
    2.0888   -0.1922    2.6714 H   0  0  0  0  0  0  0  0  0  0  0  0
    1.7399    1.5188    2.3477 H   0  0  0  0  0  0  0  0  0  0  0  0
    3.4117    1.0043    2.7082 H   0  0  0  0  0  0  0  0  0  0  0  0
    3.4972   -0.3070    0.5809 H   0  0  0  0  0  0  0  0  0  0  0  0
    0.6795    0.7912    0.0131 H   0  0  0  0  0  0  0  0  0  0  0  0
    1.0708   -0.9057    0.3946 H   0  0  0  0  0  0  0  0  0  0  0  0
    1.6982   -0.1675   -1.1014 H   0  0  0  0  0  0  0  0  0  0  0  0
    2.8702    2.5616    0.3078 H   0  0  0  0  0  0  0  0  0  0  0  0
    4.1674    4.2142    0.2034 H   0  0  0  0  0  0  0  0  0  0  0  0
    4.9447    6.2816   -0.8373 H   0  0  0  0  0  0  0  0  0  0  0  0
    5.8539    7.3662   -2.5741 H   0  0  0  0  0  0  0  0  0  0  0  0
    5.5363    6.2377   -5.2145 H   0  0  0  0  0  0  0  0  0  0  0  0
    7.1803    6.8113   -4.9350 H   0  0  0  0  0  0  0  0  0  0  0  0
    7.6369    9.0970   -5.3727 H   0  0  0  0  0  0  0  0  0  0  0  0
    6.8606   11.4377   -5.7849 H   0  0  0  0  0  0  0  0  0  0  0  0
    2.8271   11.9173   -6.7107 H   0  0  0  0  0  0  0  0  0  0  0  0
    2.8434   10.2844   -4.7330 H   0  0  0  0  0  0  0  0  0  0  0  0
    3.5996    7.9567   -4.3800 H   0  0  0  0  0  0  0  0  0  0  0  0
    5.4549    1.9774   -3.2438 H   0  0  0  0  0  0  0  0  0  0  0  0
  1  2  1  0
  1 28  1  0
  1 29  1  0
  1 30  1  0
  2  3  1  0
  2  4  1  0
  2 31  1  1
  3 32  1  0
  3 33  1  0
  3 34  1  0
  4  5  1  0
  4 35  1  0
  5  6  2  0
  5  7  1  0
  7  8  2  0
  7 27  1  0
  8  9  1  0
  8 36  1  0
  9 10  2  0
  9 37  1  0
 10 11  1  0
 10 23  1  0
 11 12  1  0
 11 38  1  0
 12 13  1  0
 12 39  1  0
 12 40  1  0
 13 14  2  0
 13 22  1  0
 14 15  1  0
 14 41  1  0
 15 16  2  0
 15 42  1  0
 16 17  1  0
 16 21  1  0
 17 18  1  0
 18 19  1  0
 18 20  1  0
 18 43  1  6
 21 22  2  0
 21 44  1  0
 22 45  1  0
 23 24  1  0
 23 27  2  0
 24 25  2  0
 24 26  1  0
 27 46  1  0
M  CHG  2  24   1  26  -1
M  END

