
     RDKit          3D

 42 43  0  0  0  0  0  0  0  0999 V2000
    2.3935    1.2951   -3.0408 C   0  0  0  0  0  0  0  0  0  0  0  0
    2.3314    1.8454   -1.6155 C   0  0  0  0  0  0  0  0  0  0  0  0
    3.2129    1.1063   -0.6038 C   0  0  0  0  0  0  0  0  0  0  0  0
    4.6496    1.2000   -0.9033 N   0  0  0  0  0  0  0  0  0  0  0  0
    5.2196    2.3638   -0.6210 N   0  0  0  0  0  0  0  0  0  0  0  0
    6.4945    2.5370   -0.8596 C   0  0  0  0  0  0  0  0  0  0  0  0
    7.1214    3.8688   -0.5243 C   0  0  0  0  0  0  0  0  0  0  0  0
    8.3101    4.0625   -0.7394 O   0  0  0  0  0  0  0  0  0  0  0  0
    6.2724    4.7839    0.0095 N   0  0  0  0  0  0  0  0  0  0  0  0
    6.6821    6.1207    0.3900 C   0  0  0  0  0  0  0  0  0  0  0  0
    5.7715    7.2070   -0.1525 C   0  0  0  0  0  0  0  0  0  0  0  0
    5.2586    7.1507   -1.4493 C   0  0  0  0  0  0  0  0  0  0  0  0
    4.4548    8.1895   -1.9362 C   0  0  0  0  0  0  0  0  0  0  0  0
    4.1516    9.2987   -1.1477 C   0  0  0  0  0  0  0  0  0  0  0  0
    3.3781   10.3308   -1.5693 O   0  0  0  0  0  0  0  0  0  0  0  0
    4.6655    9.3669    0.1724 C   0  0  0  0  0  0  0  0  0  0  0  0
    4.3223   10.4705    0.8803 O   0  0  0  0  0  0  0  0  0  0  0  0
    4.8019   10.6180    2.1954 C   0  0  0  0  0  0  0  0  0  0  0  0
    5.4612    8.3213    0.6494 C   0  0  0  0  0  0  0  0  0  0  0  0
    7.3091    1.5009   -1.4202 C   0  0  0  0  0  0  0  0  0  0  0  0
    6.7321    0.3055   -1.7120 C   0  0  0  0  0  0  0  0  0  0  0  0
    5.3126    0.0758   -1.4734 C   0  0  0  0  0  0  0  0  0  0  0  0
    4.7040   -0.9526   -1.7173 O   0  0  0  0  0  0  0  0  0  0  0  0
    1.7026    1.8425   -3.7010 H   0  0  0  0  0  0  0  0  0  0  0  0
    2.1264    0.2274   -3.0735 H   0  0  0  0  0  0  0  0  0  0  0  0
    3.4038    1.3922   -3.4696 H   0  0  0  0  0  0  0  0  0  0  0  0
    1.2956    1.7923   -1.2372 H   0  0  0  0  0  0  0  0  0  0  0  0
    2.6064    2.9146   -1.6067 H   0  0  0  0  0  0  0  0  0  0  0  0
    2.9751    0.0351   -0.5851 H   0  0  0  0  0  0  0  0  0  0  0  0
    3.0703    1.5254    0.4032 H   0  0  0  0  0  0  0  0  0  0  0  0
    5.3081    4.4964    0.1435 H   0  0  0  0  0  0  0  0  0  0  0  0
    7.7113    6.2405    0.0143 H   0  0  0  0  0  0  0  0  0  0  0  0
    6.7379    6.2087    1.4905 H   0  0  0  0  0  0  0  0  0  0  0  0
    5.4816    6.2950   -2.0901 H   0  0  0  0  0  0  0  0  0  0  0  0
    4.0549    8.1399   -2.9545 H   0  0  0  0  0  0  0  0  0  0  0  0
    3.1008   10.1635   -2.4794 H   0  0  0  0  0  0  0  0  0  0  0  0
    4.4108   11.5752    2.5657 H   0  0  0  0  0  0  0  0  0  0  0  0
    5.9065   10.6453    2.2315 H   0  0  0  0  0  0  0  0  0  0  0  0
    4.4470    9.8074    2.8584 H   0  0  0  0  0  0  0  0  0  0  0  0
    5.8542    8.3633    1.6663 H   0  0  0  0  0  0  0  0  0  0  0  0
    8.3663    1.7121   -1.5896 H   0  0  0  0  0  0  0  0  0  0  0  0
    7.2871   -0.5319   -2.1389 H   0  0  0  0  0  0  0  0  0  0  0  0
  1  2  1  0
  1 24  1  0
  1 25  1  0
  1 26  1  0
  2  3  1  0
  2 27  1  0
  2 28  1  0
  3  4  1  0
  3 29  1  0
  3 30  1  0
  4  5  1  0
  4 22  1  0
  5  6  2  0
  6  7  1  0
  6 20  1  0
  7  8  2  0
  7  9  1  0
  9 10  1  0
  9 31  1  0
 10 11  1  0
 10 32  1  0
 10 33  1  0
 11 12  2  0
 11 19  1  0
 12 13  1  0
 12 34  1  0
 13 14  2  0
 13 35  1  0
 14 15  1  0
 14 16  1  0
 15 36  1  0
 16 17  1  0
 16 19  2  0
 17 18  1  0
 18 37  1  0
 18 38  1  0
 18 39  1  0
 19 40  1  0
 20 21  2  0
 20 41  1  0
 21 22  1  0
 21 42  1  0
 22 23  2  0
M  END

