
     RDKit          3D

 40 41  0  0  0  0  0  0  0  0999 V2000
    1.4783   -0.0784    0.8544 C   0  0  0  0  0  0  0  0  0  0  0  0
    2.5003    0.0474   -0.1566 N   0  0  0  0  0  0  0  0  0  0  0  0
    3.0395    1.2171   -0.5668 C   0  0  0  0  0  0  0  0  0  0  0  0
    2.6161    2.4593   -0.0101 C   0  0  0  0  0  0  0  0  0  0  0  0
    3.1566    3.6622   -0.4174 C   0  0  0  0  0  0  0  0  0  0  0  0
    4.1512    3.7308   -1.4186 C   0  0  0  0  0  0  0  0  0  0  0  0
    4.6776    5.0934   -1.7791 C   0  0  0  0  0  0  0  0  0  0  0  0
    4.3870    6.0743   -1.1036 O   0  0  0  0  0  0  0  0  0  0  0  0
    5.4715    5.1730   -2.8839 N   0  0  0  0  0  0  0  0  0  0  0  0
    6.0840    6.4179   -3.3333 C   0  0  1  0  0  0  0  0  0  0  0  0
    7.5532    6.4946   -2.9003 C   0  0  0  0  0  0  0  0  0  0  0  0
    5.8612    6.5171   -4.8491 C   0  0  1  0  0  0  0  0  0  0  0  0
    6.4576    7.7104   -5.6010 C   0  0  0  0  0  0  0  0  0  0  0  0
    6.5962    7.1392   -7.0188 C   0  0  0  0  0  0  0  0  0  0  0  0
    6.9943    5.6832   -6.7397 C   0  0  0  0  0  0  0  0  0  0  0  0
    6.4393    5.3591   -5.4662 O   0  0  0  0  0  0  0  0  0  0  0  0
    4.5922    2.5355   -1.9730 C   0  0  0  0  0  0  0  0  0  0  0  0
    4.0612    1.3011   -1.5704 C   0  0  0  0  0  0  0  0  0  0  0  0
    4.6067    0.1175   -2.2170 N   0  0  0  0  0  0  0  0  0  0  0  0
    4.1593   -0.9922   -1.9000 O   0  0  0  0  0  0  0  0  0  0  0  0
    5.4867    0.2568   -3.0524 O   0  0  0  0  0  0  0  0  0  0  0  0
    1.2379   -1.1427    0.9787 H   0  0  0  0  0  0  0  0  0  0  0  0
    0.5480    0.4490    0.5769 H   0  0  0  0  0  0  0  0  0  0  0  0
    1.8080    0.3114    1.8342 H   0  0  0  0  0  0  0  0  0  0  0  0
    2.8779   -0.7776   -0.6171 H   0  0  0  0  0  0  0  0  0  0  0  0
    1.8466    2.4550    0.7614 H   0  0  0  0  0  0  0  0  0  0  0  0
    2.8265    4.6018    0.0303 H   0  0  0  0  0  0  0  0  0  0  0  0
    5.6539    4.3574   -3.4568 H   0  0  0  0  0  0  0  0  0  0  0  0
    5.5198    7.2266   -2.8442 H   0  0  0  0  0  0  0  0  0  0  0  0
    8.1487    5.7182   -3.4053 H   0  0  0  0  0  0  0  0  0  0  0  0
    7.6267    6.3418   -1.8136 H   0  0  0  0  0  0  0  0  0  0  0  0
    7.9952    7.4767   -3.1288 H   0  0  0  0  0  0  0  0  0  0  0  0
    4.7650    6.4952   -5.0155 H   0  0  0  0  0  0  0  0  0  0  0  0
    7.4478    7.9740   -5.1975 H   0  0  0  0  0  0  0  0  0  0  0  0
    5.8188    8.6043   -5.5468 H   0  0  0  0  0  0  0  0  0  0  0  0
    7.3337    7.6720   -7.6373 H   0  0  0  0  0  0  0  0  0  0  0  0
    5.6269    7.1800   -7.5424 H   0  0  0  0  0  0  0  0  0  0  0  0
    8.0937    5.5656   -6.6993 H   0  0  0  0  0  0  0  0  0  0  0  0
    6.6098    4.9806   -7.4985 H   0  0  0  0  0  0  0  0  0  0  0  0
    5.3750    2.4918   -2.7294 H   0  0  0  0  0  0  0  0  0  0  0  0
  1  2  1  0
  1 22  1  0
  1 23  1  0
  1 24  1  0
  2  3  1  0
  2 25  1  0
  3  4  2  0
  3 18  1  0
  4  5  1  0
  4 26  1  0
  5  6  2  0
  5 27  1  0
  6  7  1  0
  6 17  1  0
  7  8  2  0
  7  9  1  0
  9 10  1  0
  9 28  1  0
 10 11  1  0
 10 12  1  0
 10 29  1  1
 11 30  1  0
 11 31  1  0
 11 32  1  0
 12 13  1  0
 12 16  1  0
 12 33  1  1
 13 14  1  0
 13 34  1  0
 13 35  1  0
 14 15  1  0
 14 36  1  0
 14 37  1  0
 15 16  1  0
 15 38  1  0
 15 39  1  0
 17 18  2  0
 17 40  1  0
 18 19  1  0
 19 20  2  0
 19 21  1  0
M  CHG  2  19   1  21  -1
M  END

