
     RDKit          3D

 16 16  0  0  0  0  0  0  0  0999 V2000
    0.9529    0.3541   -0.0984 C   0  0  0  0  0  0  0  0  0  0  0  0
    2.4577    0.3559   -0.0526 C   0  0  1  0  0  0  0  0  0  0  0  0
    2.8895    0.1869    0.9463 H   0  0  0  0  0  0  0  0  0  0  0  0
    3.1662   -0.3396   -1.0767 O   0  0  0  0  0  0  0  0  0  0  0  0
    3.3509    1.0772   -0.9873 C   0  0  1  0  0  0  0  0  0  0  0  0
    4.3412    1.3937   -0.6257 H   0  0  0  0  0  0  0  0  0  0  0  0
    2.8092    2.0023   -2.4679 P   0  0  1  0  0  0  0  0  0  0  0  0
    3.8460    1.3347   -3.6084 N   0  0  0  0  0  0  0  0  0  0  0  0
    1.3385    2.0660   -2.7236 O   0  0  0  0  0  0  0  0  0  0  0  0
    3.4677    3.4864   -2.2811 O   0  0  0  0  0  0  0  0  0  0  0  0
    0.5777   -0.6370    0.2042 H   0  0  0  0  0  0  0  0  0  0  0  0
    0.5828    0.6027   -1.1007 H   0  0  0  0  0  0  0  0  0  0  0  0
    0.5565    1.0947    0.6154 H   0  0  0  0  0  0  0  0  0  0  0  0
    3.7851    1.7498   -4.5371 H   0  0  0  0  0  0  0  0  0  0  0  0
    3.7700    0.3191   -3.6594 H   0  0  0  0  0  0  0  0  0  0  0  0
    2.7512    4.1310   -2.1781 H   0  0  0  0  0  0  0  0  0  0  0  0
  1  2  1  0
  1 11  1  0
  1 12  1  0
  1 13  1  0
  2  3  1  1
  2  4  1  0
  2  5  1  0
  4  5  1  0
  5  6  1  1
  5  7  1  0
  7  8  1  0
  7  9  2  0
  7 10  1  1
  8 14  1  0
  8 15  1  0
 10 16  1  0
M  END

