
     RDKit          3D

 68 71  0  0  0  0  0  0  0  0999 V2000
    2.0766    0.7179   -0.4963 O   0  0  0  0  0  0  0  0  0  0  0  0
    2.0306    1.0317    0.6742 C   0  0  0  0  0  0  0  0  0  0  0  0
    0.7150    1.3821    1.3904 C   0  0  0  0  0  0  0  0  0  0  0  0
   -0.3505    1.6974    0.4874 N   0  0  0  0  0  0  0  0  0  0  0  0
   -1.0558    0.7161   -0.3287 C   0  0  0  0  0  0  0  0  0  0  0  0
   -1.8361    1.5970   -1.3246 C   0  0  0  0  0  0  0  0  0  0  0  0
   -2.0325    2.9226   -0.5761 C   0  0  0  0  0  0  0  0  0  0  0  0
   -0.8669    2.9721    0.4091 C   0  0  0  0  0  0  0  0  0  0  0  0
   -0.4684    3.9275    1.0459 O   0  0  0  0  0  0  0  0  0  0  0  0
    3.1260    1.0730    1.5149 N   0  0  0  0  0  0  0  0  0  0  0  0
    4.4595    0.7456    1.2377 C   0  0  0  0  0  0  0  0  0  0  0  0
    5.3898    0.9055    2.3197 C   0  0  0  0  0  0  0  0  0  0  0  0
    6.7018    0.5964    2.1082 C   0  0  0  0  0  0  0  0  0  0  0  0
    7.1580    0.1408    0.9096 N   0  0  0  0  0  0  0  0  0  0  0  0
    8.5733   -0.1715    0.7040 C   0  0  0  0  0  0  0  0  0  0  0  0
    9.3304    0.9576   -0.0073 C   0  0  0  0  0  0  0  0  0  0  0  0
   10.7857    0.6105   -0.3427 C   0  0  0  0  0  0  0  0  0  0  0  0
   10.9231   -0.4481   -1.4442 C   0  0  0  0  0  0  0  0  0  0  0  0
   12.3170   -0.7408   -1.7587 N   0  0  0  0  0  0  0  0  0  0  0  0
   13.0921   -0.2577   -2.7578 C   0  0  0  0  0  0  0  0  0  0  0  0
   14.3303   -0.8308   -2.5273 C   0  0  0  0  0  0  0  0  0  0  0  0
   15.5777   -0.6658   -3.3186 C   0  0  0  0  0  0  0  0  0  0  0  0
   15.6281    0.0613   -4.3035 O   0  0  0  0  0  0  0  0  0  0  0  0
   16.6262   -1.3927   -2.8450 N   0  0  0  0  0  0  0  0  0  0  0  0
   17.9376   -1.3669   -3.4688 C   0  0  0  0  0  0  0  0  0  0  0  0
   18.9007   -0.3714   -2.8435 C   0  0  0  0  0  0  0  0  0  0  0  0
   18.6938    1.0095   -3.0081 C   0  0  0  0  0  0  0  0  0  0  0  0
   19.5702    1.9301   -2.4327 C   0  0  0  0  0  0  0  0  0  0  0  0
   20.6664    1.4911   -1.6841 C   0  0  0  0  0  0  0  0  0  0  0  0
   20.8786    0.1199   -1.5157 C   0  0  0  0  0  0  0  0  0  0  0  0
   22.0242   -0.3734   -0.6680 C   0  0  1  0  0  0  0  0  0  0  0  0
   23.0382    0.5087   -0.6268 F   0  0  0  0  0  0  0  0  0  0  0  0
   21.6419   -0.5896    0.6069 F   0  0  0  0  0  0  0  0  0  0  0  0
   22.5203   -1.5382   -1.1254 F   0  0  0  0  0  0  0  0  0  0  0  0
   19.9996   -0.8050   -2.0951 C   0  0  0  0  0  0  0  0  0  0  0  0
   14.2346   -1.6124   -1.4153 N   0  0  0  0  0  0  0  0  0  0  0  0
   13.0266   -1.5556   -0.9528 N   0  0  0  0  0  0  0  0  0  0  0  0
    6.2957   -0.0356   -0.2146 C   0  0  0  0  0  0  0  0  0  0  0  0
    6.7693   -0.4356   -1.2721 O   0  0  0  0  0  0  0  0  0  0  0  0
    4.9056    0.2892    0.0175 C   0  0  0  0  0  0  0  0  0  0  0  0
    0.8584    2.2659    2.0345 H   0  0  0  0  0  0  0  0  0  0  0  0
    0.4454    0.5269    2.0412 H   0  0  0  0  0  0  0  0  0  0  0  0
   -1.7344    0.1034    0.2990 H   0  0  0  0  0  0  0  0  0  0  0  0
   -0.3450    0.0431   -0.8272 H   0  0  0  0  0  0  0  0  0  0  0  0
   -2.7760    1.1276   -1.6477 H   0  0  0  0  0  0  0  0  0  0  0  0
   -1.2181    1.7621   -2.2209 H   0  0  0  0  0  0  0  0  0  0  0  0
   -2.9674    2.9416    0.0115 H   0  0  0  0  0  0  0  0  0  0  0  0
   -2.0328    3.8176   -1.2137 H   0  0  0  0  0  0  0  0  0  0  0  0
    2.9507    1.4058    2.4565 H   0  0  0  0  0  0  0  0  0  0  0  0
    5.0678    1.2628    3.2989 H   0  0  0  0  0  0  0  0  0  0  0  0
    7.4478    0.6964    2.8999 H   0  0  0  0  0  0  0  0  0  0  0  0
    8.6068   -1.0892    0.1013 H   0  0  0  0  0  0  0  0  0  0  0  0
    9.0244   -0.3852    1.6854 H   0  0  0  0  0  0  0  0  0  0  0  0
    9.3133    1.8569    0.6312 H   0  0  0  0  0  0  0  0  0  0  0  0
    8.7838    1.2089   -0.9302 H   0  0  0  0  0  0  0  0  0  0  0  0
   11.3187    0.2523    0.5549 H   0  0  0  0  0  0  0  0  0  0  0  0
   11.3077    1.5248   -0.6703 H   0  0  0  0  0  0  0  0  0  0  0  0
   10.4324   -0.1174   -2.3714 H   0  0  0  0  0  0  0  0  0  0  0  0
   10.4619   -1.4004   -1.1481 H   0  0  0  0  0  0  0  0  0  0  0  0
   12.7369    0.4165   -3.5316 H   0  0  0  0  0  0  0  0  0  0  0  0
   16.4782   -1.9078   -1.9817 H   0  0  0  0  0  0  0  0  0  0  0  0
   17.7772   -1.1081   -4.5258 H   0  0  0  0  0  0  0  0  0  0  0  0
   18.3688   -2.3793   -3.4288 H   0  0  0  0  0  0  0  0  0  0  0  0
   17.8392    1.3498   -3.5986 H   0  0  0  0  0  0  0  0  0  0  0  0
   19.4048    3.0011   -2.5740 H   0  0  0  0  0  0  0  0  0  0  0  0
   21.3589    2.2084   -1.2402 H   0  0  0  0  0  0  0  0  0  0  0  0
   20.1846   -1.8744   -1.9671 H   0  0  0  0  0  0  0  0  0  0  0  0
    4.2294    0.1644   -0.8230 H   0  0  0  0  0  0  0  0  0  0  0  0
  1  2  2  0
  2  3  1  0
  2 10  1  0
  3  4  1  0
  3 41  1  0
  3 42  1  0
  4  5  1  0
  4  8  1  0
  5  6  1  0
  5 43  1  0
  5 44  1  0
  6  7  1  0
  6 45  1  0
  6 46  1  0
  7  8  1  0
  7 47  1  0
  7 48  1  0
  8  9  2  0
 10 11  1  0
 10 49  1  0
 11 12  1  0
 11 40  2  0
 12 13  2  0
 12 50  1  0
 13 14  1  0
 13 51  1  0
 14 15  1  0
 14 38  1  0
 15 16  1  0
 15 52  1  0
 15 53  1  0
 16 17  1  0
 16 54  1  0
 16 55  1  0
 17 18  1  0
 17 56  1  0
 17 57  1  0
 18 19  1  0
 18 58  1  0
 18 59  1  0
 19 20  1  0
 19 37  1  0
 20 21  2  0
 20 60  1  0
 21 22  1  0
 21 36  1  0
 22 23  2  0
 22 24  1  0
 24 25  1  0
 24 61  1  0
 25 26  1  0
 25 62  1  0
 25 63  1  0
 26 27  2  0
 26 35  1  0
 27 28  1  0
 27 64  1  0
 28 29  2  0
 28 65  1  0
 29 30  1  0
 29 66  1  0
 30 31  1  0
 30 35  2  0
 31 32  1  1
 31 33  1  0
 31 34  1  0
 35 67  1  0
 36 37  2  0
 38 39  2  0
 38 40  1  0
 40 68  1  0
M  END

