
     RDKit          3D

 52 55  0  0  0  0  0  0  0  0999 V2000
    2.8034    1.3143   -3.3443 C   0  0  0  0  0  0  0  0  0  0  0  0
    3.4780    1.0530   -2.0175 C   0  0  0  0  0  0  0  0  0  0  0  0
    3.6290    2.0745   -1.0666 C   0  0  0  0  0  0  0  0  0  0  0  0
    4.2370    1.7946    0.1576 C   0  0  0  0  0  0  0  0  0  0  0  0
    4.7090    0.5147    0.4538 C   0  0  0  0  0  0  0  0  0  0  0  0
    4.5660   -0.5338   -0.4810 C   0  0  0  0  0  0  0  0  0  0  0  0
    4.9934   -1.8467   -0.2041 N   0  0  0  0  0  0  0  0  0  0  0  0
    5.4315   -2.1730    1.1468 C   0  0  0  0  0  0  0  0  0  0  0  0
    5.3988   -3.6912    1.3750 C   0  0  0  0  0  0  0  0  0  0  0  0
    6.1328   -4.4295    0.3587 N   0  0  0  0  0  0  0  0  0  0  0  0
    7.5247   -4.6975    0.5805 C   0  0  0  0  0  0  0  0  0  0  0  0
    7.8006   -6.1101    0.8882 N   0  0  0  0  0  0  0  0  0  0  0  0
    7.9918   -7.0763   -0.0963 C   0  0  0  0  0  0  0  0  0  0  0  0
    8.0356   -6.8486   -1.2830 O   0  0  0  0  0  0  0  0  0  0  0  0
    8.0975   -8.4235    0.6035 C   0  0  0  0  0  0  0  0  0  0  0  0
    8.1630   -8.1179    2.1136 C   0  0  1  0  0  0  0  0  0  0  0  0
    7.2418   -8.9688    3.0496 C   0  0  0  0  0  0  0  0  0  0  0  0
    8.1441   -9.5284    4.1722 C   0  0  0  0  0  0  0  0  0  0  0  0
    9.3393   -8.5671    4.2144 C   0  0  0  0  0  0  0  0  0  0  0  0
    9.5901   -8.2804    2.7315 C   0  0  0  0  0  0  0  0  0  0  0  0
    7.7868   -6.6287    2.1769 C   0  0  0  0  0  0  0  0  0  0  0  0
    7.5476   -5.9792    3.1720 O   0  0  0  0  0  0  0  0  0  0  0  0
    5.6964   -4.0820   -0.9857 C   0  0  0  0  0  0  0  0  0  0  0  0
    5.7387   -2.5710   -1.2358 C   0  0  0  0  0  0  0  0  0  0  0  0
    3.9434   -0.2309   -1.7112 C   0  0  0  0  0  0  0  0  0  0  0  0
    2.5555    2.3787   -3.4685 H   0  0  0  0  0  0  0  0  0  0  0  0
    1.8659    0.7400   -3.4370 H   0  0  0  0  0  0  0  0  0  0  0  0
    3.4466    1.0168   -4.1891 H   0  0  0  0  0  0  0  0  0  0  0  0
    3.2698    3.0832   -1.2862 H   0  0  0  0  0  0  0  0  0  0  0  0
    4.3614    2.5910    0.8967 H   0  0  0  0  0  0  0  0  0  0  0  0
    5.2020    0.3436    1.4103 H   0  0  0  0  0  0  0  0  0  0  0  0
    4.7559   -1.6932    1.8701 H   0  0  0  0  0  0  0  0  0  0  0  0
    6.4568   -1.7867    1.3500 H   0  0  0  0  0  0  0  0  0  0  0  0
    4.3438   -4.0206    1.3580 H   0  0  0  0  0  0  0  0  0  0  0  0
    5.8024   -3.9371    2.3683 H   0  0  0  0  0  0  0  0  0  0  0  0
    7.9206   -4.1259    1.4331 H   0  0  0  0  0  0  0  0  0  0  0  0
    8.1257   -4.4661   -0.3112 H   0  0  0  0  0  0  0  0  0  0  0  0
    8.9651   -8.9775    0.2150 H   0  0  0  0  0  0  0  0  0  0  0  0
    7.1996   -9.0034    0.3328 H   0  0  0  0  0  0  0  0  0  0  0  0
    6.7355   -9.7678    2.4872 H   0  0  0  0  0  0  0  0  0  0  0  0
    6.4589   -8.3244    3.4766 H   0  0  0  0  0  0  0  0  0  0  0  0
    8.4936  -10.5420    3.9100 H   0  0  0  0  0  0  0  0  0  0  0  0
    7.6174   -9.6084    5.1354 H   0  0  0  0  0  0  0  0  0  0  0  0
   10.2213   -8.9856    4.7246 H   0  0  0  0  0  0  0  0  0  0  0  0
    9.0584   -7.6350    4.7304 H   0  0  0  0  0  0  0  0  0  0  0  0
   10.0772   -9.1502    2.2580 H   0  0  0  0  0  0  0  0  0  0  0  0
   10.2369   -7.4074    2.5486 H   0  0  0  0  0  0  0  0  0  0  0  0
    4.6562   -4.4311   -1.1217 H   0  0  0  0  0  0  0  0  0  0  0  0
    6.3189   -4.6132   -1.7209 H   0  0  0  0  0  0  0  0  0  0  0  0
    5.3172   -2.3537   -2.2253 H   0  0  0  0  0  0  0  0  0  0  0  0
    6.7990   -2.2297   -1.2565 H   0  0  0  0  0  0  0  0  0  0  0  0
    3.7898   -1.0270   -2.4432 H   0  0  0  0  0  0  0  0  0  0  0  0
  1  2  1  0
  1 26  1  0
  1 27  1  0
  1 28  1  0
  2  3  2  0
  2 25  1  0
  3  4  1  0
  3 29  1  0
  4  5  2  0
  4 30  1  0
  5  6  1  0
  5 31  1  0
  6  7  1  0
  6 25  2  0
  7  8  1  0
  7 24  1  0
  8  9  1  0
  8 32  1  0
  8 33  1  0
  9 10  1  0
  9 34  1  0
  9 35  1  0
 10 11  1  0
 10 23  1  0
 11 12  1  0
 11 36  1  0
 11 37  1  0
 12 13  1  0
 12 21  1  0
 13 14  2  0
 13 15  1  0
 15 16  1  0
 15 38  1  0
 15 39  1  0
 16 17  1  0
 16 20  1  0
 16 21  1  6
 17 18  1  0
 17 40  1  0
 17 41  1  0
 18 19  1  0
 18 42  1  0
 18 43  1  0
 19 20  1  0
 19 44  1  0
 19 45  1  0
 20 46  1  0
 20 47  1  0
 21 22  2  0
 23 24  1  0
 23 48  1  0
 23 49  1  0
 24 50  1  0
 24 51  1  0
 25 52  1  0
M  END

