
     RDKit          3D

 49 51  0  0  0  0  0  0  0  0999 V2000
    3.5410    0.1231    1.8325 C   0  0  0  0  0  0  0  0  0  0  0  0
    2.8320    1.3796    1.3811 C   0  0  0  0  0  0  0  0  0  0  0  0
    1.7831    1.7482    1.9073 O   0  0  0  0  0  0  0  0  0  0  0  0
    3.4007    2.1179    0.3656 N   0  0  0  0  0  0  0  0  0  0  0  0
    2.8010    3.4254    0.0529 C   0  0  0  0  0  0  0  0  0  0  0  0
    1.5805    3.3583   -0.8865 C   0  0  0  0  0  0  0  0  0  0  0  0
    1.6752    3.6887   -2.0601 O   0  0  0  0  0  0  0  0  0  0  0  0
    0.4455    2.9113   -0.2738 N   0  0  0  0  0  0  0  0  0  0  0  0
   -0.8354    2.7052   -0.8238 C   0  0  0  0  0  0  0  0  0  0  0  0
   -1.1778    3.0711   -2.1362 C   0  0  0  0  0  0  0  0  0  0  0  0
   -2.4785    2.8494   -2.6315 C   0  0  0  0  0  0  0  0  0  0  0  0
   -3.4010    2.2601   -1.7886 C   0  0  0  0  0  0  0  0  0  0  0  0
   -3.0598    1.8961   -0.4837 C   0  0  0  0  0  0  0  0  0  0  0  0
   -1.7955    2.1017    0.0301 C   0  0  0  0  0  0  0  0  0  0  0  0
   -4.1549    1.3639    0.1388 O   0  0  0  0  0  0  0  0  0  0  0  0
   -5.1530    1.2297   -0.8706 C   0  0  0  0  0  0  0  0  0  0  0  0
   -4.7230    1.9667   -2.0082 O   0  0  0  0  0  0  0  0  0  0  0  0
    4.5876    1.7167   -0.3267 C   0  0  0  0  0  0  0  0  0  0  0  0
    5.7753    2.4418   -0.1450 C   0  0  0  0  0  0  0  0  0  0  0  0
    6.9499    2.0751   -0.8015 C   0  0  0  0  0  0  0  0  0  0  0  0
    6.9526    0.9532   -1.6363 C   0  0  0  0  0  0  0  0  0  0  0  0
    5.7810    0.2189   -1.8208 C   0  0  0  0  0  0  0  0  0  0  0  0
    4.5860    0.5975   -1.1897 C   0  0  0  0  0  0  0  0  0  0  0  0
    3.4632   -0.1613   -1.3360 O   0  0  0  0  0  0  0  0  0  0  0  0
    2.5296    0.1619   -2.4064 C   0  0  1  0  0  0  0  0  0  0  0  0
    3.0359   -0.3514   -3.7503 C   0  0  0  0  0  0  0  0  0  0  0  0
    1.2003   -0.4555   -2.0032 C   0  0  0  0  0  0  0  0  0  0  0  0
    3.0753   -0.2066    2.7690 H   0  0  0  0  0  0  0  0  0  0  0  0
    4.6185    0.2855    1.9810 H   0  0  0  0  0  0  0  0  0  0  0  0
    3.4200   -0.6601    1.0687 H   0  0  0  0  0  0  0  0  0  0  0  0
    3.5486    4.0349   -0.4657 H   0  0  0  0  0  0  0  0  0  0  0  0
    2.5183    3.9125    0.9989 H   0  0  0  0  0  0  0  0  0  0  0  0
    0.5935    2.5897    0.6880 H   0  0  0  0  0  0  0  0  0  0  0  0
   -0.4197    3.5276   -2.7675 H   0  0  0  0  0  0  0  0  0  0  0  0
   -2.7476    3.1394   -3.6484 H   0  0  0  0  0  0  0  0  0  0  0  0
   -1.5456    1.8113    1.0521 H   0  0  0  0  0  0  0  0  0  0  0  0
   -6.1093    1.6355   -0.5021 H   0  0  0  0  0  0  0  0  0  0  0  0
   -5.2682    0.1594   -1.1374 H   0  0  0  0  0  0  0  0  0  0  0  0
    5.7685    3.2992    0.5325 H   0  0  0  0  0  0  0  0  0  0  0  0
    7.8640    2.6529   -0.6471 H   0  0  0  0  0  0  0  0  0  0  0  0
    7.8715    0.6450   -2.1411 H   0  0  0  0  0  0  0  0  0  0  0  0
    5.7701   -0.6712   -2.4522 H   0  0  0  0  0  0  0  0  0  0  0  0
    2.4304    1.2593   -2.4550 H   0  0  0  0  0  0  0  0  0  0  0  0
    3.1758   -1.4443   -3.7224 H   0  0  0  0  0  0  0  0  0  0  0  0
    3.9896    0.1188   -4.0324 H   0  0  0  0  0  0  0  0  0  0  0  0
    2.3051   -0.1151   -4.5397 H   0  0  0  0  0  0  0  0  0  0  0  0
    1.2963   -1.5496   -1.9136 H   0  0  0  0  0  0  0  0  0  0  0  0
    0.4307   -0.2317   -2.7570 H   0  0  0  0  0  0  0  0  0  0  0  0
    0.8588   -0.0546   -1.0381 H   0  0  0  0  0  0  0  0  0  0  0  0
  1  2  1  0
  1 28  1  0
  1 29  1  0
  1 30  1  0
  2  3  2  0
  2  4  1  0
  4  5  1  0
  4 18  1  0
  5  6  1  0
  5 31  1  0
  5 32  1  0
  6  7  2  0
  6  8  1  0
  8  9  1  0
  8 33  1  0
  9 10  2  0
  9 14  1  0
 10 11  1  0
 10 34  1  0
 11 12  2  0
 11 35  1  0
 12 13  1  0
 12 17  1  0
 13 14  2  0
 13 15  1  0
 14 36  1  0
 15 16  1  0
 16 17  1  0
 16 37  1  0
 16 38  1  0
 18 19  2  0
 18 23  1  0
 19 20  1  0
 19 39  1  0
 20 21  2  0
 20 40  1  0
 21 22  1  0
 21 41  1  0
 22 23  2  0
 22 42  1  0
 23 24  1  0
 24 25  1  0
 25 26  1  0
 25 27  1  0
 25 43  1  6
 26 44  1  0
 26 45  1  0
 26 46  1  0
 27 47  1  0
 27 48  1  0
 27 49  1  0
M  END

