
     RDKit          3D

 42 45  0  0  0  0  0  0  0  0999 V2000
    2.3142    0.9739    3.3380 C   0  0  0  0  0  0  0  0  0  0  0  0
    3.5526    0.7155    2.5173 C   0  0  0  0  0  0  0  0  0  0  0  0
    4.1433    1.7277    1.7421 C   0  0  0  0  0  0  0  0  0  0  0  0
    5.2814    1.4783    0.9796 C   0  0  0  0  0  0  0  0  0  0  0  0
    5.8743    0.2038    0.9604 C   0  0  0  0  0  0  0  0  0  0  0  0
    7.1018    0.0228    0.1132 C   0  0  0  0  0  0  0  0  0  0  0  0
    7.5741    0.9734   -0.4941 O   0  0  0  0  0  0  0  0  0  0  0  0
    7.7297   -1.3260    0.0215 C   0  0  0  0  0  0  0  0  0  0  0  0
    8.8498   -1.4980   -0.7125 C   0  0  0  0  0  0  0  0  0  0  0  0
    9.5831   -2.7455   -0.9218 C   0  0  0  0  0  0  0  0  0  0  0  0
    9.0952   -3.9935   -0.5324 C   0  0  0  0  0  0  0  0  0  0  0  0
    9.8241   -5.1783   -0.7491 C   0  0  0  0  0  0  0  0  0  0  0  0
    9.3442   -6.4757   -0.3597 C   0  0  0  0  0  0  0  0  0  0  0  0
   10.0910   -7.5928   -0.5959 C   0  0  0  0  0  0  0  0  0  0  0  0
   11.3758   -7.5149   -1.2397 C   0  0  0  0  0  0  0  0  0  0  0  0
   12.1537   -8.6724   -1.4867 C   0  0  0  0  0  0  0  0  0  0  0  0
   13.3875   -8.5771   -2.1082 C   0  0  0  0  0  0  0  0  0  0  0  0
   13.8871   -7.3181   -2.5051 C   0  0  0  0  0  0  0  0  0  0  0  0
   13.1479   -6.1697   -2.2762 C   0  0  0  0  0  0  0  0  0  0  0  0
   11.8857   -6.2442   -1.6430 C   0  0  0  0  0  0  0  0  0  0  0  0
   11.0908   -5.0582   -1.3904 C   0  0  0  0  0  0  0  0  0  0  0  0
   11.5661   -3.8529   -1.7721 N   0  0  0  0  0  0  0  0  0  0  0  0
   10.8688   -2.7755   -1.5575 C   0  0  0  0  0  0  0  0  0  0  0  0
   11.5997   -1.2679   -2.0946 Cl  0  0  0  0  0  0  0  0  0  0  0  0
    5.2868   -0.8116    1.7367 C   0  0  0  0  0  0  0  0  0  0  0  0
    4.1484   -0.5567    2.5004 C   0  0  0  0  0  0  0  0  0  0  0  0
    2.0372    2.0381    3.3313 H   0  0  0  0  0  0  0  0  0  0  0  0
    2.4574    0.6654    4.3867 H   0  0  0  0  0  0  0  0  0  0  0  0
    1.4547    0.4008    2.9502 H   0  0  0  0  0  0  0  0  0  0  0  0
    3.7012    2.7281    1.7395 H   0  0  0  0  0  0  0  0  0  0  0  0
    5.7425    2.2649    0.3795 H   0  0  0  0  0  0  0  0  0  0  0  0
    7.2732   -2.1587    0.5580 H   0  0  0  0  0  0  0  0  0  0  0  0
    9.2528   -0.6044   -1.1951 H   0  0  0  0  0  0  0  0  0  0  0  0
    8.1146   -4.0638   -0.0555 H   0  0  0  0  0  0  0  0  0  0  0  0
    8.3695   -6.5496    0.1298 H   0  0  0  0  0  0  0  0  0  0  0  0
    9.7202   -8.5767   -0.2965 H   0  0  0  0  0  0  0  0  0  0  0  0
   11.7645   -9.6465   -1.1785 H   0  0  0  0  0  0  0  0  0  0  0  0
   13.9771   -9.4788   -2.2925 H   0  0  0  0  0  0  0  0  0  0  0  0
   14.8617   -7.2509   -2.9950 H   0  0  0  0  0  0  0  0  0  0  0  0
   13.5157   -5.1871   -2.5749 H   0  0  0  0  0  0  0  0  0  0  0  0
    5.7138   -1.8152    1.7611 H   0  0  0  0  0  0  0  0  0  0  0  0
    3.7125   -1.3625    3.0982 H   0  0  0  0  0  0  0  0  0  0  0  0
  1  2  1  0
  1 27  1  0
  1 28  1  0
  1 29  1  0
  2  3  2  0
  2 26  1  0
  3  4  1  0
  3 30  1  0
  4  5  2  0
  4 31  1  0
  5  6  1  0
  5 25  1  0
  6  7  2  0
  6  8  1  0
  8  9  2  0
  8 32  1  0
  9 10  1  0
  9 33  1  0
 10 11  2  0
 10 23  1  0
 11 12  1  0
 11 34  1  0
 12 13  2  0
 12 21  1  0
 13 14  1  0
 13 35  1  0
 14 15  2  0
 14 36  1  0
 15 16  1  0
 15 20  1  0
 16 17  2  0
 16 37  1  0
 17 18  1  0
 17 38  1  0
 18 19  2  0
 18 39  1  0
 19 20  1  0
 19 40  1  0
 20 21  2  0
 21 22  1  0
 22 23  2  0
 23 24  1  0
 25 26  2  0
 25 41  1  0
 26 42  1  0
M  END

