
     RDKit          3D

 42 46  0  0  0  0  0  0  0  0999 V2000
    7.8453   -1.5740   -5.6491 Cl  0  0  0  0  0  0  0  0  0  0  0  0
    7.6834   -1.0404   -3.9876 C   0  0  0  0  0  0  0  0  0  0  0  0
    8.8052   -1.0608   -3.1538 C   0  0  0  0  0  0  0  0  0  0  0  0
    8.6718   -0.6387   -1.8209 C   0  0  0  0  0  0  0  0  0  0  0  0
    7.4349   -0.2201   -1.3501 C   0  0  0  0  0  0  0  0  0  0  0  0
    6.3176   -0.1959   -2.2114 C   0  0  0  0  0  0  0  0  0  0  0  0
    6.4258   -0.6114   -3.5427 C   0  0  0  0  0  0  0  0  0  0  0  0
    5.2066    0.3076   -1.5504 N   0  0  0  0  0  0  0  0  0  0  0  0
    5.4551    0.2740   -0.1076 C   0  0  0  0  0  0  0  0  0  0  0  0
    7.0101    0.3443   -0.0026 C   0  0  1  0  0  0  0  0  0  0  0  0
    7.5576   -0.3231    1.2372 C   0  0  0  0  0  0  0  0  0  0  0  0
    7.9704    0.4717    2.2257 N   0  0  0  0  0  0  0  0  0  0  0  0
    8.4288   -0.0782    3.3686 C   0  0  0  0  0  0  0  0  0  0  0  0
    8.5296   -1.3680    3.6613 N   0  0  0  0  0  0  0  0  0  0  0  0
    8.1199   -2.1630    2.6691 C   0  0  0  0  0  0  0  0  0  0  0  0
    7.6185   -1.7238    1.4143 C   0  0  0  0  0  0  0  0  0  0  0  0
    7.3293   -2.9413    0.7189 C   0  0  0  0  0  0  0  0  0  0  0  0
    7.6202   -3.9856    1.4713 N   0  0  0  0  0  0  0  0  0  0  0  0
    8.0980   -3.5252    2.6506 N   0  0  0  0  0  0  0  0  0  0  0  0
    8.5103   -4.4325    3.7137 C   0  0  1  0  0  0  0  0  0  0  0  0
    7.3799   -5.3324    4.2440 C   0  0  0  0  0  0  0  0  0  0  0  0
    8.1483   -6.4371    4.9752 C   0  0  0  0  0  0  0  0  0  0  0  0
    9.3308   -6.7459    4.0317 C   0  0  0  0  0  0  0  0  0  0  0  0
    9.6432   -5.4122    3.3013 C   0  0  0  0  0  0  0  0  0  0  0  0
    9.7646   -1.4034   -3.5421 H   0  0  0  0  0  0  0  0  0  0  0  0
    9.5433   -0.6525   -1.1611 H   0  0  0  0  0  0  0  0  0  0  0  0
    5.5721   -0.6058   -4.2217 H   0  0  0  0  0  0  0  0  0  0  0  0
    4.2840    0.0492   -1.8822 H   0  0  0  0  0  0  0  0  0  0  0  0
    5.0881   -0.6675    0.3483 H   0  0  0  0  0  0  0  0  0  0  0  0
    4.9699    1.1140    0.4110 H   0  0  0  0  0  0  0  0  0  0  0  0
    7.3139    1.4024    0.0669 H   0  0  0  0  0  0  0  0  0  0  0  0
    8.7537    0.6281    4.1417 H   0  0  0  0  0  0  0  0  0  0  0  0
    6.9381   -3.0835   -0.2871 H   0  0  0  0  0  0  0  0  0  0  0  0
    8.8567   -3.7677    4.5188 H   0  0  0  0  0  0  0  0  0  0  0  0
    6.8248   -5.7483    3.3868 H   0  0  0  0  0  0  0  0  0  0  0  0
    6.6664   -4.7848    4.8792 H   0  0  0  0  0  0  0  0  0  0  0  0
    7.5307   -7.3213    5.1959 H   0  0  0  0  0  0  0  0  0  0  0  0
    8.5206   -6.0536    5.9413 H   0  0  0  0  0  0  0  0  0  0  0  0
    9.0305   -7.5129    3.3001 H   0  0  0  0  0  0  0  0  0  0  0  0
   10.2018   -7.1473    4.5715 H   0  0  0  0  0  0  0  0  0  0  0  0
    9.6295   -5.5439    2.2100 H   0  0  0  0  0  0  0  0  0  0  0  0
   10.6292   -5.0034    3.5693 H   0  0  0  0  0  0  0  0  0  0  0  0
  1  2  1  0
  2  3  2  0
  2  7  1  0
  3  4  1  0
  3 25  1  0
  4  5  2  0
  4 26  1  0
  5  6  1  0
  5 10  1  0
  6  7  2  0
  6  8  1  0
  7 27  1  0
  8  9  1  0
  8 28  1  0
  9 10  1  0
  9 29  1  0
  9 30  1  0
 10 11  1  0
 10 31  1  6
 11 12  2  0
 11 16  1  0
 12 13  1  0
 13 14  2  0
 13 32  1  0
 14 15  1  0
 15 16  2  0
 15 19  1  0
 16 17  1  0
 17 18  2  0
 17 33  1  0
 18 19  1  0
 19 20  1  0
 20 21  1  0
 20 24  1  0
 20 34  1  1
 21 22  1  0
 21 35  1  0
 21 36  1  0
 22 23  1  0
 22 37  1  0
 22 38  1  0
 23 24  1  0
 23 39  1  0
 23 40  1  0
 24 41  1  0
 24 42  1  0
M  END

