
     RDKit          3D

 49 53  0  0  0  0  0  0  0  0999 V2000
    1.4077    1.7996    0.4541 C   0  0  0  0  0  0  0  0  0  0  0  0
    2.7871    1.2702    0.0603 C   0  0  2  0  0  0  0  0  0  0  0  0
    3.1195    1.6608   -1.3849 C   0  0  0  0  0  0  0  0  0  0  0  0
    2.8605   -0.2443    0.3270 C   0  0  0  0  0  0  0  0  0  0  0  0
    4.2764   -0.8501    0.2791 C   0  0  1  0  0  0  0  0  0  0  0  0
    4.6394   -1.4173   -1.0437 N   0  0  0  0  0  0  0  0  0  0  0  0
    5.4690   -0.8588   -2.0242 C   0  0  0  0  0  0  0  0  0  0  0  0
    6.0123    0.2040   -2.0548 O   0  0  0  0  0  0  0  0  0  0  0  0
    5.5694   -1.7909   -3.0496 O   0  0  0  0  0  0  0  0  0  0  0  0
    4.8223   -2.8827   -2.7215 C   0  0  0  0  0  0  0  0  0  0  0  0
    4.6438   -4.0437   -3.4440 C   0  0  0  0  0  0  0  0  0  0  0  0
    3.8187   -5.0287   -2.8663 C   0  0  0  0  0  0  0  0  0  0  0  0
    3.6154   -6.5795   -3.7378 S   0  0  1  0  0  0  0  0  0  0  0  0
    4.2708   -6.4146   -5.0283 O   0  0  0  0  0  0  0  0  0  0  0  0
    3.9047   -7.6871   -2.8333 O   0  0  0  0  0  0  0  0  0  0  0  0
    1.9606   -6.6868   -4.0552 N   0  0  0  0  0  0  0  0  0  0  0  0
    1.0259   -7.4694   -3.4055 C   0  0  0  0  0  0  0  0  0  0  0  0
   -0.2492   -7.3436   -3.6647 N   0  0  0  0  0  0  0  0  0  0  0  0
   -0.9385   -8.2544   -2.9117 C   0  0  0  0  0  0  0  0  0  0  0  0
   -0.3011   -9.0551   -2.1003 N   0  0  0  0  0  0  0  0  0  0  0  0
    1.3436   -8.7311   -2.2280 S   0  0  0  0  0  0  0  0  0  0  0  0
    3.2250   -4.8185   -1.6136 C   0  0  0  0  0  0  0  0  0  0  0  0
    2.4304   -5.7588   -1.0998 F   0  0  0  0  0  0  0  0  0  0  0  0
    3.4087   -3.6396   -0.8874 C   0  0  0  0  0  0  0  0  0  0  0  0
    4.2277   -2.6704   -1.4656 C   0  0  0  0  0  0  0  0  0  0  0  0
    5.3037    0.1048    0.8474 C   0  0  0  0  0  0  0  0  0  0  0  0
    6.6019   -0.3339    1.1551 C   0  0  0  0  0  0  0  0  0  0  0  0
    7.5354    0.5138    1.7424 C   0  0  0  0  0  0  0  0  0  0  0  0
    7.1660    1.8324    2.0453 C   0  0  0  0  0  0  0  0  0  0  0  0
    5.8840    2.2863    1.7575 C   0  0  0  0  0  0  0  0  0  0  0  0
    4.9450    1.4300    1.1553 C   0  0  0  0  0  0  0  0  0  0  0  0
    3.7078    1.9471    0.9445 O   0  0  0  0  0  0  0  0  0  0  0  0
    0.6273    1.3657   -0.1897 H   0  0  0  0  0  0  0  0  0  0  0  0
    1.3811    2.8937    0.3442 H   0  0  0  0  0  0  0  0  0  0  0  0
    1.1784    1.5544    1.5020 H   0  0  0  0  0  0  0  0  0  0  0  0
    2.4545    1.1402   -2.0925 H   0  0  0  0  0  0  0  0  0  0  0  0
    4.1615    1.4321   -1.6437 H   0  0  0  0  0  0  0  0  0  0  0  0
    2.9742    2.7439   -1.5141 H   0  0  0  0  0  0  0  0  0  0  0  0
    2.1891   -0.7771   -0.3637 H   0  0  0  0  0  0  0  0  0  0  0  0
    2.4729   -0.4182    1.3440 H   0  0  0  0  0  0  0  0  0  0  0  0
    4.2668   -1.7370    0.9338 H   0  0  0  0  0  0  0  0  0  0  0  0
    5.1126   -4.2128   -4.4134 H   0  0  0  0  0  0  0  0  0  0  0  0
    1.6078   -6.1044   -4.8125 H   0  0  0  0  0  0  0  0  0  0  0  0
   -2.0288   -8.3039   -2.9884 H   0  0  0  0  0  0  0  0  0  0  0  0
    2.9133   -3.5216    0.0758 H   0  0  0  0  0  0  0  0  0  0  0  0
    6.8784   -1.3672    0.9240 H   0  0  0  0  0  0  0  0  0  0  0  0
    8.5416    0.1541    1.9672 H   0  0  0  0  0  0  0  0  0  0  0  0
    7.8863    2.5107    2.5095 H   0  0  0  0  0  0  0  0  0  0  0  0
    5.5732    3.3078    1.9848 H   0  0  0  0  0  0  0  0  0  0  0  0
  2  1  1  1
  1 33  1  0
  1 34  1  0
  1 35  1  0
  2  3  1  0
  2  4  1  0
  2 32  1  0
  3 36  1  0
  3 37  1  0
  3 38  1  0
  4  5  1  0
  4 39  1  0
  4 40  1  0
  5  6  1  0
  5 26  1  0
  5 41  1  1
  6  7  1  0
  6 25  1  0
  7  8  2  0
  7  9  1  0
  9 10  1  0
 10 11  1  0
 10 25  2  0
 11 12  2  0
 11 42  1  0
 12 13  1  0
 12 22  1  0
 13 14  2  0
 13 15  2  0
 13 16  1  6
 16 17  1  0
 16 43  1  0
 17 18  2  0
 17 21  1  0
 18 19  1  0
 19 20  2  0
 19 44  1  0
 20 21  1  0
 22 23  1  0
 22 24  2  0
 24 25  1  0
 24 45  1  0
 26 27  1  0
 26 31  2  0
 27 28  2  0
 27 46  1  0
 28 29  1  0
 28 47  1  0
 29 30  2  0
 29 48  1  0
 30 31  1  0
 30 49  1  0
 31 32  1  0
M  END

