
     RDKit          3D

 40 42  0  0  0  0  0  0  0  0999 V2000
    0.7539   -0.3396    0.2974 C   0  0  0  0  0  0  0  0  0  0  0  0
    2.2327   -0.1288    0.3284 C   0  0  0  0  0  0  0  0  0  0  0  0
    2.9645    1.0227    0.4958 C   0  0  0  0  0  0  0  0  0  0  0  0
    4.3603    0.6893    0.4294 C   0  0  0  0  0  0  0  0  0  0  0  0
    5.5503    1.5863    0.4658 C   0  0  0  0  0  0  0  0  0  0  0  0
    6.5685    1.3261   -0.1741 O   0  0  0  0  0  0  0  0  0  0  0  0
    5.4903    2.7228    1.2435 N   0  0  0  0  0  0  0  0  0  0  0  0
    6.6844    3.5685    1.3637 C   0  0  0  0  0  0  0  0  0  0  0  0
    6.6693    4.0049    2.8300 C   0  0  0  0  0  0  0  0  0  0  0  0
    5.1699    4.1527    3.1188 C   0  0  0  0  0  0  0  0  0  0  0  0
    4.5174    3.0163    2.3069 C   0  0  0  0  0  0  0  0  0  0  0  0
    4.4411   -0.6854    0.2172 C   0  0  0  0  0  0  0  0  0  0  0  0
    5.6293   -1.5726    0.0285 C   0  0  0  0  0  0  0  0  0  0  0  0
    3.1436   -1.1739    0.1768 N   0  0  0  0  0  0  0  0  0  0  0  0
    2.7935   -2.5404    0.0003 C   0  0  0  0  0  0  0  0  0  0  0  0
    3.0140   -3.4888    1.0086 C   0  0  0  0  0  0  0  0  0  0  0  0
    2.6789   -4.8306    0.8134 C   0  0  0  0  0  0  0  0  0  0  0  0
    2.1060   -5.2381   -0.3956 C   0  0  0  0  0  0  0  0  0  0  0  0
    1.8702   -4.3069   -1.4098 C   0  0  0  0  0  0  0  0  0  0  0  0
    2.2193   -2.9748   -1.2034 C   0  0  0  0  0  0  0  0  0  0  0  0
    1.9954   -2.0835   -2.1761 F   0  0  0  0  0  0  0  0  0  0  0  0
    0.2429    0.6110    0.5049 H   0  0  0  0  0  0  0  0  0  0  0  0
    0.4203   -1.0723    1.0523 H   0  0  0  0  0  0  0  0  0  0  0  0
    0.4073   -0.6994   -0.6860 H   0  0  0  0  0  0  0  0  0  0  0  0
    2.5300    2.0118    0.6106 H   0  0  0  0  0  0  0  0  0  0  0  0
    6.6141    4.4421    0.6874 H   0  0  0  0  0  0  0  0  0  0  0  0
    7.5691    2.9919    1.0652 H   0  0  0  0  0  0  0  0  0  0  0  0
    7.2394    4.9289    3.0099 H   0  0  0  0  0  0  0  0  0  0  0  0
    7.1060    3.2121    3.4608 H   0  0  0  0  0  0  0  0  0  0  0  0
    4.8136    5.1290    2.7501 H   0  0  0  0  0  0  0  0  0  0  0  0
    4.9175    4.0962    4.1885 H   0  0  0  0  0  0  0  0  0  0  0  0
    3.5427    3.3347    1.9069 H   0  0  0  0  0  0  0  0  0  0  0  0
    4.3357    2.1186    2.9223 H   0  0  0  0  0  0  0  0  0  0  0  0
    6.5199   -0.9444   -0.0863 H   0  0  0  0  0  0  0  0  0  0  0  0
    5.5243   -2.1918   -0.8781 H   0  0  0  0  0  0  0  0  0  0  0  0
    5.7799   -2.2637    0.8758 H   0  0  0  0  0  0  0  0  0  0  0  0
    3.4506   -3.1531    1.9513 H   0  0  0  0  0  0  0  0  0  0  0  0
    2.8596   -5.5569    1.6087 H   0  0  0  0  0  0  0  0  0  0  0  0
    1.8385   -6.2857   -0.5526 H   0  0  0  0  0  0  0  0  0  0  0  0
    1.4255   -4.5923   -2.3651 H   0  0  0  0  0  0  0  0  0  0  0  0
  1  2  1  0
  1 22  1  0
  1 23  1  0
  1 24  1  0
  2  3  2  0
  2 14  1  0
  3  4  1  0
  3 25  1  0
  4  5  1  0
  4 12  2  0
  5  6  2  0
  5  7  1  0
  7  8  1  0
  7 11  1  0
  8  9  1  0
  8 26  1  0
  8 27  1  0
  9 10  1  0
  9 28  1  0
  9 29  1  0
 10 11  1  0
 10 30  1  0
 10 31  1  0
 11 32  1  0
 11 33  1  0
 12 13  1  0
 12 14  1  0
 13 34  1  0
 13 35  1  0
 13 36  1  0
 14 15  1  0
 15 16  2  0
 15 20  1  0
 16 17  1  0
 16 37  1  0
 17 18  2  0
 17 38  1  0
 18 19  1  0
 18 39  1  0
 19 20  2  0
 19 40  1  0
 20 21  1  0
M  END

