
     RDKit          3D

 38 39  0  0  0  0  0  0  0  0999 V2000
    0.7969    0.1289    0.2037 C   0  0  0  0  0  0  0  0  0  0  0  0
    2.3293    0.0955    0.0577 C   0  0  1  0  0  0  0  0  0  0  0  0
    2.8148   -1.1683    0.5062 O   0  0  0  0  0  0  0  0  0  0  0  0
    2.7937    0.3383   -1.4049 C   0  0  0  0  0  0  0  0  0  0  0  0
    2.3639   -0.7265   -2.4183 C   0  0  0  0  0  0  0  0  0  0  0  0
    2.9315   -0.4711   -3.8273 C   0  0  0  0  0  0  0  0  0  0  0  0
    2.5264   -1.5254   -4.8341 C   0  0  0  0  0  0  0  0  0  0  0  0
    1.3664   -1.3753   -5.6111 C   0  0  0  0  0  0  0  0  0  0  0  0
    0.9693   -2.3673   -6.5123 C   0  0  0  0  0  0  0  0  0  0  0  0
    1.7287   -3.5325   -6.6529 C   0  0  0  0  0  0  0  0  0  0  0  0
    2.8871   -3.6957   -5.8872 C   0  0  0  0  0  0  0  0  0  0  0  0
    3.2797   -2.7008   -4.9877 C   0  0  0  0  0  0  0  0  0  0  0  0
    2.9617    1.1553    0.9672 C   0  0  0  0  0  0  0  0  0  0  0  0
    3.8470    0.7769    1.9846 C   0  0  0  0  0  0  0  0  0  0  0  0
    4.4130    1.7585    2.7955 C   0  0  0  0  0  0  0  0  0  0  0  0
    5.2585    1.3863    3.7666 F   0  0  0  0  0  0  0  0  0  0  0  0
    4.1361    3.1137    2.6396 C   0  0  0  0  0  0  0  0  0  0  0  0
    3.2526    3.4621    1.6206 C   0  0  0  0  0  0  0  0  0  0  0  0
    2.9586    4.7578    1.4388 F   0  0  0  0  0  0  0  0  0  0  0  0
    2.6639    2.5164    0.7867 C   0  0  0  0  0  0  0  0  0  0  0  0
    0.3285   -0.6675   -0.3977 H   0  0  0  0  0  0  0  0  0  0  0  0
    0.3721    1.0881   -0.1276 H   0  0  0  0  0  0  0  0  0  0  0  0
    0.5206   -0.0282    1.2566 H   0  0  0  0  0  0  0  0  0  0  0  0
    2.2917   -1.8595    0.0825 H   0  0  0  0  0  0  0  0  0  0  0  0
    3.8950    0.3935   -1.3886 H   0  0  0  0  0  0  0  0  0  0  0  0
    2.4377    1.3275   -1.7389 H   0  0  0  0  0  0  0  0  0  0  0  0
    1.2639   -0.7815   -2.4871 H   0  0  0  0  0  0  0  0  0  0  0  0
    2.7064   -1.7195   -2.0789 H   0  0  0  0  0  0  0  0  0  0  0  0
    4.0320   -0.4217   -3.7653 H   0  0  0  0  0  0  0  0  0  0  0  0
    2.5957    0.5207   -4.1757 H   0  0  0  0  0  0  0  0  0  0  0  0
    0.7686   -0.4639   -5.5129 H   0  0  0  0  0  0  0  0  0  0  0  0
    0.0651   -2.2273   -7.1106 H   0  0  0  0  0  0  0  0  0  0  0  0
    1.4219   -4.3079   -7.3595 H   0  0  0  0  0  0  0  0  0  0  0  0
    3.4913   -4.6005   -5.9941 H   0  0  0  0  0  0  0  0  0  0  0  0
    4.1914   -2.8351   -4.3975 H   0  0  0  0  0  0  0  0  0  0  0  0
    4.0917   -0.2711    2.1454 H   0  0  0  0  0  0  0  0  0  0  0  0
    4.5884    3.8672    3.2845 H   0  0  0  0  0  0  0  0  0  0  0  0
    1.9808    2.8663    0.0116 H   0  0  0  0  0  0  0  0  0  0  0  0
  1  2  1  0
  1 21  1  0
  1 22  1  0
  1 23  1  0
  2  3  1  1
  2  4  1  0
  2 13  1  0
  3 24  1  0
  4  5  1  0
  4 25  1  0
  4 26  1  0
  5  6  1  0
  5 27  1  0
  5 28  1  0
  6  7  1  0
  6 29  1  0
  6 30  1  0
  7  8  2  0
  7 12  1  0
  8  9  1  0
  8 31  1  0
  9 10  2  0
  9 32  1  0
 10 11  1  0
 10 33  1  0
 11 12  2  0
 11 34  1  0
 12 35  1  0
 13 14  2  0
 13 20  1  0
 14 15  1  0
 14 36  1  0
 15 16  1  0
 15 17  2  0
 17 18  1  0
 17 37  1  0
 18 19  1  0
 18 20  2  0
 20 38  1  0
M  END

