
     RDKit          3D

 36 38  0  0  0  0  0  0  0  0999 V2000
    1.3916    0.1821    0.9983 O   0  0  0  0  0  0  0  0  0  0  0  0
    2.2144    0.0635    0.0964 C   0  0  0  0  0  0  0  0  0  0  0  0
    2.0650   -1.1632   -0.7665 C   0  0  0  0  0  0  0  0  0  0  0  0
    1.0937   -2.1776   -0.4800 C   0  0  0  0  0  0  0  0  0  0  0  0
    1.1708   -3.1039   -1.3904 N   0  0  0  0  0  0  0  0  0  0  0  0
    2.1580   -2.7004   -2.2426 O   0  0  0  0  0  0  0  0  0  0  0  0
    2.6974   -1.5187   -1.8577 N   0  0  0  0  0  0  0  0  0  0  0  0
    3.2122    0.9652   -0.1265 N   0  0  0  0  0  0  0  0  0  0  0  0
    4.2549    0.9227   -1.1550 C   0  0  0  0  0  0  0  0  0  0  0  0
    4.2553    2.2359   -1.9591 C   0  0  0  0  0  0  0  0  0  0  0  0
    4.3473    3.4308   -1.1264 N   0  0  0  0  0  0  0  0  0  0  0  0
    5.6904    3.7771   -0.6760 C   0  0  0  0  0  0  0  0  0  0  0  0
    6.5953    4.2538   -1.8001 C   0  0  0  0  0  0  0  0  0  0  0  0
    6.1089    5.1230   -2.7895 C   0  0  0  0  0  0  0  0  0  0  0  0
    6.9525    5.6003   -3.7948 C   0  0  0  0  0  0  0  0  0  0  0  0
    8.2980    5.2166   -3.8276 C   0  0  0  0  0  0  0  0  0  0  0  0
    8.7912    4.3489   -2.8500 C   0  0  0  0  0  0  0  0  0  0  0  0
    7.9426    3.8694   -1.8465 C   0  0  0  0  0  0  0  0  0  0  0  0
    3.3147    3.4216   -0.0977 C   0  0  0  0  0  0  0  0  0  0  0  0
    3.2967    2.1380    0.7486 C   0  0  0  0  0  0  0  0  0  0  0  0
    0.3855   -2.2181    0.3441 H   0  0  0  0  0  0  0  0  0  0  0  0
    4.0985    0.0702   -1.8225 H   0  0  0  0  0  0  0  0  0  0  0  0
    5.2320    0.7817   -0.6561 H   0  0  0  0  0  0  0  0  0  0  0  0
    3.3173    2.2854   -2.5410 H   0  0  0  0  0  0  0  0  0  0  0  0
    5.0861    2.2268   -2.6807 H   0  0  0  0  0  0  0  0  0  0  0  0
    6.2093    2.9583   -0.1310 H   0  0  0  0  0  0  0  0  0  0  0  0
    5.5812    4.5966    0.0567 H   0  0  0  0  0  0  0  0  0  0  0  0
    5.0551    5.4103   -2.7647 H   0  0  0  0  0  0  0  0  0  0  0  0
    6.5587    6.2766   -4.5584 H   0  0  0  0  0  0  0  0  0  0  0  0
    8.9576    5.5897   -4.6153 H   0  0  0  0  0  0  0  0  0  0  0  0
    9.8390    4.0376   -2.8706 H   0  0  0  0  0  0  0  0  0  0  0  0
    8.3343    3.1854   -1.0872 H   0  0  0  0  0  0  0  0  0  0  0  0
    2.3311    3.5239   -0.5909 H   0  0  0  0  0  0  0  0  0  0  0  0
    3.4431    4.2968    0.5589 H   0  0  0  0  0  0  0  0  0  0  0  0
    2.4381    2.1171    1.4303 H   0  0  0  0  0  0  0  0  0  0  0  0
    4.2182    2.0633    1.3557 H   0  0  0  0  0  0  0  0  0  0  0  0
  1  2  2  0
  2  3  1  0
  2  8  1  0
  3  4  1  0
  3  7  2  0
  4  5  2  0
  4 21  1  0
  5  6  1  0
  6  7  1  0
  8  9  1  0
  8 20  1  0
  9 10  1  0
  9 22  1  0
  9 23  1  0
 10 11  1  0
 10 24  1  0
 10 25  1  0
 11 12  1  0
 11 19  1  0
 12 13  1  0
 12 26  1  0
 12 27  1  0
 13 14  2  0
 13 18  1  0
 14 15  1  0
 14 28  1  0
 15 16  2  0
 15 29  1  0
 16 17  1  0
 16 30  1  0
 17 18  2  0
 17 31  1  0
 18 32  1  0
 19 20  1  0
 19 33  1  0
 19 34  1  0
 20 35  1  0
 20 36  1  0
M  END

