
     RDKit          3D

 66 68  0  0  0  0  0  0  0  0999 V2000
    3.8794   -1.0655    0.1684 C   0  0  0  0  0  0  0  0  0  0  0  0
    3.3489   -0.5267    1.4621 C   0  0  0  0  0  0  0  0  0  0  0  0
    3.6562    0.7021    1.8634 N   0  0  0  0  0  0  0  0  0  0  0  0
    3.0448    0.8583    3.0552 N   0  0  0  0  0  0  0  0  0  0  0  0
    3.1573    2.1386    3.7154 C   0  0  0  0  0  0  0  0  0  0  0  0
    2.3431    3.2441    3.0112 C   0  0  0  0  0  0  0  0  0  0  0  0
    0.8961    3.0383    3.1000 C   0  0  0  0  0  0  0  0  0  0  0  0
   -0.2424    2.8477    3.2017 N   0  0  0  0  0  0  0  0  0  0  0  0
    2.3346   -0.2531    3.4315 C   0  0  0  0  0  0  0  0  0  0  0  0
    1.5548   -0.3421    4.7049 C   0  0  0  0  0  0  0  0  0  0  0  0
    2.5152   -1.1864    2.4152 C   0  0  0  0  0  0  0  0  0  0  0  0
    1.9405   -2.5709    2.3241 C   0  0  0  0  0  0  0  0  0  0  0  0
    0.6049   -2.6437    1.5643 C   0  0  0  0  0  0  0  0  0  0  0  0
   -0.0267   -4.0329    1.6369 C   0  0  0  0  0  0  0  0  0  0  0  0
    0.0997   -4.7479    2.6212 O   0  0  0  0  0  0  0  0  0  0  0  0
   -0.7586   -4.3981    0.5428 N   0  0  0  0  0  0  0  0  0  0  0  0
   -1.4544   -5.6678    0.4369 C   0  0  0  0  0  0  0  0  0  0  0  0
   -3.0092   -5.5793    0.4872 C   0  0  1  0  0  0  0  0  0  0  0  0
   -3.5610   -4.7930   -0.6530 N   0  0  0  0  0  0  0  0  0  0  0  0
   -3.1627   -5.2033   -1.9942 C   0  0  0  0  0  0  0  0  0  0  0  0
   -4.1918   -4.7643   -3.0428 C   0  0  0  0  0  0  0  0  0  0  0  0
   -4.4242   -3.2522   -2.9853 C   0  0  0  0  0  0  0  0  0  0  0  0
   -4.7356   -2.8195   -1.5503 C   0  0  0  0  0  0  0  0  0  0  0  0
   -3.6765   -3.3411   -0.5705 C   0  0  0  0  0  0  0  0  0  0  0  0
   -3.5869   -7.0224    0.3910 C   0  0  0  0  0  0  0  0  0  0  0  0
   -3.3395   -7.9069    1.6212 C   0  0  0  0  0  0  0  0  0  0  0  0
   -3.8391   -7.2420    2.9055 C   0  0  0  0  0  0  0  0  0  0  0  0
   -3.2303   -5.8466    3.0602 C   0  0  0  0  0  0  0  0  0  0  0  0
   -3.4858   -4.9670    1.8272 C   0  0  0  0  0  0  0  0  0  0  0  0
    4.5283   -0.3171   -0.3075 H   0  0  0  0  0  0  0  0  0  0  0  0
    3.0682   -1.3149   -0.5362 H   0  0  0  0  0  0  0  0  0  0  0  0
    4.4679   -1.9854    0.3231 H   0  0  0  0  0  0  0  0  0  0  0  0
    4.2164    2.4372    3.7080 H   0  0  0  0  0  0  0  0  0  0  0  0
    2.8397    2.0312    4.7614 H   0  0  0  0  0  0  0  0  0  0  0  0
    2.6396    3.2740    1.9507 H   0  0  0  0  0  0  0  0  0  0  0  0
    2.5876    4.2242    3.4535 H   0  0  0  0  0  0  0  0  0  0  0  0
    2.1729   -0.1062    5.5878 H   0  0  0  0  0  0  0  0  0  0  0  0
    1.1721   -1.3632    4.8379 H   0  0  0  0  0  0  0  0  0  0  0  0
    0.6897    0.3417    4.7077 H   0  0  0  0  0  0  0  0  0  0  0  0
    1.7749   -2.9961    3.3253 H   0  0  0  0  0  0  0  0  0  0  0  0
    2.6660   -3.2424    1.8344 H   0  0  0  0  0  0  0  0  0  0  0  0
    0.7279   -2.3205    0.5171 H   0  0  0  0  0  0  0  0  0  0  0  0
   -0.1117   -1.9372    2.0199 H   0  0  0  0  0  0  0  0  0  0  0  0
   -0.8009   -3.7581   -0.2405 H   0  0  0  0  0  0  0  0  0  0  0  0
   -1.0764   -6.2916    1.2565 H   0  0  0  0  0  0  0  0  0  0  0  0
   -1.1578   -6.1609   -0.5037 H   0  0  0  0  0  0  0  0  0  0  0  0
   -3.0500   -6.2945   -2.0360 H   0  0  0  0  0  0  0  0  0  0  0  0
   -2.1698   -4.7752   -2.2813 H   0  0  0  0  0  0  0  0  0  0  0  0
   -5.1392   -5.2950   -2.8458 H   0  0  0  0  0  0  0  0  0  0  0  0
   -3.8483   -5.0700   -4.0459 H   0  0  0  0  0  0  0  0  0  0  0  0
   -5.2329   -2.9518   -3.6724 H   0  0  0  0  0  0  0  0  0  0  0  0
   -3.5116   -2.7313   -3.3311 H   0  0  0  0  0  0  0  0  0  0  0  0
   -5.7182   -3.2192   -1.2453 H   0  0  0  0  0  0  0  0  0  0  0  0
   -4.7922   -1.7201   -1.4770 H   0  0  0  0  0  0  0  0  0  0  0  0
   -3.9516   -3.0383    0.4456 H   0  0  0  0  0  0  0  0  0  0  0  0
   -2.7120   -2.8248   -0.8020 H   0  0  0  0  0  0  0  0  0  0  0  0
   -3.1900   -7.5344   -0.5001 H   0  0  0  0  0  0  0  0  0  0  0  0
   -4.6722   -6.9127    0.2284 H   0  0  0  0  0  0  0  0  0  0  0  0
   -2.2630   -8.1333    1.7203 H   0  0  0  0  0  0  0  0  0  0  0  0
   -3.8381   -8.8791    1.4686 H   0  0  0  0  0  0  0  0  0  0  0  0
   -3.6029   -7.8675    3.7827 H   0  0  0  0  0  0  0  0  0  0  0  0
   -4.9415   -7.1603    2.8662 H   0  0  0  0  0  0  0  0  0  0  0  0
   -2.1456   -5.9206    3.2445 H   0  0  0  0  0  0  0  0  0  0  0  0
   -3.6528   -5.3410    3.9448 H   0  0  0  0  0  0  0  0  0  0  0  0
   -3.0071   -3.9895    1.9885 H   0  0  0  0  0  0  0  0  0  0  0  0
   -4.5700   -4.7799    1.7341 H   0  0  0  0  0  0  0  0  0  0  0  0
  1  2  1  0
  1 30  1  0
  1 31  1  0
  1 32  1  0
  2  3  2  0
  2 11  1  0
  3  4  1  0
  4  5  1  0
  4  9  1  0
  5  6  1  0
  5 33  1  0
  5 34  1  0
  6  7  1  0
  6 35  1  0
  6 36  1  0
  7  8  3  0
  9 10  1  0
  9 11  2  0
 10 37  1  0
 10 38  1  0
 10 39  1  0
 11 12  1  0
 12 13  1  0
 12 40  1  0
 12 41  1  0
 13 14  1  0
 13 42  1  0
 13 43  1  0
 14 15  2  0
 14 16  1  0
 16 17  1  0
 16 44  1  0
 18 17  1  1
 17 45  1  0
 17 46  1  0
 18 19  1  0
 18 25  1  0
 18 29  1  0
 19 20  1  0
 19 24  1  0
 20 21  1  0
 20 47  1  0
 20 48  1  0
 21 22  1  0
 21 49  1  0
 21 50  1  0
 22 23  1  0
 22 51  1  0
 22 52  1  0
 23 24  1  0
 23 53  1  0
 23 54  1  0
 24 55  1  0
 24 56  1  0
 25 26  1  0
 25 57  1  0
 25 58  1  0
 26 27  1  0
 26 59  1  0
 26 60  1  0
 27 28  1  0
 27 61  1  0
 27 62  1  0
 28 29  1  0
 28 63  1  0
 28 64  1  0
 29 65  1  0
 29 66  1  0
M  END

