
     RDKit          3D

 32 33  0  0  0  0  0  0  0  0999 V2000
    0.7609    0.8624    0.1023 O   0  0  0  0  0  0  0  0  0  0  0  0
    1.7884    0.7174   -0.5134 C   0  0  0  0  0  0  0  0  0  0  0  0
    2.6130   -0.5614   -0.4752 C   0  0  0  0  0  0  0  0  0  0  0  0
    3.5256   -0.6783   -1.5979 N   0  0  0  0  0  0  0  0  0  0  0  0
    3.5202   -1.8431   -2.3480 C   0  0  0  0  0  0  0  0  0  0  0  0
    2.7680   -2.7621   -2.0688 O   0  0  0  0  0  0  0  0  0  0  0  0
    4.4894   -1.9260   -3.5220 C   0  0  0  0  0  0  0  0  0  0  0  0
    4.4926   -3.3119   -4.1933 C   0  0  1  0  0  0  0  0  0  0  0  0
    3.2682   -3.5846   -5.0882 C   0  0  0  0  0  0  0  0  0  0  0  0
    3.3081   -2.8894   -6.3699 N   0  0  0  0  0  0  0  0  0  0  0  0
    4.5782   -3.1043   -7.0545 C   0  0  0  0  0  0  0  0  0  0  0  0
    5.7811   -2.8025   -6.1609 C   0  0  0  0  0  0  0  0  0  0  0  0
    5.7000   -3.5038   -4.9302 O   0  0  0  0  0  0  0  0  0  0  0  0
    4.3605    0.4812   -1.8328 C   0  0  0  0  0  0  0  0  0  0  0  0
    3.5491    1.7704   -1.9433 C   0  0  0  0  0  0  0  0  0  0  0  0
    3.9503    2.7501   -2.5255 O   0  0  0  0  0  0  0  0  0  0  0  0
    2.3216    1.7477   -1.2924 N   0  0  0  0  0  0  0  0  0  0  0  0
    1.9290   -1.4189   -0.4846 H   0  0  0  0  0  0  0  0  0  0  0  0
    3.1551   -0.5803    0.4913 H   0  0  0  0  0  0  0  0  0  0  0  0
    5.5166   -1.7177   -3.1794 H   0  0  0  0  0  0  0  0  0  0  0  0
    4.2410   -1.1339   -4.2504 H   0  0  0  0  0  0  0  0  0  0  0  0
    4.5178   -4.0673   -3.3947 H   0  0  0  0  0  0  0  0  0  0  0  0
    2.3451   -3.3344   -4.5455 H   0  0  0  0  0  0  0  0  0  0  0  0
    3.2394   -4.6692   -5.2924 H   0  0  0  0  0  0  0  0  0  0  0  0
    3.1218   -1.8931   -6.2579 H   0  0  0  0  0  0  0  0  0  0  0  0
    4.6167   -2.4936   -7.9722 H   0  0  0  0  0  0  0  0  0  0  0  0
    4.6245   -4.1638   -7.3661 H   0  0  0  0  0  0  0  0  0  0  0  0
    5.8534   -1.7067   -5.9894 H   0  0  0  0  0  0  0  0  0  0  0  0
    6.7241   -3.1206   -6.6341 H   0  0  0  0  0  0  0  0  0  0  0  0
    4.9364    0.3912   -2.7585 H   0  0  0  0  0  0  0  0  0  0  0  0
    5.0923    0.6232   -1.0111 H   0  0  0  0  0  0  0  0  0  0  0  0
    1.7762    2.6087   -1.3296 H   0  0  0  0  0  0  0  0  0  0  0  0
  1  2  2  0
  2  3  1  0
  2 17  1  0
  3  4  1  0
  3 18  1  0
  3 19  1  0
  4  5  1  0
  4 14  1  0
  5  6  2  0
  5  7  1  0
  7  8  1  0
  7 20  1  0
  7 21  1  0
  8  9  1  0
  8 13  1  0
  8 22  1  1
  9 10  1  0
  9 23  1  0
  9 24  1  0
 10 11  1  0
 10 25  1  0
 11 12  1  0
 11 26  1  0
 11 27  1  0
 12 13  1  0
 12 28  1  0
 12 29  1  0
 14 15  1  0
 14 30  1  0
 14 31  1  0
 15 16  2  0
 15 17  1  0
 17 32  1  0
M  END

