
     RDKit          3D

 86 89  0  0  0  0  0  0  0  0999 V2000
    0.7544   -0.0500   -0.0237 C   0  0  0  0  0  0  0  0  0  0  0  0
    2.1012    0.0596    0.1105 C   0  0  0  0  0  0  0  0  0  0  0  0
    2.8264    1.3389    0.0340 C   0  0  0  0  0  0  0  0  0  0  0  0
    2.1523    2.6632    0.0046 C   0  0  0  0  0  0  0  0  0  0  0  0
    1.0496    2.8732    0.7903 N   0  0  0  0  0  0  0  0  0  0  0  0
    2.6624    3.5784   -0.7612 N   0  0  0  0  0  0  0  0  0  0  0  0
    1.9861    4.7995   -0.5675 O   0  0  0  0  0  0  0  0  0  0  0  0
    2.4854    5.7750   -1.4626 C   0  0  0  0  0  0  0  0  0  0  0  0
    1.7021    7.0598   -1.2284 C   0  0  0  0  0  0  0  0  0  0  0  0
    2.2226    8.2835   -2.0052 C   0  0  1  0  0  0  0  0  0  0  0  0
    2.1403    8.0801   -3.5254 C   0  0  0  0  0  0  0  0  0  0  0  0
    1.4845    9.5757   -1.6011 C   0  0  0  0  0  0  0  0  0  0  0  0
    1.6978   10.0492   -0.1593 C   0  0  0  0  0  0  0  0  0  0  0  0
    1.0069   11.3809    0.1521 C   0  0  0  0  0  0  0  0  0  0  0  0
    1.2132   11.8665    1.5897 C   0  0  0  0  0  0  0  0  0  0  0  0
    0.5229   13.1980    1.9015 C   0  0  0  0  0  0  0  0  0  0  0  0
    0.7341   13.6763    3.3388 C   0  0  0  0  0  0  0  0  0  0  0  0
    4.1852    1.3486   -0.0501 C   0  0  0  0  0  0  0  0  0  0  0  0
    4.9825    0.2286   -0.0397 N   0  0  0  0  0  0  0  0  0  0  0  0
    6.4248    0.3875   -0.1521 C   0  0  0  0  0  0  0  0  0  0  0  0
    7.0336   -0.0982   -1.4597 C   0  0  0  0  0  0  0  0  0  0  0  0
    6.3234   -0.0355   -2.6666 C   0  0  0  0  0  0  0  0  0  0  0  0
    6.9125   -0.4337   -3.8684 C   0  0  0  0  0  0  0  0  0  0  0  0
    8.2309   -0.8983   -3.8678 C   0  0  0  0  0  0  0  0  0  0  0  0
    8.9750   -1.4001   -5.3687 Cl  0  0  0  0  0  0  0  0  0  0  0  0
    8.9589   -0.9699   -2.6771 C   0  0  0  0  0  0  0  0  0  0  0  0
    8.3530   -0.5724   -1.4829 C   0  0  0  0  0  0  0  0  0  0  0  0
    4.3961   -1.0277    0.1833 C   0  0  0  0  0  0  0  0  0  0  0  0
    5.1964   -2.1731    0.3210 C   0  0  0  0  0  0  0  0  0  0  0  0
    4.6693   -3.4527    0.5783 C   0  0  0  0  0  0  0  0  0  0  0  0
    5.5211   -4.5539    0.7022 N   0  0  0  0  0  0  0  0  0  0  0  0
    6.5138   -4.8237   -0.3401 C   0  0  0  0  0  0  0  0  0  0  0  0
    7.7400   -5.5276    0.2589 C   0  0  0  0  0  0  0  0  0  0  0  0
    7.4083   -6.7226    1.0227 N   0  0  0  0  0  0  0  0  0  0  0  0
    7.1684   -7.9181    0.2355 C   0  0  0  0  0  0  0  0  0  0  0  0
    6.3948   -6.4197    2.0245 C   0  0  0  0  0  0  0  0  0  0  0  0
    5.1348   -5.7463    1.4549 C   0  0  0  0  0  0  0  0  0  0  0  0
    3.2645   -3.5150    0.7062 C   0  0  0  0  0  0  0  0  0  0  0  0
    2.6563   -4.7015    0.9282 F   0  0  0  0  0  0  0  0  0  0  0  0
    2.4625   -2.3942    0.5882 C   0  0  0  0  0  0  0  0  0  0  0  0
    2.9831   -1.1219    0.3040 C   0  0  0  0  0  0  0  0  0  0  0  0
    0.1265    0.8250   -0.1829 H   0  0  0  0  0  0  0  0  0  0  0  0
    0.2535   -1.0184   -0.0102 H   0  0  0  0  0  0  0  0  0  0  0  0
    0.8651    2.2357    1.5525 H   0  0  0  0  0  0  0  0  0  0  0  0
    0.7489    3.8361    0.8812 H   0  0  0  0  0  0  0  0  0  0  0  0
    2.3811    5.4083   -2.4991 H   0  0  0  0  0  0  0  0  0  0  0  0
    3.5660    5.9359   -1.2784 H   0  0  0  0  0  0  0  0  0  0  0  0
    1.7309    7.2647   -0.1459 H   0  0  0  0  0  0  0  0  0  0  0  0
    0.6407    6.8853   -1.4830 H   0  0  0  0  0  0  0  0  0  0  0  0
    3.2900    8.4183   -1.7412 H   0  0  0  0  0  0  0  0  0  0  0  0
    1.0964    7.9155   -3.8443 H   0  0  0  0  0  0  0  0  0  0  0  0
    2.7312    7.2156   -3.8645 H   0  0  0  0  0  0  0  0  0  0  0  0
    2.5151    8.9659   -4.0634 H   0  0  0  0  0  0  0  0  0  0  0  0
    0.4018    9.4427   -1.7880 H   0  0  0  0  0  0  0  0  0  0  0  0
    1.8060   10.3838   -2.2830 H   0  0  0  0  0  0  0  0  0  0  0  0
    2.7826   10.1482    0.0338 H   0  0  0  0  0  0  0  0  0  0  0  0
    1.3351    9.2859    0.5513 H   0  0  0  0  0  0  0  0  0  0  0  0
   -0.0766   11.2843   -0.0479 H   0  0  0  0  0  0  0  0  0  0  0  0
    1.3711   12.1544   -0.5497 H   0  0  0  0  0  0  0  0  0  0  0  0
    2.2969   11.9626    1.7907 H   0  0  0  0  0  0  0  0  0  0  0  0
    0.8477   11.0940    2.2922 H   0  0  0  0  0  0  0  0  0  0  0  0
   -0.5597   13.1008    1.7003 H   0  0  0  0  0  0  0  0  0  0  0  0
    0.8885   13.9690    1.1987 H   0  0  0  0  0  0  0  0  0  0  0  0
    0.3444   12.9444    4.0664 H   0  0  0  0  0  0  0  0  0  0  0  0
    0.2244   14.6349    3.5268 H   0  0  0  0  0  0  0  0  0  0  0  0
    1.8051   13.8203    3.5603 H   0  0  0  0  0  0  0  0  0  0  0  0
    4.7072    2.3004   -0.1487 H   0  0  0  0  0  0  0  0  0  0  0  0
    6.9276   -0.1072    0.6963 H   0  0  0  0  0  0  0  0  0  0  0  0
    6.6335    1.4629   -0.0393 H   0  0  0  0  0  0  0  0  0  0  0  0
    5.2916    0.3235   -2.6716 H   0  0  0  0  0  0  0  0  0  0  0  0
    6.3544   -0.3856   -4.8048 H   0  0  0  0  0  0  0  0  0  0  0  0
    9.9862   -1.3378   -2.6887 H   0  0  0  0  0  0  0  0  0  0  0  0
    8.9250   -0.6340   -0.5518 H   0  0  0  0  0  0  0  0  0  0  0  0
    6.2772   -2.0888    0.2439 H   0  0  0  0  0  0  0  0  0  0  0  0
    6.8204   -3.8837   -0.8183 H   0  0  0  0  0  0  0  0  0  0  0  0
    6.0663   -5.4552   -1.1382 H   0  0  0  0  0  0  0  0  0  0  0  0
    8.2508   -4.8156    0.9332 H   0  0  0  0  0  0  0  0  0  0  0  0
    8.4491   -5.7909   -0.5430 H   0  0  0  0  0  0  0  0  0  0  0  0
    8.0442   -8.1211   -0.4025 H   0  0  0  0  0  0  0  0  0  0  0  0
    6.2771   -7.8869   -0.4289 H   0  0  0  0  0  0  0  0  0  0  0  0
    7.0431   -8.7823    0.9083 H   0  0  0  0  0  0  0  0  0  0  0  0
    6.8399   -5.7381    2.7723 H   0  0  0  0  0  0  0  0  0  0  0  0
    6.1130   -7.3472    2.5494 H   0  0  0  0  0  0  0  0  0  0  0  0
    4.4722   -5.4558    2.2805 H   0  0  0  0  0  0  0  0  0  0  0  0
    4.5692   -6.4616    0.8241 H   0  0  0  0  0  0  0  0  0  0  0  0
    1.3887   -2.5429    0.7013 H   0  0  0  0  0  0  0  0  0  0  0  0
  1  2  2  0
  1 42  1  0
  1 43  1  0
  2  3  1  0
  2 41  1  0
  3  4  1  0
  3 18  2  0
  4  5  1  0
  4  6  2  0
  5 44  1  0
  5 45  1  0
  6  7  1  0
  7  8  1  0
  8  9  1  0
  8 46  1  0
  8 47  1  0
  9 10  1  0
  9 48  1  0
  9 49  1  0
 10 11  1  0
 10 12  1  0
 10 50  1  1
 11 51  1  0
 11 52  1  0
 11 53  1  0
 12 13  1  0
 12 54  1  0
 12 55  1  0
 13 14  1  0
 13 56  1  0
 13 57  1  0
 14 15  1  0
 14 58  1  0
 14 59  1  0
 15 16  1  0
 15 60  1  0
 15 61  1  0
 16 17  1  0
 16 62  1  0
 16 63  1  0
 17 64  1  0
 17 65  1  0
 17 66  1  0
 18 19  1  0
 18 67  1  0
 19 20  1  0
 19 28  1  0
 20 21  1  0
 20 68  1  0
 20 69  1  0
 21 22  2  0
 21 27  1  0
 22 23  1  0
 22 70  1  0
 23 24  2  0
 23 71  1  0
 24 25  1  0
 24 26  1  0
 26 27  2  0
 26 72  1  0
 27 73  1  0
 28 29  1  0
 28 41  2  0
 29 30  2  0
 29 74  1  0
 30 31  1  0
 30 38  1  0
 31 32  1  0
 31 37  1  0
 32 33  1  0
 32 75  1  0
 32 76  1  0
 33 34  1  0
 33 77  1  0
 33 78  1  0
 34 35  1  0
 34 36  1  0
 35 79  1  0
 35 80  1  0
 35 81  1  0
 36 37  1  0
 36 82  1  0
 36 83  1  0
 37 84  1  0
 37 85  1  0
 38 39  1  0
 38 40  2  0
 40 41  1  0
 40 86  1  0
M  END

