
     RDKit          3D

 37 38  0  0  0  0  0  0  0  0999 V2000
    9.4609    2.6891   -2.9005 C   0  0  0  0  0  0  0  0  0  0  0  0
    7.9730    1.8944   -2.2599 S   0  0  1  0  0  0  0  0  0  0  0  0
    7.9708    2.0576   -0.7993 O   0  0  0  0  0  0  0  0  0  0  0  0
    6.8344    2.3534   -3.0685 O   0  0  0  0  0  0  0  0  0  0  0  0
    8.2178    0.1250   -2.6188 C   0  0  0  0  0  0  0  0  0  0  0  0
    6.9776   -0.6509   -2.1795 C   0  0  0  0  0  0  0  0  0  0  0  0
    7.1282   -2.0736   -2.4688 N   0  0  0  0  0  0  0  0  0  0  0  0
    5.9676   -2.8737   -2.0762 C   0  0  0  0  0  0  0  0  0  0  0  0
    6.0569   -4.3224   -2.5639 C   0  0  0  0  0  0  0  0  0  0  0  0
    7.6516   -5.1689   -2.1587 S   0  0  0  0  0  0  0  0  0  0  0  0
    8.5252   -5.0101   -3.6853 C   0  0  0  0  0  0  0  0  0  0  0  0
    9.3001   -5.9617   -4.3172 C   0  0  0  0  0  0  0  0  0  0  0  0
    9.8696   -5.3291   -5.4749 C   0  0  0  0  0  0  0  0  0  0  0  0
   10.7263   -5.7571   -6.5087 C   0  0  0  0  0  0  0  0  0  0  0  0
   11.0702   -4.8625   -7.5172 C   0  0  0  0  0  0  0  0  0  0  0  0
   10.5728   -3.5404   -7.5207 C   0  0  0  0  0  0  0  0  0  0  0  0
    9.7214   -3.0876   -6.5158 C   0  0  0  0  0  0  0  0  0  0  0  0
    9.3803   -3.9871   -5.4954 C   0  0  0  0  0  0  0  0  0  0  0  0
    8.5758   -3.8207   -4.3900 N   0  0  0  0  0  0  0  0  0  0  0  0
    8.0874   -2.9753   -4.0812 H   0  0  0  0  0  0  0  0  0  0  0  0
    9.3210    3.7569   -2.6822 H   0  0  0  0  0  0  0  0  0  0  0  0
    9.5276    2.5262   -3.9841 H   0  0  0  0  0  0  0  0  0  0  0  0
   10.3409    2.3036   -2.3693 H   0  0  0  0  0  0  0  0  0  0  0  0
    9.1193   -0.1879   -2.0686 H   0  0  0  0  0  0  0  0  0  0  0  0
    8.3901    0.0284   -3.7013 H   0  0  0  0  0  0  0  0  0  0  0  0
    6.1084   -0.2624   -2.7339 H   0  0  0  0  0  0  0  0  0  0  0  0
    6.7889   -0.4456   -1.1065 H   0  0  0  0  0  0  0  0  0  0  0  0
    7.9356   -2.4410   -1.9577 H   0  0  0  0  0  0  0  0  0  0  0  0
    5.0656   -2.4186   -2.5212 H   0  0  0  0  0  0  0  0  0  0  0  0
    5.8126   -2.8582   -0.9769 H   0  0  0  0  0  0  0  0  0  0  0  0
    5.9221   -4.3887   -3.6526 H   0  0  0  0  0  0  0  0  0  0  0  0
    5.2630   -4.9204   -2.0913 H   0  0  0  0  0  0  0  0  0  0  0  0
    9.4310   -6.9912   -3.9920 H   0  0  0  0  0  0  0  0  0  0  0  0
   11.1138   -6.7793   -6.5168 H   0  0  0  0  0  0  0  0  0  0  0  0
   11.7347   -5.1847   -8.3230 H   0  0  0  0  0  0  0  0  0  0  0  0
   10.8600   -2.8612   -8.3275 H   0  0  0  0  0  0  0  0  0  0  0  0
    9.3327   -2.0661   -6.5235 H   0  0  0  0  0  0  0  0  0  0  0  0
  2  1  1  6
  1 21  1  0
  1 22  1  0
  1 23  1  0
  2  3  2  0
  2  4  2  0
  2  5  1  0
  5  6  1  0
  5 24  1  0
  5 25  1  0
  6  7  1  0
  6 26  1  0
  6 27  1  0
  7  8  1  0
  7 28  1  0
  8  9  1  0
  8 29  1  0
  8 30  1  0
  9 10  1  0
  9 31  1  0
  9 32  1  0
 10 11  1  0
 11 12  2  0
 11 19  1  0
 12 13  1  0
 12 33  1  0
 13 14  2  0
 13 18  1  0
 14 15  1  0
 14 34  1  0
 15 16  2  0
 15 35  1  0
 16 17  1  0
 16 36  1  0
 17 18  2  0
 17 37  1  0
 18 19  1  0
 19 20  1  0
M  END

