
     RDKit          3D

 27 28  0  0  0  0  0  0  0  0999 V2000
    0.9776    0.4759   -0.0536 C   0  0  0  0  0  0  0  0  0  0  0  0
    2.3888    0.7015   -0.0424 O   0  0  0  0  0  0  0  0  0  0  0  0
    3.0082    0.6417   -1.2272 C   0  0  0  0  0  0  0  0  0  0  0  0
    2.4415    0.4968   -2.2823 O   0  0  0  0  0  0  0  0  0  0  0  0
    4.5159    0.7800   -1.0774 C   0  0  2  0  0  0  0  0  0  0  0  0
    5.1410    1.5228   -2.2640 C   0  0  0  0  0  0  0  0  0  0  0  0
    6.6624    1.6073   -2.1278 C   0  0  0  0  0  0  0  0  0  0  0  0
    7.2707    0.2630   -1.8350 C   0  0  0  0  0  0  0  0  0  0  0  0
    8.5781    0.0692   -2.1353 N   0  0  0  0  0  0  0  0  0  0  0  0
    9.1129    0.8178   -2.5712 H   0  0  0  0  0  0  0  0  0  0  0  0
    9.3316   -1.1172   -1.9177 C   0  0  0  0  0  0  0  0  0  0  0  0
   10.5059   -1.1466   -2.2360 O   0  0  0  0  0  0  0  0  0  0  0  0
    8.5472   -2.1884   -1.3191 C   0  0  0  0  0  0  0  0  0  0  0  0
    7.2314   -2.0165   -1.0132 C   0  0  0  0  0  0  0  0  0  0  0  0
    6.5546   -0.7725   -1.2574 C   0  0  0  0  0  0  0  0  0  0  0  0
    5.1343   -0.6207   -0.8854 C   0  0  0  0  0  0  0  0  0  0  0  0
    4.4834   -1.5395   -0.4246 O   0  0  0  0  0  0  0  0  0  0  0  0
    0.6444    0.5753    0.9865 H   0  0  0  0  0  0  0  0  0  0  0  0
    0.7529   -0.5327   -0.4312 H   0  0  0  0  0  0  0  0  0  0  0  0
    0.4683    1.2126   -0.6929 H   0  0  0  0  0  0  0  0  0  0  0  0
    4.7139    1.3236   -0.1360 H   0  0  0  0  0  0  0  0  0  0  0  0
    4.7163    2.5350   -2.3439 H   0  0  0  0  0  0  0  0  0  0  0  0
    4.8681    0.9933   -3.1904 H   0  0  0  0  0  0  0  0  0  0  0  0
    6.9340    2.2985   -1.3072 H   0  0  0  0  0  0  0  0  0  0  0  0
    7.1123    2.0262   -3.0435 H   0  0  0  0  0  0  0  0  0  0  0  0
    9.0734   -3.1263   -1.1357 H   0  0  0  0  0  0  0  0  0  0  0  0
    6.6425   -2.8207   -0.5656 H   0  0  0  0  0  0  0  0  0  0  0  0
  1  2  1  0
  1 18  1  0
  1 19  1  0
  1 20  1  0
  2  3  1  0
  3  4  2  0
  3  5  1  0
  5  6  1  0
  5 16  1  0
  5 21  1  1
  6  7  1  0
  6 22  1  0
  6 23  1  0
  7  8  1  0
  7 24  1  0
  7 25  1  0
  8  9  1  0
  8 15  2  0
  9 10  1  0
  9 11  1  0
 11 12  2  0
 11 13  1  0
 13 14  2  0
 13 26  1  0
 14 15  1  0
 14 27  1  0
 15 16  1  0
 16 17  2  0
M  END

