
     RDKit          3D

 50 51  0  0  0  0  0  0  0  0999 V2000
    6.5023    0.1352    1.1248 C   0  0  0  0  0  0  0  0  0  0  0  0
    5.3560    1.1450    1.3282 C   0  0  1  0  0  0  0  0  0  0  0  0
    4.2177    0.4643    2.1117 C   0  0  0  0  0  0  0  0  0  0  0  0
    5.8867    2.3272    2.1639 C   0  0  0  0  0  0  0  0  0  0  0  0
    4.8785    1.7188   -0.0351 C   0  0  0  0  0  0  0  0  0  0  0  0
    4.2276    0.7635   -1.0599 C   0  0  1  0  0  0  0  0  0  0  0  0
    2.6879    0.7116   -0.9523 C   0  0  0  0  0  0  0  0  0  0  0  0
    2.0615    2.0021   -1.2373 N   0  0  0  0  0  0  0  0  0  0  0  0
    4.6266    1.1456   -2.5020 C   0  0  0  0  0  0  0  0  0  0  0  0
    6.0383    1.0050   -2.7880 N   0  0  0  0  0  0  0  0  0  0  0  0
    6.5296   -0.3823   -2.8804 C   0  0  0  0  0  0  0  0  0  0  0  0
    7.6866   -0.3584   -3.9118 C   0  0  0  0  0  0  0  0  0  0  0  0
    7.9563    1.1370   -4.1075 C   0  0  1  0  0  0  0  0  0  0  0  0
    8.6339    1.6318   -5.3824 C   0  0  0  0  0  0  0  0  0  0  0  0
    8.6863    3.1708   -5.3692 C   0  0  0  0  0  0  0  0  0  0  0  0
    7.3086    3.8074   -5.1140 C   0  0  0  0  0  0  0  0  0  0  0  0
    6.6170    3.2553   -3.8529 C   0  0  0  0  0  0  0  0  0  0  0  0
    6.5543    1.7316   -3.9438 C   0  0  2  0  0  0  0  0  0  0  0  0
    6.8905   -0.2193    2.0943 H   0  0  0  0  0  0  0  0  0  0  0  0
    7.3396    0.5911    0.5717 H   0  0  0  0  0  0  0  0  0  0  0  0
    6.1732   -0.7527    0.5616 H   0  0  0  0  0  0  0  0  0  0  0  0
    4.5700    0.1408    3.1057 H   0  0  0  0  0  0  0  0  0  0  0  0
    3.8403   -0.4324    1.5948 H   0  0  0  0  0  0  0  0  0  0  0  0
    3.3691    1.1508    2.2672 H   0  0  0  0  0  0  0  0  0  0  0  0
    6.2674    1.9871    3.1415 H   0  0  0  0  0  0  0  0  0  0  0  0
    5.0934    3.0696    2.3509 H   0  0  0  0  0  0  0  0  0  0  0  0
    6.7103    2.8436    1.6436 H   0  0  0  0  0  0  0  0  0  0  0  0
    5.7631    2.1705   -0.5130 H   0  0  0  0  0  0  0  0  0  0  0  0
    4.1677    2.5426    0.1484 H   0  0  0  0  0  0  0  0  0  0  0  0
    4.5809   -0.2681   -0.8855 H   0  0  0  0  0  0  0  0  0  0  0  0
    2.4123    0.4277    0.0736 H   0  0  0  0  0  0  0  0  0  0  0  0
    2.3220   -0.1101   -1.6063 H   0  0  0  0  0  0  0  0  0  0  0  0
    2.0085    2.1685   -2.2419 H   0  0  0  0  0  0  0  0  0  0  0  0
    1.1008    2.0170   -0.8986 H   0  0  0  0  0  0  0  0  0  0  0  0
    4.3480    2.2002   -2.6608 H   0  0  0  0  0  0  0  0  0  0  0  0
    4.0131    0.5408   -3.2155 H   0  0  0  0  0  0  0  0  0  0  0  0
    5.7245   -1.0705   -3.2140 H   0  0  0  0  0  0  0  0  0  0  0  0
    6.8650   -0.7443   -1.8939 H   0  0  0  0  0  0  0  0  0  0  0  0
    7.3622   -0.8079   -4.8652 H   0  0  0  0  0  0  0  0  0  0  0  0
    8.5708   -0.9182   -3.5707 H   0  0  0  0  0  0  0  0  0  0  0  0
    8.5469    1.4946   -3.2433 H   0  0  0  0  0  0  0  0  0  0  0  0
    8.0675    1.2813   -6.2653 H   0  0  0  0  0  0  0  0  0  0  0  0
    9.6516    1.2156   -5.4764 H   0  0  0  0  0  0  0  0  0  0  0  0
    9.1035    3.5484   -6.3179 H   0  0  0  0  0  0  0  0  0  0  0  0
    9.3838    3.4941   -4.5750 H   0  0  0  0  0  0  0  0  0  0  0  0
    6.6585    3.6199   -5.9884 H   0  0  0  0  0  0  0  0  0  0  0  0
    7.4103    4.9028   -5.0385 H   0  0  0  0  0  0  0  0  0  0  0  0
    5.6120    3.6981   -3.7532 H   0  0  0  0  0  0  0  0  0  0  0  0
    7.1819    3.5365   -2.9465 H   0  0  0  0  0  0  0  0  0  0  0  0
    5.9682    1.4794   -4.8644 H   0  0  0  0  0  0  0  0  0  0  0  0
  2  1  1  6
  1 19  1  0
  1 20  1  0
  1 21  1  0
  2  3  1  0
  2  4  1  0
  2  5  1  0
  3 22  1  0
  3 23  1  0
  3 24  1  0
  4 25  1  0
  4 26  1  0
  4 27  1  0
  5  6  1  0
  5 28  1  0
  5 29  1  0
  6  7  1  0
  6  9  1  0
  6 30  1  1
  7  8  1  0
  7 31  1  0
  7 32  1  0
  8 33  1  0
  8 34  1  0
  9 10  1  0
  9 35  1  0
  9 36  1  0
 10 11  1  0
 10 18  1  0
 11 12  1  0
 11 37  1  0
 11 38  1  0
 12 13  1  0
 12 39  1  0
 12 40  1  0
 13 14  1  0
 13 18  1  0
 13 41  1  1
 14 15  1  0
 14 42  1  0
 14 43  1  0
 15 16  1  0
 15 44  1  0
 15 45  1  0
 16 17  1  0
 16 46  1  0
 16 47  1  0
 17 18  1  0
 17 48  1  0
 17 49  1  0
 18 50  1  6
M  END

