
     RDKit          3D

 22 22  0  0  0  0  0  0  0  0999 V2000
    0.9926    0.2706    0.2984 N   0  0  0  0  0  0  0  0  0  0  0  0
    2.3475    0.1031    0.1623 C   0  0  0  0  0  0  0  0  0  0  0  0
    3.2640    1.1875    0.0783 C   0  0  0  0  0  0  0  0  0  0  0  0
    2.5604    2.9819    0.1732 Br  0  0  0  0  0  0  0  0  0  0  0  0
    4.5554    1.0676   -0.0603 N   0  0  0  0  0  0  0  0  0  0  0  0
    5.0946   -0.1519   -0.1375 C   0  0  0  0  0  0  0  0  0  0  0  0
    4.3197   -1.3089   -0.0269 C   0  0  0  0  0  0  0  0  0  0  0  0
    4.9779   -2.6632   -0.1381 C   0  0  1  0  0  0  0  0  0  0  0  0
    6.2982   -2.5516   -0.4106 F   0  0  0  0  0  0  0  0  0  0  0  0
    4.8639   -3.3679    1.0350 F   0  0  0  0  0  0  0  0  0  0  0  0
    2.9291   -1.1897    0.1596 C   0  0  0  0  0  0  0  0  0  0  0  0
    2.0344   -2.3898    0.4252 C   0  0  0  0  0  0  0  0  0  0  0  0
    1.2149   -2.8204   -0.7912 C   0  0  0  0  0  0  0  0  0  0  0  0
    0.3753   -2.1199   -1.2981 O   0  0  0  0  0  0  0  0  0  0  0  0
    1.4777   -4.0378   -1.3012 O   0  0  0  0  0  0  0  0  0  0  0  0
    0.6666    1.2296    0.2326 H   0  0  0  0  0  0  0  0  0  0  0  0
    0.4174   -0.4080   -0.2024 H   0  0  0  0  0  0  0  0  0  0  0  0
    6.1734   -0.2135   -0.2935 H   0  0  0  0  0  0  0  0  0  0  0  0
    4.5213   -3.2838   -0.9316 H   0  0  0  0  0  0  0  0  0  0  0  0
    1.3016   -2.0944    1.1957 H   0  0  0  0  0  0  0  0  0  0  0  0
    2.6201   -3.2207    0.8373 H   0  0  0  0  0  0  0  0  0  0  0  0
    2.1258   -4.5074   -0.7575 H   0  0  0  0  0  0  0  0  0  0  0  0
  1  2  1  0
  1 16  1  0
  1 17  1  0
  2  3  2  0
  2 11  1  0
  3  4  1  0
  3  5  1  0
  5  6  2  0
  6  7  1  0
  6 18  1  0
  7  8  1  0
  7 11  2  0
  8  9  1  0
  8 10  1  0
  8 19  1  6
 11 12  1  0
 12 13  1  0
 12 20  1  0
 12 21  1  0
 13 14  2  0
 13 15  1  0
 15 22  1  0
M  END

