
     RDKit          3D

 51 52  0  0  0  0  0  0  0  0999 V2000
    2.4086   -1.0168    2.5708 C   0  0  0  0  0  0  0  0  0  0  0  0
    3.2325   -0.6389    1.3397 C   0  0  0  0  0  0  0  0  0  0  0  0
    3.4925    0.8570    1.2497 C   0  0  0  0  0  0  0  0  0  0  0  0
    4.2794    1.1071    0.0938 O   0  0  0  0  0  0  0  0  0  0  0  0
    4.6865    2.3673   -0.1854 C   0  0  0  0  0  0  0  0  0  0  0  0
    4.3454    3.5012    0.5637 C   0  0  0  0  0  0  0  0  0  0  0  0
    4.8413    4.7587    0.2100 C   0  0  0  0  0  0  0  0  0  0  0  0
    5.6904    4.9293   -0.8955 C   0  0  0  0  0  0  0  0  0  0  0  0
    6.1883    6.2659   -1.2134 C   0  0  0  0  0  0  0  0  0  0  0  0
    7.0179    6.6333   -2.2105 C   0  0  0  0  0  0  0  0  0  0  0  0
    7.4151    8.0590   -2.3645 C   0  0  0  0  0  0  0  0  0  0  0  0
    7.0239    8.9517   -1.6192 O   0  0  0  0  0  0  0  0  0  0  0  0
    8.2723    8.3041   -3.4072 N   0  0  0  0  0  0  0  0  0  0  0  0
    8.7431    9.6426   -3.7276 C   0  0  0  0  0  0  0  0  0  0  0  0
    7.9142   10.3539   -4.7838 C   0  0  0  0  0  0  0  0  0  0  0  0
    6.6183   10.8075   -4.4768 C   0  0  0  0  0  0  0  0  0  0  0  0
    5.8521   11.4571   -5.4453 C   0  0  0  0  0  0  0  0  0  0  0  0
    6.3605   11.6547   -6.7332 C   0  0  0  0  0  0  0  0  0  0  0  0
    7.6454   11.1978   -7.0595 C   0  0  0  0  0  0  0  0  0  0  0  0
    8.2783   11.3745   -8.4166 C   0  0  0  0  0  0  0  0  0  0  0  0
    7.4316   11.6953   -9.4444 N   0  0  0  0  0  0  0  0  0  0  0  0
    9.4795   11.2469   -8.5877 O   0  0  0  0  0  0  0  0  0  0  0  0
    8.4142   10.5616   -6.0720 C   0  0  0  0  0  0  0  0  0  0  0  0
    6.0165    3.7806   -1.6500 C   0  0  0  0  0  0  0  0  0  0  0  0
    5.5334    2.5217   -1.3184 C   0  0  0  0  0  0  0  0  0  0  0  0
    5.9399    1.4446   -2.0521 O   0  0  0  0  0  0  0  0  0  0  0  0
    4.9552    0.7679   -2.8194 C   0  0  0  0  0  0  0  0  0  0  0  0
    2.2335   -2.1027    2.6099 H   0  0  0  0  0  0  0  0  0  0  0  0
    1.4225   -0.5229    2.5673 H   0  0  0  0  0  0  0  0  0  0  0  0
    2.9202   -0.7305    3.5048 H   0  0  0  0  0  0  0  0  0  0  0  0
    2.7162   -0.9622    0.4199 H   0  0  0  0  0  0  0  0  0  0  0  0
    4.2043   -1.1603    1.3511 H   0  0  0  0  0  0  0  0  0  0  0  0
    4.0267    1.2132    2.1510 H   0  0  0  0  0  0  0  0  0  0  0  0
    2.5385    1.4152    1.1881 H   0  0  0  0  0  0  0  0  0  0  0  0
    3.6974    3.4109    1.4353 H   0  0  0  0  0  0  0  0  0  0  0  0
    4.5662    5.6284    0.8120 H   0  0  0  0  0  0  0  0  0  0  0  0
    5.8494    7.0776   -0.5597 H   0  0  0  0  0  0  0  0  0  0  0  0
    7.4225    5.9035   -2.9191 H   0  0  0  0  0  0  0  0  0  0  0  0
    8.4745    7.5554   -4.0585 H   0  0  0  0  0  0  0  0  0  0  0  0
    9.7919    9.5807   -4.0579 H   0  0  0  0  0  0  0  0  0  0  0  0
    8.7141   10.2118   -2.7874 H   0  0  0  0  0  0  0  0  0  0  0  0
    6.2262   10.6502   -3.4686 H   0  0  0  0  0  0  0  0  0  0  0  0
    4.8542   11.8250   -5.1932 H   0  0  0  0  0  0  0  0  0  0  0  0
    5.7578   12.1962   -7.4666 H   0  0  0  0  0  0  0  0  0  0  0  0
    6.4322   11.5639   -9.3722 H   0  0  0  0  0  0  0  0  0  0  0  0
    7.8390   11.7395  -10.3712 H   0  0  0  0  0  0  0  0  0  0  0  0
    9.4226   10.2406   -6.3446 H   0  0  0  0  0  0  0  0  0  0  0  0
    6.6729    3.8411   -2.5199 H   0  0  0  0  0  0  0  0  0  0  0  0
    5.4777   -0.0261   -3.3713 H   0  0  0  0  0  0  0  0  0  0  0  0
    4.4774    1.4512   -3.5455 H   0  0  0  0  0  0  0  0  0  0  0  0
    4.1783    0.3144   -2.1841 H   0  0  0  0  0  0  0  0  0  0  0  0
  1  2  1  0
  1 28  1  0
  1 29  1  0
  1 30  1  0
  2  3  1  0
  2 31  1  0
  2 32  1  0
  3  4  1  0
  3 33  1  0
  3 34  1  0
  4  5  1  0
  5  6  2  0
  5 25  1  0
  6  7  1  0
  6 35  1  0
  7  8  2  0
  7 36  1  0
  8  9  1  0
  8 24  1  0
  9 10  2  0
  9 37  1  0
 10 11  1  0
 10 38  1  0
 11 12  2  0
 11 13  1  0
 13 14  1  0
 13 39  1  0
 14 15  1  0
 14 40  1  0
 14 41  1  0
 15 16  2  0
 15 23  1  0
 16 17  1  0
 16 42  1  0
 17 18  2  0
 17 43  1  0
 18 19  1  0
 18 44  1  0
 19 20  1  0
 19 23  2  0
 20 21  1  0
 20 22  2  0
 21 45  1  0
 21 46  1  0
 23 47  1  0
 24 25  2  0
 24 48  1  0
 25 26  1  0
 26 27  1  0
 27 49  1  0
 27 50  1  0
 27 51  1  0
M  END

