
     RDKit          3D

 46 47  0  0  0  0  0  0  0  0999 V2000
   -0.4827    1.1358   -0.0428 C   0  0  0  0  0  0  0  0  0  0  0  0
    0.8116    0.3737    0.2449 C   0  0  2  0  0  0  0  0  0  0  0  0
    0.5774   -0.6975    0.3406 H   0  0  0  0  0  0  0  0  0  0  0  0
    1.3329    0.7539    1.5568 N   0  0  0  0  0  0  0  0  0  0  0  0
    1.8344   -0.1366    2.4484 C   0  0  0  0  0  0  0  0  0  0  0  0
    1.8686   -1.3470    2.2803 O   0  0  0  0  0  0  0  0  0  0  0  0
    2.4229    0.4992    3.7190 C   0  0  0  0  0  0  0  0  0  0  0  0
    2.0073    1.8764    3.9461 N   0  0  0  0  0  0  0  0  0  0  0  0
    0.7017    2.0108    4.6074 C   0  0  0  0  0  0  0  0  0  0  0  0
    0.7843    1.8282    6.1334 C   0  0  0  0  0  0  0  0  0  0  0  0
    1.7806    2.7080    6.7573 N   0  0  0  0  0  0  0  0  0  0  0  0
    1.3275    4.0795    7.0078 C   0  0  0  0  0  0  0  0  0  0  0  0
    0.5355    4.1350    8.3187 C   0  0  0  0  0  0  0  0  0  0  0  0
    1.2704    3.5514    9.3609 O   0  0  0  0  0  0  0  0  0  0  0  0
    3.0811    2.5665    6.0969 C   0  0  0  0  0  0  0  0  0  0  0  0
    2.9992    2.7557    4.5735 C   0  0  0  0  0  0  0  0  0  0  0  0
    1.8886    0.4992   -0.8356 C   0  0  0  0  0  0  0  0  0  0  0  0
    2.9120   -0.4661   -0.8797 C   0  0  0  0  0  0  0  0  0  0  0  0
    3.9394   -0.3882   -1.8198 C   0  0  0  0  0  0  0  0  0  0  0  0
    3.9425    0.6687   -2.7292 C   0  0  0  0  0  0  0  0  0  0  0  0
    4.9264    0.7488   -3.6386 F   0  0  0  0  0  0  0  0  0  0  0  0
    2.9458    1.6388   -2.7171 C   0  0  0  0  0  0  0  0  0  0  0  0
    1.9222    1.5461   -1.7674 C   0  0  0  0  0  0  0  0  0  0  0  0
   -0.3269    2.2274   -0.0399 H   0  0  0  0  0  0  0  0  0  0  0  0
   -1.2333    0.9049    0.7277 H   0  0  0  0  0  0  0  0  0  0  0  0
   -0.8959    0.8574   -1.0239 H   0  0  0  0  0  0  0  0  0  0  0  0
    1.4454    1.7342    1.8092 H   0  0  0  0  0  0  0  0  0  0  0  0
    3.5173    0.4687    3.5865 H   0  0  0  0  0  0  0  0  0  0  0  0
    2.1993   -0.2052    4.5431 H   0  0  0  0  0  0  0  0  0  0  0  0
   -0.0017    1.2851    4.1691 H   0  0  0  0  0  0  0  0  0  0  0  0
    0.3023    3.0147    4.3765 H   0  0  0  0  0  0  0  0  0  0  0  0
    1.0520    0.7826    6.3676 H   0  0  0  0  0  0  0  0  0  0  0  0
   -0.2013    2.0060    6.5915 H   0  0  0  0  0  0  0  0  0  0  0  0
    0.7287    4.5164    6.1814 H   0  0  0  0  0  0  0  0  0  0  0  0
    2.2227    4.7110    7.1236 H   0  0  0  0  0  0  0  0  0  0  0  0
   -0.4529    3.6424    8.1846 H   0  0  0  0  0  0  0  0  0  0  0  0
    0.3268    5.1868    8.5788 H   0  0  0  0  0  0  0  0  0  0  0  0
    1.6982    2.7818    8.9451 H   0  0  0  0  0  0  0  0  0  0  0  0
    3.4703    1.5553    6.3174 H   0  0  0  0  0  0  0  0  0  0  0  0
    3.7910    3.2834    6.5396 H   0  0  0  0  0  0  0  0  0  0  0  0
    3.9824    2.5838    4.1062 H   0  0  0  0  0  0  0  0  0  0  0  0
    2.7187    3.8015    4.3506 H   0  0  0  0  0  0  0  0  0  0  0  0
    2.8975   -1.2861   -0.1568 H   0  0  0  0  0  0  0  0  0  0  0  0
    4.7347   -1.1352   -1.8630 H   0  0  0  0  0  0  0  0  0  0  0  0
    2.9771    2.4496   -3.4477 H   0  0  0  0  0  0  0  0  0  0  0  0
    1.1416    2.3095   -1.7697 H   0  0  0  0  0  0  0  0  0  0  0  0
  1  2  1  0
  1 24  1  0
  1 25  1  0
  1 26  1  0
  2  3  1  1
  2  4  1  0
  2 17  1  0
  4  5  1  0
  4 27  1  0
  5  6  2  0
  5  7  1  0
  7  8  1  0
  7 28  1  0
  7 29  1  0
  8  9  1  0
  8 16  1  0
  9 10  1  0
  9 30  1  0
  9 31  1  0
 10 11  1  0
 10 32  1  0
 10 33  1  0
 11 12  1  0
 11 15  1  0
 12 13  1  0
 12 34  1  0
 12 35  1  0
 13 14  1  0
 13 36  1  0
 13 37  1  0
 14 38  1  0
 15 16  1  0
 15 39  1  0
 15 40  1  0
 16 41  1  0
 16 42  1  0
 17 18  2  0
 17 23  1  0
 18 19  1  0
 18 43  1  0
 19 20  2  0
 19 44  1  0
 20 21  1  0
 20 22  1  0
 22 23  2  0
 22 45  1  0
 23 46  1  0
M  END

