
     RDKit          3D

 74 78  0  0  0  0  0  0  0  0999 V2000
    0.1132   -1.0980    1.1955 C   0  0  0  0  0  0  0  0  0  0  0  0
    1.4779   -0.7127    0.6782 C   0  0  0  0  0  0  0  0  0  0  0  0
    2.6417   -1.2748    1.2337 C   0  0  0  0  0  0  0  0  0  0  0  0
    3.9075   -0.9307    0.7635 C   0  0  0  0  0  0  0  0  0  0  0  0
    4.0606   -0.0077   -0.2854 C   0  0  0  0  0  0  0  0  0  0  0  0
    5.4393    0.3916   -0.7702 C   0  0  0  0  0  0  0  0  0  0  0  0
    6.2831   -0.7396   -1.1639 N   0  0  0  0  0  0  0  0  0  0  0  0
    5.7831   -1.4289   -2.3542 C   0  0  0  0  0  0  0  0  0  0  0  0
    6.4098   -2.7892   -2.5829 C   0  0  0  0  0  0  0  0  0  0  0  0
    6.4657   -3.7413   -1.5565 C   0  0  0  0  0  0  0  0  0  0  0  0
    7.0086   -5.0100   -1.7769 C   0  0  0  0  0  0  0  0  0  0  0  0
    7.5190   -5.3858   -3.0312 C   0  0  0  0  0  0  0  0  0  0  0  0
    8.1244   -6.7755   -3.3108 C   0  0  1  0  0  0  0  0  0  0  0  0
    8.0941   -7.6846   -2.0689 C   0  0  0  0  0  0  0  0  0  0  0  0
    7.3212   -7.4685   -4.4360 C   0  0  0  0  0  0  0  0  0  0  0  0
    9.5968   -6.6147   -3.7554 C   0  0  0  0  0  0  0  0  0  0  0  0
    7.4599   -4.4227   -4.0544 C   0  0  0  0  0  0  0  0  0  0  0  0
    6.9213   -3.1534   -3.8362 C   0  0  0  0  0  0  0  0  0  0  0  0
    7.6861   -0.3684   -1.2751 C   0  0  0  0  0  0  0  0  0  0  0  0
    8.3508   -0.1707    0.0586 C   0  0  0  0  0  0  0  0  0  0  0  0
    9.2756    0.7046    0.3160 N   0  0  0  0  0  0  0  0  0  0  0  0
    9.7444    0.5901    1.6055 C   0  0  0  0  0  0  0  0  0  0  0  0
   10.8122    1.4996    2.1314 C   0  0  0  0  0  0  0  0  0  0  0  0
   11.2306    1.4107    3.2766 O   0  0  0  0  0  0  0  0  0  0  0  0
   11.2487    2.4116    1.2164 N   0  0  0  0  0  0  0  0  0  0  0  0
   12.2779    3.3847    1.5030 C   0  0  0  0  0  0  0  0  0  0  0  0
   11.8812    4.8176    1.1871 C   0  0  0  0  0  0  0  0  0  0  0  0
   10.5584    5.2550    1.3278 C   0  0  0  0  0  0  0  0  0  0  0  0
   10.1842    6.5918    1.0844 C   0  0  0  0  0  0  0  0  0  0  0  0
   11.1856    7.4663    0.7047 C   0  0  0  0  0  0  0  0  0  0  0  0
   12.5085    7.0406    0.5598 C   0  0  0  0  0  0  0  0  0  0  0  0
   12.8849    5.7297    0.7851 C   0  0  0  0  0  0  0  0  0  0  0  0
   13.2772    8.0921    0.1396 O   0  0  0  0  0  0  0  0  0  0  0  0
   12.4397    9.2426    0.2100 C   0  0  0  0  0  0  0  0  0  0  0  0
   11.0992    8.7933    0.3774 O   0  0  0  0  0  0  0  0  0  0  0  0
    9.1593   -0.3972    2.3566 C   0  0  0  0  0  0  0  0  0  0  0  0
    7.9713   -1.2237    1.4193 S   0  0  0  0  0  0  0  0  0  0  0  0
    2.9048    0.5521   -0.8420 C   0  0  0  0  0  0  0  0  0  0  0  0
    1.6346    0.2072   -0.3664 C   0  0  0  0  0  0  0  0  0  0  0  0
   -0.0814   -2.1741    1.0496 H   0  0  0  0  0  0  0  0  0  0  0  0
   -0.6861   -0.5411    0.6847 H   0  0  0  0  0  0  0  0  0  0  0  0
    0.0237   -0.9006    2.2769 H   0  0  0  0  0  0  0  0  0  0  0  0
    2.5511   -1.9940    2.0537 H   0  0  0  0  0  0  0  0  0  0  0  0
    4.7966   -1.3784    1.2140 H   0  0  0  0  0  0  0  0  0  0  0  0
    5.9628    0.9221    0.0430 H   0  0  0  0  0  0  0  0  0  0  0  0
    5.3386    1.1257   -1.6003 H   0  0  0  0  0  0  0  0  0  0  0  0
    5.9110   -0.8072   -3.2686 H   0  0  0  0  0  0  0  0  0  0  0  0
    4.6964   -1.5536   -2.2196 H   0  0  0  0  0  0  0  0  0  0  0  0
    6.0798   -3.4826   -0.5677 H   0  0  0  0  0  0  0  0  0  0  0  0
    7.0266   -5.7131   -0.9438 H   0  0  0  0  0  0  0  0  0  0  0  0
    7.0667   -7.8634   -1.7149 H   0  0  0  0  0  0  0  0  0  0  0  0
    8.6749   -7.2610   -1.2345 H   0  0  0  0  0  0  0  0  0  0  0  0
    8.5342   -8.6642   -2.3133 H   0  0  0  0  0  0  0  0  0  0  0  0
    6.2670   -7.6005   -4.1448 H   0  0  0  0  0  0  0  0  0  0  0  0
    7.7421   -8.4642   -4.6529 H   0  0  0  0  0  0  0  0  0  0  0  0
    7.3396   -6.8885   -5.3713 H   0  0  0  0  0  0  0  0  0  0  0  0
   10.1957   -6.1273   -2.9696 H   0  0  0  0  0  0  0  0  0  0  0  0
    9.6864   -6.0077   -4.6692 H   0  0  0  0  0  0  0  0  0  0  0  0
   10.0461   -7.5997   -3.9643 H   0  0  0  0  0  0  0  0  0  0  0  0
    7.8463   -4.6591   -5.0487 H   0  0  0  0  0  0  0  0  0  0  0  0
    6.8979   -2.4319   -4.6587 H   0  0  0  0  0  0  0  0  0  0  0  0
    7.8554    0.5555   -1.8688 H   0  0  0  0  0  0  0  0  0  0  0  0
    8.2121   -1.1820   -1.8021 H   0  0  0  0  0  0  0  0  0  0  0  0
   10.8274    2.3702    0.2929 H   0  0  0  0  0  0  0  0  0  0  0  0
   13.2065    3.1398    0.9553 H   0  0  0  0  0  0  0  0  0  0  0  0
   12.5083    3.2719    2.5753 H   0  0  0  0  0  0  0  0  0  0  0  0
    9.7941    4.5382    1.6344 H   0  0  0  0  0  0  0  0  0  0  0  0
    9.1507    6.9256    1.1888 H   0  0  0  0  0  0  0  0  0  0  0  0
   13.9223    5.4150    0.6533 H   0  0  0  0  0  0  0  0  0  0  0  0
   12.5246    9.8219   -0.7237 H   0  0  0  0  0  0  0  0  0  0  0  0
   12.7362    9.8664    1.0775 H   0  0  0  0  0  0  0  0  0  0  0  0
    9.3758   -0.6399    3.3948 H   0  0  0  0  0  0  0  0  0  0  0  0
    2.9950    1.2716   -1.6614 H   0  0  0  0  0  0  0  0  0  0  0  0
    0.7495    0.6615   -0.8212 H   0  0  0  0  0  0  0  0  0  0  0  0
  1  2  1  0
  1 40  1  0
  1 41  1  0
  1 42  1  0
  2  3  2  0
  2 39  1  0
  3  4  1  0
  3 43  1  0
  4  5  2  0
  4 44  1  0
  5  6  1  0
  5 38  1  0
  6  7  1  0
  6 45  1  0
  6 46  1  0
  7  8  1  0
  7 19  1  0
  8  9  1  0
  8 47  1  0
  8 48  1  0
  9 10  2  0
  9 18  1  0
 10 11  1  0
 10 49  1  0
 11 12  2  0
 11 50  1  0
 12 13  1  0
 12 17  1  0
 13 14  1  1
 13 15  1  0
 13 16  1  0
 14 51  1  0
 14 52  1  0
 14 53  1  0
 15 54  1  0
 15 55  1  0
 15 56  1  0
 16 57  1  0
 16 58  1  0
 16 59  1  0
 17 18  2  0
 17 60  1  0
 18 61  1  0
 19 20  1  0
 19 62  1  0
 19 63  1  0
 20 21  2  0
 20 37  1  0
 21 22  1  0
 22 23  1  0
 22 36  2  0
 23 24  2  0
 23 25  1  0
 25 26  1  0
 25 64  1  0
 26 27  1  0
 26 65  1  0
 26 66  1  0
 27 28  2  0
 27 32  1  0
 28 29  1  0
 28 67  1  0
 29 30  2  0
 29 68  1  0
 30 31  1  0
 30 35  1  0
 31 32  2  0
 31 33  1  0
 32 69  1  0
 33 34  1  0
 34 35  1  0
 34 70  1  0
 34 71  1  0
 36 37  1  0
 36 72  1  0
 38 39  2  0
 38 73  1  0
 39 74  1  0
M  END

