
     RDKit          3D

 38 39  0  0  0  0  0  0  0  0999 V2000
    0.7261   -0.1059    0.1775 C   0  0  0  0  0  0  0  0  0  0  0  0
    2.0378   -0.7126   -0.0469 N   0  0  0  0  0  0  0  0  0  0  0  0
    2.9831   -0.8281    1.0709 C   0  0  0  0  0  0  0  0  0  0  0  0
    4.2347    0.0626    0.9646 C   0  0  1  0  0  0  0  0  0  0  0  0
    3.9244    1.5632    0.7855 C   0  0  0  0  0  0  0  0  0  0  0  0
    3.4387    2.2258    2.0846 C   0  0  0  0  0  0  0  0  0  0  0  0
    4.4040    1.9276    3.2431 C   0  0  0  0  0  0  0  0  0  0  0  0
    4.6930    0.5087    3.4197 N   0  0  0  0  0  0  0  0  0  0  0  0
    5.1521   -0.1356    2.1957 C   0  0  0  0  0  0  0  0  0  0  0  0
    2.2716   -1.6436   -1.4037 S   0  0  1  0  0  0  0  0  0  0  0  0
    3.2225   -2.7126   -1.0665 O   0  0  0  0  0  0  0  0  0  0  0  0
    0.9679   -1.9434   -1.9898 O   0  0  0  0  0  0  0  0  0  0  0  0
    3.1473   -0.6186   -2.5881 C   0  0  0  0  0  0  0  0  0  0  0  0
    4.2880   -1.0998   -3.1463 C   0  0  0  0  0  0  0  0  0  0  0  0
    4.9513   -0.4187   -4.1234 N   0  0  0  0  0  0  0  0  0  0  0  0
    5.8037   -0.7877   -4.5328 H   0  0  0  0  0  0  0  0  0  0  0  0
    4.5213    0.8062   -4.6472 C   0  0  0  0  0  0  0  0  0  0  0  0
    5.1205    1.3912   -5.5179 O   0  0  0  0  0  0  0  0  0  0  0  0
    3.3531    1.2611   -4.0564 N   0  0  0  0  0  0  0  0  0  0  0  0
    3.0084    2.1548   -4.4008 H   0  0  0  0  0  0  0  0  0  0  0  0
    2.5914    0.6644   -3.0339 C   0  0  0  0  0  0  0  0  0  0  0  0
    1.6033    1.2169   -2.5969 O   0  0  0  0  0  0  0  0  0  0  0  0
    0.8566    0.8994    0.6053 H   0  0  0  0  0  0  0  0  0  0  0  0
    0.1117   -0.7147    0.8649 H   0  0  0  0  0  0  0  0  0  0  0  0
    0.1993    0.0006   -0.7757 H   0  0  0  0  0  0  0  0  0  0  0  0
    3.3004   -1.8772    1.1699 H   0  0  0  0  0  0  0  0  0  0  0  0
    2.4100   -0.5856    1.9798 H   0  0  0  0  0  0  0  0  0  0  0  0
    4.7924   -0.2873    0.0780 H   0  0  0  0  0  0  0  0  0  0  0  0
    3.1921    1.7072   -0.0257 H   0  0  0  0  0  0  0  0  0  0  0  0
    4.8512    2.0696    0.4594 H   0  0  0  0  0  0  0  0  0  0  0  0
    2.4303    1.8588    2.3499 H   0  0  0  0  0  0  0  0  0  0  0  0
    3.3385    3.3155    1.9405 H   0  0  0  0  0  0  0  0  0  0  0  0
    4.0165    2.3332    4.1922 H   0  0  0  0  0  0  0  0  0  0  0  0
    5.3632    2.4462    3.0528 H   0  0  0  0  0  0  0  0  0  0  0  0
    3.8863    0.0238    3.8097 H   0  0  0  0  0  0  0  0  0  0  0  0
    5.3017   -1.2106    2.3944 H   0  0  0  0  0  0  0  0  0  0  0  0
    6.1491    0.2761    1.9530 H   0  0  0  0  0  0  0  0  0  0  0  0
    4.7087   -2.0550   -2.8243 H   0  0  0  0  0  0  0  0  0  0  0  0
  1  2  1  0
  1 23  1  0
  1 24  1  0
  1 25  1  0
  2  3  1  0
 10  2  1  1
  3  4  1  0
  3 26  1  0
  3 27  1  0
  4  5  1  0
  4  9  1  0
  4 28  1  6
  5  6  1  0
  5 29  1  0
  5 30  1  0
  6  7  1  0
  6 31  1  0
  6 32  1  0
  7  8  1  0
  7 33  1  0
  7 34  1  0
  8  9  1  0
  8 35  1  0
  9 36  1  0
  9 37  1  0
 10 11  2  0
 10 12  2  0
 10 13  1  0
 13 14  2  0
 13 21  1  0
 14 15  1  0
 14 38  1  0
 15 16  1  0
 15 17  1  0
 17 18  2  0
 17 19  1  0
 19 20  1  0
 19 21  1  0
 21 22  2  0
M  END

