
     RDKit          3D

 63 67  0  0  0  0  0  0  0  0999 V2000
    0.8362   -0.0750    0.4312 C   0  0  0  0  0  0  0  0  0  0  0  0
    2.3142   -0.1224    0.1351 C   0  0  0  0  0  0  0  0  0  0  0  0
    3.0536    1.0385   -0.1176 C   0  0  0  0  0  0  0  0  0  0  0  0
    4.4191    0.9613   -0.3814 C   0  0  0  0  0  0  0  0  0  0  0  0
    5.1114   -0.2668   -0.4031 C   0  0  0  0  0  0  0  0  0  0  0  0
    6.5518   -0.2345   -0.6873 C   0  0  0  0  0  0  0  0  0  0  0  0
    7.3197   -1.2762   -0.6936 N   0  0  0  0  0  0  0  0  0  0  0  0
    8.6007   -0.9033   -0.9974 N   0  0  0  0  0  0  0  0  0  0  0  0
    9.6875   -1.7421   -0.8283 C   0  0  0  0  0  0  0  0  0  0  0  0
   10.8119   -1.3250   -1.0318 O   0  0  0  0  0  0  0  0  0  0  0  0
    9.3545   -3.1580   -0.3473 C   0  0  0  0  0  0  0  0  0  0  0  0
   10.4698   -4.0671   -0.4730 N   0  0  0  0  0  0  0  0  0  0  0  0
   11.5513   -3.8963    0.4958 C   0  0  0  0  0  0  0  0  0  0  0  0
   11.2399   -4.5154    1.8727 C   0  0  0  0  0  0  0  0  0  0  0  0
   10.8471   -5.9900    1.7386 C   0  0  2  0  0  0  0  0  0  0  0  0
    9.7333   -6.1592    0.7019 C   0  0  0  0  0  0  0  0  0  0  0  0
   10.1156   -5.4727   -0.6245 C   0  0  0  0  0  0  0  0  0  0  0  0
   10.4524   -6.4919    3.0145 O   0  0  0  0  0  0  0  0  0  0  0  0
   11.1825   -7.6731    3.2883 C   0  0  0  0  0  0  0  0  0  0  0  0
   12.4515   -7.4767    2.4617 C   0  0  0  0  0  0  0  0  0  0  0  0
   11.9675   -6.7798    1.3299 O   0  0  0  0  0  0  0  0  0  0  0  0
    8.7333    0.5236   -1.3395 C   0  0  1  0  0  0  0  0  0  0  0  0
    9.5175    0.9678   -0.7119 H   0  0  0  0  0  0  0  0  0  0  0  0
    9.1027    0.7625   -2.7972 C   0  0  0  0  0  0  0  0  0  0  0  0
    8.9345   -0.2238   -3.7786 C   0  0  0  0  0  0  0  0  0  0  0  0
    9.2495    0.0171   -5.1174 C   0  0  0  0  0  0  0  0  0  0  0  0
    9.7456    1.2643   -5.5041 C   0  0  0  0  0  0  0  0  0  0  0  0
    9.9185    2.2679   -4.5494 C   0  0  0  0  0  0  0  0  0  0  0  0
    9.5930    2.0114   -3.2153 C   0  0  0  0  0  0  0  0  0  0  0  0
    9.8033    3.3096   -2.0468 Cl  0  0  0  0  0  0  0  0  0  0  0  0
    7.3233    1.0500   -0.9669 C   0  0  0  0  0  0  0  0  0  0  0  0
    4.3715   -1.4595   -0.1466 C   0  0  0  0  0  0  0  0  0  0  0  0
    4.9936   -2.8318   -0.1403 C   0  0  0  0  0  0  0  0  0  0  0  0
    3.0005   -1.3467    0.1114 C   0  0  0  0  0  0  0  0  0  0  0  0
    0.4322    0.9416    0.3168 H   0  0  0  0  0  0  0  0  0  0  0  0
    0.6258   -0.4055    1.4628 H   0  0  0  0  0  0  0  0  0  0  0  0
    0.2710   -0.7430   -0.2395 H   0  0  0  0  0  0  0  0  0  0  0  0
    2.5596    2.0138   -0.1108 H   0  0  0  0  0  0  0  0  0  0  0  0
    4.9609    1.8881   -0.5758 H   0  0  0  0  0  0  0  0  0  0  0  0
    8.5109   -3.5289   -0.9483 H   0  0  0  0  0  0  0  0  0  0  0  0
    8.9391   -3.0557    0.6819 H   0  0  0  0  0  0  0  0  0  0  0  0
   11.7874   -2.8281    0.5829 H   0  0  0  0  0  0  0  0  0  0  0  0
   12.4511   -4.3884    0.0893 H   0  0  0  0  0  0  0  0  0  0  0  0
   10.4093   -3.9867    2.3693 H   0  0  0  0  0  0  0  0  0  0  0  0
   12.1136   -4.4364    2.5400 H   0  0  0  0  0  0  0  0  0  0  0  0
    8.8134   -5.7168    1.1183 H   0  0  0  0  0  0  0  0  0  0  0  0
    9.5486   -7.2347    0.5491 H   0  0  0  0  0  0  0  0  0  0  0  0
    9.2960   -5.5655   -1.3552 H   0  0  0  0  0  0  0  0  0  0  0  0
   10.9861   -6.0021   -1.0492 H   0  0  0  0  0  0  0  0  0  0  0  0
   10.6285   -8.5756    2.9633 H   0  0  0  0  0  0  0  0  0  0  0  0
   11.3639   -7.7426    4.3720 H   0  0  0  0  0  0  0  0  0  0  0  0
   12.9209   -8.4153    2.1302 H   0  0  0  0  0  0  0  0  0  0  0  0
   13.2026   -6.8802    3.0161 H   0  0  0  0  0  0  0  0  0  0  0  0
    8.5579   -1.2032   -3.4774 H   0  0  0  0  0  0  0  0  0  0  0  0
    9.1120   -0.7744   -5.8577 H   0  0  0  0  0  0  0  0  0  0  0  0
   10.0012    1.4608   -6.5480 H   0  0  0  0  0  0  0  0  0  0  0  0
   10.3043    3.2504   -4.8264 H   0  0  0  0  0  0  0  0  0  0  0  0
    6.8773    1.6392   -1.7803 H   0  0  0  0  0  0  0  0  0  0  0  0
    7.3426    1.6938   -0.0725 H   0  0  0  0  0  0  0  0  0  0  0  0
    5.4869   -3.0572   -1.0981 H   0  0  0  0  0  0  0  0  0  0  0  0
    4.2301   -3.5990    0.0548 H   0  0  0  0  0  0  0  0  0  0  0  0
    5.7818   -2.9149    0.6232 H   0  0  0  0  0  0  0  0  0  0  0  0
    2.4381   -2.2657    0.3044 H   0  0  0  0  0  0  0  0  0  0  0  0
  1  2  1  0
  1 35  1  0
  1 36  1  0
  1 37  1  0
  2  3  2  0
  2 34  1  0
  3  4  1  0
  3 38  1  0
  4  5  2  0
  4 39  1  0
  5  6  1  0
  5 32  1  0
  6  7  2  0
  6 31  1  0
  7  8  1  0
  8  9  1  0
  8 22  1  0
  9 10  2  0
  9 11  1  0
 11 12  1  0
 11 40  1  0
 11 41  1  0
 12 13  1  0
 12 17  1  0
 13 14  1  0
 13 42  1  0
 13 43  1  0
 14 15  1  0
 14 44  1  0
 14 45  1  0
 15 16  1  0
 15 18  1  1
 15 21  1  0
 16 17  1  0
 16 46  1  0
 16 47  1  0
 17 48  1  0
 17 49  1  0
 18 19  1  0
 19 20  1  0
 19 50  1  0
 19 51  1  0
 20 21  1  0
 20 52  1  0
 20 53  1  0
 22 23  1  1
 22 24  1  0
 22 31  1  0
 24 25  2  0
 24 29  1  0
 25 26  1  0
 25 54  1  0
 26 27  2  0
 26 55  1  0
 27 28  1  0
 27 56  1  0
 28 29  2  0
 28 57  1  0
 29 30  1  0
 31 58  1  0
 31 59  1  0
 32 33  1  0
 32 34  2  0
 33 60  1  0
 33 61  1  0
 33 62  1  0
 34 63  1  0
M  END

