
     RDKit          3D

 31 32  0  0  0  0  0  0  0  0999 V2000
    1.5699    0.9795    0.0269 O   0  0  0  0  0  0  0  0  0  0  0  0
    2.4381    0.1669   -0.1272 C   0  0  0  0  0  0  0  0  0  0  0  0
    2.9031   -0.2599   -1.3280 O   0  0  0  0  0  0  0  0  0  0  0  0
    2.3396    0.1747   -2.5259 C   0  0  0  0  0  0  0  0  0  0  0  0
    2.1704    1.5290   -2.8232 C   0  0  0  0  0  0  0  0  0  0  0  0
    1.6578    1.8833   -4.0744 C   0  0  0  0  0  0  0  0  0  0  0  0
    1.3231    0.9017   -5.0127 C   0  0  0  0  0  0  0  0  0  0  0  0
    1.5019   -0.4491   -4.6982 C   0  0  0  0  0  0  0  0  0  0  0  0
    2.0101   -0.8180   -3.4504 C   0  0  0  0  0  0  0  0  0  0  0  0
    3.1656   -0.5354    1.0146 C   0  0  1  0  0  0  0  0  0  0  0  0
    2.5710   -2.2576    1.0658 Cl  0  0  0  0  0  0  0  0  0  0  0  0
    4.6960   -0.5122    0.9191 C   0  0  0  0  0  0  0  0  0  0  0  0
    5.2587    0.8948    0.9628 C   0  0  0  0  0  0  0  0  0  0  0  0
    5.4110    1.5646    2.1881 C   0  0  0  0  0  0  0  0  0  0  0  0
    5.9069    2.8695    2.2353 C   0  0  0  0  0  0  0  0  0  0  0  0
    6.2610    3.5282    1.0535 C   0  0  0  0  0  0  0  0  0  0  0  0
    6.1169    2.8724   -0.1721 C   0  0  0  0  0  0  0  0  0  0  0  0
    5.6181    1.5668   -0.2164 C   0  0  0  0  0  0  0  0  0  0  0  0
    2.4285    2.2903   -2.0876 H   0  0  0  0  0  0  0  0  0  0  0  0
    1.5194    2.9403   -4.3152 H   0  0  0  0  0  0  0  0  0  0  0  0
    0.9232    1.1897   -5.9878 H   0  0  0  0  0  0  0  0  0  0  0  0
    1.2435   -1.2224   -5.4259 H   0  0  0  0  0  0  0  0  0  0  0  0
    2.1585   -1.8645   -3.1772 H   0  0  0  0  0  0  0  0  0  0  0  0
    2.8113   -0.0672    1.9406 H   0  0  0  0  0  0  0  0  0  0  0  0
    4.9930   -1.0230   -0.0078 H   0  0  0  0  0  0  0  0  0  0  0  0
    5.0842   -1.1058    1.7612 H   0  0  0  0  0  0  0  0  0  0  0  0
    5.1452    1.0542    3.1190 H   0  0  0  0  0  0  0  0  0  0  0  0
    6.0219    3.3727    3.1988 H   0  0  0  0  0  0  0  0  0  0  0  0
    6.6519    4.5482    1.0890 H   0  0  0  0  0  0  0  0  0  0  0  0
    6.3970    3.3774   -1.1003 H   0  0  0  0  0  0  0  0  0  0  0  0
    5.5109    1.0588   -1.1783 H   0  0  0  0  0  0  0  0  0  0  0  0
  1  2  2  0
  2  3  1  0
  2 10  1  0
  3  4  1  0
  4  5  2  0
  4  9  1  0
  5  6  1  0
  5 19  1  0
  6  7  2  0
  6 20  1  0
  7  8  1  0
  7 21  1  0
  8  9  2  0
  8 22  1  0
  9 23  1  0
 10 11  1  0
 10 12  1  0
 10 24  1  1
 12 13  1  0
 12 25  1  0
 12 26  1  0
 13 14  2  0
 13 18  1  0
 14 15  1  0
 14 27  1  0
 15 16  2  0
 15 28  1  0
 16 17  1  0
 16 29  1  0
 17 18  2  0
 17 30  1  0
 18 31  1  0
M  END

