
     RDKit          3D

 41 42  0  0  0  0  0  0  0  0999 V2000
    5.3477    2.4964    0.3683 C   0  0  0  0  0  0  0  0  0  0  0  0
    3.8270    2.4209    0.2310 C   0  0  0  0  0  0  0  0  0  0  0  0
    3.3438    1.8489   -1.1049 C   0  0  0  0  0  0  0  0  0  0  0  0
    3.7438    0.4612   -1.2932 N   0  0  0  0  0  0  0  0  0  0  0  0
    4.2133   -0.0346   -2.4656 C   0  0  0  0  0  0  0  0  0  0  0  0
    4.4585    0.6920   -3.5239 N   0  0  0  0  0  0  0  0  0  0  0  0
    4.9472   -0.0706   -4.5507 C   0  0  0  0  0  0  0  0  0  0  0  0
    5.2824    0.5409   -5.7062 N   0  0  0  0  0  0  0  0  0  0  0  0
    5.0567   -1.4558   -4.3173 C   0  0  0  0  0  0  0  0  0  0  0  0
    5.6862   -2.3649   -5.2654 C   0  0  0  0  0  0  0  0  0  0  0  0
    6.1985   -1.8994   -6.3029 O   0  0  0  0  0  0  0  0  0  0  0  0
    5.7434   -3.7292   -5.0306 N   0  0  0  0  0  0  0  0  0  0  0  0
    4.8710   -4.4373   -4.1111 C   0  0  0  0  0  0  0  0  0  0  0  0
    6.5821   -4.5355   -5.9390 C   0  0  1  0  0  0  0  0  0  0  0  0
    7.5072   -5.4761   -5.1593 C   0  0  0  0  0  0  0  0  0  0  0  0
    5.7601   -5.2232   -7.0132 C   0  0  0  0  0  0  0  0  0  0  0  0
    5.1858   -4.6256   -8.1121 C   0  0  0  0  0  0  0  0  0  0  0  0
    4.4373   -5.5301   -8.9237 C   0  0  0  0  0  0  0  0  0  0  0  0
    4.4463   -6.8129   -8.4361 C   0  0  0  0  0  0  0  0  0  0  0  0
    5.3712   -6.9278   -6.9792 S   0  0  0  0  0  0  0  0  0  0  0  0
    4.5380   -1.7549   -2.6341 S   0  0  0  0  0  0  0  0  0  0  0  0
    5.6401    2.9050    1.3483 H   0  0  0  0  0  0  0  0  0  0  0  0
    5.7854    3.1428   -0.4101 H   0  0  0  0  0  0  0  0  0  0  0  0
    5.8089    1.5013    0.2672 H   0  0  0  0  0  0  0  0  0  0  0  0
    3.3862    3.4268    0.3410 H   0  0  0  0  0  0  0  0  0  0  0  0
    3.4024    1.8209    1.0581 H   0  0  0  0  0  0  0  0  0  0  0  0
    3.7643    2.4136   -1.9488 H   0  0  0  0  0  0  0  0  0  0  0  0
    2.2429    1.9408   -1.1734 H   0  0  0  0  0  0  0  0  0  0  0  0
    3.5040   -0.2034   -0.5675 H   0  0  0  0  0  0  0  0  0  0  0  0
    5.2993    1.5510   -5.7217 H   0  0  0  0  0  0  0  0  0  0  0  0
    5.7948   -0.0339   -6.3744 H   0  0  0  0  0  0  0  0  0  0  0  0
    3.9183   -3.9056   -3.9860 H   0  0  0  0  0  0  0  0  0  0  0  0
    5.3191   -4.5960   -3.1136 H   0  0  0  0  0  0  0  0  0  0  0  0
    4.6255   -5.4244   -4.5326 H   0  0  0  0  0  0  0  0  0  0  0  0
    7.1978   -3.7946   -6.4636 H   0  0  0  0  0  0  0  0  0  0  0  0
    6.9546   -6.2566   -4.6115 H   0  0  0  0  0  0  0  0  0  0  0  0
    8.0976   -4.9032   -4.4283 H   0  0  0  0  0  0  0  0  0  0  0  0
    8.2021   -5.9824   -5.8463 H   0  0  0  0  0  0  0  0  0  0  0  0
    5.3044   -3.5590   -8.3096 H   0  0  0  0  0  0  0  0  0  0  0  0
    3.9171   -5.2413   -9.8388 H   0  0  0  0  0  0  0  0  0  0  0  0
    3.9713   -7.6994   -8.8541 H   0  0  0  0  0  0  0  0  0  0  0  0
  1  2  1  0
  1 22  1  0
  1 23  1  0
  1 24  1  0
  2  3  1  0
  2 25  1  0
  2 26  1  0
  3  4  1  0
  3 27  1  0
  3 28  1  0
  4  5  1  0
  4 29  1  0
  5  6  2  0
  5 21  1  0
  6  7  1  0
  7  8  1  0
  7  9  2  0
  8 30  1  0
  8 31  1  0
  9 10  1  0
  9 21  1  0
 10 11  2  0
 10 12  1  0
 12 13  1  0
 12 14  1  0
 13 32  1  0
 13 33  1  0
 13 34  1  0
 14 15  1  0
 14 16  1  0
 14 35  1  6
 15 36  1  0
 15 37  1  0
 15 38  1  0
 16 17  2  0
 16 20  1  0
 17 18  1  0
 17 39  1  0
 18 19  2  0
 18 40  1  0
 19 20  1  0
 19 41  1  0
M  END

