
     RDKit          3D

 41 44  0  0  0  0  0  0  0  0999 V2000
    1.9240    0.9704    1.3614 C   0  0  0  0  0  0  0  0  0  0  0  0
    2.7093    0.1867    0.3248 C   0  0  0  0  0  0  0  0  0  0  0  0
    2.8952   -1.0787    0.3737 N   0  0  0  0  0  0  0  0  0  0  0  0
    3.3045    0.9544   -0.6971 N   0  0  0  0  0  0  0  0  0  0  0  0
    4.4607    0.4985   -1.4276 C   0  0  0  0  0  0  0  0  0  0  0  0
    4.8609   -0.6978   -1.5122 N   0  0  0  0  0  0  0  0  0  0  0  0
    5.2352    1.6248   -2.0847 C   0  0  1  0  0  0  0  0  0  0  0  0
    6.2494    1.2355   -3.1152 C   0  0  0  0  0  0  0  0  0  0  0  0
    4.9803    1.9105   -3.5630 C   0  0  0  0  0  0  0  0  0  0  0  0
    5.5928    2.7070   -1.2032 N   0  0  0  0  0  0  0  0  0  0  0  0
    4.6974    3.5031   -0.7436 C   0  0  0  0  0  0  0  0  0  0  0  0
    5.1354    4.5971    0.1753 C   0  0  0  0  0  0  0  0  0  0  0  0
    6.4944    4.9627    0.2162 C   0  0  0  0  0  0  0  0  0  0  0  0
    6.9480    5.9533    1.0820 C   0  0  0  0  0  0  0  0  0  0  0  0
    6.0386    6.5902    1.9359 C   0  0  0  0  0  0  0  0  0  0  0  0
    6.6012    7.8345    3.0256 Cl  0  0  0  0  0  0  0  0  0  0  0  0
    4.6873    6.2382    1.9262 C   0  0  0  0  0  0  0  0  0  0  0  0
    4.2443    5.2477    1.0464 C   0  0  0  0  0  0  0  0  0  0  0  0
    3.2608    3.3930   -1.1323 C   0  0  0  0  0  0  0  0  0  0  0  0
    2.5435    4.5159   -1.5838 C   0  0  0  0  0  0  0  0  0  0  0  0
    1.2319    4.3996   -2.0422 C   0  0  0  0  0  0  0  0  0  0  0  0
    0.6138    3.1447   -2.0611 C   0  0  0  0  0  0  0  0  0  0  0  0
    1.3140    2.0198   -1.6278 C   0  0  0  0  0  0  0  0  0  0  0  0
    2.6307    2.1316   -1.1519 C   0  0  0  0  0  0  0  0  0  0  0  0
    1.7352    0.3314    2.2353 H   0  0  0  0  0  0  0  0  0  0  0  0
    0.9544    1.3134    0.9728 H   0  0  0  0  0  0  0  0  0  0  0  0
    2.4802    1.8634    1.6844 H   0  0  0  0  0  0  0  0  0  0  0  0
    2.4901   -1.4722    1.2248 H   0  0  0  0  0  0  0  0  0  0  0  0
    4.2226   -1.3288   -1.0116 H   0  0  0  0  0  0  0  0  0  0  0  0
    6.3739    0.1682   -3.3049 H   0  0  0  0  0  0  0  0  0  0  0  0
    7.1636    1.8345   -3.1117 H   0  0  0  0  0  0  0  0  0  0  0  0
    4.2189    1.3130   -4.0726 H   0  0  0  0  0  0  0  0  0  0  0  0
    5.0245    2.9579   -3.8751 H   0  0  0  0  0  0  0  0  0  0  0  0
    7.1882    4.4433   -0.4464 H   0  0  0  0  0  0  0  0  0  0  0  0
    8.0014    6.2377    1.1035 H   0  0  0  0  0  0  0  0  0  0  0  0
    3.9913    6.7345    2.6043 H   0  0  0  0  0  0  0  0  0  0  0  0
    3.1879    4.9730    1.0542 H   0  0  0  0  0  0  0  0  0  0  0  0
    3.0334    5.4919   -1.5834 H   0  0  0  0  0  0  0  0  0  0  0  0
    0.6959    5.2842   -2.3940 H   0  0  0  0  0  0  0  0  0  0  0  0
   -0.4097    3.0391   -2.4293 H   0  0  0  0  0  0  0  0  0  0  0  0
    0.8484    1.0320   -1.6639 H   0  0  0  0  0  0  0  0  0  0  0  0
  1  2  1  0
  1 25  1  0
  1 26  1  0
  1 27  1  0
  2  3  2  0
  2  4  1  0
  3 28  1  0
  4  5  1  0
  4 24  1  0
  5  6  2  0
  5  7  1  0
  6 29  1  0
  7  8  1  0
  7  9  1  0
  7 10  1  1
  8  9  1  0
  8 30  1  0
  8 31  1  0
  9 32  1  0
  9 33  1  0
 10 11  2  0
 11 12  1  0
 11 19  1  0
 12 13  2  0
 12 18  1  0
 13 14  1  0
 13 34  1  0
 14 15  2  0
 14 35  1  0
 15 16  1  0
 15 17  1  0
 17 18  2  0
 17 36  1  0
 18 37  1  0
 19 20  2  0
 19 24  1  0
 20 21  1  0
 20 38  1  0
 21 22  2  0
 21 39  1  0
 22 23  1  0
 22 40  1  0
 23 24  2  0
 23 41  1  0
M  END

