
     RDKit          3D

 42 44  0  0  0  0  0  0  0  0999 V2000
    1.5087    1.1287   -1.6022 C   0  0  0  0  0  0  0  0  0  0  0  0
    2.2294    0.3789   -0.4826 C   0  0  0  0  0  0  0  0  0  0  0  0
    2.9268   -0.8265   -0.9418 N   0  0  0  0  0  0  0  0  0  0  0  0
    2.3669   -2.0520   -0.6521 C   0  0  0  0  0  0  0  0  0  0  0  0
    1.3246   -2.1820   -0.0330 O   0  0  0  0  0  0  0  0  0  0  0  0
    3.1857   -3.2654   -1.1196 C   0  0  1  0  0  0  0  0  0  0  0  0
    2.3226   -4.5174   -1.2650 C   0  0  0  0  0  0  0  0  0  0  0  0
    3.1158   -5.7880   -1.4728 C   0  0  0  0  0  0  0  0  0  0  0  0
    3.4202   -6.6340   -0.3909 C   0  0  0  0  0  0  0  0  0  0  0  0
    4.1671   -7.7954   -0.5631 C   0  0  0  0  0  0  0  0  0  0  0  0
    4.6364   -8.1514   -1.8387 C   0  0  0  0  0  0  0  0  0  0  0  0
    5.3538   -9.3035   -1.9148 O   0  0  0  0  0  0  0  0  0  0  0  0
    5.8466   -9.7269   -3.1642 C   0  0  0  0  0  0  0  0  0  0  0  0
    4.3412   -7.3224   -2.9314 C   0  0  0  0  0  0  0  0  0  0  0  0
    3.5904   -6.1572   -2.7374 C   0  0  0  0  0  0  0  0  0  0  0  0
    3.8220   -3.0061   -2.3720 O   0  0  0  0  0  0  0  0  0  0  0  0
    4.5552   -1.8616   -2.4149 C   0  0  0  0  0  0  0  0  0  0  0  0
    5.7007   -1.8216   -3.2107 C   0  0  0  0  0  0  0  0  0  0  0  0
    6.4515   -0.6424   -3.2982 C   0  0  0  0  0  0  0  0  0  0  0  0
    7.5717   -0.5445   -4.0614 O   0  0  0  0  0  0  0  0  0  0  0  0
    6.0514    0.4838   -2.5677 C   0  0  0  0  0  0  0  0  0  0  0  0
    4.9069    0.4317   -1.7709 C   0  0  0  0  0  0  0  0  0  0  0  0
    4.1324   -0.7344   -1.6842 C   0  0  0  0  0  0  0  0  0  0  0  0
    1.0068    2.0209   -1.1951 H   0  0  0  0  0  0  0  0  0  0  0  0
    0.7418    0.4889   -2.0654 H   0  0  0  0  0  0  0  0  0  0  0  0
    2.2020    1.4598   -2.3908 H   0  0  0  0  0  0  0  0  0  0  0  0
    1.5069    0.0377    0.2690 H   0  0  0  0  0  0  0  0  0  0  0  0
    2.9514    1.0337    0.0309 H   0  0  0  0  0  0  0  0  0  0  0  0
    3.9706   -3.4444   -0.3552 H   0  0  0  0  0  0  0  0  0  0  0  0
    1.6280   -4.3471   -2.1038 H   0  0  0  0  0  0  0  0  0  0  0  0
    1.7083   -4.5851   -0.3565 H   0  0  0  0  0  0  0  0  0  0  0  0
    3.0568   -6.3801    0.6096 H   0  0  0  0  0  0  0  0  0  0  0  0
    4.3977   -8.4536    0.2771 H   0  0  0  0  0  0  0  0  0  0  0  0
    6.3853  -10.6678   -2.9871 H   0  0  0  0  0  0  0  0  0  0  0  0
    6.5471   -8.9928   -3.6030 H   0  0  0  0  0  0  0  0  0  0  0  0
    5.0324   -9.9134   -3.8883 H   0  0  0  0  0  0  0  0  0  0  0  0
    4.6847   -7.5728   -3.9355 H   0  0  0  0  0  0  0  0  0  0  0  0
    3.3716   -5.5195   -3.5973 H   0  0  0  0  0  0  0  0  0  0  0  0
    5.9870   -2.7274   -3.7512 H   0  0  0  0  0  0  0  0  0  0  0  0
    7.7302   -1.3836   -4.5127 H   0  0  0  0  0  0  0  0  0  0  0  0
    6.6446    1.3969   -2.6360 H   0  0  0  0  0  0  0  0  0  0  0  0
    4.6122    1.3258   -1.2216 H   0  0  0  0  0  0  0  0  0  0  0  0
  1  2  1  0
  1 24  1  0
  1 25  1  0
  1 26  1  0
  2  3  1  0
  2 27  1  0
  2 28  1  0
  3  4  1  0
  3 23  1  0
  4  5  2  0
  4  6  1  0
  6  7  1  0
  6 16  1  0
  6 29  1  1
  7  8  1  0
  7 30  1  0
  7 31  1  0
  8  9  2  0
  8 15  1  0
  9 10  1  0
  9 32  1  0
 10 11  2  0
 10 33  1  0
 11 12  1  0
 11 14  1  0
 12 13  1  0
 13 34  1  0
 13 35  1  0
 13 36  1  0
 14 15  2  0
 14 37  1  0
 15 38  1  0
 16 17  1  0
 17 18  1  0
 17 23  2  0
 18 19  2  0
 18 39  1  0
 19 20  1  0
 19 21  1  0
 20 40  1  0
 21 22  2  0
 21 41  1  0
 22 23  1  0
 22 42  1  0
M  END

