
     RDKit          3D

 30 30  0  0  0  0  0  0  0  0999 V2000
    1.0503   -0.2996    0.0997 O   0  0  0  0  0  0  0  0  0  0  0  0
    2.1725   -0.0588   -0.2906 C   0  0  0  0  0  0  0  0  0  0  0  0
    2.6856    1.1771   -0.5451 N   0  0  0  0  0  0  0  0  0  0  0  0
    1.9383    2.3954   -0.3789 C   0  0  1  0  0  0  0  0  0  0  0  0
    2.5085    3.5298    0.5139 C   0  0  0  0  0  0  0  0  0  0  0  0
    1.9348    4.5503   -0.5031 C   0  0  0  0  0  0  0  0  0  0  0  0
    1.8572    3.4095   -1.5509 C   0  0  0  0  0  0  0  0  0  0  0  0
    3.1158   -1.0092   -0.5415 O   0  0  0  0  0  0  0  0  0  0  0  0
    2.7450   -2.3636   -0.2886 C   0  0  0  0  0  0  0  0  0  0  0  0
    2.0125   -2.9664   -1.4805 C   0  0  0  0  0  0  0  0  0  0  0  0
    1.8270   -4.3357   -1.2099 O   0  0  0  0  0  0  0  0  0  0  0  0
    1.1107   -5.0326   -2.1983 C   0  0  0  0  0  0  0  0  0  0  0  0
    0.9865   -6.4749   -1.7356 C   0  0  0  0  0  0  0  0  0  0  0  0
    0.0870   -7.4489   -2.9555 Cl  0  0  0  0  0  0  0  0  0  0  0  0
    3.6506    1.2201   -0.8527 H   0  0  0  0  0  0  0  0  0  0  0  0
    0.9345    2.0990   -0.0440 H   0  0  0  0  0  0  0  0  0  0  0  0
    3.6112    3.5239    0.5022 H   0  0  0  0  0  0  0  0  0  0  0  0
    2.1701    3.5764    1.5604 H   0  0  0  0  0  0  0  0  0  0  0  0
    2.5558    5.4239   -0.7500 H   0  0  0  0  0  0  0  0  0  0  0  0
    0.9353    4.9058   -0.2087 H   0  0  0  0  0  0  0  0  0  0  0  0
    2.7678    3.3684   -2.1715 H   0  0  0  0  0  0  0  0  0  0  0  0
    0.9797    3.3570   -2.2136 H   0  0  0  0  0  0  0  0  0  0  0  0
    2.1136   -2.4258    0.6093 H   0  0  0  0  0  0  0  0  0  0  0  0
    3.6832   -2.9094   -0.1146 H   0  0  0  0  0  0  0  0  0  0  0  0
    2.6132   -2.8177   -2.4017 H   0  0  0  0  0  0  0  0  0  0  0  0
    1.0423   -2.4519   -1.6205 H   0  0  0  0  0  0  0  0  0  0  0  0
    1.6320   -4.9961   -3.1765 H   0  0  0  0  0  0  0  0  0  0  0  0
    0.1021   -4.5976   -2.3478 H   0  0  0  0  0  0  0  0  0  0  0  0
    0.4394   -6.5338   -0.7853 H   0  0  0  0  0  0  0  0  0  0  0  0
    1.9779   -6.9291   -1.6048 H   0  0  0  0  0  0  0  0  0  0  0  0
  1  2  2  0
  2  3  1  0
  2  8  1  0
  3  4  1  0
  3 15  1  0
  4  5  1  0
  4  7  1  0
  4 16  1  1
  5  6  1  0
  5 17  1  0
  5 18  1  0
  6  7  1  0
  6 19  1  0
  6 20  1  0
  7 21  1  0
  7 22  1  0
  8  9  1  0
  9 10  1  0
  9 23  1  0
  9 24  1  0
 10 11  1  0
 10 25  1  0
 10 26  1  0
 11 12  1  0
 12 13  1  0
 12 27  1  0
 12 28  1  0
 13 14  1  0
 13 29  1  0
 13 30  1  0
M  END

