
     RDKit          3D

 44 45  0  0  0  0  0  0  0  0999 V2000
    8.1529   -4.1778   -7.4650 C   0  0  0  0  0  0  0  0  0  0  0  0
    7.4006   -4.0074   -6.1450 C   0  0  0  0  0  0  0  0  0  0  0  0
    6.9871   -2.5657   -5.8918 C   0  0  0  0  0  0  0  0  0  0  0  0
    6.3006   -2.5025   -4.6511 O   0  0  0  0  0  0  0  0  0  0  0  0
    5.8388   -1.3014   -4.1877 C   0  0  0  0  0  0  0  0  0  0  0  0
    5.9549   -0.0870   -4.8621 C   0  0  0  0  0  0  0  0  0  0  0  0
    5.4423    1.0896   -4.2984 C   0  0  0  0  0  0  0  0  0  0  0  0
    4.8201    1.0267   -3.0555 C   0  0  0  0  0  0  0  0  0  0  0  0
    4.1771    2.4909   -2.3369 Cl  0  0  0  0  0  0  0  0  0  0  0  0
    4.6953   -0.1788   -2.3555 C   0  0  0  0  0  0  0  0  0  0  0  0
    5.2022   -1.3562   -2.9174 C   0  0  0  0  0  0  0  0  0  0  0  0
    5.1288   -2.6240   -2.3294 N   0  0  0  0  0  0  0  0  0  0  0  0
    4.5912   -2.9591   -1.0977 C   0  0  0  0  0  0  0  0  0  0  0  0
    4.1972   -2.1267   -0.2931 O   0  0  0  0  0  0  0  0  0  0  0  0
    4.5334   -4.3211   -0.8347 N   0  0  0  0  0  0  0  0  0  0  0  0
    4.2252   -4.7445    0.5256 C   0  0  0  0  0  0  0  0  0  0  0  0
    3.0213   -5.6892    0.5569 C   0  0  0  0  0  0  0  0  0  0  0  0
    3.2239   -6.8986   -0.3864 C   0  0  2  0  0  0  0  0  0  0  0  0
    4.2530   -7.8996    0.1542 C   0  0  0  0  0  0  0  0  0  0  0  0
    5.2555   -8.2277   -0.4214 O   0  0  0  0  0  0  0  0  0  0  0  0
    3.9642   -8.4341    1.3633 O   0  0  0  0  0  0  0  0  0  0  0  0
    3.5996   -6.4035   -1.7911 C   0  0  0  0  0  0  0  0  0  0  0  0
    4.7707   -5.4071   -1.7812 C   0  0  0  0  0  0  0  0  0  0  0  0
    8.4396   -5.2286   -7.6225 H   0  0  0  0  0  0  0  0  0  0  0  0
    9.0767   -3.5761   -7.4853 H   0  0  0  0  0  0  0  0  0  0  0  0
    7.5363   -3.8701   -8.3259 H   0  0  0  0  0  0  0  0  0  0  0  0
    8.0263   -4.3458   -5.3017 H   0  0  0  0  0  0  0  0  0  0  0  0
    6.4952   -4.6381   -6.1370 H   0  0  0  0  0  0  0  0  0  0  0  0
    6.3295   -2.2019   -6.7043 H   0  0  0  0  0  0  0  0  0  0  0  0
    7.8749   -1.9055   -5.8637 H   0  0  0  0  0  0  0  0  0  0  0  0
    6.4427   -0.0394   -5.8356 H   0  0  0  0  0  0  0  0  0  0  0  0
    5.5308    2.0409   -4.8241 H   0  0  0  0  0  0  0  0  0  0  0  0
    4.2203   -0.2182   -1.3792 H   0  0  0  0  0  0  0  0  0  0  0  0
    5.6130   -3.3338   -2.8640 H   0  0  0  0  0  0  0  0  0  0  0  0
    4.0265   -3.8419    1.1152 H   0  0  0  0  0  0  0  0  0  0  0  0
    5.1096   -5.2499    0.9624 H   0  0  0  0  0  0  0  0  0  0  0  0
    2.1232   -5.1384    0.2330 H   0  0  0  0  0  0  0  0  0  0  0  0
    2.8352   -6.0080    1.5971 H   0  0  0  0  0  0  0  0  0  0  0  0
    2.2705   -7.4558   -0.4500 H   0  0  0  0  0  0  0  0  0  0  0  0
    3.1222   -8.0928    1.6970 H   0  0  0  0  0  0  0  0  0  0  0  0
    2.7171   -5.9093   -2.2300 H   0  0  0  0  0  0  0  0  0  0  0  0
    3.8617   -7.2569   -2.4338 H   0  0  0  0  0  0  0  0  0  0  0  0
    4.8797   -5.0082   -2.7976 H   0  0  0  0  0  0  0  0  0  0  0  0
    5.7026   -5.9424   -1.5272 H   0  0  0  0  0  0  0  0  0  0  0  0
  1  2  1  0
  1 24  1  0
  1 25  1  0
  1 26  1  0
  2  3  1  0
  2 27  1  0
  2 28  1  0
  3  4  1  0
  3 29  1  0
  3 30  1  0
  4  5  1  0
  5  6  2  0
  5 11  1  0
  6  7  1  0
  6 31  1  0
  7  8  2  0
  7 32  1  0
  8  9  1  0
  8 10  1  0
 10 11  2  0
 10 33  1  0
 11 12  1  0
 12 13  1  0
 12 34  1  0
 13 14  2  0
 13 15  1  0
 15 16  1  0
 15 23  1  0
 16 17  1  0
 16 35  1  0
 16 36  1  0
 17 18  1  0
 17 37  1  0
 17 38  1  0
 18 19  1  0
 18 22  1  0
 18 39  1  6
 19 20  2  0
 19 21  1  0
 21 40  1  0
 22 23  1  0
 22 41  1  0
 22 42  1  0
 23 43  1  0
 23 44  1  0
M  END

