
     RDKit          3D

 26 28  0  0  0  0  0  0  0  0999 V2000
   11.3207    2.5866   -0.8453 N   0  0  0  0  0  0  0  0  0  0  0  0
   10.6550    1.6343   -0.8831 C   0  0  0  0  0  0  0  0  0  0  0  0
    9.8379    0.4738   -0.9326 C   0  0  0  0  0  0  0  0  0  0  0  0
   10.0718   -0.6856   -1.6560 C   0  0  0  0  0  0  0  0  0  0  0  0
    9.0538   -1.6511   -1.4696 C   0  0  0  0  0  0  0  0  0  0  0  0
    8.0568   -1.2298   -0.6060 C   0  0  0  0  0  0  0  0  0  0  0  0
    6.7716   -1.8488   -0.1686 C   0  0  0  0  0  0  0  0  0  0  0  0
    5.8609   -1.0973    0.1920 O   0  0  0  0  0  0  0  0  0  0  0  0
    6.6506   -3.2963   -0.1761 C   0  0  0  0  0  0  0  0  0  0  0  0
    7.6251   -4.3110   -0.2920 C   0  0  0  0  0  0  0  0  0  0  0  0
    7.0096   -5.5558   -0.1941 C   0  0  0  0  0  0  0  0  0  0  0  0
    5.6308   -5.3298   -0.0090 C   0  0  0  0  0  0  0  0  0  0  0  0
    4.5191   -6.1892    0.1449 C   0  0  0  0  0  0  0  0  0  0  0  0
    3.2604   -5.6569    0.3193 C   0  0  0  0  0  0  0  0  0  0  0  0
    3.0912   -4.2460    0.3468 C   0  0  0  0  0  0  0  0  0  0  0  0
    4.1689   -3.4105    0.1997 C   0  0  0  0  0  0  0  0  0  0  0  0
    5.4235   -3.9436    0.0160 N   0  0  0  0  0  0  0  0  0  0  0  0
    8.3480    0.3865   -0.0379 S   0  0  0  0  0  0  0  0  0  0  0  0
   10.9416   -0.8188   -2.3000 H   0  0  0  0  0  0  0  0  0  0  0  0
    9.0354   -2.6101   -1.9852 H   0  0  0  0  0  0  0  0  0  0  0  0
    8.6917   -4.1344   -0.4004 H   0  0  0  0  0  0  0  0  0  0  0  0
    7.4841   -6.5336   -0.2350 H   0  0  0  0  0  0  0  0  0  0  0  0
    4.6866   -7.2675    0.1210 H   0  0  0  0  0  0  0  0  0  0  0  0
    2.3951   -6.3122    0.4402 H   0  0  0  0  0  0  0  0  0  0  0  0
    2.1041   -3.8049    0.4928 H   0  0  0  0  0  0  0  0  0  0  0  0
    4.1259   -2.3241    0.2307 H   0  0  0  0  0  0  0  0  0  0  0  0
  1  2  3  0
  2  3  1  0
  3  4  2  0
  3 18  1  0
  4  5  1  0
  4 19  1  0
  5  6  2  0
  5 20  1  0
  6  7  1  0
  6 18  1  0
  7  8  2  0
  7  9  1  0
  9 10  2  0
  9 17  1  0
 10 11  1  0
 10 21  1  0
 11 12  2  0
 11 22  1  0
 12 13  1  0
 12 17  1  0
 13 14  2  0
 13 23  1  0
 14 15  1  0
 14 24  1  0
 15 16  2  0
 15 25  1  0
 16 17  1  0
 16 26  1  0
M  END

