
     RDKit          3D

 58 61  0  0  0  0  0  0  0  0999 V2000
    2.6476   -0.6523    0.5681 C   0  0  0  0  0  0  0  0  0  0  0  0
    3.7226    0.1609    1.2403 C   0  0  0  0  0  0  0  0  0  0  0  0
    4.0462    1.4480    0.7733 C   0  0  0  0  0  0  0  0  0  0  0  0
    5.0437    2.2185    1.3865 C   0  0  0  0  0  0  0  0  0  0  0  0
    5.4056    3.4685    0.9885 O   0  0  0  0  0  0  0  0  0  0  0  0
    4.7734    4.0489   -0.1419 C   0  0  0  0  0  0  0  0  0  0  0  0
    5.3603    5.3901   -0.3998 C   0  0  0  0  0  0  0  0  0  0  0  0
    4.8817    6.6662   -0.2487 C   0  0  0  0  0  0  0  0  0  0  0  0
    5.9246    7.5462   -0.6702 C   0  0  0  0  0  0  0  0  0  0  0  0
    6.9702    6.7441   -1.0458 C   0  0  0  0  0  0  0  0  0  0  0  0
    8.3151    7.1004   -1.5601 C   0  0  0  0  0  0  0  0  0  0  0  0
    8.6215    8.2689   -1.7356 O   0  0  0  0  0  0  0  0  0  0  0  0
    9.1227    6.0146   -1.7968 N   0  0  0  0  0  0  0  0  0  0  0  0
   10.4435    5.9828   -2.2803 C   0  0  0  0  0  0  0  0  0  0  0  0
   11.1718    7.1372   -2.6241 C   0  0  0  0  0  0  0  0  0  0  0  0
   12.4780    7.0131   -3.0973 C   0  0  0  0  0  0  0  0  0  0  0  0
   13.0994    5.7642   -3.2441 C   0  0  0  0  0  0  0  0  0  0  0  0
   14.5025    5.6489   -3.8157 C   0  0  0  0  0  0  0  0  0  0  0  0
   15.4062    6.6859   -3.3393 N   0  0  0  0  0  0  0  0  0  0  0  0
   15.7953    6.5737   -1.9333 C   0  0  0  0  0  0  0  0  0  0  0  0
   16.9131    5.5452   -1.6823 C   0  0  0  0  0  0  0  0  0  0  0  0
   18.1281    5.8338   -2.5758 C   0  0  0  0  0  0  0  0  0  0  0  0
   17.7071    5.9547   -4.0473 C   0  0  0  0  0  0  0  0  0  0  0  0
   16.5557    6.9660   -4.1944 C   0  0  0  0  0  0  0  0  0  0  0  0
   12.3659    4.6239   -2.8897 C   0  0  0  0  0  0  0  0  0  0  0  0
   11.0578    4.7259   -2.4182 C   0  0  0  0  0  0  0  0  0  0  0  0
    6.6302    5.4319   -0.8872 O   0  0  0  0  0  0  0  0  0  0  0  0
    5.7368    1.7004    2.4925 C   0  0  0  0  0  0  0  0  0  0  0  0
    5.4294    0.4309    2.9676 C   0  0  0  0  0  0  0  0  0  0  0  0
    4.4327   -0.3300    2.3463 C   0  0  0  0  0  0  0  0  0  0  0  0
    4.0760   -1.9290    2.9775 Cl  0  0  0  0  0  0  0  0  0  0  0  0
    2.2066   -0.1076   -0.2788 H   0  0  0  0  0  0  0  0  0  0  0  0
    1.8420   -0.9072    1.2758 H   0  0  0  0  0  0  0  0  0  0  0  0
    3.0481   -1.6094    0.1963 H   0  0  0  0  0  0  0  0  0  0  0  0
    3.4937    1.8317   -0.0848 H   0  0  0  0  0  0  0  0  0  0  0  0
    3.6883    4.1656    0.0281 H   0  0  0  0  0  0  0  0  0  0  0  0
    4.9108    3.4005   -1.0279 H   0  0  0  0  0  0  0  0  0  0  0  0
    3.8972    6.9388    0.1257 H   0  0  0  0  0  0  0  0  0  0  0  0
    5.9257    8.6327   -0.6980 H   0  0  0  0  0  0  0  0  0  0  0  0
    8.7118    5.1112   -1.5864 H   0  0  0  0  0  0  0  0  0  0  0  0
   10.7045    8.1131   -2.5147 H   0  0  0  0  0  0  0  0  0  0  0  0
   13.0464    7.9106   -3.3526 H   0  0  0  0  0  0  0  0  0  0  0  0
   14.4420    5.7543   -4.9141 H   0  0  0  0  0  0  0  0  0  0  0  0
   14.8679    4.6130   -3.6383 H   0  0  0  0  0  0  0  0  0  0  0  0
   14.9017    6.3373   -1.3350 H   0  0  0  0  0  0  0  0  0  0  0  0
   16.1445    7.5683   -1.5970 H   0  0  0  0  0  0  0  0  0  0  0  0
   16.5362    4.5270   -1.8881 H   0  0  0  0  0  0  0  0  0  0  0  0
   17.1991    5.5593   -0.6165 H   0  0  0  0  0  0  0  0  0  0  0  0
   18.8993    5.0551   -2.4517 H   0  0  0  0  0  0  0  0  0  0  0  0
   18.5932    6.7854   -2.2557 H   0  0  0  0  0  0  0  0  0  0  0  0
   17.3846    4.9672   -4.4246 H   0  0  0  0  0  0  0  0  0  0  0  0
   18.5608    6.2650   -4.6744 H   0  0  0  0  0  0  0  0  0  0  0  0
   16.2154    7.0224   -5.2414 H   0  0  0  0  0  0  0  0  0  0  0  0
   16.9355    7.9719   -3.9314 H   0  0  0  0  0  0  0  0  0  0  0  0
   12.8238    3.6344   -2.9820 H   0  0  0  0  0  0  0  0  0  0  0  0
   10.5064    3.8207   -2.1456 H   0  0  0  0  0  0  0  0  0  0  0  0
    6.5104    2.3103    2.9623 H   0  0  0  0  0  0  0  0  0  0  0  0
    5.9614    0.0179    3.8264 H   0  0  0  0  0  0  0  0  0  0  0  0
  1  2  1  0
  1 32  1  0
  1 33  1  0
  1 34  1  0
  2  3  2  0
  2 30  1  0
  3  4  1  0
  3 35  1  0
  4  5  1  0
  4 28  2  0
  5  6  1  0
  6  7  1  0
  6 36  1  0
  6 37  1  0
  7  8  2  0
  7 27  1  0
  8  9  1  0
  8 38  1  0
  9 10  2  0
  9 39  1  0
 10 11  1  0
 10 27  1  0
 11 12  2  0
 11 13  1  0
 13 14  1  0
 13 40  1  0
 14 15  2  0
 14 26  1  0
 15 16  1  0
 15 41  1  0
 16 17  2  0
 16 42  1  0
 17 18  1  0
 17 25  1  0
 18 19  1  0
 18 43  1  0
 18 44  1  0
 19 20  1  0
 19 24  1  0
 20 21  1  0
 20 45  1  0
 20 46  1  0
 21 22  1  0
 21 47  1  0
 21 48  1  0
 22 23  1  0
 22 49  1  0
 22 50  1  0
 23 24  1  0
 23 51  1  0
 23 52  1  0
 24 53  1  0
 24 54  1  0
 25 26  2  0
 25 55  1  0
 26 56  1  0
 28 29  1  0
 28 57  1  0
 29 30  2  0
 29 58  1  0
 30 31  1  0
M  END

