
     RDKit          3D

 60 66  0  0  0  0  0  0  0  0999 V2000
    1.0222   -0.0367   -0.1414 O   0  0  0  0  0  0  0  0  0  0  0  0
    2.3858   -0.0327   -0.2767 C   0  0  0  0  0  0  0  0  0  0  0  0
    3.0845    1.1742   -0.3382 C   0  0  0  0  0  0  0  0  0  0  0  0
    4.4831    1.1971   -0.4806 C   0  0  0  0  0  0  0  0  0  0  0  0
    5.1766    2.4245   -0.5558 N   0  0  0  0  0  0  0  0  0  0  0  0
    6.4575    2.5653    0.0483 C   0  0  0  0  0  0  0  0  0  0  0  0
    7.4957    3.2239   -0.6342 C   0  0  0  0  0  0  0  0  0  0  0  0
    8.7475    3.3764   -0.0357 C   0  0  0  0  0  0  0  0  0  0  0  0
    8.9913    2.8633    1.2423 C   0  0  0  0  0  0  0  0  0  0  0  0
    7.9632    2.2016    1.9215 C   0  0  0  0  0  0  0  0  0  0  0  0
    6.7034    2.0596    1.3373 C   0  0  0  0  0  0  0  0  0  0  0  0
    4.5955    3.5395   -1.2209 C   0  0  0  0  0  0  0  0  0  0  0  0
    4.6265    4.8166   -0.6327 C   0  0  0  0  0  0  0  0  0  0  0  0
    4.0670    5.9118   -1.2937 C   0  0  0  0  0  0  0  0  0  0  0  0
    3.4549    5.7524   -2.5409 C   0  0  0  0  0  0  0  0  0  0  0  0
    3.4170    4.4827   -3.1272 C   0  0  0  0  0  0  0  0  0  0  0  0
    3.9884    3.3855   -2.4808 C   0  0  0  0  0  0  0  0  0  0  0  0
    5.1671   -0.0341   -0.5451 C   0  0  0  0  0  0  0  0  0  0  0  0
    4.4636   -1.2280   -0.4673 C   0  0  0  0  0  0  0  0  0  0  0  0
    3.0614   -1.2720   -0.3356 C   0  0  0  0  0  0  0  0  0  0  0  0
    2.3951   -2.5736   -0.2751 C   0  0  0  0  0  0  0  0  0  0  0  0
    3.0200   -3.7410   -0.3340 N   0  0  0  0  0  0  0  0  0  0  0  0
    2.0385   -4.6895   -0.2454 C   0  0  0  0  0  0  0  0  0  0  0  0
    2.1718   -6.1224   -0.2603 C   0  0  0  0  0  0  0  0  0  0  0  0
    3.4326   -6.7463   -0.3774 C   0  0  0  0  0  0  0  0  0  0  0  0
    3.5377   -8.1274   -0.3898 C   0  0  0  0  0  0  0  0  0  0  0  0
    2.3759   -8.9150   -0.2845 C   0  0  0  0  0  0  0  0  0  0  0  0
    1.1303   -8.3151   -0.1688 C   0  0  0  0  0  0  0  0  0  0  0  0
    0.9811   -6.9069   -0.1523 C   0  0  0  0  0  0  0  0  0  0  0  0
   -0.3331   -6.2554   -0.0300 C   0  0  0  0  0  0  0  0  0  0  0  0
   -1.5363   -6.9915    0.0795 C   0  0  0  0  0  0  0  0  0  0  0  0
   -2.7720   -6.3699    0.1946 C   0  0  0  0  0  0  0  0  0  0  0  0
   -2.8606   -4.9662    0.2054 C   0  0  0  0  0  0  0  0  0  0  0  0
   -1.7059   -4.2082    0.1004 C   0  0  0  0  0  0  0  0  0  0  0  0
   -0.4389   -4.8252   -0.0176 C   0  0  0  0  0  0  0  0  0  0  0  0
    0.7833   -4.0902   -0.1289 C   0  0  0  0  0  0  0  0  0  0  0  0
    1.0332   -2.7388   -0.1499 N   0  0  0  0  0  0  0  0  0  0  0  0
    0.3798   -1.9673   -0.0875 H   0  0  0  0  0  0  0  0  0  0  0  0
    0.6944    0.8720   -0.1231 H   0  0  0  0  0  0  0  0  0  0  0  0
    2.5312    2.1142   -0.2711 H   0  0  0  0  0  0  0  0  0  0  0  0
    7.3149    3.6148   -1.6373 H   0  0  0  0  0  0  0  0  0  0  0  0
    9.5435    3.8904   -0.5808 H   0  0  0  0  0  0  0  0  0  0  0  0
    9.9743    2.9780    1.7051 H   0  0  0  0  0  0  0  0  0  0  0  0
    8.1374    1.8013    2.9236 H   0  0  0  0  0  0  0  0  0  0  0  0
    5.9017    1.5533    1.8782 H   0  0  0  0  0  0  0  0  0  0  0  0
    5.0942    4.9448    0.3454 H   0  0  0  0  0  0  0  0  0  0  0  0
    4.1010    6.8974   -0.8221 H   0  0  0  0  0  0  0  0  0  0  0  0
    3.0138    6.6106   -3.0533 H   0  0  0  0  0  0  0  0  0  0  0  0
    2.9518    4.3455   -4.1070 H   0  0  0  0  0  0  0  0  0  0  0  0
    3.9713    2.4001   -2.9504 H   0  0  0  0  0  0  0  0  0  0  0  0
    6.2509   -0.0465   -0.6638 H   0  0  0  0  0  0  0  0  0  0  0  0
    4.9872   -2.1837   -0.5241 H   0  0  0  0  0  0  0  0  0  0  0  0
    4.3147   -6.1081   -0.4574 H   0  0  0  0  0  0  0  0  0  0  0  0
    4.5171   -8.6043   -0.4809 H   0  0  0  0  0  0  0  0  0  0  0  0
    2.4513  -10.0054   -0.2937 H   0  0  0  0  0  0  0  0  0  0  0  0
    0.2520   -8.9567   -0.0893 H   0  0  0  0  0  0  0  0  0  0  0  0
   -1.5042   -8.0813    0.0745 H   0  0  0  0  0  0  0  0  0  0  0  0
   -3.6775   -6.9761    0.2769 H   0  0  0  0  0  0  0  0  0  0  0  0
   -3.8332   -4.4762    0.2960 H   0  0  0  0  0  0  0  0  0  0  0  0
   -1.7730   -3.1169    0.1088 H   0  0  0  0  0  0  0  0  0  0  0  0
  1  2  1  0
  1 39  1  0
  2  3  2  0
  2 20  1  0
  3  4  1  0
  3 40  1  0
  4  5  1  0
  4 18  2  0
  5  6  1  0
  5 12  1  0
  6  7  2  0
  6 11  1  0
  7  8  1  0
  7 41  1  0
  8  9  2  0
  8 42  1  0
  9 10  1  0
  9 43  1  0
 10 11  2  0
 10 44  1  0
 11 45  1  0
 12 13  2  0
 12 17  1  0
 13 14  1  0
 13 46  1  0
 14 15  2  0
 14 47  1  0
 15 16  1  0
 15 48  1  0
 16 17  2  0
 16 49  1  0
 17 50  1  0
 18 19  1  0
 18 51  1  0
 19 20  2  0
 19 52  1  0
 20 21  1  0
 21 22  2  0
 21 37  1  0
 22 23  1  0
 23 24  2  0
 23 36  1  0
 24 25  1  0
 24 29  1  0
 25 26  2  0
 25 53  1  0
 26 27  1  0
 26 54  1  0
 27 28  2  0
 27 55  1  0
 28 29  1  0
 28 56  1  0
 29 30  2  0
 30 31  1  0
 30 35  1  0
 31 32  2  0
 31 57  1  0
 32 33  1  0
 32 58  1  0
 33 34  2  0
 33 59  1  0
 34 35  1  0
 34 60  1  0
 35 36  2  0
 36 37  1  0
 37 38  1  0
M  END

