
     RDKit          3D

 45 48  0  0  0  0  0  0  0  0999 V2000
    1.0740   -0.0004   -0.9173 O   0  0  0  0  0  0  0  0  0  0  0  0
    2.2133    0.0931   -0.4903 C   0  0  0  0  0  0  0  0  0  0  0  0
    2.9237    1.4378   -0.4122 C   0  0  0  0  0  0  0  0  0  0  0  0
    3.9595    1.4698    0.7074 C   0  0  0  0  0  0  0  0  0  0  0  0
    4.9492    0.3081    0.5880 C   0  0  0  0  0  0  0  0  0  0  0  0
    4.2478   -1.0118    0.3747 C   0  0  0  0  0  0  0  0  0  0  0  0
    2.9715   -1.1104   -0.0888 C   0  0  0  0  0  0  0  0  0  0  0  0
    2.2687   -2.4322   -0.2666 C   0  0  0  0  0  0  0  0  0  0  0  0
    3.1086   -3.5962    0.1943 C   0  0  0  0  0  0  0  0  0  0  0  0
    4.3828   -3.4499    0.6501 C   0  0  0  0  0  0  0  0  0  0  0  0
    5.2201   -4.6035    1.1472 C   0  0  0  0  0  0  0  0  0  0  0  0
    4.3615   -5.8105    1.5342 C   0  0  0  0  0  0  0  0  0  0  0  0
    3.3427   -6.1418    0.4482 C   0  0  0  0  0  0  0  0  0  0  0  0
    2.4903   -4.9340    0.0824 C   0  0  0  0  0  0  0  0  0  0  0  0
    1.3524   -5.0627   -0.3389 O   0  0  0  0  0  0  0  0  0  0  0  0
    4.9780   -2.1746    0.6848 N   0  0  0  0  0  0  0  0  0  0  0  0
    6.3383   -2.0813    0.8772 N   0  0  0  0  0  0  0  0  0  0  0  0
    6.8940   -1.8837    2.1321 C   0  0  0  0  0  0  0  0  0  0  0  0
    6.2063   -1.7588    3.1254 O   0  0  0  0  0  0  0  0  0  0  0  0
    8.3954   -1.8202    2.1631 C   0  0  0  0  0  0  0  0  0  0  0  0
    8.9828   -1.1924    3.2735 C   0  0  0  0  0  0  0  0  0  0  0  0
   10.3703   -1.0969    3.3777 C   0  0  0  0  0  0  0  0  0  0  0  0
   11.1877   -1.6411    2.3808 C   0  0  0  0  0  0  0  0  0  0  0  0
   10.6124   -2.2862    1.2821 C   0  0  0  0  0  0  0  0  0  0  0  0
    9.2226   -2.3767    1.1725 C   0  0  0  0  0  0  0  0  0  0  0  0
    2.1572    2.2191   -0.3027 H   0  0  0  0  0  0  0  0  0  0  0  0
    3.4110    1.6084   -1.3914 H   0  0  0  0  0  0  0  0  0  0  0  0
    3.4456    1.3977    1.6812 H   0  0  0  0  0  0  0  0  0  0  0  0
    4.5089    2.4246    0.7092 H   0  0  0  0  0  0  0  0  0  0  0  0
    5.5587    0.2509    1.5008 H   0  0  0  0  0  0  0  0  0  0  0  0
    5.6523    0.4912   -0.2474 H   0  0  0  0  0  0  0  0  0  0  0  0
    1.9661   -2.5690   -1.3210 H   0  0  0  0  0  0  0  0  0  0  0  0
    1.3039   -2.4244    0.2699 H   0  0  0  0  0  0  0  0  0  0  0  0
    5.8084   -4.2777    2.0169 H   0  0  0  0  0  0  0  0  0  0  0  0
    5.9518   -4.8882    0.3670 H   0  0  0  0  0  0  0  0  0  0  0  0
    3.8304   -5.5802    2.4736 H   0  0  0  0  0  0  0  0  0  0  0  0
    5.0117   -6.6750    1.7422 H   0  0  0  0  0  0  0  0  0  0  0  0
    2.6653   -6.9586    0.7374 H   0  0  0  0  0  0  0  0  0  0  0  0
    3.8582   -6.4703   -0.4747 H   0  0  0  0  0  0  0  0  0  0  0  0
    6.9179   -2.0354    0.0442 H   0  0  0  0  0  0  0  0  0  0  0  0
    8.3275   -0.7875    4.0469 H   0  0  0  0  0  0  0  0  0  0  0  0
   10.8179   -0.5998    4.2418 H   0  0  0  0  0  0  0  0  0  0  0  0
   12.2750   -1.5697    2.4643 H   0  0  0  0  0  0  0  0  0  0  0  0
   11.2476   -2.7294    0.5114 H   0  0  0  0  0  0  0  0  0  0  0  0
    8.7949   -2.9154    0.3233 H   0  0  0  0  0  0  0  0  0  0  0  0
  1  2  2  0
  2  3  1  0
  2  7  1  0
  3  4  1  0
  3 26  1  0
  3 27  1  0
  4  5  1  0
  4 28  1  0
  4 29  1  0
  5  6  1  0
  5 30  1  0
  5 31  1  0
  6  7  2  0
  6 16  1  0
  7  8  1  0
  8  9  1  0
  8 32  1  0
  8 33  1  0
  9 10  2  0
  9 14  1  0
 10 11  1  0
 10 16  1  0
 11 12  1  0
 11 34  1  0
 11 35  1  0
 12 13  1  0
 12 36  1  0
 12 37  1  0
 13 14  1  0
 13 38  1  0
 13 39  1  0
 14 15  2  0
 16 17  1  0
 17 18  1  0
 17 40  1  0
 18 19  2  0
 18 20  1  0
 20 21  2  0
 20 25  1  0
 21 22  1  0
 21 41  1  0
 22 23  2  0
 22 42  1  0
 23 24  1  0
 23 43  1  0
 24 25  2  0
 24 44  1  0
 25 45  1  0
M  END

