
     RDKit          3D

 44 45  0  0  0  0  0  0  0  0999 V2000
    3.8874    2.8570   -0.5137 C   0  0  0  0  0  0  0  0  0  0  0  0
    3.1209    2.0977   -1.5986 C   0  0  0  0  0  0  0  0  0  0  0  0
    3.1479    0.6412   -1.4339 N   0  0  0  0  0  0  0  0  0  0  0  0
    2.3363    0.0083   -0.3960 C   0  0  0  0  0  0  0  0  0  0  0  0
    0.8979    0.5143   -0.3282 C   0  0  0  0  0  0  0  0  0  0  0  0
    4.1819   -0.0425   -2.0033 C   0  0  0  0  0  0  0  0  0  0  0  0
    5.0427    0.5037   -2.8268 N   0  0  0  0  0  0  0  0  0  0  0  0
    5.9550   -0.4046   -3.2860 C   0  0  0  0  0  0  0  0  0  0  0  0
    6.9134    0.0175   -4.1392 N   0  0  0  0  0  0  0  0  0  0  0  0
    5.8172   -1.7298   -2.8283 C   0  0  0  0  0  0  0  0  0  0  0  0
    6.8003   -2.7679   -3.1236 C   0  0  0  0  0  0  0  0  0  0  0  0
    7.8320   -2.4555   -3.7512 O   0  0  0  0  0  0  0  0  0  0  0  0
    6.6205   -4.0784   -2.7174 N   0  0  0  0  0  0  0  0  0  0  0  0
    5.3528   -4.6248   -2.2720 C   0  0  0  0  0  0  0  0  0  0  0  0
    7.7553   -5.0081   -2.8705 C   0  0  1  0  0  0  0  0  0  0  0  0
    8.0633   -5.7396   -1.5583 C   0  0  0  0  0  0  0  0  0  0  0  0
    7.5711   -5.9754   -4.0328 C   0  0  1  0  0  0  0  0  0  0  0  0
    7.7153   -5.4761   -5.4465 C   0  0  0  0  0  0  0  0  0  0  0  0
    8.7694   -6.3797   -4.8578 C   0  0  0  0  0  0  0  0  0  0  0  0
    4.4416   -1.7578   -1.6933 S   0  0  0  0  0  0  0  0  0  0  0  0
    3.8307    3.9420   -0.6983 H   0  0  0  0  0  0  0  0  0  0  0  0
    4.9495    2.5678   -0.5146 H   0  0  0  0  0  0  0  0  0  0  0  0
    3.4779    2.6688    0.4923 H   0  0  0  0  0  0  0  0  0  0  0  0
    3.5575    2.3128   -2.5819 H   0  0  0  0  0  0  0  0  0  0  0  0
    2.0701    2.4222   -1.6281 H   0  0  0  0  0  0  0  0  0  0  0  0
    2.8182    0.1113    0.5970 H   0  0  0  0  0  0  0  0  0  0  0  0
    2.3097   -1.0704   -0.6154 H   0  0  0  0  0  0  0  0  0  0  0  0
    0.8303    1.5588    0.0115 H   0  0  0  0  0  0  0  0  0  0  0  0
    0.3324   -0.0985    0.3906 H   0  0  0  0  0  0  0  0  0  0  0  0
    0.4023    0.4356   -1.3086 H   0  0  0  0  0  0  0  0  0  0  0  0
    7.0128    1.0126   -4.2839 H   0  0  0  0  0  0  0  0  0  0  0  0
    7.6689   -0.6463   -4.3083 H   0  0  0  0  0  0  0  0  0  0  0  0
    4.5116   -4.1391   -2.7853 H   0  0  0  0  0  0  0  0  0  0  0  0
    5.1924   -4.5409   -1.1814 H   0  0  0  0  0  0  0  0  0  0  0  0
    5.3046   -5.6929   -2.5305 H   0  0  0  0  0  0  0  0  0  0  0  0
    8.6053   -4.3602   -3.1188 H   0  0  0  0  0  0  0  0  0  0  0  0
    7.2503   -6.4220   -1.2598 H   0  0  0  0  0  0  0  0  0  0  0  0
    8.2282   -5.0245   -0.7371 H   0  0  0  0  0  0  0  0  0  0  0  0
    8.9736   -6.3481   -1.6737 H   0  0  0  0  0  0  0  0  0  0  0  0
    6.8262   -6.7640   -3.8674 H   0  0  0  0  0  0  0  0  0  0  0  0
    7.9586   -4.4173   -5.5682 H   0  0  0  0  0  0  0  0  0  0  0  0
    7.0499   -5.8860   -6.2119 H   0  0  0  0  0  0  0  0  0  0  0  0
    9.7370   -5.9364   -4.6018 H   0  0  0  0  0  0  0  0  0  0  0  0
    8.8332   -7.4130   -5.2114 H   0  0  0  0  0  0  0  0  0  0  0  0
  1  2  1  0
  1 21  1  0
  1 22  1  0
  1 23  1  0
  2  3  1  0
  2 24  1  0
  2 25  1  0
  3  4  1  0
  3  6  1  0
  4  5  1  0
  4 26  1  0
  4 27  1  0
  5 28  1  0
  5 29  1  0
  5 30  1  0
  6  7  2  0
  6 20  1  0
  7  8  1  0
  8  9  1  0
  8 10  2  0
  9 31  1  0
  9 32  1  0
 10 11  1  0
 10 20  1  0
 11 12  2  0
 11 13  1  0
 13 14  1  0
 13 15  1  0
 14 33  1  0
 14 34  1  0
 14 35  1  0
 15 16  1  0
 15 17  1  0
 15 36  1  6
 16 37  1  0
 16 38  1  0
 16 39  1  0
 17 18  1  0
 17 19  1  0
 17 40  1  6
 18 19  1  0
 18 41  1  0
 18 42  1  0
 19 43  1  0
 19 44  1  0
M  END

