
     RDKit          3D

 52 54  0  0  0  0  0  0  0  0999 V2000
    3.7888   -0.1227   -0.3560 C   0  0  0  0  0  0  0  0  0  0  0  0
    4.7009    0.9272    0.0724 N   0  0  0  0  0  0  0  0  0  0  0  0
    4.6792    1.2789    1.4844 C   0  0  0  0  0  0  0  0  0  0  0  0
    6.1602    1.0860   -0.7543 S   0  0  1  0  0  0  0  0  0  0  0  0
    5.8574    0.8697   -2.1696 O   0  0  0  0  0  0  0  0  0  0  0  0
    6.7776    2.3197   -0.2674 O   0  0  0  0  0  0  0  0  0  0  0  0
    7.2075   -0.2813   -0.2182 C   0  0  0  0  0  0  0  0  0  0  0  0
    8.0222   -0.1235    0.9065 C   0  0  0  0  0  0  0  0  0  0  0  0
    8.7970   -1.2070    1.3302 C   0  0  0  0  0  0  0  0  0  0  0  0
    8.7619   -2.4169    0.6331 C   0  0  0  0  0  0  0  0  0  0  0  0
    7.9558   -2.5689   -0.5079 C   0  0  0  0  0  0  0  0  0  0  0  0
    7.9652   -3.8640   -1.2951 C   0  0  0  0  0  0  0  0  0  0  0  0
    7.8643   -5.0161   -0.4241 N   0  0  0  0  0  0  0  0  0  0  0  0
    7.9661   -6.3237   -0.8825 C   0  0  0  0  0  0  0  0  0  0  0  0
    8.4472   -6.6377   -2.1737 C   0  0  0  0  0  0  0  0  0  0  0  0
    8.5629   -7.9720   -2.5593 C   0  0  0  0  0  0  0  0  0  0  0  0
    8.2059   -9.0249   -1.7118 C   0  0  0  0  0  0  0  0  0  0  0  0
    7.7177   -8.7127   -0.4315 C   0  0  0  0  0  0  0  0  0  0  0  0
    7.3300   -9.6407    0.4868 O   0  0  0  0  0  0  0  0  0  0  0  0
    7.4300  -11.0157    0.1745 C   0  0  0  0  0  0  0  0  0  0  0  0
    6.9871  -11.8396    1.3612 C   0  0  0  0  0  0  0  0  0  0  0  0
    6.4297  -13.1110    1.1630 C   0  0  0  0  0  0  0  0  0  0  0  0
    6.0630  -13.9147    2.2450 C   0  0  0  0  0  0  0  0  0  0  0  0
    6.2509  -13.4274    3.5360 C   0  0  0  0  0  0  0  0  0  0  0  0
    5.8955  -14.1889    4.5820 F   0  0  0  0  0  0  0  0  0  0  0  0
    6.7931  -12.1649    3.7657 C   0  0  0  0  0  0  0  0  0  0  0  0
    7.1620  -11.3768    2.6735 C   0  0  0  0  0  0  0  0  0  0  0  0
    7.6004   -7.3784   -0.0267 C   0  0  0  0  0  0  0  0  0  0  0  0
    7.1729   -1.4863   -0.9282 C   0  0  0  0  0  0  0  0  0  0  0  0
    2.7637    0.1641   -0.0719 H   0  0  0  0  0  0  0  0  0  0  0  0
    4.0126   -1.1052    0.1068 H   0  0  0  0  0  0  0  0  0  0  0  0
    3.8266   -0.2174   -1.4481 H   0  0  0  0  0  0  0  0  0  0  0  0
    3.6509    1.5614    1.7611 H   0  0  0  0  0  0  0  0  0  0  0  0
    5.3293    2.1455    1.6555 H   0  0  0  0  0  0  0  0  0  0  0  0
    4.9967    0.4448    2.1424 H   0  0  0  0  0  0  0  0  0  0  0  0
    8.0610    0.8383    1.4204 H   0  0  0  0  0  0  0  0  0  0  0  0
    9.4441   -1.1012    2.2045 H   0  0  0  0  0  0  0  0  0  0  0  0
    9.3716   -3.2598    0.9674 H   0  0  0  0  0  0  0  0  0  0  0  0
    8.9172   -3.9268   -1.8524 H   0  0  0  0  0  0  0  0  0  0  0  0
    7.1642   -3.8345   -2.0621 H   0  0  0  0  0  0  0  0  0  0  0  0
    7.2433   -4.8923    0.3679 H   0  0  0  0  0  0  0  0  0  0  0  0
    8.7258   -5.8505   -2.8739 H   0  0  0  0  0  0  0  0  0  0  0  0
    8.9372   -8.2026   -3.5605 H   0  0  0  0  0  0  0  0  0  0  0  0
    8.3037  -10.0544   -2.0529 H   0  0  0  0  0  0  0  0  0  0  0  0
    8.4777  -11.2643   -0.0888 H   0  0  0  0  0  0  0  0  0  0  0  0
    6.8096  -11.2610   -0.7077 H   0  0  0  0  0  0  0  0  0  0  0  0
    6.2734  -13.4838    0.1465 H   0  0  0  0  0  0  0  0  0  0  0  0
    5.6264  -14.9051    2.1025 H   0  0  0  0  0  0  0  0  0  0  0  0
    6.9188  -11.8152    4.7924 H   0  0  0  0  0  0  0  0  0  0  0  0
    7.5813  -10.3827    2.8364 H   0  0  0  0  0  0  0  0  0  0  0  0
    7.2222   -7.1757    0.9781 H   0  0  0  0  0  0  0  0  0  0  0  0
    6.5505   -1.5628   -1.8223 H   0  0  0  0  0  0  0  0  0  0  0  0
  1  2  1  0
  1 30  1  0
  1 31  1  0
  1 32  1  0
  2  3  1  0
  4  2  1  1
  3 33  1  0
  3 34  1  0
  3 35  1  0
  4  5  2  0
  4  6  2  0
  4  7  1  0
  7  8  2  0
  7 29  1  0
  8  9  1  0
  8 36  1  0
  9 10  2  0
  9 37  1  0
 10 11  1  0
 10 38  1  0
 11 12  1  0
 11 29  2  0
 12 13  1  0
 12 39  1  0
 12 40  1  0
 13 14  1  0
 13 41  1  0
 14 15  2  0
 14 28  1  0
 15 16  1  0
 15 42  1  0
 16 17  2  0
 16 43  1  0
 17 18  1  0
 17 44  1  0
 18 19  1  0
 18 28  2  0
 19 20  1  0
 20 21  1  0
 20 45  1  0
 20 46  1  0
 21 22  2  0
 21 27  1  0
 22 23  1  0
 22 47  1  0
 23 24  2  0
 23 48  1  0
 24 25  1  0
 24 26  1  0
 26 27  2  0
 26 49  1  0
 27 50  1  0
 28 51  1  0
 29 52  1  0
M  END

