
     RDKit          3D

 33 35  0  0  0  0  0  0  0  0999 V2000
    3.5665    0.2889    1.1469 C   0  0  0  0  0  0  0  0  0  0  0  0
    2.4940   -0.1412    0.1447 C   0  0  0  0  0  0  0  0  0  0  0  0
    2.8586   -1.3168   -0.6296 N   0  0  0  0  0  0  0  0  0  0  0  0
    3.6670   -1.3484   -1.7643 C   0  0  0  0  0  0  0  0  0  0  0  0
    4.2694   -0.2876   -2.4453 C   0  0  0  0  0  0  0  0  0  0  0  0
    5.0309   -0.5865   -3.5791 C   0  0  0  0  0  0  0  0  0  0  0  0
    5.1925   -1.9060   -4.0268 C   0  0  0  0  0  0  0  0  0  0  0  0
    4.5839   -2.9546   -3.3339 C   0  0  0  0  0  0  0  0  0  0  0  0
    4.7933   -4.5991   -3.9084 Cl  0  0  0  0  0  0  0  0  0  0  0  0
    3.8124   -2.7038   -2.1927 C   0  0  0  0  0  0  0  0  0  0  0  0
    3.0537   -3.5100   -1.2618 C   0  0  0  0  0  0  0  0  0  0  0  0
    2.7598   -4.8597   -1.0792 C   0  0  0  0  0  0  0  0  0  0  0  0
    1.9437   -5.2599   -0.0123 C   0  0  0  0  0  0  0  0  0  0  0  0
    1.5793   -6.6867    0.2097 C   0  0  0  0  0  0  0  0  0  0  0  0
    1.8703   -7.5694   -0.7948 N   0  0  0  0  0  0  0  0  0  0  0  0
    1.0475   -7.0928    1.2460 O   0  0  0  0  0  0  0  0  0  0  0  0
    1.4651   -4.2397    0.8990 C   0  0  0  0  0  0  0  0  0  0  0  0
    0.7121   -4.5659    1.9688 N   0  0  0  0  0  0  0  0  0  0  0  0
    1.7389   -2.9329    0.7254 N   0  0  0  0  0  0  0  0  0  0  0  0
    2.4902   -2.6084   -0.3121 C   0  0  0  0  0  0  0  0  0  0  0  0
    3.2333    1.1822    1.6990 H   0  0  0  0  0  0  0  0  0  0  0  0
    4.5165    0.5324    0.6459 H   0  0  0  0  0  0  0  0  0  0  0  0
    3.7581   -0.5127    1.8764 H   0  0  0  0  0  0  0  0  0  0  0  0
    2.2638    0.6763   -0.5582 H   0  0  0  0  0  0  0  0  0  0  0  0
    1.5638   -0.3943    0.6732 H   0  0  0  0  0  0  0  0  0  0  0  0
    4.1551    0.7437   -2.1078 H   0  0  0  0  0  0  0  0  0  0  0  0
    5.5138    0.2235   -4.1310 H   0  0  0  0  0  0  0  0  0  0  0  0
    5.7904   -2.1249   -4.9125 H   0  0  0  0  0  0  0  0  0  0  0  0
    3.1881   -5.5944   -1.7615 H   0  0  0  0  0  0  0  0  0  0  0  0
    2.0592   -7.2673   -1.7399 H   0  0  0  0  0  0  0  0  0  0  0  0
    1.5505   -8.5207   -0.6570 H   0  0  0  0  0  0  0  0  0  0  0  0
    0.5702   -5.5572    2.1621 H   0  0  0  0  0  0  0  0  0  0  0  0
    0.4291   -3.8233    2.5934 H   0  0  0  0  0  0  0  0  0  0  0  0
  1  2  1  0
  1 21  1  0
  1 22  1  0
  1 23  1  0
  2  3  1  0
  2 24  1  0
  2 25  1  0
  3  4  1  0
  3 20  1  0
  4  5  2  0
  4 10  1  0
  5  6  1  0
  5 26  1  0
  6  7  2  0
  6 27  1  0
  7  8  1  0
  7 28  1  0
  8  9  1  0
  8 10  2  0
 10 11  1  0
 11 12  1  0
 11 20  2  0
 12 13  2  0
 12 29  1  0
 13 14  1  0
 13 17  1  0
 14 15  1  0
 14 16  2  0
 15 30  1  0
 15 31  1  0
 17 18  1  0
 17 19  2  0
 18 32  1  0
 18 33  1  0
 19 20  1  0
M  END

