
     RDKit          3D

 43 44  0  0  0  0  0  0  0  0999 V2000
    8.5732   -1.1579   -3.3249 C   0  0  0  0  0  0  0  0  0  0  0  0
    7.9581   -0.5564   -2.0700 C   0  0  0  0  0  0  0  0  0  0  0  0
    8.0771    0.6185   -1.7869 O   0  0  0  0  0  0  0  0  0  0  0  0
    7.2994   -1.4653   -1.2614 N   0  0  0  0  0  0  0  0  0  0  0  0
    6.5614   -1.1283   -0.0927 C   0  0  0  0  0  0  0  0  0  0  0  0
    5.2023   -1.4738   -0.0517 C   0  0  0  0  0  0  0  0  0  0  0  0
    4.4388   -1.1728    1.0725 C   0  0  0  0  0  0  0  0  0  0  0  0
    5.0073   -0.4962    2.1506 C   0  0  0  0  0  0  0  0  0  0  0  0
    6.3669   -0.1471    2.1088 C   0  0  0  0  0  0  0  0  0  0  0  0
    6.9712    0.5495    3.1722 N   0  0  0  0  0  0  0  0  0  0  0  0
    6.4588    0.9216    4.3698 C   0  0  0  0  0  0  0  0  0  0  0  0
    5.3335    0.7293    4.8071 O   0  0  0  0  0  0  0  0  0  0  0  0
    7.5254    1.6739    5.2033 C   0  0  0  0  0  0  0  0  0  0  0  0
    8.6575    1.8621    4.7770 O   0  0  0  0  0  0  0  0  0  0  0  0
    7.0434    2.0693    6.3975 N   0  0  0  0  0  0  0  0  0  0  0  0
    7.8254    2.7864    7.3852 C   0  0  0  0  0  0  0  0  0  0  0  0
    7.1640    4.0642    7.8657 C   0  0  0  0  0  0  0  0  0  0  0  0
    7.1224    4.3737    9.2319 C   0  0  0  0  0  0  0  0  0  0  0  0
    6.5495    5.5635    9.6888 C   0  0  0  0  0  0  0  0  0  0  0  0
    6.0021    6.4561    8.7647 C   0  0  0  0  0  0  0  0  0  0  0  0
    5.2761    7.9457    9.3231 Cl  0  0  0  0  0  0  0  0  0  0  0  0
    6.0254    6.1676    7.3962 C   0  0  0  0  0  0  0  0  0  0  0  0
    6.6057    4.9772    6.9573 C   0  0  0  0  0  0  0  0  0  0  0  0
    7.1832   -0.4942    1.0016 C   0  0  0  0  0  0  0  0  0  0  0  0
    8.6650   -0.2187    1.0098 C   0  0  0  0  0  0  0  0  0  0  0  0
    8.5058   -0.4191   -4.1347 H   0  0  0  0  0  0  0  0  0  0  0  0
    8.1007   -2.0996   -3.6428 H   0  0  0  0  0  0  0  0  0  0  0  0
    9.6426   -1.3522   -3.1414 H   0  0  0  0  0  0  0  0  0  0  0  0
    7.0958   -2.3715   -1.6672 H   0  0  0  0  0  0  0  0  0  0  0  0
    4.7493   -1.9654   -0.9163 H   0  0  0  0  0  0  0  0  0  0  0  0
    3.3814   -1.4462    1.1044 H   0  0  0  0  0  0  0  0  0  0  0  0
    4.4190   -0.2333    3.0268 H   0  0  0  0  0  0  0  0  0  0  0  0
    7.9375    0.8543    3.0608 H   0  0  0  0  0  0  0  0  0  0  0  0
    6.0743    1.8170    6.5819 H   0  0  0  0  0  0  0  0  0  0  0  0
    8.7944    3.0032    6.9068 H   0  0  0  0  0  0  0  0  0  0  0  0
    8.0352    2.1354    8.2519 H   0  0  0  0  0  0  0  0  0  0  0  0
    7.5446    3.6737    9.9588 H   0  0  0  0  0  0  0  0  0  0  0  0
    6.5199    5.7972   10.7543 H   0  0  0  0  0  0  0  0  0  0  0  0
    5.5928    6.8737    6.6855 H   0  0  0  0  0  0  0  0  0  0  0  0
    6.6205    4.7542    5.8875 H   0  0  0  0  0  0  0  0  0  0  0  0
    9.0990   -0.3312    2.0155 H   0  0  0  0  0  0  0  0  0  0  0  0
    8.8947    0.7902    0.6310 H   0  0  0  0  0  0  0  0  0  0  0  0
    9.1875   -0.9271    0.3530 H   0  0  0  0  0  0  0  0  0  0  0  0
  1  2  1  0
  1 26  1  0
  1 27  1  0
  1 28  1  0
  2  3  2  0
  2  4  1  0
  4  5  1  0
  4 29  1  0
  5  6  2  0
  5 24  1  0
  6  7  1  0
  6 30  1  0
  7  8  2  0
  7 31  1  0
  8  9  1  0
  8 32  1  0
  9 10  1  0
  9 24  2  0
 10 11  1  0
 10 33  1  0
 11 12  2  0
 11 13  1  0
 13 14  2  0
 13 15  1  0
 15 16  1  0
 15 34  1  0
 16 17  1  0
 16 35  1  0
 16 36  1  0
 17 18  2  0
 17 23  1  0
 18 19  1  0
 18 37  1  0
 19 20  2  0
 19 38  1  0
 20 21  1  0
 20 22  1  0
 22 23  2  0
 22 39  1  0
 23 40  1  0
 24 25  1  0
 25 41  1  0
 25 42  1  0
 25 43  1  0
M  END

