
     RDKit          3D

 42 43  0  0  0  0  0  0  0  0999 V2000
    0.5520   -0.7746   -2.5895 C   0  0  0  0  0  0  0  0  0  0  0  0
    2.0803   -0.7473   -2.6110 C   0  0  0  0  0  0  0  0  0  0  0  0
    2.6858    0.1219   -1.4922 C   0  0  0  0  0  0  0  0  0  0  0  0
    4.1966    0.1554   -1.5077 C   0  0  0  0  0  0  0  0  0  0  0  0
    4.8944    1.1062   -2.2716 C   0  0  0  0  0  0  0  0  0  0  0  0
    6.2864    1.1196   -2.3084 C   0  0  0  0  0  0  0  0  0  0  0  0
    7.0422    0.1571   -1.6115 C   0  0  0  0  0  0  0  0  0  0  0  0
    8.5457    0.3058   -1.6918 C   0  0  0  0  0  0  0  0  0  0  0  0
    9.0033    1.4325   -1.6291 O   0  0  0  0  0  0  0  0  0  0  0  0
    9.4800   -0.8733   -2.0701 C   0  0  1  0  0  0  0  0  0  0  0  0
    9.2228   -1.0605   -3.6188 C   0  0  0  0  0  0  0  0  0  0  0  0
    9.9887   -2.0666   -4.3219 N   0  0  0  0  0  0  0  0  0  0  0  0
   10.9453   -0.4623   -1.8110 C   0  0  0  0  0  0  0  0  0  0  0  0
   11.2928   -0.4920   -0.3217 C   0  0  0  0  0  0  0  0  0  0  0  0
   11.0334   -1.7593    0.2573 O   0  0  0  0  0  0  0  0  0  0  0  0
    9.6800   -2.1352    0.1403 C   0  0  0  0  0  0  0  0  0  0  0  0
    9.2371   -2.2016   -1.3243 C   0  0  0  0  0  0  0  0  0  0  0  0
    6.3475   -0.7876   -0.8375 C   0  0  0  0  0  0  0  0  0  0  0  0
    4.9514   -0.7782   -0.7827 C   0  0  0  0  0  0  0  0  0  0  0  0
    0.1502   -1.4031   -3.4000 H   0  0  0  0  0  0  0  0  0  0  0  0
    0.1302    0.2370   -2.7123 H   0  0  0  0  0  0  0  0  0  0  0  0
    0.1704   -1.1766   -1.6359 H   0  0  0  0  0  0  0  0  0  0  0  0
    2.4356   -0.3737   -3.5874 H   0  0  0  0  0  0  0  0  0  0  0  0
    2.4761   -1.7742   -2.5207 H   0  0  0  0  0  0  0  0  0  0  0  0
    2.3359   -0.2560   -0.5160 H   0  0  0  0  0  0  0  0  0  0  0  0
    2.2945    1.1498   -1.5864 H   0  0  0  0  0  0  0  0  0  0  0  0
    4.3354    1.8594   -2.8348 H   0  0  0  0  0  0  0  0  0  0  0  0
    6.8138    1.8869   -2.8786 H   0  0  0  0  0  0  0  0  0  0  0  0
    9.4088   -0.0860   -4.1019 H   0  0  0  0  0  0  0  0  0  0  0  0
    8.1521   -1.2824   -3.7639 H   0  0  0  0  0  0  0  0  0  0  0  0
   10.9918   -1.8998   -4.2670 H   0  0  0  0  0  0  0  0  0  0  0  0
    9.8093   -3.0072   -3.9760 H   0  0  0  0  0  0  0  0  0  0  0  0
   11.1337    0.5426   -2.2147 H   0  0  0  0  0  0  0  0  0  0  0  0
   11.6072   -1.1738   -2.3324 H   0  0  0  0  0  0  0  0  0  0  0  0
   10.7270    0.2965    0.2136 H   0  0  0  0  0  0  0  0  0  0  0  0
   12.3647   -0.2943   -0.1678 H   0  0  0  0  0  0  0  0  0  0  0  0
    9.0371   -1.4270    0.7075 H   0  0  0  0  0  0  0  0  0  0  0  0
    9.5832   -3.1222    0.6196 H   0  0  0  0  0  0  0  0  0  0  0  0
    8.1933   -2.5376   -1.4078 H   0  0  0  0  0  0  0  0  0  0  0  0
    9.8510   -2.9735   -1.8183 H   0  0  0  0  0  0  0  0  0  0  0  0
    6.8848   -1.5124   -0.2278 H   0  0  0  0  0  0  0  0  0  0  0  0
    4.4386   -1.5104   -0.1521 H   0  0  0  0  0  0  0  0  0  0  0  0
  1  2  1  0
  1 20  1  0
  1 21  1  0
  1 22  1  0
  2  3  1  0
  2 23  1  0
  2 24  1  0
  3  4  1  0
  3 25  1  0
  3 26  1  0
  4  5  2  0
  4 19  1  0
  5  6  1  0
  5 27  1  0
  6  7  2  0
  6 28  1  0
  7  8  1  0
  7 18  1  0
  8  9  2  0
 10  8  1  1
 10 11  1  0
 10 13  1  0
 10 17  1  0
 11 12  1  0
 11 29  1  0
 11 30  1  0
 12 31  1  0
 12 32  1  0
 13 14  1  0
 13 33  1  0
 13 34  1  0
 14 15  1  0
 14 35  1  0
 14 36  1  0
 15 16  1  0
 16 17  1  0
 16 37  1  0
 16 38  1  0
 17 39  1  0
 17 40  1  0
 18 19  2  0
 18 41  1  0
 19 42  1  0
M  END

