
     RDKit          3D

 49 53  0  0  0  0  0  0  0  0999 V2000
    4.7416   -3.6982   -7.4167 C   0  0  0  0  0  0  0  0  0  0  0  0
    5.3880   -3.1325   -6.1766 C   0  0  0  0  0  0  0  0  0  0  0  0
    6.0222   -1.8668   -6.2218 C   0  0  0  0  0  0  0  0  0  0  0  0
    6.6295   -1.3158   -5.1038 C   0  0  0  0  0  0  0  0  0  0  0  0
    6.6119   -2.0355   -3.8997 C   0  0  0  0  0  0  0  0  0  0  0  0
    5.9891   -3.3054   -3.8039 C   0  0  0  0  0  0  0  0  0  0  0  0
    5.3825   -3.8267   -4.9708 C   0  0  0  0  0  0  0  0  0  0  0  0
    5.9965   -4.0161   -2.5462 C   0  0  0  0  0  0  0  0  0  0  0  0
    6.5909   -3.5140   -1.4212 C   0  0  0  0  0  0  0  0  0  0  0  0
    6.6773   -4.2241   -0.0872 C   0  0  0  0  0  0  0  0  0  0  0  0
    5.6629   -5.2557    0.0913 N   0  0  0  0  0  0  0  0  0  0  0  0
    4.3563   -4.7827    0.5617 C   0  0  0  0  0  0  0  0  0  0  0  0
    4.3813   -4.1858    1.9601 C   0  0  0  0  0  0  0  0  0  0  0  0
    4.0291   -2.8469    2.1797 C   0  0  0  0  0  0  0  0  0  0  0  0
    4.0285   -2.2992    3.4660 C   0  0  0  0  0  0  0  0  0  0  0  0
    4.3905   -3.1089    4.5382 C   0  0  0  0  0  0  0  0  0  0  0  0
    4.3946   -2.5957    5.7759 F   0  0  0  0  0  0  0  0  0  0  0  0
    4.7500   -4.4443    4.3559 C   0  0  0  0  0  0  0  0  0  0  0  0
    4.7420   -4.9742    3.0658 C   0  0  0  0  0  0  0  0  0  0  0  0
    6.0925   -6.5733    0.0831 C   0  0  0  0  0  0  0  0  0  0  0  0
    7.2798   -6.8607    0.0461 O   0  0  0  0  0  0  0  0  0  0  0  0
    5.0949   -7.6919    0.0859 C   0  0  0  0  0  0  0  0  0  0  0  0
    5.3683   -8.9334    0.6206 C   0  0  0  0  0  0  0  0  0  0  0  0
    4.3513   -9.8966    0.3684 C   0  0  0  0  0  0  0  0  0  0  0  0
    3.3227   -9.3907   -0.3876 C   0  0  0  0  0  0  0  0  0  0  0  0
    3.5756   -7.7290   -0.7811 S   0  0  0  0  0  0  0  0  0  0  0  0
    7.2072   -2.2229   -1.5401 C   0  0  0  0  0  0  0  0  0  0  0  0
    7.8392   -1.4562   -0.6563 N   0  0  0  0  0  0  0  0  0  0  0  0
    8.1979   -0.3458   -1.3190 N   0  0  0  0  0  0  0  0  0  0  0  0
    7.8289   -0.3743   -2.5590 N   0  0  0  0  0  0  0  0  0  0  0  0
    7.1959   -1.5545   -2.7326 N   0  0  0  0  0  0  0  0  0  0  0  0
    5.4786   -3.8229   -8.2275 H   0  0  0  0  0  0  0  0  0  0  0  0
    3.9558   -3.0253   -7.7985 H   0  0  0  0  0  0  0  0  0  0  0  0
    4.2830   -4.6788   -7.2244 H   0  0  0  0  0  0  0  0  0  0  0  0
    6.0346   -1.3093   -7.1624 H   0  0  0  0  0  0  0  0  0  0  0  0
    7.1190   -0.3419   -5.1354 H   0  0  0  0  0  0  0  0  0  0  0  0
    4.9009   -4.8065   -4.9109 H   0  0  0  0  0  0  0  0  0  0  0  0
    5.5078   -4.9922   -2.5038 H   0  0  0  0  0  0  0  0  0  0  0  0
    6.6137   -3.4800    0.7221 H   0  0  0  0  0  0  0  0  0  0  0  0
    7.6623   -4.7058    0.0052 H   0  0  0  0  0  0  0  0  0  0  0  0
    3.6477   -5.6183    0.5421 H   0  0  0  0  0  0  0  0  0  0  0  0
    3.9768   -4.0307   -0.1495 H   0  0  0  0  0  0  0  0  0  0  0  0
    3.7502   -2.2143    1.3323 H   0  0  0  0  0  0  0  0  0  0  0  0
    3.7597   -1.2566    3.6457 H   0  0  0  0  0  0  0  0  0  0  0  0
    5.0274   -5.0473    5.2227 H   0  0  0  0  0  0  0  0  0  0  0  0
    5.0204   -6.0214    2.9194 H   0  0  0  0  0  0  0  0  0  0  0  0
    6.2940   -9.1321    1.1611 H   0  0  0  0  0  0  0  0  0  0  0  0
    4.3844  -10.9277    0.7232 H   0  0  0  0  0  0  0  0  0  0  0  0
    2.4272   -9.9021   -0.7392 H   0  0  0  0  0  0  0  0  0  0  0  0
  1  2  1  0
  1 32  1  0
  1 33  1  0
  1 34  1  0
  2  3  2  0
  2  7  1  0
  3  4  1  0
  3 35  1  0
  4  5  2  0
  4 36  1  0
  5  6  1  0
  5 31  1  0
  6  7  2  0
  6  8  1  0
  7 37  1  0
  8  9  2  0
  8 38  1  0
  9 10  1  0
  9 27  1  0
 10 11  1  0
 10 39  1  0
 10 40  1  0
 11 12  1  0
 11 20  1  0
 12 13  1  0
 12 41  1  0
 12 42  1  0
 13 14  2  0
 13 19  1  0
 14 15  1  0
 14 43  1  0
 15 16  2  0
 15 44  1  0
 16 17  1  0
 16 18  1  0
 18 19  2  0
 18 45  1  0
 19 46  1  0
 20 21  2  0
 20 22  1  0
 22 23  2  0
 22 26  1  0
 23 24  1  0
 23 47  1  0
 24 25  2  0
 24 48  1  0
 25 26  1  0
 25 49  1  0
 27 28  2  0
 27 31  1  0
 28 29  1  0
 29 30  2  0
 30 31  1  0
M  END

