
     RDKit          3D

 37 38  0  0  0  0  0  0  0  0999 V2000
    2.3692    0.1310    0.5349 C   0  0  0  0  0  0  0  0  0  0  0  0
    3.4354   -0.9312    0.8253 C   0  0  1  0  0  0  0  0  0  0  0  0
    4.6392   -0.3507    1.5757 C   0  0  0  0  0  0  0  0  0  0  0  0
    2.8316   -2.1055    1.5983 C   0  0  0  0  0  0  0  0  0  0  0  0
    3.8772   -1.5553   -0.4268 O   0  0  0  0  0  0  0  0  0  0  0  0
    4.4759   -0.8617   -1.4108 C   0  0  0  0  0  0  0  0  0  0  0  0
    4.7104    0.3274   -1.3726 O   0  0  0  0  0  0  0  0  0  0  0  0
    4.8266   -1.7304   -2.5776 C   0  0  0  0  0  0  0  0  0  0  0  0
    5.4519   -1.1313   -3.6834 C   0  0  0  0  0  0  0  0  0  0  0  0
    5.7898   -1.9056   -4.7869 C   0  0  0  0  0  0  0  0  0  0  0  0
    5.5214   -3.2858   -4.8266 C   0  0  0  0  0  0  0  0  0  0  0  0
    4.8962   -3.8931   -3.7172 C   0  0  0  0  0  0  0  0  0  0  0  0
    4.5575   -3.1037   -2.6088 C   0  0  0  0  0  0  0  0  0  0  0  0
    4.6173   -5.3864   -3.6874 C   0  0  0  0  0  0  0  0  0  0  0  0
    4.6503   -6.0420   -5.0710 C   0  0  0  0  0  0  0  0  0  0  0  0
    5.8947   -5.5976   -5.8431 C   0  0  0  0  0  0  0  0  0  0  0  0
    5.8727   -4.0830   -6.0692 C   0  0  0  0  0  0  0  0  0  0  0  0
    1.9571    0.5095    1.4835 H   0  0  0  0  0  0  0  0  0  0  0  0
    1.5417   -0.3058   -0.0459 H   0  0  0  0  0  0  0  0  0  0  0  0
    2.7903    0.9734   -0.0277 H   0  0  0  0  0  0  0  0  0  0  0  0
    4.3185    0.0101    2.5656 H   0  0  0  0  0  0  0  0  0  0  0  0
    5.0859    0.4854    1.0234 H   0  0  0  0  0  0  0  0  0  0  0  0
    5.4062   -1.1263    1.7276 H   0  0  0  0  0  0  0  0  0  0  0  0
    2.4556   -1.7664    2.5754 H   0  0  0  0  0  0  0  0  0  0  0  0
    3.5873   -2.8874    1.7680 H   0  0  0  0  0  0  0  0  0  0  0  0
    1.9949   -2.5494    1.0378 H   0  0  0  0  0  0  0  0  0  0  0  0
    5.6610   -0.0606   -3.6526 H   0  0  0  0  0  0  0  0  0  0  0  0
    6.2761   -1.4358   -5.6472 H   0  0  0  0  0  0  0  0  0  0  0  0
    4.0717   -3.5659   -1.7474 H   0  0  0  0  0  0  0  0  0  0  0  0
    3.6489   -5.5699   -3.1930 H   0  0  0  0  0  0  0  0  0  0  0  0
    5.3757   -5.8703   -3.0430 H   0  0  0  0  0  0  0  0  0  0  0  0
    3.7472   -5.7577   -5.6413 H   0  0  0  0  0  0  0  0  0  0  0  0
    4.6227   -7.1390   -4.9677 H   0  0  0  0  0  0  0  0  0  0  0  0
    5.9654   -6.1201   -6.8109 H   0  0  0  0  0  0  0  0  0  0  0  0
    6.7974   -5.8765   -5.2696 H   0  0  0  0  0  0  0  0  0  0  0  0
    5.1271   -3.8463   -6.8522 H   0  0  0  0  0  0  0  0  0  0  0  0
    6.8395   -3.7339   -6.4688 H   0  0  0  0  0  0  0  0  0  0  0  0
  1  2  1  0
  1 18  1  0
  1 19  1  0
  1 20  1  0
  2  3  1  0
  2  4  1  0
  2  5  1  6
  3 21  1  0
  3 22  1  0
  3 23  1  0
  4 24  1  0
  4 25  1  0
  4 26  1  0
  5  6  1  0
  6  7  2  0
  6  8  1  0
  8  9  2  0
  8 13  1  0
  9 10  1  0
  9 27  1  0
 10 11  2  0
 10 28  1  0
 11 12  1  0
 11 17  1  0
 12 13  2  0
 12 14  1  0
 13 29  1  0
 14 15  1  0
 14 30  1  0
 14 31  1  0
 15 16  1  0
 15 32  1  0
 15 33  1  0
 16 17  1  0
 16 34  1  0
 16 35  1  0
 17 36  1  0
 17 37  1  0
M  END

