
     RDKit          3D

 42 42  0  0  0  0  0  0  0  0999 V2000
    1.3623    2.4098   -0.3042 C   0  0  0  0  0  0  0  0  0  0  0  0
    2.7097    2.3404   -0.6987 O   0  0  0  0  0  0  0  0  0  0  0  0
    3.0091    3.0519   -1.8729 C   0  0  0  0  0  0  0  0  0  0  0  0
    4.4931    2.9510   -2.2269 C   0  0  0  0  0  0  0  0  0  0  0  0
    4.9324    3.5042   -3.2225 O   0  0  0  0  0  0  0  0  0  0  0  0
    5.2366    2.2192   -1.3609 N   0  0  0  0  0  0  0  0  0  0  0  0
    6.6803    2.0544   -1.5146 C   0  0  1  0  0  0  0  0  0  0  0  0
    7.3075    1.6159   -0.1837 C   0  0  0  0  0  0  0  0  0  0  0  0
    6.9786    0.1593    0.1654 C   0  0  0  0  0  0  0  0  0  0  0  0
    7.3416   -0.7482   -0.9255 N   0  0  0  0  0  0  0  0  0  0  0  0
    8.1846   -1.8057   -0.6322 C   0  0  0  0  0  0  0  0  0  0  0  0
    8.6141   -1.9424    0.5058 O   0  0  0  0  0  0  0  0  0  0  0  0
    8.6052   -2.8367   -1.7265 C   0  0  1  0  0  0  0  0  0  0  0  0
    9.3913   -2.1628   -2.8746 C   0  0  0  0  0  0  0  0  0  0  0  0
    9.5531   -3.8468   -1.0486 C   0  0  0  0  0  0  0  0  0  0  0  0
    7.3843   -3.6260   -2.2525 C   0  0  0  0  0  0  0  0  0  0  0  0
    6.6913   -0.4020   -2.1881 C   0  0  0  0  0  0  0  0  0  0  0  0
    7.0278    1.0311   -2.6132 C   0  0  0  0  0  0  0  0  0  0  0  0
    1.2513    1.8214    0.6179 H   0  0  0  0  0  0  0  0  0  0  0  0
    0.6863    1.9913   -1.0760 H   0  0  0  0  0  0  0  0  0  0  0  0
    1.0472    3.4523   -0.1006 H   0  0  0  0  0  0  0  0  0  0  0  0
    2.7656    4.1293   -1.7754 H   0  0  0  0  0  0  0  0  0  0  0  0
    2.4347    2.6724   -2.7420 H   0  0  0  0  0  0  0  0  0  0  0  0
    4.7461    1.8271   -0.5635 H   0  0  0  0  0  0  0  0  0  0  0  0
    7.0819    3.0340   -1.8193 H   0  0  0  0  0  0  0  0  0  0  0  0
    6.9764    2.2813    0.6313 H   0  0  0  0  0  0  0  0  0  0  0  0
    8.4016    1.7222   -0.2621 H   0  0  0  0  0  0  0  0  0  0  0  0
    5.8964    0.0472    0.3773 H   0  0  0  0  0  0  0  0  0  0  0  0
    7.5210   -0.1653    1.0600 H   0  0  0  0  0  0  0  0  0  0  0  0
   10.2494   -1.5972   -2.4779 H   0  0  0  0  0  0  0  0  0  0  0  0
    8.7924   -1.4749   -3.4867 H   0  0  0  0  0  0  0  0  0  0  0  0
    9.7898   -2.9357   -3.5518 H   0  0  0  0  0  0  0  0  0  0  0  0
   10.4439   -3.3481   -0.6426 H   0  0  0  0  0  0  0  0  0  0  0  0
    9.8749   -4.6013   -1.7843 H   0  0  0  0  0  0  0  0  0  0  0  0
    9.0590   -4.3585   -0.2115 H   0  0  0  0  0  0  0  0  0  0  0  0
    6.6634   -3.0153   -2.8130 H   0  0  0  0  0  0  0  0  0  0  0  0
    6.8427   -4.1017   -1.4194 H   0  0  0  0  0  0  0  0  0  0  0  0
    7.7256   -4.4286   -2.9264 H   0  0  0  0  0  0  0  0  0  0  0  0
    5.5951   -0.4969   -2.0623 H   0  0  0  0  0  0  0  0  0  0  0  0
    6.9763   -1.1007   -2.9757 H   0  0  0  0  0  0  0  0  0  0  0  0
    6.4902    1.2955   -3.5364 H   0  0  0  0  0  0  0  0  0  0  0  0
    8.1076    1.1007   -2.8296 H   0  0  0  0  0  0  0  0  0  0  0  0
  1  2  1  0
  1 19  1  0
  1 20  1  0
  1 21  1  0
  2  3  1  0
  3  4  1  0
  3 22  1  0
  3 23  1  0
  4  5  2  0
  4  6  1  0
  6  7  1  0
  6 24  1  0
  7  8  1  0
  7 18  1  0
  7 25  1  6
  8  9  1  0
  8 26  1  0
  8 27  1  0
  9 10  1  0
  9 28  1  0
  9 29  1  0
 10 11  1  0
 10 17  1  0
 11 12  2  0
 13 11  1  1
 13 14  1  0
 13 15  1  0
 13 16  1  0
 14 30  1  0
 14 31  1  0
 14 32  1  0
 15 33  1  0
 15 34  1  0
 15 35  1  0
 16 36  1  0
 16 37  1  0
 16 38  1  0
 17 18  1  0
 17 39  1  0
 17 40  1  0
 18 41  1  0
 18 42  1  0
M  END

