
     RDKit          3D

 47 50  0  0  0  0  0  0  0  0999 V2000
    4.5784   -1.2387   -5.5856 C   0  0  0  0  0  0  0  0  0  0  0  0
    3.9733   -0.3888   -4.5002 C   0  0  0  0  0  0  0  0  0  0  0  0
    3.0450    0.3682   -4.6349 O   0  0  0  0  0  0  0  0  0  0  0  0
    4.6304   -0.5577   -3.3268 O   0  0  0  0  0  0  0  0  0  0  0  0
    4.2705    0.3163   -2.2531 C   0  0  0  0  0  0  0  0  0  0  0  0
    4.9762    1.6648   -2.3617 C   0  0  0  0  0  0  0  0  0  0  0  0
    6.4410    1.5568   -2.3180 N   0  0  0  0  0  0  0  0  0  0  0  0
    7.1328    1.4949   -3.5374 C   0  0  0  0  0  0  0  0  0  0  0  0
    6.5392    1.5230   -4.6012 O   0  0  0  0  0  0  0  0  0  0  0  0
    8.6167    1.4042   -3.4604 C   0  0  0  0  0  0  0  0  0  0  0  0
    9.3585    1.3664   -4.6317 C   0  0  0  0  0  0  0  0  0  0  0  0
   10.7659    1.2793   -4.5831 C   0  0  0  0  0  0  0  0  0  0  0  0
   11.4251    1.2308   -3.3678 C   0  0  0  0  0  0  0  0  0  0  0  0
   10.6944    1.2692   -2.1516 C   0  0  0  0  0  0  0  0  0  0  0  0
   11.3210    1.2240   -0.8660 C   0  0  0  0  0  0  0  0  0  0  0  0
   12.6854    1.1933   -0.8772 O   0  0  0  0  0  0  0  0  0  0  0  0
   13.4323    0.6892    0.1615 C   0  0  0  0  0  0  0  0  0  0  0  0
   13.1675   -0.5724    0.7192 C   0  0  0  0  0  0  0  0  0  0  0  0
   14.0060   -1.0635    1.7135 C   0  0  0  0  0  0  0  0  0  0  0  0
   15.1105   -0.3121    2.1538 C   0  0  0  0  0  0  0  0  0  0  0  0
   15.9997   -0.8469    3.2138 C   0  0  0  0  0  0  0  0  0  0  0  0
   15.8501   -1.9147    3.7615 O   0  0  0  0  0  0  0  0  0  0  0  0
   15.3650    0.9414    1.5781 C   0  0  0  0  0  0  0  0  0  0  0  0
   14.5291    1.4478    0.5838 C   0  0  0  0  0  0  0  0  0  0  0  0
   10.5670    1.2711    0.2978 C   0  0  0  0  0  0  0  0  0  0  0  0
    9.1633    1.3552    0.2236 C   0  0  0  0  0  0  0  0  0  0  0  0
    8.5124    1.3978   -0.9999 C   0  0  0  0  0  0  0  0  0  0  0  0
    9.2692    1.3590   -2.2003 C   0  0  0  0  0  0  0  0  0  0  0  0
    7.0341    1.4902   -1.0445 C   0  0  0  0  0  0  0  0  0  0  0  0
    6.3432    1.5137   -0.0407 O   0  0  0  0  0  0  0  0  0  0  0  0
    3.8659   -1.3472   -6.4126 H   0  0  0  0  0  0  0  0  0  0  0  0
    4.8854   -2.2202   -5.1984 H   0  0  0  0  0  0  0  0  0  0  0  0
    5.4791   -0.7188   -5.9504 H   0  0  0  0  0  0  0  0  0  0  0  0
    4.5657   -0.2021   -1.3313 H   0  0  0  0  0  0  0  0  0  0  0  0
    3.1828    0.4818   -2.2518 H   0  0  0  0  0  0  0  0  0  0  0  0
    4.6620    2.2901   -1.5156 H   0  0  0  0  0  0  0  0  0  0  0  0
    4.7054    2.1538   -3.3042 H   0  0  0  0  0  0  0  0  0  0  0  0
    8.8262    1.4060   -5.5840 H   0  0  0  0  0  0  0  0  0  0  0  0
   11.3372    1.2497   -5.5137 H   0  0  0  0  0  0  0  0  0  0  0  0
   12.5130    1.1632   -3.3260 H   0  0  0  0  0  0  0  0  0  0  0  0
   12.3169   -1.1578    0.3648 H   0  0  0  0  0  0  0  0  0  0  0  0
   13.8309   -2.0427    2.1650 H   0  0  0  0  0  0  0  0  0  0  0  0
   16.8539   -0.1726    3.4859 H   0  0  0  0  0  0  0  0  0  0  0  0
   16.2254    1.5271    1.9155 H   0  0  0  0  0  0  0  0  0  0  0  0
   14.7093    2.4202    0.1222 H   0  0  0  0  0  0  0  0  0  0  0  0
   11.0603    1.2521    1.2703 H   0  0  0  0  0  0  0  0  0  0  0  0
    8.5622    1.3958    1.1341 H   0  0  0  0  0  0  0  0  0  0  0  0
  1  2  1  0
  1 31  1  0
  1 32  1  0
  1 33  1  0
  2  3  2  0
  2  4  1  0
  4  5  1  0
  5  6  1  0
  5 34  1  0
  5 35  1  0
  6  7  1  0
  6 36  1  0
  6 37  1  0
  7  8  1  0
  7 29  1  0
  8  9  2  0
  8 10  1  0
 10 11  1  0
 10 28  2  0
 11 12  2  0
 11 38  1  0
 12 13  1  0
 12 39  1  0
 13 14  2  0
 13 40  1  0
 14 15  1  0
 14 28  1  0
 15 16  1  0
 15 25  2  0
 16 17  1  0
 17 18  2  0
 17 24  1  0
 18 19  1  0
 18 41  1  0
 19 20  2  0
 19 42  1  0
 20 21  1  0
 20 23  1  0
 21 22  2  0
 21 43  1  0
 23 24  2  0
 23 44  1  0
 24 45  1  0
 25 26  1  0
 25 46  1  0
 26 27  2  0
 26 47  1  0
 27 28  1  0
 27 29  1  0
 29 30  2  0
M  END

