
     RDKit          3D

 43 45  0  0  0  0  0  0  0  0999 V2000
    0.5569   -0.0141   -0.1322 N   0  0  0  0  0  0  0  0  0  0  0  0
    1.9493    0.0403   -0.2011 C   0  0  0  0  0  0  0  0  0  0  0  0
    2.7414   -0.9705   -0.1927 N   0  0  0  0  0  0  0  0  0  0  0  0
    2.1962   -2.3096   -0.1847 C   0  0  0  0  0  0  0  0  0  0  0  0
    3.3000   -3.3408   -0.3110 C   0  0  1  0  0  0  0  0  0  0  0  0
    3.0472   -4.7495   -0.7903 C   0  0  0  0  0  0  0  0  0  0  0  0
    3.8868   -3.8129   -1.6289 C   0  0  2  0  0  0  0  0  0  0  0  0
    5.3972   -4.0251   -1.6604 C   0  0  0  0  0  0  0  0  0  0  0  0
    6.1593   -2.7330   -1.9667 C   0  0  0  0  0  0  0  0  0  0  0  0
    5.7345   -2.0322   -3.6082 S   0  0  0  0  0  0  0  0  0  0  0  0
    3.9130   -1.9727   -3.3925 C   0  0  0  0  0  0  0  0  0  0  0  0
    3.3193   -3.3145   -2.9543 C   0  0  0  0  0  0  0  0  0  0  0  0
    2.4411    1.3323   -0.2536 N   0  0  0  0  0  0  0  0  0  0  0  0
    3.8622    1.6203   -0.1436 C   0  0  1  0  0  0  0  0  0  0  0  0
    4.6037    1.8456   -1.4740 C   0  0  0  0  0  0  0  0  0  0  0  0
    5.9273    2.4867   -1.0305 C   0  0  0  0  0  0  0  0  0  0  0  0
    5.5708    3.3497    0.2148 C   0  0  0  0  0  0  0  0  0  0  0  0
    4.1422    2.9209    0.6326 C   0  0  0  0  0  0  0  0  0  0  0  0
    0.1494   -0.9241   -0.3117 H   0  0  0  0  0  0  0  0  0  0  0  0
    0.0609    0.7323   -0.6096 H   0  0  0  0  0  0  0  0  0  0  0  0
    1.4491   -2.4686   -0.9940 H   0  0  0  0  0  0  0  0  0  0  0  0
    1.6490   -2.5143    0.7615 H   0  0  0  0  0  0  0  0  0  0  0  0
    4.0354   -3.2399    0.4959 H   0  0  0  0  0  0  0  0  0  0  0  0
    2.0446   -4.9905   -1.1606 H   0  0  0  0  0  0  0  0  0  0  0  0
    3.5380   -5.5790   -0.2714 H   0  0  0  0  0  0  0  0  0  0  0  0
    5.6516   -4.7876   -2.4182 H   0  0  0  0  0  0  0  0  0  0  0  0
    5.7344   -4.4163   -0.6841 H   0  0  0  0  0  0  0  0  0  0  0  0
    7.2463   -2.9063   -1.9950 H   0  0  0  0  0  0  0  0  0  0  0  0
    5.9554   -1.9766   -1.1914 H   0  0  0  0  0  0  0  0  0  0  0  0
    3.5156   -1.6625   -4.3715 H   0  0  0  0  0  0  0  0  0  0  0  0
    3.6676   -1.1938   -2.6544 H   0  0  0  0  0  0  0  0  0  0  0  0
    3.5135   -4.0742   -3.7325 H   0  0  0  0  0  0  0  0  0  0  0  0
    2.2232   -3.2116   -2.8855 H   0  0  0  0  0  0  0  0  0  0  0  0
    1.8180    2.0455    0.1070 H   0  0  0  0  0  0  0  0  0  0  0  0
    4.3340    0.7665    0.3713 H   0  0  0  0  0  0  0  0  0  0  0  0
    4.0138    2.5434   -2.0951 H   0  0  0  0  0  0  0  0  0  0  0  0
    4.7449    0.9198   -2.0512 H   0  0  0  0  0  0  0  0  0  0  0  0
    6.4059    3.0716   -1.8307 H   0  0  0  0  0  0  0  0  0  0  0  0
    6.6426    1.6968   -0.7483 H   0  0  0  0  0  0  0  0  0  0  0  0
    5.6049    4.4260   -0.0152 H   0  0  0  0  0  0  0  0  0  0  0  0
    6.2929    3.1844    1.0294 H   0  0  0  0  0  0  0  0  0  0  0  0
    3.4093    3.6862    0.3170 H   0  0  0  0  0  0  0  0  0  0  0  0
    4.0268    2.7934    1.7205 H   0  0  0  0  0  0  0  0  0  0  0  0
  1  2  1  0
  1 19  1  0
  1 20  1  0
  2  3  2  0
  2 13  1  0
  3  4  1  0
  4  5  1  0
  4 21  1  0
  4 22  1  0
  5  6  1  0
  5  7  1  0
  5 23  1  1
  7  6  1  6
  6 24  1  0
  6 25  1  0
  7  8  1  0
  7 12  1  0
  8  9  1  0
  8 26  1  0
  8 27  1  0
  9 10  1  0
  9 28  1  0
  9 29  1  0
 10 11  1  0
 11 12  1  0
 11 30  1  0
 11 31  1  0
 12 32  1  0
 12 33  1  0
 13 14  1  0
 13 34  1  0
 14 15  1  0
 14 18  1  0
 14 35  1  1
 15 16  1  0
 15 36  1  0
 15 37  1  0
 16 17  1  0
 16 38  1  0
 16 39  1  0
 17 18  1  0
 17 40  1  0
 17 41  1  0
 18 42  1  0
 18 43  1  0
M  END

