
     RDKit          3D

 39 40  0  0  0  0  0  0  0  0999 V2000
    1.2641    1.1488    0.1808 C   0  0  0  0  0  0  0  0  0  0  0  0
    2.4958    0.2440   -0.0005 C   0  0  1  0  0  0  0  0  0  0  0  0
    2.1387   -1.2357    0.2736 C   0  0  0  0  0  0  0  0  0  0  0  0
    1.3666   -1.8982   -0.8738 C   0  0  0  0  0  0  0  0  0  0  0  0
    2.1305   -1.7699   -2.1957 C   0  0  0  0  0  0  0  0  0  0  0  0
    2.4391   -0.3010   -2.5193 C   0  0  0  0  0  0  0  0  0  0  0  0
    3.1552    0.4977   -1.3957 C   0  0  2  0  0  0  0  0  0  0  0  0
    4.6355    0.4394   -1.3587 N   0  0  0  0  0  0  0  0  0  0  0  0
    5.3433   -0.8441   -1.1917 C   0  0  0  0  0  0  0  0  0  0  0  0
    5.8364   -1.4939   -2.4925 C   0  0  0  0  0  0  0  0  0  0  0  0
    6.6909   -0.5089   -3.2954 C   0  0  0  0  0  0  0  0  0  0  0  0
    5.9131    0.7857   -3.5466 C   0  0  0  0  0  0  0  0  0  0  0  0
    5.3554    1.3753   -2.2404 C   0  0  2  0  0  0  0  0  0  0  0  0
    6.4698    2.0937   -1.4268 C   0  0  0  0  0  0  0  0  0  0  0  0
    7.3916    2.6800   -1.9318 O   0  0  0  0  0  0  0  0  0  0  0  0
    6.2627    2.0333   -0.1099 O   0  0  0  0  0  0  0  0  0  0  0  0
    0.8133    1.0002    1.1749 H   0  0  0  0  0  0  0  0  0  0  0  0
    0.4808    0.9458   -0.5673 H   0  0  0  0  0  0  0  0  0  0  0  0
    1.5347    2.2133    0.0940 H   0  0  0  0  0  0  0  0  0  0  0  0
    3.2361    0.5567    0.7553 H   0  0  0  0  0  0  0  0  0  0  0  0
    1.5571   -1.2948    1.2092 H   0  0  0  0  0  0  0  0  0  0  0  0
    3.0578   -1.8155    0.4629 H   0  0  0  0  0  0  0  0  0  0  0  0
    0.3714   -1.4305   -0.9795 H   0  0  0  0  0  0  0  0  0  0  0  0
    1.1805   -2.9591   -0.6377 H   0  0  0  0  0  0  0  0  0  0  0  0
    1.5452   -2.2094   -3.0210 H   0  0  0  0  0  0  0  0  0  0  0  0
    3.0604   -2.3607   -2.1389 H   0  0  0  0  0  0  0  0  0  0  0  0
    1.4786    0.2071   -2.7174 H   0  0  0  0  0  0  0  0  0  0  0  0
    3.0146   -0.2169   -3.4546 H   0  0  0  0  0  0  0  0  0  0  0  0
    2.9625    1.5589   -1.6160 H   0  0  0  0  0  0  0  0  0  0  0  0
    4.7026   -1.5315   -0.6271 H   0  0  0  0  0  0  0  0  0  0  0  0
    6.2285   -0.6603   -0.5532 H   0  0  0  0  0  0  0  0  0  0  0  0
    4.9800   -1.8271   -3.1030 H   0  0  0  0  0  0  0  0  0  0  0  0
    6.4143   -2.3989   -2.2390 H   0  0  0  0  0  0  0  0  0  0  0  0
    7.0105   -0.9551   -4.2512 H   0  0  0  0  0  0  0  0  0  0  0  0
    7.6142   -0.2772   -2.7348 H   0  0  0  0  0  0  0  0  0  0  0  0
    5.0762    0.5889   -4.2376 H   0  0  0  0  0  0  0  0  0  0  0  0
    6.5553    1.5459   -4.0146 H   0  0  0  0  0  0  0  0  0  0  0  0
    4.6557    2.1875   -2.5003 H   0  0  0  0  0  0  0  0  0  0  0  0
    5.4618    1.4527   -0.0346 H   0  0  0  0  0  0  0  0  0  0  0  0
  1  2  1  0
  1 17  1  0
  1 18  1  0
  1 19  1  0
  2  3  1  0
  2  7  1  0
  2 20  1  1
  3  4  1  0
  3 21  1  0
  3 22  1  0
  4  5  1  0
  4 23  1  0
  4 24  1  0
  5  6  1  0
  5 25  1  0
  5 26  1  0
  6  7  1  0
  6 27  1  0
  6 28  1  0
  7  8  1  0
  7 29  1  6
  8  9  1  0
  8 13  1  0
  9 10  1  0
  9 30  1  0
  9 31  1  0
 10 11  1  0
 10 32  1  0
 10 33  1  0
 11 12  1  0
 11 34  1  0
 11 35  1  0
 12 13  1  0
 12 36  1  0
 12 37  1  0
 13 14  1  0
 13 38  1  6
 14 15  2  0
 14 16  1  0
 16 39  1  0
M  END

