
     RDKit          3D

 41 42  0  0  0  0  0  0  0  0999 V2000
    1.2034   -0.6070   -0.0612 C   0  0  0  0  0  0  0  0  0  0  0  0
    2.5824   -0.6015   -0.7263 C   0  0  0  0  0  0  0  0  0  0  0  0
    3.3409    0.7365   -0.6355 C   0  0  1  0  0  0  0  0  0  0  0  0
    3.5978    1.1479    0.8213 C   0  0  0  0  0  0  0  0  0  0  0  0
    4.6784    0.6872   -1.4251 C   0  0  1  0  0  0  0  0  0  0  0  0
    4.6479    0.0806   -2.7573 N   0  0  0  0  0  0  0  0  0  0  0  0
    5.2717    2.1126   -1.5911 C   0  0  0  0  0  0  0  0  0  0  0  0
    4.5731    3.0988   -1.3937 O   0  0  0  0  0  0  0  0  0  0  0  0
    6.5758    2.2187   -2.0062 N   0  0  0  0  0  0  0  0  0  0  0  0
    7.5204    1.0899   -2.0696 C   0  0  0  0  0  0  0  0  0  0  0  0
    8.4709    1.1600   -3.2756 C   0  0  0  0  0  0  0  0  0  0  0  0
    9.1992    2.5069   -3.3874 C   0  0  0  0  0  0  0  0  0  0  0  0
    8.1369    3.5892   -3.3483 C   0  0  2  0  0  0  0  0  0  0  0  0
    8.5372    5.0652   -3.3733 C   0  0  0  0  0  0  0  0  0  0  0  0
    9.4976    5.5683   -3.9185 O   0  0  0  0  0  0  0  0  0  0  0  0
    7.5536    5.7124   -2.6717 N   0  0  0  0  0  0  0  0  0  0  0  0
    6.4944    4.8433   -2.1567 C   0  0  0  0  0  0  0  0  0  0  0  0
    7.2615    3.5088   -2.0899 C   0  0  1  0  0  0  0  0  0  0  0  0
    0.6816   -1.5596   -0.2459 H   0  0  0  0  0  0  0  0  0  0  0  0
    0.5683    0.2028   -0.4580 H   0  0  0  0  0  0  0  0  0  0  0  0
    1.2649   -0.4747    1.0300 H   0  0  0  0  0  0  0  0  0  0  0  0
    2.4490   -0.8653   -1.7887 H   0  0  0  0  0  0  0  0  0  0  0  0
    3.2042   -1.4064   -0.2878 H   0  0  0  0  0  0  0  0  0  0  0  0
    2.7211    1.5198   -1.1057 H   0  0  0  0  0  0  0  0  0  0  0  0
    4.1873    0.3782    1.3512 H   0  0  0  0  0  0  0  0  0  0  0  0
    2.6573    1.2827    1.3758 H   0  0  0  0  0  0  0  0  0  0  0  0
    4.1419    2.1007    0.8734 H   0  0  0  0  0  0  0  0  0  0  0  0
    5.3847    0.0898   -0.8200 H   0  0  0  0  0  0  0  0  0  0  0  0
    3.9936    0.5769   -3.3637 H   0  0  0  0  0  0  0  0  0  0  0  0
    4.3381   -0.8884   -2.7145 H   0  0  0  0  0  0  0  0  0  0  0  0
    6.9504    0.1601   -2.1367 H   0  0  0  0  0  0  0  0  0  0  0  0
    8.1179    1.0734   -1.1355 H   0  0  0  0  0  0  0  0  0  0  0  0
    7.8790    0.9865   -4.1907 H   0  0  0  0  0  0  0  0  0  0  0  0
    9.1880    0.3265   -3.1953 H   0  0  0  0  0  0  0  0  0  0  0  0
    9.7940    2.5694   -4.3118 H   0  0  0  0  0  0  0  0  0  0  0  0
    9.9020    2.6394   -2.5457 H   0  0  0  0  0  0  0  0  0  0  0  0
    7.4639    3.4507   -4.2188 H   0  0  0  0  0  0  0  0  0  0  0  0
    7.5184    6.7247   -2.6332 H   0  0  0  0  0  0  0  0  0  0  0  0
    5.6317    4.7839   -2.8396 H   0  0  0  0  0  0  0  0  0  0  0  0
    6.1244    5.1819   -1.1812 H   0  0  0  0  0  0  0  0  0  0  0  0
    7.9435    3.5816   -1.2163 H   0  0  0  0  0  0  0  0  0  0  0  0
  1  2  1  0
  1 19  1  0
  1 20  1  0
  1 21  1  0
  2  3  1  0
  2 22  1  0
  2 23  1  0
  3  4  1  0
  3  5  1  0
  3 24  1  6
  4 25  1  0
  4 26  1  0
  4 27  1  0
  5  6  1  0
  5  7  1  0
  5 28  1  1
  6 29  1  0
  6 30  1  0
  7  8  2  0
  7  9  1  0
  9 10  1  0
  9 18  1  0
 10 11  1  0
 10 31  1  0
 10 32  1  0
 11 12  1  0
 11 33  1  0
 11 34  1  0
 12 13  1  0
 12 35  1  0
 12 36  1  0
 13 14  1  0
 13 18  1  0
 13 37  1  6
 14 15  2  0
 14 16  1  0
 16 17  1  0
 16 38  1  0
 17 18  1  0
 17 39  1  0
 17 40  1  0
 18 41  1  1
M  END

