
     RDKit          3D

 36 36  0  0  0  0  0  0  0  0999 V2000
    1.0133   -0.0273    0.1921 C   0  0  0  0  0  0  0  0  0  0  0  0
    2.5228   -0.0614   -0.0630 C   0  0  1  0  0  0  0  0  0  0  0  0
    2.9216   -1.3884   -0.7596 C   0  0  0  0  0  0  0  0  0  0  0  0
    2.1411   -1.7256   -2.0223 C   0  0  0  0  0  0  0  0  0  0  0  0
    2.1784   -0.7760   -2.9709 N   0  0  0  0  0  0  0  0  0  0  0  0
    1.3284   -3.1638   -2.1999 S   0  0  0  0  0  0  0  0  0  0  0  0
    3.0229    1.1142   -0.8243 N   0  0  0  0  0  0  0  0  0  0  0  0
    2.2907    2.3642   -0.6361 C   0  0  0  0  0  0  0  0  0  0  0  0
    4.4583    1.3075   -0.6712 C   0  0  0  0  0  0  0  0  0  0  0  0
    5.1885    1.6679   -1.9724 C   0  0  1  0  0  0  0  0  0  0  0  0
    4.9241    0.6914   -2.9013 F   0  0  0  0  0  0  0  0  0  0  0  0
    4.6689    2.8296   -2.4886 F   0  0  0  0  0  0  0  0  0  0  0  0
    6.6865    1.8178   -1.8044 C   0  0  0  0  0  0  0  0  0  0  0  0
    7.5318    0.7145   -1.9832 C   0  0  0  0  0  0  0  0  0  0  0  0
    8.9083    0.8482   -1.7843 C   0  0  0  0  0  0  0  0  0  0  0  0
    9.4470    2.0819   -1.4068 C   0  0  0  0  0  0  0  0  0  0  0  0
    8.6054    3.1848   -1.2322 C   0  0  0  0  0  0  0  0  0  0  0  0
    7.2287    3.0551   -1.4306 C   0  0  0  0  0  0  0  0  0  0  0  0
    0.7104   -0.9679    0.6748 H   0  0  0  0  0  0  0  0  0  0  0  0
    0.4423    0.0554   -0.7449 H   0  0  0  0  0  0  0  0  0  0  0  0
    0.7216    0.7990    0.8555 H   0  0  0  0  0  0  0  0  0  0  0  0
    3.0149   -0.0772    0.9346 H   0  0  0  0  0  0  0  0  0  0  0  0
    2.7832   -2.2174   -0.0545 H   0  0  0  0  0  0  0  0  0  0  0  0
    3.9936   -1.3652   -1.0203 H   0  0  0  0  0  0  0  0  0  0  0  0
    2.6514    0.1075   -2.7846 H   0  0  0  0  0  0  0  0  0  0  0  0
    1.6836   -0.9348   -3.8414 H   0  0  0  0  0  0  0  0  0  0  0  0
    1.2440    2.2597   -0.9486 H   0  0  0  0  0  0  0  0  0  0  0  0
    2.7434    3.1416   -1.2634 H   0  0  0  0  0  0  0  0  0  0  0  0
    2.3060    2.7226    0.4169 H   0  0  0  0  0  0  0  0  0  0  0  0
    4.9321    0.3849   -0.3072 H   0  0  0  0  0  0  0  0  0  0  0  0
    4.7001    2.0901    0.0767 H   0  0  0  0  0  0  0  0  0  0  0  0
    7.1120   -0.2447   -2.2925 H   0  0  0  0  0  0  0  0  0  0  0  0
    9.5630   -0.0144   -1.9306 H   0  0  0  0  0  0  0  0  0  0  0  0
   10.5240    2.1851   -1.2529 H   0  0  0  0  0  0  0  0  0  0  0  0
    9.0231    4.1531   -0.9454 H   0  0  0  0  0  0  0  0  0  0  0  0
    6.5726    3.9195   -1.3099 H   0  0  0  0  0  0  0  0  0  0  0  0
  1  2  1  0
  1 19  1  0
  1 20  1  0
  1 21  1  0
  2  3  1  0
  2  7  1  0
  2 22  1  1
  3  4  1  0
  3 23  1  0
  3 24  1  0
  4  5  1  0
  4  6  2  0
  5 25  1  0
  5 26  1  0
  7  8  1  0
  7  9  1  0
  8 27  1  0
  8 28  1  0
  8 29  1  0
  9 10  1  0
  9 30  1  0
  9 31  1  0
 10 11  1  6
 10 12  1  0
 10 13  1  0
 13 14  2  0
 13 18  1  0
 14 15  1  0
 14 32  1  0
 15 16  2  0
 15 33  1  0
 16 17  1  0
 16 34  1  0
 17 18  2  0
 17 35  1  0
 18 36  1  0
M  END

