
     RDKit          3D

 36 36  0  0  0  0  0  0  0  0999 V2000
    3.7183   -2.5523    2.3017 C   0  0  0  0  0  0  0  0  0  0  0  0
    4.4608   -2.2173    1.0072 C   0  0  0  0  0  0  0  0  0  0  0  0
    3.5336   -1.7289   -0.1098 C   0  0  0  0  0  0  0  0  0  0  0  0
    4.2489   -1.3274   -1.4065 C   0  0  0  0  0  0  0  0  0  0  0  0
    4.9880   -2.4114   -2.0558 N   0  0  0  0  0  0  0  0  0  0  0  0
    4.2397   -3.4503   -2.7403 C   0  0  0  0  0  0  0  0  0  0  0  0
    6.3671   -2.4053   -1.9693 C   0  0  0  0  0  0  0  0  0  0  0  0
    6.9926   -1.5262   -1.3929 O   0  0  0  0  0  0  0  0  0  0  0  0
    6.9878   -3.4813   -2.5980 N   0  0  0  0  0  0  0  0  0  0  0  0
    8.3618   -3.7505   -2.6841 C   0  0  0  0  0  0  0  0  0  0  0  0
    9.3628   -2.9133   -2.1483 C   0  0  0  0  0  0  0  0  0  0  0  0
   10.7055   -3.2645   -2.2859 C   0  0  0  0  0  0  0  0  0  0  0  0
   11.0552   -4.4330   -2.9484 C   0  0  0  0  0  0  0  0  0  0  0  0
   12.3789   -4.7369   -3.0595 F   0  0  0  0  0  0  0  0  0  0  0  0
   10.0933   -5.2904   -3.4953 C   0  0  0  0  0  0  0  0  0  0  0  0
   10.3729   -6.5796   -4.2323 C   0  0  0  0  0  0  0  0  0  0  0  0
    9.4837   -7.2622   -4.6736 O   0  0  0  0  0  0  0  0  0  0  0  0
   11.6557   -6.9424   -4.3801 O   0  0  0  0  0  0  0  0  0  0  0  0
    8.7494   -4.9237   -3.3478 C   0  0  0  0  0  0  0  0  0  0  0  0
    4.4101   -2.9053    3.0830 H   0  0  0  0  0  0  0  0  0  0  0  0
    2.9660   -3.3435    2.1424 H   0  0  0  0  0  0  0  0  0  0  0  0
    3.1882   -1.6713    2.7013 H   0  0  0  0  0  0  0  0  0  0  0  0
    5.0119   -3.1087    0.6596 H   0  0  0  0  0  0  0  0  0  0  0  0
    5.2310   -1.4511    1.2002 H   0  0  0  0  0  0  0  0  0  0  0  0
    2.9668   -0.8465    0.2392 H   0  0  0  0  0  0  0  0  0  0  0  0
    2.7726   -2.5034   -0.3240 H   0  0  0  0  0  0  0  0  0  0  0  0
    4.9754   -0.5307   -1.2022 H   0  0  0  0  0  0  0  0  0  0  0  0
    3.5121   -0.9303   -2.1272 H   0  0  0  0  0  0  0  0  0  0  0  0
    3.1746   -3.1840   -2.7401 H   0  0  0  0  0  0  0  0  0  0  0  0
    4.3269   -4.4393   -2.2529 H   0  0  0  0  0  0  0  0  0  0  0  0
    4.5433   -3.5531   -3.7983 H   0  0  0  0  0  0  0  0  0  0  0  0
    6.3999   -4.1768   -3.0368 H   0  0  0  0  0  0  0  0  0  0  0  0
    9.0718   -2.0020   -1.6317 H   0  0  0  0  0  0  0  0  0  0  0  0
   11.4947   -2.6300   -1.8778 H   0  0  0  0  0  0  0  0  0  0  0  0
   12.2504   -6.2923   -3.9719 H   0  0  0  0  0  0  0  0  0  0  0  0
    8.0098   -5.6026   -3.7799 H   0  0  0  0  0  0  0  0  0  0  0  0
  1  2  1  0
  1 20  1  0
  1 21  1  0
  1 22  1  0
  2  3  1  0
  2 23  1  0
  2 24  1  0
  3  4  1  0
  3 25  1  0
  3 26  1  0
  4  5  1  0
  4 27  1  0
  4 28  1  0
  5  6  1  0
  5  7  1  0
  6 29  1  0
  6 30  1  0
  6 31  1  0
  7  8  2  0
  7  9  1  0
  9 10  1  0
  9 32  1  0
 10 11  2  0
 10 19  1  0
 11 12  1  0
 11 33  1  0
 12 13  2  0
 12 34  1  0
 13 14  1  0
 13 15  1  0
 15 16  1  0
 15 19  2  0
 16 17  2  0
 16 18  1  0
 18 35  1  0
 19 36  1  0
M  END

