
     RDKit          3D

 33 35  0  0  0  0  0  0  0  0999 V2000
    1.0156   -0.0393    0.2721 N   0  0  0  0  0  0  0  0  0  0  0  0
    2.4854    0.0476    0.2041 C   0  0  1  0  0  0  0  0  0  0  0  0
    3.0973    1.1545    1.0539 C   0  0  0  0  0  0  0  0  0  0  0  0
    3.2774    1.0033    2.4385 C   0  0  0  0  0  0  0  0  0  0  0  0
    3.7532    2.0553    3.2218 C   0  0  0  0  0  0  0  0  0  0  0  0
    4.0560    3.2700    2.6087 C   0  0  0  0  0  0  0  0  0  0  0  0
    4.5166    4.2830    3.3562 F   0  0  0  0  0  0  0  0  0  0  0  0
    3.8975    3.4530    1.2377 C   0  0  0  0  0  0  0  0  0  0  0  0
    3.4175    2.3888    0.4701 C   0  0  0  0  0  0  0  0  0  0  0  0
    3.0421   -1.3246    0.4943 C   0  0  0  0  0  0  0  0  0  0  0  0
    4.2675   -1.6663    0.8431 N   0  0  0  0  0  0  0  0  0  0  0  0
    4.2163   -3.0337    0.8987 C   0  0  0  0  0  0  0  0  0  0  0  0
    5.3738   -3.8681    1.2569 C   0  0  0  0  0  0  0  0  0  0  0  0
    6.6083   -3.2672    1.5555 C   0  0  0  0  0  0  0  0  0  0  0  0
    7.7150   -4.0453    1.8969 C   0  0  0  0  0  0  0  0  0  0  0  0
    7.5775   -5.4312    1.9375 C   0  0  0  0  0  0  0  0  0  0  0  0
    8.6384   -6.1854    2.2652 F   0  0  0  0  0  0  0  0  0  0  0  0
    6.3652   -6.0557    1.6463 C   0  0  0  0  0  0  0  0  0  0  0  0
    5.2654   -5.2694    1.3064 C   0  0  0  0  0  0  0  0  0  0  0  0
    3.0205   -3.5400    0.6022 N   0  0  0  0  0  0  0  0  0  0  0  0
    2.2920   -2.4409    0.3494 N   0  0  0  0  0  0  0  0  0  0  0  0
    1.3114   -2.4698    0.0903 H   0  0  0  0  0  0  0  0  0  0  0  0
    0.5994    0.7694   -0.1883 H   0  0  0  0  0  0  0  0  0  0  0  0
    0.7157    0.0113    1.2479 H   0  0  0  0  0  0  0  0  0  0  0  0
    2.7340    0.2676   -0.8492 H   0  0  0  0  0  0  0  0  0  0  0  0
    3.0634    0.0433    2.9145 H   0  0  0  0  0  0  0  0  0  0  0  0
    3.9040    1.9467    4.2975 H   0  0  0  0  0  0  0  0  0  0  0  0
    4.1549    4.4149    0.7905 H   0  0  0  0  0  0  0  0  0  0  0  0
    3.2963    2.5241   -0.6088 H   0  0  0  0  0  0  0  0  0  0  0  0
    6.6860   -2.1794    1.5152 H   0  0  0  0  0  0  0  0  0  0  0  0
    8.6820   -3.5961    2.1316 H   0  0  0  0  0  0  0  0  0  0  0  0
    6.3005   -7.1447    1.6897 H   0  0  0  0  0  0  0  0  0  0  0  0
    4.3061   -5.7352    1.0742 H   0  0  0  0  0  0  0  0  0  0  0  0
  1  2  1  0
  1 23  1  0
  1 24  1  0
  2  3  1  0
  2 10  1  0
  2 25  1  6
  3  4  2  0
  3  9  1  0
  4  5  1  0
  4 26  1  0
  5  6  2  0
  5 27  1  0
  6  7  1  0
  6  8  1  0
  8  9  2  0
  8 28  1  0
  9 29  1  0
 10 11  2  0
 10 21  1  0
 11 12  1  0
 12 13  1  0
 12 20  2  0
 13 14  2  0
 13 19  1  0
 14 15  1  0
 14 30  1  0
 15 16  2  0
 15 31  1  0
 16 17  1  0
 16 18  1  0
 18 19  2  0
 18 32  1  0
 19 33  1  0
 20 21  1  0
 21 22  1  0
M  END

