
     RDKit          3D

 46 48  0  0  0  0  0  0  0  0999 V2000
    0.7944   -0.5627   -0.5452 C   0  0  0  0  0  0  0  0  0  0  0  0
    2.2610   -0.2363   -0.8097 C   0  0  0  0  0  0  0  0  0  0  0  0
    3.0992   -1.3995   -0.5425 N   0  0  0  0  0  0  0  0  0  0  0  0
    4.5509   -1.2655   -0.6785 C   0  0  2  0  0  0  0  0  0  0  0  0
    5.1467   -0.4555    0.4922 C   0  0  0  0  0  0  0  0  0  0  0  0
    6.6482   -0.1061    0.3496 C   0  0  1  0  0  0  0  0  0  0  0  0
    7.0944    0.6943    1.5842 C   0  0  0  0  0  0  0  0  0  0  0  0
    7.5029   -1.3852    0.2502 C   0  0  0  0  0  0  0  0  0  0  0  0
    6.8395    0.7604   -0.9214 C   0  0  0  0  0  0  0  0  0  0  0  0
    6.0994    0.2055   -2.1068 C   0  0  0  0  0  0  0  0  0  0  0  0
    6.4291    0.5595   -3.3964 N   0  0  0  0  0  0  0  0  0  0  0  0
    5.6761   -0.0436   -4.2639 C   0  0  0  0  0  0  0  0  0  0  0  0
    5.7575    0.1391   -5.7680 C   0  0  1  0  0  0  0  0  0  0  0  0
    5.3323    1.5623   -6.1447 C   0  0  0  0  0  0  0  0  0  0  0  0
    7.1667   -0.2359   -6.3206 C   0  0  0  0  0  0  0  0  0  0  0  0
    6.8461   -1.1076   -7.5422 C   0  0  0  0  0  0  0  0  0  0  0  0
    5.5496   -1.7832   -7.1009 C   0  0  0  0  0  0  0  0  0  0  0  0
    4.8417   -0.7804   -6.3841 O   0  0  0  0  0  0  0  0  0  0  0  0
    4.4729   -1.1163   -3.5695 S   0  0  0  0  0  0  0  0  0  0  0  0
    5.0615   -0.6867   -1.9838 C   0  0  0  0  0  0  0  0  0  0  0  0
    0.1569    0.3196   -0.7130 H   0  0  0  0  0  0  0  0  0  0  0  0
    0.6520   -0.9094    0.4903 H   0  0  0  0  0  0  0  0  0  0  0  0
    0.4367   -1.3604   -1.2192 H   0  0  0  0  0  0  0  0  0  0  0  0
    2.5732    0.5837   -0.1420 H   0  0  0  0  0  0  0  0  0  0  0  0
    2.3704    0.1547   -1.8438 H   0  0  0  0  0  0  0  0  0  0  0  0
    2.7717   -2.1923   -1.0921 H   0  0  0  0  0  0  0  0  0  0  0  0
    4.9376   -2.2979   -0.5979 H   0  0  0  0  0  0  0  0  0  0  0  0
    4.9712   -1.0213    1.4215 H   0  0  0  0  0  0  0  0  0  0  0  0
    4.5854    0.4887    0.5915 H   0  0  0  0  0  0  0  0  0  0  0  0
    7.0067    0.0907    2.5023 H   0  0  0  0  0  0  0  0  0  0  0  0
    6.4809    1.6004    1.7180 H   0  0  0  0  0  0  0  0  0  0  0  0
    8.1460    1.0122    1.4903 H   0  0  0  0  0  0  0  0  0  0  0  0
    7.3181   -2.0501    1.1102 H   0  0  0  0  0  0  0  0  0  0  0  0
    8.5763   -1.1349    0.2460 H   0  0  0  0  0  0  0  0  0  0  0  0
    7.2958   -1.9541   -0.6691 H   0  0  0  0  0  0  0  0  0  0  0  0
    7.9095    0.8525   -1.1726 H   0  0  0  0  0  0  0  0  0  0  0  0
    6.4879    1.7903   -0.7234 H   0  0  0  0  0  0  0  0  0  0  0  0
    5.9438    2.2965   -5.6001 H   0  0  0  0  0  0  0  0  0  0  0  0
    4.2749    1.7175   -5.8838 H   0  0  0  0  0  0  0  0  0  0  0  0
    5.4500    1.7199   -7.2283 H   0  0  0  0  0  0  0  0  0  0  0  0
    7.7281   -0.8092   -5.5684 H   0  0  0  0  0  0  0  0  0  0  0  0
    7.7595    0.6579   -6.5604 H   0  0  0  0  0  0  0  0  0  0  0  0
    7.6467   -1.8223   -7.7860 H   0  0  0  0  0  0  0  0  0  0  0  0
    6.6628   -0.4855   -8.4333 H   0  0  0  0  0  0  0  0  0  0  0  0
    5.7597   -2.6560   -6.4499 H   0  0  0  0  0  0  0  0  0  0  0  0
    4.9139   -2.1235   -7.9329 H   0  0  0  0  0  0  0  0  0  0  0  0
  1  2  1  0
  1 21  1  0
  1 22  1  0
  1 23  1  0
  2  3  1  0
  2 24  1  0
  2 25  1  0
  3  4  1  0
  3 26  1  0
  4  5  1  0
  4 20  1  0
  4 27  1  1
  5  6  1  0
  5 28  1  0
  5 29  1  0
  6  7  1  1
  6  8  1  0
  6  9  1  0
  7 30  1  0
  7 31  1  0
  7 32  1  0
  8 33  1  0
  8 34  1  0
  8 35  1  0
  9 10  1  0
  9 36  1  0
  9 37  1  0
 10 11  1  0
 10 20  2  0
 11 12  2  0
 12 13  1  0
 12 19  1  0
 13 14  1  1
 13 15  1  0
 13 18  1  0
 14 38  1  0
 14 39  1  0
 14 40  1  0
 15 16  1  0
 15 41  1  0
 15 42  1  0
 16 17  1  0
 16 43  1  0
 16 44  1  0
 17 18  1  0
 17 45  1  0
 17 46  1  0
 19 20  1  0
M  END

