
     RDKit          3D

 42 42  0  0  0  0  0  0  0  0999 V2000
    0.8658    4.8935   -0.6287 C   0  0  0  0  0  0  0  0  0  0  0  0
    0.2985    4.4140   -1.9672 C   0  0  0  0  0  0  0  0  0  0  0  0
    0.6345    3.0309   -2.2801 N   0  0  0  0  0  0  0  0  0  0  0  0
    0.2349    2.0351   -1.2920 C   0  0  0  0  0  0  0  0  0  0  0  0
   -1.2595    2.0256   -0.8672 C   0  0  2  0  0  0  0  0  0  0  0  0
   -1.4643    2.9591   -0.3144 H   0  0  0  0  0  0  0  0  0  0  0  0
   -1.5926    0.8043    0.0065 C   0  0  0  0  0  0  0  0  0  0  0  0
   -1.9531   -0.2955   -1.0165 C   0  0  0  0  0  0  0  0  0  0  0  0
   -2.4207    0.4740   -2.2799 C   0  0  0  0  0  0  0  0  0  0  0  0
   -2.2439    1.8870   -1.9380 N   0  0  0  0  0  0  0  0  0  0  0  0
    0.6130    2.5542   -3.6789 C   0  0  1  0  0  0  0  0  0  0  0  0
    0.4056    3.6536   -4.7240 C   0  0  0  0  0  0  0  0  0  0  0  0
    1.8719    1.7226   -4.0401 C   0  0  0  0  0  0  0  0  0  0  0  0
    3.1003    2.4891   -4.2116 N   0  0  0  0  0  0  0  0  0  0  0  0
    3.8061    2.7511   -2.9695 C   0  0  0  0  0  0  0  0  0  0  0  0
    3.9830    1.9449   -5.2246 C   0  0  0  0  0  0  0  0  0  0  0  0
    0.6584    5.9678   -0.4996 H   0  0  0  0  0  0  0  0  0  0  0  0
    1.9570    4.7470   -0.5864 H   0  0  0  0  0  0  0  0  0  0  0  0
    0.4224    4.3723    0.2337 H   0  0  0  0  0  0  0  0  0  0  0  0
    0.7200    5.0557   -2.7515 H   0  0  0  0  0  0  0  0  0  0  0  0
   -0.7987    4.6127   -1.9721 H   0  0  0  0  0  0  0  0  0  0  0  0
    0.8348    2.1579   -0.3708 H   0  0  0  0  0  0  0  0  0  0  0  0
    0.5092    1.0428   -1.6835 H   0  0  0  0  0  0  0  0  0  0  0  0
   -2.4621    1.0375    0.6401 H   0  0  0  0  0  0  0  0  0  0  0  0
   -0.7642    0.5154    0.6722 H   0  0  0  0  0  0  0  0  0  0  0  0
   -2.7278   -0.9757   -0.6326 H   0  0  0  0  0  0  0  0  0  0  0  0
   -1.0746   -0.9175   -1.2488 H   0  0  0  0  0  0  0  0  0  0  0  0
   -3.4781    0.2671   -2.5230 H   0  0  0  0  0  0  0  0  0  0  0  0
   -1.8287    0.1523   -3.1618 H   0  0  0  0  0  0  0  0  0  0  0  0
   -2.0821    2.4946   -2.7352 H   0  0  0  0  0  0  0  0  0  0  0  0
   -0.2319    1.8455   -3.8006 H   0  0  0  0  0  0  0  0  0  0  0  0
    1.2596    4.3451   -4.7509 H   0  0  0  0  0  0  0  0  0  0  0  0
   -0.5205    4.2235   -4.5564 H   0  0  0  0  0  0  0  0  0  0  0  0
    0.3337    3.1907   -5.7206 H   0  0  0  0  0  0  0  0  0  0  0  0
    1.6496    1.2204   -4.9962 H   0  0  0  0  0  0  0  0  0  0  0  0
    2.0014    0.9062   -3.2943 H   0  0  0  0  0  0  0  0  0  0  0  0
    3.1137    3.1749   -2.2318 H   0  0  0  0  0  0  0  0  0  0  0  0
    4.6243    3.4699   -3.1419 H   0  0  0  0  0  0  0  0  0  0  0  0
    4.2553    1.8292   -2.5281 H   0  0  0  0  0  0  0  0  0  0  0  0
    3.4575    1.8539   -6.1885 H   0  0  0  0  0  0  0  0  0  0  0  0
    4.3938    0.9401   -4.9650 H   0  0  0  0  0  0  0  0  0  0  0  0
    4.8420    2.6193   -5.3753 H   0  0  0  0  0  0  0  0  0  0  0  0
  1  2  1  0
  1 17  1  0
  1 18  1  0
  1 19  1  0
  2  3  1  0
  2 20  1  0
  2 21  1  0
  3  4  1  0
  3 11  1  0
  4  5  1  0
  4 22  1  0
  4 23  1  0
  5  6  1  1
  5  7  1  0
  5 10  1  0
  7  8  1  0
  7 24  1  0
  7 25  1  0
  8  9  1  0
  8 26  1  0
  8 27  1  0
  9 10  1  0
  9 28  1  0
  9 29  1  0
 10 30  1  0
 11 12  1  0
 11 13  1  0
 11 31  1  1
 12 32  1  0
 12 33  1  0
 12 34  1  0
 13 14  1  0
 13 35  1  0
 13 36  1  0
 14 15  1  0
 14 16  1  0
 15 37  1  0
 15 38  1  0
 15 39  1  0
 16 40  1  0
 16 41  1  0
 16 42  1  0
M  END

