
     RDKit          3D

 45 47  0  0  0  0  0  0  0  0999 V2000
    4.6197    4.5561    1.1360 C   0  0  0  0  0  0  0  0  0  0  0  0
    4.8904    3.2955    0.4900 N   0  0  0  0  0  0  0  0  0  0  0  0
    6.1659    2.9983   -0.1363 C   0  0  0  0  0  0  0  0  0  0  0  0
    5.9064    1.6956   -0.9200 C   0  0  2  0  0  0  0  0  0  0  0  0
    5.6577    1.9845   -2.4132 C   0  0  0  0  0  0  0  0  0  0  0  0
    5.7384    3.1025   -2.9000 O   0  0  0  0  0  0  0  0  0  0  0  0
    5.3499    0.8912   -3.1692 N   0  0  0  0  0  0  0  0  0  0  0  0
    5.1058    1.0040   -4.5970 C   0  0  0  0  0  0  0  0  0  0  0  0
    6.4074    1.1128   -5.4101 C   0  0  0  0  0  0  0  0  0  0  0  0
    6.1632    1.4115   -6.8180 N   0  0  0  0  0  0  0  0  0  0  0  0
    5.9801    2.8221   -7.1982 C   0  0  0  0  0  0  0  0  0  0  0  0
    6.9268    3.2834   -8.2782 C   0  0  0  0  0  0  0  0  0  0  0  0
    7.9335    4.2315   -8.0776 C   0  0  0  0  0  0  0  0  0  0  0  0
    8.7321    4.6321   -9.1548 C   0  0  0  0  0  0  0  0  0  0  0  0
    9.9890    5.8215   -8.8967 Cl  0  0  0  0  0  0  0  0  0  0  0  0
    8.5346    4.1015  -10.4327 C   0  0  0  0  0  0  0  0  0  0  0  0
    7.5313    3.1496  -10.6343 C   0  0  0  0  0  0  0  0  0  0  0  0
    6.7381    2.7424   -9.5603 C   0  0  0  0  0  0  0  0  0  0  0  0
    5.7134    1.8512   -9.7427 O   0  0  0  0  0  0  0  0  0  0  0  0
    5.8848    0.5545   -9.1934 C   0  0  0  0  0  0  0  0  0  0  0  0
    6.0589    0.3526   -7.6775 C   0  0  0  0  0  0  0  0  0  0  0  0
    6.1312   -0.8082   -7.2997 O   0  0  0  0  0  0  0  0  0  0  0  0
    4.6835    1.0744   -0.2079 C   0  0  0  0  0  0  0  0  0  0  0  0
    4.0063    2.2501    0.5025 C   0  0  0  0  0  0  0  0  0  0  0  0
    2.9001    2.2487    1.0049 O   0  0  0  0  0  0  0  0  0  0  0  0
    5.3208    4.7418    1.9701 H   0  0  0  0  0  0  0  0  0  0  0  0
    3.5960    4.5181    1.5330 H   0  0  0  0  0  0  0  0  0  0  0  0
    4.7029    5.3939    0.4224 H   0  0  0  0  0  0  0  0  0  0  0  0
    6.9611    2.8619    0.6224 H   0  0  0  0  0  0  0  0  0  0  0  0
    6.4682    3.8069   -0.8188 H   0  0  0  0  0  0  0  0  0  0  0  0
    6.7824    1.0288   -0.8669 H   0  0  0  0  0  0  0  0  0  0  0  0
    5.3463   -0.0264   -2.7411 H   0  0  0  0  0  0  0  0  0  0  0  0
    4.4911    1.9012   -4.7671 H   0  0  0  0  0  0  0  0  0  0  0  0
    4.5339    0.1264   -4.9316 H   0  0  0  0  0  0  0  0  0  0  0  0
    6.9601    0.1657   -5.3521 H   0  0  0  0  0  0  0  0  0  0  0  0
    7.0285    1.9150   -4.9855 H   0  0  0  0  0  0  0  0  0  0  0  0
    6.1199    3.4201   -6.2885 H   0  0  0  0  0  0  0  0  0  0  0  0
    4.9445    2.9905   -7.5403 H   0  0  0  0  0  0  0  0  0  0  0  0
    8.0939    4.6714   -7.0912 H   0  0  0  0  0  0  0  0  0  0  0  0
    9.1635    4.4326  -11.2606 H   0  0  0  0  0  0  0  0  0  0  0  0
    7.3510    2.7227  -11.6229 H   0  0  0  0  0  0  0  0  0  0  0  0
    6.7537    0.0479   -9.6522 H   0  0  0  0  0  0  0  0  0  0  0  0
    4.9902   -0.0189   -9.4747 H   0  0  0  0  0  0  0  0  0  0  0  0
    4.9794    0.3385    0.5582 H   0  0  0  0  0  0  0  0  0  0  0  0
    3.9628    0.5798   -0.8740 H   0  0  0  0  0  0  0  0  0  0  0  0
  1  2  1  0
  1 26  1  0
  1 27  1  0
  1 28  1  0
  2  3  1  0
  2 24  1  0
  3  4  1  0
  3 29  1  0
  3 30  1  0
  4  5  1  0
  4 23  1  0
  4 31  1  6
  5  6  2  0
  5  7  1  0
  7  8  1  0
  7 32  1  0
  8  9  1  0
  8 33  1  0
  8 34  1  0
  9 10  1  0
  9 35  1  0
  9 36  1  0
 10 11  1  0
 10 21  1  0
 11 12  1  0
 11 37  1  0
 11 38  1  0
 12 13  1  0
 12 18  2  0
 13 14  2  0
 13 39  1  0
 14 15  1  0
 14 16  1  0
 16 17  2  0
 16 40  1  0
 17 18  1  0
 17 41  1  0
 18 19  1  0
 19 20  1  0
 20 21  1  0
 20 42  1  0
 20 43  1  0
 21 22  2  0
 23 24  1  0
 23 44  1  0
 23 45  1  0
 24 25  2  0
M  END

