
     RDKit          3D

 53 55  0  0  0  0  0  0  0  0999 V2000
    0.7770    0.1866    0.0655 C   0  0  0  0  0  0  0  0  0  0  0  0
    2.3060    0.0672    0.0564 C   0  0  1  0  0  0  0  0  0  0  0  0
    2.8060   -1.3402   -0.3321 C   0  0  0  0  0  0  0  0  0  0  0  0
    2.6514   -1.6279   -1.8348 C   0  0  0  0  0  0  0  0  0  0  0  0
    3.2405   -0.5267   -2.7397 C   0  0  2  0  0  0  0  0  0  0  0  0
    4.7687   -0.5021   -2.8807 C   0  0  0  0  0  0  0  0  0  0  0  0
    5.6201   -1.4665   -2.3224 C   0  0  0  0  0  0  0  0  0  0  0  0
    7.0061   -1.4040   -2.5147 C   0  0  0  0  0  0  0  0  0  0  0  0
    7.5661   -0.3762   -3.2740 C   0  0  0  0  0  0  0  0  0  0  0  0
    6.7272    0.5857   -3.8485 C   0  0  0  0  0  0  0  0  0  0  0  0
    5.3469    0.5212   -3.6552 C   0  0  0  0  0  0  0  0  0  0  0  0
    2.7152    0.7739   -2.2887 N   0  0  0  0  0  0  0  0  0  0  0  0
    2.0809    1.5905   -3.2092 C   0  0  0  0  0  0  0  0  0  0  0  0
    2.0976    1.3503   -4.4130 O   0  0  0  0  0  0  0  0  0  0  0  0
    1.4364    2.7086   -2.7083 N   0  0  0  0  0  0  0  0  0  0  0  0
    0.6300    3.5482   -3.6044 C   0  0  1  0  0  0  0  0  0  0  0  0
   -0.3204    4.4248   -2.7748 C   0  0  0  0  0  0  0  0  0  0  0  0
    0.4001    5.5315   -1.9875 C   0  0  0  0  0  0  0  0  0  0  0  0
    1.3013    6.3954   -2.8861 C   0  0  2  0  0  0  0  0  0  0  0  0
    0.4656    7.3433   -3.7592 C   0  0  0  0  0  0  0  0  0  0  0  0
   -0.7230    7.4900   -3.6608 O   0  0  0  0  0  0  0  0  0  0  0  0
    1.1604    8.0696   -4.6655 O   0  0  0  0  0  0  0  0  0  0  0  0
    2.2644    5.5007   -3.7008 C   0  0  0  0  0  0  0  0  0  0  0  0
    1.5197    4.4294   -4.5029 C   0  0  0  0  0  0  0  0  0  0  0  0
    2.9659    1.0900   -0.8875 C   0  0  0  0  0  0  0  0  0  0  0  0
    0.3235   -0.5647    0.7317 H   0  0  0  0  0  0  0  0  0  0  0  0
    0.3463    0.0429   -0.9381 H   0  0  0  0  0  0  0  0  0  0  0  0
    0.4584    1.1790    0.4273 H   0  0  0  0  0  0  0  0  0  0  0  0
    2.6683    0.2863    1.0767 H   0  0  0  0  0  0  0  0  0  0  0  0
    2.2709   -2.1076    0.2525 H   0  0  0  0  0  0  0  0  0  0  0  0
    3.8680   -1.4193   -0.0463 H   0  0  0  0  0  0  0  0  0  0  0  0
    1.5809   -1.7127   -2.0832 H   0  0  0  0  0  0  0  0  0  0  0  0
    3.0946   -2.6038   -2.0870 H   0  0  0  0  0  0  0  0  0  0  0  0
    2.8397   -0.6584   -3.7543 H   0  0  0  0  0  0  0  0  0  0  0  0
    5.2124   -2.2884   -1.7317 H   0  0  0  0  0  0  0  0  0  0  0  0
    7.6476   -2.1669   -2.0655 H   0  0  0  0  0  0  0  0  0  0  0  0
    8.6476   -0.3268   -3.4243 H   0  0  0  0  0  0  0  0  0  0  0  0
    7.1514    1.3869   -4.4597 H   0  0  0  0  0  0  0  0  0  0  0  0
    4.6940    1.2570   -4.1300 H   0  0  0  0  0  0  0  0  0  0  0  0
    1.1277    2.6734   -1.7451 H   0  0  0  0  0  0  0  0  0  0  0  0
    0.0391    2.8882   -4.2617 H   0  0  0  0  0  0  0  0  0  0  0  0
   -0.9130    3.7940   -2.0888 H   0  0  0  0  0  0  0  0  0  0  0  0
   -1.0420    4.8941   -3.4605 H   0  0  0  0  0  0  0  0  0  0  0  0
    1.0301    5.0908   -1.1959 H   0  0  0  0  0  0  0  0  0  0  0  0
   -0.3428    6.1704   -1.4884 H   0  0  0  0  0  0  0  0  0  0  0  0
    1.9071    7.0628   -2.2437 H   0  0  0  0  0  0  0  0  0  0  0  0
    2.0995    7.8379   -4.6349 H   0  0  0  0  0  0  0  0  0  0  0  0
    2.9535    5.0104   -2.9940 H   0  0  0  0  0  0  0  0  0  0  0  0
    2.9104    6.0968   -4.3707 H   0  0  0  0  0  0  0  0  0  0  0  0
    2.2238    3.7850   -5.0477 H   0  0  0  0  0  0  0  0  0  0  0  0
    0.8745    4.9063   -5.2620 H   0  0  0  0  0  0  0  0  0  0  0  0
    2.6341    2.1130   -0.6665 H   0  0  0  0  0  0  0  0  0  0  0  0
    4.0589    1.0823   -0.7169 H   0  0  0  0  0  0  0  0  0  0  0  0
  1  2  1  0
  1 26  1  0
  1 27  1  0
  1 28  1  0
  2  3  1  0
  2 25  1  0
  2 29  1  1
  3  4  1  0
  3 30  1  0
  3 31  1  0
  4  5  1  0
  4 32  1  0
  4 33  1  0
  5  6  1  0
  5 12  1  0
  5 34  1  6
  6  7  2  0
  6 11  1  0
  7  8  1  0
  7 35  1  0
  8  9  2  0
  8 36  1  0
  9 10  1  0
  9 37  1  0
 10 11  2  0
 10 38  1  0
 11 39  1  0
 12 13  1  0
 12 25  1  0
 13 14  2  0
 13 15  1  0
 15 16  1  0
 15 40  1  0
 16 17  1  0
 16 24  1  0
 16 41  1  6
 17 18  1  0
 17 42  1  0
 17 43  1  0
 18 19  1  0
 18 44  1  0
 18 45  1  0
 19 20  1  0
 19 23  1  0
 19 46  1  1
 20 21  2  0
 20 22  1  0
 22 47  1  0
 23 24  1  0
 23 48  1  0
 23 49  1  0
 24 50  1  0
 24 51  1  0
 25 52  1  0
 25 53  1  0
M  END

