
     RDKit          3D

 44 44  0  0  0  0  0  0  0  0999 V2000
    3.4675    0.4035    1.1602 C   0  0  0  0  0  0  0  0  0  0  0  0
    2.6598    0.1667   -0.1198 C   0  0  0  0  0  0  0  0  0  0  0  0
    3.1972   -0.8998   -1.1138 C   0  0  1  0  0  0  0  0  0  0  0  0
    3.4505   -2.2673   -0.4119 C   0  0  0  0  0  0  0  0  0  0  0  0
    2.2788   -2.9117    0.3358 C   0  0  0  0  0  0  0  0  0  0  0  0
    2.1428   -1.1631   -2.2002 C   0  0  0  0  0  0  0  0  0  0  0  0
    1.5684    0.4148   -3.2646 Br  0  0  0  0  0  0  0  0  0  0  0  0
    4.5458   -0.3914   -1.7084 C   0  0  0  0  0  0  0  0  0  0  0  0
    5.2383   -1.2848   -2.6441 N   0  0  0  0  0  0  0  0  0  0  0  0
    4.9868   -0.9724   -4.0446 C   0  0  0  0  0  0  0  0  0  0  0  0
    6.6820   -1.3742   -2.4032 C   0  0  0  0  0  0  0  0  0  0  0  0
    7.0786   -2.0761   -1.1195 C   0  0  0  0  0  0  0  0  0  0  0  0
    7.7393   -1.3908   -0.0902 C   0  0  0  0  0  0  0  0  0  0  0  0
    8.1177   -2.0618    1.0765 C   0  0  0  0  0  0  0  0  0  0  0  0
    7.8414   -3.4224    1.2251 C   0  0  0  0  0  0  0  0  0  0  0  0
    7.1833   -4.1350    0.2090 C   0  0  0  0  0  0  0  0  0  0  0  0
    6.8691   -5.6046    0.3604 C   0  0  0  0  0  0  0  0  0  0  0  0
    6.8122   -3.4428   -0.9524 C   0  0  0  0  0  0  0  0  0  0  0  0
    2.9915    1.1929    1.7636 H   0  0  0  0  0  0  0  0  0  0  0  0
    4.4979    0.7338    0.9560 H   0  0  0  0  0  0  0  0  0  0  0  0
    3.5294   -0.4960    1.7925 H   0  0  0  0  0  0  0  0  0  0  0  0
    2.5628    1.1202   -0.6640 H   0  0  0  0  0  0  0  0  0  0  0  0
    1.6287   -0.1102    0.1602 H   0  0  0  0  0  0  0  0  0  0  0  0
    4.2870   -2.1290    0.2916 H   0  0  0  0  0  0  0  0  0  0  0  0
    3.8329   -2.9633   -1.1741 H   0  0  0  0  0  0  0  0  0  0  0  0
    1.8824   -2.2666    1.1360 H   0  0  0  0  0  0  0  0  0  0  0  0
    2.6081   -3.8497    0.8110 H   0  0  0  0  0  0  0  0  0  0  0  0
    1.4376   -3.1702   -0.3270 H   0  0  0  0  0  0  0  0  0  0  0  0
    1.2062   -1.5302   -1.7669 H   0  0  0  0  0  0  0  0  0  0  0  0
    2.5023   -1.8890   -2.9391 H   0  0  0  0  0  0  0  0  0  0  0  0
    5.2123   -0.2159   -0.8529 H   0  0  0  0  0  0  0  0  0  0  0  0
    4.3724    0.6008   -2.1723 H   0  0  0  0  0  0  0  0  0  0  0  0
    3.9123   -0.8938   -4.2505 H   0  0  0  0  0  0  0  0  0  0  0  0
    5.3989   -1.7664   -4.6883 H   0  0  0  0  0  0  0  0  0  0  0  0
    5.4467   -0.0082   -4.3608 H   0  0  0  0  0  0  0  0  0  0  0  0
    7.1621   -0.3695   -2.4310 H   0  0  0  0  0  0  0  0  0  0  0  0
    7.1117   -1.9366   -3.2490 H   0  0  0  0  0  0  0  0  0  0  0  0
    7.9648   -0.3269   -0.2067 H   0  0  0  0  0  0  0  0  0  0  0  0
    8.6347   -1.5208    1.8736 H   0  0  0  0  0  0  0  0  0  0  0  0
    8.1442   -3.9421    2.1387 H   0  0  0  0  0  0  0  0  0  0  0  0
    7.3933   -6.0450    1.2216 H   0  0  0  0  0  0  0  0  0  0  0  0
    7.1564   -6.1729   -0.5390 H   0  0  0  0  0  0  0  0  0  0  0  0
    5.7879   -5.7680    0.5110 H   0  0  0  0  0  0  0  0  0  0  0  0
    6.2999   -3.9800   -1.7567 H   0  0  0  0  0  0  0  0  0  0  0  0
  1  2  1  0
  1 19  1  0
  1 20  1  0
  1 21  1  0
  3  2  1  1
  2 22  1  0
  2 23  1  0
  3  4  1  0
  3  6  1  0
  3  8  1  0
  4  5  1  0
  4 24  1  0
  4 25  1  0
  5 26  1  0
  5 27  1  0
  5 28  1  0
  6  7  1  0
  6 29  1  0
  6 30  1  0
  8  9  1  0
  8 31  1  0
  8 32  1  0
  9 10  1  0
  9 11  1  0
 10 33  1  0
 10 34  1  0
 10 35  1  0
 11 12  1  0
 11 36  1  0
 11 37  1  0
 12 13  2  0
 12 18  1  0
 13 14  1  0
 13 38  1  0
 14 15  2  0
 14 39  1  0
 15 16  1  0
 15 40  1  0
 16 17  1  0
 16 18  2  0
 17 41  1  0
 17 42  1  0
 17 43  1  0
 18 44  1  0
M  END

