
     RDKit          3D

 53 55  0  0  0  0  0  0  0  0999 V2000
    0.6857    0.7070   -0.9281 O   0  0  0  0  0  0  0  0  0  0  0  0
    1.8911    0.6873   -1.1336 C   0  0  0  0  0  0  0  0  0  0  0  0
    2.5605   -0.4349   -1.9242 C   0  0  0  0  0  0  0  0  0  0  0  0
    1.8720   -1.7823   -1.6840 C   0  0  0  0  0  0  0  0  0  0  0  0
    2.3104   -2.8101   -2.6207 N   0  0  0  0  0  0  0  0  0  0  0  0
    3.6139   -3.4093   -2.3445 C   0  0  0  0  0  0  0  0  0  0  0  0
    3.5690   -4.5074   -1.2703 C   0  0  0  0  0  0  0  0  0  0  0  0
    2.5622   -5.5100   -1.6160 N   0  0  0  0  0  0  0  0  0  0  0  0
    2.9003   -6.8365   -1.5817 C   0  0  0  0  0  0  0  0  0  0  0  0
    4.0303   -7.2154   -1.3016 O   0  0  0  0  0  0  0  0  0  0  0  0
    1.7877   -7.8499   -1.9370 C   0  0  1  0  0  0  0  0  0  0  0  0
    2.2635   -9.3104   -1.8610 C   0  0  0  0  0  0  0  0  0  0  0  0
    1.0814  -10.0285   -1.1951 C   0  0  0  0  0  0  0  0  0  0  0  0
    0.5383   -8.9327   -0.2806 C   0  0  0  0  0  0  0  0  0  0  0  0
    0.6884   -7.7259   -1.0222 O   0  0  0  0  0  0  0  0  0  0  0  0
    1.2349   -4.9527   -1.8707 C   0  0  0  0  0  0  0  0  0  0  0  0
    1.3310   -3.8439   -2.9325 C   0  0  0  0  0  0  0  0  0  0  0  0
    2.7241    1.6780   -0.7030 N   0  0  0  0  0  0  0  0  0  0  0  0
    2.2451    2.8496    0.0178 C   0  0  1  0  0  0  0  0  0  0  0  0
    2.1943    2.6240    1.5444 C   0  0  0  0  0  0  0  0  0  0  0  0
    3.5693    2.3983    2.1872 C   0  0  0  0  0  0  0  0  0  0  0  0
    4.5464    3.5513    1.9467 C   0  0  0  0  0  0  0  0  0  0  0  0
    4.8544    3.8745    0.1643 S   0  0  0  0  0  0  0  0  0  0  0  0
    3.1014    4.0696   -0.3458 C   0  0  0  0  0  0  0  0  0  0  0  0
    3.6383   -0.4781   -1.6959 H   0  0  0  0  0  0  0  0  0  0  0  0
    2.4739   -0.1914   -2.9975 H   0  0  0  0  0  0  0  0  0  0  0  0
    0.7932   -1.6190   -1.8202 H   0  0  0  0  0  0  0  0  0  0  0  0
    2.0000   -2.0678   -0.6169 H   0  0  0  0  0  0  0  0  0  0  0  0
    4.3273   -2.6261   -2.0440 H   0  0  0  0  0  0  0  0  0  0  0  0
    4.0009   -3.8520   -3.2802 H   0  0  0  0  0  0  0  0  0  0  0  0
    3.3226   -4.0697   -0.2836 H   0  0  0  0  0  0  0  0  0  0  0  0
    4.5349   -5.0194   -1.1775 H   0  0  0  0  0  0  0  0  0  0  0  0
    1.4101   -7.6093   -2.9482 H   0  0  0  0  0  0  0  0  0  0  0  0
    3.1695   -9.3584   -1.2403 H   0  0  0  0  0  0  0  0  0  0  0  0
    2.5185   -9.7148   -2.8511 H   0  0  0  0  0  0  0  0  0  0  0  0
    1.3789  -10.9374   -0.6505 H   0  0  0  0  0  0  0  0  0  0  0  0
    0.3189  -10.3117   -1.9396 H   0  0  0  0  0  0  0  0  0  0  0  0
    1.1143   -8.8838    0.6651 H   0  0  0  0  0  0  0  0  0  0  0  0
   -0.5273   -9.0457   -0.0261 H   0  0  0  0  0  0  0  0  0  0  0  0
    0.8291   -4.5407   -0.9270 H   0  0  0  0  0  0  0  0  0  0  0  0
    0.5383   -5.7370   -2.1849 H   0  0  0  0  0  0  0  0  0  0  0  0
    0.3431   -3.3780   -3.0740 H   0  0  0  0  0  0  0  0  0  0  0  0
    1.6145   -4.3118   -3.8940 H   0  0  0  0  0  0  0  0  0  0  0  0
    3.7256    1.6074   -0.8550 H   0  0  0  0  0  0  0  0  0  0  0  0
    1.2141    3.0248   -0.3284 H   0  0  0  0  0  0  0  0  0  0  0  0
    1.5356    1.7643    1.7427 H   0  0  0  0  0  0  0  0  0  0  0  0
    1.7103    3.5039    2.0060 H   0  0  0  0  0  0  0  0  0  0  0  0
    4.0102    1.4632    1.8021 H   0  0  0  0  0  0  0  0  0  0  0  0
    3.4454    2.2596    3.2756 H   0  0  0  0  0  0  0  0  0  0  0  0
    5.5350    3.3384    2.3812 H   0  0  0  0  0  0  0  0  0  0  0  0
    4.1771    4.4828    2.4095 H   0  0  0  0  0  0  0  0  0  0  0  0
    3.1168    4.2283   -1.4345 H   0  0  0  0  0  0  0  0  0  0  0  0
    2.6857    4.9760    0.1232 H   0  0  0  0  0  0  0  0  0  0  0  0
  1  2  2  0
  2  3  1  0
  2 18  1  0
  3  4  1  0
  3 25  1  0
  3 26  1  0
  4  5  1  0
  4 27  1  0
  4 28  1  0
  5  6  1  0
  5 17  1  0
  6  7  1  0
  6 29  1  0
  6 30  1  0
  7  8  1  0
  7 31  1  0
  7 32  1  0
  8  9  1  0
  8 16  1  0
  9 10  2  0
  9 11  1  0
 11 12  1  0
 11 15  1  0
 11 33  1  6
 12 13  1  0
 12 34  1  0
 12 35  1  0
 13 14  1  0
 13 36  1  0
 13 37  1  0
 14 15  1  0
 14 38  1  0
 14 39  1  0
 16 17  1  0
 16 40  1  0
 16 41  1  0
 17 42  1  0
 17 43  1  0
 18 19  1  0
 18 44  1  0
 19 20  1  0
 19 24  1  0
 19 45  1  6
 20 21  1  0
 20 46  1  0
 20 47  1  0
 21 22  1  0
 21 48  1  0
 21 49  1  0
 22 23  1  0
 22 50  1  0
 22 51  1  0
 23 24  1  0
 24 52  1  0
 24 53  1  0
M  END

