
     RDKit          3D

 41 43  0  0  0  0  0  0  0  0999 V2000
    4.6550   -2.7732    7.1868 C   0  0  0  0  0  0  0  0  0  0  0  0
    5.8070   -3.1584    6.3300 C   0  0  0  0  0  0  0  0  0  0  0  0
    6.8772   -4.0000    6.5058 C   0  0  0  0  0  0  0  0  0  0  0  0
    7.6483   -3.9446    5.3052 C   0  0  0  0  0  0  0  0  0  0  0  0
    6.9936   -3.0689    4.4724 C   0  0  0  0  0  0  0  0  0  0  0  0
    7.2702   -2.5924    3.1370 C   0  0  0  0  0  0  0  0  0  0  0  0
    8.2847   -2.9681    2.4038 N   0  0  0  0  0  0  0  0  0  0  0  0
    8.2945   -2.3442    1.1823 C   0  0  0  0  0  0  0  0  0  0  0  0
    9.3325   -2.4908    0.0964 C   0  0  0  0  0  0  0  0  0  0  0  0
    9.2752   -1.7060   -0.8454 O   0  0  0  0  0  0  0  0  0  0  0  0
   10.3150   -3.4503    0.1710 N   0  0  0  0  0  0  0  0  0  0  0  0
   10.3537   -4.6226    1.0404 C   0  0  0  0  0  0  0  0  0  0  0  0
   10.0936   -5.9142    0.2421 C   0  0  2  0  0  0  0  0  0  0  0  0
   10.1715   -7.1478    1.1437 C   0  0  0  0  0  0  0  0  0  0  0  0
   11.0649   -6.0132   -0.9451 C   0  0  0  0  0  0  0  0  0  0  0  0
   11.0805   -4.7218   -1.7964 C   0  0  2  0  0  0  0  0  0  0  0  0
   12.1515   -4.8088   -2.8801 C   0  0  0  0  0  0  0  0  0  0  0  0
   13.1941   -4.2142   -2.8533 O   0  0  0  0  0  0  0  0  0  0  0  0
   11.8767   -5.6581   -3.9000 O   0  0  0  0  0  0  0  0  0  0  0  0
   11.3031   -3.4925   -0.9033 C   0  0  0  0  0  0  0  0  0  0  0  0
    7.2531   -1.4631    0.9775 C   0  0  0  0  0  0  0  0  0  0  0  0
    6.2224   -1.4109    2.3517 S   0  0  0  0  0  0  0  0  0  0  0  0
    5.8764   -2.5917    5.0944 O   0  0  0  0  0  0  0  0  0  0  0  0
    4.7130   -3.2935    8.1525 H   0  0  0  0  0  0  0  0  0  0  0  0
    3.6955   -3.0329    6.7088 H   0  0  0  0  0  0  0  0  0  0  0  0
    4.6431   -1.6868    7.3772 H   0  0  0  0  0  0  0  0  0  0  0  0
    7.0867   -4.5894    7.3959 H   0  0  0  0  0  0  0  0  0  0  0  0
    8.5700   -4.4723    5.0741 H   0  0  0  0  0  0  0  0  0  0  0  0
    9.6284   -4.5052    1.8502 H   0  0  0  0  0  0  0  0  0  0  0  0
   11.3586   -4.6794    1.5015 H   0  0  0  0  0  0  0  0  0  0  0  0
    9.0667   -5.8389   -0.1628 H   0  0  0  0  0  0  0  0  0  0  0  0
   11.1752   -7.2516    1.5899 H   0  0  0  0  0  0  0  0  0  0  0  0
    9.9626   -8.0703    0.5785 H   0  0  0  0  0  0  0  0  0  0  0  0
    9.4430   -7.0869    1.9680 H   0  0  0  0  0  0  0  0  0  0  0  0
   10.8128   -6.8896   -1.5673 H   0  0  0  0  0  0  0  0  0  0  0  0
   12.0868   -6.1908   -0.5619 H   0  0  0  0  0  0  0  0  0  0  0  0
   10.0966   -4.6112   -2.2903 H   0  0  0  0  0  0  0  0  0  0  0  0
   10.9895   -6.0312   -3.7994 H   0  0  0  0  0  0  0  0  0  0  0  0
   11.2264   -2.5686   -1.4851 H   0  0  0  0  0  0  0  0  0  0  0  0
   12.3142   -3.5457   -0.4664 H   0  0  0  0  0  0  0  0  0  0  0  0
    7.0869   -0.8575    0.0902 H   0  0  0  0  0  0  0  0  0  0  0  0
  1  2  1  0
  1 24  1  0
  1 25  1  0
  1 26  1  0
  2  3  2  0
  2 23  1  0
  3  4  1  0
  3 27  1  0
  4  5  2  0
  4 28  1  0
  5  6  1  0
  5 23  1  0
  6  7  2  0
  6 22  1  0
  7  8  1  0
  8  9  1  0
  8 21  2  0
  9 10  2  0
  9 11  1  0
 11 12  1  0
 11 20  1  0
 12 13  1  0
 12 29  1  0
 12 30  1  0
 13 14  1  0
 13 15  1  0
 13 31  1  6
 14 32  1  0
 14 33  1  0
 14 34  1  0
 15 16  1  0
 15 35  1  0
 15 36  1  0
 16 17  1  0
 16 20  1  0
 16 37  1  6
 17 18  2  0
 17 19  1  0
 19 38  1  0
 20 39  1  0
 20 40  1  0
 21 22  1  0
 21 41  1  0
M  END

