
     RDKit          3D

 89 91  0  0  0  0  0  0  0  0999 V2000
   14.0848   -9.8662    2.9728 C   0  0  0  0  0  0  0  0  0  0  0  0
   13.0196   -8.7971    2.9974 C   0  0  0  0  0  0  0  0  0  0  0  0
   12.9545   -7.8489    4.0262 C   0  0  0  0  0  0  0  0  0  0  0  0
   11.9609   -6.8632    4.0396 C   0  0  0  0  0  0  0  0  0  0  0  0
   10.9979   -6.7974    3.0267 C   0  0  0  0  0  0  0  0  0  0  0  0
    9.9152   -5.7368    3.0415 C   0  0  0  0  0  0  0  0  0  0  0  0
    9.9348   -4.8884    1.8606 N   0  0  0  0  0  0  0  0  0  0  0  0
    8.8579   -4.7127    1.0516 C   0  0  0  0  0  0  0  0  0  0  0  0
    7.7763   -5.2519    1.2377 O   0  0  0  0  0  0  0  0  0  0  0  0
    9.0631   -3.7381   -0.1264 C   0  0  2  0  0  0  0  0  0  0  0  0
    8.6743   -2.7640    0.2151 H   0  0  0  0  0  0  0  0  0  0  0  0
    8.2930   -4.1831   -1.3876 C   0  0  0  0  0  0  0  0  0  0  0  0
    6.7739   -3.9326   -1.3578 C   0  0  0  0  0  0  0  0  0  0  0  0
    6.1269   -4.3164   -2.6687 C   0  0  0  0  0  0  0  0  0  0  0  0
    5.2710   -5.4247   -2.7674 C   0  0  0  0  0  0  0  0  0  0  0  0
    4.7259   -5.8013   -3.9933 C   0  0  0  0  0  0  0  0  0  0  0  0
    5.0421   -5.1047   -5.1801 C   0  0  0  0  0  0  0  0  0  0  0  0
    4.4779   -5.5967   -6.4274 C   0  0  0  0  0  0  0  0  0  0  0  0
    4.8167   -5.3537   -7.7247 C   0  0  0  0  0  0  0  0  0  0  0  0
    5.9168   -4.5397   -8.1311 C   0  0  0  0  0  0  0  0  0  0  0  0
    6.8114   -3.9098   -8.5291 N   0  0  0  0  0  0  0  0  0  0  0  0
    3.9920   -6.0523   -8.7999 C   0  0  0  0  0  0  0  0  0  0  0  0
    3.0774   -6.8014   -8.4859 O   0  0  0  0  0  0  0  0  0  0  0  0
    4.3519   -5.7743  -10.0793 N   0  0  0  0  0  0  0  0  0  0  0  0
    3.7083   -6.3225  -11.2959 C   0  0  1  0  0  0  0  0  0  0  0  0
    2.2275   -5.9022  -11.3432 C   0  0  0  0  0  0  0  0  0  0  0  0
    4.4626   -5.7208  -12.4910 C   0  0  0  0  0  0  0  0  0  0  0  0
    3.8357   -7.8571  -11.3128 C   0  0  0  0  0  0  0  0  0  0  0  0
    5.8831   -3.9736   -5.0745 C   0  0  0  0  0  0  0  0  0  0  0  0
    6.4007   -3.5896   -3.8436 C   0  0  0  0  0  0  0  0  0  0  0  0
   10.4710   -3.5109   -0.4463 N   0  0  0  0  0  0  0  0  0  0  0  0
   11.0007   -2.2545   -0.5023 C   0  0  0  0  0  0  0  0  0  0  0  0
   10.4548   -1.2636   -0.0294 O   0  0  0  0  0  0  0  0  0  0  0  0
   12.3419   -2.1638   -1.2670 C   0  0  1  0  0  0  0  0  0  0  0  0
   12.9519   -3.0478   -1.0215 H   0  0  0  0  0  0  0  0  0  0  0  0
   12.0651   -2.1885   -2.6960 N   0  0  0  0  0  0  0  0  0  0  0  0
   11.8072   -3.3317   -3.3735 C   0  0  0  0  0  0  0  0  0  0  0  0
   11.8201   -4.4483   -2.8556 O   0  0  0  0  0  0  0  0  0  0  0  0
   11.4640   -3.1519   -4.8165 C   0  0  0  0  0  0  0  0  0  0  0  0
   11.1515   -4.1726   -5.7575 C   0  0  0  0  0  0  0  0  0  0  0  0
   10.8625   -3.4772   -6.9006 C   0  0  0  0  0  0  0  0  0  0  0  0
   10.4249   -3.8675   -8.2670 C   0  0  0  0  0  0  0  0  0  0  0  0
   10.9997   -2.1536   -6.6522 O   0  0  0  0  0  0  0  0  0  0  0  0
   11.3743   -1.9528   -5.3510 N   0  0  0  0  0  0  0  0  0  0  0  0
   13.0935   -0.8661   -0.9041 C   0  0  1  0  0  0  0  0  0  0  0  0
   13.1839   -0.8503    0.2002 H   0  0  0  0  0  0  0  0  0  0  0  0
   14.4872   -0.7993   -1.5120 C   0  0  0  0  0  0  0  0  0  0  0  0
   12.3521    0.2473   -1.3592 O   0  0  0  0  0  0  0  0  0  0  0  0
   11.0592   -7.7474    1.9927 C   0  0  0  0  0  0  0  0  0  0  0  0
   12.0509   -8.7258    1.9793 C   0  0  0  0  0  0  0  0  0  0  0  0
   14.7848   -9.7604    3.8147 H   0  0  0  0  0  0  0  0  0  0  0  0
   14.6709   -9.8278    2.0394 H   0  0  0  0  0  0  0  0  0  0  0  0
   13.6407  -10.8745    3.0303 H   0  0  0  0  0  0  0  0  0  0  0  0
   13.6942   -7.8767    4.8315 H   0  0  0  0  0  0  0  0  0  0  0  0
   11.9364   -6.1349    4.8559 H   0  0  0  0  0  0  0  0  0  0  0  0
   10.0148   -5.1210    3.9523 H   0  0  0  0  0  0  0  0  0  0  0  0
    8.9140   -6.1935    3.0646 H   0  0  0  0  0  0  0  0  0  0  0  0
   10.7978   -4.4236    1.6024 H   0  0  0  0  0  0  0  0  0  0  0  0
    8.4865   -5.2514   -1.5818 H   0  0  0  0  0  0  0  0  0  0  0  0
    8.7238   -3.6321   -2.2384 H   0  0  0  0  0  0  0  0  0  0  0  0
    6.5961   -2.8601   -1.1602 H   0  0  0  0  0  0  0  0  0  0  0  0
    6.3321   -4.4955   -0.5255 H   0  0  0  0  0  0  0  0  0  0  0  0
    5.0299   -5.9978   -1.8683 H   0  0  0  0  0  0  0  0  0  0  0  0
    4.0570   -6.6645   -4.0458 H   0  0  0  0  0  0  0  0  0  0  0  0
    3.6511   -6.3106   -6.3379 H   0  0  0  0  0  0  0  0  0  0  0  0
    5.1240   -5.1321  -10.2215 H   0  0  0  0  0  0  0  0  0  0  0  0
    2.1355   -4.8043  -11.3446 H   0  0  0  0  0  0  0  0  0  0  0  0
    1.6859   -6.2972  -10.4733 H   0  0  0  0  0  0  0  0  0  0  0  0
    1.7527   -6.2882  -12.2590 H   0  0  0  0  0  0  0  0  0  0  0  0
    4.3915   -4.6206  -12.4950 H   0  0  0  0  0  0  0  0  0  0  0  0
    4.0341   -6.0889  -13.4348 H   0  0  0  0  0  0  0  0  0  0  0  0
    5.5286   -6.0016  -12.4724 H   0  0  0  0  0  0  0  0  0  0  0  0
    3.3303   -8.2962  -10.4423 H   0  0  0  0  0  0  0  0  0  0  0  0
    4.8951   -8.1588  -11.2926 H   0  0  0  0  0  0  0  0  0  0  0  0
    3.3793   -8.2653  -12.2283 H   0  0  0  0  0  0  0  0  0  0  0  0
    6.1229   -3.3806   -5.9571 H   0  0  0  0  0  0  0  0  0  0  0  0
    7.0385   -2.7026   -3.7915 H   0  0  0  0  0  0  0  0  0  0  0  0
   10.9339   -4.2031   -1.0440 H   0  0  0  0  0  0  0  0  0  0  0  0
   11.9372   -1.2880   -3.1568 H   0  0  0  0  0  0  0  0  0  0  0  0
   11.1411   -5.2450   -5.5895 H   0  0  0  0  0  0  0  0  0  0  0  0
   10.6060   -4.9388   -8.4288 H   0  0  0  0  0  0  0  0  0  0  0  0
   10.9749   -3.2933   -9.0282 H   0  0  0  0  0  0  0  0  0  0  0  0
    9.3472   -3.6766   -8.4073 H   0  0  0  0  0  0  0  0  0  0  0  0
   15.1208   -1.6204   -1.1426 H   0  0  0  0  0  0  0  0  0  0  0  0
   14.9575    0.1576   -1.2428 H   0  0  0  0  0  0  0  0  0  0  0  0
   14.4424   -0.8597   -2.6100 H   0  0  0  0  0  0  0  0  0  0  0  0
   11.5054    0.2044   -0.8783 H   0  0  0  0  0  0  0  0  0  0  0  0
   10.3161   -7.7186    1.1906 H   0  0  0  0  0  0  0  0  0  0  0  0
   12.0746   -9.4550    1.1637 H   0  0  0  0  0  0  0  0  0  0  0  0
  1  2  1  0
  1 51  1  0
  1 52  1  0
  1 53  1  0
  2  3  2  0
  2 50  1  0
  3  4  1  0
  3 54  1  0
  4  5  2  0
  4 55  1  0
  5  6  1  0
  5 49  1  0
  6  7  1  0
  6 56  1  0
  6 57  1  0
  7  8  1  0
  7 58  1  0
  8  9  2  0
  8 10  1  0
 10 11  1  1
 10 12  1  0
 10 31  1  0
 12 13  1  0
 12 59  1  0
 12 60  1  0
 13 14  1  0
 13 61  1  0
 13 62  1  0
 14 15  2  0
 14 30  1  0
 15 16  1  0
 15 63  1  0
 16 17  2  0
 16 64  1  0
 17 18  1  0
 17 29  1  0
 18 19  2  0
 18 65  1  0
 19 20  1  0
 19 22  1  0
 20 21  3  0
 22 23  2  0
 22 24  1  0
 25 24  1  1
 24 66  1  0
 25 26  1  0
 25 27  1  0
 25 28  1  0
 26 67  1  0
 26 68  1  0
 26 69  1  0
 27 70  1  0
 27 71  1  0
 27 72  1  0
 28 73  1  0
 28 74  1  0
 28 75  1  0
 29 30  2  0
 29 76  1  0
 30 77  1  0
 31 32  1  0
 31 78  1  0
 32 33  2  0
 32 34  1  0
 34 35  1  1
 34 36  1  0
 34 45  1  0
 36 37  1  0
 36 79  1  0
 37 38  2  0
 37 39  1  0
 39 40  1  0
 39 44  2  0
 40 41  2  0
 40 80  1  0
 41 42  1  0
 41 43  1  0
 42 81  1  0
 42 82  1  0
 42 83  1  0
 43 44  1  0
 45 46  1  1
 45 47  1  0
 45 48  1  0
 47 84  1  0
 47 85  1  0
 47 86  1  0
 48 87  1  0
 49 50  2  0
 49 88  1  0
 50 89  1  0
M  END

