
     RDKit          3D

 58 61  0  0  0  0  0  0  0  0999 V2000
    1.4406    0.8255    6.8636 C   0  0  0  0  0  0  0  0  0  0  0  0
    2.7982    0.5092    6.5938 O   0  0  0  0  0  0  0  0  0  0  0  0
    3.1619   -0.4369    5.7016 C   0  0  0  0  0  0  0  0  0  0  0  0
    4.5451   -0.5768    5.4783 C   0  0  0  0  0  0  0  0  0  0  0  0
    5.0489   -1.5108    4.5818 C   0  0  0  0  0  0  0  0  0  0  0  0
    4.1880   -2.3760    3.8865 C   0  0  0  0  0  0  0  0  0  0  0  0
    4.7798   -3.2938    2.8478 C   0  0  0  0  0  0  0  0  0  0  0  0
    5.6756   -2.8796    2.1236 O   0  0  0  0  0  0  0  0  0  0  0  0
    4.2592   -4.5646    2.7168 N   0  0  0  0  0  0  0  0  0  0  0  0
    4.7119   -5.3907    1.5971 C   0  0  0  0  0  0  0  0  0  0  0  0
    5.5917   -6.5582    2.0590 C   0  0  0  0  0  0  0  0  0  0  0  0
    4.9135   -7.4031    3.1387 C   0  0  2  0  0  0  0  0  0  0  0  0
    4.4293   -6.4811    4.2687 C   0  0  0  0  0  0  0  0  0  0  0  0
    3.5683   -5.3152    3.7625 C   0  0  0  0  0  0  0  0  0  0  0  0
    5.6948   -8.6268    3.6842 C   0  0  0  0  0  0  0  0  0  0  0  0
    4.4640   -9.4077    3.6208 N   0  0  0  0  0  0  0  0  0  0  0  0
    4.4041  -10.8559    3.5261 C   0  0  1  0  0  0  0  0  0  0  0  0
    5.2302  -11.4734    4.6588 C   0  0  0  0  0  0  0  0  0  0  0  0
    2.9471  -11.3225    3.5856 C   0  0  0  0  0  0  0  0  0  0  0  0
    3.7861   -8.4494    2.7306 C   0  0  2  0  0  0  0  0  0  0  0  0
    3.6254   -8.8019    1.2616 C   0  0  0  0  0  0  0  0  0  0  0  0
    2.4104   -8.5123    0.6170 C   0  0  0  0  0  0  0  0  0  0  0  0
    2.2134   -8.8072   -0.7349 C   0  0  0  0  0  0  0  0  0  0  0  0
    3.2322   -9.4139   -1.4740 C   0  0  0  0  0  0  0  0  0  0  0  0
    4.4446   -9.7194   -0.8481 C   0  0  0  0  0  0  0  0  0  0  0  0
    4.6393   -9.4159    0.5022 C   0  0  0  0  0  0  0  0  0  0  0  0
    2.8089   -2.2409    4.0902 C   0  0  0  0  0  0  0  0  0  0  0  0
    2.3098   -1.2907    4.9756 C   0  0  0  0  0  0  0  0  0  0  0  0
    0.9679   -1.2072    5.1163 F   0  0  0  0  0  0  0  0  0  0  0  0
    1.4677    1.6470    7.5923 H   0  0  0  0  0  0  0  0  0  0  0  0
    0.8984   -0.0284    7.2989 H   0  0  0  0  0  0  0  0  0  0  0  0
    0.9107    1.1609    5.9582 H   0  0  0  0  0  0  0  0  0  0  0  0
    5.2070    0.0914    6.0330 H   0  0  0  0  0  0  0  0  0  0  0  0
    6.1228   -1.5755    4.3991 H   0  0  0  0  0  0  0  0  0  0  0  0
    5.2613   -4.7403    0.9068 H   0  0  0  0  0  0  0  0  0  0  0  0
    3.8212   -5.7829    1.0736 H   0  0  0  0  0  0  0  0  0  0  0  0
    6.5315   -6.1528    2.4745 H   0  0  0  0  0  0  0  0  0  0  0  0
    5.8673   -7.1695    1.1870 H   0  0  0  0  0  0  0  0  0  0  0  0
    5.3121   -6.0646    4.7860 H   0  0  0  0  0  0  0  0  0  0  0  0
    3.8645   -7.0669    5.0121 H   0  0  0  0  0  0  0  0  0  0  0  0
    3.3225   -4.6501    4.5976 H   0  0  0  0  0  0  0  0  0  0  0  0
    2.6123   -5.7005    3.3600 H   0  0  0  0  0  0  0  0  0  0  0  0
    6.1344   -8.5155    4.6925 H   0  0  0  0  0  0  0  0  0  0  0  0
    6.5019   -8.9604    2.9962 H   0  0  0  0  0  0  0  0  0  0  0  0
    4.8343  -11.2207    2.5650 H   0  0  0  0  0  0  0  0  0  0  0  0
    4.8353  -11.1618    5.6396 H   0  0  0  0  0  0  0  0  0  0  0  0
    6.2877  -11.1693    4.6052 H   0  0  0  0  0  0  0  0  0  0  0  0
    5.1988  -12.5727    4.6023 H   0  0  0  0  0  0  0  0  0  0  0  0
    2.4817  -11.0082    4.5342 H   0  0  0  0  0  0  0  0  0  0  0  0
    2.8897  -12.4201    3.5146 H   0  0  0  0  0  0  0  0  0  0  0  0
    2.3543  -10.9055    2.7571 H   0  0  0  0  0  0  0  0  0  0  0  0
    2.7847   -8.1640    3.1036 H   0  0  0  0  0  0  0  0  0  0  0  0
    1.6010   -8.0501    1.1902 H   0  0  0  0  0  0  0  0  0  0  0  0
    1.2585   -8.5675   -1.2100 H   0  0  0  0  0  0  0  0  0  0  0  0
    3.0820   -9.6511   -2.5302 H   0  0  0  0  0  0  0  0  0  0  0  0
    5.2474  -10.1977   -1.4154 H   0  0  0  0  0  0  0  0  0  0  0  0
    5.5955   -9.6633    0.9662 H   0  0  0  0  0  0  0  0  0  0  0  0
    2.0846   -2.8526    3.5488 H   0  0  0  0  0  0  0  0  0  0  0  0
  1  2  1  0
  1 30  1  0
  1 31  1  0
  1 32  1  0
  2  3  1  0
  3  4  2  0
  3 28  1  0
  4  5  1  0
  4 33  1  0
  5  6  2  0
  5 34  1  0
  6  7  1  0
  6 27  1  0
  7  8  2  0
  7  9  1  0
  9 10  1  0
  9 14  1  0
 10 11  1  0
 10 35  1  0
 10 36  1  0
 12 11  1  6
 11 37  1  0
 11 38  1  0
 12 13  1  0
 12 15  1  0
 12 20  1  0
 13 14  1  0
 13 39  1  0
 13 40  1  0
 14 41  1  0
 14 42  1  0
 15 16  1  0
 15 43  1  0
 15 44  1  0
 16 17  1  0
 16 20  1  0
 17 18  1  0
 17 19  1  0
 17 45  1  6
 18 46  1  0
 18 47  1  0
 18 48  1  0
 19 49  1  0
 19 50  1  0
 19 51  1  0
 20 21  1  0
 20 52  1  1
 21 22  2  0
 21 26  1  0
 22 23  1  0
 22 53  1  0
 23 24  2  0
 23 54  1  0
 24 25  1  0
 24 55  1  0
 25 26  2  0
 25 56  1  0
 26 57  1  0
 27 28  2  0
 27 58  1  0
 28 29  1  0
M  END

