
     RDKit          3D

 73 76  0  0  0  0  0  0  0  0999 V2000
    3.2893   -0.4088    3.0744 C   0  0  0  0  0  0  0  0  0  0  0  0
    4.6591   -0.7023    2.4943 C   0  0  0  0  0  0  0  0  0  0  0  0
    4.5392   -0.7387    1.0782 O   0  0  0  0  0  0  0  0  0  0  0  0
    5.6284   -0.9750    0.3128 C   0  0  0  0  0  0  0  0  0  0  0  0
    6.9193   -1.2126    0.8132 C   0  0  0  0  0  0  0  0  0  0  0  0
    7.9786   -1.4359   -0.0700 C   0  0  0  0  0  0  0  0  0  0  0  0
    7.7724   -1.4403   -1.4528 C   0  0  0  0  0  0  0  0  0  0  0  0
    8.8698   -1.6604   -2.3476 N   0  0  0  0  0  0  0  0  0  0  0  0
    9.2767   -0.6077   -3.2834 C   0  0  0  0  0  0  0  0  0  0  0  0
   10.3550    0.3475   -2.7308 C   0  0  0  0  0  0  0  0  0  0  0  0
   10.1680    1.5502   -2.7139 O   0  0  0  0  0  0  0  0  0  0  0  0
   11.4939   -0.2899   -2.3096 N   0  0  0  0  0  0  0  0  0  0  0  0
   12.6541    0.2631   -1.7534 C   0  0  0  0  0  0  0  0  0  0  0  0
   12.8280    1.6439   -1.5334 C   0  0  0  0  0  0  0  0  0  0  0  0
   14.0161    2.1110   -0.9716 C   0  0  0  0  0  0  0  0  0  0  0  0
   15.0320    1.2172   -0.6183 C   0  0  0  0  0  0  0  0  0  0  0  0
   16.5414    1.8279    0.1425 S   0  0  1  0  0  0  0  0  0  0  0  0
   17.5815    0.8302   -0.1237 O   0  0  0  0  0  0  0  0  0  0  0  0
   16.6814    3.2301   -0.2585 O   0  0  0  0  0  0  0  0  0  0  0  0
   16.3144    1.8354    1.7991 N   0  0  0  0  0  0  0  0  0  0  0  0
   15.6386    2.9461    2.4682 C   0  0  0  0  0  0  0  0  0  0  0  0
   14.3067    2.5063    3.0890 C   0  0  0  0  0  0  0  0  0  0  0  0
   14.4980    1.2735    3.9839 C   0  0  0  0  0  0  0  0  0  0  0  0
   15.1991    0.1398    3.2221 C   0  0  0  0  0  0  0  0  0  0  0  0
   16.5129    0.6276    2.5987 C   0  0  0  0  0  0  0  0  0  0  0  0
   14.8785   -0.1541   -0.8543 C   0  0  0  0  0  0  0  0  0  0  0  0
   13.6952   -0.6255   -1.4134 C   0  0  0  0  0  0  0  0  0  0  0  0
    9.4818   -3.2240   -2.5466 S   0  0  1  0  0  0  0  0  0  0  0  0
   10.8398   -3.0288   -3.0937 O   0  0  0  0  0  0  0  0  0  0  0  0
    9.2589   -3.9335   -1.2903 O   0  0  0  0  0  0  0  0  0  0  0  0
    8.5180   -4.0290   -3.8150 C   0  0  0  0  0  0  0  0  0  0  0  0
    8.9528   -4.0132   -5.1477 C   0  0  0  0  0  0  0  0  0  0  0  0
    8.1754   -4.6209   -6.1274 C   0  0  0  0  0  0  0  0  0  0  0  0
    6.9598   -5.2550   -5.7939 C   0  0  0  0  0  0  0  0  0  0  0  0
    6.0652   -5.9864   -7.1321 S   0  0  0  0  0  0  0  0  0  0  0  0
    4.6038   -6.7137   -6.3370 C   0  0  0  0  0  0  0  0  0  0  0  0
    6.5478   -5.2749   -4.4486 C   0  0  0  0  0  0  0  0  0  0  0  0
    7.3252   -4.6680   -3.4619 C   0  0  0  0  0  0  0  0  0  0  0  0
    6.4754   -1.2145   -1.9485 C   0  0  0  0  0  0  0  0  0  0  0  0
    5.4182   -0.9763   -1.0796 C   0  0  0  0  0  0  0  0  0  0  0  0
    3.3421   -0.3731    4.1735 H   0  0  0  0  0  0  0  0  0  0  0  0
    2.5688   -1.1891    2.7852 H   0  0  0  0  0  0  0  0  0  0  0  0
    2.9126    0.5597    2.7118 H   0  0  0  0  0  0  0  0  0  0  0  0
    5.0433   -1.6715    2.8641 H   0  0  0  0  0  0  0  0  0  0  0  0
    5.3863    0.0771    2.7895 H   0  0  0  0  0  0  0  0  0  0  0  0
    7.1143   -1.2198    1.8852 H   0  0  0  0  0  0  0  0  0  0  0  0
    8.9814   -1.6212    0.3164 H   0  0  0  0  0  0  0  0  0  0  0  0
    8.4126    0.0223   -3.5306 H   0  0  0  0  0  0  0  0  0  0  0  0
    9.6467   -1.0571   -4.2184 H   0  0  0  0  0  0  0  0  0  0  0  0
   11.5035   -1.3033   -2.4475 H   0  0  0  0  0  0  0  0  0  0  0  0
   12.0353    2.3319   -1.8177 H   0  0  0  0  0  0  0  0  0  0  0  0
   14.1665    3.1823   -0.8260 H   0  0  0  0  0  0  0  0  0  0  0  0
   15.5120    3.7654    1.7488 H   0  0  0  0  0  0  0  0  0  0  0  0
   16.3110    3.3252    3.2624 H   0  0  0  0  0  0  0  0  0  0  0  0
   13.5913    2.2718    2.2815 H   0  0  0  0  0  0  0  0  0  0  0  0
   13.8778    3.3431    3.6658 H   0  0  0  0  0  0  0  0  0  0  0  0
   13.5281    0.9300    4.3798 H   0  0  0  0  0  0  0  0  0  0  0  0
   15.1108    1.5537    4.8614 H   0  0  0  0  0  0  0  0  0  0  0  0
   14.5369   -0.2351    2.4221 H   0  0  0  0  0  0  0  0  0  0  0  0
   15.4060   -0.7107    3.8937 H   0  0  0  0  0  0  0  0  0  0  0  0
   16.9842   -0.1377    1.9686 H   0  0  0  0  0  0  0  0  0  0  0  0
   17.2384    0.8655    3.4012 H   0  0  0  0  0  0  0  0  0  0  0  0
   15.6935   -0.8406   -0.6190 H   0  0  0  0  0  0  0  0  0  0  0  0
   13.5716   -1.6953   -1.6031 H   0  0  0  0  0  0  0  0  0  0  0  0
    9.9067   -3.5493   -5.4038 H   0  0  0  0  0  0  0  0  0  0  0  0
    8.5163   -4.6167   -7.1658 H   0  0  0  0  0  0  0  0  0  0  0  0
    4.0316   -7.1776   -7.1526 H   0  0  0  0  0  0  0  0  0  0  0  0
    3.9773   -5.9484   -5.8558 H   0  0  0  0  0  0  0  0  0  0  0  0
    4.8799   -7.4923   -5.6109 H   0  0  0  0  0  0  0  0  0  0  0  0
    5.6231   -5.7708   -4.1538 H   0  0  0  0  0  0  0  0  0  0  0  0
    7.0155   -4.7039   -2.4160 H   0  0  0  0  0  0  0  0  0  0  0  0
    6.2981   -1.2220   -3.0268 H   0  0  0  0  0  0  0  0  0  0  0  0
    4.4087   -0.7910   -1.4516 H   0  0  0  0  0  0  0  0  0  0  0  0
  1  2  1  0
  1 41  1  0
  1 42  1  0
  1 43  1  0
  2  3  1  0
  2 44  1  0
  2 45  1  0
  3  4  1  0
  4  5  2  0
  4 40  1  0
  5  6  1  0
  5 46  1  0
  6  7  2  0
  6 47  1  0
  7  8  1  0
  7 39  1  0
  8  9  1  0
 28  8  1  1
  9 10  1  0
  9 48  1  0
  9 49  1  0
 10 11  2  0
 10 12  1  0
 12 13  1  0
 12 50  1  0
 13 14  2  0
 13 27  1  0
 14 15  1  0
 14 51  1  0
 15 16  2  0
 15 52  1  0
 17 16  1  6
 16 26  1  0
 17 18  2  0
 17 19  2  0
 17 20  1  0
 20 21  1  0
 20 25  1  0
 21 22  1  0
 21 53  1  0
 21 54  1  0
 22 23  1  0
 22 55  1  0
 22 56  1  0
 23 24  1  0
 23 57  1  0
 23 58  1  0
 24 25  1  0
 24 59  1  0
 24 60  1  0
 25 61  1  0
 25 62  1  0
 26 27  2  0
 26 63  1  0
 27 64  1  0
 28 29  2  0
 28 30  2  0
 28 31  1  0
 31 32  2  0
 31 38  1  0
 32 33  1  0
 32 65  1  0
 33 34  2  0
 33 66  1  0
 34 35  1  0
 34 37  1  0
 35 36  1  0
 36 67  1  0
 36 68  1  0
 36 69  1  0
 37 38  2  0
 37 70  1  0
 38 71  1  0
 39 40  2  0
 39 72  1  0
 40 73  1  0
M  END

