
     RDKit          3D

 57 60  0  0  0  0  0  0  0  0999 V2000
    8.6353    2.6566    1.8922 C   0  0  0  0  0  0  0  0  0  0  0  0
    7.4953    2.7567    0.9727 N   0  0  0  0  0  0  0  0  0  0  0  0
    7.0361    1.6288    0.3500 C   0  0  0  0  0  0  0  0  0  0  0  0
    7.5850    0.5420    0.4741 O   0  0  0  0  0  0  0  0  0  0  0  0
    5.7395    1.7492   -0.4712 C   0  0  1  0  0  0  0  0  0  0  0  0
    5.5141    3.1620   -1.0487 C   0  0  2  0  0  0  0  0  0  0  0  0
    6.0843    3.0129   -2.4576 C   0  0  0  0  0  0  0  0  0  0  0  0
    6.1301    1.6986   -2.7420 C   0  0  0  0  0  0  0  0  0  0  0  0
    5.8232    0.8902   -1.6489 N   0  0  0  0  0  0  0  0  0  0  0  0
    5.2800   -0.4449   -1.7576 C   0  0  0  0  0  0  0  0  0  0  0  0
    6.2774   -1.5337   -2.2176 C   0  0  0  0  0  0  0  0  0  0  0  0
    5.9630   -2.3580   -3.0435 O   0  0  0  0  0  0  0  0  0  0  0  0
    7.4961   -1.4581   -1.5650 N   0  0  0  0  0  0  0  0  0  0  0  0
    8.5868   -2.2849   -1.7505 C   0  0  0  0  0  0  0  0  0  0  0  0
    8.7104   -3.2260   -2.6283 N   0  0  0  0  0  0  0  0  0  0  0  0
    9.9333   -3.8553   -2.5434 C   0  0  0  0  0  0  0  0  0  0  0  0
   10.2223   -4.9583   -3.4825 C   0  0  0  0  0  0  0  0  0  0  0  0
   11.4521   -5.6376   -3.4797 C   0  0  0  0  0  0  0  0  0  0  0  0
   11.6836   -6.6732   -4.3813 C   0  0  0  0  0  0  0  0  0  0  0  0
   13.2188   -7.5080   -4.3635 Cl  0  0  0  0  0  0  0  0  0  0  0  0
   10.7134   -7.0639   -5.3236 C   0  0  0  0  0  0  0  0  0  0  0  0
   10.9710   -8.0338   -6.2384 O   0  0  0  0  0  0  0  0  0  0  0  0
   10.6180   -9.3668   -5.8719 C   0  0  0  0  0  0  0  0  0  0  0  0
   10.9684  -10.2517   -7.0582 C   0  0  0  0  0  0  0  0  0  0  0  0
   10.6613  -11.7119   -6.8241 C   0  0  1  0  0  0  0  0  0  0  0  0
    9.3530  -11.9139   -6.5733 F   0  0  0  0  0  0  0  0  0  0  0  0
   10.9841  -12.4551   -7.8949 F   0  0  0  0  0  0  0  0  0  0  0  0
   11.3450  -12.2041   -5.7721 F   0  0  0  0  0  0  0  0  0  0  0  0
    9.4848   -6.3782   -5.3049 C   0  0  0  0  0  0  0  0  0  0  0  0
    8.2526   -6.8437   -6.4520 Cl  0  0  0  0  0  0  0  0  0  0  0  0
    9.2372   -5.3404   -4.4091 C   0  0  0  0  0  0  0  0  0  0  0  0
   10.7673   -3.3679   -1.5634 C   0  0  0  0  0  0  0  0  0  0  0  0
   10.0023   -2.0724   -0.7019 S   0  0  0  0  0  0  0  0  0  0  0  0
    6.0290    4.2246   -0.1979 N   0  0  0  0  0  0  0  0  0  0  0  0
    5.5457    5.5676   -0.4844 C   0  0  0  0  0  0  0  0  0  0  0  0
    7.0072    4.0786    0.7451 C   0  0  0  0  0  0  0  0  0  0  0  0
    7.4778    4.9967    1.3876 O   0  0  0  0  0  0  0  0  0  0  0  0
    8.8504    1.5952    2.0477 H   0  0  0  0  0  0  0  0  0  0  0  0
    8.3876    3.1519    2.8392 H   0  0  0  0  0  0  0  0  0  0  0  0
    9.5162    3.1570    1.4648 H   0  0  0  0  0  0  0  0  0  0  0  0
    4.9213    1.4380    0.1996 H   0  0  0  0  0  0  0  0  0  0  0  0
    4.4249    3.3480   -1.1306 H   0  0  0  0  0  0  0  0  0  0  0  0
    6.2827    3.8318   -3.1457 H   0  0  0  0  0  0  0  0  0  0  0  0
    6.3733    1.2269   -3.6965 H   0  0  0  0  0  0  0  0  0  0  0  0
    4.4387   -0.5031   -2.4698 H   0  0  0  0  0  0  0  0  0  0  0  0
    4.8941   -0.7448   -0.7701 H   0  0  0  0  0  0  0  0  0  0  0  0
    7.5764   -0.7310   -0.8420 H   0  0  0  0  0  0  0  0  0  0  0  0
   12.2443   -5.3738   -2.7790 H   0  0  0  0  0  0  0  0  0  0  0  0
    9.5397   -9.4281   -5.6477 H   0  0  0  0  0  0  0  0  0  0  0  0
   11.1821   -9.6773   -4.9758 H   0  0  0  0  0  0  0  0  0  0  0  0
   12.0411  -10.1616   -7.2858 H   0  0  0  0  0  0  0  0  0  0  0  0
   10.4074   -9.9231   -7.9458 H   0  0  0  0  0  0  0  0  0  0  0  0
    8.2806   -4.8179   -4.4145 H   0  0  0  0  0  0  0  0  0  0  0  0
   11.7713   -3.6882   -1.2962 H   0  0  0  0  0  0  0  0  0  0  0  0
    5.8663    5.9034   -1.4859 H   0  0  0  0  0  0  0  0  0  0  0  0
    5.9516    6.2560    0.2646 H   0  0  0  0  0  0  0  0  0  0  0  0
    4.4438    5.5895   -0.4476 H   0  0  0  0  0  0  0  0  0  0  0  0
  1  2  1  0
  1 38  1  0
  1 39  1  0
  1 40  1  0
  2  3  1  0
  2 36  1  0
  3  4  2  0
  3  5  1  0
  5  6  1  0
  5  9  1  0
  5 41  1  1
  6  7  1  0
  6 34  1  0
  6 42  1  6
  7  8  2  0
  7 43  1  0
  8  9  1  0
  8 44  1  0
  9 10  1  0
 10 11  1  0
 10 45  1  0
 10 46  1  0
 11 12  2  0
 11 13  1  0
 13 14  1  0
 13 47  1  0
 14 15  2  0
 14 33  1  0
 15 16  1  0
 16 17  1  0
 16 32  2  0
 17 18  2  0
 17 31  1  0
 18 19  1  0
 18 48  1  0
 19 20  1  0
 19 21  2  0
 21 22  1  0
 21 29  1  0
 22 23  1  0
 23 24  1  0
 23 49  1  0
 23 50  1  0
 24 25  1  0
 24 51  1  0
 24 52  1  0
 25 26  1  1
 25 27  1  0
 25 28  1  0
 29 30  1  0
 29 31  2  0
 31 53  1  0
 32 33  1  0
 32 54  1  0
 34 35  1  0
 34 36  1  0
 35 55  1  0
 35 56  1  0
 35 57  1  0
 36 37  2  0
M  END

