
     RDKit          3D

 49 51  0  0  0  0  0  0  0  0999 V2000
    1.2611   -0.0128   -0.2398 C   0  0  0  0  0  0  0  0  0  0  0  0
    2.7587   -0.0928   -0.0788 C   0  0  0  0  0  0  0  0  0  0  0  0
    3.4108   -1.3504    0.0466 C   0  0  0  0  0  0  0  0  0  0  0  0
    4.7974   -1.4436    0.1835 C   0  0  0  0  0  0  0  0  0  0  0  0
    5.5554   -2.7469    0.3039 C   0  0  0  0  0  0  0  0  0  0  0  0
    6.7150   -2.8252   -0.0758 O   0  0  0  0  0  0  0  0  0  0  0  0
    4.8544   -3.7738    0.8661 N   0  0  0  0  0  0  0  0  0  0  0  0
    5.3157   -5.1473    1.1100 C   0  0  2  0  0  0  0  0  0  0  0  0
    6.7318   -5.2331    1.7076 C   0  0  0  0  0  0  0  0  0  0  0  0
    7.0669   -6.6790    2.0978 C   0  0  0  0  0  0  0  0  0  0  0  0
    6.8903   -7.6411    0.9166 C   0  0  0  0  0  0  0  0  0  0  0  0
    5.4811   -7.5307    0.3189 C   0  0  0  0  0  0  0  0  0  0  0  0
    5.1175   -6.0914   -0.1095 C   0  0  2  0  0  0  0  0  0  0  0  0
    5.8537   -5.6564   -1.3840 C   0  0  0  0  0  0  0  0  0  0  0  0
    5.5099   -0.2280    0.1681 C   0  0  0  0  0  0  0  0  0  0  0  0
    6.8609    0.2285    0.2492 C   0  0  0  0  0  0  0  0  0  0  0  0
    6.9092    1.5476    0.1928 N   0  0  0  0  0  0  0  0  0  0  0  0
    5.6417    2.0020    0.0741 N   0  0  0  0  0  0  0  0  0  0  0  0
    5.3506    3.4346   -0.0213 C   0  0  1  0  0  0  0  0  0  0  0  0
    5.7879    4.1595    1.2547 C   0  0  0  0  0  0  0  0  0  0  0  0
    5.9792    4.0294   -1.2846 C   0  0  0  0  0  0  0  0  0  0  0  0
    4.7478    0.9677    0.0489 C   0  0  0  0  0  0  0  0  0  0  0  0
    3.4232    1.0623   -0.0694 N   0  0  0  0  0  0  0  0  0  0  0  0
    0.7824   -0.9999   -0.1705 H   0  0  0  0  0  0  0  0  0  0  0  0
    1.0054    0.4310   -1.2159 H   0  0  0  0  0  0  0  0  0  0  0  0
    0.8300    0.6455    0.5310 H   0  0  0  0  0  0  0  0  0  0  0  0
    2.7979   -2.2531   -0.0001 H   0  0  0  0  0  0  0  0  0  0  0  0
    3.9276   -3.5516    1.2053 H   0  0  0  0  0  0  0  0  0  0  0  0
    4.6295   -5.5249    1.8892 H   0  0  0  0  0  0  0  0  0  0  0  0
    6.7871   -4.5734    2.5894 H   0  0  0  0  0  0  0  0  0  0  0  0
    7.4652   -4.8463    0.9869 H   0  0  0  0  0  0  0  0  0  0  0  0
    6.4073   -6.9998    2.9263 H   0  0  0  0  0  0  0  0  0  0  0  0
    8.0972   -6.7306    2.4870 H   0  0  0  0  0  0  0  0  0  0  0  0
    7.0815   -8.6792    1.2367 H   0  0  0  0  0  0  0  0  0  0  0  0
    7.6450   -7.4144    0.1434 H   0  0  0  0  0  0  0  0  0  0  0  0
    4.7495   -7.8744    1.0735 H   0  0  0  0  0  0  0  0  0  0  0  0
    5.3729   -8.2088   -0.5443 H   0  0  0  0  0  0  0  0  0  0  0  0
    4.0363   -6.0777   -0.3406 H   0  0  0  0  0  0  0  0  0  0  0  0
    6.9426   -5.5921   -1.2459 H   0  0  0  0  0  0  0  0  0  0  0  0
    5.5174   -4.6690   -1.7299 H   0  0  0  0  0  0  0  0  0  0  0  0
    5.6575   -6.3787   -2.1934 H   0  0  0  0  0  0  0  0  0  0  0  0
    7.7686   -0.3650    0.3318 H   0  0  0  0  0  0  0  0  0  0  0  0
    4.2537    3.4763   -0.1064 H   0  0  0  0  0  0  0  0  0  0  0  0
    6.8761    4.0719    1.3942 H   0  0  0  0  0  0  0  0  0  0  0  0
    5.2910    3.7336    2.1400 H   0  0  0  0  0  0  0  0  0  0  0  0
    5.5279    5.2278    1.1945 H   0  0  0  0  0  0  0  0  0  0  0  0
    7.0753    3.9372   -1.2502 H   0  0  0  0  0  0  0  0  0  0  0  0
    5.7203    5.0960   -1.3735 H   0  0  0  0  0  0  0  0  0  0  0  0
    5.6175    3.5111   -2.1860 H   0  0  0  0  0  0  0  0  0  0  0  0
  1  2  1  0
  1 24  1  0
  1 25  1  0
  1 26  1  0
  2  3  2  0
  2 23  1  0
  3  4  1  0
  3 27  1  0
  4  5  1  0
  4 15  2  0
  5  6  2  0
  5  7  1  0
  7  8  1  0
  7 28  1  0
  8  9  1  0
  8 13  1  0
  8 29  1  1
  9 10  1  0
  9 30  1  0
  9 31  1  0
 10 11  1  0
 10 32  1  0
 10 33  1  0
 11 12  1  0
 11 34  1  0
 11 35  1  0
 12 13  1  0
 12 36  1  0
 12 37  1  0
 13 14  1  0
 13 38  1  6
 14 39  1  0
 14 40  1  0
 14 41  1  0
 15 16  1  0
 15 22  1  0
 16 17  2  0
 16 42  1  0
 17 18  1  0
 18 19  1  0
 18 22  1  0
 19 20  1  0
 19 21  1  0
 19 43  1  6
 20 44  1  0
 20 45  1  0
 20 46  1  0
 21 47  1  0
 21 48  1  0
 21 49  1  0
 22 23  2  0
M  END

