
     RDKit          3D

 39 40  0  0  0  0  0  0  0  0999 V2000
    0.9548   -1.4152    2.4011 C   0  0  0  0  0  0  0  0  0  0  0  0
    2.3336   -1.6391    2.0031 N   0  0  0  0  0  0  0  0  0  0  0  0
    2.7372   -0.9229    0.8020 C   0  0  0  0  0  0  0  0  0  0  0  0
    4.2684   -0.8388    0.6797 C   0  0  1  0  0  0  0  0  0  0  0  0
    4.9787   -2.1951    0.6130 C   0  0  0  0  0  0  0  0  0  0  0  0
    4.7297   -2.8543   -0.6646 N   0  0  0  0  0  0  0  0  0  0  0  0
    5.2468   -4.2124   -0.7417 C   0  0  0  0  0  0  0  0  0  0  0  0
    4.4186   -5.2288    0.0664 C   0  0  0  0  0  0  0  0  0  0  0  0
    4.9149   -6.6472   -0.1011 C   0  0  0  0  0  0  0  0  0  0  0  0
    5.9192   -7.1678    0.7308 C   0  0  0  0  0  0  0  0  0  0  0  0
    6.4105   -8.4637    0.5583 C   0  0  0  0  0  0  0  0  0  0  0  0
    5.8919   -9.2609   -0.4654 C   0  0  0  0  0  0  0  0  0  0  0  0
    6.4961  -10.8883   -0.6891 Cl  0  0  0  0  0  0  0  0  0  0  0  0
    4.8912   -8.7713   -1.3089 C   0  0  0  0  0  0  0  0  0  0  0  0
    4.4140   -7.4724   -1.1207 C   0  0  0  0  0  0  0  0  0  0  0  0
    5.2021   -1.9996   -1.7481 C   0  0  0  0  0  0  0  0  0  0  0  0
    4.5088   -0.6421   -1.6876 C   0  0  0  0  0  0  0  0  0  0  0  0
    4.6550   -0.0241   -0.4228 O   0  0  0  0  0  0  0  0  0  0  0  0
    0.7146   -2.0323    3.2815 H   0  0  0  0  0  0  0  0  0  0  0  0
    0.2018   -1.6409    1.6128 H   0  0  0  0  0  0  0  0  0  0  0  0
    0.8135   -0.3606    2.6918 H   0  0  0  0  0  0  0  0  0  0  0  0
    2.4836   -2.6380    1.8705 H   0  0  0  0  0  0  0  0  0  0  0  0
    2.3688    0.1141    0.8730 H   0  0  0  0  0  0  0  0  0  0  0  0
    2.2984   -1.3521   -0.1224 H   0  0  0  0  0  0  0  0  0  0  0  0
    4.6344   -0.3147    1.5765 H   0  0  0  0  0  0  0  0  0  0  0  0
    4.6306   -2.8226    1.4467 H   0  0  0  0  0  0  0  0  0  0  0  0
    6.0697   -2.0285    0.7703 H   0  0  0  0  0  0  0  0  0  0  0  0
    6.3134   -4.2697   -0.4226 H   0  0  0  0  0  0  0  0  0  0  0  0
    5.2296   -4.5202   -1.8001 H   0  0  0  0  0  0  0  0  0  0  0  0
    3.3701   -5.1491   -0.2630 H   0  0  0  0  0  0  0  0  0  0  0  0
    4.4397   -4.9620    1.1355 H   0  0  0  0  0  0  0  0  0  0  0  0
    6.3252   -6.5506    1.5376 H   0  0  0  0  0  0  0  0  0  0  0  0
    7.1884   -8.8593    1.2135 H   0  0  0  0  0  0  0  0  0  0  0  0
    4.4904   -9.4058   -2.1012 H   0  0  0  0  0  0  0  0  0  0  0  0
    3.6271   -7.0959   -1.7808 H   0  0  0  0  0  0  0  0  0  0  0  0
    4.9805   -2.4767   -2.7174 H   0  0  0  0  0  0  0  0  0  0  0  0
    6.3063   -1.8502   -1.6954 H   0  0  0  0  0  0  0  0  0  0  0  0
    3.4408   -0.7681   -1.9503 H   0  0  0  0  0  0  0  0  0  0  0  0
    4.9558    0.0449   -2.4231 H   0  0  0  0  0  0  0  0  0  0  0  0
  1  2  1  0
  1 19  1  0
  1 20  1  0
  1 21  1  0
  2  3  1  0
  2 22  1  0
  3  4  1  0
  3 23  1  0
  3 24  1  0
  4  5  1  0
  4 18  1  0
  4 25  1  1
  5  6  1  0
  5 26  1  0
  5 27  1  0
  6  7  1  0
  6 16  1  0
  7  8  1  0
  7 28  1  0
  7 29  1  0
  8  9  1  0
  8 30  1  0
  8 31  1  0
  9 10  2  0
  9 15  1  0
 10 11  1  0
 10 32  1  0
 11 12  2  0
 11 33  1  0
 12 13  1  0
 12 14  1  0
 14 15  2  0
 14 34  1  0
 15 35  1  0
 16 17  1  0
 16 36  1  0
 16 37  1  0
 17 18  1  0
 17 38  1  0
 17 39  1  0
M  END

