
     RDKit          3D

 43 44  0  0  0  0  0  0  0  0999 V2000
    2.6977    1.6194   -0.2810 C   0  0  0  0  0  0  0  0  0  0  0  0
    4.2140    1.8047   -0.1976 C   0  0  0  0  0  0  0  0  0  0  0  0
    4.9629    1.1623   -1.3713 C   0  0  0  0  0  0  0  0  0  0  0  0
    6.4872    1.4001   -1.3850 C   0  0  1  0  0  0  0  0  0  0  0  0
    7.2110    0.7558   -0.1944 C   0  0  0  0  0  0  0  0  0  0  0  0
    7.1207    0.9792   -2.7246 C   0  0  0  0  0  0  0  0  0  0  0  0
    7.0456   -0.4531   -2.9418 N   0  0  0  0  0  0  0  0  0  0  0  0
    7.6276   -1.0537   -4.0448 C   0  0  0  0  0  0  0  0  0  0  0  0
    8.3398   -0.3194   -5.0211 C   0  0  0  0  0  0  0  0  0  0  0  0
    8.9358   -0.9418   -6.1166 C   0  0  0  0  0  0  0  0  0  0  0  0
    8.8256   -2.3226   -6.2945 C   0  0  0  0  0  0  0  0  0  0  0  0
    8.1300   -3.0679   -5.3420 C   0  0  0  0  0  0  0  0  0  0  0  0
    7.5509   -2.4682   -4.2169 C   0  0  0  0  0  0  0  0  0  0  0  0
    6.9648   -3.3204   -3.2269 N   0  0  0  0  0  0  0  0  0  0  0  0
    7.7354   -4.4175   -2.6229 C   0  0  0  0  0  0  0  0  0  0  0  0
    6.6665   -5.2709   -1.9217 C   0  0  0  0  0  0  0  0  0  0  0  0
    5.5679   -4.2572   -1.5901 C   0  0  0  0  0  0  0  0  0  0  0  0
    5.7321   -3.1680   -2.6453 C   0  0  0  0  0  0  0  0  0  0  0  0
    4.9219   -2.2869   -2.8985 O   0  0  0  0  0  0  0  0  0  0  0  0
    2.1847    2.0878    0.5744 H   0  0  0  0  0  0  0  0  0  0  0  0
    2.4254    0.5508   -0.2899 H   0  0  0  0  0  0  0  0  0  0  0  0
    2.2885    2.0682   -1.2017 H   0  0  0  0  0  0  0  0  0  0  0  0
    4.5768    1.3839    0.7561 H   0  0  0  0  0  0  0  0  0  0  0  0
    4.4527    2.8838   -0.1607 H   0  0  0  0  0  0  0  0  0  0  0  0
    4.5412    1.5590   -2.3132 H   0  0  0  0  0  0  0  0  0  0  0  0
    4.7467    0.0784   -1.3838 H   0  0  0  0  0  0  0  0  0  0  0  0
    6.6430    2.4938   -1.3232 H   0  0  0  0  0  0  0  0  0  0  0  0
    7.0930   -0.3391   -0.2068 H   0  0  0  0  0  0  0  0  0  0  0  0
    6.8288    1.1305    0.7672 H   0  0  0  0  0  0  0  0  0  0  0  0
    8.2916    0.9705   -0.2270 H   0  0  0  0  0  0  0  0  0  0  0  0
    8.1824    1.2818   -2.7243 H   0  0  0  0  0  0  0  0  0  0  0  0
    6.6336    1.5503   -3.5445 H   0  0  0  0  0  0  0  0  0  0  0  0
    6.1316   -0.8615   -2.7321 H   0  0  0  0  0  0  0  0  0  0  0  0
    8.4201    0.7626   -4.9189 H   0  0  0  0  0  0  0  0  0  0  0  0
    9.4791   -0.3349   -6.8459 H   0  0  0  0  0  0  0  0  0  0  0  0
    9.2710   -2.8153   -7.1613 H   0  0  0  0  0  0  0  0  0  0  0  0
    8.0338   -4.1492   -5.4663 H   0  0  0  0  0  0  0  0  0  0  0  0
    8.4738   -4.0069   -1.9090 H   0  0  0  0  0  0  0  0  0  0  0  0
    8.2940   -4.9775   -3.3854 H   0  0  0  0  0  0  0  0  0  0  0  0
    7.0656   -5.7999   -1.0445 H   0  0  0  0  0  0  0  0  0  0  0  0
    6.2805   -6.0290   -2.6218 H   0  0  0  0  0  0  0  0  0  0  0  0
    5.7145   -3.7874   -0.6013 H   0  0  0  0  0  0  0  0  0  0  0  0
    4.5435   -4.6546   -1.6104 H   0  0  0  0  0  0  0  0  0  0  0  0
  1  2  1  0
  1 20  1  0
  1 21  1  0
  1 22  1  0
  2  3  1  0
  2 23  1  0
  2 24  1  0
  3  4  1  0
  3 25  1  0
  3 26  1  0
  4  5  1  0
  4  6  1  0
  4 27  1  1
  5 28  1  0
  5 29  1  0
  5 30  1  0
  6  7  1  0
  6 31  1  0
  6 32  1  0
  7  8  1  0
  7 33  1  0
  8  9  2  0
  8 13  1  0
  9 10  1  0
  9 34  1  0
 10 11  2  0
 10 35  1  0
 11 12  1  0
 11 36  1  0
 12 13  2  0
 12 37  1  0
 13 14  1  0
 14 15  1  0
 14 18  1  0
 15 16  1  0
 15 38  1  0
 15 39  1  0
 16 17  1  0
 16 40  1  0
 16 41  1  0
 17 18  1  0
 17 42  1  0
 17 43  1  0
 18 19  2  0
M  END

