
     RDKit          3D

 31 32  0  0  0  0  0  0  0  0999 V2000
    0.7480    0.4375   -1.6558 C   0  0  0  0  0  0  0  0  0  0  0  0
    1.8241    0.6002   -0.6257 C   0  0  0  0  0  0  0  0  0  0  0  0
    2.7144    1.6399   -0.7301 N   0  0  0  0  0  0  0  0  0  0  0  0
    3.6034    1.7135    0.1721 N   0  0  0  0  0  0  0  0  0  0  0  0
    3.4179    0.4178    1.3162 S   0  0  0  0  0  0  0  0  0  0  0  0
    2.0566   -0.2040    0.4779 C   0  0  0  0  0  0  0  0  0  0  0  0
    1.3065   -1.4380    0.8983 C   0  0  0  0  0  0  0  0  0  0  0  0
    1.4360   -2.5054   -0.0876 N   0  0  0  0  0  0  0  0  0  0  0  0
    0.7882   -3.7527    0.2911 C   0  0  0  0  0  0  0  0  0  0  0  0
   -0.7232   -3.7143    0.1440 C   0  0  0  0  0  0  0  0  0  0  0  0
   -1.3169   -3.1216   -0.9836 C   0  0  0  0  0  0  0  0  0  0  0  0
   -2.6993   -3.1274   -1.1473 C   0  0  0  0  0  0  0  0  0  0  0  0
   -3.5312   -3.7101   -0.1769 C   0  0  0  0  0  0  0  0  0  0  0  0
   -5.0149   -3.6913   -0.4209 C   0  0  0  0  0  0  0  0  0  0  0  0
   -5.5011   -3.4902   -1.5022 O   0  0  0  0  0  0  0  0  0  0  0  0
   -5.8076   -3.9105    0.6540 O   0  0  0  0  0  0  0  0  0  0  0  0
   -2.9417   -4.3106    0.9454 C   0  0  0  0  0  0  0  0  0  0  0  0
   -1.5537   -4.3080    1.1035 C   0  0  0  0  0  0  0  0  0  0  0  0
    0.5938    1.3914   -2.1784 H   0  0  0  0  0  0  0  0  0  0  0  0
   -0.2022    0.1201   -1.2011 H   0  0  0  0  0  0  0  0  0  0  0  0
    1.0233   -0.3249   -2.4023 H   0  0  0  0  0  0  0  0  0  0  0  0
    0.2350   -1.1868    0.9957 H   0  0  0  0  0  0  0  0  0  0  0  0
    1.6379   -1.7481    1.9129 H   0  0  0  0  0  0  0  0  0  0  0  0
    2.4190   -2.6671   -0.2971 H   0  0  0  0  0  0  0  0  0  0  0  0
    1.0355   -4.0714    1.3277 H   0  0  0  0  0  0  0  0  0  0  0  0
    1.1806   -4.5411   -0.3750 H   0  0  0  0  0  0  0  0  0  0  0  0
   -0.6736   -2.6532   -1.7314 H   0  0  0  0  0  0  0  0  0  0  0  0
   -3.1659   -2.6831   -2.0287 H   0  0  0  0  0  0  0  0  0  0  0  0
   -5.2832   -3.9158    1.4666 H   0  0  0  0  0  0  0  0  0  0  0  0
   -3.5530   -4.8133    1.7013 H   0  0  0  0  0  0  0  0  0  0  0  0
   -1.1112   -4.7819    1.9843 H   0  0  0  0  0  0  0  0  0  0  0  0
  1  2  1  0
  1 19  1  0
  1 20  1  0
  1 21  1  0
  2  3  1  0
  2  6  2  0
  3  4  2  0
  4  5  1  0
  5  6  1  0
  6  7  1  0
  7  8  1  0
  7 22  1  0
  7 23  1  0
  8  9  1  0
  8 24  1  0
  9 10  1  0
  9 25  1  0
  9 26  1  0
 10 11  2  0
 10 18  1  0
 11 12  1  0
 11 27  1  0
 12 13  2  0
 12 28  1  0
 13 14  1  0
 13 17  1  0
 14 15  2  0
 14 16  1  0
 16 29  1  0
 17 18  2  0
 17 30  1  0
 18 31  1  0
M  END

