
     RDKit          3D

 56 58  0  0  0  0  0  0  0  0999 V2000
    5.0995   -4.7908   -1.3366 C   0  0  0  0  0  0  0  0  0  0  0  0
    6.1067   -3.6707   -1.1646 C   0  0  0  0  0  0  0  0  0  0  0  0
    6.6757   -3.7830    0.1342 O   0  0  0  0  0  0  0  0  0  0  0  0
    7.5957   -2.8756    0.5401 C   0  0  0  0  0  0  0  0  0  0  0  0
    8.0703   -1.8235   -0.2459 C   0  0  0  0  0  0  0  0  0  0  0  0
    9.0347   -0.9396    0.2760 C   0  0  0  0  0  0  0  0  0  0  0  0
    9.5113    0.1429   -0.5763 C   0  0  0  0  0  0  0  0  0  0  0  0
    9.1921    0.4265   -1.8034 N   0  0  0  0  0  0  0  0  0  0  0  0
    9.9330    1.5354   -2.1751 N   0  0  0  0  0  0  0  0  0  0  0  0
   10.6451    1.8554   -1.1412 C   0  0  0  0  0  0  0  0  0  0  0  0
   11.7329    3.2261   -1.0052 S   0  0  0  0  0  0  0  0  0  0  0  0
   12.6554    2.8316    0.5549 C   0  0  2  0  0  0  0  0  0  0  0  0
   13.2659    3.7476    0.6482 H   0  0  0  0  0  0  0  0  0  0  0  0
   13.5776    1.6232    0.4344 C   0  0  0  0  0  0  0  0  0  0  0  0
   11.7712    2.7756    1.8277 C   0  0  0  0  0  0  0  0  0  0  0  0
   12.0313    1.9958    2.7254 O   0  0  0  0  0  0  0  0  0  0  0  0
   10.7625    3.6875    1.8906 N   0  0  0  0  0  0  0  0  0  0  0  0
    9.9240    3.8314    3.0444 C   0  0  1  0  0  0  0  0  0  0  0  0
    8.4845    4.2146    2.8299 C   0  0  0  0  0  0  0  0  0  0  0  0
    8.8315    2.8269    3.3051 C   0  0  0  0  0  0  0  0  0  0  0  0
   10.4365    1.0268   -0.0880 O   0  0  0  0  0  0  0  0  0  0  0  0
    9.5210   -1.0999    1.5797 C   0  0  0  0  0  0  0  0  0  0  0  0
    9.0518   -2.1608    2.3656 C   0  0  0  0  0  0  0  0  0  0  0  0
    9.5812   -2.3478    3.6076 O   0  0  0  0  0  0  0  0  0  0  0  0
    8.7325   -2.0742    4.7286 C   0  0  0  0  0  0  0  0  0  0  0  0
    9.5241   -2.3411    5.9927 C   0  0  0  0  0  0  0  0  0  0  0  0
    8.0864   -3.0492    1.8601 C   0  0  0  0  0  0  0  0  0  0  0  0
    7.6101   -4.0512    2.6500 O   0  0  0  0  0  0  0  0  0  0  0  0
    8.1301   -5.3633    2.3994 C   0  0  0  0  0  0  0  0  0  0  0  0
    7.4432   -6.3324    3.3393 C   0  0  0  0  0  0  0  0  0  0  0  0
    4.6280   -4.7260   -2.3294 H   0  0  0  0  0  0  0  0  0  0  0  0
    4.3114   -4.7260   -0.5711 H   0  0  0  0  0  0  0  0  0  0  0  0
    5.5869   -5.7739   -1.2478 H   0  0  0  0  0  0  0  0  0  0  0  0
    5.6200   -2.6840   -1.2742 H   0  0  0  0  0  0  0  0  0  0  0  0
    6.9017   -3.7334   -1.9308 H   0  0  0  0  0  0  0  0  0  0  0  0
    7.7173   -1.6626   -1.2628 H   0  0  0  0  0  0  0  0  0  0  0  0
   14.1519    1.5138    1.3651 H   0  0  0  0  0  0  0  0  0  0  0  0
   14.2708    1.7500   -0.4091 H   0  0  0  0  0  0  0  0  0  0  0  0
   13.0054    0.6962    0.2927 H   0  0  0  0  0  0  0  0  0  0  0  0
   10.6149    4.2984    1.0938 H   0  0  0  0  0  0  0  0  0  0  0  0
   10.4308    4.2422    3.9260 H   0  0  0  0  0  0  0  0  0  0  0  0
    8.1387    4.3252    1.7973 H   0  0  0  0  0  0  0  0  0  0  0  0
    8.0334    4.9208    3.5320 H   0  0  0  0  0  0  0  0  0  0  0  0
    8.7336    2.0036    2.5936 H   0  0  0  0  0  0  0  0  0  0  0  0
    8.6290    2.5583    4.3452 H   0  0  0  0  0  0  0  0  0  0  0  0
   10.2723   -0.4295    2.0001 H   0  0  0  0  0  0  0  0  0  0  0  0
    7.8337   -2.7109    4.6798 H   0  0  0  0  0  0  0  0  0  0  0  0
    8.4069   -1.0175    4.6854 H   0  0  0  0  0  0  0  0  0  0  0  0
    9.8422   -3.3944    6.0362 H   0  0  0  0  0  0  0  0  0  0  0  0
    8.9079   -2.1275    6.8803 H   0  0  0  0  0  0  0  0  0  0  0  0
   10.4244   -1.7087    6.0306 H   0  0  0  0  0  0  0  0  0  0  0  0
    9.2231   -5.3565    2.5636 H   0  0  0  0  0  0  0  0  0  0  0  0
    7.9422   -5.6383    1.3476 H   0  0  0  0  0  0  0  0  0  0  0  0
    7.6333   -6.0634    4.3899 H   0  0  0  0  0  0  0  0  0  0  0  0
    7.8154   -7.3551    3.1705 H   0  0  0  0  0  0  0  0  0  0  0  0
    6.3550   -6.3250    3.1727 H   0  0  0  0  0  0  0  0  0  0  0  0
  1  2  1  0
  1 31  1  0
  1 32  1  0
  1 33  1  0
  2  3  1  0
  2 34  1  0
  2 35  1  0
  3  4  1  0
  4  5  2  0
  4 27  1  0
  5  6  1  0
  5 36  1  0
  6  7  1  0
  6 22  2  0
  7  8  2  0
  7 21  1  0
  8  9  1  0
  9 10  2  0
 10 11  1  0
 10 21  1  0
 11 12  1  0
 12 13  1  1
 12 14  1  0
 12 15  1  0
 14 37  1  0
 14 38  1  0
 14 39  1  0
 15 16  2  0
 15 17  1  0
 17 18  1  0
 17 40  1  0
 18 19  1  0
 18 20  1  0
 18 41  1  1
 19 20  1  0
 19 42  1  0
 19 43  1  0
 20 44  1  0
 20 45  1  0
 22 23  1  0
 22 46  1  0
 23 24  1  0
 23 27  2  0
 24 25  1  0
 25 26  1  0
 25 47  1  0
 25 48  1  0
 26 49  1  0
 26 50  1  0
 26 51  1  0
 27 28  1  0
 28 29  1  0
 29 30  1  0
 29 52  1  0
 29 53  1  0
 30 54  1  0
 30 55  1  0
 30 56  1  0
M  END

