
     RDKit          3D

 35 35  0  0  0  0  0  0  0  0999 V2000
    0.8834    0.1868   -0.1948 C   0  0  0  0  0  0  0  0  0  0  0  0
    2.2215    0.0496   -0.2358 C   0  0  0  0  0  0  0  0  0  0  0  0
    3.0291   -0.3123   -1.4130 C   0  0  0  0  0  0  0  0  0  0  0  0
    2.2481   -0.5177   -2.6929 C   0  0  0  0  0  0  0  0  0  0  0  0
    4.3881   -0.4542   -1.3428 C   0  0  0  0  0  0  0  0  0  0  0  0
    5.1920   -0.0596   -0.0951 C   0  0  1  0  0  0  0  0  0  0  0  0
    5.5288   -1.2574    0.8161 C   0  0  0  0  0  0  0  0  0  0  0  0
    6.4668    0.7474   -0.4293 C   0  0  0  0  0  0  0  0  0  0  0  0
    6.2039    2.1038   -1.0860 C   0  0  0  0  0  0  0  0  0  0  0  0
    5.1999   -0.9484   -2.5129 C   0  0  1  0  0  0  0  0  0  0  0  0
    6.0432   -2.2141   -2.4483 C   0  0  0  0  0  0  0  0  0  0  0  0
    4.8523   -2.1491   -3.3638 C   0  0  2  0  0  0  0  0  0  0  0  0
    5.0234   -2.1176   -4.8665 C   0  0  0  0  0  0  0  0  0  0  0  0
    0.3788    0.4325    0.7433 H   0  0  0  0  0  0  0  0  0  0  0  0
    0.2434    0.0595   -1.0711 H   0  0  0  0  0  0  0  0  0  0  0  0
    2.7548    0.1849    0.7076 H   0  0  0  0  0  0  0  0  0  0  0  0
    1.6204   -1.4252   -2.6523 H   0  0  0  0  0  0  0  0  0  0  0  0
    2.8918   -0.5851   -3.5749 H   0  0  0  0  0  0  0  0  0  0  0  0
    1.5618    0.3300   -2.8509 H   0  0  0  0  0  0  0  0  0  0  0  0
    4.5682    0.6211    0.5026 H   0  0  0  0  0  0  0  0  0  0  0  0
    6.2718   -1.9269    0.3581 H   0  0  0  0  0  0  0  0  0  0  0  0
    4.6309   -1.8529    1.0439 H   0  0  0  0  0  0  0  0  0  0  0  0
    5.9519   -0.9042    1.7714 H   0  0  0  0  0  0  0  0  0  0  0  0
    7.1387    0.1426   -1.0613 H   0  0  0  0  0  0  0  0  0  0  0  0
    7.0154    0.9090    0.5155 H   0  0  0  0  0  0  0  0  0  0  0  0
    5.6689    2.0029   -2.0439 H   0  0  0  0  0  0  0  0  0  0  0  0
    7.1459    2.6398   -1.2857 H   0  0  0  0  0  0  0  0  0  0  0  0
    5.5868    2.7478   -0.4374 H   0  0  0  0  0  0  0  0  0  0  0  0
    5.6954   -0.1428   -3.0728 H   0  0  0  0  0  0  0  0  0  0  0  0
    5.9635   -2.8512   -1.5652 H   0  0  0  0  0  0  0  0  0  0  0  0
    7.0449   -2.1819   -2.8886 H   0  0  0  0  0  0  0  0  0  0  0  0
    3.9874   -2.7270   -3.0200 H   0  0  0  0  0  0  0  0  0  0  0  0
    5.9093   -1.5282   -5.1546 H   0  0  0  0  0  0  0  0  0  0  0  0
    4.1486   -1.6683   -5.3670 H   0  0  0  0  0  0  0  0  0  0  0  0
    5.1535   -3.1337   -5.2752 H   0  0  0  0  0  0  0  0  0  0  0  0
  1  2  2  0
  1 14  1  0
  1 15  1  0
  2  3  1  0
  2 16  1  0
  3  4  1  0
  3  5  2  0
  4 17  1  0
  4 18  1  0
  4 19  1  0
  5  6  1  0
  5 10  1  0
  6  7  1  0
  6  8  1  0
  6 20  1  1
  7 21  1  0
  7 22  1  0
  7 23  1  0
  8  9  1  0
  8 24  1  0
  8 25  1  0
  9 26  1  0
  9 27  1  0
  9 28  1  0
 10 11  1  0
 10 12  1  0
 10 29  1  6
 11 12  1  0
 11 30  1  0
 11 31  1  0
 12 13  1  0
 12 32  1  6
 13 33  1  0
 13 34  1  0
 13 35  1  0
M  END

