
     RDKit          3D

 44 45  0  0  0  0  0  0  0  0999 V2000
    0.9384    0.2907   -0.1312 O   0  0  0  0  0  0  0  0  0  0  0  0
    2.1396    0.1183    0.0219 C   0  0  0  0  0  0  0  0  0  0  0  0
    2.8405   -1.0840   -0.6114 C   0  0  0  0  0  0  0  0  0  0  0  0
    1.8717   -1.9858   -1.3716 C   0  0  0  0  0  0  0  0  0  0  0  0
    2.5962   -3.0359   -2.0738 N   0  0  0  0  0  0  0  0  0  0  0  0
    1.7501   -3.9256   -2.8561 C   0  0  0  0  0  0  0  0  0  0  0  0
    2.5571   -4.8613   -3.7723 C   0  0  1  0  0  0  0  0  0  0  0  0
    3.5853   -5.7450   -3.0341 C   0  0  0  0  0  0  0  0  0  0  0  0
    2.9017   -6.8641   -2.2358 C   0  0  0  0  0  0  0  0  0  0  0  0
    1.9172   -7.6217   -3.1294 C   0  0  0  0  0  0  0  0  0  0  0  0
    0.9930   -6.7512   -3.7510 O   0  0  0  0  0  0  0  0  0  0  0  0
    1.6183   -5.7803   -4.5699 C   0  0  0  0  0  0  0  0  0  0  0  0
    2.9089    0.9896    0.7601 N   0  0  0  0  0  0  0  0  0  0  0  0
    4.3436    0.8786    0.9952 C   0  0  0  0  0  0  0  0  0  0  0  0
    5.0778    2.1571    0.5663 C   0  0  0  0  0  0  0  0  0  0  0  0
    4.4620    3.3977    1.2245 C   0  0  0  0  0  0  0  0  0  0  0  0
    2.9495    3.4512    0.9753 C   0  0  0  0  0  0  0  0  0  0  0  0
    2.2737    2.1423    1.3971 C   0  0  0  0  0  0  0  0  0  0  0  0
    3.3582   -1.6635    0.1748 H   0  0  0  0  0  0  0  0  0  0  0  0
    3.6283   -0.7469   -1.3066 H   0  0  0  0  0  0  0  0  0  0  0  0
    1.3218   -1.3781   -2.1080 H   0  0  0  0  0  0  0  0  0  0  0  0
    1.0982   -2.3688   -0.6719 H   0  0  0  0  0  0  0  0  0  0  0  0
    3.1323   -3.5810   -1.3989 H   0  0  0  0  0  0  0  0  0  0  0  0
    1.1105   -3.2949   -3.4986 H   0  0  0  0  0  0  0  0  0  0  0  0
    1.0473   -4.5222   -2.2349 H   0  0  0  0  0  0  0  0  0  0  0  0
    3.1037   -4.2214   -4.4871 H   0  0  0  0  0  0  0  0  0  0  0  0
    4.2392   -5.1323   -2.3918 H   0  0  0  0  0  0  0  0  0  0  0  0
    4.2523   -6.2019   -3.7878 H   0  0  0  0  0  0  0  0  0  0  0  0
    2.3538   -6.4455   -1.3739 H   0  0  0  0  0  0  0  0  0  0  0  0
    3.6489   -7.5657   -1.8268 H   0  0  0  0  0  0  0  0  0  0  0  0
    1.3251   -8.3474   -2.5504 H   0  0  0  0  0  0  0  0  0  0  0  0
    2.4802   -8.1901   -3.9023 H   0  0  0  0  0  0  0  0  0  0  0  0
    0.8067   -5.2048   -5.0428 H   0  0  0  0  0  0  0  0  0  0  0  0
    2.1912   -6.2806   -5.3798 H   0  0  0  0  0  0  0  0  0  0  0  0
    4.7483    0.0112    0.4620 H   0  0  0  0  0  0  0  0  0  0  0  0
    4.5211    0.7029    2.0758 H   0  0  0  0  0  0  0  0  0  0  0  0
    5.0151    2.2497   -0.5324 H   0  0  0  0  0  0  0  0  0  0  0  0
    6.1469    2.0668    0.8222 H   0  0  0  0  0  0  0  0  0  0  0  0
    4.9517    4.3135    0.8544 H   0  0  0  0  0  0  0  0  0  0  0  0
    4.6507    3.3615    2.3138 H   0  0  0  0  0  0  0  0  0  0  0  0
    2.7542    3.6241   -0.0977 H   0  0  0  0  0  0  0  0  0  0  0  0
    2.4933    4.2923    1.5236 H   0  0  0  0  0  0  0  0  0  0  0  0
    1.2121    2.1230    1.1231 H   0  0  0  0  0  0  0  0  0  0  0  0
    2.3435    2.0273    2.4972 H   0  0  0  0  0  0  0  0  0  0  0  0
  1  2  2  0
  2  3  1  0
  2 13  1  0
  3  4  1  0
  3 19  1  0
  3 20  1  0
  4  5  1  0
  4 21  1  0
  4 22  1  0
  5  6  1  0
  5 23  1  0
  6  7  1  0
  6 24  1  0
  6 25  1  0
  7  8  1  0
  7 12  1  0
  7 26  1  6
  8  9  1  0
  8 27  1  0
  8 28  1  0
  9 10  1  0
  9 29  1  0
  9 30  1  0
 10 11  1  0
 10 31  1  0
 10 32  1  0
 11 12  1  0
 12 33  1  0
 12 34  1  0
 13 14  1  0
 13 18  1  0
 14 15  1  0
 14 35  1  0
 14 36  1  0
 15 16  1  0
 15 37  1  0
 15 38  1  0
 16 17  1  0
 16 39  1  0
 16 40  1  0
 17 18  1  0
 17 41  1  0
 17 42  1  0
 18 43  1  0
 18 44  1  0
M  END

