
     RDKit          3D

 41 41  0  0  0  0  0  0  0  0999 V2000
    1.5950    0.7707   -1.5079 C   0  0  0  0  0  0  0  0  0  0  0  0
    1.3557   -0.4915   -0.8938 O   0  0  0  0  0  0  0  0  0  0  0  0
    2.1698   -1.5475   -1.0491 C   0  0  0  0  0  0  0  0  0  0  0  0
    2.3260   -2.3639    0.0920 C   0  0  0  0  0  0  0  0  0  0  0  0
    3.1765   -3.4585    0.0966 C   0  0  0  0  0  0  0  0  0  0  0  0
    3.9442   -3.7901   -1.0388 C   0  0  0  0  0  0  0  0  0  0  0  0
    4.8888   -4.9712   -1.0198 C   0  0  0  0  0  0  0  0  0  0  0  0
    4.1630   -6.2183   -0.7528 N   0  0  0  0  0  0  0  0  0  0  0  0
    4.9219   -7.4773   -0.8430 C   0  0  1  0  0  0  0  0  0  0  0  0
    6.2757   -7.4633   -0.0996 C   0  0  0  0  0  0  0  0  0  0  0  0
    6.3040   -7.1024    1.4028 C   0  0  1  0  0  0  0  0  0  0  0  0
    5.7717   -8.2175    2.3159 C   0  0  0  0  0  0  0  0  0  0  0  0
    7.7374   -6.7247    1.8059 C   0  0  0  0  0  0  0  0  0  0  0  0
    4.0258   -8.6294   -0.3478 C   0  0  0  0  0  0  0  0  0  0  0  0
    4.2599   -9.7834   -0.5832 O   0  0  0  0  0  0  0  0  0  0  0  0
    2.9728   -8.2301    0.3833 O   0  0  0  0  0  0  0  0  0  0  0  0
    3.7888   -3.0063   -2.1767 C   0  0  0  0  0  0  0  0  0  0  0  0
    2.8989   -1.9198   -2.2007 C   0  0  0  0  0  0  0  0  0  0  0  0
    2.6966   -1.2879   -3.5103 N   0  0  0  0  0  0  0  0  0  0  0  0
    1.5720   -0.8846   -3.7731 O   0  0  0  0  0  0  0  0  0  0  0  0
    3.6461   -1.2514   -4.2775 O   0  0  0  0  0  0  0  0  0  0  0  0
    1.2320    1.5294   -0.8002 H   0  0  0  0  0  0  0  0  0  0  0  0
    1.0583    0.8595   -2.4618 H   0  0  0  0  0  0  0  0  0  0  0  0
    2.6729    0.9289   -1.6819 H   0  0  0  0  0  0  0  0  0  0  0  0
    1.7625   -2.0790    0.9825 H   0  0  0  0  0  0  0  0  0  0  0  0
    3.2685   -4.0624    1.0027 H   0  0  0  0  0  0  0  0  0  0  0  0
    5.6381   -4.8245   -0.2260 H   0  0  0  0  0  0  0  0  0  0  0  0
    5.4466   -5.0062   -1.9771 H   0  0  0  0  0  0  0  0  0  0  0  0
    3.3875   -6.2675   -1.4162 H   0  0  0  0  0  0  0  0  0  0  0  0
    5.1615   -7.7351   -1.8935 H   0  0  0  0  0  0  0  0  0  0  0  0
    6.9414   -6.7728   -0.6435 H   0  0  0  0  0  0  0  0  0  0  0  0
    6.7121   -8.4663   -0.2416 H   0  0  0  0  0  0  0  0  0  0  0  0
    5.6692   -6.2105    1.5575 H   0  0  0  0  0  0  0  0  0  0  0  0
    6.3309   -9.1551    2.1600 H   0  0  0  0  0  0  0  0  0  0  0  0
    4.7075   -8.4316    2.1496 H   0  0  0  0  0  0  0  0  0  0  0  0
    5.8857   -7.9331    3.3745 H   0  0  0  0  0  0  0  0  0  0  0  0
    8.4251   -7.5740    1.6527 H   0  0  0  0  0  0  0  0  0  0  0  0
    7.7912   -6.4429    2.8695 H   0  0  0  0  0  0  0  0  0  0  0  0
    8.1198   -5.8771    1.2136 H   0  0  0  0  0  0  0  0  0  0  0  0
    3.0427   -7.2501    0.4336 H   0  0  0  0  0  0  0  0  0  0  0  0
    4.3398   -3.2240   -3.0929 H   0  0  0  0  0  0  0  0  0  0  0  0
  1  2  1  0
  1 22  1  0
  1 23  1  0
  1 24  1  0
  2  3  1  0
  3  4  2  0
  3 18  1  0
  4  5  1  0
  4 25  1  0
  5  6  2  0
  5 26  1  0
  6  7  1  0
  6 17  1  0
  7  8  1  0
  7 27  1  0
  7 28  1  0
  8  9  1  0
  8 29  1  0
  9 10  1  0
  9 14  1  0
  9 30  1  6
 10 11  1  0
 10 31  1  0
 10 32  1  0
 11 12  1  0
 11 13  1  0
 11 33  1  6
 12 34  1  0
 12 35  1  0
 12 36  1  0
 13 37  1  0
 13 38  1  0
 13 39  1  0
 14 15  2  0
 14 16  1  0
 16 40  1  0
 17 18  2  0
 17 41  1  0
 18 19  1  0
 19 20  2  0
 19 21  1  0
M  CHG  2  19   1  21  -1
M  END

