
     RDKit          3D

 50 54  0  0  0  0  0  0  0  0999 V2000
    0.8723    0.3090   -0.0593 C   0  0  0  0  0  0  0  0  0  0  0  0
    2.4012    0.0584   -0.1488 C   0  0  1  0  0  0  0  0  0  0  0  0
    2.7903   -0.2335   -1.6227 C   0  0  0  0  0  0  0  0  0  0  0  0
    3.1430    1.3167    0.3241 C   0  0  0  0  0  0  0  0  0  0  0  0
    2.9356    2.5311   -0.3481 C   0  0  0  0  0  0  0  0  0  0  0  0
    3.5714    3.7163    0.0202 C   0  0  0  0  0  0  0  0  0  0  0  0
    4.4518    3.6973    1.1028 C   0  0  0  0  0  0  0  0  0  0  0  0
    4.6818    2.5107    1.7930 C   0  0  0  0  0  0  0  0  0  0  0  0
    4.0374    1.3109    1.4187 C   0  0  0  0  0  0  0  0  0  0  0  0
    4.2890    0.1259    2.1351 N   0  0  0  0  0  0  0  0  0  0  0  0
    5.2006    0.1584    3.2380 C   0  0  0  0  0  0  0  0  0  0  0  0
    4.7376    0.4276    4.5325 C   0  0  0  0  0  0  0  0  0  0  0  0
    5.6257    0.4589    5.6072 C   0  0  0  0  0  0  0  0  0  0  0  0
    7.0004    0.2222    5.4153 C   0  0  0  0  0  0  0  0  0  0  0  0
    7.9429    0.2554    6.5556 C   0  0  0  0  0  0  0  0  0  0  0  0
    7.5993   -0.2091    7.8397 C   0  0  0  0  0  0  0  0  0  0  0  0
    8.4396   -0.1778    8.8695 N   0  0  0  0  0  0  0  0  0  0  0  0
    9.6579    0.3159    8.6302 C   0  0  0  0  0  0  0  0  0  0  0  0
   10.5825    0.3484    9.7487 C   0  0  0  0  0  0  0  0  0  0  0  0
   11.3209    0.3742   10.6418 N   0  0  0  0  0  0  0  0  0  0  0  0
   10.1084    0.7825    7.4620 N   0  0  0  0  0  0  0  0  0  0  0  0
    9.2550    0.7540    6.4430 C   0  0  0  0  0  0  0  0  0  0  0  0
    7.4548   -0.0470    4.1101 C   0  0  0  0  0  0  0  0  0  0  0  0
    6.5664   -0.0786    3.0356 C   0  0  0  0  0  0  0  0  0  0  0  0
    3.6662   -1.0899    1.7964 C   0  0  0  0  0  0  0  0  0  0  0  0
    3.9463   -2.2564    2.5418 C   0  0  0  0  0  0  0  0  0  0  0  0
    3.3453   -3.4723    2.2293 C   0  0  0  0  0  0  0  0  0  0  0  0
    2.4485   -3.5547    1.1632 C   0  0  0  0  0  0  0  0  0  0  0  0
    2.1733   -2.4023    0.4278 C   0  0  0  0  0  0  0  0  0  0  0  0
    2.7600   -1.1599    0.7138 C   0  0  0  0  0  0  0  0  0  0  0  0
    0.5723    1.1667   -0.6802 H   0  0  0  0  0  0  0  0  0  0  0  0
    0.5712    0.5188    0.9783 H   0  0  0  0  0  0  0  0  0  0  0  0
    0.3041   -0.5668   -0.4077 H   0  0  0  0  0  0  0  0  0  0  0  0
    2.5321    0.6125   -2.2775 H   0  0  0  0  0  0  0  0  0  0  0  0
    2.2641   -1.1213   -2.0049 H   0  0  0  0  0  0  0  0  0  0  0  0
    3.8721   -0.4148   -1.7123 H   0  0  0  0  0  0  0  0  0  0  0  0
    2.2473    2.5510   -1.1958 H   0  0  0  0  0  0  0  0  0  0  0  0
    3.3802    4.6392   -0.5316 H   0  0  0  0  0  0  0  0  0  0  0  0
    4.9663    4.6087    1.4178 H   0  0  0  0  0  0  0  0  0  0  0  0
    5.3715    2.5134    2.6358 H   0  0  0  0  0  0  0  0  0  0  0  0
    3.6742    0.6209    4.6881 H   0  0  0  0  0  0  0  0  0  0  0  0
    5.2475    0.6962    6.6041 H   0  0  0  0  0  0  0  0  0  0  0  0
    6.6092   -0.6385    8.0298 H   0  0  0  0  0  0  0  0  0  0  0  0
    9.6160    1.1612    5.4918 H   0  0  0  0  0  0  0  0  0  0  0  0
    8.5116   -0.2602    3.9340 H   0  0  0  0  0  0  0  0  0  0  0  0
    6.9252   -0.2967    2.0276 H   0  0  0  0  0  0  0  0  0  0  0  0
    4.6441   -2.2096    3.3766 H   0  0  0  0  0  0  0  0  0  0  0  0
    3.5834   -4.3566    2.8259 H   0  0  0  0  0  0  0  0  0  0  0  0
    1.9687   -4.5013    0.9053 H   0  0  0  0  0  0  0  0  0  0  0  0
    1.4712   -2.4720   -0.4059 H   0  0  0  0  0  0  0  0  0  0  0  0
  2  1  1  6
  1 31  1  0
  1 32  1  0
  1 33  1  0
  2  3  1  0
  2  4  1  0
  2 30  1  0
  3 34  1  0
  3 35  1  0
  3 36  1  0
  4  5  1  0
  4  9  2  0
  5  6  2  0
  5 37  1  0
  6  7  1  0
  6 38  1  0
  7  8  2  0
  7 39  1  0
  8  9  1  0
  8 40  1  0
  9 10  1  0
 10 11  1  0
 10 25  1  0
 11 12  2  0
 11 24  1  0
 12 13  1  0
 12 41  1  0
 13 14  2  0
 13 42  1  0
 14 15  1  0
 14 23  1  0
 15 16  2  0
 15 22  1  0
 16 17  1  0
 16 43  1  0
 17 18  2  0
 18 19  1  0
 18 21  1  0
 19 20  3  0
 21 22  2  0
 22 44  1  0
 23 24  2  0
 23 45  1  0
 24 46  1  0
 25 26  1  0
 25 30  2  0
 26 27  2  0
 26 47  1  0
 27 28  1  0
 27 48  1  0
 28 29  2  0
 28 49  1  0
 29 30  1  0
 29 50  1  0
M  END

