
     RDKit          3D

 49 50  0  0  0  0  0  0  0  0999 V2000
    7.3890   -6.6539    0.4815 C   0  0  0  0  0  0  0  0  0  0  0  0
    7.6915   -5.2077    0.9099 C   0  0  0  0  0  0  0  0  0  0  0  0
    8.1261   -4.3043   -0.2284 C   0  0  0  0  0  0  0  0  0  0  0  0
    9.4911   -4.0790   -0.4513 C   0  0  0  0  0  0  0  0  0  0  0  0
    9.9472   -3.2869   -1.5070 C   0  0  0  0  0  0  0  0  0  0  0  0
    9.0182   -2.6993   -2.3670 C   0  0  0  0  0  0  0  0  0  0  0  0
    7.6502   -2.8978   -2.1755 C   0  0  0  0  0  0  0  0  0  0  0  0
    7.1965   -3.6984   -1.1121 C   0  0  0  0  0  0  0  0  0  0  0  0
    5.8196   -3.9161   -0.8852 N   0  0  0  0  0  0  0  0  0  0  0  0
    4.7349   -3.4506   -1.5786 C   0  0  0  0  0  0  0  0  0  0  0  0
    4.7663   -2.7485   -2.5733 O   0  0  0  0  0  0  0  0  0  0  0  0
    3.3734   -3.9231   -1.0334 C   0  0  0  0  0  0  0  0  0  0  0  0
    3.3676   -4.5458    0.2792 N   0  0  0  0  0  0  0  0  0  0  0  0
    3.2853   -3.6381    1.4196 C   0  0  0  0  0  0  0  0  0  0  0  0
    3.2036   -5.9029    0.5059 C   0  0  0  0  0  0  0  0  0  0  0  0
    3.0625   -6.3505    1.6326 O   0  0  0  0  0  0  0  0  0  0  0  0
    3.2101   -6.8472   -0.7011 C   0  0  0  0  0  0  0  0  0  0  0  0
    1.8106   -7.1222   -1.2289 C   0  0  0  0  0  0  0  0  0  0  0  0
    0.8481   -7.7178   -0.4053 C   0  0  0  0  0  0  0  0  0  0  0  0
   -0.4386   -8.0021   -0.8724 C   0  0  0  0  0  0  0  0  0  0  0  0
   -0.7732   -7.6890   -2.1899 C   0  0  0  0  0  0  0  0  0  0  0  0
    0.1658   -7.0886   -3.0348 C   0  0  0  0  0  0  0  0  0  0  0  0
    1.4529   -6.7997   -2.5582 C   0  0  0  0  0  0  0  0  0  0  0  0
    2.4175   -6.1969   -3.3131 O   0  0  0  0  0  0  0  0  0  0  0  0
    2.1497   -5.8508   -4.6563 C   0  0  0  0  0  0  0  0  0  0  0  0
    7.0716   -7.2631    1.3426 H   0  0  0  0  0  0  0  0  0  0  0  0
    8.2813   -7.1229    0.0383 H   0  0  0  0  0  0  0  0  0  0  0  0
    6.5892   -6.6996   -0.2751 H   0  0  0  0  0  0  0  0  0  0  0  0
    8.4905   -5.2204    1.6680 H   0  0  0  0  0  0  0  0  0  0  0  0
    6.8137   -4.7852    1.4324 H   0  0  0  0  0  0  0  0  0  0  0  0
   10.2131   -4.5396    0.2296 H   0  0  0  0  0  0  0  0  0  0  0  0
   11.0186   -3.1295   -1.6525 H   0  0  0  0  0  0  0  0  0  0  0  0
    9.3545   -2.0747   -3.1986 H   0  0  0  0  0  0  0  0  0  0  0  0
    6.9174   -2.4428   -2.8378 H   0  0  0  0  0  0  0  0  0  0  0  0
    5.5815   -4.4856   -0.0810 H   0  0  0  0  0  0  0  0  0  0  0  0
    2.9604   -4.5924   -1.7991 H   0  0  0  0  0  0  0  0  0  0  0  0
    2.7239   -3.0328   -1.0279 H   0  0  0  0  0  0  0  0  0  0  0  0
    4.0802   -2.8774    1.3615 H   0  0  0  0  0  0  0  0  0  0  0  0
    3.3935   -4.2195    2.3421 H   0  0  0  0  0  0  0  0  0  0  0  0
    2.3110   -3.1181    1.4413 H   0  0  0  0  0  0  0  0  0  0  0  0
    3.6362   -7.7835   -0.3116 H   0  0  0  0  0  0  0  0  0  0  0  0
    3.8580   -6.4967   -1.5120 H   0  0  0  0  0  0  0  0  0  0  0  0
    1.1254   -7.9536    0.6253 H   0  0  0  0  0  0  0  0  0  0  0  0
   -1.1713   -8.4685   -0.2101 H   0  0  0  0  0  0  0  0  0  0  0  0
   -1.7729   -7.9091   -2.5731 H   0  0  0  0  0  0  0  0  0  0  0  0
   -0.1124   -6.8470   -4.0606 H   0  0  0  0  0  0  0  0  0  0  0  0
    3.0600   -5.3717   -5.0398 H   0  0  0  0  0  0  0  0  0  0  0  0
    1.3101   -5.1381   -4.7360 H   0  0  0  0  0  0  0  0  0  0  0  0
    1.9226   -6.7424   -5.2670 H   0  0  0  0  0  0  0  0  0  0  0  0
  1  2  1  0
  1 26  1  0
  1 27  1  0
  1 28  1  0
  2  3  1  0
  2 29  1  0
  2 30  1  0
  3  4  2  0
  3  8  1  0
  4  5  1  0
  4 31  1  0
  5  6  2  0
  5 32  1  0
  6  7  1  0
  6 33  1  0
  7  8  2  0
  7 34  1  0
  8  9  1  0
  9 10  1  0
  9 35  1  0
 10 11  2  0
 10 12  1  0
 12 13  1  0
 12 36  1  0
 12 37  1  0
 13 14  1  0
 13 15  1  0
 14 38  1  0
 14 39  1  0
 14 40  1  0
 15 16  2  0
 15 17  1  0
 17 18  1  0
 17 41  1  0
 17 42  1  0
 18 19  2  0
 18 23  1  0
 19 20  1  0
 19 43  1  0
 20 21  2  0
 20 44  1  0
 21 22  1  0
 21 45  1  0
 22 23  2  0
 22 46  1  0
 23 24  1  0
 24 25  1  0
 25 47  1  0
 25 48  1  0
 25 49  1  0
M  END

