
     RDKit          3D

 52 56  0  0  0  0  0  0  0  0999 V2000
    4.0683   -4.2895    6.5328 C   0  0  0  0  0  0  0  0  0  0  0  0
    3.7791   -4.3846    5.0741 C   0  0  0  0  0  0  0  0  0  0  0  0
    3.2151   -3.4103    4.4029 N   0  0  0  0  0  0  0  0  0  0  0  0
    3.1439   -3.9056    3.1045 O   0  0  0  0  0  0  0  0  0  0  0  0
    3.6781   -5.1386    3.1224 C   0  0  0  0  0  0  0  0  0  0  0  0
    3.6703   -5.9265    1.8864 C   0  0  0  0  0  0  0  0  0  0  0  0
    3.6890   -7.3272    1.9996 C   0  0  0  0  0  0  0  0  0  0  0  0
    3.6086   -8.1315    0.8644 C   0  0  0  0  0  0  0  0  0  0  0  0
    3.4994   -7.5417   -0.3983 C   0  0  0  0  0  0  0  0  0  0  0  0
    3.4936   -6.1499   -0.5201 C   0  0  0  0  0  0  0  0  0  0  0  0
    3.5949   -5.3271    0.6096 C   0  0  0  0  0  0  0  0  0  0  0  0
    3.8063   -3.8421    0.3854 C   0  0  0  0  0  0  0  0  0  0  0  0
    4.9309   -3.3635    0.4785 O   0  0  0  0  0  0  0  0  0  0  0  0
    2.7244   -3.1226   -0.0078 N   0  0  0  0  0  0  0  0  0  0  0  0
    1.3084   -3.4539    0.2492 C   0  0  0  0  0  0  0  0  0  0  0  0
    0.6632   -2.0673    0.0766 C   0  0  2  0  0  0  0  0  0  0  0  0
   -0.4294   -2.1108   -0.0311 H   0  0  0  0  0  0  0  0  0  0  0  0
    1.4594   -1.5419   -1.1386 C   0  0  0  0  0  0  0  0  0  0  0  0
    2.8157   -1.7096   -0.4375 C   0  0  1  0  0  0  0  0  0  0  0  0
    3.7313   -1.5366   -1.0160 H   0  0  0  0  0  0  0  0  0  0  0  0
    2.6379   -0.7836    0.7870 C   0  0  2  0  0  0  0  0  0  0  0  0
    2.6607    0.2606    0.4198 H   0  0  0  0  0  0  0  0  0  0  0  0
    3.6761   -0.9626    1.7699 N   0  0  0  0  0  0  0  0  0  0  0  0
    3.8994   -0.1458    2.8354 C   0  0  0  0  0  0  0  0  0  0  0  0
    3.0314    0.9247    3.1816 C   0  0  0  0  0  0  0  0  0  0  0  0
    3.3419    1.6993    4.2878 C   0  0  0  0  0  0  0  0  0  0  0  0
    4.4944    1.4148    5.0347 C   0  0  0  0  0  0  0  0  0  0  0  0
    4.8365    2.1925    6.2674 C   0  0  1  0  0  0  0  0  0  0  0  0
    4.3950    3.4652    6.1976 F   0  0  0  0  0  0  0  0  0  0  0  0
    4.2854    1.6607    7.3820 F   0  0  0  0  0  0  0  0  0  0  0  0
    6.1650    2.2379    6.4854 F   0  0  0  0  0  0  0  0  0  0  0  0
    5.2912    0.3443    4.6044 C   0  0  0  0  0  0  0  0  0  0  0  0
    5.0143   -0.4059    3.5483 N   0  0  0  0  0  0  0  0  0  0  0  0
    1.1629   -1.1396    1.2170 C   0  0  0  0  0  0  0  0  0  0  0  0
    4.0790   -5.4896    4.3101 N   0  0  0  0  0  0  0  0  0  0  0  0
    3.7457   -3.3160    6.9235 H   0  0  0  0  0  0  0  0  0  0  0  0
    5.1476   -4.4129    6.7114 H   0  0  0  0  0  0  0  0  0  0  0  0
    3.5496   -5.0934    7.0779 H   0  0  0  0  0  0  0  0  0  0  0  0
    3.7561   -7.7662    2.9967 H   0  0  0  0  0  0  0  0  0  0  0  0
    3.6232   -9.2192    0.9655 H   0  0  0  0  0  0  0  0  0  0  0  0
    3.4291   -8.1653   -1.2929 H   0  0  0  0  0  0  0  0  0  0  0  0
    3.4384   -5.6895   -1.5097 H   0  0  0  0  0  0  0  0  0  0  0  0
    1.1741   -3.8629    1.2609 H   0  0  0  0  0  0  0  0  0  0  0  0
    0.9186   -4.1844   -0.4809 H   0  0  0  0  0  0  0  0  0  0  0  0
    1.2375   -0.4964   -1.3975 H   0  0  0  0  0  0  0  0  0  0  0  0
    1.3606   -2.1669   -2.0388 H   0  0  0  0  0  0  0  0  0  0  0  0
    4.4005   -1.6568    1.5856 H   0  0  0  0  0  0  0  0  0  0  0  0
    2.1347    1.1353    2.5992 H   0  0  0  0  0  0  0  0  0  0  0  0
    2.6941    2.5308    4.5746 H   0  0  0  0  0  0  0  0  0  0  0  0
    6.2103    0.0982    5.1489 H   0  0  0  0  0  0  0  0  0  0  0  0
    0.5366   -0.2373    1.2862 H   0  0  0  0  0  0  0  0  0  0  0  0
    1.1485   -1.6360    2.1979 H   0  0  0  0  0  0  0  0  0  0  0  0
  1  2  1  0
  1 36  1  0
  1 37  1  0
  1 38  1  0
  2  3  2  0
  2 35  1  0
  3  4  1  0
  4  5  1  0
  5  6  1  0
  5 35  2  0
  6  7  2  0
  6 11  1  0
  7  8  1  0
  7 39  1  0
  8  9  2  0
  8 40  1  0
  9 10  1  0
  9 41  1  0
 10 11  2  0
 10 42  1  0
 11 12  1  0
 12 13  2  0
 12 14  1  0
 14 15  1  0
 14 19  1  0
 15 16  1  0
 15 43  1  0
 15 44  1  0
 16 17  1  6
 16 18  1  0
 16 34  1  0
 18 19  1  0
 18 45  1  0
 18 46  1  0
 19 20  1  6
 19 21  1  0
 21 22  1  6
 21 23  1  0
 21 34  1  0
 23 24  1  0
 23 47  1  0
 24 25  2  0
 24 33  1  0
 25 26  1  0
 25 48  1  0
 26 27  2  0
 26 49  1  0
 27 28  1  0
 27 32  1  0
 28 29  1  6
 28 30  1  0
 28 31  1  0
 32 33  2  0
 32 50  1  0
 34 51  1  0
 34 52  1  0
M  END

