
     RDKit          3D

 41 45  0  0  0  0  0  0  0  0999 V2000
    0.9386    0.0320    0.2425 O   0  0  0  0  0  0  0  0  0  0  0  0
    2.1585    0.0320    0.1370 C   0  0  0  0  0  0  0  0  0  0  0  0
    2.9486   -1.2267    0.1981 C   0  0  0  0  0  0  0  0  0  0  0  0
    2.2496   -2.4330    0.3779 C   0  0  0  0  0  0  0  0  0  0  0  0
    2.9263   -3.6445    0.4373 C   0  0  0  0  0  0  0  0  0  0  0  0
    4.3239   -3.6526    0.3155 C   0  0  0  0  0  0  0  0  0  0  0  0
    5.0252   -2.4642    0.1375 C   0  0  0  0  0  0  0  0  0  0  0  0
    4.3603   -1.2207    0.0742 C   0  0  0  0  0  0  0  0  0  0  0  0
    5.0819    0.0539   -0.1076 C   0  0  0  0  0  0  0  0  0  0  0  0
    6.4626    0.1225   -0.2519 C   0  0  0  0  0  0  0  0  0  0  0  0
    7.1500    1.3444   -0.3786 C   0  0  0  0  0  0  0  0  0  0  0  0
    6.4747    2.5584   -0.3791 C   0  0  0  0  0  0  0  0  0  0  0  0
    7.1472    3.7963   -0.4575 N   0  0  0  0  0  0  0  0  0  0  0  0
    8.4678    3.8208   -1.0783 C   0  0  0  0  0  0  0  0  0  0  0  0
    8.8566    5.2662   -1.3859 C   0  0  0  0  0  0  0  0  0  0  0  0
    8.8364    6.0665   -0.2229 O   0  0  0  0  0  0  0  0  0  0  0  0
    7.5645    6.0613    0.3907 C   0  0  0  0  0  0  0  0  0  0  0  0
    7.1203    4.6452    0.7432 C   0  0  0  0  0  0  0  0  0  0  0  0
    5.0334    2.5353   -0.3235 C   0  0  0  0  0  0  0  0  0  0  0  0
    4.2654    3.7176   -0.4864 C   0  0  0  0  0  0  0  0  0  0  0  0
    2.8837    3.6967   -0.4125 C   0  0  0  0  0  0  0  0  0  0  0  0
    2.2135    2.4840   -0.1792 C   0  0  0  0  0  0  0  0  0  0  0  0
    2.9227    1.2945   -0.0642 C   0  0  0  0  0  0  0  0  0  0  0  0
    4.3478    1.2852   -0.1534 C   0  0  0  0  0  0  0  0  0  0  0  0
    1.1630   -2.3766    0.4667 H   0  0  0  0  0  0  0  0  0  0  0  0
    2.3788   -4.5797    0.5768 H   0  0  0  0  0  0  0  0  0  0  0  0
    4.8716   -4.5977    0.3608 H   0  0  0  0  0  0  0  0  0  0  0  0
    6.1111   -2.5106    0.0488 H   0  0  0  0  0  0  0  0  0  0  0  0
    7.0595   -0.7902   -0.2409 H   0  0  0  0  0  0  0  0  0  0  0  0
    8.2383    1.3231   -0.4399 H   0  0  0  0  0  0  0  0  0  0  0  0
    8.4420    3.2361   -2.0107 H   0  0  0  0  0  0  0  0  0  0  0  0
    9.2461    3.3792   -0.4190 H   0  0  0  0  0  0  0  0  0  0  0  0
    8.1631    5.6750   -2.1492 H   0  0  0  0  0  0  0  0  0  0  0  0
    9.8803    5.3079   -1.7882 H   0  0  0  0  0  0  0  0  0  0  0  0
    6.8128    6.5291   -0.2788 H   0  0  0  0  0  0  0  0  0  0  0  0
    7.6434    6.6738    1.3019 H   0  0  0  0  0  0  0  0  0  0  0  0
    6.1093    4.6625    1.1723 H   0  0  0  0  0  0  0  0  0  0  0  0
    7.8030    4.2335    1.5172 H   0  0  0  0  0  0  0  0  0  0  0  0
    4.7878    4.6486   -0.7083 H   0  0  0  0  0  0  0  0  0  0  0  0
    2.3142    4.6191   -0.5499 H   0  0  0  0  0  0  0  0  0  0  0  0
    1.1250    2.4366   -0.1072 H   0  0  0  0  0  0  0  0  0  0  0  0
  1  2  2  0
  2  3  1  0
  2 23  1  0
  3  4  1  0
  3  8  2  0
  4  5  2  0
  4 25  1  0
  5  6  1  0
  5 26  1  0
  6  7  2  0
  6 27  1  0
  7  8  1  0
  7 28  1  0
  8  9  1  0
  9 10  1  0
  9 24  2  0
 10 11  2  0
 10 29  1  0
 11 12  1  0
 11 30  1  0
 12 13  1  0
 12 19  2  0
 13 14  1  0
 13 18  1  0
 14 15  1  0
 14 31  1  0
 14 32  1  0
 15 16  1  0
 15 33  1  0
 15 34  1  0
 16 17  1  0
 17 18  1  0
 17 35  1  0
 17 36  1  0
 18 37  1  0
 18 38  1  0
 19 20  1  0
 19 24  1  0
 20 21  2  0
 20 39  1  0
 21 22  1  0
 21 40  1  0
 22 23  2  0
 22 41  1  0
 23 24  1  0
M  END

