
     RDKit          3D

 53 55  0  0  0  0  0  0  0  0999 V2000
    0.9955    1.8164   -3.1330 C   0  0  0  0  0  0  0  0  0  0  0  0
    2.2494    1.2174   -2.8676 O   0  0  0  0  0  0  0  0  0  0  0  0
    3.1241    1.8148   -2.0390 C   0  0  0  0  0  0  0  0  0  0  0  0
    2.8931    3.0470   -1.4057 C   0  0  0  0  0  0  0  0  0  0  0  0
    3.8650    3.5942   -0.5698 C   0  0  0  0  0  0  0  0  0  0  0  0
    5.0903    2.9402   -0.3543 C   0  0  0  0  0  0  0  0  0  0  0  0
    6.1067    3.5357    0.5347 C   0  0  0  0  0  0  0  0  0  0  0  0
    5.6223    4.1535    1.6630 N   0  0  0  0  0  0  0  0  0  0  0  0
    4.6298    4.0986    1.8696 H   0  0  0  0  0  0  0  0  0  0  0  0
    6.3718    4.7986    2.6289 C   0  0  0  0  0  0  0  0  0  0  0  0
    5.6739    5.5062    3.9520 S   0  0  0  0  0  0  0  0  0  0  0  0
    7.7155    4.7754    2.3782 N   0  0  0  0  0  0  0  0  0  0  0  0
    8.3127    5.2335    3.0628 H   0  0  0  0  0  0  0  0  0  0  0  0
    8.3813    4.1788    1.2893 C   0  0  0  0  0  0  0  0  0  0  0  0
    9.5871    4.2308    1.2025 O   0  0  0  0  0  0  0  0  0  0  0  0
    7.4737    3.5386    0.3168 C   0  0  0  0  0  0  0  0  0  0  0  0
    8.0735    2.9929   -0.8555 C   0  0  0  0  0  0  0  0  0  0  0  0
    8.5694    2.5462   -1.8065 N   0  0  0  0  0  0  0  0  0  0  0  0
    5.3052    1.7038   -0.9974 C   0  0  0  0  0  0  0  0  0  0  0  0
    4.3492    1.1333   -1.8292 C   0  0  0  0  0  0  0  0  0  0  0  0
    4.5819   -0.2077   -2.4745 C   0  0  0  0  0  0  0  0  0  0  0  0
    3.8478   -1.1852   -1.7532 O   0  0  0  0  0  0  0  0  0  0  0  0
    3.8394   -2.4707   -2.2017 C   0  0  0  0  0  0  0  0  0  0  0  0
    4.5446   -2.9348   -3.3172 C   0  0  0  0  0  0  0  0  0  0  0  0
    4.4640   -4.2867   -3.6829 C   0  0  0  0  0  0  0  0  0  0  0  0
    3.6949   -5.2114   -2.9665 C   0  0  0  0  0  0  0  0  0  0  0  0
    3.5920   -6.7011   -3.3464 C   0  0  1  0  0  0  0  0  0  0  0  0
    4.4256   -7.0401   -4.5952 C   0  0  0  0  0  0  0  0  0  0  0  0
    4.1051   -7.5692   -2.1740 C   0  0  0  0  0  0  0  0  0  0  0  0
    2.1164   -7.0586   -3.6404 C   0  0  0  0  0  0  0  0  0  0  0  0
    2.9957   -4.7153   -1.8455 C   0  0  0  0  0  0  0  0  0  0  0  0
    3.0607   -3.3803   -1.4658 C   0  0  0  0  0  0  0  0  0  0  0  0
    0.4700    1.1400   -3.8189 H   0  0  0  0  0  0  0  0  0  0  0  0
    1.1101    2.8027   -3.6154 H   0  0  0  0  0  0  0  0  0  0  0  0
    0.3988    1.9299   -2.2116 H   0  0  0  0  0  0  0  0  0  0  0  0
    1.9634    3.5918   -1.5665 H   0  0  0  0  0  0  0  0  0  0  0  0
    3.6707    4.5684   -0.1136 H   0  0  0  0  0  0  0  0  0  0  0  0
    6.2366    1.1612   -0.8319 H   0  0  0  0  0  0  0  0  0  0  0  0
    5.6602   -0.4471   -2.4626 H   0  0  0  0  0  0  0  0  0  0  0  0
    4.2471   -0.1826   -3.5261 H   0  0  0  0  0  0  0  0  0  0  0  0
    5.1646   -2.2648   -3.9134 H   0  0  0  0  0  0  0  0  0  0  0  0
    5.0310   -4.6044   -4.5584 H   0  0  0  0  0  0  0  0  0  0  0  0
    5.4969   -6.8360   -4.4420 H   0  0  0  0  0  0  0  0  0  0  0  0
    4.0919   -6.4730   -5.4784 H   0  0  0  0  0  0  0  0  0  0  0  0
    4.3245   -8.1109   -4.8328 H   0  0  0  0  0  0  0  0  0  0  0  0
    5.1587   -7.3417   -1.9466 H   0  0  0  0  0  0  0  0  0  0  0  0
    4.0340   -8.6406   -2.4254 H   0  0  0  0  0  0  0  0  0  0  0  0
    3.5221   -7.4042   -1.2550 H   0  0  0  0  0  0  0  0  0  0  0  0
    1.7253   -6.4607   -4.4789 H   0  0  0  0  0  0  0  0  0  0  0  0
    1.4683   -6.8766   -2.7694 H   0  0  0  0  0  0  0  0  0  0  0  0
    2.0222   -8.1242   -3.9082 H   0  0  0  0  0  0  0  0  0  0  0  0
    2.3794   -5.3903   -1.2464 H   0  0  0  0  0  0  0  0  0  0  0  0
    2.5143   -3.0117   -0.5950 H   0  0  0  0  0  0  0  0  0  0  0  0
  1  2  1  0
  1 33  1  0
  1 34  1  0
  1 35  1  0
  2  3  1  0
  3  4  2  0
  3 20  1  0
  4  5  1  0
  4 36  1  0
  5  6  2  0
  5 37  1  0
  6  7  1  0
  6 19  1  0
  7  8  1  0
  7 16  2  0
  8  9  1  0
  8 10  1  0
 10 11  2  0
 10 12  1  0
 12 13  1  0
 12 14  1  0
 14 15  2  0
 14 16  1  0
 16 17  1  0
 17 18  3  0
 19 20  2  0
 19 38  1  0
 20 21  1  0
 21 22  1  0
 21 39  1  0
 21 40  1  0
 22 23  1  0
 23 24  2  0
 23 32  1  0
 24 25  1  0
 24 41  1  0
 25 26  2  0
 25 42  1  0
 26 27  1  0
 26 31  1  0
 27 28  1  6
 27 29  1  0
 27 30  1  0
 28 43  1  0
 28 44  1  0
 28 45  1  0
 29 46  1  0
 29 47  1  0
 29 48  1  0
 30 49  1  0
 30 50  1  0
 30 51  1  0
 31 32  2  0
 31 52  1  0
 32 53  1  0
M  END

