
     RDKit          3D

 21 20  0  0  0  0  0  0  0  0999 V2000
    2.3795   -1.2383    0.7446 C   0  0  0  0  0  0  0  0  0  0  0  0
    2.5335    0.0167   -0.1102 C   0  0  1  0  0  0  0  0  0  0  0  0
    1.2824    0.4924   -0.5777 O   0  0  0  0  0  0  0  0  0  0  0  0
    3.2818    1.1518    0.6081 C   0  0  0  0  0  0  0  0  0  0  0  0
    4.7538    0.9025    0.8255 C   0  0  0  0  0  0  0  0  0  0  0  0
    5.3784   -0.0575    0.4618 O   0  0  0  0  0  0  0  0  0  0  0  0
    5.3227    1.9689    1.4791 O   0  0  0  0  0  0  0  0  0  0  0  0
    6.8495    1.8553    2.2451 S   0  0  1  0  0  0  0  0  0  0  0  0
    7.9491    1.6116    0.8535 C   0  0  0  0  0  0  0  0  0  0  0  0
    7.0303    3.1887    2.7840 O   0  0  0  0  0  0  0  0  0  0  0  0
    6.8313    0.6727    3.0868 O   0  0  0  0  0  0  0  0  0  0  0  0
    1.8253   -2.0068    0.1850 H   0  0  0  0  0  0  0  0  0  0  0  0
    1.8172   -1.0145    1.6692 H   0  0  0  0  0  0  0  0  0  0  0  0
    3.3587   -1.6495    1.0303 H   0  0  0  0  0  0  0  0  0  0  0  0
    3.1028   -0.2403   -1.0182 H   0  0  0  0  0  0  0  0  0  0  0  0
    0.6995    0.6059    0.1860 H   0  0  0  0  0  0  0  0  0  0  0  0
    2.8283    1.3764    1.5901 H   0  0  0  0  0  0  0  0  0  0  0  0
    3.1833    2.0775    0.0166 H   0  0  0  0  0  0  0  0  0  0  0  0
    7.8455    2.4739    0.1832 H   0  0  0  0  0  0  0  0  0  0  0  0
    7.6738    0.6675    0.3694 H   0  0  0  0  0  0  0  0  0  0  0  0
    8.9603    1.5696    1.2813 H   0  0  0  0  0  0  0  0  0  0  0  0
  1  2  1  0
  1 12  1  0
  1 13  1  0
  1 14  1  0
  2  3  1  0
  2  4  1  0
  2 15  1  6
  3 16  1  0
  4  5  1  0
  4 17  1  0
  4 18  1  0
  5  6  2  0
  5  7  1  0
  8  7  1  6
  8  9  1  0
  8 10  2  0
  8 11  2  0
  9 19  1  0
  9 20  1  0
  9 21  1  0
M  END

