
     RDKit          3D

122131  0  0  0  0  0  0  0  0999 V2000
    0.7345   -2.7556   -1.7343 C   0  0  0  0  0  0  0  0  0  0  0  0
    2.1279   -3.3029   -1.4215 C   0  0  0  0  0  0  0  0  0  0  0  0
    3.2363   -2.2485   -1.5131 C   0  0  0  0  0  0  0  0  0  0  0  0
    4.6284   -2.7993   -1.1859 C   0  0  0  0  0  0  0  0  0  0  0  0
    5.7879   -1.8105   -1.4091 C   0  0  1  0  0  0  0  0  0  0  0  0
    5.6692   -0.5016   -0.5949 C   0  0  0  0  0  0  0  0  0  0  0  0
    5.5980   -0.6505    0.9286 C   0  0  0  0  0  0  0  0  0  0  0  0
    7.1659   -2.4557   -1.1513 C   0  0  0  0  0  0  0  0  0  0  0  0
    7.4684   -3.6182   -2.0049 N   0  0  0  0  0  0  0  0  0  0  0  0
    7.3686   -4.9003   -1.4371 C   0  0  0  0  0  0  0  0  0  0  0  0
    7.0490   -5.0538   -0.2726 O   0  0  0  0  0  0  0  0  0  0  0  0
    7.6661   -6.0525   -2.3325 C   0  0  0  0  0  0  0  0  0  0  0  0
    7.5598   -7.3406   -1.8392 C   0  0  0  0  0  0  0  0  0  0  0  0
    7.7677   -8.4498   -2.6886 C   0  0  0  0  0  0  0  0  0  0  0  0
    7.7679   -9.7167   -2.2150 O   0  0  0  0  0  0  0  0  0  0  0  0
    7.2937  -10.0466   -0.9529 C   0  0  0  0  0  0  0  0  0  0  0  0
    5.9498   -9.8625   -0.6010 C   0  0  0  0  0  0  0  0  0  0  0  0
    5.5043  -10.2760    0.6491 C   0  0  0  0  0  0  0  0  0  0  0  0
    6.3865  -10.8882    1.5591 C   0  0  0  0  0  0  0  0  0  0  0  0
    5.8526  -11.2584    2.7489 O   0  0  0  0  0  0  0  0  0  0  0  0
    6.6750  -11.8747    3.7142 C   0  0  0  0  0  0  0  0  0  0  0  0
    7.7278  -11.0780    1.1936 C   0  0  0  0  0  0  0  0  0  0  0  0
    8.1754  -10.6531   -0.0629 C   0  0  0  0  0  0  0  0  0  0  0  0
    8.0656   -8.2694   -4.0595 C   0  0  0  0  0  0  0  0  0  0  0  0
    8.1027   -9.3382   -5.0626 C   0  0  0  0  0  0  0  0  0  0  0  0
    7.3049  -10.5003   -5.0727 C   0  0  0  0  0  0  0  0  0  0  0  0
    5.8634  -10.6616   -4.1012 Cl  0  0  0  0  0  0  0  0  0  0  0  0
    7.5599  -11.5676   -5.9509 C   0  0  0  0  0  0  0  0  0  0  0  0
    8.5972  -11.4945   -6.8637 C   0  0  0  0  0  0  0  0  0  0  0  0
    9.3299  -10.2900   -6.9929 C   0  0  0  0  0  0  0  0  0  0  0  0
   10.3693  -10.1926   -7.9491 C   0  0  0  0  0  0  0  0  0  0  0  0
   11.1030   -9.0233   -8.0426 C   0  0  0  0  0  0  0  0  0  0  0  0
   10.7508   -7.8961   -7.2804 C   0  0  0  0  0  0  0  0  0  0  0  0
   11.8673   -6.5571   -7.3701 Cl  0  0  0  0  0  0  0  0  0  0  0  0
    9.6317   -7.8976   -6.4231 C   0  0  0  0  0  0  0  0  0  0  0  0
    9.0512   -6.7299   -5.7526 C   0  0  0  0  0  0  0  0  0  0  0  0
    9.0388   -5.4149   -6.2735 C   0  0  0  0  0  0  0  0  0  0  0  0
    9.3461   -5.2625   -7.5817 O   0  0  0  0  0  0  0  0  0  0  0  0
    9.5700   -4.0209   -8.1605 C   0  0  0  0  0  0  0  0  0  0  0  0
   10.6406   -3.2077   -7.7652 C   0  0  0  0  0  0  0  0  0  0  0  0
   10.8691   -2.0050   -8.4235 C   0  0  0  0  0  0  0  0  0  0  0  0
   10.0437   -1.6026   -9.4904 C   0  0  0  0  0  0  0  0  0  0  0  0
   10.3533   -0.4159  -10.0679 O   0  0  0  0  0  0  0  0  0  0  0  0
    9.5694    0.0567  -11.1404 C   0  0  0  0  0  0  0  0  0  0  0  0
    8.9809   -2.4287   -9.8862 C   0  0  0  0  0  0  0  0  0  0  0  0
    8.7484   -3.6355   -9.2158 C   0  0  0  0  0  0  0  0  0  0  0  0
    8.6420   -4.3210   -5.4726 C   0  0  0  0  0  0  0  0  0  0  0  0
    8.2318   -4.5232   -4.1672 C   0  0  0  0  0  0  0  0  0  0  0  0
    8.0992   -5.8361   -3.6606 C   0  0  0  0  0  0  0  0  0  0  0  0
    8.4058   -6.9490   -4.4940 C   0  0  0  0  0  0  0  0  0  0  0  0
    7.8933   -3.3506   -3.3154 C   0  0  0  0  0  0  0  0  0  0  0  0
    7.9790   -2.2057   -3.7217 O   0  0  0  0  0  0  0  0  0  0  0  0
    9.0211   -9.1748   -6.1595 C   0  0  0  0  0  0  0  0  0  0  0  0
   10.7209  -11.3472   -8.8161 C   0  0  0  0  0  0  0  0  0  0  0  0
   11.6258  -11.3059   -9.6273 O   0  0  0  0  0  0  0  0  0  0  0  0
    9.9475  -12.5130   -8.6509 N   0  0  0  0  0  0  0  0  0  0  0  0
   10.2649  -13.6493   -9.4955 C   0  0  0  0  0  0  0  0  0  0  0  0
   11.2280  -14.5781   -9.0527 C   0  0  0  0  0  0  0  0  0  0  0  0
   11.9548  -14.4324   -7.7200 C   0  0  1  0  0  0  0  0  0  0  0  0
   11.6695  -15.6206   -6.7848 C   0  0  0  0  0  0  0  0  0  0  0  0
   13.4639  -14.2092   -7.9248 C   0  0  0  0  0  0  0  0  0  0  0  0
   11.5173  -15.6668   -9.8873 C   0  0  0  0  0  0  0  0  0  0  0  0
   10.8731  -15.8258  -11.1127 C   0  0  0  0  0  0  0  0  0  0  0  0
    9.9240  -14.8934  -11.5273 C   0  0  0  0  0  0  0  0  0  0  0  0
    9.5997  -13.7865  -10.7304 C   0  0  0  0  0  0  0  0  0  0  0  0
    8.5543  -12.7868  -11.2134 C   0  0  1  0  0  0  0  0  0  0  0  0
    8.9871  -12.1011  -12.5213 C   0  0  0  0  0  0  0  0  0  0  0  0
    7.1662  -13.4400  -11.3369 C   0  0  0  0  0  0  0  0  0  0  0  0
    8.8909  -12.6646   -7.7314 C   0  0  0  0  0  0  0  0  0  0  0  0
    8.2626  -13.7035   -7.6657 O   0  0  0  0  0  0  0  0  0  0  0  0
   -0.0357   -3.5401   -1.6607 H   0  0  0  0  0  0  0  0  0  0  0  0
    0.6872   -2.3380   -2.7542 H   0  0  0  0  0  0  0  0  0  0  0  0
    0.4543   -1.9486   -1.0364 H   0  0  0  0  0  0  0  0  0  0  0  0
    2.3608   -4.1352   -2.1107 H   0  0  0  0  0  0  0  0  0  0  0  0
    2.1323   -3.7452   -0.4086 H   0  0  0  0  0  0  0  0  0  0  0  0
    2.9880   -1.4131   -0.8344 H   0  0  0  0  0  0  0  0  0  0  0  0
    3.2435   -1.8152   -2.5312 H   0  0  0  0  0  0  0  0  0  0  0  0
    4.8021   -3.6869   -1.8190 H   0  0  0  0  0  0  0  0  0  0  0  0
    4.6465   -3.1752   -0.1480 H   0  0  0  0  0  0  0  0  0  0  0  0
    5.7751   -1.5121   -2.4715 H   0  0  0  0  0  0  0  0  0  0  0  0
    4.7787    0.0474   -0.9433 H   0  0  0  0  0  0  0  0  0  0  0  0
    6.5272    0.1429   -0.8563 H   0  0  0  0  0  0  0  0  0  0  0  0
    4.7168   -1.2300    1.2469 H   0  0  0  0  0  0  0  0  0  0  0  0
    5.5297    0.3377    1.4110 H   0  0  0  0  0  0  0  0  0  0  0  0
    6.4876   -1.1520    1.3426 H   0  0  0  0  0  0  0  0  0  0  0  0
    7.2437   -2.8091   -0.1168 H   0  0  0  0  0  0  0  0  0  0  0  0
    7.9486   -1.7080   -1.3392 H   0  0  0  0  0  0  0  0  0  0  0  0
    7.2994   -7.4810   -0.7907 H   0  0  0  0  0  0  0  0  0  0  0  0
    5.2595   -9.3993   -1.3080 H   0  0  0  0  0  0  0  0  0  0  0  0
    4.4629  -10.1420    0.9477 H   0  0  0  0  0  0  0  0  0  0  0  0
    6.0369  -12.0795    4.5841 H   0  0  0  0  0  0  0  0  0  0  0  0
    7.5056  -11.2164    4.0275 H   0  0  0  0  0  0  0  0  0  0  0  0
    7.0960  -12.8285    3.3476 H   0  0  0  0  0  0  0  0  0  0  0  0
    8.4353  -11.5522    1.8737 H   0  0  0  0  0  0  0  0  0  0  0  0
    9.2156  -10.7981   -0.3607 H   0  0  0  0  0  0  0  0  0  0  0  0
    6.9473  -12.4688   -5.9119 H   0  0  0  0  0  0  0  0  0  0  0  0
   11.9537   -8.9812   -8.7233 H   0  0  0  0  0  0  0  0  0  0  0  0
   11.2903   -3.5215   -6.9465 H   0  0  0  0  0  0  0  0  0  0  0  0
   11.6950   -1.3529   -8.1332 H   0  0  0  0  0  0  0  0  0  0  0  0
    9.9987    1.0220  -11.4401 H   0  0  0  0  0  0  0  0  0  0  0  0
    8.5163    0.2110  -10.8432 H   0  0  0  0  0  0  0  0  0  0  0  0
    9.5979   -0.6307  -12.0052 H   0  0  0  0  0  0  0  0  0  0  0  0
    8.3261   -2.1479  -10.7109 H   0  0  0  0  0  0  0  0  0  0  0  0
    7.9270   -4.2890   -9.5163 H   0  0  0  0  0  0  0  0  0  0  0  0
    8.6658   -3.3045   -5.8637 H   0  0  0  0  0  0  0  0  0  0  0  0
   11.5642  -13.5339   -7.2201 H   0  0  0  0  0  0  0  0  0  0  0  0
   12.0621  -16.5650   -7.1959 H   0  0  0  0  0  0  0  0  0  0  0  0
   10.5874  -15.7456   -6.6258 H   0  0  0  0  0  0  0  0  0  0  0  0
   12.1465  -15.4633   -5.8033 H   0  0  0  0  0  0  0  0  0  0  0  0
   13.9416  -15.0838   -8.3959 H   0  0  0  0  0  0  0  0  0  0  0  0
   13.9651  -14.0376   -6.9579 H   0  0  0  0  0  0  0  0  0  0  0  0
   13.6471  -13.3358   -8.5691 H   0  0  0  0  0  0  0  0  0  0  0  0
   12.2605  -16.4029   -9.5716 H   0  0  0  0  0  0  0  0  0  0  0  0
   11.1124  -16.6819  -11.7489 H   0  0  0  0  0  0  0  0  0  0  0  0
    9.4241  -15.0274  -12.4896 H   0  0  0  0  0  0  0  0  0  0  0  0
    8.4685  -11.9963  -10.4535 H   0  0  0  0  0  0  0  0  0  0  0  0
    9.0646  -12.8218  -13.3516 H   0  0  0  0  0  0  0  0  0  0  0  0
    9.9673  -11.6137  -12.4046 H   0  0  0  0  0  0  0  0  0  0  0  0
    8.2530  -11.3335  -12.8168 H   0  0  0  0  0  0  0  0  0  0  0  0
    7.1574  -14.2287  -12.1071 H   0  0  0  0  0  0  0  0  0  0  0  0
    6.4090  -12.6904  -11.6208 H   0  0  0  0  0  0  0  0  0  0  0  0
    6.8608  -13.8956  -10.3826 H   0  0  0  0  0  0  0  0  0  0  0  0
  1  2  1  0
  1 71  1  0
  1 72  1  0
  1 73  1  0
  2  3  1  0
  2 74  1  0
  2 75  1  0
  3  4  1  0
  3 76  1  0
  3 77  1  0
  4  5  1  0
  4 78  1  0
  4 79  1  0
  5  6  1  0
  5  8  1  0
  5 80  1  6
  6  7  1  0
  6 81  1  0
  6 82  1  0
  7 83  1  0
  7 84  1  0
  7 85  1  0
  8  9  1  0
  8 86  1  0
  8 87  1  0
  9 10  1  0
  9 51  1  0
 10 11  2  0
 10 12  1  0
 12 13  1  0
 12 49  2  0
 13 14  2  0
 13 88  1  0
 14 15  1  0
 14 24  1  0
 15 16  1  0
 16 17  2  0
 16 23  1  0
 17 18  1  0
 17 89  1  0
 18 19  2  0
 18 90  1  0
 19 20  1  0
 19 22  1  0
 20 21  1  0
 21 91  1  0
 21 92  1  0
 21 93  1  0
 22 23  2  0
 22 94  1  0
 23 95  1  0
 24 25  1  0
 24 50  2  0
 25 26  2  0
 25 53  1  0
 26 27  1  0
 26 28  1  0
 28 29  2  0
 28 96  1  0
 29 30  1  0
 29 69  1  0
 30 31  1  0
 30 53  2  0
 31 32  2  0
 31 54  1  0
 32 33  1  0
 32 97  1  0
 33 34  1  0
 33 35  2  0
 35 36  1  0
 35 53  1  0
 36 37  2  0
 36 50  1  0
 37 38  1  0
 37 47  1  0
 38 39  1  0
 39 40  2  0
 39 46  1  0
 40 41  1  0
 40 98  1  0
 41 42  2  0
 41 99  1  0
 42 43  1  0
 42 45  1  0
 43 44  1  0
 44100  1  0
 44101  1  0
 44102  1  0
 45 46  2  0
 45103  1  0
 46104  1  0
 47 48  2  0
 47105  1  0
 48 49  1  0
 48 51  1  0
 49 50  1  0
 51 52  2  0
 54 55  2  0
 54 56  1  0
 56 57  1  0
 56 69  1  0
 57 58  2  0
 57 65  1  0
 58 59  1  0
 58 62  1  0
 59 60  1  0
 59 61  1  0
 59106  1  1
 60107  1  0
 60108  1  0
 60109  1  0
 61110  1  0
 61111  1  0
 61112  1  0
 62 63  2  0
 62113  1  0
 63 64  1  0
 63114  1  0
 64 65  2  0
 64115  1  0
 65 66  1  0
 66 67  1  0
 66 68  1  0
 66116  1  1
 67117  1  0
 67118  1  0
 67119  1  0
 68120  1  0
 68121  1  0
 68122  1  0
 69 70  2  0
M  END

