
     RDKit          3D

 28 29  0  0  0  0  0  0  0  0999 V2000
    1.2630    0.4242    0.2480 O   0  0  0  0  0  0  0  0  0  0  0  0
    2.4049    0.0660    0.3854 C   0  0  0  0  0  0  0  0  0  0  0  0
    3.3348    0.5856    1.3090 N   0  0  0  0  0  0  0  0  0  0  0  0
    4.5611   -0.0350    1.2420 C   0  0  0  0  0  0  0  0  0  0  0  0
    5.5673    0.2453    1.8419 O   0  0  0  0  0  0  0  0  0  0  0  0
    4.3822   -1.2058    0.2290 C   0  0  1  0  0  0  0  0  0  0  0  0
    5.5433   -1.3482   -0.7587 C   0  0  0  0  0  0  0  0  0  0  0  0
    6.4686   -2.3379   -0.0535 C   0  0  2  0  0  0  0  0  0  0  0  0
    7.0259   -1.8195    0.7424 H   0  0  0  0  0  0  0  0  0  0  0  0
    7.3247   -2.9971   -0.9576 O   0  0  0  0  0  0  0  0  0  0  0  0
    5.4423   -3.2764    0.6097 C   0  0  1  0  0  0  0  0  0  0  0  0
    5.1131   -4.0125   -0.1519 H   0  0  0  0  0  0  0  0  0  0  0  0
    5.9599   -4.0508    1.8165 C   0  0  1  0  0  0  0  0  0  0  0  0
    6.6300   -4.8400    1.3990 H   0  0  0  0  0  0  0  0  0  0  0  0
    6.6828   -3.1980    2.6700 O   0  0  0  0  0  0  0  0  0  0  0  0
    4.8428   -4.7399    2.6044 C   0  0  0  0  0  0  0  0  0  0  0  0
    5.3619   -5.3029    3.8002 O   0  0  0  0  0  0  0  0  0  0  0  0
    4.3468   -2.4322    0.9664 O   0  0  0  0  0  0  0  0  0  0  0  0
    3.0921   -0.8954   -0.3262 N   0  0  0  0  0  0  0  0  0  0  0  0
    3.1166    1.3700    1.9139 H   0  0  0  0  0  0  0  0  0  0  0  0
    6.0192   -0.3865   -0.9926 H   0  0  0  0  0  0  0  0  0  0  0  0
    5.1836   -1.7978   -1.6987 H   0  0  0  0  0  0  0  0  0  0  0  0
    8.1478   -3.2070   -0.5006 H   0  0  0  0  0  0  0  0  0  0  0  0
    6.6454   -3.6084    3.5490 H   0  0  0  0  0  0  0  0  0  0  0  0
    4.3233   -5.4895    1.9782 H   0  0  0  0  0  0  0  0  0  0  0  0
    4.1089   -3.9810    2.9103 H   0  0  0  0  0  0  0  0  0  0  0  0
    5.8780   -6.0882    3.5716 H   0  0  0  0  0  0  0  0  0  0  0  0
    2.5777   -1.5463   -0.9086 H   0  0  0  0  0  0  0  0  0  0  0  0
  1  2  2  0
  2  3  1  0
  2 19  1  0
  3  4  1  0
  3 20  1  0
  4  5  2  0
  4  6  1  0
  6  7  1  0
  6 18  1  1
  6 19  1  0
  7  8  1  0
  7 21  1  0
  7 22  1  0
  8  9  1  1
  8 10  1  0
  8 11  1  0
 10 23  1  0
 11 12  1  6
 11 13  1  0
 11 18  1  0
 13 14  1  6
 13 15  1  0
 13 16  1  0
 15 24  1  0
 16 17  1  0
 16 25  1  0
 16 26  1  0
 17 27  1  0
 19 28  1  0
M  END

