
     RDKit          3D

 24 24  0  0  0  0  0  0  0  0999 V2000
    4.3548    1.0523   -0.0493 C   0  0  0  0  0  0  0  0  0  0  0  0
    3.4980   -0.3835    0.6577 S   0  0  0  0  0  0  0  0  0  0  0  0
    3.8163   -1.6823   -0.5114 C   0  0  0  0  0  0  0  0  0  0  0  0
    4.5714   -1.5207   -1.6821 C   0  0  0  0  0  0  0  0  0  0  0  0
    4.7564   -2.6220   -2.5228 C   0  0  0  0  0  0  0  0  0  0  0  0
    5.7058   -2.4181   -3.9822 Cl  0  0  0  0  0  0  0  0  0  0  0  0
    4.2133   -3.8718   -2.2309 C   0  0  0  0  0  0  0  0  0  0  0  0
    3.4556   -4.0391   -1.0591 C   0  0  0  0  0  0  0  0  0  0  0  0
    2.8165   -5.3725   -0.7435 C   0  0  0  0  0  0  0  0  0  0  0  0
    1.4236   -5.5415   -1.3722 C   0  0  0  0  0  0  0  0  0  0  0  0
    0.8390   -6.8195   -0.9847 N   0  0  0  0  0  0  0  0  0  0  0  0
    3.2649   -2.9421   -0.2122 C   0  0  0  0  0  0  0  0  0  0  0  0
    4.1745    1.8764    0.6553 H   0  0  0  0  0  0  0  0  0  0  0  0
    3.9446    1.3301   -1.0316 H   0  0  0  0  0  0  0  0  0  0  0  0
    5.4391    0.8836   -0.1269 H   0  0  0  0  0  0  0  0  0  0  0  0
    5.0209   -0.5675   -1.9548 H   0  0  0  0  0  0  0  0  0  0  0  0
    4.3858   -4.7093   -2.9092 H   0  0  0  0  0  0  0  0  0  0  0  0
    2.7160   -5.5055    0.3451 H   0  0  0  0  0  0  0  0  0  0  0  0
    3.4692   -6.1877   -1.1025 H   0  0  0  0  0  0  0  0  0  0  0  0
    1.5086   -5.3844   -2.4699 H   0  0  0  0  0  0  0  0  0  0  0  0
    0.7691   -4.7345   -1.0007 H   0  0  0  0  0  0  0  0  0  0  0  0
    1.3490   -7.5899   -1.4198 H   0  0  0  0  0  0  0  0  0  0  0  0
   -0.1210   -6.8904   -1.3217 H   0  0  0  0  0  0  0  0  0  0  0  0
    2.6808   -3.0677    0.7040 H   0  0  0  0  0  0  0  0  0  0  0  0
  1  2  1  0
  1 13  1  0
  1 14  1  0
  1 15  1  0
  2  3  1  0
  3  4  2  0
  3 12  1  0
  4  5  1  0
  4 16  1  0
  5  6  1  0
  5  7  2  0
  7  8  1  0
  7 17  1  0
  8  9  1  0
  8 12  2  0
  9 10  1  0
  9 18  1  0
  9 19  1  0
 10 11  1  0
 10 20  1  0
 10 21  1  0
 11 22  1  0
 11 23  1  0
 12 24  1  0
M  END

