
     RDKit          3D

 51 50  0  0  0  0  0  0  0  0999 V2000
    0.7151   -0.6664   -0.1758 C   0  0  0  0  0  0  0  0  0  0  0  0
    2.2394   -0.5421   -0.1678 C   0  0  0  0  0  0  0  0  0  0  0  0
    2.7774    0.4796   -1.1745 C   0  0  0  0  0  0  0  0  0  0  0  0
    4.3032    0.6105   -1.1730 C   0  0  0  0  0  0  0  0  0  0  0  0
    4.8403    1.6321   -2.1797 C   0  0  0  0  0  0  0  0  0  0  0  0
    6.3662    1.7636   -2.1770 C   0  0  0  0  0  0  0  0  0  0  0  0
    6.9025    2.7857   -3.1838 C   0  0  0  0  0  0  0  0  0  0  0  0
    8.4282    2.9184   -3.1797 C   0  0  0  0  0  0  0  0  0  0  0  0
    8.9627    3.9398   -4.1889 C   0  0  0  0  0  0  0  0  0  0  0  0
   10.4899    4.0714   -4.1684 C   0  0  0  0  0  0  0  0  0  0  0  0
   11.0691    5.0051   -5.2355 C   0  0  1  0  0  0  0  0  0  0  0  0
   10.7317    6.4807   -5.0216 C   0  0  0  0  0  0  0  0  0  0  0  0
   11.3283    7.2926   -6.0006 O   0  0  0  0  0  0  0  0  0  0  0  0
   12.4989    4.9487   -5.2476 O   0  0  0  0  0  0  0  0  0  0  0  0
   13.0710    3.9084   -6.0113 C   0  0  0  0  0  0  0  0  0  0  0  0
   14.5677    3.8589   -5.7364 C   0  0  1  0  0  0  0  0  0  0  0  0
   15.0899    2.7640   -6.4526 O   0  0  0  0  0  0  0  0  0  0  0  0
   15.3044    5.1369   -6.1414 C   0  0  0  0  0  0  0  0  0  0  0  0
   16.7087    4.9408   -6.0483 O   0  0  0  0  0  0  0  0  0  0  0  0
    0.3644   -1.4086    0.5591 H   0  0  0  0  0  0  0  0  0  0  0  0
    0.3432   -0.9781   -1.1664 H   0  0  0  0  0  0  0  0  0  0  0  0
    0.2330    0.2955    0.0675 H   0  0  0  0  0  0  0  0  0  0  0  0
    2.6911   -1.5292   -0.3768 H   0  0  0  0  0  0  0  0  0  0  0  0
    2.5818   -0.2664    0.8464 H   0  0  0  0  0  0  0  0  0  0  0  0
    2.3260    1.4679   -0.9663 H   0  0  0  0  0  0  0  0  0  0  0  0
    2.4355    0.2044   -2.1901 H   0  0  0  0  0  0  0  0  0  0  0  0
    4.7541   -0.3779   -1.3810 H   0  0  0  0  0  0  0  0  0  0  0  0
    4.6444    0.8855   -0.1574 H   0  0  0  0  0  0  0  0  0  0  0  0
    4.3891    2.6204   -1.9722 H   0  0  0  0  0  0  0  0  0  0  0  0
    4.5000    1.3569   -3.1954 H   0  0  0  0  0  0  0  0  0  0  0  0
    6.8178    0.7756   -2.3848 H   0  0  0  0  0  0  0  0  0  0  0  0
    6.7067    2.0391   -1.1614 H   0  0  0  0  0  0  0  0  0  0  0  0
    6.4501    3.7734   -2.9766 H   0  0  0  0  0  0  0  0  0  0  0  0
    6.5632    2.5098   -4.1996 H   0  0  0  0  0  0  0  0  0  0  0  0
    8.8820    1.9312   -3.3855 H   0  0  0  0  0  0  0  0  0  0  0  0
    8.7682    3.1972   -2.1651 H   0  0  0  0  0  0  0  0  0  0  0  0
    8.4946    4.9194   -3.9868 H   0  0  0  0  0  0  0  0  0  0  0  0
    8.6333    3.6536   -5.2051 H   0  0  0  0  0  0  0  0  0  0  0  0
   10.9344    3.0706   -4.3065 H   0  0  0  0  0  0  0  0  0  0  0  0
   10.8303    4.4201   -3.1770 H   0  0  0  0  0  0  0  0  0  0  0  0
   10.6941    4.7122   -6.2366 H   0  0  0  0  0  0  0  0  0  0  0  0
   11.0484    6.7660   -3.9953 H   0  0  0  0  0  0  0  0  0  0  0  0
    9.6429    6.6317   -5.0837 H   0  0  0  0  0  0  0  0  0  0  0  0
   12.2536    7.0084   -6.0388 H   0  0  0  0  0  0  0  0  0  0  0  0
   12.8991    4.0667   -7.0953 H   0  0  0  0  0  0  0  0  0  0  0  0
   12.6412    2.9230   -5.7525 H   0  0  0  0  0  0  0  0  0  0  0  0
   14.7023    3.7197   -4.6393 H   0  0  0  0  0  0  0  0  0  0  0  0
   16.0422    2.9345   -6.5306 H   0  0  0  0  0  0  0  0  0  0  0  0
   14.9595    5.9945   -5.5370 H   0  0  0  0  0  0  0  0  0  0  0  0
   15.0962    5.3558   -7.2018 H   0  0  0  0  0  0  0  0  0  0  0  0
   16.9547    4.9501   -5.1131 H   0  0  0  0  0  0  0  0  0  0  0  0
  1  2  1  0
  1 20  1  0
  1 21  1  0
  1 22  1  0
  2  3  1  0
  2 23  1  0
  2 24  1  0
  3  4  1  0
  3 25  1  0
  3 26  1  0
  4  5  1  0
  4 27  1  0
  4 28  1  0
  5  6  1  0
  5 29  1  0
  5 30  1  0
  6  7  1  0
  6 31  1  0
  6 32  1  0
  7  8  1  0
  7 33  1  0
  7 34  1  0
  8  9  1  0
  8 35  1  0
  8 36  1  0
  9 10  1  0
  9 37  1  0
  9 38  1  0
 10 11  1  0
 10 39  1  0
 10 40  1  0
 11 12  1  0
 11 14  1  0
 11 41  1  6
 12 13  1  0
 12 42  1  0
 12 43  1  0
 13 44  1  0
 14 15  1  0
 15 16  1  0
 15 45  1  0
 15 46  1  0
 16 17  1  0
 16 18  1  0
 16 47  1  1
 17 48  1  0
 18 19  1  0
 18 49  1  0
 18 50  1  0
 19 51  1  0
M  END

