
     RDKit          3D

 33 35  0  0  0  0  0  0  0  0999 V2000
    0.9941   -0.2842    0.0132 O   0  0  0  0  0  0  0  0  0  0  0  0
    2.1890   -0.0276   -0.0434 C   0  0  0  0  0  0  0  0  0  0  0  0
    2.6869    1.3384    0.4504 C   0  0  0  0  0  0  0  0  0  0  0  0
    2.7326    2.3799   -0.6518 C   0  0  0  0  0  0  0  0  0  0  0  0
    1.6459    2.5642   -1.5207 C   0  0  0  0  0  0  0  0  0  0  0  0
    1.7276    3.5465   -2.5102 C   0  0  0  0  0  0  0  0  0  0  0  0
    2.7906    4.3379   -2.6877 N   0  0  0  0  0  0  0  0  0  0  0  0
    3.8231    4.1652   -1.8614 C   0  0  0  0  0  0  0  0  0  0  0  0
    3.8452    3.2100   -0.8391 C   0  0  0  0  0  0  0  0  0  0  0  0
    3.1011   -0.9114   -0.5597 N   0  0  0  0  0  0  0  0  0  0  0  0
    4.5220   -0.6544   -0.7703 C   0  0  0  0  0  0  0  0  0  0  0  0
    5.4008   -1.5949    0.0749 C   0  0  0  0  0  0  0  0  0  0  0  0
    4.8667   -2.9813   -0.0942 C   0  0  0  0  0  0  0  0  0  0  0  0
    5.5089   -4.1600    0.2002 N   0  0  0  0  0  0  0  0  0  0  0  0
    6.4451   -4.2372    0.5749 H   0  0  0  0  0  0  0  0  0  0  0  0
    4.6852   -5.2213   -0.0976 C   0  0  0  0  0  0  0  0  0  0  0  0
    3.4958   -4.7167   -0.5876 C   0  0  0  0  0  0  0  0  0  0  0  0
    3.6104   -3.2926   -0.5815 C   0  0  0  0  0  0  0  0  0  0  0  0
    2.6272   -2.2325   -0.9937 C   0  0  0  0  0  0  0  0  0  0  0  0
    3.6588    1.2810    0.9603 H   0  0  0  0  0  0  0  0  0  0  0  0
    1.9403    1.6420    1.1997 H   0  0  0  0  0  0  0  0  0  0  0  0
    0.7513    1.9450   -1.4207 H   0  0  0  0  0  0  0  0  0  0  0  0
    0.8851    3.7000   -3.1953 H   0  0  0  0  0  0  0  0  0  0  0  0
    4.6892    4.8211   -2.0139 H   0  0  0  0  0  0  0  0  0  0  0  0
    4.7235    3.1245   -0.1926 H   0  0  0  0  0  0  0  0  0  0  0  0
    4.7522    0.3946   -0.5591 H   0  0  0  0  0  0  0  0  0  0  0  0
    4.7501   -0.8178   -1.8395 H   0  0  0  0  0  0  0  0  0  0  0  0
    5.3793   -1.2758    1.1346 H   0  0  0  0  0  0  0  0  0  0  0  0
    6.4501   -1.5128   -0.2609 H   0  0  0  0  0  0  0  0  0  0  0  0
    5.0077   -6.2478    0.0624 H   0  0  0  0  0  0  0  0  0  0  0  0
    2.6383   -5.3057   -0.9086 H   0  0  0  0  0  0  0  0  0  0  0  0
    1.6362   -2.3844   -0.5457 H   0  0  0  0  0  0  0  0  0  0  0  0
    2.4784   -2.2302   -2.0926 H   0  0  0  0  0  0  0  0  0  0  0  0
  1  2  2  0
  2  3  1  0
  2 10  1  0
  3  4  1  0
  3 20  1  0
  3 21  1  0
  4  5  2  0
  4  9  1  0
  5  6  1  0
  5 22  1  0
  6  7  2  0
  6 23  1  0
  7  8  1  0
  8  9  2  0
  8 24  1  0
  9 25  1  0
 10 11  1  0
 10 19  1  0
 11 12  1  0
 11 26  1  0
 11 27  1  0
 12 13  1  0
 12 28  1  0
 12 29  1  0
 13 14  1  0
 13 18  2  0
 14 15  1  0
 14 16  1  0
 16 17  2  0
 16 30  1  0
 17 18  1  0
 17 31  1  0
 18 19  1  0
 19 32  1  0
 19 33  1  0
M  END

