
     RDKit          3D

 35 36  0  0  0  0  0  0  0  0999 V2000
    0.9928    1.6735   -1.9028 C   0  0  0  0  0  0  0  0  0  0  0  0
    2.4405    1.6059   -1.8819 N   0  0  0  0  0  0  0  0  0  0  0  0
    2.9989    1.0659   -0.6551 C   0  0  0  0  0  0  0  0  0  0  0  0
    4.5095    0.9534   -0.7057 C   0  0  0  0  0  0  0  0  0  0  0  0
    5.2904    1.1748    0.4383 C   0  0  0  0  0  0  0  0  0  0  0  0
    6.6780    1.0282    0.4084 C   0  0  0  0  0  0  0  0  0  0  0  0
    7.3094    0.6677   -0.7858 C   0  0  0  0  0  0  0  0  0  0  0  0
    8.6858    0.6044   -0.7639 O   0  0  0  0  0  0  0  0  0  0  0  0
    9.3755   -0.2442   -1.5823 C   0  0  0  0  0  0  0  0  0  0  0  0
    9.0572   -1.6083   -1.6686 C   0  0  0  0  0  0  0  0  0  0  0  0
    9.8185   -2.4699   -2.4500 C   0  0  0  0  0  0  0  0  0  0  0  0
    9.3533   -4.3097   -2.5451 Br  0  0  0  0  0  0  0  0  0  0  0  0
   10.9410   -1.9972   -3.1664 C   0  0  0  0  0  0  0  0  0  0  0  0
   11.6355   -2.8902   -3.9019 O   0  0  0  0  0  0  0  0  0  0  0  0
   12.7653   -2.4634   -4.6320 C   0  0  0  0  0  0  0  0  0  0  0  0
   11.2626   -0.6363   -3.0690 C   0  0  0  0  0  0  0  0  0  0  0  0
   10.4852    0.2300   -2.2919 C   0  0  0  0  0  0  0  0  0  0  0  0
   10.9561    2.0683   -2.1974 Br  0  0  0  0  0  0  0  0  0  0  0  0
    6.5531    0.4569   -1.9451 C   0  0  0  0  0  0  0  0  0  0  0  0
    5.1647    0.5961   -1.8942 C   0  0  0  0  0  0  0  0  0  0  0  0
    0.6512    2.1283   -2.8458 H   0  0  0  0  0  0  0  0  0  0  0  0
    0.5439    2.2512   -1.0632 H   0  0  0  0  0  0  0  0  0  0  0  0
    0.5688    0.6557   -1.8563 H   0  0  0  0  0  0  0  0  0  0  0  0
    2.8448    2.5229   -2.0694 H   0  0  0  0  0  0  0  0  0  0  0  0
    2.5634    0.0577   -0.5101 H   0  0  0  0  0  0  0  0  0  0  0  0
    2.7098    1.6428    0.2536 H   0  0  0  0  0  0  0  0  0  0  0  0
    4.8059    1.4663    1.3749 H   0  0  0  0  0  0  0  0  0  0  0  0
    7.2891    1.2010    1.2963 H   0  0  0  0  0  0  0  0  0  0  0  0
    8.2015   -1.9920   -1.1118 H   0  0  0  0  0  0  0  0  0  0  0  0
   13.1580   -3.3531   -5.1413 H   0  0  0  0  0  0  0  0  0  0  0  0
   13.5490   -2.0529   -3.9705 H   0  0  0  0  0  0  0  0  0  0  0  0
   12.5007   -1.7036   -5.3890 H   0  0  0  0  0  0  0  0  0  0  0  0
   12.1195   -0.2293   -3.6029 H   0  0  0  0  0  0  0  0  0  0  0  0
    7.0464    0.1919   -2.8822 H   0  0  0  0  0  0  0  0  0  0  0  0
    4.5666    0.4434   -2.7951 H   0  0  0  0  0  0  0  0  0  0  0  0
  1  2  1  0
  1 21  1  0
  1 22  1  0
  1 23  1  0
  2  3  1  0
  2 24  1  0
  3  4  1  0
  3 25  1  0
  3 26  1  0
  4  5  2  0
  4 20  1  0
  5  6  1  0
  5 27  1  0
  6  7  2  0
  6 28  1  0
  7  8  1  0
  7 19  1  0
  8  9  1  0
  9 10  2  0
  9 17  1  0
 10 11  1  0
 10 29  1  0
 11 12  1  0
 11 13  2  0
 13 14  1  0
 13 16  1  0
 14 15  1  0
 15 30  1  0
 15 31  1  0
 15 32  1  0
 16 17  2  0
 16 33  1  0
 17 18  1  0
 19 20  2  0
 19 34  1  0
 20 35  1  0
M  END

