
     RDKit          3D

 51 53  0  0  0  0  0  0  0  0999 V2000
    4.6373   -5.1226    3.9619 C   0  0  0  0  0  0  0  0  0  0  0  0
    4.8225   -3.8202    3.2012 C   0  0  0  0  0  0  0  0  0  0  0  0
    4.3386   -3.9190    1.8488 O   0  0  0  0  0  0  0  0  0  0  0  0
    5.1814   -4.4136    0.9208 C   0  0  0  0  0  0  0  0  0  0  0  0
    6.3058   -4.7740    1.1740 O   0  0  0  0  0  0  0  0  0  0  0  0
    4.5427   -4.5255   -0.4644 C   0  0  1  0  0  0  0  0  0  0  0  0
    3.2550   -3.7123   -0.6746 C   0  0  0  0  0  0  0  0  0  0  0  0
    3.5580   -2.2174   -0.8163 C   0  0  0  0  0  0  0  0  0  0  0  0
    4.6551   -1.9709   -1.8539 C   0  0  0  0  0  0  0  0  0  0  0  0
    5.8525   -2.7434   -1.5468 N   0  0  0  0  0  0  0  0  0  0  0  0
    7.0178   -2.3739   -2.3393 C   0  0  0  0  0  0  0  0  0  0  0  0
    7.6735   -1.0539   -1.8912 C   0  0  0  0  0  0  0  0  0  0  0  0
    8.9309   -0.7300   -2.6685 C   0  0  0  0  0  0  0  0  0  0  0  0
    8.8878    0.0686   -3.8213 C   0  0  0  0  0  0  0  0  0  0  0  0
   10.0337    0.3542   -4.5775 C   0  0  0  0  0  0  0  0  0  0  0  0
   11.2550   -0.1801   -4.1604 C   0  0  0  0  0  0  0  0  0  0  0  0
   11.3233   -0.9816   -3.0026 C   0  0  0  0  0  0  0  0  0  0  0  0
   10.1778   -1.2588   -2.2702 C   0  0  0  0  0  0  0  0  0  0  0  0
   12.7580   -1.4327   -2.8338 C   0  0  0  0  0  0  0  0  0  0  0  0
   13.5363   -0.4599   -3.7584 C   0  0  1  0  0  0  0  0  0  0  0  0
   14.7825   -1.0456   -4.4095 C   0  0  0  0  0  0  0  0  0  0  0  0
   12.5153   -0.0657   -4.7460 N   0  0  0  0  0  0  0  0  0  0  0  0
    5.5852   -4.1747   -1.5366 C   0  0  0  0  0  0  0  0  0  0  0  0
    4.9429   -4.9900    5.0123 H   0  0  0  0  0  0  0  0  0  0  0  0
    5.2554   -5.9206    3.5248 H   0  0  0  0  0  0  0  0  0  0  0  0
    3.5830   -5.4410    3.9486 H   0  0  0  0  0  0  0  0  0  0  0  0
    5.8820   -3.5256    3.1786 H   0  0  0  0  0  0  0  0  0  0  0  0
    4.2319   -3.0083    3.6501 H   0  0  0  0  0  0  0  0  0  0  0  0
    4.3075   -5.6013   -0.5668 H   0  0  0  0  0  0  0  0  0  0  0  0
    2.5442   -3.8934    0.1442 H   0  0  0  0  0  0  0  0  0  0  0  0
    2.7785   -4.0752   -1.6026 H   0  0  0  0  0  0  0  0  0  0  0  0
    3.8879   -1.8143    0.1551 H   0  0  0  0  0  0  0  0  0  0  0  0
    2.6461   -1.6677   -1.1037 H   0  0  0  0  0  0  0  0  0  0  0  0
    4.9104   -0.9007   -1.8741 H   0  0  0  0  0  0  0  0  0  0  0  0
    4.2689   -2.2230   -2.8725 H   0  0  0  0  0  0  0  0  0  0  0  0
    6.7795   -2.3153   -3.4265 H   0  0  0  0  0  0  0  0  0  0  0  0
    7.7645   -3.1772   -2.2358 H   0  0  0  0  0  0  0  0  0  0  0  0
    7.8957   -1.1407   -0.8151 H   0  0  0  0  0  0  0  0  0  0  0  0
    6.9553   -0.2246   -1.9983 H   0  0  0  0  0  0  0  0  0  0  0  0
    7.9296    0.4928   -4.1373 H   0  0  0  0  0  0  0  0  0  0  0  0
    9.9676    0.9855   -5.4676 H   0  0  0  0  0  0  0  0  0  0  0  0
   10.2380   -1.8789   -1.3697 H   0  0  0  0  0  0  0  0  0  0  0  0
   12.8783   -2.4727   -3.1926 H   0  0  0  0  0  0  0  0  0  0  0  0
   13.1214   -1.4018   -1.7954 H   0  0  0  0  0  0  0  0  0  0  0  0
   13.8324    0.4244   -3.1537 H   0  0  0  0  0  0  0  0  0  0  0  0
   14.5238   -1.9294   -5.0139 H   0  0  0  0  0  0  0  0  0  0  0  0
   15.5189   -1.3443   -3.6460 H   0  0  0  0  0  0  0  0  0  0  0  0
   15.2703   -0.3114   -5.0717 H   0  0  0  0  0  0  0  0  0  0  0  0
   12.7053    0.7674   -5.2937 H   0  0  0  0  0  0  0  0  0  0  0  0
    6.5191   -4.7093   -1.3137 H   0  0  0  0  0  0  0  0  0  0  0  0
    5.2154   -4.5376   -2.5252 H   0  0  0  0  0  0  0  0  0  0  0  0
  1  2  1  0
  1 24  1  0
  1 25  1  0
  1 26  1  0
  2  3  1  0
  2 27  1  0
  2 28  1  0
  3  4  1  0
  4  5  2  0
  4  6  1  0
  6  7  1  0
  6 23  1  0
  6 29  1  6
  7  8  1  0
  7 30  1  0
  7 31  1  0
  8  9  1  0
  8 32  1  0
  8 33  1  0
  9 10  1  0
  9 34  1  0
  9 35  1  0
 10 11  1  0
 10 23  1  0
 11 12  1  0
 11 36  1  0
 11 37  1  0
 12 13  1  0
 12 38  1  0
 12 39  1  0
 13 14  2  0
 13 18  1  0
 14 15  1  0
 14 40  1  0
 15 16  2  0
 15 41  1  0
 16 17  1  0
 16 22  1  0
 17 18  2  0
 17 19  1  0
 18 42  1  0
 19 20  1  0
 19 43  1  0
 19 44  1  0
 20 21  1  0
 20 22  1  0
 20 45  1  1
 21 46  1  0
 21 47  1  0
 21 48  1  0
 22 49  1  0
 23 50  1  0
 23 51  1  0
M  END

