
     RDKit          3D

 23 24  0  0  0  0  0  0  0  0999 V2000
    1.0087    0.9617    1.4639 O   0  0  0  0  0  0  0  0  0  0  0  0
    2.4084    0.7831    1.4253 C   0  0  0  0  0  0  0  0  0  0  0  0
    2.9538    1.8641    0.4963 C   0  0  0  0  0  0  0  0  0  0  0  0
    4.3925    1.7612    0.3193 N   0  0  0  0  0  0  0  0  0  0  0  0
    5.1738    1.7285    1.4108 N   0  0  0  0  0  0  0  0  0  0  0  0
    6.4144    1.5639    0.9618 C   0  0  0  0  0  0  0  0  0  0  0  0
    6.4482    1.4923   -0.4453 C   0  0  0  0  0  0  0  0  0  0  0  0
    5.1182    1.6293   -0.8420 C   0  0  0  0  0  0  0  0  0  0  0  0
    4.5528    1.6465   -2.1889 C   0  0  0  0  0  0  0  0  0  0  0  0
    3.6145    2.4898   -2.7527 C   0  0  0  0  0  0  0  0  0  0  0  0
    3.3553    2.2067   -4.1258 C   0  0  0  0  0  0  0  0  0  0  0  0
    4.0991    1.1552   -4.5999 C   0  0  0  0  0  0  0  0  0  0  0  0
    5.1154    0.4885   -3.3718 S   0  0  0  0  0  0  0  0  0  0  0  0
    0.6394    0.3578    2.1190 H   0  0  0  0  0  0  0  0  0  0  0  0
    2.6942   -0.2118    1.0263 H   0  0  0  0  0  0  0  0  0  0  0  0
    2.8784    0.8891    2.4194 H   0  0  0  0  0  0  0  0  0  0  0  0
    2.6961    2.8553    0.9044 H   0  0  0  0  0  0  0  0  0  0  0  0
    2.4744    1.7673   -0.4855 H   0  0  0  0  0  0  0  0  0  0  0  0
    7.2453    1.5105    1.6652 H   0  0  0  0  0  0  0  0  0  0  0  0
    7.3099    1.3877   -1.0999 H   0  0  0  0  0  0  0  0  0  0  0  0
    3.1502    3.3121   -2.2069 H   0  0  0  0  0  0  0  0  0  0  0  0
    2.6512    2.7703   -4.7400 H   0  0  0  0  0  0  0  0  0  0  0  0
    4.1058    0.7341   -5.6044 H   0  0  0  0  0  0  0  0  0  0  0  0
  1  2  1  0
  1 14  1  0
  2  3  1  0
  2 15  1  0
  2 16  1  0
  3  4  1  0
  3 17  1  0
  3 18  1  0
  4  5  1  0
  4  8  1  0
  5  6  2  0
  6  7  1  0
  6 19  1  0
  7  8  2  0
  7 20  1  0
  8  9  1  0
  9 10  2  0
  9 13  1  0
 10 11  1  0
 10 21  1  0
 11 12  2  0
 11 22  1  0
 12 13  1  0
 12 23  1  0
M  END

