
     RDKit          3D

 51 55  0  0  0  0  0  0  0  0999 V2000
    9.5646   -5.1857   19.6342 C   0  0  0  0  0  0  0  0  0  0  0  0
    9.2434   -4.0944   18.7378 N   0  0  0  0  0  0  0  0  0  0  0  0
    9.9908   -3.6107   17.7080 C   0  0  0  0  0  0  0  0  0  0  0  0
    9.2745   -2.5606   17.1415 C   0  0  0  0  0  0  0  0  0  0  0  0
    9.6413   -1.6858   15.9778 C   0  0  1  0  0  0  0  0  0  0  0  0
   10.9888   -0.9375   16.0766 C   0  0  0  0  0  0  0  0  0  0  0  0
   11.2474   -0.4732   14.6415 C   0  0  0  0  0  0  0  0  0  0  0  0
   10.6107   -1.5159   13.8270 N   0  0  0  0  0  0  0  0  0  0  0  0
   10.8680   -1.6029   12.4903 C   0  0  0  0  0  0  0  0  0  0  0  0
   11.6057   -0.8075   11.9229 O   0  0  0  0  0  0  0  0  0  0  0  0
   10.1885   -2.7458   11.7405 C   0  0  0  0  0  0  0  0  0  0  0  0
   10.6287   -2.7820   10.2763 C   0  0  0  0  0  0  0  0  0  0  0  0
    9.9869   -3.8609    9.5358 N   0  0  0  0  0  0  0  0  0  0  0  0
    8.7872   -3.7023    8.8446 C   0  0  0  0  0  0  0  0  0  0  0  0
    8.1630   -2.6704    8.7721 O   0  0  0  0  0  0  0  0  0  0  0  0
    8.4115   -5.0462    8.2280 C   0  0  2  0  0  0  0  0  0  0  0  0
    7.1657   -5.6748    8.9071 C   0  0  1  0  0  0  0  0  0  0  0  0
    6.7634   -6.9597    8.1512 C   0  0  0  0  0  0  0  0  0  0  0  0
    7.8848   -7.9394    8.6088 C   0  0  0  0  0  0  0  0  0  0  0  0
    8.7133   -7.0276    9.5397 C   0  0  2  0  0  0  0  0  0  0  0  0
    7.7176   -6.1826   10.1274 O   0  0  0  0  0  0  0  0  0  0  0  0
    9.5257   -6.0194    8.6844 C   0  0  2  0  0  0  0  0  0  0  0  0
   10.4641   -5.1687    9.5345 C   0  0  0  0  0  0  0  0  0  0  0  0
   11.4487   -5.5439   10.1273 O   0  0  0  0  0  0  0  0  0  0  0  0
    9.7774   -2.4161   14.6225 C   0  0  0  0  0  0  0  0  0  0  0  0
    8.0953   -2.5083   17.9288 C   0  0  0  0  0  0  0  0  0  0  0  0
    8.0884   -3.4336   18.8843 N   0  0  0  0  0  0  0  0  0  0  0  0
   10.5400   -5.6069   19.3569 H   0  0  0  0  0  0  0  0  0  0  0  0
    8.7979   -5.9722   19.5664 H   0  0  0  0  0  0  0  0  0  0  0  0
    9.6077   -4.8260   20.6734 H   0  0  0  0  0  0  0  0  0  0  0  0
   10.9597   -4.0414   17.4614 H   0  0  0  0  0  0  0  0  0  0  0  0
    8.8464   -0.9283   15.8649 H   0  0  0  0  0  0  0  0  0  0  0  0
   11.7782   -1.6361   16.4016 H   0  0  0  0  0  0  0  0  0  0  0  0
   10.9609   -0.1097   16.8001 H   0  0  0  0  0  0  0  0  0  0  0  0
   12.3130   -0.3839   14.3834 H   0  0  0  0  0  0  0  0  0  0  0  0
   10.7861    0.5100   14.4362 H   0  0  0  0  0  0  0  0  0  0  0  0
    9.0932   -2.6239   11.8001 H   0  0  0  0  0  0  0  0  0  0  0  0
   10.4238   -3.7063   12.2288 H   0  0  0  0  0  0  0  0  0  0  0  0
   11.7151   -2.9250   10.2118 H   0  0  0  0  0  0  0  0  0  0  0  0
   10.3744   -1.8372    9.7801 H   0  0  0  0  0  0  0  0  0  0  0  0
    8.2906   -4.9276    7.1419 H   0  0  0  0  0  0  0  0  0  0  0  0
    6.3579   -4.9636    9.1203 H   0  0  0  0  0  0  0  0  0  0  0  0
    6.7259   -6.8140    7.0617 H   0  0  0  0  0  0  0  0  0  0  0  0
    5.7715   -7.2990    8.4818 H   0  0  0  0  0  0  0  0  0  0  0  0
    8.4793   -8.3450    7.7771 H   0  0  0  0  0  0  0  0  0  0  0  0
    7.4737   -8.7868    9.1758 H   0  0  0  0  0  0  0  0  0  0  0  0
    9.2956   -7.5319   10.3210 H   0  0  0  0  0  0  0  0  0  0  0  0
   10.0992   -6.5053    7.8823 H   0  0  0  0  0  0  0  0  0  0  0  0
   10.2606   -3.4022   14.7613 H   0  0  0  0  0  0  0  0  0  0  0  0
    8.7970   -2.5966   14.1547 H   0  0  0  0  0  0  0  0  0  0  0  0
    7.2534   -1.8223   17.8263 H   0  0  0  0  0  0  0  0  0  0  0  0
  1  2  1  0
  1 28  1  0
  1 29  1  0
  1 30  1  0
  2  3  1  0
  2 27  1  0
  3  4  2  0
  3 31  1  0
  4  5  1  0
  4 26  1  0
  5  6  1  0
  5 25  1  0
  5 32  1  6
  6  7  1  0
  6 33  1  0
  6 34  1  0
  7  8  1  0
  7 35  1  0
  7 36  1  0
  8  9  1  0
  8 25  1  0
  9 10  2  0
  9 11  1  0
 11 12  1  0
 11 37  1  0
 11 38  1  0
 12 13  1  0
 12 39  1  0
 12 40  1  0
 13 14  1  0
 13 23  1  0
 14 15  2  0
 14 16  1  0
 16 17  1  0
 16 22  1  0
 16 41  1  6
 17 18  1  0
 17 21  1  0
 17 42  1  1
 18 19  1  0
 18 43  1  0
 18 44  1  0
 19 20  1  0
 19 45  1  0
 19 46  1  0
 20 21  1  0
 20 22  1  0
 20 47  1  1
 22 23  1  0
 22 48  1  6
 23 24  2  0
 25 49  1  0
 25 50  1  0
 26 27  2  0
 26 51  1  0
M  END

