
     RDKit          3D

 41 41  0  0  0  0  0  0  0  0999 V2000
    0.7206    0.4900    0.0570 C   0  0  0  0  0  0  0  0  0  0  0  0
    2.1992    0.1592   -0.0263 C   0  0  0  0  0  0  0  0  0  0  0  0
    2.9326    1.2304    0.5315 O   0  0  0  0  0  0  0  0  0  0  0  0
    4.3320    1.0663    0.5812 C   0  0  1  0  0  0  0  0  0  0  0  0
    4.9375    1.0082   -0.8123 C   0  0  0  0  0  0  0  0  0  0  0  0
    4.7300    1.8618   -1.7708 N   0  0  0  0  0  0  0  0  0  0  0  0
    5.4044    1.5412   -2.9264 C   0  0  0  0  0  0  0  0  0  0  0  0
    5.2825    2.4483   -4.1226 C   0  0  0  0  0  0  0  0  0  0  0  0
    6.0498    3.7683   -3.9598 C   0  0  0  0  0  0  0  0  0  0  0  0
    6.1720    0.3953   -2.8555 C   0  0  0  0  0  0  0  0  0  0  0  0
    7.0360   -0.2483   -3.9114 C   0  0  0  0  0  0  0  0  0  0  0  0
    6.2635   -0.5977   -5.1025 N   0  0  0  0  0  0  0  0  0  0  0  0
    6.0028   -0.3083   -1.2719 S   0  0  0  0  0  0  0  0  0  0  0  0
    4.9125    2.1905    1.4987 C   0  0  1  0  0  0  0  0  0  0  0  0
    4.3565    1.9675    2.9187 C   0  0  0  0  0  0  0  0  0  0  0  0
    6.4473    2.0900    1.5359 C   0  0  0  0  0  0  0  0  0  0  0  0
    4.4883    3.5803    0.9920 C   0  0  0  0  0  0  0  0  0  0  0  0
    0.1183   -0.3266   -0.3714 H   0  0  0  0  0  0  0  0  0  0  0  0
    0.5023    1.4138   -0.5006 H   0  0  0  0  0  0  0  0  0  0  0  0
    0.4113    0.6397    1.1032 H   0  0  0  0  0  0  0  0  0  0  0  0
    2.4946   -0.0076   -1.0802 H   0  0  0  0  0  0  0  0  0  0  0  0
    2.4212   -0.7798    0.5240 H   0  0  0  0  0  0  0  0  0  0  0  0
    4.5732    0.0979    1.0699 H   0  0  0  0  0  0  0  0  0  0  0  0
    4.2113    2.6708   -4.2652 H   0  0  0  0  0  0  0  0  0  0  0  0
    5.6173    1.9038   -5.0172 H   0  0  0  0  0  0  0  0  0  0  0  0
    5.7059    4.3159   -3.0684 H   0  0  0  0  0  0  0  0  0  0  0  0
    5.9022    4.4191   -4.8367 H   0  0  0  0  0  0  0  0  0  0  0  0
    7.1325    3.5928   -3.8485 H   0  0  0  0  0  0  0  0  0  0  0  0
    7.5753   -1.1014   -3.4491 H   0  0  0  0  0  0  0  0  0  0  0  0
    7.8200    0.4665   -4.2195 H   0  0  0  0  0  0  0  0  0  0  0  0
    5.5444   -1.2836   -4.8707 H   0  0  0  0  0  0  0  0  0  0  0  0
    6.8683   -1.0247   -5.8048 H   0  0  0  0  0  0  0  0  0  0  0  0
    4.6813    0.9960    3.3284 H   0  0  0  0  0  0  0  0  0  0  0  0
    3.2576    1.9868    2.9164 H   0  0  0  0  0  0  0  0  0  0  0  0
    4.7159    2.7550    3.6004 H   0  0  0  0  0  0  0  0  0  0  0  0
    6.7845    1.0852    1.8420 H   0  0  0  0  0  0  0  0  0  0  0  0
    6.8527    2.8109    2.2639 H   0  0  0  0  0  0  0  0  0  0  0  0
    6.8994    2.3150    0.5578 H   0  0  0  0  0  0  0  0  0  0  0  0
    3.3931    3.6736    0.9833 H   0  0  0  0  0  0  0  0  0  0  0  0
    4.8458    3.7607   -0.0315 H   0  0  0  0  0  0  0  0  0  0  0  0
    4.8995    4.3625    1.6512 H   0  0  0  0  0  0  0  0  0  0  0  0
  1  2  1  0
  1 18  1  0
  1 19  1  0
  1 20  1  0
  2  3  1  0
  2 21  1  0
  2 22  1  0
  3  4  1  0
  4  5  1  0
  4 14  1  0
  4 23  1  1
  5  6  2  0
  5 13  1  0
  6  7  1  0
  7  8  1  0
  7 10  2  0
  8  9  1  0
  8 24  1  0
  8 25  1  0
  9 26  1  0
  9 27  1  0
  9 28  1  0
 10 11  1  0
 10 13  1  0
 11 12  1  0
 11 29  1  0
 11 30  1  0
 12 31  1  0
 12 32  1  0
 14 15  1  1
 14 16  1  0
 14 17  1  0
 15 33  1  0
 15 34  1  0
 15 35  1  0
 16 36  1  0
 16 37  1  0
 16 38  1  0
 17 39  1  0
 17 40  1  0
 17 41  1  0
M  END

