
     RDKit          3D

 46 48  0  0  0  0  0  0  0  0999 V2000
    4.4764    0.3136   -4.4796 C   0  0  0  0  0  0  0  0  0  0  0  0
    5.8485   -0.2295   -4.1113 C   0  0  0  0  0  0  0  0  0  0  0  0
    6.7309   -0.3626   -4.9361 O   0  0  0  0  0  0  0  0  0  0  0  0
    6.0002   -0.5210   -2.7675 N   0  0  0  0  0  0  0  0  0  0  0  0
    7.1368   -0.9856   -2.0868 C   0  0  0  0  0  0  0  0  0  0  0  0
    8.3728   -1.2222   -2.7155 C   0  0  0  0  0  0  0  0  0  0  0  0
    9.4570   -1.6747   -1.9616 C   0  0  0  0  0  0  0  0  0  0  0  0
    9.3423   -1.9072   -0.5843 C   0  0  0  0  0  0  0  0  0  0  0  0
   10.7238   -2.5498    0.3644 S   0  0  0  0  0  0  0  0  0  0  0  0
   11.2734   -1.0552    1.2817 C   0  0  0  0  0  0  0  0  0  0  0  0
   12.0466    0.0345    0.5192 C   0  0  0  0  0  0  0  0  0  0  0  0
   12.1001    1.1601    0.9530 O   0  0  0  0  0  0  0  0  0  0  0  0
   12.6822   -0.4223   -0.6233 N   0  0  0  0  0  0  0  0  0  0  0  0
   13.4757    0.3004   -1.5004 C   0  0  0  0  0  0  0  0  0  0  0  0
   13.7399    1.5599   -1.4466 N   0  0  0  0  0  0  0  0  0  0  0  0
   14.5569    1.9720   -2.4837 C   0  0  0  0  0  0  0  0  0  0  0  0
   14.9339    3.4029   -2.5094 C   0  0  0  0  0  0  0  0  0  0  0  0
   14.8077    4.1542   -1.3227 C   0  0  0  0  0  0  0  0  0  0  0  0
   15.1535    5.5034   -1.2792 C   0  0  0  0  0  0  0  0  0  0  0  0
   15.6243    6.1307   -2.4366 C   0  0  0  0  0  0  0  0  0  0  0  0
   16.1019    7.9779   -2.3865 Br  0  0  0  0  0  0  0  0  0  0  0  0
   15.7361    5.4200   -3.6329 C   0  0  0  0  0  0  0  0  0  0  0  0
   15.3886    4.0675   -3.6641 C   0  0  0  0  0  0  0  0  0  0  0  0
   14.9496    0.9739   -3.3579 C   0  0  0  0  0  0  0  0  0  0  0  0
   15.8636    0.9915   -4.5474 C   0  0  0  0  0  0  0  0  0  0  0  0
   14.2287   -0.5430   -2.8573 S   0  0  0  0  0  0  0  0  0  0  0  0
    8.1017   -1.6893    0.0354 C   0  0  0  0  0  0  0  0  0  0  0  0
    7.0181   -1.2256   -0.7034 C   0  0  0  0  0  0  0  0  0  0  0  0
    4.2120   -0.0600   -5.4778 H   0  0  0  0  0  0  0  0  0  0  0  0
    4.5318    1.4130   -4.5415 H   0  0  0  0  0  0  0  0  0  0  0  0
    3.6848    0.0437   -3.7645 H   0  0  0  0  0  0  0  0  0  0  0  0
    5.1848   -0.3730   -2.1849 H   0  0  0  0  0  0  0  0  0  0  0  0
    8.4696   -1.0448   -3.7837 H   0  0  0  0  0  0  0  0  0  0  0  0
   10.4114   -1.8472   -2.4636 H   0  0  0  0  0  0  0  0  0  0  0  0
   11.9287   -1.4342    2.0841 H   0  0  0  0  0  0  0  0  0  0  0  0
   10.4192   -0.5643    1.7672 H   0  0  0  0  0  0  0  0  0  0  0  0
   12.5047   -1.4010   -0.8455 H   0  0  0  0  0  0  0  0  0  0  0  0
   14.4209    3.6575   -0.4316 H   0  0  0  0  0  0  0  0  0  0  0  0
   15.0543    6.0673   -0.3501 H   0  0  0  0  0  0  0  0  0  0  0  0
   16.0814    5.9200   -4.5393 H   0  0  0  0  0  0  0  0  0  0  0  0
   15.4487    3.5441   -4.6176 H   0  0  0  0  0  0  0  0  0  0  0  0
   16.7055    1.6806   -4.3830 H   0  0  0  0  0  0  0  0  0  0  0  0
   15.3462    1.3081   -5.4701 H   0  0  0  0  0  0  0  0  0  0  0  0
   16.2848   -0.0070   -4.7386 H   0  0  0  0  0  0  0  0  0  0  0  0
    7.9849   -1.8884    1.1032 H   0  0  0  0  0  0  0  0  0  0  0  0
    6.0597   -1.0554   -0.2036 H   0  0  0  0  0  0  0  0  0  0  0  0
  1  2  1  0
  1 29  1  0
  1 30  1  0
  1 31  1  0
  2  3  2  0
  2  4  1  0
  4  5  1  0
  4 32  1  0
  5  6  2  0
  5 28  1  0
  6  7  1  0
  6 33  1  0
  7  8  2  0
  7 34  1  0
  8  9  1  0
  8 27  1  0
  9 10  1  0
 10 11  1  0
 10 35  1  0
 10 36  1  0
 11 12  2  0
 11 13  1  0
 13 14  1  0
 13 37  1  0
 14 15  2  0
 14 26  1  0
 15 16  1  0
 16 17  1  0
 16 24  2  0
 17 18  2  0
 17 23  1  0
 18 19  1  0
 18 38  1  0
 19 20  2  0
 19 39  1  0
 20 21  1  0
 20 22  1  0
 22 23  2  0
 22 40  1  0
 23 41  1  0
 24 25  1  0
 24 26  1  0
 25 42  1  0
 25 43  1  0
 25 44  1  0
 27 28  2  0
 27 45  1  0
 28 46  1  0
M  END

