
     RDKit          3D

 60 63  0  0  0  0  0  0  0  0999 V2000
    1.5843    0.1244   -0.6904 C   0  0  0  0  0  0  0  0  0  0  0  0
    3.0107    0.2760   -0.2478 C   0  0  0  0  0  0  0  0  0  0  0  0
    3.6130    1.5000   -0.0643 C   0  0  0  0  0  0  0  0  0  0  0  0
    4.9665    1.5974    0.3566 C   0  0  0  0  0  0  0  0  0  0  0  0
    5.6778    0.4538    0.5742 C   0  0  0  0  0  0  0  0  0  0  0  0
    5.0956   -0.7786    0.4017 N   0  0  0  0  0  0  0  0  0  0  0  0
    5.9665   -1.9480    0.5956 C   0  0  0  0  0  0  0  0  0  0  0  0
    7.1479   -1.7437    0.7895 O   0  0  0  0  0  0  0  0  0  0  0  0
    5.2886   -3.2121    0.4542 C   0  0  0  0  0  0  0  0  0  0  0  0
    6.0863   -4.4234    0.3748 C   0  0  0  0  0  0  0  0  0  0  0  0
    7.1594   -4.7786    1.1304 C   0  0  0  0  0  0  0  0  0  0  0  0
    8.2418   -6.1209    0.7310 S   0  0  0  0  0  0  0  0  0  0  0  0
    9.2353   -5.8591    2.1731 C   0  0  0  0  0  0  0  0  0  0  0  0
   10.6266   -6.7028    2.4279 S   0  0  0  0  0  0  0  0  0  0  0  0
    8.6819   -4.8698    2.9549 N   0  0  0  0  0  0  0  0  0  0  0  0
    9.2836   -4.4061    4.2138 C   0  0  0  0  0  0  0  0  0  0  0  0
    8.7522   -5.0424    5.5182 C   0  0  1  0  0  0  0  0  0  0  0  0
    7.2726   -4.7449    5.7949 C   0  0  0  0  0  0  0  0  0  0  0  0
    9.0441   -6.5433    5.6393 C   0  0  0  0  0  0  0  0  0  0  0  0
    7.5472   -4.1978    2.4387 C   0  0  0  0  0  0  0  0  0  0  0  0
    6.9754   -3.3186    3.0442 O   0  0  0  0  0  0  0  0  0  0  0  0
    3.9073   -3.2262    0.1317 C   0  0  0  0  0  0  0  0  0  0  0  0
    3.2062   -4.4150    0.0382 N   0  0  0  0  0  0  0  0  0  0  0  0
    1.8925   -4.4242   -0.6024 C   0  0  0  0  0  0  0  0  0  0  0  0
    1.6150   -5.8131   -1.1892 C   0  0  2  0  0  0  0  0  0  0  0  0
    0.2189   -5.9269   -1.7786 C   0  0  0  0  0  0  0  0  0  0  0  0
    1.7429   -6.8150   -0.1912 O   0  0  0  0  0  0  0  0  0  0  0  0
    3.0179   -6.8389    0.4327 C   0  0  2  0  0  0  0  0  0  0  0  0
    3.0108   -7.9561    1.4623 C   0  0  0  0  0  0  0  0  0  0  0  0
    3.3226   -5.4716    1.0484 C   0  0  0  0  0  0  0  0  0  0  0  0
    3.2036   -2.1069   -0.1213 N   0  0  0  0  0  0  0  0  0  0  0  0
    3.7745   -0.9216    0.0043 C   0  0  0  0  0  0  0  0  0  0  0  0
    1.1068    1.1053   -0.8250 H   0  0  0  0  0  0  0  0  0  0  0  0
    1.0069   -0.4597    0.0434 H   0  0  0  0  0  0  0  0  0  0  0  0
    1.5238   -0.4324   -1.6392 H   0  0  0  0  0  0  0  0  0  0  0  0
    3.0388    2.4123   -0.2456 H   0  0  0  0  0  0  0  0  0  0  0  0
    5.4429    2.5672    0.5043 H   0  0  0  0  0  0  0  0  0  0  0  0
    6.7224    0.4059    0.8799 H   0  0  0  0  0  0  0  0  0  0  0  0
    5.7994   -5.1072   -0.4353 H   0  0  0  0  0  0  0  0  0  0  0  0
    9.1086   -3.3212    4.2465 H   0  0  0  0  0  0  0  0  0  0  0  0
   10.3630   -4.5938    4.1255 H   0  0  0  0  0  0  0  0  0  0  0  0
    9.3407   -4.5293    6.3028 H   0  0  0  0  0  0  0  0  0  0  0  0
    6.6168   -5.2672    5.0794 H   0  0  0  0  0  0  0  0  0  0  0  0
    7.0462   -3.6718    5.7197 H   0  0  0  0  0  0  0  0  0  0  0  0
    6.9992   -5.0920    6.8048 H   0  0  0  0  0  0  0  0  0  0  0  0
    8.4849   -7.1249    4.8882 H   0  0  0  0  0  0  0  0  0  0  0  0
    8.7398   -6.9098    6.6334 H   0  0  0  0  0  0  0  0  0  0  0  0
   10.1112   -6.7681    5.4983 H   0  0  0  0  0  0  0  0  0  0  0  0
    1.8720   -3.6635   -1.3917 H   0  0  0  0  0  0  0  0  0  0  0  0
    1.0984   -4.1681    0.1268 H   0  0  0  0  0  0  0  0  0  0  0  0
    2.3718   -5.9978   -1.9815 H   0  0  0  0  0  0  0  0  0  0  0  0
   -0.5419   -5.7391   -1.0046 H   0  0  0  0  0  0  0  0  0  0  0  0
    0.0596   -6.9406   -2.1744 H   0  0  0  0  0  0  0  0  0  0  0  0
    0.0765   -5.2040   -2.5967 H   0  0  0  0  0  0  0  0  0  0  0  0
    3.7921   -7.0452   -0.3371 H   0  0  0  0  0  0  0  0  0  0  0  0
    2.2603   -7.7576    2.2435 H   0  0  0  0  0  0  0  0  0  0  0  0
    3.9983   -8.0591    1.9378 H   0  0  0  0  0  0  0  0  0  0  0  0
    2.7542   -8.9094    0.9777 H   0  0  0  0  0  0  0  0  0  0  0  0
    4.3212   -5.4676    1.4981 H   0  0  0  0  0  0  0  0  0  0  0  0
    2.5869   -5.2808    1.8562 H   0  0  0  0  0  0  0  0  0  0  0  0
  1  2  1  0
  1 33  1  0
  1 34  1  0
  1 35  1  0
  2  3  2  0
  2 32  1  0
  3  4  1  0
  3 36  1  0
  4  5  2  0
  4 37  1  0
  5  6  1  0
  5 38  1  0
  6  7  1  0
  6 32  1  0
  7  8  2  0
  7  9  1  0
  9 10  1  0
  9 22  2  0
 10 11  2  0
 10 39  1  0
 11 12  1  0
 11 20  1  0
 12 13  1  0
 13 14  2  0
 13 15  1  0
 15 16  1  0
 15 20  1  0
 16 17  1  0
 16 40  1  0
 16 41  1  0
 17 18  1  0
 17 19  1  0
 17 42  1  1
 18 43  1  0
 18 44  1  0
 18 45  1  0
 19 46  1  0
 19 47  1  0
 19 48  1  0
 20 21  2  0
 22 23  1  0
 22 31  1  0
 23 24  1  0
 23 30  1  0
 24 25  1  0
 24 49  1  0
 24 50  1  0
 25 26  1  0
 25 27  1  0
 25 51  1  6
 26 52  1  0
 26 53  1  0
 26 54  1  0
 27 28  1  0
 28 29  1  0
 28 30  1  0
 28 55  1  6
 29 56  1  0
 29 57  1  0
 29 58  1  0
 30 59  1  0
 30 60  1  0
 31 32  2  0
M  END

