
     RDKit          3D

 52 55  0  0  0  0  0  0  0  0999 V2000
    1.3757    1.6835    2.9378 C   0  0  0  0  0  0  0  0  0  0  0  0
    1.9132    0.6438    2.1516 O   0  0  0  0  0  0  0  0  0  0  0  0
    2.7386   -0.2658    2.7248 C   0  0  0  0  0  0  0  0  0  0  0  0
    3.2459   -1.2664    1.8761 C   0  0  0  0  0  0  0  0  0  0  0  0
    4.0957   -2.2468    2.3716 C   0  0  0  0  0  0  0  0  0  0  0  0
    4.4703   -2.2677    3.7310 C   0  0  0  0  0  0  0  0  0  0  0  0
    5.4018   -3.2777    4.2847 C   0  0  0  0  0  0  0  0  0  0  0  0
    6.2676   -2.8849    5.2703 N   0  0  0  0  0  0  0  0  0  0  0  0
    7.0791   -3.8352    5.6468 C   0  0  0  0  0  0  0  0  0  0  0  0
    8.1294   -3.6677    6.6645 C   0  0  0  0  0  0  0  0  0  0  0  0
    8.9187   -4.8288    6.9591 C   0  0  0  0  0  0  0  0  0  0  0  0
    9.5426   -5.7848    7.1762 N   0  0  0  0  0  0  0  0  0  0  0  0
    8.3056   -2.4530    7.2677 C   0  0  0  0  0  0  0  0  0  0  0  0
    9.2381   -2.0029    8.2918 C   0  0  0  0  0  0  0  0  0  0  0  0
   10.2117   -2.8096    8.9275 C   0  0  0  0  0  0  0  0  0  0  0  0
   11.0559   -2.2793    9.8955 C   0  0  0  0  0  0  0  0  0  0  0  0
   10.9593   -0.9228   10.2652 C   0  0  0  0  0  0  0  0  0  0  0  0
   11.8331   -0.3791   11.2655 C   0  0  0  0  0  0  0  0  0  0  0  0
   12.5394    0.0623   12.0749 N   0  0  0  0  0  0  0  0  0  0  0  0
    9.9959   -0.1060    9.6433 C   0  0  0  0  0  0  0  0  0  0  0  0
    9.1553   -0.6434    8.6770 C   0  0  0  0  0  0  0  0  0  0  0  0
    6.8222   -5.3503    4.8101 S   0  0  0  0  0  0  0  0  0  0  0  0
    5.5308   -4.6145    3.8973 C   0  0  0  0  0  0  0  0  0  0  0  0
    4.7446   -5.4407    2.9645 C   0  0  0  0  0  0  0  0  0  0  0  0
    3.3323   -5.3980    2.9650 C   0  0  0  0  0  0  0  0  0  0  0  0
    2.5899   -6.1991    2.1096 C   0  0  0  0  0  0  0  0  0  0  0  0
    3.2309   -7.0833    1.2209 C   0  0  0  0  0  0  0  0  0  0  0  0
    2.4219   -7.8234    0.4275 O   0  0  0  0  0  0  0  0  0  0  0  0
    2.9906   -8.7404   -0.4817 C   0  0  0  0  0  0  0  0  0  0  0  0
    4.6327   -7.1467    1.2123 C   0  0  0  0  0  0  0  0  0  0  0  0
    5.3697   -6.3324    2.0768 C   0  0  0  0  0  0  0  0  0  0  0  0
    3.9723   -1.2521    4.5621 C   0  0  0  0  0  0  0  0  0  0  0  0
    3.1125   -0.2631    4.0778 C   0  0  0  0  0  0  0  0  0  0  0  0
    0.7478    2.2885    2.2700 H   0  0  0  0  0  0  0  0  0  0  0  0
    2.1659    2.3270    3.3654 H   0  0  0  0  0  0  0  0  0  0  0  0
    0.7501    1.2953    3.7618 H   0  0  0  0  0  0  0  0  0  0  0  0
    2.9619   -1.2443    0.8221 H   0  0  0  0  0  0  0  0  0  0  0  0
    4.4900   -2.9999    1.6878 H   0  0  0  0  0  0  0  0  0  0  0  0
    7.6138   -1.6886    6.9028 H   0  0  0  0  0  0  0  0  0  0  0  0
   10.3147   -3.8620    8.6676 H   0  0  0  0  0  0  0  0  0  0  0  0
   11.8011   -2.9160   10.3759 H   0  0  0  0  0  0  0  0  0  0  0  0
    9.9145    0.9456    9.9240 H   0  0  0  0  0  0  0  0  0  0  0  0
    8.4105   -0.0022    8.1994 H   0  0  0  0  0  0  0  0  0  0  0  0
    2.8154   -4.7305    3.6568 H   0  0  0  0  0  0  0  0  0  0  0  0
    1.4986   -6.1699    2.1132 H   0  0  0  0  0  0  0  0  0  0  0  0
    2.1535   -9.2209   -1.0054 H   0  0  0  0  0  0  0  0  0  0  0  0
    3.5826   -9.5171    0.0349 H   0  0  0  0  0  0  0  0  0  0  0  0
    3.6350   -8.2364   -1.2242 H   0  0  0  0  0  0  0  0  0  0  0  0
    5.1622   -7.8191    0.5372 H   0  0  0  0  0  0  0  0  0  0  0  0
    6.4610   -6.3869    2.0485 H   0  0  0  0  0  0  0  0  0  0  0  0
    4.2679   -1.2388    5.6127 H   0  0  0  0  0  0  0  0  0  0  0  0
    2.7438    0.5018    4.7615 H   0  0  0  0  0  0  0  0  0  0  0  0
  1  2  1  0
  1 34  1  0
  1 35  1  0
  1 36  1  0
  2  3  1  0
  3  4  2  0
  3 33  1  0
  4  5  1  0
  4 37  1  0
  5  6  2  0
  5 38  1  0
  6  7  1  0
  6 32  1  0
  7  8  1  0
  7 23  2  0
  8  9  2  0
  9 10  1  0
  9 22  1  0
 10 11  1  0
 10 13  2  0
 11 12  3  0
 13 14  1  0
 13 39  1  0
 14 15  2  0
 14 21  1  0
 15 16  1  0
 15 40  1  0
 16 17  2  0
 16 41  1  0
 17 18  1  0
 17 20  1  0
 18 19  3  0
 20 21  2  0
 20 42  1  0
 21 43  1  0
 22 23  1  0
 23 24  1  0
 24 25  2  0
 24 31  1  0
 25 26  1  0
 25 44  1  0
 26 27  2  0
 26 45  1  0
 27 28  1  0
 27 30  1  0
 28 29  1  0
 29 46  1  0
 29 47  1  0
 29 48  1  0
 30 31  2  0
 30 49  1  0
 31 50  1  0
 32 33  2  0
 32 51  1  0
 33 52  1  0
M  END

