
     RDKit          3D

 36 35  0  0  0  0  0  0  0  0999 V2000
    4.4908    6.2577    1.9138 C   0  0  0  0  0  0  0  0  0  0  0  0
    5.0224    5.1111    2.3448 C   0  0  0  0  0  0  0  0  0  0  0  0
    5.6010    4.0478    1.4492 C   0  0  0  0  0  0  0  0  0  0  0  0
    4.9397    2.7699    1.6579 N   0  0  0  0  0  0  0  0  0  0  0  0
    5.4154    1.4829    1.5650 C   0  0  0  0  0  0  0  0  0  0  0  0
    4.6342    0.5450    1.5800 O   0  0  0  0  0  0  0  0  0  0  0  0
    6.9401    1.2012    1.4495 C   0  0  1  0  0  0  0  0  0  0  0  0
    7.4622    1.5080    0.0419 C   0  0  0  0  0  0  0  0  0  0  0  0
    7.8146    1.7726    2.4587 N   0  0  0  0  0  0  0  0  0  0  0  0
    7.4452    1.5812    3.8510 C   0  0  0  0  0  0  0  0  0  0  0  0
    8.5537    2.0501    4.7933 C   0  0  0  0  0  0  0  0  0  0  0  0
    8.2333    1.8329    6.2741 C   0  0  0  0  0  0  0  0  0  0  0  0
    9.3376    2.3124    7.2216 C   0  0  0  0  0  0  0  0  0  0  0  0
    9.0154    2.0878    8.6995 C   0  0  0  0  0  0  0  0  0  0  0  0
    4.0918    7.0008    2.6095 H   0  0  0  0  0  0  0  0  0  0  0  0
    4.4388    6.4997    0.8467 H   0  0  0  0  0  0  0  0  0  0  0  0
    5.0508    4.8893    3.4189 H   0  0  0  0  0  0  0  0  0  0  0  0
    6.6685    3.9297    1.6803 H   0  0  0  0  0  0  0  0  0  0  0  0
    5.5364    4.3780    0.3942 H   0  0  0  0  0  0  0  0  0  0  0  0
    3.9227    2.7955    1.6832 H   0  0  0  0  0  0  0  0  0  0  0  0
    6.9591    0.1061    1.5806 H   0  0  0  0  0  0  0  0  0  0  0  0
    7.4583    2.5878   -0.1800 H   0  0  0  0  0  0  0  0  0  0  0  0
    6.8474    1.0044   -0.7189 H   0  0  0  0  0  0  0  0  0  0  0  0
    8.4989    1.1499   -0.0497 H   0  0  0  0  0  0  0  0  0  0  0  0
    8.0793    2.7347    2.2619 H   0  0  0  0  0  0  0  0  0  0  0  0
    7.2634    0.5023    4.0054 H   0  0  0  0  0  0  0  0  0  0  0  0
    6.4922    2.0870    4.1262 H   0  0  0  0  0  0  0  0  0  0  0  0
    8.7469    3.1260    4.6171 H   0  0  0  0  0  0  0  0  0  0  0  0
    9.4871    1.5262    4.5236 H   0  0  0  0  0  0  0  0  0  0  0  0
    8.0430    0.7581    6.4521 H   0  0  0  0  0  0  0  0  0  0  0  0
    7.2881    2.3490    6.5267 H   0  0  0  0  0  0  0  0  0  0  0  0
    9.5264    3.3871    7.0439 H   0  0  0  0  0  0  0  0  0  0  0  0
   10.2817    1.7975    6.9667 H   0  0  0  0  0  0  0  0  0  0  0  0
    8.0959    2.6204    8.9953 H   0  0  0  0  0  0  0  0  0  0  0  0
    9.8297    2.4441    9.3506 H   0  0  0  0  0  0  0  0  0  0  0  0
    8.8593    1.0180    8.9177 H   0  0  0  0  0  0  0  0  0  0  0  0
  1  2  2  0
  1 15  1  0
  1 16  1  0
  2  3  1  0
  2 17  1  0
  3  4  1  0
  3 18  1  0
  3 19  1  0
  4  5  1  0
  4 20  1  0
  5  6  2  0
  5  7  1  0
  7  8  1  0
  7  9  1  0
  7 21  1  1
  8 22  1  0
  8 23  1  0
  8 24  1  0
  9 10  1  0
  9 25  1  0
 10 11  1  0
 10 26  1  0
 10 27  1  0
 11 12  1  0
 11 28  1  0
 11 29  1  0
 12 13  1  0
 12 30  1  0
 12 31  1  0
 13 14  1  0
 13 32  1  0
 13 33  1  0
 14 34  1  0
 14 35  1  0
 14 36  1  0
M  END

