
     RDKit          3D

 44 44  0  0  0  0  0  0  0  0999 V2000
    0.9552    0.2434   -0.8113 C   0  0  0  0  0  0  0  0  0  0  0  0
    2.4687    0.2076   -0.5949 C   0  0  0  0  0  0  0  0  0  0  0  0
    2.9318    0.9920    0.6368 C   0  0  0  0  0  0  0  0  0  0  0  0
    4.4463    0.9610    0.8609 C   0  0  0  0  0  0  0  0  0  0  0  0
    4.9090    1.7475    2.0919 C   0  0  0  0  0  0  0  0  0  0  0  0
    6.4255    1.7063    2.3117 C   0  0  0  0  0  0  0  0  0  0  0  0
    6.9563    2.5798    3.4711 C   0  0  1  0  0  0  0  0  0  0  0  0
    6.4465    2.1116    4.8381 C   0  0  0  0  0  0  0  0  0  0  0  0
    8.4177    2.6562    3.5347 N   0  0  0  0  0  0  0  0  0  0  0  0
    9.1648    3.2704    2.4383 C   0  0  1  0  0  0  0  0  0  0  0  0
    8.7922    4.7471    2.2626 C   0  0  0  0  0  0  0  0  0  0  0  0
   10.6640    3.0793    2.7075 C   0  0  1  0  0  0  0  0  0  0  0  0
   11.2060    3.7406    3.9641 C   0  0  0  0  0  0  0  0  0  0  0  0
   11.2537    1.7452    2.2995 C   0  0  0  0  0  0  0  0  0  0  0  0
   11.5703    2.9907    1.5055 C   0  0  0  0  0  0  0  0  0  0  0  0
    0.6590   -0.3302   -1.7041 H   0  0  0  0  0  0  0  0  0  0  0  0
    0.5935    1.2769   -0.9453 H   0  0  0  0  0  0  0  0  0  0  0  0
    0.4163   -0.1830    0.0516 H   0  0  0  0  0  0  0  0  0  0  0  0
    2.9791    0.6057   -1.4909 H   0  0  0  0  0  0  0  0  0  0  0  0
    2.8036   -0.8419   -0.5029 H   0  0  0  0  0  0  0  0  0  0  0  0
    2.4216    0.5943    1.5343 H   0  0  0  0  0  0  0  0  0  0  0  0
    2.5975    2.0427    0.5458 H   0  0  0  0  0  0  0  0  0  0  0  0
    4.9561    1.3561   -0.0377 H   0  0  0  0  0  0  0  0  0  0  0  0
    4.7796   -0.0895    0.9541 H   0  0  0  0  0  0  0  0  0  0  0  0
    4.3857    1.3564    2.9821 H   0  0  0  0  0  0  0  0  0  0  0  0
    4.5847    2.8006    1.9920 H   0  0  0  0  0  0  0  0  0  0  0  0
    6.9188    2.0240    1.3764 H   0  0  0  0  0  0  0  0  0  0  0  0
    6.7477    0.6609    2.4830 H   0  0  0  0  0  0  0  0  0  0  0  0
    6.5831    3.6072    3.3132 H   0  0  0  0  0  0  0  0  0  0  0  0
    6.7761    1.0778    5.0446 H   0  0  0  0  0  0  0  0  0  0  0  0
    5.3480    2.1282    4.8983 H   0  0  0  0  0  0  0  0  0  0  0  0
    6.8496    2.7579    5.6316 H   0  0  0  0  0  0  0  0  0  0  0  0
    8.7990    1.7282    3.7195 H   0  0  0  0  0  0  0  0  0  0  0  0
    8.9648    2.7713    1.4630 H   0  0  0  0  0  0  0  0  0  0  0  0
    8.8773    5.2923    3.2152 H   0  0  0  0  0  0  0  0  0  0  0  0
    7.7600    4.8665    1.8990 H   0  0  0  0  0  0  0  0  0  0  0  0
    9.4571    5.2216    1.5243 H   0  0  0  0  0  0  0  0  0  0  0  0
   10.6220    3.4344    4.8452 H   0  0  0  0  0  0  0  0  0  0  0  0
   11.1575    4.8395    3.8937 H   0  0  0  0  0  0  0  0  0  0  0  0
   12.2597    3.4671    4.1310 H   0  0  0  0  0  0  0  0  0  0  0  0
   10.5931    1.0037    1.8383 H   0  0  0  0  0  0  0  0  0  0  0  0
   12.0409    1.3129    2.9246 H   0  0  0  0  0  0  0  0  0  0  0  0
   11.1267    3.0885    0.5097 H   0  0  0  0  0  0  0  0  0  0  0  0
   12.5750    3.4159    1.5885 H   0  0  0  0  0  0  0  0  0  0  0  0
  1  2  1  0
  1 16  1  0
  1 17  1  0
  1 18  1  0
  2  3  1  0
  2 19  1  0
  2 20  1  0
  3  4  1  0
  3 21  1  0
  3 22  1  0
  4  5  1  0
  4 23  1  0
  4 24  1  0
  5  6  1  0
  5 25  1  0
  5 26  1  0
  6  7  1  0
  6 27  1  0
  6 28  1  0
  7  8  1  0
  7  9  1  0
  7 29  1  6
  8 30  1  0
  8 31  1  0
  8 32  1  0
  9 10  1  0
  9 33  1  0
 10 11  1  0
 10 12  1  0
 10 34  1  6
 11 35  1  0
 11 36  1  0
 11 37  1  0
 12 13  1  1
 12 14  1  0
 12 15  1  0
 13 38  1  0
 13 39  1  0
 13 40  1  0
 14 15  1  0
 14 41  1  0
 14 42  1  0
 15 43  1  0
 15 44  1  0
M  END

