
     RDKit          3D

 41 41  0  0  0  0  0  0  0  0999 V2000
    1.2847   -0.2547    0.9823 C   0  0  0  0  0  0  0  0  0  0  0  0
    2.6709   -0.0664    0.3666 C   0  0  0  0  0  0  0  0  0  0  0  0
    3.1004    1.3926    0.3210 C   0  0  0  0  0  0  0  0  0  0  0  0
    4.3879    1.4595   -0.2629 O   0  0  0  0  0  0  0  0  0  0  0  0
    4.9945    2.6660   -0.4196 C   0  0  0  0  0  0  0  0  0  0  0  0
    4.4453    3.8938   -0.0371 C   0  0  0  0  0  0  0  0  0  0  0  0
    5.1795    5.0682   -0.2526 C   0  0  0  0  0  0  0  0  0  0  0  0
    6.4497    5.0689   -0.8370 C   0  0  0  0  0  0  0  0  0  0  0  0
    7.2351    6.3411   -1.1109 C   0  0  0  0  0  0  0  0  0  0  0  0
    6.7649    7.6390   -0.4320 C   0  0  1  0  0  0  0  0  0  0  0  0
    7.0144    7.6202    1.0825 C   0  0  0  0  0  0  0  0  0  0  0  0
    7.4637    8.8787   -1.0537 C   0  0  0  0  0  0  0  0  0  0  0  0
    7.0854    9.1669   -2.4945 C   0  0  0  0  0  0  0  0  0  0  0  0
    5.8425    9.6673   -2.6607 N   0  0  0  0  0  0  0  0  0  0  0  0
    8.0953    8.8771   -3.7784 S   0  0  0  0  0  0  0  0  0  0  0  0
    6.9965    3.8168   -1.2300 C   0  0  0  0  0  0  0  0  0  0  0  0
    8.3524    3.7346   -1.8896 C   0  0  0  0  0  0  0  0  0  0  0  0
    6.2668    2.6472   -1.0148 C   0  0  0  0  0  0  0  0  0  0  0  0
    1.0015   -1.3183    1.0025 H   0  0  0  0  0  0  0  0  0  0  0  0
    0.5099    0.2827    0.4101 H   0  0  0  0  0  0  0  0  0  0  0  0
    1.2476    0.1169    2.0202 H   0  0  0  0  0  0  0  0  0  0  0  0
    2.6938   -0.4674   -0.6608 H   0  0  0  0  0  0  0  0  0  0  0  0
    3.4260   -0.6332    0.9371 H   0  0  0  0  0  0  0  0  0  0  0  0
    3.1195    1.8222    1.3421 H   0  0  0  0  0  0  0  0  0  0  0  0
    2.3792    1.9898   -0.2710 H   0  0  0  0  0  0  0  0  0  0  0  0
    3.4602    3.9575    0.4250 H   0  0  0  0  0  0  0  0  0  0  0  0
    4.7218    6.0109    0.0537 H   0  0  0  0  0  0  0  0  0  0  0  0
    7.2695    6.5013   -2.2032 H   0  0  0  0  0  0  0  0  0  0  0  0
    8.2910    6.1833   -0.8268 H   0  0  0  0  0  0  0  0  0  0  0  0
    5.6797    7.7553   -0.6055 H   0  0  0  0  0  0  0  0  0  0  0  0
    8.0966    7.5912    1.2946 H   0  0  0  0  0  0  0  0  0  0  0  0
    6.5614    6.7375    1.5571 H   0  0  0  0  0  0  0  0  0  0  0  0
    6.6034    8.5184    1.5721 H   0  0  0  0  0  0  0  0  0  0  0  0
    8.5537    8.7515   -1.0067 H   0  0  0  0  0  0  0  0  0  0  0  0
    7.2091    9.7642   -0.4424 H   0  0  0  0  0  0  0  0  0  0  0  0
    5.2343    9.8711   -1.8762 H   0  0  0  0  0  0  0  0  0  0  0  0
    5.5138    9.8628   -3.5998 H   0  0  0  0  0  0  0  0  0  0  0  0
    8.3965    4.3416   -2.8092 H   0  0  0  0  0  0  0  0  0  0  0  0
    8.6020    2.6978   -2.1569 H   0  0  0  0  0  0  0  0  0  0  0  0
    9.1517    4.1123   -1.2293 H   0  0  0  0  0  0  0  0  0  0  0  0
    6.6736    1.6776   -1.3120 H   0  0  0  0  0  0  0  0  0  0  0  0
  1  2  1  0
  1 19  1  0
  1 20  1  0
  1 21  1  0
  2  3  1  0
  2 22  1  0
  2 23  1  0
  3  4  1  0
  3 24  1  0
  3 25  1  0
  4  5  1  0
  5  6  2  0
  5 18  1  0
  6  7  1  0
  6 26  1  0
  7  8  2  0
  7 27  1  0
  8  9  1  0
  8 16  1  0
  9 10  1  0
  9 28  1  0
  9 29  1  0
 10 11  1  0
 10 12  1  0
 10 30  1  1
 11 31  1  0
 11 32  1  0
 11 33  1  0
 12 13  1  0
 12 34  1  0
 12 35  1  0
 13 14  1  0
 13 15  2  0
 14 36  1  0
 14 37  1  0
 16 17  1  0
 16 18  2  0
 17 38  1  0
 17 39  1  0
 17 40  1  0
 18 41  1  0
M  END

