
     RDKit          3D

 26 27  0  0  0  0  0  0  0  0999 V2000
    1.0692    0.3382   -0.1571 C   0  0  0  0  0  0  0  0  0  0  0  0
    2.4625    0.0918    0.0108 O   0  0  0  0  0  0  0  0  0  0  0  0
    3.1532    0.8934    0.8786 C   0  0  0  0  0  0  0  0  0  0  0  0
    4.0968    0.2410    1.7117 C   0  0  0  0  0  0  0  0  0  0  0  0
    4.2028   -1.1008    1.5913 O   0  0  0  0  0  0  0  0  0  0  0  0
    4.9130    0.9427    2.6302 C   0  0  0  0  0  0  0  0  0  0  0  0
    5.9207    0.1679    3.3828 C   0  0  0  0  0  0  0  0  0  0  0  0
    6.6071    0.5775    4.2981 O   0  0  0  0  0  0  0  0  0  0  0  0
    4.7856    2.3691    2.7368 C   0  0  0  0  0  0  0  0  0  0  0  0
    5.5586    3.1440    3.5330 O   0  0  0  0  0  0  0  0  0  0  0  0
    5.2451    3.1926    4.9219 C   0  0  0  0  0  0  0  0  0  0  0  0
    3.8572    2.9800    1.9093 C   0  0  0  0  0  0  0  0  0  0  0  0
    3.0736    2.2727    0.9906 C   0  0  0  0  0  0  0  0  0  0  0  0
    2.2578    3.1397    0.3267 O   0  0  0  0  0  0  0  0  0  0  0  0
    2.7216    4.4503    0.6867 C   0  0  0  0  0  0  0  0  0  0  0  0
    3.5205    4.3122    1.8433 O   0  0  0  0  0  0  0  0  0  0  0  0
    0.6893   -0.4528   -0.8175 H   0  0  0  0  0  0  0  0  0  0  0  0
    0.8901    1.3201   -0.6208 H   0  0  0  0  0  0  0  0  0  0  0  0
    0.5391    0.2931    0.8106 H   0  0  0  0  0  0  0  0  0  0  0  0
    3.5771   -1.3654    0.8948 H   0  0  0  0  0  0  0  0  0  0  0  0
    6.0233   -0.8855    3.0331 H   0  0  0  0  0  0  0  0  0  0  0  0
    5.9109    3.9481    5.3611 H   0  0  0  0  0  0  0  0  0  0  0  0
    5.4359    2.2225    5.4030 H   0  0  0  0  0  0  0  0  0  0  0  0
    4.1969    3.5034    5.0782 H   0  0  0  0  0  0  0  0  0  0  0  0
    1.8566    5.0972    0.8983 H   0  0  0  0  0  0  0  0  0  0  0  0
    3.3200    4.8593   -0.1522 H   0  0  0  0  0  0  0  0  0  0  0  0
  1  2  1  0
  1 17  1  0
  1 18  1  0
  1 19  1  0
  2  3  1  0
  3  4  2  0
  3 13  1  0
  4  5  1  0
  4  6  1  0
  5 20  1  0
  6  7  1  0
  6  9  2  0
  7  8  2  0
  7 21  1  0
  9 10  1  0
  9 12  1  0
 10 11  1  0
 11 22  1  0
 11 23  1  0
 11 24  1  0
 12 13  2  0
 12 16  1  0
 13 14  1  0
 14 15  1  0
 15 16  1  0
 15 25  1  0
 15 26  1  0
M  END

