
     RDKit          3D

 53 56  0  0  0  0  0  0  0  0999 V2000
    0.7304    0.6414   -1.3428 C   0  0  0  0  0  0  0  0  0  0  0  0
    2.1075    0.2149   -0.8130 C   0  0  1  0  0  0  0  0  0  0  0  0
    2.1357    0.3290    0.7284 C   0  0  0  0  0  0  0  0  0  0  0  0
    2.4157   -1.2381   -1.2467 C   0  0  0  0  0  0  0  0  0  0  0  0
    3.1800    1.1302   -1.4203 C   0  0  0  0  0  0  0  0  0  0  0  0
    2.9468    1.8930   -2.3369 O   0  0  0  0  0  0  0  0  0  0  0  0
    4.6371    1.0673   -0.8880 C   0  0  2  0  0  0  0  0  0  0  0  0
    4.7284    0.3684   -0.0492 H   0  0  0  0  0  0  0  0  0  0  0  0
    5.1989    2.4814   -0.5306 C   0  0  2  0  0  0  0  0  0  0  0  0
    5.7421    2.4166    0.4229 H   0  0  0  0  0  0  0  0  0  0  0  0
    4.1750    3.6024   -0.3984 C   0  0  0  0  0  0  0  0  0  0  0  0
    3.2717    3.6448    0.4058 O   0  0  0  0  0  0  0  0  0  0  0  0
    4.4559    4.5934   -1.3450 N   0  0  0  0  0  0  0  0  0  0  0  0
    3.5539    5.7663   -1.4487 C   0  0  1  0  0  0  0  0  0  0  0  0
    4.2529    7.1324   -1.2710 C   0  0  0  0  0  0  0  0  0  0  0  0
    4.7936    7.7796   -2.5547 C   0  0  0  0  0  0  0  0  0  0  0  0
    3.7386    7.7872   -3.6690 C   0  0  0  0  0  0  0  0  0  0  0  0
    3.2178    6.3726   -3.9551 C   0  0  0  0  0  0  0  0  0  0  0  0
    2.6355    5.7243   -2.6914 C   0  0  0  0  0  0  0  0  0  0  0  0
    5.5310    4.2526   -2.1675 C   0  0  0  0  0  0  0  0  0  0  0  0
    5.9552    4.8953   -3.1001 O   0  0  0  0  0  0  0  0  0  0  0  0
    6.0970    2.9173   -1.7022 C   0  0  2  0  0  0  0  0  0  0  0  0
    7.1443    3.0660   -1.4013 H   0  0  0  0  0  0  0  0  0  0  0  0
    6.0049    1.7873   -2.7641 C   0  0  1  0  0  0  0  0  0  0  0  0
    5.2295    2.0714   -3.5066 H   0  0  0  0  0  0  0  0  0  0  0  0
    7.2785    1.3854   -3.4588 C   0  0  0  0  0  0  0  0  0  0  0  0
    7.5280    0.0774   -3.6646 C   0  0  0  0  0  0  0  0  0  0  0  0
    6.6523   -0.9346   -3.0902 C   0  0  0  0  0  0  0  0  0  0  0  0
    5.7346   -0.6346   -2.2209 N   0  0  0  0  0  0  0  0  0  0  0  0
    5.5479    0.6534   -1.9443 N   0  0  0  0  0  0  0  0  0  0  0  0
   -0.0471   -0.0378   -0.9593 H   0  0  0  0  0  0  0  0  0  0  0  0
    0.7028    0.6209   -2.4414 H   0  0  0  0  0  0  0  0  0  0  0  0
    0.4833    1.6654   -1.0236 H   0  0  0  0  0  0  0  0  0  0  0  0
    1.2677   -0.2033    1.1488 H   0  0  0  0  0  0  0  0  0  0  0  0
    2.0909    1.3793    1.0547 H   0  0  0  0  0  0  0  0  0  0  0  0
    3.0367   -0.1285    1.1658 H   0  0  0  0  0  0  0  0  0  0  0  0
    1.6982   -1.9234   -0.7668 H   0  0  0  0  0  0  0  0  0  0  0  0
    3.4331   -1.5541   -0.9715 H   0  0  0  0  0  0  0  0  0  0  0  0
    2.3201   -1.3527   -2.3378 H   0  0  0  0  0  0  0  0  0  0  0  0
    2.9111    5.6156   -0.5713 H   0  0  0  0  0  0  0  0  0  0  0  0
    5.0432    7.0439   -0.5071 H   0  0  0  0  0  0  0  0  0  0  0  0
    3.4904    7.8054   -0.8392 H   0  0  0  0  0  0  0  0  0  0  0  0
    5.6812    7.2331   -2.9043 H   0  0  0  0  0  0  0  0  0  0  0  0
    5.1142    8.8104   -2.3261 H   0  0  0  0  0  0  0  0  0  0  0  0
    4.1614    8.2301   -4.5862 H   0  0  0  0  0  0  0  0  0  0  0  0
    2.8924    8.4367   -3.3724 H   0  0  0  0  0  0  0  0  0  0  0  0
    4.0405    5.7576   -4.3500 H   0  0  0  0  0  0  0  0  0  0  0  0
    2.4369    6.4033   -4.7338 H   0  0  0  0  0  0  0  0  0  0  0  0
    2.3316    4.6820   -2.8782 H   0  0  0  0  0  0  0  0  0  0  0  0
    1.7157    6.2694   -2.4124 H   0  0  0  0  0  0  0  0  0  0  0  0
    7.9357    2.1750   -3.8320 H   0  0  0  0  0  0  0  0  0  0  0  0
    8.4157   -0.2468   -4.2141 H   0  0  0  0  0  0  0  0  0  0  0  0
    6.8068   -1.9984   -3.2869 H   0  0  0  0  0  0  0  0  0  0  0  0
  1  2  1  0
  1 31  1  0
  1 32  1  0
  1 33  1  0
  2  3  1  0
  2  4  1  0
  2  5  1  6
  3 34  1  0
  3 35  1  0
  3 36  1  0
  4 37  1  0
  4 38  1  0
  4 39  1  0
  5  6  2  0
  5  7  1  0
  7  8  1  1
  7  9  1  0
  7 30  1  0
  9 10  1  1
  9 11  1  0
  9 22  1  0
 11 12  2  0
 11 13  1  0
 13 14  1  0
 13 20  1  0
 14 15  1  0
 14 19  1  0
 14 40  1  1
 15 16  1  0
 15 41  1  0
 15 42  1  0
 16 17  1  0
 16 43  1  0
 16 44  1  0
 17 18  1  0
 17 45  1  0
 17 46  1  0
 18 19  1  0
 18 47  1  0
 18 48  1  0
 19 49  1  0
 19 50  1  0
 20 21  2  0
 20 22  1  0
 22 23  1  1
 22 24  1  0
 24 25  1  6
 24 26  1  0
 24 30  1  0
 26 27  2  0
 26 51  1  0
 27 28  1  0
 27 52  1  0
 28 29  2  0
 28 53  1  0
 29 30  1  0
M  END

