
     RDKit          3D

 49 51  0  0  0  0  0  0  0  0999 V2000
    6.3994   -4.9779    4.5759 C   0  0  0  0  0  0  0  0  0  0  0  0
    6.3115   -3.8414    3.1734 S   0  0  1  0  0  0  0  0  0  0  0  0
    6.7432   -2.5216    3.6551 O   0  0  0  0  0  0  0  0  0  0  0  0
    6.9748   -4.4971    2.0392 O   0  0  0  0  0  0  0  0  0  0  0  0
    4.5466   -3.7361    2.8001 C   0  0  0  0  0  0  0  0  0  0  0  0
    3.7956   -2.6949    3.3549 C   0  0  0  0  0  0  0  0  0  0  0  0
    2.4334   -2.6093    3.0553 C   0  0  0  0  0  0  0  0  0  0  0  0
    1.8389   -3.5491    2.2098 C   0  0  0  0  0  0  0  0  0  0  0  0
    2.6070   -4.5814    1.6477 C   0  0  0  0  0  0  0  0  0  0  0  0
    2.0218   -5.6083    0.7333 C   0  0  0  0  0  0  0  0  0  0  0  0
    2.6407   -6.5355    0.2652 O   0  0  0  0  0  0  0  0  0  0  0  0
    0.7220   -5.3759    0.4638 O   0  0  0  0  0  0  0  0  0  0  0  0
    0.0578   -6.3580   -0.3414 C   0  0  1  0  0  0  0  0  0  0  0  0
    0.6912   -6.5652   -1.2143 H   0  0  0  0  0  0  0  0  0  0  0  0
   -0.1181   -7.6433    0.5100 C   0  0  0  0  0  0  0  0  0  0  0  0
   -0.1051   -7.5618    1.7271 O   0  0  0  0  0  0  0  0  0  0  0  0
   -0.3282   -8.8198   -0.1538 N   0  0  0  0  0  0  0  0  0  0  0  0
   -0.4687  -10.0547    0.6189 C   0  0  0  0  0  0  0  0  0  0  0  0
   -1.6653  -10.8540    0.1119 C   0  0  0  0  0  0  0  0  0  0  0  0
   -1.5741  -11.0884   -1.2808 O   0  0  0  0  0  0  0  0  0  0  0  0
   -1.5167   -9.8834   -2.0104 C   0  0  0  0  0  0  0  0  0  0  0  0
   -0.3137   -9.0296   -1.5984 C   0  0  0  0  0  0  0  0  0  0  0  0
   -1.2719   -5.7712   -0.7705 C   0  0  0  0  0  0  0  0  0  0  0  0
   -1.4852   -5.3857   -2.1011 C   0  0  0  0  0  0  0  0  0  0  0  0
   -2.7062   -4.8270   -2.4919 C   0  0  0  0  0  0  0  0  0  0  0  0
   -3.7222   -4.6419   -1.5507 C   0  0  0  0  0  0  0  0  0  0  0  0
   -3.5132   -5.0169   -0.2186 C   0  0  0  0  0  0  0  0  0  0  0  0
   -2.2963   -5.5796    0.1709 C   0  0  0  0  0  0  0  0  0  0  0  0
    3.9751   -4.6723    1.9405 C   0  0  0  0  0  0  0  0  0  0  0  0
    7.4702   -5.0520    4.8131 H   0  0  0  0  0  0  0  0  0  0  0  0
    6.0011   -5.9561    4.2774 H   0  0  0  0  0  0  0  0  0  0  0  0
    5.8442   -4.5534    5.4222 H   0  0  0  0  0  0  0  0  0  0  0  0
    4.2871   -1.9610    3.9968 H   0  0  0  0  0  0  0  0  0  0  0  0
    1.8331   -1.8013    3.4800 H   0  0  0  0  0  0  0  0  0  0  0  0
    0.7757   -3.4898    1.9749 H   0  0  0  0  0  0  0  0  0  0  0  0
   -0.5791   -9.7839    1.6764 H   0  0  0  0  0  0  0  0  0  0  0  0
    0.4508  -10.6593    0.5074 H   0  0  0  0  0  0  0  0  0  0  0  0
   -2.6032  -10.3105    0.3488 H   0  0  0  0  0  0  0  0  0  0  0  0
   -1.7036  -11.8387    0.6018 H   0  0  0  0  0  0  0  0  0  0  0  0
   -2.4462   -9.2951   -1.8630 H   0  0  0  0  0  0  0  0  0  0  0  0
   -1.4418  -10.1517   -3.0753 H   0  0  0  0  0  0  0  0  0  0  0  0
   -0.3530   -8.0747   -2.1345 H   0  0  0  0  0  0  0  0  0  0  0  0
    0.6199   -9.5481   -1.8881 H   0  0  0  0  0  0  0  0  0  0  0  0
   -0.6866   -5.5142   -2.8378 H   0  0  0  0  0  0  0  0  0  0  0  0
   -2.8604   -4.5303   -3.5324 H   0  0  0  0  0  0  0  0  0  0  0  0
   -4.6765   -4.2036   -1.8535 H   0  0  0  0  0  0  0  0  0  0  0  0
   -4.3045   -4.8706    0.5211 H   0  0  0  0  0  0  0  0  0  0  0  0
   -2.1276   -5.8740    1.2096 H   0  0  0  0  0  0  0  0  0  0  0  0
    4.5754   -5.4617    1.4848 H   0  0  0  0  0  0  0  0  0  0  0  0
  2  1  1  1
  1 30  1  0
  1 31  1  0
  1 32  1  0
  2  3  2  0
  2  4  2  0
  2  5  1  0
  5  6  2  0
  5 29  1  0
  6  7  1  0
  6 33  1  0
  7  8  2  0
  7 34  1  0
  8  9  1  0
  8 35  1  0
  9 10  1  0
  9 29  2  0
 10 11  2  0
 10 12  1  0
 12 13  1  0
 13 14  1  6
 13 15  1  0
 13 23  1  0
 15 16  2  0
 15 17  1  0
 17 18  1  0
 17 22  1  0
 18 19  1  0
 18 36  1  0
 18 37  1  0
 19 20  1  0
 19 38  1  0
 19 39  1  0
 20 21  1  0
 21 22  1  0
 21 40  1  0
 21 41  1  0
 22 42  1  0
 22 43  1  0
 23 24  2  0
 23 28  1  0
 24 25  1  0
 24 44  1  0
 25 26  2  0
 25 45  1  0
 26 27  1  0
 26 46  1  0
 27 28  2  0
 27 47  1  0
 28 48  1  0
 29 49  1  0
M  END

