
     RDKit          3D

 27 28  0  0  0  0  0  0  0  0999 V2000
    1.0787   -0.1186    0.0357 N   0  0  0  0  0  0  0  0  0  0  0  0
    2.4601   -0.1194   -0.0648 C   0  0  0  0  0  0  0  0  0  0  0  0
    3.1003    0.2157   -1.2763 C   0  0  0  0  0  0  0  0  0  0  0  0
    4.4901    0.2658   -1.3568 C   0  0  0  0  0  0  0  0  0  0  0  0
    5.2972   -0.0175   -0.2447 C   0  0  0  0  0  0  0  0  0  0  0  0
    6.8119   -0.0078   -0.3502 C   0  0  1  0  0  0  0  0  0  0  0  0
    7.4455    0.3490    0.8666 O   0  0  0  0  0  0  0  0  0  0  0  0
    7.3625   -1.3947   -0.7136 C   0  0  0  0  0  0  0  0  0  0  0  0
    8.7906   -1.3816   -0.9676 N   0  0  0  0  0  0  0  0  0  0  0  0
    9.8206   -1.4752   -0.0927 C   0  0  0  0  0  0  0  0  0  0  0  0
   10.9706   -1.3241   -0.7218 N   0  0  0  0  0  0  0  0  0  0  0  0
   10.5816   -1.1224   -2.0092 C   0  0  0  0  0  0  0  0  0  0  0  0
    9.2723   -1.1431   -2.2065 N   0  0  0  0  0  0  0  0  0  0  0  0
    4.6600   -0.3496    0.9604 C   0  0  0  0  0  0  0  0  0  0  0  0
    3.2707   -0.3989    1.0547 C   0  0  0  0  0  0  0  0  0  0  0  0
    0.5554   -0.2085   -0.8271 H   0  0  0  0  0  0  0  0  0  0  0  0
    0.6745   -0.6349    0.8079 H   0  0  0  0  0  0  0  0  0  0  0  0
    2.4955    0.4489   -2.1573 H   0  0  0  0  0  0  0  0  0  0  0  0
    4.9568    0.5357   -2.3095 H   0  0  0  0  0  0  0  0  0  0  0  0
    7.1117    0.6792   -1.1659 H   0  0  0  0  0  0  0  0  0  0  0  0
    7.1803    1.2500    1.0944 H   0  0  0  0  0  0  0  0  0  0  0  0
    6.8718   -1.7709   -1.6201 H   0  0  0  0  0  0  0  0  0  0  0  0
    7.1556   -2.0896    0.1144 H   0  0  0  0  0  0  0  0  0  0  0  0
    9.6716   -1.6422    0.9732 H   0  0  0  0  0  0  0  0  0  0  0  0
   11.2816   -0.9606   -2.8292 H   0  0  0  0  0  0  0  0  0  0  0  0
    5.2708   -0.5601    1.8416 H   0  0  0  0  0  0  0  0  0  0  0  0
    2.7994   -0.6524    2.0088 H   0  0  0  0  0  0  0  0  0  0  0  0
  1  2  1  0
  1 16  1  0
  1 17  1  0
  2  3  2  0
  2 15  1  0
  3  4  1  0
  3 18  1  0
  4  5  2  0
  4 19  1  0
  5  6  1  0
  5 14  1  0
  6  7  1  0
  6  8  1  0
  6 20  1  6
  7 21  1  0
  8  9  1  0
  8 22  1  0
  8 23  1  0
  9 10  1  0
  9 13  1  0
 10 11  2  0
 10 24  1  0
 11 12  1  0
 12 13  2  0
 12 25  1  0
 14 15  2  0
 14 26  1  0
 15 27  1  0
M  END

