
     RDKit          3D

 51 52  0  0  0  0  0  0  0  0999 V2000
    2.3206    1.2303   -0.4640 C   0  0  0  0  0  0  0  0  0  0  0  0
    3.6214    1.6366   -1.1682 C   0  0  1  0  0  0  0  0  0  0  0  0
    4.7111    2.0343   -0.1642 C   0  0  0  0  0  0  0  0  0  0  0  0
    4.1080    0.5438   -2.1235 C   0  0  0  0  0  0  0  0  0  0  0  0
    4.4081   -0.6305   -1.3998 O   0  0  0  0  0  0  0  0  0  0  0  0
    4.8229   -1.7159   -2.1838 C   0  0  1  0  0  0  0  0  0  0  0  0
    6.2633   -1.7255   -2.7540 C   0  0  0  0  0  0  0  0  0  0  0  0
    6.4078   -3.2157   -2.2867 C   0  0  2  0  0  0  0  0  0  0  0  0
    6.3399   -4.2632   -3.2853 N   0  0  0  0  0  0  0  0  0  0  0  0
    7.5998   -4.7544   -3.8400 C   0  0  1  0  0  0  0  0  0  0  0  0
    7.3891   -6.1155   -4.5265 C   0  0  0  0  0  0  0  0  0  0  0  0
    6.6174   -5.9621   -5.8424 C   0  0  0  0  0  0  0  0  0  0  0  0
    7.2594   -4.9030   -6.7418 C   0  0  0  0  0  0  0  0  0  0  0  0
    7.4392   -3.6382   -6.0363 N   0  0  0  0  0  0  0  0  0  0  0  0
    7.8960   -2.5756   -6.9082 C   0  0  0  0  0  0  0  0  0  0  0  0
    8.2678   -3.7927   -4.8464 C   0  0  0  0  0  0  0  0  0  0  0  0
    5.1134   -3.0290   -1.4001 C   0  0  1  0  0  0  0  0  0  0  0  0
    5.4842   -2.7636    0.0622 C   0  0  0  0  0  0  0  0  0  0  0  0
    4.0450   -4.1132   -1.4988 C   0  0  0  0  0  0  0  0  0  0  0  0
    1.9542    2.0383    0.1896 H   0  0  0  0  0  0  0  0  0  0  0  0
    2.4781    0.3338    0.1553 H   0  0  0  0  0  0  0  0  0  0  0  0
    1.5251    0.9994   -1.1917 H   0  0  0  0  0  0  0  0  0  0  0  0
    3.4072    2.5136   -1.8078 H   0  0  0  0  0  0  0  0  0  0  0  0
    4.9801    1.1800    0.4760 H   0  0  0  0  0  0  0  0  0  0  0  0
    4.3698    2.8555    0.4865 H   0  0  0  0  0  0  0  0  0  0  0  0
    5.6271    2.3707   -0.6776 H   0  0  0  0  0  0  0  0  0  0  0  0
    5.0039    0.8981   -2.6743 H   0  0  0  0  0  0  0  0  0  0  0  0
    3.3262    0.3302   -2.8834 H   0  0  0  0  0  0  0  0  0  0  0  0
    4.0796   -1.8981   -2.9877 H   0  0  0  0  0  0  0  0  0  0  0  0
    6.9219   -1.0363   -2.2032 H   0  0  0  0  0  0  0  0  0  0  0  0
    6.3731   -1.5459   -3.8339 H   0  0  0  0  0  0  0  0  0  0  0  0
    7.3042   -3.4018   -1.6734 H   0  0  0  0  0  0  0  0  0  0  0  0
    5.7238   -3.9943   -4.0511 H   0  0  0  0  0  0  0  0  0  0  0  0
    8.2926   -4.8930   -2.9923 H   0  0  0  0  0  0  0  0  0  0  0  0
    6.8608   -6.7929   -3.8380 H   0  0  0  0  0  0  0  0  0  0  0  0
    8.3782   -6.5604   -4.7369 H   0  0  0  0  0  0  0  0  0  0  0  0
    5.5725   -5.6754   -5.6326 H   0  0  0  0  0  0  0  0  0  0  0  0
    6.5747   -6.9237   -6.3804 H   0  0  0  0  0  0  0  0  0  0  0  0
    6.6274   -4.7238   -7.6276 H   0  0  0  0  0  0  0  0  0  0  0  0
    8.2375   -5.2869   -7.1235 H   0  0  0  0  0  0  0  0  0  0  0  0
    7.1927   -2.4421   -7.7462 H   0  0  0  0  0  0  0  0  0  0  0  0
    8.9049   -2.7667   -7.3429 H   0  0  0  0  0  0  0  0  0  0  0  0
    7.9469   -1.6244   -6.3546 H   0  0  0  0  0  0  0  0  0  0  0  0
    8.4108   -2.8032   -4.3842 H   0  0  0  0  0  0  0  0  0  0  0  0
    9.2860   -4.1745   -5.1032 H   0  0  0  0  0  0  0  0  0  0  0  0
    6.2637   -1.9922    0.1585 H   0  0  0  0  0  0  0  0  0  0  0  0
    5.8609   -3.6895    0.5281 H   0  0  0  0  0  0  0  0  0  0  0  0
    4.6104   -2.4181    0.6357 H   0  0  0  0  0  0  0  0  0  0  0  0
    3.7845   -4.3425   -2.5427 H   0  0  0  0  0  0  0  0  0  0  0  0
    3.1273   -3.7929   -0.9772 H   0  0  0  0  0  0  0  0  0  0  0  0
    4.3913   -5.0526   -1.0391 H   0  0  0  0  0  0  0  0  0  0  0  0
  1  2  1  0
  1 20  1  0
  1 21  1  0
  1 22  1  0
  2  3  1  0
  2  4  1  0
  2 23  1  6
  3 24  1  0
  3 25  1  0
  3 26  1  0
  4  5  1  0
  4 27  1  0
  4 28  1  0
  5  6  1  0
  6  7  1  0
  6 17  1  0
  6 29  1  6
  7  8  1  0
  7 30  1  0
  7 31  1  0
  8  9  1  0
  8 17  1  0
  8 32  1  1
  9 10  1  0
  9 33  1  0
 10 11  1  0
 10 16  1  0
 10 34  1  1
 11 12  1  0
 11 35  1  0
 11 36  1  0
 12 13  1  0
 12 37  1  0
 12 38  1  0
 13 14  1  0
 13 39  1  0
 13 40  1  0
 14 15  1  0
 14 16  1  0
 15 41  1  0
 15 42  1  0
 15 43  1  0
 16 44  1  0
 16 45  1  0
 17 18  1  1
 17 19  1  0
 18 46  1  0
 18 47  1  0
 18 48  1  0
 19 49  1  0
 19 50  1  0
 19 51  1  0
M  END

