
     RDKit          3D

 29 29  0  0  0  0  0  0  0  0999 V2000
    0.8748    1.0168    1.4152 C   0  0  0  0  0  0  0  0  0  0  0  0
    2.3109    1.2993    1.8288 C   0  0  0  0  0  0  0  0  0  0  0  0
    2.5839    1.8117    2.8963 O   0  0  0  0  0  0  0  0  0  0  0  0
    3.2578    0.8967    0.9037 N   0  0  0  0  0  0  0  0  0  0  0  0
    4.6567    0.9663    0.9835 C   0  0  0  0  0  0  0  0  0  0  0  0
    5.3456    1.4981    2.0887 C   0  0  0  0  0  0  0  0  0  0  0  0
    6.7394    1.5263    2.0791 C   0  0  0  0  0  0  0  0  0  0  0  0
    7.4852    1.0375    0.9933 C   0  0  0  0  0  0  0  0  0  0  0  0
    8.9470    1.0895    1.0386 C   0  0  0  0  0  0  0  0  0  0  0  0
    9.6721    0.6465    0.0798 N   0  0  0  0  0  0  0  0  0  0  0  0
   11.0292    0.8271    0.3379 O   0  0  0  0  0  0  0  0  0  0  0  0
   11.8367    0.1860   -0.6381 C   0  0  0  0  0  0  0  0  0  0  0  0
   13.1453    0.9587   -0.8110 C   0  0  0  0  0  0  0  0  0  0  0  0
   14.0583    0.5252   -1.4569 O   0  0  0  0  0  0  0  0  0  0  0  0
   13.1726    2.1557   -0.2115 O   0  0  0  0  0  0  0  0  0  0  0  0
    6.7850    0.5079   -0.1095 C   0  0  0  0  0  0  0  0  0  0  0  0
    5.3988    0.4736   -0.1122 C   0  0  0  0  0  0  0  0  0  0  0  0
    0.2459    1.8511    1.7541 H   0  0  0  0  0  0  0  0  0  0  0  0
    0.5258    0.1091    1.9343 H   0  0  0  0  0  0  0  0  0  0  0  0
    0.7420    0.8737    0.3324 H   0  0  0  0  0  0  0  0  0  0  0  0
    2.8994    0.4864    0.0496 H   0  0  0  0  0  0  0  0  0  0  0  0
    4.7805    1.8802    2.9350 H   0  0  0  0  0  0  0  0  0  0  0  0
    7.2621    1.9420    2.9453 H   0  0  0  0  0  0  0  0  0  0  0  0
    9.4222    1.5253    1.9310 H   0  0  0  0  0  0  0  0  0  0  0  0
   11.3115    0.1629   -1.6070 H   0  0  0  0  0  0  0  0  0  0  0  0
   12.0730   -0.8522   -0.3499 H   0  0  0  0  0  0  0  0  0  0  0  0
   12.3292    2.2647    0.2666 H   0  0  0  0  0  0  0  0  0  0  0  0
    7.3468    0.1248   -0.9632 H   0  0  0  0  0  0  0  0  0  0  0  0
    4.8718    0.0590   -0.9771 H   0  0  0  0  0  0  0  0  0  0  0  0
  1  2  1  0
  1 18  1  0
  1 19  1  0
  1 20  1  0
  2  3  2  0
  2  4  1  0
  4  5  1  0
  4 21  1  0
  5  6  2  0
  5 17  1  0
  6  7  1  0
  6 22  1  0
  7  8  2  0
  7 23  1  0
  8  9  1  0
  8 16  1  0
  9 10  2  0
  9 24  1  0
 10 11  1  0
 11 12  1  0
 12 13  1  0
 12 25  1  0
 12 26  1  0
 13 14  2  0
 13 15  1  0
 15 27  1  0
 16 17  2  0
 16 28  1  0
 17 29  1  0
M  END

