
     RDKit          3D

 52 54  0  0  0  0  0  0  0  0999 V2000
    0.6980   -0.5777   -0.2990 C   0  0  0  0  0  0  0  0  0  0  0  0
    2.1439   -0.8676    0.0752 C   0  0  0  0  0  0  0  0  0  0  0  0
    2.4503   -1.6249    0.9741 O   0  0  0  0  0  0  0  0  0  0  0  0
    3.0648   -0.1947   -0.7106 N   0  0  0  0  0  0  0  0  0  0  0  0
    4.4667   -0.2321   -0.6609 C   0  0  0  0  0  0  0  0  0  0  0  0
    5.1909   -1.0127    0.2601 C   0  0  0  0  0  0  0  0  0  0  0  0
    6.5837   -0.9886    0.2409 C   0  0  0  0  0  0  0  0  0  0  0  0
    7.3062   -0.1984   -0.6733 C   0  0  0  0  0  0  0  0  0  0  0  0
    8.7760   -0.2535   -0.6912 C   0  0  0  0  0  0  0  0  0  0  0  0
    9.5396   -1.3930   -0.6278 C   0  0  0  0  0  0  0  0  0  0  0  0
   10.9273   -1.0233   -0.7660 C   0  0  0  0  0  0  0  0  0  0  0  0
   12.1148   -1.6907   -0.8332 C   0  0  0  0  0  0  0  0  0  0  0  0
   12.4163   -3.1093   -0.7192 C   0  0  0  0  0  0  0  0  0  0  0  0
   11.4932   -4.0893   -0.2843 C   0  0  0  0  0  0  0  0  0  0  0  0
   11.8513   -5.4290   -0.2009 C   0  0  0  0  0  0  0  0  0  0  0  0
   13.1527   -5.8428   -0.5500 C   0  0  0  0  0  0  0  0  0  0  0  0
   13.5200   -7.2271   -0.4677 C   0  0  0  0  0  0  0  0  0  0  0  0
   13.8163   -8.3485   -0.4016 N   0  0  0  0  0  0  0  0  0  0  0  0
   14.0896   -4.8795   -0.9725 C   0  0  0  0  0  0  0  0  0  0  0  0
   13.7231   -3.5417   -1.0473 C   0  0  0  0  0  0  0  0  0  0  0  0
   10.9341    0.4807   -0.8921 C   0  0  0  0  0  0  0  0  0  0  0  0
   11.8852    1.2299   -0.9897 O   0  0  0  0  0  0  0  0  0  0  0  0
    9.5927    0.8807   -0.8453 N   0  0  0  0  0  0  0  0  0  0  0  0
    9.2334    2.2831   -0.6785 C   0  0  0  0  0  0  0  0  0  0  0  0
    8.8345    2.6904    0.7545 C   0  0  1  0  0  0  0  0  0  0  0  0
    9.9378    2.3882    1.7746 C   0  0  0  0  0  0  0  0  0  0  0  0
    8.4469    4.1741    0.7672 C   0  0  0  0  0  0  0  0  0  0  0  0
    6.5687    0.5729   -1.5930 C   0  0  0  0  0  0  0  0  0  0  0  0
    5.1785    0.5548   -1.5873 C   0  0  0  0  0  0  0  0  0  0  0  0
    0.0449   -1.0832    0.4220 H   0  0  0  0  0  0  0  0  0  0  0  0
    0.4744   -0.9542   -1.3110 H   0  0  0  0  0  0  0  0  0  0  0  0
    0.4875    0.5041   -0.2859 H   0  0  0  0  0  0  0  0  0  0  0  0
    2.6800    0.4107   -1.4268 H   0  0  0  0  0  0  0  0  0  0  0  0
    4.6514   -1.6215    0.9813 H   0  0  0  0  0  0  0  0  0  0  0  0
    7.1312   -1.5876    0.9721 H   0  0  0  0  0  0  0  0  0  0  0  0
    9.1171   -2.3927   -0.6016 H   0  0  0  0  0  0  0  0  0  0  0  0
   12.9783   -1.0406   -1.0131 H   0  0  0  0  0  0  0  0  0  0  0  0
   10.4889   -3.7958    0.0166 H   0  0  0  0  0  0  0  0  0  0  0  0
   11.1263   -6.1699    0.1417 H   0  0  0  0  0  0  0  0  0  0  0  0
   15.1019   -5.1905   -1.2374 H   0  0  0  0  0  0  0  0  0  0  0  0
   14.4579   -2.8017   -1.3738 H   0  0  0  0  0  0  0  0  0  0  0  0
    8.4234    2.5485   -1.3737 H   0  0  0  0  0  0  0  0  0  0  0  0
   10.1265    2.8472   -0.9888 H   0  0  0  0  0  0  0  0  0  0  0  0
    7.9390    2.1047    1.0317 H   0  0  0  0  0  0  0  0  0  0  0  0
   10.8673    2.9271    1.5276 H   0  0  0  0  0  0  0  0  0  0  0  0
   10.1776    1.3142    1.8129 H   0  0  0  0  0  0  0  0  0  0  0  0
    9.6261    2.6919    2.7868 H   0  0  0  0  0  0  0  0  0  0  0  0
    9.3051    4.8103    0.4903 H   0  0  0  0  0  0  0  0  0  0  0  0
    8.1114    4.4867    1.7686 H   0  0  0  0  0  0  0  0  0  0  0  0
    7.6293    4.3882    0.0593 H   0  0  0  0  0  0  0  0  0  0  0  0
    7.0854    1.1657   -2.3496 H   0  0  0  0  0  0  0  0  0  0  0  0
    4.6312    1.1532   -2.3220 H   0  0  0  0  0  0  0  0  0  0  0  0
  1  2  1  0
  1 30  1  0
  1 31  1  0
  1 32  1  0
  2  3  2  0
  2  4  1  0
  4  5  1  0
  4 33  1  0
  5  6  2  0
  5 29  1  0
  6  7  1  0
  6 34  1  0
  7  8  2  0
  7 35  1  0
  8  9  1  0
  8 28  1  0
  9 10  2  0
  9 23  1  0
 10 11  1  0
 10 36  1  0
 11 12  2  0
 11 21  1  0
 12 13  1  0
 12 37  1  0
 13 14  2  0
 13 20  1  0
 14 15  1  0
 14 38  1  0
 15 16  2  0
 15 39  1  0
 16 17  1  0
 16 19  1  0
 17 18  3  0
 19 20  2  0
 19 40  1  0
 20 41  1  0
 21 22  2  0
 21 23  1  0
 23 24  1  0
 24 25  1  0
 24 42  1  0
 24 43  1  0
 25 26  1  0
 25 27  1  0
 25 44  1  1
 26 45  1  0
 26 46  1  0
 26 47  1  0
 27 48  1  0
 27 49  1  0
 27 50  1  0
 28 29  2  0
 28 51  1  0
 29 52  1  0
M  END

