
     RDKit          3D

 30 31  0  0  0  0  0  0  0  0999 V2000
    1.4928   -0.1918    1.0072 C   0  0  0  0  0  0  0  0  0  0  0  0
    2.7018   -0.0441    0.2293 N   0  0  0  0  0  0  0  0  0  0  0  0
    3.3087    1.2526   -0.0428 C   0  0  0  0  0  0  0  0  0  0  0  0
    4.4024    0.9386   -1.0816 C   0  0  0  0  0  0  0  0  0  0  0  0
    4.7142   -0.5450   -0.8557 C   0  0  2  0  0  0  0  0  0  0  0  0
    5.1647   -1.3000   -2.1125 C   0  0  0  0  0  0  0  0  0  0  0  0
    5.5922   -0.7264   -3.0911 O   0  0  0  0  0  0  0  0  0  0  0  0
    5.0611   -2.6680   -1.9877 N   0  0  0  0  0  0  0  0  0  0  0  0
    5.6035   -3.8074   -3.1389 S   0  0  1  0  0  0  0  0  0  0  0  0
    6.9754   -3.4735   -3.4869 O   0  0  0  0  0  0  0  0  0  0  0  0
    5.2191   -5.0867   -2.5510 O   0  0  0  0  0  0  0  0  0  0  0  0
    4.5934   -3.5407   -4.5619 C   0  0  0  0  0  0  0  0  0  0  0  0
    4.8312   -2.6403   -5.5746 C   0  0  0  0  0  0  0  0  0  0  0  0
    3.8078   -2.6792   -6.5628 C   0  0  0  0  0  0  0  0  0  0  0  0
    2.8272   -3.5999   -6.2720 C   0  0  0  0  0  0  0  0  0  0  0  0
    3.1270   -4.4428   -4.7969 S   0  0  0  0  0  0  0  0  0  0  0  0
    3.4524   -1.1001   -0.1782 C   0  0  0  0  0  0  0  0  0  0  0  0
    3.1857   -2.2837   -0.0124 O   0  0  0  0  0  0  0  0  0  0  0  0
    0.6478    0.3257    0.5225 H   0  0  0  0  0  0  0  0  0  0  0  0
    1.6184    0.2251    2.0222 H   0  0  0  0  0  0  0  0  0  0  0  0
    1.2642   -1.2630    1.0862 H   0  0  0  0  0  0  0  0  0  0  0  0
    3.7270    1.6855    0.8865 H   0  0  0  0  0  0  0  0  0  0  0  0
    2.5540    1.9616   -0.4219 H   0  0  0  0  0  0  0  0  0  0  0  0
    5.2827    1.5853   -0.9734 H   0  0  0  0  0  0  0  0  0  0  0  0
    4.0229    1.0759   -2.1047 H   0  0  0  0  0  0  0  0  0  0  0  0
    5.5309   -0.6790   -0.1208 H   0  0  0  0  0  0  0  0  0  0  0  0
    4.4701   -3.0371   -1.2269 H   0  0  0  0  0  0  0  0  0  0  0  0
    5.6992   -1.9820   -5.5813 H   0  0  0  0  0  0  0  0  0  0  0  0
    3.7995   -2.0543   -7.4569 H   0  0  0  0  0  0  0  0  0  0  0  0
    1.9424   -3.8419   -6.8606 H   0  0  0  0  0  0  0  0  0  0  0  0
  1  2  1  0
  1 19  1  0
  1 20  1  0
  1 21  1  0
  2  3  1  0
  2 17  1  0
  3  4  1  0
  3 22  1  0
  3 23  1  0
  4  5  1  0
  4 24  1  0
  4 25  1  0
  5  6  1  0
  5 17  1  0
  5 26  1  1
  6  7  2  0
  6  8  1  0
  9  8  1  1
  8 27  1  0
  9 10  2  0
  9 11  2  0
  9 12  1  0
 12 13  2  0
 12 16  1  0
 13 14  1  0
 13 28  1  0
 14 15  2  0
 14 29  1  0
 15 16  1  0
 15 30  1  0
 17 18  2  0
M  END

