
     RDKit          3D

 34 35  0  0  0  0  0  0  0  0999 V2000
    2.0391   -0.5176   -2.8232 N   0  0  0  0  0  0  0  0  0  0  0  0
    2.7617   -0.4580   -1.9201 C   0  0  0  0  0  0  0  0  0  0  0  0
    3.7038   -0.3948   -0.7844 C   0  0  1  0  0  0  0  0  0  0  0  0
    4.4412   -1.6427   -0.6781 N   0  0  0  0  0  0  0  0  0  0  0  0
    4.5018   -2.3320    0.5022 C   0  0  0  0  0  0  0  0  0  0  0  0
    3.9364   -1.9947    1.5240 O   0  0  0  0  0  0  0  0  0  0  0  0
    5.2836   -3.4180    0.3649 O   0  0  0  0  0  0  0  0  0  0  0  0
    5.4232   -4.2839    1.5158 C   0  0  0  0  0  0  0  0  0  0  0  0
    4.3988   -5.3922    1.5210 C   0  0  0  0  0  0  0  0  0  0  0  0
    4.7036   -6.6429    0.9632 C   0  0  0  0  0  0  0  0  0  0  0  0
    3.7540   -7.6680    0.9497 C   0  0  0  0  0  0  0  0  0  0  0  0
    2.4849   -7.4510    1.4943 C   0  0  0  0  0  0  0  0  0  0  0  0
    2.1709   -6.2073    2.0522 C   0  0  0  0  0  0  0  0  0  0  0  0
    3.1213   -5.1837    2.0669 C   0  0  0  0  0  0  0  0  0  0  0  0
    4.6102    0.8379   -0.8349 C   0  0  0  0  0  0  0  0  0  0  0  0
    5.3015    1.1973    0.3337 C   0  0  0  0  0  0  0  0  0  0  0  0
    6.1700    2.2873    0.3415 C   0  0  0  0  0  0  0  0  0  0  0  0
    6.3496    3.0302   -0.8315 C   0  0  0  0  0  0  0  0  0  0  0  0
    7.4351    4.3987   -0.8274 Cl  0  0  0  0  0  0  0  0  0  0  0  0
    5.6670    2.6911   -2.0011 C   0  0  0  0  0  0  0  0  0  0  0  0
    4.7989    1.5949   -1.9965 C   0  0  0  0  0  0  0  0  0  0  0  0
    3.1015   -0.3442    0.1377 H   0  0  0  0  0  0  0  0  0  0  0  0
    5.0116   -1.9599   -1.4541 H   0  0  0  0  0  0  0  0  0  0  0  0
    5.3488   -3.6700    2.4236 H   0  0  0  0  0  0  0  0  0  0  0  0
    6.4392   -4.6921    1.4310 H   0  0  0  0  0  0  0  0  0  0  0  0
    5.6964   -6.8165    0.5376 H   0  0  0  0  0  0  0  0  0  0  0  0
    4.0057   -8.6386    0.5145 H   0  0  0  0  0  0  0  0  0  0  0  0
    1.7408   -8.2518    1.4859 H   0  0  0  0  0  0  0  0  0  0  0  0
    1.1803   -6.0343    2.4806 H   0  0  0  0  0  0  0  0  0  0  0  0
    2.8771   -4.2082    2.4939 H   0  0  0  0  0  0  0  0  0  0  0  0
    5.1552    0.6164    1.2483 H   0  0  0  0  0  0  0  0  0  0  0  0
    6.7042    2.5696    1.2501 H   0  0  0  0  0  0  0  0  0  0  0  0
    5.8124    3.2817   -2.9069 H   0  0  0  0  0  0  0  0  0  0  0  0
    4.2592    1.3393   -2.9116 H   0  0  0  0  0  0  0  0  0  0  0  0
  1  2  3  0
  2  3  1  0
  3  4  1  0
  3 15  1  0
  3 22  1  1
  4  5  1  0
  4 23  1  0
  5  6  2  0
  5  7  1  0
  7  8  1  0
  8  9  1  0
  8 24  1  0
  8 25  1  0
  9 10  2  0
  9 14  1  0
 10 11  1  0
 10 26  1  0
 11 12  2  0
 11 27  1  0
 12 13  1  0
 12 28  1  0
 13 14  2  0
 13 29  1  0
 14 30  1  0
 15 16  2  0
 15 21  1  0
 16 17  1  0
 16 31  1  0
 17 18  2  0
 17 32  1  0
 18 19  1  0
 18 20  1  0
 20 21  2  0
 20 33  1  0
 21 34  1  0
M  END

