
     RDKit          3D

 54 55  0  0  0  0  0  0  0  0999 V2000
    3.1257    3.7140    1.9213 C   0  0  0  0  0  0  0  0  0  0  0  0
    3.7719    2.9339    0.9497 O   0  0  0  0  0  0  0  0  0  0  0  0
    4.9296    2.2828    1.4123 C   0  0  0  0  0  0  0  0  0  0  0  0
    5.5279    1.4718    0.2718 C   0  0  0  0  0  0  0  0  0  0  0  0
    5.8976    2.3352   -0.9331 C   0  0  0  0  0  0  0  0  0  0  0  0
    6.4359    1.5149   -2.0130 N   0  0  0  0  0  0  0  0  0  0  0  0
    6.7648    2.0722   -3.2620 C   0  0  0  0  0  0  0  0  0  0  0  0
    6.6289    3.4544   -3.5076 C   0  0  0  0  0  0  0  0  0  0  0  0
    6.9712    3.9989   -4.7406 C   0  0  0  0  0  0  0  0  0  0  0  0
    7.4588    3.1674   -5.7535 C   0  0  0  0  0  0  0  0  0  0  0  0
    7.9796    3.8905   -7.3097 S   0  0  1  0  0  0  0  0  0  0  0  0
    8.7398    5.1043   -6.9915 O   0  0  0  0  0  0  0  0  0  0  0  0
    8.5488    2.8120   -8.1247 O   0  0  0  0  0  0  0  0  0  0  0  0
    6.5515    4.4591   -8.0160 N   0  0  0  0  0  0  0  0  0  0  0  0
    5.9121    3.7031   -9.1170 C   0  0  1  0  0  0  0  0  0  0  0  0
    5.1432    2.5064   -8.5403 C   0  0  0  0  0  0  0  0  0  0  0  0
    4.3300    1.6664   -9.5358 C   0  0  0  0  0  0  0  0  0  0  0  0
    3.0696    2.3661  -10.0707 C   0  0  0  0  0  0  0  0  0  0  0  0
    3.2722    3.3243  -11.2603 C   0  0  0  0  0  0  0  0  0  0  0  0
    4.5764    4.1418  -11.2758 C   0  0  0  0  0  0  0  0  0  0  0  0
    5.0618    4.6978   -9.9269 C   0  0  0  0  0  0  0  0  0  0  0  0
    7.5980    1.8005   -5.5380 C   0  0  0  0  0  0  0  0  0  0  0  0
    7.2221    1.2317   -4.3139 C   0  0  0  0  0  0  0  0  0  0  0  0
    7.2909   -0.2759   -4.2415 C   0  0  0  0  0  0  0  0  0  0  0  0
    7.9483   -0.9334   -5.0050 O   0  0  0  0  0  0  0  0  0  0  0  0
    6.5296   -0.8688   -3.2991 O   0  0  0  0  0  0  0  0  0  0  0  0
    2.2416    4.1706    1.4534 H   0  0  0  0  0  0  0  0  0  0  0  0
    3.7795    4.5229    2.3065 H   0  0  0  0  0  0  0  0  0  0  0  0
    2.7925    3.1056    2.7863 H   0  0  0  0  0  0  0  0  0  0  0  0
    4.6904    1.6124    2.2640 H   0  0  0  0  0  0  0  0  0  0  0  0
    5.6682    3.0244    1.7884 H   0  0  0  0  0  0  0  0  0  0  0  0
    4.8042    0.7009   -0.0415 H   0  0  0  0  0  0  0  0  0  0  0  0
    6.4208    0.9437    0.6522 H   0  0  0  0  0  0  0  0  0  0  0  0
    6.6137    3.1227   -0.6215 H   0  0  0  0  0  0  0  0  0  0  0  0
    4.9936    2.8489   -1.2909 H   0  0  0  0  0  0  0  0  0  0  0  0
    7.1477    0.8672   -1.6782 H   0  0  0  0  0  0  0  0  0  0  0  0
    6.2752    4.1166   -2.7183 H   0  0  0  0  0  0  0  0  0  0  0  0
    6.8807    5.0733   -4.9110 H   0  0  0  0  0  0  0  0  0  0  0  0
    6.7365    5.4358   -8.2456 H   0  0  0  0  0  0  0  0  0  0  0  0
    6.6959    3.3135   -9.7927 H   0  0  0  0  0  0  0  0  0  0  0  0
    4.4706    2.8805   -7.7479 H   0  0  0  0  0  0  0  0  0  0  0  0
    5.8754    1.8508   -8.0431 H   0  0  0  0  0  0  0  0  0  0  0  0
    4.0223    0.7475   -9.0102 H   0  0  0  0  0  0  0  0  0  0  0  0
    4.9712    1.3268  -10.3694 H   0  0  0  0  0  0  0  0  0  0  0  0
    2.6036    2.9120   -9.2310 H   0  0  0  0  0  0  0  0  0  0  0  0
    2.3276    1.6065  -10.3690 H   0  0  0  0  0  0  0  0  0  0  0  0
    2.4103    4.0133  -11.2965 H   0  0  0  0  0  0  0  0  0  0  0  0
    3.2282    2.7504  -12.2023 H   0  0  0  0  0  0  0  0  0  0  0  0
    4.4424    4.9807  -11.9785 H   0  0  0  0  0  0  0  0  0  0  0  0
    5.3912    3.5334  -11.7053 H   0  0  0  0  0  0  0  0  0  0  0  0
    4.2155    5.0588   -9.3156 H   0  0  0  0  0  0  0  0  0  0  0  0
    5.6941    5.5811  -10.1274 H   0  0  0  0  0  0  0  0  0  0  0  0
    7.9844    1.1479   -6.3224 H   0  0  0  0  0  0  0  0  0  0  0  0
    6.0248   -0.1921   -2.8036 H   0  0  0  0  0  0  0  0  0  0  0  0
  1  2  1  0
  1 27  1  0
  1 28  1  0
  1 29  1  0
  2  3  1  0
  3  4  1  0
  3 30  1  0
  3 31  1  0
  4  5  1  0
  4 32  1  0
  4 33  1  0
  5  6  1  0
  5 34  1  0
  5 35  1  0
  6  7  1  0
  6 36  1  0
  7  8  2  0
  7 23  1  0
  8  9  1  0
  8 37  1  0
  9 10  2  0
  9 38  1  0
 10 11  1  0
 10 22  1  0
 11 12  2  0
 11 13  2  0
 11 14  1  6
 14 15  1  0
 14 39  1  0
 15 16  1  0
 15 21  1  0
 15 40  1  6
 16 17  1  0
 16 41  1  0
 16 42  1  0
 17 18  1  0
 17 43  1  0
 17 44  1  0
 18 19  1  0
 18 45  1  0
 18 46  1  0
 19 20  1  0
 19 47  1  0
 19 48  1  0
 20 21  1  0
 20 49  1  0
 20 50  1  0
 21 51  1  0
 21 52  1  0
 22 23  2  0
 22 53  1  0
 23 24  1  0
 24 25  2  0
 24 26  1  0
 26 54  1  0
M  END

