
     RDKit          3D

 47 49  0  0  0  0  0  0  0  0999 V2000
    4.7929   -3.8699    3.1863 C   0  0  0  0  0  0  0  0  0  0  0  0
    3.5273   -3.2995    2.9367 O   0  0  0  0  0  0  0  0  0  0  0  0
    3.3677   -1.9616    3.0100 C   0  0  0  0  0  0  0  0  0  0  0  0
    4.3922   -1.0594    3.3407 C   0  0  0  0  0  0  0  0  0  0  0  0
    4.1590    0.3232    3.4026 C   0  0  0  0  0  0  0  0  0  0  0  0
    5.2450    1.3321    3.8002 C   0  0  1  0  0  0  0  0  0  0  0  0
    6.6640    0.7707    4.0524 C   0  0  0  0  0  0  0  0  0  0  0  0
    7.4436    0.4381    2.7722 C   0  0  0  0  0  0  0  0  0  0  0  0
    7.4961    1.6373    1.8232 C   0  0  0  0  0  0  0  0  0  0  0  0
    6.0676    2.1094    1.4663 C   0  0  2  0  0  0  0  0  0  0  0  0
    6.0223    3.2630    0.6005 N   0  0  0  0  0  0  0  0  0  0  0  0
    6.1048    3.2122   -0.7596 C   0  0  0  0  0  0  0  0  0  0  0  0
    6.4063    1.7833   -1.5833 S   0  0  0  0  0  0  0  0  0  0  0  0
    5.9241    4.4528   -1.3276 N   0  0  0  0  0  0  0  0  0  0  0  0
    5.9070    4.9011   -2.6538 C   0  0  0  0  0  0  0  0  0  0  0  0
    5.9954    4.1096   -3.8099 C   0  0  0  0  0  0  0  0  0  0  0  0
    5.9568    4.7045   -5.0673 C   0  0  0  0  0  0  0  0  0  0  0  0
    6.0435    3.9421   -6.1607 F   0  0  0  0  0  0  0  0  0  0  0  0
    5.8274    6.0869   -5.2142 C   0  0  0  0  0  0  0  0  0  0  0  0
    5.7930    6.6298   -6.4334 F   0  0  0  0  0  0  0  0  0  0  0  0
    5.7348    6.8931   -4.0820 C   0  0  0  0  0  0  0  0  0  0  0  0
    5.7765    6.2933   -2.8331 C   0  0  0  0  0  0  0  0  0  0  0  0
    5.6865    7.0639   -1.7261 F   0  0  0  0  0  0  0  0  0  0  0  0
    5.3109    2.4422    2.7499 C   0  0  0  0  0  0  0  0  0  0  0  0
    4.8152    3.5375    2.9245 O   0  0  0  0  0  0  0  0  0  0  0  0
    2.8696    0.8013    3.1279 C   0  0  0  0  0  0  0  0  0  0  0  0
    1.8408   -0.0829    2.7962 C   0  0  0  0  0  0  0  0  0  0  0  0
    2.0798   -1.4532    2.7347 C   0  0  0  0  0  0  0  0  0  0  0  0
    0.7933   -2.5520    2.3206 Cl  0  0  0  0  0  0  0  0  0  0  0  0
    4.6739   -4.9538    3.0586 H   0  0  0  0  0  0  0  0  0  0  0  0
    5.1394   -3.6673    4.2157 H   0  0  0  0  0  0  0  0  0  0  0  0
    5.5548   -3.5072    2.4734 H   0  0  0  0  0  0  0  0  0  0  0  0
    5.3825   -1.4522    3.5596 H   0  0  0  0  0  0  0  0  0  0  0  0
    4.8971    1.8320    4.7184 H   0  0  0  0  0  0  0  0  0  0  0  0
    6.6054   -0.1006    4.7239 H   0  0  0  0  0  0  0  0  0  0  0  0
    7.2260    1.5393    4.6105 H   0  0  0  0  0  0  0  0  0  0  0  0
    6.9837   -0.4155    2.2466 H   0  0  0  0  0  0  0  0  0  0  0  0
    8.4667    0.1243    3.0359 H   0  0  0  0  0  0  0  0  0  0  0  0
    8.0141    1.3843    0.8865 H   0  0  0  0  0  0  0  0  0  0  0  0
    8.0413    2.4769    2.2897 H   0  0  0  0  0  0  0  0  0  0  0  0
    5.5544    1.2640    0.9696 H   0  0  0  0  0  0  0  0  0  0  0  0
    5.6070    4.0776    1.0554 H   0  0  0  0  0  0  0  0  0  0  0  0
    5.8196    5.2194   -0.6690 H   0  0  0  0  0  0  0  0  0  0  0  0
    6.1004    3.0296   -3.7259 H   0  0  0  0  0  0  0  0  0  0  0  0
    5.6327    7.9748   -4.1749 H   0  0  0  0  0  0  0  0  0  0  0  0
    2.6601    1.8719    3.1814 H   0  0  0  0  0  0  0  0  0  0  0  0
    0.8360    0.2862    2.5836 H   0  0  0  0  0  0  0  0  0  0  0  0
  1  2  1  0
  1 30  1  0
  1 31  1  0
  1 32  1  0
  2  3  1  0
  3  4  2  0
  3 28  1  0
  4  5  1  0
  4 33  1  0
  5  6  1  0
  5 26  2  0
  6  7  1  0
  6 24  1  0
  6 34  1  1
  7  8  1  0
  7 35  1  0
  7 36  1  0
  8  9  1  0
  8 37  1  0
  8 38  1  0
  9 10  1  0
  9 39  1  0
  9 40  1  0
 10 11  1  0
 10 24  1  0
 10 41  1  6
 11 12  1  0
 11 42  1  0
 12 13  2  0
 12 14  1  0
 14 15  1  0
 14 43  1  0
 15 16  2  0
 15 22  1  0
 16 17  1  0
 16 44  1  0
 17 18  1  0
 17 19  2  0
 19 20  1  0
 19 21  1  0
 21 22  2  0
 21 45  1  0
 22 23  1  0
 24 25  2  0
 26 27  1  0
 26 46  1  0
 27 28  2  0
 27 47  1  0
 28 29  1  0
M  END

