
     RDKit          3D

 41 42  0  0  0  0  0  0  0  0999 V2000
    0.1745    3.4857    2.2765 C   0  0  0  0  0  0  0  0  0  0  0  0
    1.1259    3.3226    1.0913 C   0  0  0  0  0  0  0  0  0  0  0  0
    2.2415    2.4355    1.3679 N   0  0  0  0  0  0  0  0  0  0  0  0
    3.5490    2.8689    1.3550 C   0  0  0  0  0  0  0  0  0  0  0  0
    3.8710    4.0245    1.1175 O   0  0  0  0  0  0  0  0  0  0  0  0
    4.4846    1.8810    1.6185 N   0  0  0  0  0  0  0  0  0  0  0  0
    5.8931    2.2375    1.8078 C   0  0  1  0  0  0  0  0  0  0  0  0
    6.6310    1.0937    2.5200 C   0  0  0  0  0  0  0  0  0  0  0  0
    6.8266   -0.1389    1.6288 C   0  0  0  0  0  0  0  0  0  0  0  0
    7.4718    0.2337    0.3720 N   0  0  0  0  0  0  0  0  0  0  0  0
    8.4259   -0.6165   -0.1416 C   0  0  0  0  0  0  0  0  0  0  0  0
    8.6939   -1.6889    0.3822 O   0  0  0  0  0  0  0  0  0  0  0  0
    9.1958   -0.1791   -1.3664 C   0  0  0  0  0  0  0  0  0  0  0  0
    9.7691    1.0959   -1.4899 C   0  0  0  0  0  0  0  0  0  0  0  0
   10.5670    1.4023   -2.5954 C   0  0  0  0  0  0  0  0  0  0  0  0
   10.7946    0.4514   -3.5927 C   0  0  0  0  0  0  0  0  0  0  0  0
   10.2287   -0.8208   -3.4576 C   0  0  0  0  0  0  0  0  0  0  0  0
   10.5160   -2.0250   -4.6938 Cl  0  0  0  0  0  0  0  0  0  0  0  0
    9.4478   -1.1477   -2.3489 C   0  0  0  0  0  0  0  0  0  0  0  0
    6.7545    1.2697   -0.3774 C   0  0  0  0  0  0  0  0  0  0  0  0
    6.5816    2.5355    0.4613 C   0  0  0  0  0  0  0  0  0  0  0  0
   -0.6579    4.1590    2.0149 H   0  0  0  0  0  0  0  0  0  0  0  0
    0.7001    3.9100    3.1463 H   0  0  0  0  0  0  0  0  0  0  0  0
   -0.2631    2.5199    2.5815 H   0  0  0  0  0  0  0  0  0  0  0  0
    1.5697    4.2898    0.8163 H   0  0  0  0  0  0  0  0  0  0  0  0
    0.5691    2.9583    0.2080 H   0  0  0  0  0  0  0  0  0  0  0  0
    2.0515    1.4458    1.4695 H   0  0  0  0  0  0  0  0  0  0  0  0
    4.1593    1.0428    2.0868 H   0  0  0  0  0  0  0  0  0  0  0  0
    5.9420    3.1500    2.4257 H   0  0  0  0  0  0  0  0  0  0  0  0
    6.0960    0.8062    3.4420 H   0  0  0  0  0  0  0  0  0  0  0  0
    7.6204    1.4653    2.8319 H   0  0  0  0  0  0  0  0  0  0  0  0
    5.8534   -0.6250    1.4155 H   0  0  0  0  0  0  0  0  0  0  0  0
    7.4532   -0.8941    2.1184 H   0  0  0  0  0  0  0  0  0  0  0  0
    9.6121    1.8432   -0.7094 H   0  0  0  0  0  0  0  0  0  0  0  0
   11.0215    2.3924   -2.6824 H   0  0  0  0  0  0  0  0  0  0  0  0
   11.4100    0.6829   -4.4635 H   0  0  0  0  0  0  0  0  0  0  0  0
    9.0412   -2.1530   -2.2343 H   0  0  0  0  0  0  0  0  0  0  0  0
    5.7550    0.8799   -0.6511 H   0  0  0  0  0  0  0  0  0  0  0  0
    7.2800    1.4850   -1.3140 H   0  0  0  0  0  0  0  0  0  0  0  0
    5.9886    3.2831   -0.0847 H   0  0  0  0  0  0  0  0  0  0  0  0
    7.5697    2.9831    0.6653 H   0  0  0  0  0  0  0  0  0  0  0  0
  1  2  1  0
  1 22  1  0
  1 23  1  0
  1 24  1  0
  2  3  1  0
  2 25  1  0
  2 26  1  0
  3  4  1  0
  3 27  1  0
  4  5  2  0
  4  6  1  0
  6  7  1  0
  6 28  1  0
  7  8  1  0
  7 21  1  0
  7 29  1  1
  8  9  1  0
  8 30  1  0
  8 31  1  0
  9 10  1  0
  9 32  1  0
  9 33  1  0
 10 11  1  0
 10 20  1  0
 11 12  2  0
 11 13  1  0
 13 14  2  0
 13 19  1  0
 14 15  1  0
 14 34  1  0
 15 16  2  0
 15 35  1  0
 16 17  1  0
 16 36  1  0
 17 18  1  0
 17 19  2  0
 19 37  1  0
 20 21  1  0
 20 38  1  0
 20 39  1  0
 21 40  1  0
 21 41  1  0
M  END

