
     RDKit          3D

 15 15  0  0  0  0  0  0  0  0999 V2000
    0.8892    0.0589    0.0410 O   0  0  0  0  0  0  0  0  0  0  0  0
    2.1014    0.0057    0.0458 C   0  0  0  0  0  0  0  0  0  0  0  0
    2.8967    1.1674    0.0555 N   0  0  0  0  0  0  0  0  0  0  0  0
    2.3732    2.0399    0.0577 H   0  0  0  0  0  0  0  0  0  0  0  0
    4.2647    1.1972    0.0620 C   0  0  0  0  0  0  0  0  0  0  0  0
    5.0527    2.9172    0.0748 Br  0  0  0  0  0  0  0  0  0  0  0  0
    4.9923    0.0462    0.0593 C   0  0  0  0  0  0  0  0  0  0  0  0
    4.2808   -1.1995    0.0498 C   0  0  0  0  0  0  0  0  0  0  0  0
    5.0680   -2.4862    0.0462 C   0  0  1  0  0  0  0  0  0  0  0  0
    5.8741   -2.5251   -1.0486 F   0  0  0  0  0  0  0  0  0  0  0  0
    5.8735   -2.5314    1.1412 F   0  0  0  0  0  0  0  0  0  0  0  0
    2.9160   -1.2133    0.0434 C   0  0  0  0  0  0  0  0  0  0  0  0
    2.2297   -2.3531    0.0344 F   0  0  0  0  0  0  0  0  0  0  0  0
    6.0801    0.0644    0.0647 H   0  0  0  0  0  0  0  0  0  0  0  0
    4.4227   -3.3781    0.0434 H   0  0  0  0  0  0  0  0  0  0  0  0
  1  2  2  0
  2  3  1  0
  2 12  1  0
  3  4  1  0
  3  5  1  0
  5  6  1  0
  5  7  2  0
  7  8  1  0
  7 14  1  0
  8  9  1  0
  8 12  2  0
  9 10  1  0
  9 11  1  0
  9 15  1  6
 12 13  1  0
M  END

