
     RDKit          3D

 60 64  0  0  0  0  0  0  0  0999 V2000
    0.9147    2.3040   -0.8125 C   0  0  0  0  0  0  0  0  0  0  0  0
    2.3259    1.8145   -0.5961 C   0  0  0  0  0  0  0  0  0  0  0  0
    2.8330    1.5956    0.6891 C   0  0  0  0  0  0  0  0  0  0  0  0
    4.1428    1.1435    0.9068 C   0  0  0  0  0  0  0  0  0  0  0  0
    4.6452    0.9234    2.3145 C   0  0  0  0  0  0  0  0  0  0  0  0
    4.9697    0.9038   -0.2121 C   0  0  0  0  0  0  0  0  0  0  0  0
    6.3700    0.4202   -0.0046 C   0  0  0  0  0  0  0  0  0  0  0  0
    6.6378   -0.9611    0.0395 C   0  0  0  0  0  0  0  0  0  0  0  0
    5.7810   -2.0746   -0.1319 C   0  0  0  0  0  0  0  0  0  0  0  0
    6.5690   -3.2320   -0.0481 C   0  0  0  0  0  0  0  0  0  0  0  0
    6.1056   -4.6003   -0.1761 C   0  0  0  0  0  0  0  0  0  0  0  0
    6.8633   -5.7157   -0.0981 C   0  0  0  0  0  0  0  0  0  0  0  0
    6.3392   -7.0895   -0.2307 C   0  0  0  0  0  0  0  0  0  0  0  0
    7.0319   -8.0801   -0.1316 O   0  0  0  0  0  0  0  0  0  0  0  0
    5.0097   -7.1286   -0.4790 O   0  0  0  0  0  0  0  0  0  0  0  0
    4.3936   -8.4254   -0.6226 C   0  0  0  0  0  0  0  0  0  0  0  0
    3.8431   -8.9446    0.6848 C   0  0  0  0  0  0  0  0  0  0  0  0
    2.5002   -8.7260    1.0267 C   0  0  0  0  0  0  0  0  0  0  0  0
    1.9872   -9.1911    2.2408 C   0  0  0  0  0  0  0  0  0  0  0  0
    2.8161   -9.8810    3.1302 C   0  0  0  0  0  0  0  0  0  0  0  0
    4.1569  -10.1037    2.7993 C   0  0  0  0  0  0  0  0  0  0  0  0
    4.6682   -9.6396    1.5849 C   0  0  0  0  0  0  0  0  0  0  0  0
    7.9008   -2.7732    0.1800 C   0  0  0  0  0  0  0  0  0  0  0  0
    7.9342   -1.4426    0.2331 N   0  0  0  0  0  0  0  0  0  0  0  0
    9.1962   -0.5620    0.5702 B   0  0  1  0  0  0  0  0  0  0  0  0
    9.5320   -0.7306    1.8992 F   0  0  0  0  0  0  0  0  0  0  0  0
   10.2395   -0.8918   -0.2679 F   0  0  0  0  0  0  0  0  0  0  0  0
    8.7379    0.9170    0.3194 N   0  0  0  0  0  0  0  0  0  0  0  0
    9.5203    2.0025    0.3561 C   0  0  0  0  0  0  0  0  0  0  0  0
    8.7447    3.1741    0.1889 C   0  0  0  0  0  0  0  0  0  0  0  0
    7.4252    2.7603    0.0458 C   0  0  0  0  0  0  0  0  0  0  0  0
    7.4238    1.3382    0.1246 C   0  0  0  0  0  0  0  0  0  0  0  0
    4.4847    1.1156   -1.5242 C   0  0  0  0  0  0  0  0  0  0  0  0
    5.3572    0.8635   -2.7317 C   0  0  0  0  0  0  0  0  0  0  0  0
    3.1701    1.5674   -1.6876 C   0  0  0  0  0  0  0  0  0  0  0  0
    0.3759    2.4232    0.1388 H   0  0  0  0  0  0  0  0  0  0  0  0
    0.3404    1.6031   -1.4409 H   0  0  0  0  0  0  0  0  0  0  0  0
    0.9052    3.2782   -1.3295 H   0  0  0  0  0  0  0  0  0  0  0  0
    2.1920    1.7809    1.5559 H   0  0  0  0  0  0  0  0  0  0  0  0
    3.8626    1.1483    3.0530 H   0  0  0  0  0  0  0  0  0  0  0  0
    5.5155    1.5612    2.5381 H   0  0  0  0  0  0  0  0  0  0  0  0
    4.9700   -0.1177    2.4714 H   0  0  0  0  0  0  0  0  0  0  0  0
    4.7082   -2.0231   -0.3081 H   0  0  0  0  0  0  0  0  0  0  0  0
    5.0334   -4.7282   -0.3510 H   0  0  0  0  0  0  0  0  0  0  0  0
    7.9407   -5.6785    0.0798 H   0  0  0  0  0  0  0  0  0  0  0  0
    5.1337   -9.1209   -1.0414 H   0  0  0  0  0  0  0  0  0  0  0  0
    3.5831   -8.2714   -1.3484 H   0  0  0  0  0  0  0  0  0  0  0  0
    1.8480   -8.1885    0.3319 H   0  0  0  0  0  0  0  0  0  0  0  0
    0.9378   -9.0163    2.4920 H   0  0  0  0  0  0  0  0  0  0  0  0
    2.4171  -10.2473    4.0797 H   0  0  0  0  0  0  0  0  0  0  0  0
    4.8084  -10.6445    3.4907 H   0  0  0  0  0  0  0  0  0  0  0  0
    5.7168   -9.8035    1.3265 H   0  0  0  0  0  0  0  0  0  0  0  0
    8.8125   -3.3559    0.3075 H   0  0  0  0  0  0  0  0  0  0  0  0
   10.5959    1.9072    0.5016 H   0  0  0  0  0  0  0  0  0  0  0  0
    9.1266    4.1928    0.1733 H   0  0  0  0  0  0  0  0  0  0  0  0
    6.5433    3.3784   -0.1098 H   0  0  0  0  0  0  0  0  0  0  0  0
    5.7009   -0.1826   -2.7726 H   0  0  0  0  0  0  0  0  0  0  0  0
    6.2623    1.4918   -2.7158 H   0  0  0  0  0  0  0  0  0  0  0  0
    4.8138    1.0772   -3.6631 H   0  0  0  0  0  0  0  0  0  0  0  0
    2.7946    1.7310   -2.7024 H   0  0  0  0  0  0  0  0  0  0  0  0
  1  2  1  0
  1 36  1  0
  1 37  1  0
  1 38  1  0
  2  3  2  0
  2 35  1  0
  3  4  1  0
  3 39  1  0
  4  5  1  0
  4  6  2  0
  5 40  1  0
  5 41  1  0
  5 42  1  0
  6  7  1  0
  6 33  1  0
  7  8  1  0
  7 32  2  0
  8  9  2  0
  8 24  1  0
  9 10  1  0
  9 43  1  0
 10 11  1  0
 10 23  2  0
 11 12  2  0
 11 44  1  0
 12 13  1  0
 12 45  1  0
 13 14  2  0
 13 15  1  0
 15 16  1  0
 16 17  1  0
 16 46  1  0
 16 47  1  0
 17 18  2  0
 17 22  1  0
 18 19  1  0
 18 48  1  0
 19 20  2  0
 19 49  1  0
 20 21  1  0
 20 50  1  0
 21 22  2  0
 21 51  1  0
 22 52  1  0
 23 24  1  0
 23 53  1  0
 24 25  1  0
 25 26  1  1
 25 27  1  0
 25 28  1  0
 28 29  2  0
 28 32  1  0
 29 30  1  0
 29 54  1  0
 30 31  2  0
 30 55  1  0
 31 32  1  0
 31 56  1  0
 33 34  1  0
 33 35  2  0
 34 57  1  0
 34 58  1  0
 34 59  1  0
 35 60  1  0
M  CHG  2  25  -1  28   1
M  END

