
     RDKit          3D

100107  0  0  0  0  0  0  0  0999 V2000
    0.7592   -0.8855    2.1083 C   0  0  0  0  0  0  0  0  0  0  0  0
    2.2837   -0.9962    2.1791 C   0  0  0  0  0  0  0  0  0  0  0  0
    2.9920    0.1764    1.4947 C   0  0  0  0  0  0  0  0  0  0  0  0
    4.5476    0.1581    1.5144 C   0  0  2  0  0  0  0  0  0  0  0  0
    5.0563    1.4244    0.7676 C   0  0  0  0  0  0  0  0  0  0  0  0
    6.5744    1.6019    0.6741 C   0  0  0  0  0  0  0  0  0  0  0  0
    6.9734    2.8737   -0.0772 C   0  0  0  0  0  0  0  0  0  0  0  0
    5.1110   -1.1282    0.9060 C   0  0  0  0  0  0  0  0  0  0  0  0
    4.9488   -1.6231   -0.3829 C   0  0  0  0  0  0  0  0  0  0  0  0
    5.5440   -2.8480   -0.7573 C   0  0  0  0  0  0  0  0  0  0  0  0
    5.3756   -3.3868   -2.1331 C   0  0  0  0  0  0  0  0  0  0  0  0
    5.3471   -2.5300   -3.2509 C   0  0  0  0  0  0  0  0  0  0  0  0
    5.1883   -3.0349   -4.5430 C   0  0  0  0  0  0  0  0  0  0  0  0
    5.0538   -4.4108   -4.7511 C   0  0  0  0  0  0  0  0  0  0  0  0
    5.0798   -5.2758   -3.6529 C   0  0  0  0  0  0  0  0  0  0  0  0
    5.2384   -4.7701   -2.3612 C   0  0  0  0  0  0  0  0  0  0  0  0
    6.3029   -3.5473    0.2047 C   0  0  0  0  0  0  0  0  0  0  0  0
    6.4721   -3.0564    1.5006 C   0  0  0  0  0  0  0  0  0  0  0  0
    5.8738   -1.8427    1.8547 C   0  0  0  0  0  0  0  0  0  0  0  0
    5.8707   -1.0926    3.1152 C   0  0  0  0  0  0  0  0  0  0  0  0
    6.4742   -1.3531    4.3500 C   0  0  0  0  0  0  0  0  0  0  0  0
    6.3040   -0.4459    5.3971 C   0  0  0  0  0  0  0  0  0  0  0  0
    5.5368    0.7287    5.2418 C   0  0  0  0  0  0  0  0  0  0  0  0
    5.3667    1.6828    6.3682 C   0  0  0  0  0  0  0  0  0  0  0  0
    6.4204    1.9286    7.2746 C   0  0  0  0  0  0  0  0  0  0  0  0
    6.2781    2.8214    8.3381 C   0  0  0  0  0  0  0  0  0  0  0  0
    5.0615    3.4900    8.5110 C   0  0  0  0  0  0  0  0  0  0  0  0
    3.9957    3.2587    7.6150 C   0  0  0  0  0  0  0  0  0  0  0  0
    4.1458    2.3684    6.5580 C   0  0  0  0  0  0  0  0  0  0  0  0
    2.7669    4.0844    8.0028 C   0  0  1  0  0  0  0  0  0  0  0  0
    2.3469    5.0659    6.8713 C   0  0  0  0  0  0  0  0  0  0  0  0
    3.4147    6.0510    6.3870 C   0  0  0  0  0  0  0  0  0  0  0  0
    2.9068    6.9707    5.2746 C   0  0  0  0  0  0  0  0  0  0  0  0
    1.5447    3.1825    8.3399 C   0  0  0  0  0  0  0  0  0  0  0  0
    1.7467    2.1370    9.4403 C   0  0  0  0  0  0  0  0  0  0  0  0
    0.4903    1.3022    9.6965 C   0  0  0  0  0  0  0  0  0  0  0  0
    3.2871    4.8254    9.2367 C   0  0  0  0  0  0  0  0  0  0  0  0
    2.6215    5.7388   10.0462 C   0  0  0  0  0  0  0  0  0  0  0  0
    3.2729    6.3126   11.1603 C   0  0  0  0  0  0  0  0  0  0  0  0
    2.5696    7.2898   12.0331 C   0  0  0  0  0  0  0  0  0  0  0  0
    2.7813    7.3060   13.4257 C   0  0  0  0  0  0  0  0  0  0  0  0
    2.1208    8.2235   14.2451 C   0  0  0  0  0  0  0  0  0  0  0  0
    1.2302    9.1492   13.6930 C   0  0  0  0  0  0  0  0  0  0  0  0
    1.0078    9.1470   12.3128 C   0  0  0  0  0  0  0  0  0  0  0  0
    1.6689    8.2293   11.4941 C   0  0  0  0  0  0  0  0  0  0  0  0
    4.6069    5.9371   11.4245 C   0  0  0  0  0  0  0  0  0  0  0  0
    5.2829    5.0215   10.6159 C   0  0  0  0  0  0  0  0  0  0  0  0
    4.6218    4.4621    9.5174 C   0  0  0  0  0  0  0  0  0  0  0  0
    4.9330    0.9738    3.9880 C   0  0  0  0  0  0  0  0  0  0  0  0
    5.0986    0.0759    2.9399 C   0  0  0  0  0  0  0  0  0  0  0  0
    0.2706   -1.7384    2.6059 H   0  0  0  0  0  0  0  0  0  0  0  0
    0.4042   -0.8633    1.0640 H   0  0  0  0  0  0  0  0  0  0  0  0
    0.3976    0.0351    2.5971 H   0  0  0  0  0  0  0  0  0  0  0  0
    2.6045   -1.9434    1.7137 H   0  0  0  0  0  0  0  0  0  0  0  0
    2.5993   -1.0532    3.2346 H   0  0  0  0  0  0  0  0  0  0  0  0
    2.6581    1.1226    1.9580 H   0  0  0  0  0  0  0  0  0  0  0  0
    2.6658    0.2311    0.4402 H   0  0  0  0  0  0  0  0  0  0  0  0
    4.6178    2.3100    1.2623 H   0  0  0  0  0  0  0  0  0  0  0  0
    4.6290    1.4121   -0.2516 H   0  0  0  0  0  0  0  0  0  0  0  0
    7.0186    0.7249    0.1736 H   0  0  0  0  0  0  0  0  0  0  0  0
    7.0064    1.6246    1.6889 H   0  0  0  0  0  0  0  0  0  0  0  0
    6.5872    2.8705   -1.1107 H   0  0  0  0  0  0  0  0  0  0  0  0
    8.0684    2.9806   -0.1335 H   0  0  0  0  0  0  0  0  0  0  0  0
    6.5773    3.7763    0.4181 H   0  0  0  0  0  0  0  0  0  0  0  0
    4.3373   -1.0806   -1.1083 H   0  0  0  0  0  0  0  0  0  0  0  0
    5.4774   -1.4548   -3.1077 H   0  0  0  0  0  0  0  0  0  0  0  0
    5.1785   -2.3487   -5.3940 H   0  0  0  0  0  0  0  0  0  0  0  0
    4.9298   -4.8064   -5.7623 H   0  0  0  0  0  0  0  0  0  0  0  0
    4.9670   -6.3530   -3.8014 H   0  0  0  0  0  0  0  0  0  0  0  0
    5.2304   -5.4567   -1.5116 H   0  0  0  0  0  0  0  0  0  0  0  0
    6.7910   -4.4825   -0.0784 H   0  0  0  0  0  0  0  0  0  0  0  0
    7.0734   -3.6164    2.2215 H   0  0  0  0  0  0  0  0  0  0  0  0
    7.0670   -2.2584    4.5043 H   0  0  0  0  0  0  0  0  0  0  0  0
    6.7542   -0.6637    6.3680 H   0  0  0  0  0  0  0  0  0  0  0  0
    7.3793    1.4277    7.1254 H   0  0  0  0  0  0  0  0  0  0  0  0
    7.1157    2.9969    9.0181 H   0  0  0  0  0  0  0  0  0  0  0  0
    3.3097    2.1714    5.8823 H   0  0  0  0  0  0  0  0  0  0  0  0
    1.4643    5.6310    7.2220 H   0  0  0  0  0  0  0  0  0  0  0  0
    1.9926    4.4647    6.0143 H   0  0  0  0  0  0  0  0  0  0  0  0
    4.2962    5.4932    6.0284 H   0  0  0  0  0  0  0  0  0  0  0  0
    3.7659    6.6614    7.2361 H   0  0  0  0  0  0  0  0  0  0  0  0
    2.5803    6.3951    4.3918 H   0  0  0  0  0  0  0  0  0  0  0  0
    3.6901    7.6705    4.9424 H   0  0  0  0  0  0  0  0  0  0  0  0
    2.0451    7.5726    5.6099 H   0  0  0  0  0  0  0  0  0  0  0  0
    1.2310    2.6741    7.4101 H   0  0  0  0  0  0  0  0  0  0  0  0
    0.7019    3.8417    8.6166 H   0  0  0  0  0  0  0  0  0  0  0  0
    2.0508    2.6387   10.3745 H   0  0  0  0  0  0  0  0  0  0  0  0
    2.5812    1.4695    9.1667 H   0  0  0  0  0  0  0  0  0  0  0  0
   -0.3583    1.9348   10.0075 H   0  0  0  0  0  0  0  0  0  0  0  0
    0.6574    0.5583   10.4916 H   0  0  0  0  0  0  0  0  0  0  0  0
    0.1775    0.7550    8.7911 H   0  0  0  0  0  0  0  0  0  0  0  0
    1.5799    5.9990    9.8417 H   0  0  0  0  0  0  0  0  0  0  0  0
    3.4541    6.5723   13.8756 H   0  0  0  0  0  0  0  0  0  0  0  0
    2.2969    8.2090   15.3239 H   0  0  0  0  0  0  0  0  0  0  0  0
    0.7130    9.8674   14.3342 H   0  0  0  0  0  0  0  0  0  0  0  0
    0.3206    9.8714   11.8676 H   0  0  0  0  0  0  0  0  0  0  0  0
    1.5041    8.2582   10.4145 H   0  0  0  0  0  0  0  0  0  0  0  0
    5.1321    6.3926   12.2669 H   0  0  0  0  0  0  0  0  0  0  0  0
    6.3194    4.7569   10.8408 H   0  0  0  0  0  0  0  0  0  0  0  0
    4.3568    1.8907    3.8404 H   0  0  0  0  0  0  0  0  0  0  0  0
  1  2  1  0
  1 51  1  0
  1 52  1  0
  1 53  1  0
  2  3  1  0
  2 54  1  0
  2 55  1  0
  4  3  1  1
  3 56  1  0
  3 57  1  0
  4  5  1  0
  4  8  1  0
  4 50  1  0
  5  6  1  0
  5 58  1  0
  5 59  1  0
  6  7  1  0
  6 60  1  0
  6 61  1  0
  7 62  1  0
  7 63  1  0
  7 64  1  0
  8  9  2  0
  8 19  1  0
  9 10  1  0
  9 65  1  0
 10 11  1  0
 10 17  2  0
 11 12  2  0
 11 16  1  0
 12 13  1  0
 12 66  1  0
 13 14  2  0
 13 67  1  0
 14 15  1  0
 14 68  1  0
 15 16  2  0
 15 69  1  0
 16 70  1  0
 17 18  1  0
 17 71  1  0
 18 19  2  0
 18 72  1  0
 19 20  1  0
 20 21  2  0
 20 50  1  0
 21 22  1  0
 21 73  1  0
 22 23  2  0
 22 74  1  0
 23 24  1  0
 23 49  1  0
 24 25  2  0
 24 29  1  0
 25 26  1  0
 25 75  1  0
 26 27  2  0
 26 76  1  0
 27 28  1  0
 27 48  1  0
 28 29  2  0
 28 30  1  0
 29 77  1  0
 30 31  1  6
 30 34  1  0
 30 37  1  0
 31 32  1  0
 31 78  1  0
 31 79  1  0
 32 33  1  0
 32 80  1  0
 32 81  1  0
 33 82  1  0
 33 83  1  0
 33 84  1  0
 34 35  1  0
 34 85  1  0
 34 86  1  0
 35 36  1  0
 35 87  1  0
 35 88  1  0
 36 89  1  0
 36 90  1  0
 36 91  1  0
 37 38  1  0
 37 48  2  0
 38 39  2  0
 38 92  1  0
 39 40  1  0
 39 46  1  0
 40 41  2  0
 40 45  1  0
 41 42  1  0
 41 93  1  0
 42 43  2  0
 42 94  1  0
 43 44  1  0
 43 95  1  0
 44 45  2  0
 44 96  1  0
 45 97  1  0
 46 47  2  0
 46 98  1  0
 47 48  1  0
 47 99  1  0
 49 50  2  0
 49100  1  0
M  END

