
     RDKit          3D

 46 47  0  0  0  0  0  0  0  0999 V2000
    3.7867   -7.2548    3.5423 C   0  0  0  0  0  0  0  0  0  0  0  0
    3.7814   -5.8230    4.0900 C   0  0  1  0  0  0  0  0  0  0  0  0
    3.7923   -5.8122    5.6232 C   0  0  0  0  0  0  0  0  0  0  0  0
    4.9589   -5.0335    3.4928 C   0  0  0  0  0  0  0  0  0  0  0  0
    4.9445   -3.6284    3.8830 N   0  0  0  0  0  0  0  0  0  0  0  0
    5.4344   -2.4044    2.8653 S   0  0  1  0  0  0  0  0  0  0  0  0
    4.9363   -2.7388    1.5316 O   0  0  0  0  0  0  0  0  0  0  0  0
    5.0934   -1.1639    3.5596 O   0  0  0  0  0  0  0  0  0  0  0  0
    7.2369   -2.4806    2.7875 C   0  0  0  0  0  0  0  0  0  0  0  0
    7.8588   -3.2552    1.8025 C   0  0  0  0  0  0  0  0  0  0  0  0
    9.2510   -3.3241    1.7697 C   0  0  0  0  0  0  0  0  0  0  0  0
   10.0248   -2.6316    2.7139 C   0  0  0  0  0  0  0  0  0  0  0  0
   11.5231   -2.7582    2.5969 C   0  0  0  0  0  0  0  0  0  0  0  0
   12.0519   -3.1356    1.5611 O   0  0  0  0  0  0  0  0  0  0  0  0
   12.2525   -2.4592    3.7145 N   0  0  0  0  0  0  0  0  0  0  0  0
   13.7081   -2.4948    3.6908 C   0  0  0  0  0  0  0  0  0  0  0  0
   14.3489   -1.1996    3.2547 C   0  0  0  0  0  0  0  0  0  0  0  0
   14.4806   -0.7144    1.9706 C   0  0  0  0  0  0  0  0  0  0  0  0
   15.0848    0.5690    1.9157 C   0  0  0  0  0  0  0  0  0  0  0  0
   15.4201    1.0680    3.1571 C   0  0  0  0  0  0  0  0  0  0  0  0
   16.0785    2.3807    3.3881 C   0  0  0  0  0  0  0  0  0  0  0  0
   16.2649    3.1712    2.5013 O   0  0  0  0  0  0  0  0  0  0  0  0
   16.4720    2.6645    4.6524 O   0  0  0  0  0  0  0  0  0  0  0  0
   14.9687   -0.0597    4.4114 S   0  0  0  0  0  0  0  0  0  0  0  0
    9.3817   -1.8327    3.6740 C   0  0  0  0  0  0  0  0  0  0  0  0
    7.9891   -1.7518    3.7136 C   0  0  0  0  0  0  0  0  0  0  0  0
    2.9236   -7.8251    3.9200 H   0  0  0  0  0  0  0  0  0  0  0  0
    4.6995   -7.7958    3.8465 H   0  0  0  0  0  0  0  0  0  0  0  0
    3.7409   -7.2674    2.4414 H   0  0  0  0  0  0  0  0  0  0  0  0
    2.8600   -5.3187    3.7487 H   0  0  0  0  0  0  0  0  0  0  0  0
    4.7149   -6.2724    6.0191 H   0  0  0  0  0  0  0  0  0  0  0  0
    2.9399   -6.3810    6.0270 H   0  0  0  0  0  0  0  0  0  0  0  0
    3.7164   -4.7903    6.0292 H   0  0  0  0  0  0  0  0  0  0  0  0
    4.8852   -5.0566    2.3959 H   0  0  0  0  0  0  0  0  0  0  0  0
    5.9140   -5.5234    3.7727 H   0  0  0  0  0  0  0  0  0  0  0  0
    5.0991   -3.3963    4.8609 H   0  0  0  0  0  0  0  0  0  0  0  0
    7.2524   -3.7743    1.0583 H   0  0  0  0  0  0  0  0  0  0  0  0
    9.7686   -3.9054    1.0046 H   0  0  0  0  0  0  0  0  0  0  0  0
   11.7849   -2.1482    4.5556 H   0  0  0  0  0  0  0  0  0  0  0  0
   13.9977   -3.2810    2.9790 H   0  0  0  0  0  0  0  0  0  0  0  0
   14.0691   -2.7902    4.6872 H   0  0  0  0  0  0  0  0  0  0  0  0
   14.1347   -1.2787    1.1032 H   0  0  0  0  0  0  0  0  0  0  0  0
   15.2879    1.1317    1.0040 H   0  0  0  0  0  0  0  0  0  0  0  0
   16.3299    1.9176    5.2515 H   0  0  0  0  0  0  0  0  0  0  0  0
    9.9586   -1.2295    4.3796 H   0  0  0  0  0  0  0  0  0  0  0  0
    7.4822   -1.1084    4.4351 H   0  0  0  0  0  0  0  0  0  0  0  0
  1  2  1  0
  1 27  1  0
  1 28  1  0
  1 29  1  0
  2  3  1  0
  2  4  1  0
  2 30  1  6
  3 31  1  0
  3 32  1  0
  3 33  1  0
  4  5  1  0
  4 34  1  0
  4 35  1  0
  6  5  1  1
  5 36  1  0
  6  7  2  0
  6  8  2  0
  6  9  1  0
  9 10  2  0
  9 26  1  0
 10 11  1  0
 10 37  1  0
 11 12  2  0
 11 38  1  0
 12 13  1  0
 12 25  1  0
 13 14  2  0
 13 15  1  0
 15 16  1  0
 15 39  1  0
 16 17  1  0
 16 40  1  0
 16 41  1  0
 17 18  2  0
 17 24  1  0
 18 19  1  0
 18 42  1  0
 19 20  2  0
 19 43  1  0
 20 21  1  0
 20 24  1  0
 21 22  2  0
 21 23  1  0
 23 44  1  0
 25 26  2  0
 25 45  1  0
 26 46  1  0
M  END

