
     RDKit          3D

 63 67  0  0  0  0  0  0  0  0999 V2000
    3.2380   -1.5105   -0.7236 C   0  0  0  0  0  0  0  0  0  0  0  0
    2.7728   -0.1429   -0.1927 C   0  0  1  0  0  0  0  0  0  0  0  0
    1.2424   -0.2028    0.0206 C   0  0  0  0  0  0  0  0  0  0  0  0
    3.4701    0.1109    1.1639 C   0  0  0  0  0  0  0  0  0  0  0  0
    3.1131    0.9992   -1.1693 C   0  0  0  0  0  0  0  0  0  0  0  0
    3.7668    0.7988   -2.3725 C   0  0  0  0  0  0  0  0  0  0  0  0
    4.0569    1.8819   -3.2378 C   0  0  0  0  0  0  0  0  0  0  0  0
    3.6902    3.2017   -2.8762 C   0  0  0  0  0  0  0  0  0  0  0  0
    3.0145    3.4429   -1.6424 C   0  0  0  0  0  0  0  0  0  0  0  0
    2.5985    4.8716   -1.2280 C   0  0  1  0  0  0  0  0  0  0  0  0
    1.6215    5.4621   -2.2744 C   0  0  0  0  0  0  0  0  0  0  0  0
    1.8807    4.8838    0.1356 C   0  0  0  0  0  0  0  0  0  0  0  0
    3.8517    5.7726   -1.1033 C   0  0  0  0  0  0  0  0  0  0  0  0
    2.7538    2.3324   -0.8435 C   0  0  0  0  0  0  0  0  0  0  0  0
    3.9722    4.2185   -3.6705 O   0  0  0  0  0  0  0  0  0  0  0  0
    4.6135    4.1902   -4.9675 B   0  0  1  0  0  0  0  0  0  0  0  0
    3.7391    4.6296   -5.9443 F   0  0  0  0  0  0  0  0  0  0  0  0
    5.7793    4.9309   -4.9493 F   0  0  0  0  0  0  0  0  0  0  0  0
    5.0183    2.6607   -5.3345 N   0  0  0  0  0  0  0  0  0  0  0  0
    4.7406    1.6403   -4.4968 C   0  0  0  0  0  0  0  0  0  0  0  0
    5.0997    0.3626   -4.7733 N   0  0  0  0  0  0  0  0  0  0  0  0
    5.7238    0.0544   -5.8863 C   0  0  0  0  0  0  0  0  0  0  0  0
    6.1315   -1.3688   -6.0397 C   0  0  0  0  0  0  0  0  0  0  0  0
    5.2294   -2.3800   -5.6604 C   0  0  0  0  0  0  0  0  0  0  0  0
    5.5903   -3.7233   -5.7591 C   0  0  0  0  0  0  0  0  0  0  0  0
    6.8664   -4.0768   -6.2111 C   0  0  0  0  0  0  0  0  0  0  0  0
    7.7798   -3.0796   -6.5641 C   0  0  0  0  0  0  0  0  0  0  0  0
    7.4149   -1.7335   -6.4862 C   0  0  0  0  0  0  0  0  0  0  0  0
    5.9779    1.0599   -6.8910 C   0  0  0  0  0  0  0  0  0  0  0  0
    6.5103    0.7778   -8.1739 C   0  0  0  0  0  0  0  0  0  0  0  0
    6.7352    1.8068   -9.0664 C   0  0  0  0  0  0  0  0  0  0  0  0
    7.3811    1.4680  -10.6501 Cl  0  0  0  0  0  0  0  0  0  0  0  0
    6.4407    3.1417   -8.7115 C   0  0  0  0  0  0  0  0  0  0  0  0
    5.8921    3.4361   -7.4800 C   0  0  0  0  0  0  0  0  0  0  0  0
    5.6262    2.3982   -6.5496 C   0  0  0  0  0  0  0  0  0  0  0  0
    2.9776   -2.3005   -0.0014 H   0  0  0  0  0  0  0  0  0  0  0  0
    4.3286   -1.5440   -0.8722 H   0  0  0  0  0  0  0  0  0  0  0  0
    2.7552   -1.7644   -1.6803 H   0  0  0  0  0  0  0  0  0  0  0  0
    0.9813   -1.0126    0.7220 H   0  0  0  0  0  0  0  0  0  0  0  0
    0.7187   -0.3930   -0.9299 H   0  0  0  0  0  0  0  0  0  0  0  0
    0.8470    0.7361    0.4379 H   0  0  0  0  0  0  0  0  0  0  0  0
    3.2329   -0.6956    1.8774 H   0  0  0  0  0  0  0  0  0  0  0  0
    3.1508    1.0606    1.6203 H   0  0  0  0  0  0  0  0  0  0  0  0
    4.5645    0.1488    1.0437 H   0  0  0  0  0  0  0  0  0  0  0  0
    4.0848   -0.1885   -2.6971 H   0  0  0  0  0  0  0  0  0  0  0  0
    0.7094    4.8472   -2.3462 H   0  0  0  0  0  0  0  0  0  0  0  0
    2.0763    5.5232   -3.2709 H   0  0  0  0  0  0  0  0  0  0  0  0
    1.3184    6.4782   -1.9720 H   0  0  0  0  0  0  0  0  0  0  0  0
    0.9544    4.2874    0.1251 H   0  0  0  0  0  0  0  0  0  0  0  0
    1.6007    5.9181    0.3889 H   0  0  0  0  0  0  0  0  0  0  0  0
    2.5230    4.5104    0.9491 H   0  0  0  0  0  0  0  0  0  0  0  0
    4.3968    5.8495   -2.0522 H   0  0  0  0  0  0  0  0  0  0  0  0
    4.5404    5.3783   -0.3381 H   0  0  0  0  0  0  0  0  0  0  0  0
    3.5533    6.7883   -0.7950 H   0  0  0  0  0  0  0  0  0  0  0  0
    2.2387    2.4971    0.1016 H   0  0  0  0  0  0  0  0  0  0  0  0
    4.2413   -2.0964   -5.2940 H   0  0  0  0  0  0  0  0  0  0  0  0
    4.8747   -4.4993   -5.4768 H   0  0  0  0  0  0  0  0  0  0  0  0
    7.1512   -5.1296   -6.2808 H   0  0  0  0  0  0  0  0  0  0  0  0
    8.7852   -3.3488   -6.8965 H   0  0  0  0  0  0  0  0  0  0  0  0
    8.1462   -0.9631   -6.7386 H   0  0  0  0  0  0  0  0  0  0  0  0
    6.7263   -0.2487   -8.4632 H   0  0  0  0  0  0  0  0  0  0  0  0
    6.6371    3.9410   -9.4280 H   0  0  0  0  0  0  0  0  0  0  0  0
    5.6505    4.4642   -7.2255 H   0  0  0  0  0  0  0  0  0  0  0  0
  2  1  1  6
  1 36  1  0
  1 37  1  0
  1 38  1  0
  2  3  1  0
  2  4  1  0
  2  5  1  0
  3 39  1  0
  3 40  1  0
  3 41  1  0
  4 42  1  0
  4 43  1  0
  4 44  1  0
  5  6  2  0
  5 14  1  0
  6  7  1  0
  6 45  1  0
  7  8  2  0
  7 20  1  0
  8  9  1  0
  8 15  1  0
  9 10  1  0
  9 14  2  0
 10 11  1  6
 10 12  1  0
 10 13  1  0
 11 46  1  0
 11 47  1  0
 11 48  1  0
 12 49  1  0
 12 50  1  0
 12 51  1  0
 13 52  1  0
 13 53  1  0
 13 54  1  0
 14 55  1  0
 15 16  1  0
 16 17  1  6
 16 18  1  0
 16 19  1  0
 19 20  2  0
 19 35  1  0
 20 21  1  0
 21 22  2  0
 22 23  1  0
 22 29  1  0
 23 24  2  0
 23 28  1  0
 24 25  1  0
 24 56  1  0
 25 26  2  0
 25 57  1  0
 26 27  1  0
 26 58  1  0
 27 28  2  0
 27 59  1  0
 28 60  1  0
 29 30  1  0
 29 35  2  0
 30 31  2  0
 30 61  1  0
 31 32  1  0
 31 33  1  0
 33 34  2  0
 33 62  1  0
 34 35  1  0
 34 63  1  0
M  CHG  2  16  -1  19   1
M  END

