
     RDKit          3D

 58 61  0  0  0  0  0  0  0  0999 V2000
    1.1852   -1.7633    0.0586 C   0  0  0  0  0  0  0  0  0  0  0  0
    2.5178   -1.1427   -0.2675 C   0  0  0  0  0  0  0  0  0  0  0  0
    2.5217    0.0273   -0.9056 N   0  0  0  0  0  0  0  0  0  0  0  0
    3.7150    0.6026   -1.1314 C   0  0  0  0  0  0  0  0  0  0  0  0
    3.6684    1.9728   -1.7627 C   0  0  0  0  0  0  0  0  0  0  0  0
    4.9305   -0.0008   -0.7601 C   0  0  0  0  0  0  0  0  0  0  0  0
    6.2331    0.7618   -0.8665 C   0  0  0  0  0  0  0  0  0  0  0  0
    6.9737    0.7526   -2.2030 C   0  0  0  0  0  0  0  0  0  0  0  0
    6.4402    0.1781   -3.3661 C   0  0  0  0  0  0  0  0  0  0  0  0
    7.1517    0.2028   -4.5720 C   0  0  0  0  0  0  0  0  0  0  0  0
    8.4103    0.8034   -4.6355 C   0  0  0  0  0  0  0  0  0  0  0  0
    8.9542    1.3807   -3.4822 C   0  0  0  0  0  0  0  0  0  0  0  0
    8.2424    1.3541   -2.2820 C   0  0  0  0  0  0  0  0  0  0  0  0
    4.8146   -1.2884   -0.1555 C   0  0  0  0  0  0  0  0  0  0  0  0
    5.9112   -2.0314    0.2754 N   0  0  0  0  0  0  0  0  0  0  0  0
    5.7074   -3.1269    1.2252 C   0  0  0  0  0  0  0  0  0  0  0  0
    5.6126   -4.4828    0.5285 C   0  0  0  0  0  0  0  0  0  0  0  0
    6.7681   -4.7009   -0.3446 N   0  0  0  0  0  0  0  0  0  0  0  0
    7.3883   -5.9383   -0.3112 C   0  0  0  0  0  0  0  0  0  0  0  0
    7.1664   -6.7535    0.5704 O   0  0  0  0  0  0  0  0  0  0  0  0
    8.2812   -6.1811   -1.3530 N   0  0  0  0  0  0  0  0  0  0  0  0
    9.1264   -7.2875   -1.5211 C   0  0  0  0  0  0  0  0  0  0  0  0
    9.2767   -8.3162   -0.5694 C   0  0  0  0  0  0  0  0  0  0  0  0
   10.1571   -9.3708   -0.8200 C   0  0  0  0  0  0  0  0  0  0  0  0
   10.9004   -9.4413   -1.9974 C   0  0  0  0  0  0  0  0  0  0  0  0
   10.7520   -8.4180   -2.9505 C   0  0  0  0  0  0  0  0  0  0  0  0
   11.5010   -8.4535   -4.1769 C   0  0  0  0  0  0  0  0  0  0  0  0
   12.1054   -8.4796   -5.1681 N   0  0  0  0  0  0  0  0  0  0  0  0
    9.8719   -7.3514   -2.7108 C   0  0  0  0  0  0  0  0  0  0  0  0
    7.0386   -3.6143   -1.2738 C   0  0  0  0  0  0  0  0  0  0  0  0
    7.0927   -2.2564   -0.5460 C   0  0  0  0  0  0  0  0  0  0  0  0
    3.6093   -1.8152    0.1018 N   0  0  0  0  0  0  0  0  0  0  0  0
    0.3724   -1.1674   -0.3745 H   0  0  0  0  0  0  0  0  0  0  0  0
    1.0510   -1.8193    1.1516 H   0  0  0  0  0  0  0  0  0  0  0  0
    1.1368   -2.7955   -0.3218 H   0  0  0  0  0  0  0  0  0  0  0  0
    2.6524    2.1575   -2.1339 H   0  0  0  0  0  0  0  0  0  0  0  0
    4.3877    2.0829   -2.5876 H   0  0  0  0  0  0  0  0  0  0  0  0
    3.9038    2.7533   -1.0182 H   0  0  0  0  0  0  0  0  0  0  0  0
    6.9180    0.4058   -0.0798 H   0  0  0  0  0  0  0  0  0  0  0  0
    6.0353    1.8164   -0.6096 H   0  0  0  0  0  0  0  0  0  0  0  0
    5.4562   -0.2956   -3.3303 H   0  0  0  0  0  0  0  0  0  0  0  0
    6.7146   -0.2496   -5.4662 H   0  0  0  0  0  0  0  0  0  0  0  0
    8.9658    0.8236   -5.5764 H   0  0  0  0  0  0  0  0  0  0  0  0
    9.9390    1.8538   -3.5187 H   0  0  0  0  0  0  0  0  0  0  0  0
    8.6772    1.8084   -1.3862 H   0  0  0  0  0  0  0  0  0  0  0  0
    4.7914   -2.9404    1.7957 H   0  0  0  0  0  0  0  0  0  0  0  0
    6.5681   -3.1324    1.9179 H   0  0  0  0  0  0  0  0  0  0  0  0
    4.6818   -4.5130   -0.0675 H   0  0  0  0  0  0  0  0  0  0  0  0
    5.5886   -5.3001    1.2590 H   0  0  0  0  0  0  0  0  0  0  0  0
    8.2591   -5.5491   -2.1415 H   0  0  0  0  0  0  0  0  0  0  0  0
    8.6920   -8.2769    0.3462 H   0  0  0  0  0  0  0  0  0  0  0  0
   10.2597  -10.1596   -0.0707 H   0  0  0  0  0  0  0  0  0  0  0  0
   11.5848  -10.2695   -2.1862 H   0  0  0  0  0  0  0  0  0  0  0  0
    9.7732   -6.5653   -3.4638 H   0  0  0  0  0  0  0  0  0  0  0  0
    6.2636   -3.5710   -2.0655 H   0  0  0  0  0  0  0  0  0  0  0  0
    8.0135   -3.7532   -1.7615 H   0  0  0  0  0  0  0  0  0  0  0  0
    7.2075   -1.4728   -1.3005 H   0  0  0  0  0  0  0  0  0  0  0  0
    7.9887   -2.2392    0.1004 H   0  0  0  0  0  0  0  0  0  0  0  0
  1  2  1  0
  1 33  1  0
  1 34  1  0
  1 35  1  0
  2  3  2  0
  2 32  1  0
  3  4  1  0
  4  5  1  0
  4  6  2  0
  5 36  1  0
  5 37  1  0
  5 38  1  0
  6  7  1  0
  6 14  1  0
  7  8  1  0
  7 39  1  0
  7 40  1  0
  8  9  2  0
  8 13  1  0
  9 10  1  0
  9 41  1  0
 10 11  2  0
 10 42  1  0
 11 12  1  0
 11 43  1  0
 12 13  2  0
 12 44  1  0
 13 45  1  0
 14 15  1  0
 14 32  2  0
 15 16  1  0
 15 31  1  0
 16 17  1  0
 16 46  1  0
 16 47  1  0
 17 18  1  0
 17 48  1  0
 17 49  1  0
 18 19  1  0
 18 30  1  0
 19 20  2  0
 19 21  1  0
 21 22  1  0
 21 50  1  0
 22 23  2  0
 22 29  1  0
 23 24  1  0
 23 51  1  0
 24 25  2  0
 24 52  1  0
 25 26  1  0
 25 53  1  0
 26 27  1  0
 26 29  2  0
 27 28  3  0
 29 54  1  0
 30 31  1  0
 30 55  1  0
 30 56  1  0
 31 57  1  0
 31 58  1  0
M  END

