
     RDKit          3D

 41 43  0  0  0  0  0  0  0  0999 V2000
    9.7169    0.4527   -3.4863 C   0  0  0  0  0  0  0  0  0  0  0  0
    8.4015    0.8322   -2.8755 C   0  0  0  0  0  0  0  0  0  0  0  0
    8.0856    0.9896   -1.5490 C   0  0  0  0  0  0  0  0  0  0  0  0
    6.7220    1.3682   -1.3022 C   0  0  0  0  0  0  0  0  0  0  0  0
    6.1081    1.6025    0.0733 C   0  0  1  0  0  0  0  0  0  0  0  0
    6.9444    1.0062    1.2182 C   0  0  0  0  0  0  0  0  0  0  0  0
    5.7618    3.0271    0.2626 N   0  0  0  0  0  0  0  0  0  0  0  0
    6.8741    3.9696    0.3161 C   0  0  0  0  0  0  0  0  0  0  0  0
    6.4016    5.4290    0.1972 C   0  0  0  0  0  0  0  0  0  0  0  0
    5.5137    5.8976    1.3057 C   0  0  0  0  0  0  0  0  0  0  0  0
    5.9177    6.4814    2.4188 N   0  0  0  0  0  0  0  0  0  0  0  0
    4.8511    6.7702    3.2023 N   0  0  0  0  0  0  0  0  0  0  0  0
    3.7682    6.3604    2.5607 C   0  0  0  0  0  0  0  0  0  0  0  0
    2.3890    6.4195    2.9006 C   0  0  0  0  0  0  0  0  0  0  0  0
    1.4654    5.9166    2.0196 C   0  0  0  0  0  0  0  0  0  0  0  0
    1.8851    5.3362    0.7779 C   0  0  0  0  0  0  0  0  0  0  0  0
    3.2100    5.2743    0.4514 C   0  0  0  0  0  0  0  0  0  0  0  0
    4.1368    5.7851    1.3354 N   0  0  0  0  0  0  0  0  0  0  0  0
    6.0008    1.4964   -2.4722 C   0  0  0  0  0  0  0  0  0  0  0  0
    4.5494    1.8381   -2.6380 C   0  0  0  0  0  0  0  0  0  0  0  0
    6.9986    1.1532   -3.8587 S   0  0  0  0  0  0  0  0  0  0  0  0
   10.4625    0.2845   -2.6948 H   0  0  0  0  0  0  0  0  0  0  0  0
   10.1071    1.2403   -4.1531 H   0  0  0  0  0  0  0  0  0  0  0  0
    9.6453   -0.4727   -4.0824 H   0  0  0  0  0  0  0  0  0  0  0  0
    8.8245    0.8341   -0.7615 H   0  0  0  0  0  0  0  0  0  0  0  0
    5.1372    1.0763    0.0829 H   0  0  0  0  0  0  0  0  0  0  0  0
    7.9351    1.4784    1.3027 H   0  0  0  0  0  0  0  0  0  0  0  0
    7.0985   -0.0747    1.0744 H   0  0  0  0  0  0  0  0  0  0  0  0
    6.4263    1.1485    2.1806 H   0  0  0  0  0  0  0  0  0  0  0  0
    5.2041    3.1080    1.1138 H   0  0  0  0  0  0  0  0  0  0  0  0
    7.5412    3.7573   -0.5345 H   0  0  0  0  0  0  0  0  0  0  0  0
    7.4879    3.8800    1.2358 H   0  0  0  0  0  0  0  0  0  0  0  0
    5.9007    5.5688   -0.7749 H   0  0  0  0  0  0  0  0  0  0  0  0
    7.2868    6.0826    0.2104 H   0  0  0  0  0  0  0  0  0  0  0  0
    2.1127    6.8680    3.8555 H   0  0  0  0  0  0  0  0  0  0  0  0
    0.4005    5.9526    2.2593 H   0  0  0  0  0  0  0  0  0  0  0  0
    1.1493    4.9324    0.0809 H   0  0  0  0  0  0  0  0  0  0  0  0
    3.6009    4.8237   -0.4603 H   0  0  0  0  0  0  0  0  0  0  0  0
    4.2558    2.5741   -1.8753 H   0  0  0  0  0  0  0  0  0  0  0  0
    3.9034    0.9494   -2.5201 H   0  0  0  0  0  0  0  0  0  0  0  0
    4.3400    2.2642   -3.6310 H   0  0  0  0  0  0  0  0  0  0  0  0
  1  2  1  0
  1 22  1  0
  1 23  1  0
  1 24  1  0
  2  3  2  0
  2 21  1  0
  3  4  1  0
  3 25  1  0
  4  5  1  0
  4 19  2  0
  5  6  1  0
  5  7  1  0
  5 26  1  6
  6 27  1  0
  6 28  1  0
  6 29  1  0
  7  8  1  0
  7 30  1  0
  8  9  1  0
  8 31  1  0
  8 32  1  0
  9 10  1  0
  9 33  1  0
  9 34  1  0
 10 11  2  0
 10 18  1  0
 11 12  1  0
 12 13  2  0
 13 14  1  0
 13 18  1  0
 14 15  2  0
 14 35  1  0
 15 16  1  0
 15 36  1  0
 16 17  2  0
 16 37  1  0
 17 18  1  0
 17 38  1  0
 19 20  1  0
 19 21  1  0
 20 39  1  0
 20 40  1  0
 20 41  1  0
M  END

