
     RDKit          3D

 66 67  0  0  0  0  0  0  0  0999 V2000
    8.9263   -0.7895   -1.2711 C   0  0  0  0  0  0  0  0  0  0  0  0
    7.7815    0.0515   -1.4366 O   0  0  0  0  0  0  0  0  0  0  0  0
    6.5878   -0.5184   -1.2169 C   0  0  0  0  0  0  0  0  0  0  0  0
    6.4498   -1.6769   -0.9048 O   0  0  0  0  0  0  0  0  0  0  0  0
    5.4226    0.4705   -1.3560 C   0  0  2  0  0  0  0  0  0  0  0  0
    5.2006    0.7894   -0.3230 H   0  0  0  0  0  0  0  0  0  0  0  0
    4.1614   -0.2274   -1.9189 C   0  0  0  0  0  0  0  0  0  0  0  0
    4.2621   -0.6393   -3.3724 C   0  0  0  0  0  0  0  0  0  0  0  0
    4.7456   -1.9086   -3.7346 C   0  0  0  0  0  0  0  0  0  0  0  0
    4.8596   -2.2850   -5.0744 C   0  0  0  0  0  0  0  0  0  0  0  0
    4.4898   -1.3820   -6.0748 C   0  0  0  0  0  0  0  0  0  0  0  0
    4.6310   -1.8474   -7.7574 Cl  0  0  0  0  0  0  0  0  0  0  0  0
    4.0045   -0.1146   -5.7451 C   0  0  0  0  0  0  0  0  0  0  0  0
    3.8926    0.2445   -4.3998 C   0  0  0  0  0  0  0  0  0  0  0  0
    5.7725    1.6795   -2.0649 N   0  0  0  0  0  0  0  0  0  0  0  0
    6.0143    2.8478   -1.4039 C   0  0  0  0  0  0  0  0  0  0  0  0
    5.8183    3.0120   -0.2101 O   0  0  0  0  0  0  0  0  0  0  0  0
    6.6003    3.9585   -2.3037 C   0  0  1  0  0  0  0  0  0  0  0  0
    6.0737    3.9343   -3.2675 H   0  0  0  0  0  0  0  0  0  0  0  0
    6.4362    5.3352   -1.6583 C   0  0  0  0  0  0  0  0  0  0  0  0
    6.8522    6.4947   -2.5623 C   0  0  0  0  0  0  0  0  0  0  0  0
    5.8910    6.7376   -3.7225 C   0  0  0  0  0  0  0  0  0  0  0  0
    4.8756    6.1242   -3.9061 O   0  0  0  0  0  0  0  0  0  0  0  0
    6.2499    7.7312   -4.5679 O   0  0  0  0  0  0  0  0  0  0  0  0
    8.0061    3.6684   -2.5926 N   0  0  0  0  0  0  0  0  0  0  0  0
    8.3718    2.8297   -3.6139 C   0  0  0  0  0  0  0  0  0  0  0  0
    7.5367    2.3246   -4.3598 O   0  0  0  0  0  0  0  0  0  0  0  0
    9.8389    2.5561   -3.7768 C   0  0  0  0  0  0  0  0  0  0  0  0
   10.1823    1.4741   -4.5963 C   0  0  0  0  0  0  0  0  0  0  0  0
   11.5283    1.1412   -4.7912 C   0  0  0  0  0  0  0  0  0  0  0  0
   11.9574    0.1084   -5.5555 O   0  0  0  0  0  0  0  0  0  0  0  0
   11.0046   -0.7059   -6.2088 C   0  0  0  0  0  0  0  0  0  0  0  0
   12.5429    1.8950   -4.1605 C   0  0  0  0  0  0  0  0  0  0  0  0
   13.8516    1.5546   -4.2762 O   0  0  0  0  0  0  0  0  0  0  0  0
   14.4877    1.8558   -5.5108 C   0  0  0  0  0  0  0  0  0  0  0  0
   12.1889    3.0051   -3.3614 C   0  0  0  0  0  0  0  0  0  0  0  0
   13.2277    3.6948   -2.8329 O   0  0  0  0  0  0  0  0  0  0  0  0
   12.9701    4.7882   -1.9842 C   0  0  0  0  0  0  0  0  0  0  0  0
   10.8382    3.3293   -3.1646 C   0  0  0  0  0  0  0  0  0  0  0  0
    9.7962   -0.1756   -1.5329 H   0  0  0  0  0  0  0  0  0  0  0  0
    8.8624   -1.6660   -1.9328 H   0  0  0  0  0  0  0  0  0  0  0  0
    9.0007   -1.1423   -0.2314 H   0  0  0  0  0  0  0  0  0  0  0  0
    3.3190    0.4681   -1.7856 H   0  0  0  0  0  0  0  0  0  0  0  0
    3.9685   -1.1086   -1.2908 H   0  0  0  0  0  0  0  0  0  0  0  0
    5.0397   -2.6123   -2.9525 H   0  0  0  0  0  0  0  0  0  0  0  0
    5.2296   -3.2751   -5.3467 H   0  0  0  0  0  0  0  0  0  0  0  0
    3.7156    0.5809   -6.5347 H   0  0  0  0  0  0  0  0  0  0  0  0
    3.5048    1.2351   -4.1474 H   0  0  0  0  0  0  0  0  0  0  0  0
    6.0907    1.6174   -3.0337 H   0  0  0  0  0  0  0  0  0  0  0  0
    7.0064    5.3633   -0.7159 H   0  0  0  0  0  0  0  0  0  0  0  0
    5.3807    5.4530   -1.3757 H   0  0  0  0  0  0  0  0  0  0  0  0
    7.8626    6.3277   -2.9771 H   0  0  0  0  0  0  0  0  0  0  0  0
    6.9099    7.4306   -1.9778 H   0  0  0  0  0  0  0  0  0  0  0  0
    7.0893    8.1266   -4.2925 H   0  0  0  0  0  0  0  0  0  0  0  0
    8.6653    3.8054   -1.8341 H   0  0  0  0  0  0  0  0  0  0  0  0
    9.3729    0.9179   -5.0657 H   0  0  0  0  0  0  0  0  0  0  0  0
   11.5728   -1.4682   -6.7579 H   0  0  0  0  0  0  0  0  0  0  0  0
   10.3912   -0.1286   -6.9226 H   0  0  0  0  0  0  0  0  0  0  0  0
   10.3339   -1.2067   -5.4889 H   0  0  0  0  0  0  0  0  0  0  0  0
   15.5330    1.5311   -5.4141 H   0  0  0  0  0  0  0  0  0  0  0  0
   14.4684    2.9414   -5.7138 H   0  0  0  0  0  0  0  0  0  0  0  0
   14.0184    1.3173   -6.3502 H   0  0  0  0  0  0  0  0  0  0  0  0
   13.9477    5.1698   -1.6605 H   0  0  0  0  0  0  0  0  0  0  0  0
   12.3912    4.4896   -1.0911 H   0  0  0  0  0  0  0  0  0  0  0  0
   12.4273    5.5986   -2.5051 H   0  0  0  0  0  0  0  0  0  0  0  0
   10.5742    4.2058   -2.5750 H   0  0  0  0  0  0  0  0  0  0  0  0
  1  2  1  0
  1 40  1  0
  1 41  1  0
  1 42  1  0
  2  3  1  0
  3  4  2  0
  3  5  1  0
  5  6  1  1
  5  7  1  0
  5 15  1  0
  7  8  1  0
  7 43  1  0
  7 44  1  0
  8  9  2  0
  8 14  1  0
  9 10  1  0
  9 45  1  0
 10 11  2  0
 10 46  1  0
 11 12  1  0
 11 13  1  0
 13 14  2  0
 13 47  1  0
 14 48  1  0
 15 16  1  0
 15 49  1  0
 16 17  2  0
 16 18  1  0
 18 19  1  6
 18 20  1  0
 18 25  1  0
 20 21  1  0
 20 50  1  0
 20 51  1  0
 21 22  1  0
 21 52  1  0
 21 53  1  0
 22 23  2  0
 22 24  1  0
 24 54  1  0
 25 26  1  0
 25 55  1  0
 26 27  2  0
 26 28  1  0
 28 29  2  0
 28 39  1  0
 29 30  1  0
 29 56  1  0
 30 31  1  0
 30 33  2  0
 31 32  1  0
 32 57  1  0
 32 58  1  0
 32 59  1  0
 33 34  1  0
 33 36  1  0
 34 35  1  0
 35 60  1  0
 35 61  1  0
 35 62  1  0
 36 37  1  0
 36 39  2  0
 37 38  1  0
 38 63  1  0
 38 64  1  0
 38 65  1  0
 39 66  1  0
M  END

