
     RDKit          3D

 54 58  0  0  0  0  0  0  0  0999 V2000
    1.9558    0.7721    0.0056 O   0  0  0  0  0  0  0  0  0  0  0  0
    1.9772   -0.4446   -0.0777 C   0  0  0  0  0  0  0  0  0  0  0  0
    1.3070   -1.3023    0.7504 N   0  0  0  0  0  0  0  0  0  0  0  0
    0.4904   -0.9339    1.8205 C   0  0  0  0  0  0  0  0  0  0  0  0
    0.1678    0.3660    2.3034 C   0  0  0  0  0  0  0  0  0  0  0  0
   -0.6400    0.2900    3.3563 N   0  0  0  0  0  0  0  0  0  0  0  0
   -0.8382   -1.0155    3.5736 N   0  0  0  0  0  0  0  0  0  0  0  0
   -1.7639   -1.4439    4.6103 C   0  0  0  0  0  0  0  0  0  0  0  0
   -3.1959   -1.5622    4.1330 C   0  0  0  0  0  0  0  0  0  0  0  0
   -3.6523   -2.6942    3.4489 C   0  0  0  0  0  0  0  0  0  0  0  0
   -2.7898   -3.7057    3.2523 F   0  0  0  0  0  0  0  0  0  0  0  0
   -4.9513   -2.8270    2.9707 C   0  0  0  0  0  0  0  0  0  0  0  0
   -5.8374   -1.7734    3.1826 C   0  0  0  0  0  0  0  0  0  0  0  0
   -7.0904   -1.8546    2.7424 F   0  0  0  0  0  0  0  0  0  0  0  0
   -5.4376   -0.6198    3.8618 C   0  0  0  0  0  0  0  0  0  0  0  0
   -6.2940    0.3769    4.0671 F   0  0  0  0  0  0  0  0  0  0  0  0
   -4.1210   -0.5293    4.3238 C   0  0  0  0  0  0  0  0  0  0  0  0
   -3.7627    0.5702    4.9811 F   0  0  0  0  0  0  0  0  0  0  0  0
   -0.1868   -1.8025    2.6668 C   0  0  0  0  0  0  0  0  0  0  0  0
    2.7716   -1.1444   -1.1355 C   0  0  0  0  0  0  0  0  0  0  0  0
    3.5667   -0.5272   -2.1136 C   0  0  0  0  0  0  0  0  0  0  0  0
    4.1005   -1.5822   -2.8542 C   0  0  0  0  0  0  0  0  0  0  0  0
    4.9254   -1.6383   -3.9057 N   0  0  0  0  0  0  0  0  0  0  0  0
    5.2656   -2.8111   -4.4103 C   0  0  0  0  0  0  0  0  0  0  0  0
    6.1832   -2.8270   -5.5767 C   0  0  0  0  0  0  0  0  0  0  0  0
    6.6488   -1.6042   -6.1018 C   0  0  0  0  0  0  0  0  0  0  0  0
    7.5104   -1.5704   -7.1937 C   0  0  0  0  0  0  0  0  0  0  0  0
    7.9155   -2.7736   -7.7725 C   0  0  0  0  0  0  0  0  0  0  0  0
    8.7433   -2.7482   -8.8218 F   0  0  0  0  0  0  0  0  0  0  0  0
    7.4770   -4.0013   -7.2816 C   0  0  0  0  0  0  0  0  0  0  0  0
    6.6135   -4.0207   -6.1866 C   0  0  0  0  0  0  0  0  0  0  0  0
    4.7553   -4.0284   -3.8385 C   0  0  0  0  0  0  0  0  0  0  0  0
    3.9099   -3.9855   -2.7621 C   0  0  0  0  0  0  0  0  0  0  0  0
    3.3615   -5.2532   -2.1257 C   0  0  1  0  0  0  0  0  0  0  0  0
    2.0499   -5.1375   -1.8463 F   0  0  0  0  0  0  0  0  0  0  0  0
    3.5133   -6.2776   -3.0022 F   0  0  0  0  0  0  0  0  0  0  0  0
    4.1022   -5.6945   -0.8295 C   0  0  1  0  0  0  0  0  0  0  0  0
    5.3885   -5.9212   -1.1163 F   0  0  0  0  0  0  0  0  0  0  0  0
    4.0354   -4.7565    0.1117 F   0  0  0  0  0  0  0  0  0  0  0  0
    3.5613   -6.8161   -0.3608 F   0  0  0  0  0  0  0  0  0  0  0  0
    3.5762   -2.7578   -2.2547 N   0  0  0  0  0  0  0  0  0  0  0  0
    2.7775   -2.4865   -1.2228 N   0  0  0  0  0  0  0  0  0  0  0  0
    1.4259   -2.2920    0.5539 H   0  0  0  0  0  0  0  0  0  0  0  0
    0.5098    1.3202    1.9139 H   0  0  0  0  0  0  0  0  0  0  0  0
   -1.6999   -0.7034    5.4165 H   0  0  0  0  0  0  0  0  0  0  0  0
   -1.4208   -2.4147    4.9939 H   0  0  0  0  0  0  0  0  0  0  0  0
   -5.2717   -3.7249    2.4424 H   0  0  0  0  0  0  0  0  0  0  0  0
   -0.2577   -2.8872    2.6862 H   0  0  0  0  0  0  0  0  0  0  0  0
    3.7303    0.5352   -2.2612 H   0  0  0  0  0  0  0  0  0  0  0  0
    6.3172   -0.6783   -5.6310 H   0  0  0  0  0  0  0  0  0  0  0  0
    7.8750   -0.6277   -7.6061 H   0  0  0  0  0  0  0  0  0  0  0  0
    7.8147   -4.9228   -7.7591 H   0  0  0  0  0  0  0  0  0  0  0  0
    6.2811   -4.9909   -5.8155 H   0  0  0  0  0  0  0  0  0  0  0  0
    5.0186   -5.0017   -4.2420 H   0  0  0  0  0  0  0  0  0  0  0  0
  1  2  2  0
  2  3  1  0
  2 20  1  0
  3  4  1  0
  3 43  1  0
  4  5  1  0
  4 19  2  0
  5  6  2  0
  5 44  1  0
  6  7  1  0
  7  8  1  0
  7 19  1  0
  8  9  1  0
  8 45  1  0
  8 46  1  0
  9 10  2  0
  9 17  1  0
 10 11  1  0
 10 12  1  0
 12 13  2  0
 12 47  1  0
 13 14  1  0
 13 15  1  0
 15 16  1  0
 15 17  2  0
 17 18  1  0
 19 48  1  0
 20 21  1  0
 20 42  2  0
 21 22  2  0
 21 49  1  0
 22 23  1  0
 22 41  1  0
 23 24  2  0
 24 25  1  0
 24 32  1  0
 25 26  2  0
 25 31  1  0
 26 27  1  0
 26 50  1  0
 27 28  2  0
 27 51  1  0
 28 29  1  0
 28 30  1  0
 30 31  2  0
 30 52  1  0
 31 53  1  0
 32 33  2  0
 32 54  1  0
 33 34  1  0
 33 41  1  0
 34 35  1  1
 34 36  1  0
 34 37  1  0
 37 38  1  6
 37 39  1  0
 37 40  1  0
 41 42  1  0
M  END

