
     RDKit          3D

 57 60  0  0  0  0  0  0  0  0999 V2000
    2.5448    0.2305    0.7686 C   0  0  0  0  0  0  0  0  0  0  0  0
    3.3318   -0.4070   -0.3429 C   0  0  0  0  0  0  0  0  0  0  0  0
    4.0396    0.4110   -1.1855 N   0  0  0  0  0  0  0  0  0  0  0  0
    4.6988   -0.2470   -2.1011 C   0  0  0  0  0  0  0  0  0  0  0  0
    5.5428    0.3843   -3.1283 C   0  0  0  0  0  0  0  0  0  0  0  0
    6.2367   -0.3675   -4.0938 C   0  0  0  0  0  0  0  0  0  0  0  0
    7.0281    0.2656   -5.0530 C   0  0  0  0  0  0  0  0  0  0  0  0
    7.1397    1.6595   -5.0643 C   0  0  0  0  0  0  0  0  0  0  0  0
    6.4531    2.4161   -4.1075 C   0  0  0  0  0  0  0  0  0  0  0  0
    5.6615    1.7876   -3.1475 C   0  0  0  0  0  0  0  0  0  0  0  0
    4.4777   -1.9859   -1.9916 S   0  0  0  0  0  0  0  0  0  0  0  0
    3.4373   -1.7590   -0.6140 C   0  0  0  0  0  0  0  0  0  0  0  0
    2.8382   -2.9594    0.0864 C   0  0  1  0  0  0  0  0  0  0  0  0
    3.3856   -3.1494    1.5103 C   0  0  0  0  0  0  0  0  0  0  0  0
    1.3700   -2.8531    0.0783 N   0  0  0  0  0  0  0  0  0  0  0  0
    0.6262   -4.0238    0.2016 C   0  0  0  0  0  0  0  0  0  0  0  0
    1.1687   -5.0985    0.4292 O   0  0  0  0  0  0  0  0  0  0  0  0
   -0.7431   -3.8938    0.0679 N   0  0  0  0  0  0  0  0  0  0  0  0
   -1.4783   -2.6382    0.0002 C   0  0  0  0  0  0  0  0  0  0  0  0
   -2.5751   -2.5837    1.0731 C   0  0  0  0  0  0  0  0  0  0  0  0
   -3.5044   -3.8080    1.0063 C   0  0  2  0  0  0  0  0  0  0  0  0
   -4.1476   -3.8463   -0.2746 O   0  0  0  0  0  0  0  0  0  0  0  0
   -4.5640   -3.7928    2.1225 C   0  0  0  0  0  0  0  0  0  0  0  0
   -5.4459   -5.0473    2.0928 C   0  0  0  0  0  0  0  0  0  0  0  0
   -4.6017   -6.3268    2.1566 C   0  0  0  0  0  0  0  0  0  0  0  0
   -3.5308   -6.3532    1.0579 C   0  0  0  0  0  0  0  0  0  0  0  0
   -2.6513   -5.0962    1.0980 C   0  0  1  0  0  0  0  0  0  0  0  0
   -1.5627   -5.1023    0.0183 C   0  0  0  0  0  0  0  0  0  0  0  0
    1.9594    1.0767    0.3758 H   0  0  0  0  0  0  0  0  0  0  0  0
    3.2231    0.6415    1.5352 H   0  0  0  0  0  0  0  0  0  0  0  0
    1.8643   -0.4803    1.2541 H   0  0  0  0  0  0  0  0  0  0  0  0
    6.1599   -1.4582   -4.0975 H   0  0  0  0  0  0  0  0  0  0  0  0
    7.5607   -0.3337   -5.7957 H   0  0  0  0  0  0  0  0  0  0  0  0
    7.7599    2.1546   -5.8158 H   0  0  0  0  0  0  0  0  0  0  0  0
    6.5362    3.5060   -4.1102 H   0  0  0  0  0  0  0  0  0  0  0  0
    5.1207    2.3638   -2.3952 H   0  0  0  0  0  0  0  0  0  0  0  0
    3.1154   -3.8646   -0.4804 H   0  0  0  0  0  0  0  0  0  0  0  0
    3.1520   -2.2857    2.1505 H   0  0  0  0  0  0  0  0  0  0  0  0
    4.4789   -3.2746    1.4801 H   0  0  0  0  0  0  0  0  0  0  0  0
    2.9418   -4.0534    1.9498 H   0  0  0  0  0  0  0  0  0  0  0  0
    1.0051   -2.1432   -0.5456 H   0  0  0  0  0  0  0  0  0  0  0  0
   -1.9443   -2.5266   -0.9962 H   0  0  0  0  0  0  0  0  0  0  0  0
   -0.7938   -1.7944    0.1499 H   0  0  0  0  0  0  0  0  0  0  0  0
   -3.1689   -1.6604    0.9439 H   0  0  0  0  0  0  0  0  0  0  0  0
   -2.1094   -2.5313    2.0713 H   0  0  0  0  0  0  0  0  0  0  0  0
   -4.7394   -3.0843   -0.3364 H   0  0  0  0  0  0  0  0  0  0  0  0
   -5.1807   -2.8796    2.0240 H   0  0  0  0  0  0  0  0  0  0  0  0
   -4.0523   -3.7140    3.0979 H   0  0  0  0  0  0  0  0  0  0  0  0
   -6.0335   -5.0470    1.1594 H   0  0  0  0  0  0  0  0  0  0  0  0
   -6.1691   -5.0195    2.9248 H   0  0  0  0  0  0  0  0  0  0  0  0
   -5.2509   -7.2148    2.0778 H   0  0  0  0  0  0  0  0  0  0  0  0
   -4.1098   -6.3892    3.1451 H   0  0  0  0  0  0  0  0  0  0  0  0
   -4.0160   -6.4188    0.0696 H   0  0  0  0  0  0  0  0  0  0  0  0
   -2.8963   -7.2495    1.1639 H   0  0  0  0  0  0  0  0  0  0  0  0
   -2.1414   -5.0614    2.0781 H   0  0  0  0  0  0  0  0  0  0  0  0
   -2.0400   -5.1817   -0.9752 H   0  0  0  0  0  0  0  0  0  0  0  0
   -0.8908   -5.9583    0.1522 H   0  0  0  0  0  0  0  0  0  0  0  0
  1  2  1  0
  1 29  1  0
  1 30  1  0
  1 31  1  0
  2  3  1  0
  2 12  2  0
  3  4  2  0
  4  5  1  0
  4 11  1  0
  5  6  2  0
  5 10  1  0
  6  7  1  0
  6 32  1  0
  7  8  2  0
  7 33  1  0
  8  9  1  0
  8 34  1  0
  9 10  2  0
  9 35  1  0
 10 36  1  0
 11 12  1  0
 12 13  1  0
 13 14  1  0
 13 15  1  0
 13 37  1  6
 14 38  1  0
 14 39  1  0
 14 40  1  0
 15 16  1  0
 15 41  1  0
 16 17  2  0
 16 18  1  0
 18 19  1  0
 18 28  1  0
 19 20  1  0
 19 42  1  0
 19 43  1  0
 20 21  1  0
 20 44  1  0
 20 45  1  0
 21 22  1  6
 21 23  1  0
 21 27  1  0
 22 46  1  0
 23 24  1  0
 23 47  1  0
 23 48  1  0
 24 25  1  0
 24 49  1  0
 24 50  1  0
 25 26  1  0
 25 51  1  0
 25 52  1  0
 26 27  1  0
 26 53  1  0
 26 54  1  0
 27 28  1  0
 27 55  1  1
 28 56  1  0
 28 57  1  0
M  END

