
     RDKit          3D

 24 24  0  0  0  0  0  0  0  0999 V2000
    1.1219    0.0454   -0.0799 C   0  0  0  0  0  0  0  0  0  0  0  0
    2.3317    0.0370   -0.0129 C   0  0  0  0  0  0  0  0  0  0  0  0
    3.7992    0.0595    0.1023 C   0  0  1  0  0  0  0  0  0  0  0  0
    4.2467    1.4232    0.4008 N   0  0  0  0  0  0  0  0  0  0  0  0
    4.9906    2.1551   -0.4763 C   0  0  0  0  0  0  0  0  0  0  0  0
    5.5588    1.6728   -1.5481 N   0  0  0  0  0  0  0  0  0  0  0  0
    6.2555    2.6482   -2.1993 C   0  0  0  0  0  0  0  0  0  0  0  0
    7.0993    2.2422   -3.6613 Cl  0  0  0  0  0  0  0  0  0  0  0  0
    6.2514    3.9009   -1.6577 C   0  0  0  0  0  0  0  0  0  0  0  0
    5.2862    3.8772   -0.1980 S   0  0  0  0  0  0  0  0  0  0  0  0
    4.3351   -0.9775    1.1336 C   0  0  1  0  0  0  0  0  0  0  0  0
    3.8844   -2.3958    0.7661 C   0  0  0  0  0  0  0  0  0  0  0  0
    5.8602   -0.8921    1.2516 C   0  0  0  0  0  0  0  0  0  0  0  0
    0.0505    0.0498   -0.1536 H   0  0  0  0  0  0  0  0  0  0  0  0
    4.2344   -0.1845   -0.8813 H   0  0  0  0  0  0  0  0  0  0  0  0
    3.7418    1.9232    1.1227 H   0  0  0  0  0  0  0  0  0  0  0  0
    6.7385    4.8043   -2.0136 H   0  0  0  0  0  0  0  0  0  0  0  0
    3.8906   -0.7159    2.1123 H   0  0  0  0  0  0  0  0  0  0  0  0
    4.2967   -2.6974   -0.2121 H   0  0  0  0  0  0  0  0  0  0  0  0
    2.7889   -2.4784    0.7115 H   0  0  0  0  0  0  0  0  0  0  0  0
    4.2431   -3.1195    1.5146 H   0  0  0  0  0  0  0  0  0  0  0  0
    6.3450   -1.1195    0.2879 H   0  0  0  0  0  0  0  0  0  0  0  0
    6.2284   -1.6166    1.9949 H   0  0  0  0  0  0  0  0  0  0  0  0
    6.1894    0.1098    1.5628 H   0  0  0  0  0  0  0  0  0  0  0  0
  1  2  3  0
  1 14  1  0
  2  3  1  0
  3  4  1  0
  3 11  1  0
  3 15  1  6
  4  5  1  0
  4 16  1  0
  5  6  2  0
  5 10  1  0
  6  7  1  0
  7  8  1  0
  7  9  2  0
  9 10  1  0
  9 17  1  0
 11 12  1  0
 11 13  1  0
 11 18  1  1
 12 19  1  0
 12 20  1  0
 12 21  1  0
 13 22  1  0
 13 23  1  0
 13 24  1  0
M  END

