
     RDKit          3D

 66 70  0  0  0  0  0  0  0  0999 V2000
   -2.1899   -2.1067    6.8774 C   0  0  0  0  0  0  0  0  0  0  0  0
   -1.0328   -1.8529    6.1160 O   0  0  0  0  0  0  0  0  0  0  0  0
    0.1792   -1.8027    6.7380 C   0  0  0  0  0  0  0  0  0  0  0  0
    0.3554   -1.9610    8.1195 C   0  0  0  0  0  0  0  0  0  0  0  0
    1.6259   -1.8388    8.6907 C   0  0  0  0  0  0  0  0  0  0  0  0
    2.7288   -1.5559    7.8877 C   0  0  0  0  0  0  0  0  0  0  0  0
    2.5799   -1.4123    6.5015 C   0  0  0  0  0  0  0  0  0  0  0  0
    3.7636   -1.0848    5.6133 C   0  0  0  0  0  0  0  0  0  0  0  0
    4.1133   -2.1644    4.6976 N   0  0  0  0  0  0  0  0  0  0  0  0
    5.3520   -2.7201    4.6634 C   0  0  0  0  0  0  0  0  0  0  0  0
    6.2705   -2.3639    5.3890 O   0  0  0  0  0  0  0  0  0  0  0  0
    5.5459   -3.8564    3.5967 C   0  0  1  0  0  0  0  0  0  0  0  0
    5.4185   -3.2422    2.2598 N   0  0  0  0  0  0  0  0  0  0  0  0
    4.3212   -2.7060    1.6326 C   0  0  0  0  0  0  0  0  0  0  0  0
    3.1366   -2.7515    1.8962 O   0  0  0  0  0  0  0  0  0  0  0  0
    5.1826   -1.9797    0.5983 C   0  0  0  0  0  0  0  0  0  0  0  0
    6.4037   -2.5122    1.4179 C   0  0  2  0  0  0  0  0  0  0  0  0
    7.4408   -3.3281    0.6792 C   0  0  0  0  0  0  0  0  0  0  0  0
    7.0981   -4.5313    0.0462 C   0  0  0  0  0  0  0  0  0  0  0  0
    8.0373   -5.2816   -0.6858 C   0  0  0  0  0  0  0  0  0  0  0  0
    9.3249   -4.7786   -0.7585 C   0  0  0  0  0  0  0  0  0  0  0  0
    9.6767   -3.5803   -0.1336 C   0  0  0  0  0  0  0  0  0  0  0  0
    8.7623   -2.8356    0.5896 C   0  0  0  0  0  0  0  0  0  0  0  0
   10.9939   -3.3113   -0.3807 O   0  0  0  0  0  0  0  0  0  0  0  0
   11.5150   -4.4566   -1.0505 C   0  0  0  0  0  0  0  0  0  0  0  0
   10.4135   -5.2867   -1.4104 O   0  0  0  0  0  0  0  0  0  0  0  0
    6.9470   -4.4786    3.7590 C   0  0  0  0  0  0  0  0  0  0  0  0
    7.0561   -5.3348    5.0387 C   0  0  0  0  0  0  0  0  0  0  0  0
    6.0321   -6.3669    5.1562 N   0  0  0  0  0  0  0  0  0  0  0  0
    6.2540   -7.5520    4.3522 C   0  0  0  0  0  0  0  0  0  0  0  0
    4.7021   -5.7857    5.0402 C   0  0  0  0  0  0  0  0  0  0  0  0
    4.4868   -4.9777    3.7472 C   0  0  0  0  0  0  0  0  0  0  0  0
    1.3072   -1.5524    5.9171 C   0  0  0  0  0  0  0  0  0  0  0  0
    1.2467   -1.3678    4.5686 O   0  0  0  0  0  0  0  0  0  0  0  0
    0.3802   -2.1357    3.7365 C   0  0  0  0  0  0  0  0  0  0  0  0
   -3.0338   -2.1044    6.1741 H   0  0  0  0  0  0  0  0  0  0  0  0
   -2.3601   -1.3262    7.6410 H   0  0  0  0  0  0  0  0  0  0  0  0
   -2.1469   -3.0901    7.3803 H   0  0  0  0  0  0  0  0  0  0  0  0
   -0.5031   -2.1648    8.7594 H   0  0  0  0  0  0  0  0  0  0  0  0
    1.7449   -1.9601    9.7699 H   0  0  0  0  0  0  0  0  0  0  0  0
    3.7222   -1.4499    8.3306 H   0  0  0  0  0  0  0  0  0  0  0  0
    4.6532   -0.8909    6.2251 H   0  0  0  0  0  0  0  0  0  0  0  0
    3.5425   -0.1739    5.0310 H   0  0  0  0  0  0  0  0  0  0  0  0
    3.4244   -2.4151    3.9913 H   0  0  0  0  0  0  0  0  0  0  0  0
    5.0461   -0.8884    0.5990 H   0  0  0  0  0  0  0  0  0  0  0  0
    5.1082   -2.3665   -0.4276 H   0  0  0  0  0  0  0  0  0  0  0  0
    6.8993   -1.7059    1.9839 H   0  0  0  0  0  0  0  0  0  0  0  0
    6.0758   -4.9068    0.1340 H   0  0  0  0  0  0  0  0  0  0  0  0
    7.7677   -6.2184   -1.1758 H   0  0  0  0  0  0  0  0  0  0  0  0
    9.0583   -1.9035    1.0747 H   0  0  0  0  0  0  0  0  0  0  0  0
   12.1927   -5.0099   -0.3707 H   0  0  0  0  0  0  0  0  0  0  0  0
   12.0568   -4.1427   -1.9578 H   0  0  0  0  0  0  0  0  0  0  0  0
    7.7072   -3.6850    3.7909 H   0  0  0  0  0  0  0  0  0  0  0  0
    7.1484   -5.0994    2.8732 H   0  0  0  0  0  0  0  0  0  0  0  0
    6.9867   -4.6679    5.9119 H   0  0  0  0  0  0  0  0  0  0  0  0
    8.0494   -5.8107    5.0746 H   0  0  0  0  0  0  0  0  0  0  0  0
    7.2392   -7.9834    4.5936 H   0  0  0  0  0  0  0  0  0  0  0  0
    6.2261   -7.3981    3.2493 H   0  0  0  0  0  0  0  0  0  0  0  0
    5.4934   -8.3128    4.5932 H   0  0  0  0  0  0  0  0  0  0  0  0
    4.5305   -5.1285    5.9120 H   0  0  0  0  0  0  0  0  0  0  0  0
    3.9490   -6.5881    5.1020 H   0  0  0  0  0  0  0  0  0  0  0  0
    3.4686   -4.5672    3.7142 H   0  0  0  0  0  0  0  0  0  0  0  0
    4.5805   -5.6396    2.8701 H   0  0  0  0  0  0  0  0  0  0  0  0
    0.8464   -2.1394    2.7423 H   0  0  0  0  0  0  0  0  0  0  0  0
   -0.6266   -1.6969    3.6910 H   0  0  0  0  0  0  0  0  0  0  0  0
    0.2981   -3.1746    4.0963 H   0  0  0  0  0  0  0  0  0  0  0  0
  1  2  1  0
  1 36  1  0
  1 37  1  0
  1 38  1  0
  2  3  1  0
  3  4  2  0
  3 33  1  0
  4  5  1  0
  4 39  1  0
  5  6  2  0
  5 40  1  0
  6  7  1  0
  6 41  1  0
  7  8  1  0
  7 33  2  0
  8  9  1  0
  8 42  1  0
  8 43  1  0
  9 10  1  0
  9 44  1  0
 10 11  2  0
 12 10  1  1
 12 13  1  0
 12 27  1  0
 12 32  1  0
 13 14  1  0
 13 17  1  0
 14 15  2  0
 14 16  1  0
 16 17  1  0
 16 45  1  0
 16 46  1  0
 17 18  1  0
 17 47  1  1
 18 19  2  0
 18 23  1  0
 19 20  1  0
 19 48  1  0
 20 21  2  0
 20 49  1  0
 21 22  1  0
 21 26  1  0
 22 23  2  0
 22 24  1  0
 23 50  1  0
 24 25  1  0
 25 26  1  0
 25 51  1  0
 25 52  1  0
 27 28  1  0
 27 53  1  0
 27 54  1  0
 28 29  1  0
 28 55  1  0
 28 56  1  0
 29 30  1  0
 29 31  1  0
 30 57  1  0
 30 58  1  0
 30 59  1  0
 31 32  1  0
 31 60  1  0
 31 61  1  0
 32 62  1  0
 32 63  1  0
 33 34  1  0
 34 35  1  0
 35 64  1  0
 35 65  1  0
 35 66  1  0
M  END

