
     RDKit          3D

 35 36  0  0  0  0  0  0  0  0999 V2000
    2.3388    0.0599    1.2613 C   0  0  0  0  0  0  0  0  0  0  0  0
    3.1599    0.1802    0.1218 O   0  0  0  0  0  0  0  0  0  0  0  0
    3.3386    1.4041   -0.4497 C   0  0  0  0  0  0  0  0  0  0  0  0
    2.7175    2.5797   -0.0218 C   0  0  0  0  0  0  0  0  0  0  0  0
    2.9783    3.7860   -0.6856 C   0  0  0  0  0  0  0  0  0  0  0  0
    3.8509    3.8474   -1.7745 C   0  0  0  0  0  0  0  0  0  0  0  0
    4.1409    5.1435   -2.4922 C   0  0  0  0  0  0  0  0  0  0  0  0
    4.4638    2.6502   -2.1892 C   0  0  0  0  0  0  0  0  0  0  0  0
    4.2240    1.4370   -1.5502 C   0  0  0  0  0  0  0  0  0  0  0  0
    4.8740    0.1272   -1.9607 C   0  0  1  0  0  0  0  0  0  0  0  0
    5.5449    0.1923   -3.2626 C   0  0  0  0  0  0  0  0  0  0  0  0
    6.0906    0.2434   -4.2839 N   0  0  0  0  0  0  0  0  0  0  0  0
    5.9106   -0.3716   -0.8970 C   0  0  0  0  0  0  0  0  0  0  0  0
    6.4848    0.3950   -0.1613 O   0  0  0  0  0  0  0  0  0  0  0  0
    6.1595   -1.8280   -0.8654 C   0  0  0  0  0  0  0  0  0  0  0  0
    7.1175   -2.5120   -0.0727 C   0  0  0  0  0  0  0  0  0  0  0  0
    6.9579   -3.8372   -0.4222 C   0  0  0  0  0  0  0  0  0  0  0  0
    5.9608   -3.8833   -1.3587 N   0  0  0  0  0  0  0  0  0  0  0  0
    5.4355   -5.0520   -2.0397 C   0  0  0  0  0  0  0  0  0  0  0  0
    5.4702   -2.6804   -1.6349 N   0  0  0  0  0  0  0  0  0  0  0  0
    2.3645   -0.9979    1.5558 H   0  0  0  0  0  0  0  0  0  0  0  0
    1.2937    0.3463    1.0456 H   0  0  0  0  0  0  0  0  0  0  0  0
    2.7115    0.6754    2.0992 H   0  0  0  0  0  0  0  0  0  0  0  0
    2.0312    2.5723    0.8251 H   0  0  0  0  0  0  0  0  0  0  0  0
    2.4843    4.6973   -0.3369 H   0  0  0  0  0  0  0  0  0  0  0  0
    3.5735    5.9802   -2.0582 H   0  0  0  0  0  0  0  0  0  0  0  0
    3.8800    5.0796   -3.5620 H   0  0  0  0  0  0  0  0  0  0  0  0
    5.2121    5.4017   -2.4391 H   0  0  0  0  0  0  0  0  0  0  0  0
    5.1494    2.6686   -3.0406 H   0  0  0  0  0  0  0  0  0  0  0  0
    4.1096   -0.6624   -2.0363 H   0  0  0  0  0  0  0  0  0  0  0  0
    7.8137   -2.0758    0.6379 H   0  0  0  0  0  0  0  0  0  0  0  0
    7.4649   -4.7402   -0.0887 H   0  0  0  0  0  0  0  0  0  0  0  0
    5.9566   -5.9457   -1.6731 H   0  0  0  0  0  0  0  0  0  0  0  0
    5.5909   -4.9585   -3.1246 H   0  0  0  0  0  0  0  0  0  0  0  0
    4.3580   -5.1517   -1.8423 H   0  0  0  0  0  0  0  0  0  0  0  0
  1  2  1  0
  1 21  1  0
  1 22  1  0
  1 23  1  0
  2  3  1  0
  3  4  2  0
  3  9  1  0
  4  5  1  0
  4 24  1  0
  5  6  2  0
  5 25  1  0
  6  7  1  0
  6  8  1  0
  7 26  1  0
  7 27  1  0
  7 28  1  0
  8  9  2  0
  8 29  1  0
  9 10  1  0
 10 11  1  0
 10 13  1  0
 10 30  1  6
 11 12  3  0
 13 14  2  0
 13 15  1  0
 15 16  1  0
 15 20  2  0
 16 17  2  0
 16 31  1  0
 17 18  1  0
 17 32  1  0
 18 19  1  0
 18 20  1  0
 19 33  1  0
 19 34  1  0
 19 35  1  0
M  END

