
     RDKit          3D

 55 56  0  0  0  0  0  0  0  0999 V2000
    3.8774    2.2923   -0.9670 C   0  0  0  0  0  0  0  0  0  0  0  0
    3.6128    0.8007   -0.7633 C   0  0  0  0  0  0  0  0  0  0  0  0
    4.8879   -0.0221   -0.5791 C   0  0  0  0  0  0  0  0  0  0  0  0
    4.5858   -1.4257   -0.3492 N   0  0  0  0  0  0  0  0  0  0  0  0
    5.7426   -2.3233   -0.2760 C   0  0  1  0  0  0  0  0  0  0  0  0
    6.5380   -2.1311    1.0273 C   0  0  0  0  0  0  0  0  0  0  0  0
    5.6905   -2.4362    2.2672 C   0  0  0  0  0  0  0  0  0  0  0  0
    5.0809   -3.8546    2.2412 C   0  0  2  0  0  0  0  0  0  0  0  0
    6.0686   -4.9737    2.6332 C   0  0  0  0  0  0  0  0  0  0  0  0
    6.5510   -4.9311    4.0879 C   0  0  0  0  0  0  0  0  0  0  0  0
    7.4532   -6.1106    4.4566 C   0  0  0  0  0  0  0  0  0  0  0  0
    4.3842   -4.0898    0.8801 C   0  0  0  0  0  0  0  0  0  0  0  0
    5.2353   -3.7894   -0.3782 C   0  0  2  0  0  0  0  0  0  0  0  0
    6.3215   -4.7627   -0.6074 N   0  0  0  0  0  0  0  0  0  0  0  0
    7.2033   -4.4398   -1.7319 C   0  0  0  0  0  0  0  0  0  0  0  0
    8.3429   -5.4629   -1.8593 C   0  0  0  0  0  0  0  0  0  0  0  0
    7.8999   -6.8432   -1.9743 N   0  0  0  0  0  0  0  0  0  0  0  0
    7.4596   -7.2470   -3.2961 C   0  0  0  0  0  0  0  0  0  0  0  0
    6.9748   -7.1403   -0.8910 C   0  0  0  0  0  0  0  0  0  0  0  0
    5.8243   -6.1330   -0.7583 C   0  0  0  0  0  0  0  0  0  0  0  0
    2.9384    2.8520   -1.1012 H   0  0  0  0  0  0  0  0  0  0  0  0
    4.5024    2.4746   -1.8574 H   0  0  0  0  0  0  0  0  0  0  0  0
    4.4024    2.7287   -0.1008 H   0  0  0  0  0  0  0  0  0  0  0  0
    3.0510    0.4046   -1.6303 H   0  0  0  0  0  0  0  0  0  0  0  0
    2.9660    0.6420    0.1163 H   0  0  0  0  0  0  0  0  0  0  0  0
    5.4432    0.3736    0.2890 H   0  0  0  0  0  0  0  0  0  0  0  0
    5.5563    0.1322   -1.4602 H   0  0  0  0  0  0  0  0  0  0  0  0
    3.9615   -1.7533   -1.0868 H   0  0  0  0  0  0  0  0  0  0  0  0
    6.4214   -2.1106   -1.1252 H   0  0  0  0  0  0  0  0  0  0  0  0
    6.9335   -1.1033    1.0823 H   0  0  0  0  0  0  0  0  0  0  0  0
    7.4169   -2.7950    0.9867 H   0  0  0  0  0  0  0  0  0  0  0  0
    4.8677   -1.7048    2.3112 H   0  0  0  0  0  0  0  0  0  0  0  0
    6.2896   -2.2869    3.1799 H   0  0  0  0  0  0  0  0  0  0  0  0
    4.2778   -3.8758    3.0017 H   0  0  0  0  0  0  0  0  0  0  0  0
    6.9331   -4.9718    1.9493 H   0  0  0  0  0  0  0  0  0  0  0  0
    5.5663   -5.9454    2.4704 H   0  0  0  0  0  0  0  0  0  0  0  0
    5.6750   -4.9128    4.7628 H   0  0  0  0  0  0  0  0  0  0  0  0
    7.0951   -3.9899    4.2796 H   0  0  0  0  0  0  0  0  0  0  0  0
    6.9311   -7.0732    4.3230 H   0  0  0  0  0  0  0  0  0  0  0  0
    7.7860   -6.0563    5.5058 H   0  0  0  0  0  0  0  0  0  0  0  0
    8.3554   -6.1375    3.8225 H   0  0  0  0  0  0  0  0  0  0  0  0
    3.5241   -3.4061    0.8231 H   0  0  0  0  0  0  0  0  0  0  0  0
    3.9622   -5.1053    0.8411 H   0  0  0  0  0  0  0  0  0  0  0  0
    4.5421   -3.8241   -1.2566 H   0  0  0  0  0  0  0  0  0  0  0  0
    7.6645   -3.4550   -1.5818 H   0  0  0  0  0  0  0  0  0  0  0  0
    6.6307   -4.3817   -2.6888 H   0  0  0  0  0  0  0  0  0  0  0  0
    8.9761   -5.3768   -0.9573 H   0  0  0  0  0  0  0  0  0  0  0  0
    8.9719   -5.2050   -2.7270 H   0  0  0  0  0  0  0  0  0  0  0  0
    8.2683   -7.0697   -4.0241 H   0  0  0  0  0  0  0  0  0  0  0  0
    6.5520   -6.7306   -3.6799 H   0  0  0  0  0  0  0  0  0  0  0  0
    7.2452   -8.3284   -3.2987 H   0  0  0  0  0  0  0  0  0  0  0  0
    7.5409   -7.1415    0.0582 H   0  0  0  0  0  0  0  0  0  0  0  0
    6.5630   -8.1536   -1.0273 H   0  0  0  0  0  0  0  0  0  0  0  0
    5.2287   -6.4141    0.1189 H   0  0  0  0  0  0  0  0  0  0  0  0
    5.1455   -6.2122   -1.6413 H   0  0  0  0  0  0  0  0  0  0  0  0
  1  2  1  0
  1 21  1  0
  1 22  1  0
  1 23  1  0
  2  3  1  0
  2 24  1  0
  2 25  1  0
  3  4  1  0
  3 26  1  0
  3 27  1  0
  4  5  1  0
  4 28  1  0
  5  6  1  0
  5 13  1  0
  5 29  1  6
  6  7  1  0
  6 30  1  0
  6 31  1  0
  7  8  1  0
  7 32  1  0
  7 33  1  0
  8  9  1  0
  8 12  1  0
  8 34  1  1
  9 10  1  0
  9 35  1  0
  9 36  1  0
 10 11  1  0
 10 37  1  0
 10 38  1  0
 11 39  1  0
 11 40  1  0
 11 41  1  0
 12 13  1  0
 12 42  1  0
 12 43  1  0
 13 14  1  0
 13 44  1  6
 14 15  1  0
 14 20  1  0
 15 16  1  0
 15 45  1  0
 15 46  1  0
 16 17  1  0
 16 47  1  0
 16 48  1  0
 17 18  1  0
 17 19  1  0
 18 49  1  0
 18 50  1  0
 18 51  1  0
 19 20  1  0
 19 52  1  0
 19 53  1  0
 20 54  1  0
 20 55  1  0
M  END

