
     RDKit          3D

 61 64  0  0  0  0  0  0  0  0999 V2000
    4.4886   -2.2022    5.5062 O   0  0  0  0  0  0  0  0  0  0  0  0
    4.6927   -2.5772    4.3596 C   0  0  0  0  0  0  0  0  0  0  0  0
    3.9453   -3.7874    3.7920 C   0  0  0  0  0  0  0  0  0  0  0  0
    3.0805   -4.3004    4.8192 N   0  0  0  0  0  0  0  0  0  0  0  0
    2.2155   -5.3189    4.5730 C   0  0  0  0  0  0  0  0  0  0  0  0
    2.1389   -5.8538    3.4741 O   0  0  0  0  0  0  0  0  0  0  0  0
    1.3448   -5.7574    5.7260 C   0  0  0  0  0  0  0  0  0  0  0  0
    1.5807   -5.4070    7.0640 C   0  0  0  0  0  0  0  0  0  0  0  0
    0.7337   -5.8685    8.0750 C   0  0  0  0  0  0  0  0  0  0  0  0
   -0.3565   -6.6815    7.7620 C   0  0  0  0  0  0  0  0  0  0  0  0
   -0.5926   -7.0395    6.4281 C   0  0  0  0  0  0  0  0  0  0  0  0
   -1.7971   -7.8797    6.0781 C   0  0  1  0  0  0  0  0  0  0  0  0
   -2.1237   -8.7221    7.0758 F   0  0  0  0  0  0  0  0  0  0  0  0
   -2.8814   -7.1143    5.8442 F   0  0  0  0  0  0  0  0  0  0  0  0
   -1.5926   -8.6177    4.9753 F   0  0  0  0  0  0  0  0  0  0  0  0
    0.2583   -6.5872    5.4181 C   0  0  0  0  0  0  0  0  0  0  0  0
    5.5749   -1.9436    3.5410 N   0  0  0  0  0  0  0  0  0  0  0  0
    5.9667   -2.2776    2.1902 C   0  0  1  0  0  0  0  0  0  0  0  0
    6.2043   -1.0453    1.2790 C   0  0  0  0  0  0  0  0  0  0  0  0
    7.6455   -1.1659    1.5391 N   0  0  0  0  0  0  0  0  0  0  0  0
    8.6057   -0.8449    0.4926 C   0  0  1  0  0  0  0  0  0  0  0  0
    8.4997    0.6367    0.0942 C   0  0  0  0  0  0  0  0  0  0  0  0
    8.9208    1.5746    1.2294 C   0  0  0  0  0  0  0  0  0  0  0  0
   10.3655    1.3057    1.7317 C   0  0  2  0  0  0  0  0  0  0  0  0
   11.4232    1.9045    0.8193 C   0  0  0  0  0  0  0  0  0  0  0  0
   12.3737    1.2023    0.1181 C   0  0  0  0  0  0  0  0  0  0  0  0
   13.3624    1.8369   -0.6964 C   0  0  0  0  0  0  0  0  0  0  0  0
   13.3659    3.1990   -0.7674 C   0  0  0  0  0  0  0  0  0  0  0  0
   12.4414    3.9131   -0.0645 N   0  0  0  0  0  0  0  0  0  0  0  0
   12.4464    4.9293   -0.0938 H   0  0  0  0  0  0  0  0  0  0  0  0
   11.4447    3.3753    0.7645 C   0  0  0  0  0  0  0  0  0  0  0  0
   10.6935    4.1285    1.3729 O   0  0  0  0  0  0  0  0  0  0  0  0
   10.5307   -0.1934    2.0590 C   0  0  0  0  0  0  0  0  0  0  0  0
   10.0385   -1.1511    0.9595 C   0  0  0  0  0  0  0  0  0  0  0  0
    7.4831   -2.5543    1.9927 C   0  0  0  0  0  0  0  0  0  0  0  0
    4.6621   -4.5574    3.4527 H   0  0  0  0  0  0  0  0  0  0  0  0
    3.3685   -3.5010    2.8930 H   0  0  0  0  0  0  0  0  0  0  0  0
    3.0838   -3.7595    5.6804 H   0  0  0  0  0  0  0  0  0  0  0  0
    2.4415   -4.7919    7.3365 H   0  0  0  0  0  0  0  0  0  0  0  0
    0.9307   -5.5986    9.1151 H   0  0  0  0  0  0  0  0  0  0  0  0
   -1.0171   -7.0483    8.5498 H   0  0  0  0  0  0  0  0  0  0  0  0
    0.1062   -6.8722    4.3762 H   0  0  0  0  0  0  0  0  0  0  0  0
    6.0605   -1.1665    3.9832 H   0  0  0  0  0  0  0  0  0  0  0  0
    5.2892   -3.0381    1.7874 H   0  0  0  0  0  0  0  0  0  0  0  0
    5.7310   -0.0989    1.5916 H   0  0  0  0  0  0  0  0  0  0  0  0
    5.9219   -1.2547    0.2254 H   0  0  0  0  0  0  0  0  0  0  0  0
    8.3925   -1.4703   -0.4079 H   0  0  0  0  0  0  0  0  0  0  0  0
    7.4710    0.8711   -0.2283 H   0  0  0  0  0  0  0  0  0  0  0  0
    9.1377    0.7985   -0.7920 H   0  0  0  0  0  0  0  0  0  0  0  0
    8.2381    1.4286    2.0823 H   0  0  0  0  0  0  0  0  0  0  0  0
    8.8262    2.6268    0.9285 H   0  0  0  0  0  0  0  0  0  0  0  0
   10.4645    1.8710    2.6746 H   0  0  0  0  0  0  0  0  0  0  0  0
   12.3931    0.1127    0.1794 H   0  0  0  0  0  0  0  0  0  0  0  0
   14.0983    1.2522   -1.2481 H   0  0  0  0  0  0  0  0  0  0  0  0
   14.0786    3.7739   -1.3621 H   0  0  0  0  0  0  0  0  0  0  0  0
    9.9440   -0.3939    2.9700 H   0  0  0  0  0  0  0  0  0  0  0  0
   11.5795   -0.4202    2.3142 H   0  0  0  0  0  0  0  0  0  0  0  0
   10.1052   -2.1920    1.3195 H   0  0  0  0  0  0  0  0  0  0  0  0
   10.6884   -1.1023    0.0712 H   0  0  0  0  0  0  0  0  0  0  0  0
    8.0540   -2.8417    2.8919 H   0  0  0  0  0  0  0  0  0  0  0  0
    7.6630   -3.3073    1.1957 H   0  0  0  0  0  0  0  0  0  0  0  0
  1  2  2  0
  2  3  1  0
  2 17  1  0
  3  4  1  0
  3 36  1  0
  3 37  1  0
  4  5  1  0
  4 38  1  0
  5  6  2  0
  5  7  1  0
  7  8  2  0
  7 16  1  0
  8  9  1  0
  8 39  1  0
  9 10  2  0
  9 40  1  0
 10 11  1  0
 10 41  1  0
 11 12  1  0
 11 16  2  0
 12 13  1  1
 12 14  1  0
 12 15  1  0
 16 42  1  0
 17 18  1  0
 17 43  1  0
 18 19  1  0
 18 35  1  0
 18 44  1  6
 19 20  1  0
 19 45  1  0
 19 46  1  0
 20 21  1  0
 20 35  1  0
 21 22  1  0
 21 34  1  0
 21 47  1  6
 22 23  1  0
 22 48  1  0
 22 49  1  0
 23 24  1  0
 23 50  1  0
 23 51  1  0
 24 25  1  0
 24 33  1  0
 24 52  1  1
 25 26  2  0
 25 31  1  0
 26 27  1  0
 26 53  1  0
 27 28  2  0
 27 54  1  0
 28 29  1  0
 28 55  1  0
 29 30  1  0
 29 31  1  0
 31 32  2  0
 33 34  1  0
 33 56  1  0
 33 57  1  0
 34 58  1  0
 34 59  1  0
 35 60  1  0
 35 61  1  0
M  END

