
     RDKit          3D

 63 67  0  0  0  0  0  0  0  0999 V2000
    2.7859    0.7094    0.3731 C   0  0  0  0  0  0  0  0  0  0  0  0
    3.4130    1.1730   -0.8184 O   0  0  0  0  0  0  0  0  0  0  0  0
    3.6862    0.2720   -1.7766 C   0  0  0  0  0  0  0  0  0  0  0  0
    3.3917   -0.9843   -1.5867 N   0  0  0  0  0  0  0  0  0  0  0  0
    3.6908   -1.8830   -2.5627 C   0  0  0  0  0  0  0  0  0  0  0  0
    3.3627   -3.2516   -2.3683 C   0  0  0  0  0  0  0  0  0  0  0  0
    3.6554   -4.1940   -3.3290 C   0  0  0  0  0  0  0  0  0  0  0  0
    4.3015   -3.8255   -4.5426 C   0  0  0  0  0  0  0  0  0  0  0  0
    4.5238   -4.9184   -5.6053 C   0  0  1  0  0  0  0  0  0  0  0  0
    3.2481   -5.4890   -5.9211 O   0  0  0  0  0  0  0  0  0  0  0  0
    5.1443   -4.3960   -6.8957 C   0  0  0  0  0  0  0  0  0  0  0  0
    4.5532   -4.2597   -8.1388 C   0  0  0  0  0  0  0  0  0  0  0  0
    5.4351   -3.7418   -9.0481 N   0  0  0  0  0  0  0  0  0  0  0  0
    6.5502   -3.5675   -8.3814 C   0  0  0  0  0  0  0  0  0  0  0  0
    6.4472   -3.9431   -7.0666 N   0  0  0  0  0  0  0  0  0  0  0  0
    7.5476   -3.9195   -6.1156 C   0  0  0  0  0  0  0  0  0  0  0  0
    5.3511   -6.0574   -5.0387 C   0  0  0  0  0  0  0  0  0  0  0  0
    6.1391   -6.1647   -3.9038 C   0  0  0  0  0  0  0  0  0  0  0  0
    6.7216   -7.3906   -3.8880 N   0  0  0  0  0  0  0  0  0  0  0  0
    6.3381   -8.0515   -4.9362 N   0  0  0  0  0  0  0  0  0  0  0  0
    5.5127   -7.2663   -5.6521 N   0  0  0  0  0  0  0  0  0  0  0  0
    4.9143   -7.7916   -6.8684 C   0  0  0  0  0  0  0  0  0  0  0  0
    4.6092   -2.4935   -4.7607 C   0  0  0  0  0  0  0  0  0  0  0  0
    4.3231   -1.5021   -3.7862 C   0  0  0  0  0  0  0  0  0  0  0  0
    4.6194   -0.1073   -3.9389 C   0  0  0  0  0  0  0  0  0  0  0  0
    5.3960    0.4167   -5.4225 Cl  0  0  0  0  0  0  0  0  0  0  0  0
    4.3140    0.8133   -2.9584 C   0  0  0  0  0  0  0  0  0  0  0  0
    4.5816    2.3004   -3.0442 C   0  0  0  0  0  0  0  0  0  0  0  0
    3.3458    3.1297   -3.3681 C   0  0  0  0  0  0  0  0  0  0  0  0
    2.7475    3.0612   -4.6369 C   0  0  0  0  0  0  0  0  0  0  0  0
    1.6219    3.8269   -4.9418 C   0  0  0  0  0  0  0  0  0  0  0  0
    1.0652    4.6804   -3.9804 C   0  0  0  0  0  0  0  0  0  0  0  0
   -0.1825    5.4833   -4.2983 C   0  0  1  0  0  0  0  0  0  0  0  0
   -1.4913    4.7701   -4.0129 C   0  0  0  0  0  0  0  0  0  0  0  0
   -0.1640    6.6542   -3.5823 F   0  0  0  0  0  0  0  0  0  0  0  0
   -0.1658    5.8412   -5.6232 F   0  0  0  0  0  0  0  0  0  0  0  0
    1.6578    4.7601   -2.7153 C   0  0  0  0  0  0  0  0  0  0  0  0
    2.7835    3.9897   -2.4149 C   0  0  0  0  0  0  0  0  0  0  0  0
    2.6491    1.5963    1.0047 H   0  0  0  0  0  0  0  0  0  0  0  0
    3.4143   -0.0341    0.8868 H   0  0  0  0  0  0  0  0  0  0  0  0
    1.8137    0.2438    0.1513 H   0  0  0  0  0  0  0  0  0  0  0  0
    2.8690   -3.5238   -1.4337 H   0  0  0  0  0  0  0  0  0  0  0  0
    3.3824   -5.2384   -3.1690 H   0  0  0  0  0  0  0  0  0  0  0  0
    2.6531   -4.7625   -6.1558 H   0  0  0  0  0  0  0  0  0  0  0  0
    3.5344   -4.5251   -8.4160 H   0  0  0  0  0  0  0  0  0  0  0  0
    7.4844   -3.1731   -8.7846 H   0  0  0  0  0  0  0  0  0  0  0  0
    8.3789   -3.3581   -6.5633 H   0  0  0  0  0  0  0  0  0  0  0  0
    7.8938   -4.9353   -5.8746 H   0  0  0  0  0  0  0  0  0  0  0  0
    7.2529   -3.4198   -5.1824 H   0  0  0  0  0  0  0  0  0  0  0  0
    6.3123   -5.4332   -3.1183 H   0  0  0  0  0  0  0  0  0  0  0  0
    5.3483   -8.7860   -7.0275 H   0  0  0  0  0  0  0  0  0  0  0  0
    5.1412   -7.1380   -7.7220 H   0  0  0  0  0  0  0  0  0  0  0  0
    3.8245   -7.8594   -6.7577 H   0  0  0  0  0  0  0  0  0  0  0  0
    5.0682   -2.1802   -5.6974 H   0  0  0  0  0  0  0  0  0  0  0  0
    5.3492    2.4772   -3.8104 H   0  0  0  0  0  0  0  0  0  0  0  0
    4.9914    2.6339   -2.0805 H   0  0  0  0  0  0  0  0  0  0  0  0
    3.1748    2.4076   -5.4015 H   0  0  0  0  0  0  0  0  0  0  0  0
    1.1810    3.7753   -5.9395 H   0  0  0  0  0  0  0  0  0  0  0  0
   -1.5563    4.5111   -2.9468 H   0  0  0  0  0  0  0  0  0  0  0  0
   -1.5572    3.8477   -4.6066 H   0  0  0  0  0  0  0  0  0  0  0  0
   -2.3264    5.4353   -4.2784 H   0  0  0  0  0  0  0  0  0  0  0  0
    1.2434    5.4376   -1.9661 H   0  0  0  0  0  0  0  0  0  0  0  0
    3.2353    4.0597   -1.4226 H   0  0  0  0  0  0  0  0  0  0  0  0
  1  2  1  0
  1 39  1  0
  1 40  1  0
  1 41  1  0
  2  3  1  0
  3  4  2  0
  3 27  1  0
  4  5  1  0
  5  6  2  0
  5 24  1  0
  6  7  1  0
  6 42  1  0
  7  8  2  0
  7 43  1  0
  8  9  1  0
  8 23  1  0
  9 10  1  6
  9 11  1  0
  9 17  1  0
 10 44  1  0
 11 12  2  0
 11 15  1  0
 12 13  1  0
 12 45  1  0
 13 14  2  0
 14 15  1  0
 14 46  1  0
 15 16  1  0
 16 47  1  0
 16 48  1  0
 16 49  1  0
 17 18  2  0
 17 21  1  0
 18 19  1  0
 18 50  1  0
 19 20  2  0
 20 21  1  0
 21 22  1  0
 22 51  1  0
 22 52  1  0
 22 53  1  0
 23 24  2  0
 23 54  1  0
 24 25  1  0
 25 26  1  0
 25 27  2  0
 27 28  1  0
 28 29  1  0
 28 55  1  0
 28 56  1  0
 29 30  2  0
 29 38  1  0
 30 31  1  0
 30 57  1  0
 31 32  2  0
 31 58  1  0
 32 33  1  0
 32 37  1  0
 33 34  1  0
 33 35  1  1
 33 36  1  0
 34 59  1  0
 34 60  1  0
 34 61  1  0
 37 38  2  0
 37 62  1  0
 38 63  1  0
M  END

