
     RDKit          3D

126135  0  0  0  0  0  0  0  0999 V2000
    5.9192    4.5792    5.5493 C   0  0  0  0  0  0  0  0  0  0  0  0
    5.7541    3.3720    4.6249 C   0  0  0  0  0  0  0  0  0  0  0  0
    6.1913    2.0485    5.2607 C   0  0  0  0  0  0  0  0  0  0  0  0
    6.0282    0.8343    4.3418 C   0  0  0  0  0  0  0  0  0  0  0  0
    6.4691   -0.4861    4.9793 C   0  0  0  0  0  0  0  0  0  0  0  0
    6.3015   -1.7006    4.0478 C   0  0  0  0  0  0  0  0  0  0  0  0
    6.7356   -3.0067    4.6745 C   0  0  0  0  0  0  0  0  0  0  0  0
    5.8182   -3.8284    5.3489 C   0  0  0  0  0  0  0  0  0  0  0  0
    6.2208   -5.0189    5.9563 C   0  0  0  0  0  0  0  0  0  0  0  0
    7.5584   -5.4165    5.8924 C   0  0  0  0  0  0  0  0  0  0  0  0
    7.9933   -6.6556    6.4779 N   0  0  0  0  0  0  0  0  0  0  0  0
    8.1018   -7.8797    5.8149 C   0  0  0  0  0  0  0  0  0  0  0  0
    7.5550   -8.2751    4.5507 C   0  0  0  0  0  0  0  0  0  0  0  0
    6.7241   -7.4915    3.7000 C   0  0  0  0  0  0  0  0  0  0  0  0
    6.3317   -7.9811    2.4717 C   0  0  0  0  0  0  0  0  0  0  0  0
    6.7326   -9.2561    2.0164 C   0  0  0  0  0  0  0  0  0  0  0  0
    7.5300  -10.0557    2.8223 C   0  0  0  0  0  0  0  0  0  0  0  0
    7.9661  -11.2868    2.4820 O   0  0  0  0  0  0  0  0  0  0  0  0
    7.5853  -11.8311    1.2415 C   0  0  0  0  0  0  0  0  0  0  0  0
    7.9454   -9.5881    4.1212 C   0  0  0  0  0  0  0  0  0  0  0  0
    8.6418  -10.4498    4.8958 N   0  0  0  0  0  0  0  0  0  0  0  0
    9.1006  -10.1049    6.0805 C   0  0  0  0  0  0  0  0  0  0  0  0
    9.6216  -11.2391    6.8926 C   0  0  0  0  0  0  0  0  0  0  0  0
   10.2171  -12.3368    6.2411 C   0  0  0  0  0  0  0  0  0  0  0  0
   10.5713  -13.4802    6.9487 C   0  0  0  0  0  0  0  0  0  0  0  0
   10.3245  -13.5898    8.3298 C   0  0  0  0  0  0  0  0  0  0  0  0
   10.6645  -14.8591    9.0716 C   0  0  0  0  0  0  0  0  0  0  0  0
    9.7314  -12.4963    8.9744 C   0  0  0  0  0  0  0  0  0  0  0  0
    9.3886  -11.3373    8.2714 C   0  0  0  0  0  0  0  0  0  0  0  0
    8.9710   -8.7501    6.5449 C   0  0  0  0  0  0  0  0  0  0  0  0
    9.5017   -7.9368    7.6092 C   0  0  0  0  0  0  0  0  0  0  0  0
    8.8532   -6.7065    7.5742 C   0  0  0  0  0  0  0  0  0  0  0  0
    9.3909   -5.8687    8.6024 C   0  0  0  0  0  0  0  0  0  0  0  0
    9.0701   -4.6012    9.1915 C   0  0  0  0  0  0  0  0  0  0  0  0
    7.7367   -3.9495    9.0570 C   0  0  0  0  0  0  0  0  0  0  0  0
    6.5551   -4.6962    9.1779 C   0  0  0  0  0  0  0  0  0  0  0  0
    5.3096   -4.0634    9.2196 C   0  0  0  0  0  0  0  0  0  0  0  0
    5.1992   -2.6698    9.1216 C   0  0  0  0  0  0  0  0  0  0  0  0
    3.8588   -1.9776    9.1734 C   0  0  0  0  0  0  0  0  0  0  0  0
    6.3865   -1.9267    8.9885 C   0  0  0  0  0  0  0  0  0  0  0  0
    7.6320   -2.5498    8.9708 C   0  0  0  0  0  0  0  0  0  0  0  0
    9.9105   -4.0085   10.0106 N   0  0  0  0  0  0  0  0  0  0  0  0
   11.0886   -4.5944   10.3575 C   0  0  0  0  0  0  0  0  0  0  0  0
   12.0032   -3.8272   11.1551 C   0  0  0  0  0  0  0  0  0  0  0  0
   11.7341   -2.5434   11.5181 O   0  0  0  0  0  0  0  0  0  0  0  0
   10.6309   -2.2985   12.3815 C   0  0  0  0  0  0  0  0  0  0  0  0
   13.2342   -4.3564   11.5089 C   0  0  0  0  0  0  0  0  0  0  0  0
   13.5947   -5.6533   11.0977 C   0  0  0  0  0  0  0  0  0  0  0  0
   12.7260   -6.4354   10.3590 C   0  0  0  0  0  0  0  0  0  0  0  0
   11.4512   -5.9362    9.9755 C   0  0  0  0  0  0  0  0  0  0  0  0
   10.4941   -6.5983    9.1313 C   0  0  0  0  0  0  0  0  0  0  0  0
   10.5118   -7.8789    8.5786 N   0  0  0  0  0  0  0  0  0  0  0  0
   11.4421   -8.9101    8.9134 C   0  0  0  0  0  0  0  0  0  0  0  0
   11.4957   -9.4051   10.2193 C   0  0  0  0  0  0  0  0  0  0  0  0
   12.4697  -10.3394   10.5787 C   0  0  0  0  0  0  0  0  0  0  0  0
   13.3917  -10.8271    9.6404 C   0  0  0  0  0  0  0  0  0  0  0  0
   14.5186  -11.7864    9.9904 C   0  0  0  0  0  0  0  0  0  0  0  0
   14.5051  -12.4443   11.3756 C   0  0  0  0  0  0  0  0  0  0  0  0
   13.4400  -13.5286   11.5748 C   0  0  0  0  0  0  0  0  0  0  0  0
   13.4600  -14.1531   12.9732 C   0  0  0  0  0  0  0  0  0  0  0  0
   12.4160  -15.2551   13.1792 C   0  0  0  0  0  0  0  0  0  0  0  0
   12.4436  -15.8710   14.5788 C   0  0  0  0  0  0  0  0  0  0  0  0
   13.2883  -10.3526    8.3200 C   0  0  0  0  0  0  0  0  0  0  0  0
   12.3385   -9.3998    7.9564 C   0  0  0  0  0  0  0  0  0  0  0  0
    8.4896   -4.6064    5.2322 C   0  0  0  0  0  0  0  0  0  0  0  0
    8.0781   -3.4161    4.6317 C   0  0  0  0  0  0  0  0  0  0  0  0
    5.5959    5.5119    5.0600 H   0  0  0  0  0  0  0  0  0  0  0  0
    6.9713    4.7106    5.8532 H   0  0  0  0  0  0  0  0  0  0  0  0
    5.3237    4.4634    6.4705 H   0  0  0  0  0  0  0  0  0  0  0  0
    6.3317    3.5361    3.6969 H   0  0  0  0  0  0  0  0  0  0  0  0
    4.6980    3.2909    4.3085 H   0  0  0  0  0  0  0  0  0  0  0  0
    5.6143    1.8831    6.1900 H   0  0  0  0  0  0  0  0  0  0  0  0
    7.2483    2.1278    5.5766 H   0  0  0  0  0  0  0  0  0  0  0  0
    6.6032    1.0006    3.4118 H   0  0  0  0  0  0  0  0  0  0  0  0
    4.9707    0.7534    4.0276 H   0  0  0  0  0  0  0  0  0  0  0  0
    5.8980   -0.6627    5.9080 H   0  0  0  0  0  0  0  0  0  0  0  0
    7.5266   -0.4135    5.2906 H   0  0  0  0  0  0  0  0  0  0  0  0
    6.8814   -1.5266    3.1249 H   0  0  0  0  0  0  0  0  0  0  0  0
    5.2445   -1.7748    3.7401 H   0  0  0  0  0  0  0  0  0  0  0  0
    4.7669   -3.5323    5.3996 H   0  0  0  0  0  0  0  0  0  0  0  0
    5.4971   -5.6530    6.4694 H   0  0  0  0  0  0  0  0  0  0  0  0
    6.3982   -6.5019    4.0029 H   0  0  0  0  0  0  0  0  0  0  0  0
    5.6969   -7.3667    1.8278 H   0  0  0  0  0  0  0  0  0  0  0  0
    6.4052   -9.5998    1.0355 H   0  0  0  0  0  0  0  0  0  0  0  0
    8.0404  -12.8293    1.1852 H   0  0  0  0  0  0  0  0  0  0  0  0
    7.9505  -11.2229    0.3935 H   0  0  0  0  0  0  0  0  0  0  0  0
    6.4879  -11.9328    1.1548 H   0  0  0  0  0  0  0  0  0  0  0  0
   10.3651  -12.2797    5.1616 H   0  0  0  0  0  0  0  0  0  0  0  0
   11.0329  -14.3188    6.4179 H   0  0  0  0  0  0  0  0  0  0  0  0
   11.7259  -15.1293    8.9440 H   0  0  0  0  0  0  0  0  0  0  0  0
   10.0712  -15.7103    8.6956 H   0  0  0  0  0  0  0  0  0  0  0  0
   10.4690  -14.7661   10.1499 H   0  0  0  0  0  0  0  0  0  0  0  0
    9.5174  -12.5548   10.0454 H   0  0  0  0  0  0  0  0  0  0  0  0
    8.8953  -10.5179    8.7985 H   0  0  0  0  0  0  0  0  0  0  0  0
    6.6104   -5.7833    9.2739 H   0  0  0  0  0  0  0  0  0  0  0  0
    4.4051   -4.6676    9.3377 H   0  0  0  0  0  0  0  0  0  0  0  0
    3.0297   -2.6999    9.2086 H   0  0  0  0  0  0  0  0  0  0  0  0
    3.7058   -1.3297    8.2940 H   0  0  0  0  0  0  0  0  0  0  0  0
    3.7766   -1.3307   10.0635 H   0  0  0  0  0  0  0  0  0  0  0  0
    6.3315   -0.8364    8.9119 H   0  0  0  0  0  0  0  0  0  0  0  0
    8.5471   -1.9585    8.9020 H   0  0  0  0  0  0  0  0  0  0  0  0
   10.6405   -1.2204   12.5973 H   0  0  0  0  0  0  0  0  0  0  0  0
   10.7465   -2.8504   13.3329 H   0  0  0  0  0  0  0  0  0  0  0  0
    9.6785   -2.5744   11.9074 H   0  0  0  0  0  0  0  0  0  0  0  0
   13.9122   -3.7363   12.0985 H   0  0  0  0  0  0  0  0  0  0  0  0
   14.5772   -6.0495   11.3669 H   0  0  0  0  0  0  0  0  0  0  0  0
   13.0467   -7.4240   10.0461 H   0  0  0  0  0  0  0  0  0  0  0  0
   10.7902   -9.0315   10.9642 H   0  0  0  0  0  0  0  0  0  0  0  0
   12.5038  -10.6839   11.6134 H   0  0  0  0  0  0  0  0  0  0  0  0
   15.4665  -11.2286    9.8799 H   0  0  0  0  0  0  0  0  0  0  0  0
   14.5585  -12.5733    9.2159 H   0  0  0  0  0  0  0  0  0  0  0  0
   14.4030  -11.6706   12.1577 H   0  0  0  0  0  0  0  0  0  0  0  0
   15.4988  -12.8948   11.5448 H   0  0  0  0  0  0  0  0  0  0  0  0
   13.5911  -14.3207   10.8183 H   0  0  0  0  0  0  0  0  0  0  0  0
   12.4365  -13.1158   11.3725 H   0  0  0  0  0  0  0  0  0  0  0  0
   13.3053  -13.3605   13.7294 H   0  0  0  0  0  0  0  0  0  0  0  0
   14.4672  -14.5636   13.1760 H   0  0  0  0  0  0  0  0  0  0  0  0
   12.5711  -16.0472   12.4242 H   0  0  0  0  0  0  0  0  0  0  0  0
   11.4101  -14.8435   12.9775 H   0  0  0  0  0  0  0  0  0  0  0  0
   13.4249  -16.3249   14.7977 H   0  0  0  0  0  0  0  0  0  0  0  0
   11.6812  -16.6585   14.6905 H   0  0  0  0  0  0  0  0  0  0  0  0
   12.2531  -15.1112   15.3554 H   0  0  0  0  0  0  0  0  0  0  0  0
   13.9845  -10.7236    7.5624 H   0  0  0  0  0  0  0  0  0  0  0  0
   12.2972   -9.0219    6.9330 H   0  0  0  0  0  0  0  0  0  0  0  0
    9.5340   -4.9213    5.1803 H   0  0  0  0  0  0  0  0  0  0  0  0
    8.8143   -2.7980    4.1097 H   0  0  0  0  0  0  0  0  0  0  0  0
  1  2  1  0
  1 67  1  0
  1 68  1  0
  1 69  1  0
  2  3  1  0
  2 70  1  0
  2 71  1  0
  3  4  1  0
  3 72  1  0
  3 73  1  0
  4  5  1  0
  4 74  1  0
  4 75  1  0
  5  6  1  0
  5 76  1  0
  5 77  1  0
  6  7  1  0
  6 78  1  0
  6 79  1  0
  7  8  2  0
  7 66  1  0
  8  9  1  0
  8 80  1  0
  9 10  2  0
  9 81  1  0
 10 11  1  0
 10 65  1  0
 11 12  1  0
 11 32  1  0
 12 13  1  0
 12 30  2  0
 13 14  2  0
 13 20  1  0
 14 15  1  0
 14 82  1  0
 15 16  2  0
 15 83  1  0
 16 17  1  0
 16 84  1  0
 17 18  1  0
 17 20  2  0
 18 19  1  0
 19 85  1  0
 19 86  1  0
 19 87  1  0
 20 21  1  0
 21 22  2  0
 22 23  1  0
 22 30  1  0
 23 24  2  0
 23 29  1  0
 24 25  1  0
 24 88  1  0
 25 26  2  0
 25 89  1  0
 26 27  1  0
 26 28  1  0
 27 90  1  0
 27 91  1  0
 27 92  1  0
 28 29  2  0
 28 93  1  0
 29 94  1  0
 30 31  1  0
 31 32  2  0
 31 52  1  0
 32 33  1  0
 33 34  2  0
 33 51  1  0
 34 35  1  0
 34 42  1  0
 35 36  2  0
 35 41  1  0
 36 37  1  0
 36 95  1  0
 37 38  2  0
 37 96  1  0
 38 39  1  0
 38 40  1  0
 39 97  1  0
 39 98  1  0
 39 99  1  0
 40 41  2  0
 40100  1  0
 41101  1  0
 42 43  2  0
 43 44  1  0
 43 50  1  0
 44 45  1  0
 44 47  2  0
 45 46  1  0
 46102  1  0
 46103  1  0
 46104  1  0
 47 48  1  0
 47105  1  0
 48 49  2  0
 48106  1  0
 49 50  1  0
 49107  1  0
 50 51  2  0
 51 52  1  0
 52 53  1  0
 53 54  2  0
 53 64  1  0
 54 55  1  0
 54108  1  0
 55 56  2  0
 55109  1  0
 56 57  1  0
 56 63  1  0
 57 58  1  0
 57110  1  0
 57111  1  0
 58 59  1  0
 58112  1  0
 58113  1  0
 59 60  1  0
 59114  1  0
 59115  1  0
 60 61  1  0
 60116  1  0
 60117  1  0
 61 62  1  0
 61118  1  0
 61119  1  0
 62120  1  0
 62121  1  0
 62122  1  0
 63 64  2  0
 63123  1  0
 64124  1  0
 65 66  2  0
 65125  1  0
 66126  1  0
M  END

