
     RDKit          3D

 37 37  0  0  0  0  0  0  0  0999 V2000
    2.7670   -0.4265    2.3225 C   0  0  0  0  0  0  0  0  0  0  0  0
    2.2209    0.8348    1.6454 C   0  0  1  0  0  0  0  0  0  0  0  0
    2.1122    1.8226    2.6451 O   0  0  0  0  0  0  0  0  0  0  0  0
    3.1982    1.2802    0.5276 C   0  0  0  0  0  0  0  0  0  0  0  0
    2.6668    2.2489   -0.4208 N   0  0  0  0  0  0  0  0  0  0  0  0
    2.4806    3.5514   -0.1115 C   0  0  0  0  0  0  0  0  0  0  0  0
    2.7198    4.0107    1.0056 O   0  0  0  0  0  0  0  0  0  0  0  0
    1.9683    4.4450   -1.2425 C   0  0  0  0  0  0  0  0  0  0  0  0
    0.6452    5.1091   -0.9202 C   0  0  0  0  0  0  0  0  0  0  0  0
    0.5341    5.9993    0.1635 C   0  0  0  0  0  0  0  0  0  0  0  0
   -0.6825    6.6092    0.4616 C   0  0  0  0  0  0  0  0  0  0  0  0
   -1.7932    6.3246   -0.3350 C   0  0  0  0  0  0  0  0  0  0  0  0
   -3.0856    6.9715   -0.0264 N   0  0  0  0  0  0  0  0  0  0  0  0
   -3.1195    7.7417    0.9195 O   0  0  0  0  0  0  0  0  0  0  0  0
   -4.0391    6.6947   -0.7367 O   0  0  0  0  0  0  0  0  0  0  0  0
   -1.7172    5.4461   -1.4147 C   0  0  0  0  0  0  0  0  0  0  0  0
   -0.4925    4.8414   -1.6989 C   0  0  0  0  0  0  0  0  0  0  0  0
    0.7902    0.5747    1.0662 C   0  0  0  0  0  0  0  0  0  0  0  0
    0.7574   -0.3842   -0.1100 C   0  0  0  0  0  0  0  0  0  0  0  0
    1.1078   -0.0843   -1.2272 O   0  0  0  0  0  0  0  0  0  0  0  0
    0.3570   -1.6466    0.1427 O   0  0  0  0  0  0  0  0  0  0  0  0
    3.7984   -0.2542    2.6664 H   0  0  0  0  0  0  0  0  0  0  0  0
    2.7626   -1.2989    1.6501 H   0  0  0  0  0  0  0  0  0  0  0  0
    2.1588   -0.6545    3.2112 H   0  0  0  0  0  0  0  0  0  0  0  0
    2.3055    2.6970    2.2500 H   0  0  0  0  0  0  0  0  0  0  0  0
    3.5254    0.4093   -0.0558 H   0  0  0  0  0  0  0  0  0  0  0  0
    4.0829    1.7115    1.0218 H   0  0  0  0  0  0  0  0  0  0  0  0
    2.2491    1.8600   -1.2621 H   0  0  0  0  0  0  0  0  0  0  0  0
    1.8947    3.8830   -2.1844 H   0  0  0  0  0  0  0  0  0  0  0  0
    2.7435    5.2174   -1.3833 H   0  0  0  0  0  0  0  0  0  0  0  0
    1.4098    6.1949    0.7842 H   0  0  0  0  0  0  0  0  0  0  0  0
   -0.7880    7.3009    1.2970 H   0  0  0  0  0  0  0  0  0  0  0  0
   -2.6084    5.2511   -2.0105 H   0  0  0  0  0  0  0  0  0  0  0  0
   -0.4212    4.1523   -2.5446 H   0  0  0  0  0  0  0  0  0  0  0  0
    0.3890    1.5367    0.7187 H   0  0  0  0  0  0  0  0  0  0  0  0
    0.1524    0.2374    1.8981 H   0  0  0  0  0  0  0  0  0  0  0  0
    0.0926   -1.7368    1.0693 H   0  0  0  0  0  0  0  0  0  0  0  0
  1  2  1  0
  1 22  1  0
  1 23  1  0
  1 24  1  0
  2  3  1  1
  2  4  1  0
  2 18  1  0
  3 25  1  0
  4  5  1  0
  4 26  1  0
  4 27  1  0
  5  6  1  0
  5 28  1  0
  6  7  2  0
  6  8  1  0
  8  9  1  0
  8 29  1  0
  8 30  1  0
  9 10  2  0
  9 17  1  0
 10 11  1  0
 10 31  1  0
 11 12  2  0
 11 32  1  0
 12 13  1  0
 12 16  1  0
 13 14  2  0
 13 15  1  0
 16 17  2  0
 16 33  1  0
 17 34  1  0
 18 19  1  0
 18 35  1  0
 18 36  1  0
 19 20  2  0
 19 21  1  0
 21 37  1  0
M  CHG  2  13   1  15  -1
M  END

