
     RDKit          3D

 66 66  0  0  0  0  0  0  0  0999 V2000
    5.9971   -7.2944    3.3267 C   0  0  0  0  0  0  0  0  0  0  0  0
    5.1470   -7.6363    2.1137 C   0  0  0  0  0  0  0  0  0  0  0  0
    4.9048   -6.4846    1.2886 O   0  0  0  0  0  0  0  0  0  0  0  0
    5.8471   -6.1713    0.3721 C   0  0  0  0  0  0  0  0  0  0  0  0
    6.8643   -6.8097    0.2158 O   0  0  0  0  0  0  0  0  0  0  0  0
    5.5066   -4.9739   -0.4183 C   0  0  0  0  0  0  0  0  0  0  0  0
    6.3551   -4.4419   -1.4466 C   0  0  0  0  0  0  0  0  0  0  0  0
    5.7384   -3.3408   -1.9652 C   0  0  0  0  0  0  0  0  0  0  0  0
    4.5261   -3.1578   -1.2971 N   0  0  0  0  0  0  0  0  0  0  0  0
    3.5947   -2.1235   -1.5441 C   0  0  0  0  0  0  0  0  0  0  0  0
    2.5594   -2.0013   -0.9384 O   0  0  0  0  0  0  0  0  0  0  0  0
    4.0454   -1.3415   -2.5226 O   0  0  0  0  0  0  0  0  0  0  0  0
    3.2863   -0.1702   -3.0050 C   0  0  1  0  0  0  0  0  0  0  0  0
    3.1201    0.8404   -1.8672 C   0  0  0  0  0  0  0  0  0  0  0  0
    4.1932    0.3861   -4.1028 C   0  0  0  0  0  0  0  0  0  0  0  0
    1.9445   -0.6281   -3.5823 C   0  0  0  0  0  0  0  0  0  0  0  0
    4.3892   -4.1661   -0.3474 C   0  0  0  0  0  0  0  0  0  0  0  0
    3.2625   -4.2667    0.5000 N   0  0  0  0  0  0  0  0  0  0  0  0
    2.1816   -4.9950   -0.0566 C   0  0  0  0  0  0  0  0  0  0  0  0
    2.2535   -5.4078   -1.1913 O   0  0  0  0  0  0  0  0  0  0  0  0
    1.1643   -5.1535    0.7752 O   0  0  0  0  0  0  0  0  0  0  0  0
   -0.0662   -5.8468    0.3568 C   0  0  1  0  0  0  0  0  0  0  0  0
    0.2479   -7.3068    0.0173 C   0  0  0  0  0  0  0  0  0  0  0  0
   -0.9423   -5.7572    1.6068 C   0  0  0  0  0  0  0  0  0  0  0  0
   -0.7144   -5.1023   -0.8142 C   0  0  0  0  0  0  0  0  0  0  0  0
    3.3770   -3.5354    1.7083 C   0  0  0  0  0  0  0  0  0  0  0  0
    4.3479   -2.8411    1.9041 O   0  0  0  0  0  0  0  0  0  0  0  0
    2.3562   -3.7100    2.5327 O   0  0  0  0  0  0  0  0  0  0  0  0
    2.2815   -2.9997    3.8207 C   0  0  1  0  0  0  0  0  0  0  0  0
    2.2492   -1.4870    3.5833 C   0  0  0  0  0  0  0  0  0  0  0  0
    0.9507   -3.4865    4.3951 C   0  0  0  0  0  0  0  0  0  0  0  0
    3.4478   -3.4238    4.7185 C   0  0  0  0  0  0  0  0  0  0  0  0
    6.0952   -8.1784    3.9776 H   0  0  0  0  0  0  0  0  0  0  0  0
    5.5385   -6.4827    3.9130 H   0  0  0  0  0  0  0  0  0  0  0  0
    7.0056   -6.9815    3.0194 H   0  0  0  0  0  0  0  0  0  0  0  0
    4.1458   -7.9795    2.4131 H   0  0  0  0  0  0  0  0  0  0  0  0
    5.6280   -8.4173    1.5064 H   0  0  0  0  0  0  0  0  0  0  0  0
    7.3143   -4.8589   -1.7429 H   0  0  0  0  0  0  0  0  0  0  0  0
    6.0340   -2.6542   -2.7500 H   0  0  0  0  0  0  0  0  0  0  0  0
    2.6599    1.7603   -2.2600 H   0  0  0  0  0  0  0  0  0  0  0  0
    4.1002    1.1045   -1.4408 H   0  0  0  0  0  0  0  0  0  0  0  0
    2.4816    0.4426   -1.0684 H   0  0  0  0  0  0  0  0  0  0  0  0
    5.1739    0.6684   -3.6914 H   0  0  0  0  0  0  0  0  0  0  0  0
    3.7349    1.2788   -4.5542 H   0  0  0  0  0  0  0  0  0  0  0  0
    4.3503   -0.3624   -4.8940 H   0  0  0  0  0  0  0  0  0  0  0  0
    1.2939   -1.0432   -2.8023 H   0  0  0  0  0  0  0  0  0  0  0  0
    2.1004   -1.3924   -4.3594 H   0  0  0  0  0  0  0  0  0  0  0  0
    1.4341    0.2304   -4.0456 H   0  0  0  0  0  0  0  0  0  0  0  0
   -0.6904   -7.8483   -0.1806 H   0  0  0  0  0  0  0  0  0  0  0  0
    0.7522   -7.7970    0.8646 H   0  0  0  0  0  0  0  0  0  0  0  0
    0.8912   -7.3797   -0.8684 H   0  0  0  0  0  0  0  0  0  0  0  0
   -0.4471   -6.2403    2.4623 H   0  0  0  0  0  0  0  0  0  0  0  0
   -1.9059   -6.2586    1.4303 H   0  0  0  0  0  0  0  0  0  0  0  0
   -1.1367   -4.7069    1.8695 H   0  0  0  0  0  0  0  0  0  0  0  0
   -0.0943   -5.1620   -1.7171 H   0  0  0  0  0  0  0  0  0  0  0  0
   -0.8643   -4.0423   -0.5569 H   0  0  0  0  0  0  0  0  0  0  0  0
   -1.6988   -5.5459   -1.0307 H   0  0  0  0  0  0  0  0  0  0  0  0
    1.4395   -1.2275    2.8838 H   0  0  0  0  0  0  0  0  0  0  0  0
    3.2002   -1.1275    3.1713 H   0  0  0  0  0  0  0  0  0  0  0  0
    2.0583   -0.9700    4.5367 H   0  0  0  0  0  0  0  0  0  0  0  0
    0.1184   -3.2132    3.7298 H   0  0  0  0  0  0  0  0  0  0  0  0
    0.7751   -3.0314    5.3815 H   0  0  0  0  0  0  0  0  0  0  0  0
    0.9552   -4.5807    4.5094 H   0  0  0  0  0  0  0  0  0  0  0  0
    4.4086   -3.0916    4.3060 H   0  0  0  0  0  0  0  0  0  0  0  0
    3.4672   -4.5195    4.8285 H   0  0  0  0  0  0  0  0  0  0  0  0
    3.3205   -2.9830    5.7196 H   0  0  0  0  0  0  0  0  0  0  0  0
  1  2  1  0
  1 33  1  0
  1 34  1  0
  1 35  1  0
  2  3  1  0
  2 36  1  0
  2 37  1  0
  3  4  1  0
  4  5  2  0
  4  6  1  0
  6  7  1  0
  6 17  2  0
  7  8  2  0
  7 38  1  0
  8  9  1  0
  8 39  1  0
  9 10  1  0
  9 17  1  0
 10 11  2  0
 10 12  1  0
 13 12  1  1
 13 14  1  0
 13 15  1  0
 13 16  1  0
 14 40  1  0
 14 41  1  0
 14 42  1  0
 15 43  1  0
 15 44  1  0
 15 45  1  0
 16 46  1  0
 16 47  1  0
 16 48  1  0
 17 18  1  0
 18 19  1  0
 18 26  1  0
 19 20  2  0
 19 21  1  0
 22 21  1  1
 22 23  1  0
 22 24  1  0
 22 25  1  0
 23 49  1  0
 23 50  1  0
 23 51  1  0
 24 52  1  0
 24 53  1  0
 24 54  1  0
 25 55  1  0
 25 56  1  0
 25 57  1  0
 26 27  2  0
 26 28  1  0
 29 28  1  6
 29 30  1  0
 29 31  1  0
 29 32  1  0
 30 58  1  0
 30 59  1  0
 30 60  1  0
 31 61  1  0
 31 62  1  0
 31 63  1  0
 32 64  1  0
 32 65  1  0
 32 66  1  0
M  END

