
     RDKit          3D

 64 67  0  0  0  0  0  0  0  0999 V2000
    3.2693   -1.9671    0.2997 C   0  0  0  0  0  0  0  0  0  0  0  0
    2.8763   -0.5841    0.0578 N   0  0  0  0  0  0  0  0  0  0  0  0
    1.4435   -0.4062    0.0207 C   0  0  0  0  0  0  0  0  0  0  0  0
    0.7003   -0.5033    1.3601 C   0  0  0  0  0  0  0  0  0  0  0  0
    1.2190   -0.7885    2.4147 O   0  0  0  0  0  0  0  0  0  0  0  0
   -0.6001   -0.2313    1.1788 O   0  0  0  0  0  0  0  0  0  0  0  0
   -1.5869   -0.2631    2.2708 C   0  0  1  0  0  0  0  0  0  0  0  0
   -1.2265    0.7861    3.3272 C   0  0  0  0  0  0  0  0  0  0  0  0
   -2.8921    0.1028    1.5631 C   0  0  0  0  0  0  0  0  0  0  0  0
   -1.6636   -1.6746    2.8612 C   0  0  0  0  0  0  0  0  0  0  0  0
    3.6579    0.4140    0.8154 C   0  0  1  0  0  0  0  0  0  0  0  0
    5.1599    0.3240    0.4729 C   0  0  0  0  0  0  0  0  0  0  0  0
    5.4463    0.7273   -0.9749 C   0  0  0  0  0  0  0  0  0  0  0  0
    4.9489    2.0785   -1.2520 N   0  0  0  0  0  0  0  0  0  0  0  0
    5.8055    2.9946   -1.8014 C   0  0  0  0  0  0  0  0  0  0  0  0
    6.9747    2.7258   -2.0491 O   0  0  0  0  0  0  0  0  0  0  0  0
    5.3060    4.4303   -2.1307 C   0  0  1  0  0  0  0  0  0  0  0  0
    4.2387    4.4756   -3.2094 C   0  0  0  0  0  0  0  0  0  0  0  0
    4.4269    3.8264   -4.4393 C   0  0  0  0  0  0  0  0  0  0  0  0
    3.4627    3.8820   -5.4461 C   0  0  0  0  0  0  0  0  0  0  0  0
    2.2816    4.6037   -5.2341 C   0  0  0  0  0  0  0  0  0  0  0  0
    2.0742    5.2614   -4.0234 C   0  0  0  0  0  0  0  0  0  0  0  0
    3.0501    5.1947   -3.0211 C   0  0  0  0  0  0  0  0  0  0  0  0
    2.7655    5.8584   -1.8551 O   0  0  0  0  0  0  0  0  0  0  0  0
    3.6927    5.9193   -0.8471 C   0  0  0  0  0  0  0  0  0  0  0  0
    3.3430    6.6911    0.2683 C   0  0  0  0  0  0  0  0  0  0  0  0
    4.2256    6.7944    1.3413 C   0  0  0  0  0  0  0  0  0  0  0  0
    5.4582    6.1306    1.3013 C   0  0  0  0  0  0  0  0  0  0  0  0
    5.7939    5.3670    0.1829 C   0  0  0  0  0  0  0  0  0  0  0  0
    4.9191    5.2422   -0.9076 C   0  0  0  0  0  0  0  0  0  0  0  0
    3.5357    2.2725   -0.9415 C   0  0  0  0  0  0  0  0  0  0  0  0
    3.2266    1.8595    0.5039 C   0  0  0  0  0  0  0  0  0  0  0  0
    2.6133   -2.6367   -0.2781 H   0  0  0  0  0  0  0  0  0  0  0  0
    3.2047   -2.2658    1.3652 H   0  0  0  0  0  0  0  0  0  0  0  0
    4.2956   -2.1552   -0.0485 H   0  0  0  0  0  0  0  0  0  0  0  0
    1.0007   -1.1710   -0.6405 H   0  0  0  0  0  0  0  0  0  0  0  0
    1.1618    0.5536   -0.4390 H   0  0  0  0  0  0  0  0  0  0  0  0
   -1.1313    1.7807    2.8639 H   0  0  0  0  0  0  0  0  0  0  0  0
   -0.2833    0.5372    3.8298 H   0  0  0  0  0  0  0  0  0  0  0  0
   -2.0255    0.8388    4.0833 H   0  0  0  0  0  0  0  0  0  0  0  0
   -2.8160    1.0982    1.0998 H   0  0  0  0  0  0  0  0  0  0  0  0
   -3.7257    0.1147    2.2816 H   0  0  0  0  0  0  0  0  0  0  0  0
   -3.1225   -0.6276    0.7728 H   0  0  0  0  0  0  0  0  0  0  0  0
   -0.7250   -1.9497    3.3588 H   0  0  0  0  0  0  0  0  0  0  0  0
   -1.8761   -2.4108    2.0701 H   0  0  0  0  0  0  0  0  0  0  0  0
   -2.4803   -1.7228    3.5984 H   0  0  0  0  0  0  0  0  0  0  0  0
    3.5354    0.2443    1.9039 H   0  0  0  0  0  0  0  0  0  0  0  0
    5.5593   -0.6835    0.6605 H   0  0  0  0  0  0  0  0  0  0  0  0
    5.7034    1.0002    1.1532 H   0  0  0  0  0  0  0  0  0  0  0  0
    4.9514    0.0177   -1.6622 H   0  0  0  0  0  0  0  0  0  0  0  0
    6.5207    0.7247   -1.1905 H   0  0  0  0  0  0  0  0  0  0  0  0
    6.2246    4.8719   -2.5485 H   0  0  0  0  0  0  0  0  0  0  0  0
    5.3548    3.2701   -4.5991 H   0  0  0  0  0  0  0  0  0  0  0  0
    3.6327    3.3677   -6.3947 H   0  0  0  0  0  0  0  0  0  0  0  0
    1.5198    4.6573   -6.0159 H   0  0  0  0  0  0  0  0  0  0  0  0
    1.1658    5.8346   -3.8282 H   0  0  0  0  0  0  0  0  0  0  0  0
    2.3765    7.1989    0.2673 H   0  0  0  0  0  0  0  0  0  0  0  0
    3.9520    7.3979    2.2103 H   0  0  0  0  0  0  0  0  0  0  0  0
    6.1565    6.2122    2.1373 H   0  0  0  0  0  0  0  0  0  0  0  0
    6.7574    4.8512    0.1399 H   0  0  0  0  0  0  0  0  0  0  0  0
    2.9285    1.6724   -1.6436 H   0  0  0  0  0  0  0  0  0  0  0  0
    3.2555    3.3176   -1.0886 H   0  0  0  0  0  0  0  0  0  0  0  0
    2.1596    2.0284    0.7134 H   0  0  0  0  0  0  0  0  0  0  0  0
    3.7772    2.5259    1.1871 H   0  0  0  0  0  0  0  0  0  0  0  0
  1  2  1  0
  1 33  1  0
  1 34  1  0
  1 35  1  0
  2  3  1  0
  2 11  1  0
  3  4  1  0
  3 36  1  0
  3 37  1  0
  4  5  2  0
  4  6  1  0
  7  6  1  6
  7  8  1  0
  7  9  1  0
  7 10  1  0
  8 38  1  0
  8 39  1  0
  8 40  1  0
  9 41  1  0
  9 42  1  0
  9 43  1  0
 10 44  1  0
 10 45  1  0
 10 46  1  0
 11 12  1  0
 11 32  1  0
 11 47  1  1
 12 13  1  0
 12 48  1  0
 12 49  1  0
 13 14  1  0
 13 50  1  0
 13 51  1  0
 14 15  1  0
 14 31  1  0
 15 16  2  0
 15 17  1  0
 17 18  1  0
 17 30  1  0
 17 52  1  6
 18 19  2  0
 18 23  1  0
 19 20  1  0
 19 53  1  0
 20 21  2  0
 20 54  1  0
 21 22  1  0
 21 55  1  0
 22 23  2  0
 22 56  1  0
 23 24  1  0
 24 25  1  0
 25 26  2  0
 25 30  1  0
 26 27  1  0
 26 57  1  0
 27 28  2  0
 27 58  1  0
 28 29  1  0
 28 59  1  0
 29 30  2  0
 29 60  1  0
 31 32  1  0
 31 61  1  0
 31 62  1  0
 32 63  1  0
 32 64  1  0
M  END

