
     RDKit          3D

 27 27  0  0  0  0  0  0  0  0999 V2000
    0.8377    1.8120   -1.6956 C   0  0  0  0  0  0  0  0  0  0  0  0
    2.2395    2.3537   -1.4153 C   0  0  0  0  0  0  0  0  0  0  0  0
    3.3073    1.2596   -1.1867 C   0  0  1  0  0  0  0  0  0  0  0  0
    3.4879    0.3157   -2.2830 N   0  0  0  0  0  0  0  0  0  0  0  0
    4.6643    1.8543   -0.7887 C   0  0  0  0  0  0  0  0  0  0  0  0
    5.4606    2.8605   -2.1174 S   0  0  0  0  0  0  0  0  0  0  0  0
    6.8872    1.8617   -2.4537 C   0  0  0  0  0  0  0  0  0  0  0  0
    7.4026    0.9349   -1.6793 N   0  0  0  0  0  0  0  0  0  0  0  0
    8.5101    0.4712   -2.3449 C   0  0  0  0  0  0  0  0  0  0  0  0
    8.6690    1.1402   -3.5343 C   0  0  0  0  0  0  0  0  0  0  0  0
    7.6117    2.0340   -3.6070 N   0  0  0  0  0  0  0  0  0  0  0  0
    7.3542    2.9838   -4.6706 C   0  0  0  0  0  0  0  0  0  0  0  0
    0.1128    2.6288   -1.8383 H   0  0  0  0  0  0  0  0  0  0  0  0
    0.4733    1.1855   -0.8636 H   0  0  0  0  0  0  0  0  0  0  0  0
    0.8180    1.1962   -2.6097 H   0  0  0  0  0  0  0  0  0  0  0  0
    2.2062    3.0072   -0.5247 H   0  0  0  0  0  0  0  0  0  0  0  0
    2.5644    2.9935   -2.2565 H   0  0  0  0  0  0  0  0  0  0  0  0
    2.9875    0.6692   -0.3052 H   0  0  0  0  0  0  0  0  0  0  0  0
    3.8016    0.8129   -3.1186 H   0  0  0  0  0  0  0  0  0  0  0  0
    2.6113   -0.1462   -2.5189 H   0  0  0  0  0  0  0  0  0  0  0  0
    5.3922    1.0664   -0.5504 H   0  0  0  0  0  0  0  0  0  0  0  0
    4.5572    2.5210    0.0791 H   0  0  0  0  0  0  0  0  0  0  0  0
    9.1341   -0.3210   -1.9330 H   0  0  0  0  0  0  0  0  0  0  0  0
    9.4127    1.0687   -4.3243 H   0  0  0  0  0  0  0  0  0  0  0  0
    7.7813    2.6059   -5.6100 H   0  0  0  0  0  0  0  0  0  0  0  0
    7.7939    3.9717   -4.4534 H   0  0  0  0  0  0  0  0  0  0  0  0
    6.2692    3.1068   -4.8022 H   0  0  0  0  0  0  0  0  0  0  0  0
  1  2  1  0
  1 13  1  0
  1 14  1  0
  1 15  1  0
  2  3  1  0
  2 16  1  0
  2 17  1  0
  3  4  1  0
  3  5  1  0
  3 18  1  1
  4 19  1  0
  4 20  1  0
  5  6  1  0
  5 21  1  0
  5 22  1  0
  6  7  1  0
  7  8  2  0
  7 11  1  0
  8  9  1  0
  9 10  2  0
  9 23  1  0
 10 11  1  0
 10 24  1  0
 11 12  1  0
 12 25  1  0
 12 26  1  0
 12 27  1  0
M  END

