
     RDKit          3D

 21 22  0  0  0  0  0  0  0  0999 V2000
    1.0362   -0.2011    0.0441 O   0  0  0  0  0  0  0  0  0  0  0  0
    2.4805    0.1563    0.0160 S   0  0  1  0  0  0  0  0  0  0  0  0
    2.7993    1.5825   -0.1016 O   0  0  0  0  0  0  0  0  0  0  0  0
    3.2823   -0.6250    0.9967 O   0  0  0  0  0  0  0  0  0  0  0  0
    3.0043   -0.6092   -1.5569 C   0  0  0  0  0  0  0  0  0  0  0  0
    3.5807    0.1734   -2.5612 C   0  0  0  0  0  0  0  0  0  0  0  0
    3.9782   -0.4141   -3.7611 C   0  0  0  0  0  0  0  0  0  0  0  0
    3.8093   -1.7992   -3.9867 C   0  0  0  0  0  0  0  0  0  0  0  0
    3.2408   -2.5944   -3.0060 C   0  0  0  0  0  0  0  0  0  0  0  0
    3.0585   -4.0603   -3.2361 C   0  0  0  0  0  0  0  0  0  0  0  0
    3.3942   -4.6087   -4.2732 O   0  0  0  0  0  0  0  0  0  0  0  0
    2.4409   -4.8392   -2.1324 C   0  0  0  0  0  0  0  0  0  0  0  0
    2.0626   -4.2405   -0.9700 C   0  0  0  0  0  0  0  0  0  0  0  0
    2.2488   -2.8323   -0.7730 C   0  0  0  0  0  0  0  0  0  0  0  0
    2.8245   -2.0129   -1.7635 C   0  0  0  0  0  0  0  0  0  0  0  0
    3.7040    1.2420   -2.3721 H   0  0  0  0  0  0  0  0  0  0  0  0
    4.4282    0.2035   -4.5429 H   0  0  0  0  0  0  0  0  0  0  0  0
    4.1202   -2.2606   -4.9262 H   0  0  0  0  0  0  0  0  0  0  0  0
    2.3128   -5.9090   -2.3132 H   0  0  0  0  0  0  0  0  0  0  0  0
    1.6094   -4.8217   -0.1636 H   0  0  0  0  0  0  0  0  0  0  0  0
    1.9387   -2.3764    0.1682 H   0  0  0  0  0  0  0  0  0  0  0  0
  2  1  1  1
  2  3  1  0
  2  4  1  0
  2  5  2  0
  5  6  1  0
  5 15  1  0
  6  7  2  0
  6 16  1  0
  7  8  1  0
  7 17  1  0
  8  9  2  0
  8 18  1  0
  9 10  1  0
  9 15  1  0
 10 11  2  0
 10 12  1  0
 12 13  2  0
 12 19  1  0
 13 14  1  0
 13 20  1  0
 14 15  2  0
 14 21  1  0
M  CHG  4   1  -1   2   3   3  -1   4  -1
M  END

