
     RDKit          3D

 47 49  0  0  0  0  0  0  0  0999 V2000
    1.5753    1.2159    0.1325 C   0  0  0  0  0  0  0  0  0  0  0  0
    2.0044   -0.0836   -0.1850 O   0  0  0  0  0  0  0  0  0  0  0  0
    2.7878   -0.2725   -1.2884 C   0  0  0  0  0  0  0  0  0  0  0  0
    3.2321    0.7549   -2.1289 C   0  0  0  0  0  0  0  0  0  0  0  0
    4.0209    0.4973   -3.2621 C   0  0  0  0  0  0  0  0  0  0  0  0
    4.3984   -0.8352   -3.5764 C   0  0  0  0  0  0  0  0  0  0  0  0
    3.9330   -1.8535   -2.7248 C   0  0  0  0  0  0  0  0  0  0  0  0
    3.1503   -1.5981   -1.5962 C   0  0  0  0  0  0  0  0  0  0  0  0
    2.6953   -2.6630   -0.8600 O   0  0  0  0  0  0  0  0  0  0  0  0
    3.2113   -2.7922    0.4527 C   0  0  0  0  0  0  0  0  0  0  0  0
    5.2253   -1.0827   -4.6925 N   0  0  0  0  0  0  0  0  0  0  0  0
    5.6612   -2.4311   -4.9859 C   0  0  0  0  0  0  0  0  0  0  0  0
    4.7541   -3.2877   -5.8673 C   0  0  0  0  0  0  0  0  0  0  0  0
    5.2855   -4.4282   -6.4930 C   0  0  0  0  0  0  0  0  0  0  0  0
    4.4743   -5.2421   -7.2827 C   0  0  0  0  0  0  0  0  0  0  0  0
    3.1230   -4.9270   -7.4633 C   0  0  0  0  0  0  0  0  0  0  0  0
    2.5689   -3.7931   -6.8551 C   0  0  0  0  0  0  0  0  0  0  0  0
    1.1129   -3.4353   -7.0344 C   0  0  0  0  0  0  0  0  0  0  0  0
    3.4019   -2.9853   -6.0605 C   0  0  0  0  0  0  0  0  0  0  0  0
    5.3109   -0.0398   -5.7213 C   0  0  2  0  0  0  0  0  0  0  0  0
    6.4425   -0.2645   -6.7238 C   0  0  0  0  0  0  0  0  0  0  0  0
    5.4902    1.3170   -5.0254 C   0  0  0  0  0  0  0  0  0  0  0  0
    4.3971    1.5407   -4.1104 N   0  0  0  0  0  0  0  0  0  0  0  0
    0.9502    1.1317    1.0324 H   0  0  0  0  0  0  0  0  0  0  0  0
    0.9710    1.6622   -0.6791 H   0  0  0  0  0  0  0  0  0  0  0  0
    2.4222    1.8934    0.3516 H   0  0  0  0  0  0  0  0  0  0  0  0
    2.9587    1.7909   -1.9235 H   0  0  0  0  0  0  0  0  0  0  0  0
    4.1446   -2.9022   -2.9277 H   0  0  0  0  0  0  0  0  0  0  0  0
    2.7818   -3.7124    0.8754 H   0  0  0  0  0  0  0  0  0  0  0  0
    2.9301   -1.9386    1.0910 H   0  0  0  0  0  0  0  0  0  0  0  0
    4.3139   -2.8864    0.4448 H   0  0  0  0  0  0  0  0  0  0  0  0
    5.8245   -2.9510   -4.0279 H   0  0  0  0  0  0  0  0  0  0  0  0
    6.6577   -2.3967   -5.4513 H   0  0  0  0  0  0  0  0  0  0  0  0
    6.3431   -4.6774   -6.3600 H   0  0  0  0  0  0  0  0  0  0  0  0
    4.8956   -6.1275   -7.7665 H   0  0  0  0  0  0  0  0  0  0  0  0
    2.4932   -5.5694   -8.0854 H   0  0  0  0  0  0  0  0  0  0  0  0
    0.5909   -4.1657   -7.6702 H   0  0  0  0  0  0  0  0  0  0  0  0
    0.9986   -2.4414   -7.4988 H   0  0  0  0  0  0  0  0  0  0  0  0
    0.5897   -3.3962   -6.0644 H   0  0  0  0  0  0  0  0  0  0  0  0
    2.9795   -2.1023   -5.5748 H   0  0  0  0  0  0  0  0  0  0  0  0
    4.3598    0.0142   -6.2915 H   0  0  0  0  0  0  0  0  0  0  0  0
    7.4223   -0.3258   -6.2231 H   0  0  0  0  0  0  0  0  0  0  0  0
    6.4739    0.5822   -7.4265 H   0  0  0  0  0  0  0  0  0  0  0  0
    6.2956   -1.1765   -7.3193 H   0  0  0  0  0  0  0  0  0  0  0  0
    5.4907    2.1167   -5.7842 H   0  0  0  0  0  0  0  0  0  0  0  0
    6.4860    1.3241   -4.5317 H   0  0  0  0  0  0  0  0  0  0  0  0
    4.3498    2.4658   -3.7002 H   0  0  0  0  0  0  0  0  0  0  0  0
  1  2  1  0
  1 24  1  0
  1 25  1  0
  1 26  1  0
  2  3  1  0
  3  4  2  0
  3  8  1  0
  4  5  1  0
  4 27  1  0
  5  6  2  0
  5 23  1  0
  6  7  1  0
  6 11  1  0
  7  8  2  0
  7 28  1  0
  8  9  1  0
  9 10  1  0
 10 29  1  0
 10 30  1  0
 10 31  1  0
 11 12  1  0
 11 20  1  0
 12 13  1  0
 12 32  1  0
 12 33  1  0
 13 14  2  0
 13 19  1  0
 14 15  1  0
 14 34  1  0
 15 16  2  0
 15 35  1  0
 16 17  1  0
 16 36  1  0
 17 18  1  0
 17 19  2  0
 18 37  1  0
 18 38  1  0
 18 39  1  0
 19 40  1  0
 20 21  1  0
 20 22  1  0
 20 41  1  6
 21 42  1  0
 21 43  1  0
 21 44  1  0
 22 23  1  0
 22 45  1  0
 22 46  1  0
 23 47  1  0
M  END

