
     RDKit          3D

 40 42  0  0  0  0  0  0  0  0999 V2000
    2.8718   -1.0471    0.0366 C   0  0  0  0  0  0  0  0  0  0  0  0
    2.2489    0.1188    0.5271 O   0  0  0  0  0  0  0  0  0  0  0  0
    3.0085    1.0940    1.0847 C   0  0  0  0  0  0  0  0  0  0  0  0
    4.4036    1.0390    1.2189 C   0  0  0  0  0  0  0  0  0  0  0  0
    5.0855    2.1108    1.8072 C   0  0  0  0  0  0  0  0  0  0  0  0
    4.4093    3.2420    2.2750 C   0  0  0  0  0  0  0  0  0  0  0  0
    5.1665    4.3640    2.9488 C   0  0  1  0  0  0  0  0  0  0  0  0
    6.2312    4.3022    2.6501 H   0  0  0  0  0  0  0  0  0  0  0  0
    4.6368    5.6971    2.6779 N   0  0  0  0  0  0  0  0  0  0  0  0
    4.8015    6.5514    3.7361 C   0  0  0  0  0  0  0  0  0  0  0  0
    4.5523    8.1917    3.7375 S   0  0  0  0  0  0  0  0  0  0  0  0
    5.2136    5.7835    4.7928 N   0  0  0  0  0  0  0  0  0  0  0  0
    5.1129    4.3538    4.5184 C   0  0  2  0  0  0  0  0  0  0  0  0
    4.1173    3.9713    4.8174 H   0  0  0  0  0  0  0  0  0  0  0  0
    6.1753    3.5120    5.1894 C   0  0  0  0  0  0  0  0  0  0  0  0
    5.8810    2.2066    5.6201 C   0  0  0  0  0  0  0  0  0  0  0  0
    6.8559    1.4029    6.2016 C   0  0  0  0  0  0  0  0  0  0  0  0
    8.1634    1.8892    6.3767 C   0  0  0  0  0  0  0  0  0  0  0  0
    9.0456    1.0382    6.9576 O   0  0  0  0  0  0  0  0  0  0  0  0
   10.3729    1.4604    7.1780 C   0  0  0  0  0  0  0  0  0  0  0  0
    8.4708    3.1937    5.9584 C   0  0  0  0  0  0  0  0  0  0  0  0
    7.4797    3.9867    5.3704 C   0  0  0  0  0  0  0  0  0  0  0  0
    3.0099    3.2836    2.1315 C   0  0  0  0  0  0  0  0  0  0  0  0
    2.3180    2.2307    1.5450 C   0  0  0  0  0  0  0  0  0  0  0  0
    2.0719   -1.6849   -0.3630 H   0  0  0  0  0  0  0  0  0  0  0  0
    3.4023   -1.5975    0.8347 H   0  0  0  0  0  0  0  0  0  0  0  0
    3.5874   -0.8214   -0.7747 H   0  0  0  0  0  0  0  0  0  0  0  0
    4.9700    0.1768    0.8666 H   0  0  0  0  0  0  0  0  0  0  0  0
    6.1739    2.0568    1.8999 H   0  0  0  0  0  0  0  0  0  0  0  0
    4.5875    6.0838    1.7427 H   0  0  0  0  0  0  0  0  0  0  0  0
    5.1472    6.1653    5.7289 H   0  0  0  0  0  0  0  0  0  0  0  0
    4.8678    1.8139    5.4979 H   0  0  0  0  0  0  0  0  0  0  0  0
    6.6299    0.3894    6.5391 H   0  0  0  0  0  0  0  0  0  0  0  0
   10.8931    0.6200    7.6571 H   0  0  0  0  0  0  0  0  0  0  0  0
   10.4202    2.3378    7.8479 H   0  0  0  0  0  0  0  0  0  0  0  0
   10.8891    1.7074    6.2326 H   0  0  0  0  0  0  0  0  0  0  0  0
    9.4723    3.6043    6.0878 H   0  0  0  0  0  0  0  0  0  0  0  0
    7.7270    5.0038    5.0562 H   0  0  0  0  0  0  0  0  0  0  0  0
    2.4623    4.1644    2.4757 H   0  0  0  0  0  0  0  0  0  0  0  0
    1.2331    2.2610    1.4248 H   0  0  0  0  0  0  0  0  0  0  0  0
  1  2  1  0
  1 25  1  0
  1 26  1  0
  1 27  1  0
  2  3  1  0
  3  4  2  0
  3 24  1  0
  4  5  1  0
  4 28  1  0
  5  6  2  0
  5 29  1  0
  6  7  1  0
  6 23  1  0
  7  8  1  1
  7  9  1  0
  7 13  1  0
  9 10  1  0
  9 30  1  0
 10 11  2  0
 10 12  1  0
 12 13  1  0
 12 31  1  0
 13 14  1  6
 13 15  1  0
 15 16  2  0
 15 22  1  0
 16 17  1  0
 16 32  1  0
 17 18  2  0
 17 33  1  0
 18 19  1  0
 18 21  1  0
 19 20  1  0
 20 34  1  0
 20 35  1  0
 20 36  1  0
 21 22  2  0
 21 37  1  0
 22 38  1  0
 23 24  2  0
 23 39  1  0
 24 40  1  0
M  END

