
     RDKit          3D

 50 53  0  0  0  0  0  0  0  0999 V2000
    1.6888    0.3778    0.8649 O   0  0  0  0  0  0  0  0  0  0  0  0
    2.7382    0.1318    0.3001 C   0  0  0  0  0  0  0  0  0  0  0  0
    3.5710   -0.8705    0.6607 O   0  0  0  0  0  0  0  0  0  0  0  0
    3.1544   -1.7095    1.7586 C   0  0  0  0  0  0  0  0  0  0  0  0
    2.3699   -2.9128    1.2922 C   0  0  0  0  0  0  0  0  0  0  0  0
    3.0193   -4.1319    1.0464 C   0  0  0  0  0  0  0  0  0  0  0  0
    2.3021   -5.2456    0.6010 C   0  0  0  0  0  0  0  0  0  0  0  0
    0.9228   -5.1507    0.3944 C   0  0  0  0  0  0  0  0  0  0  0  0
    0.2659   -3.9394    0.6352 C   0  0  0  0  0  0  0  0  0  0  0  0
    0.9835   -2.8268    1.0816 C   0  0  0  0  0  0  0  0  0  0  0  0
    3.2145    0.8277   -0.7817 N   0  0  0  0  0  0  0  0  0  0  0  0
    2.4392    1.9637   -1.2759 C   0  0  0  0  0  0  0  0  0  0  0  0
    3.1048    3.3070   -0.9151 C   0  0  0  0  0  0  0  0  0  0  0  0
    4.5604    3.1434   -1.1880 C   0  0  0  0  0  0  0  0  0  0  0  0
    5.2313    1.9619   -1.4092 C   0  0  0  0  0  0  0  0  0  0  0  0
    6.5748    2.1811   -1.6058 N   0  0  0  0  0  0  0  0  0  0  0  0
    6.7538    3.4761   -1.5118 C   0  0  0  0  0  0  0  0  0  0  0  0
    5.5564    4.0948   -1.2581 N   0  0  0  0  0  0  0  0  0  0  0  0
    5.3969    5.4418   -1.0174 O   0  0  0  0  0  0  0  0  0  0  0  0
    5.0105    6.1742   -2.1083 C   0  0  0  0  0  0  0  0  0  0  0  0
    4.7873    5.7587   -3.1969 O   0  0  0  0  0  0  0  0  0  0  0  0
    4.9024    7.6556   -1.6690 C   0  0  1  0  0  0  0  0  0  0  0  0
    3.9914    7.7810   -0.7004 F   0  0  0  0  0  0  0  0  0  0  0  0
    6.0794    8.0881   -1.2103 F   0  0  0  0  0  0  0  0  0  0  0  0
    4.5401    8.3998   -2.7038 F   0  0  0  0  0  0  0  0  0  0  0  0
    4.5449    0.6138   -1.3729 C   0  0  2  0  0  0  0  0  0  0  0  0
    4.4907   -0.1175   -2.7252 C   0  0  0  0  0  0  0  0  0  0  0  0
    5.5991   -0.0989   -3.5877 C   0  0  0  0  0  0  0  0  0  0  0  0
    5.5739   -0.8076   -4.7915 C   0  0  0  0  0  0  0  0  0  0  0  0
    4.4437   -1.5462   -5.1550 C   0  0  0  0  0  0  0  0  0  0  0  0
    3.3397   -1.5740   -4.3000 C   0  0  0  0  0  0  0  0  0  0  0  0
    3.3650   -0.8678   -3.0929 C   0  0  0  0  0  0  0  0  0  0  0  0
    2.5658   -1.1024    2.4594 H   0  0  0  0  0  0  0  0  0  0  0  0
    4.0916   -2.0212    2.2395 H   0  0  0  0  0  0  0  0  0  0  0  0
    4.0985   -4.2101    1.2077 H   0  0  0  0  0  0  0  0  0  0  0  0
    2.8211   -6.1897    0.4160 H   0  0  0  0  0  0  0  0  0  0  0  0
    0.3593   -6.0211    0.0479 H   0  0  0  0  0  0  0  0  0  0  0  0
   -0.8130   -3.8615    0.4769 H   0  0  0  0  0  0  0  0  0  0  0  0
    0.4778   -1.8754    1.2610 H   0  0  0  0  0  0  0  0  0  0  0  0
    1.4339    1.8975   -0.8459 H   0  0  0  0  0  0  0  0  0  0  0  0
    2.3610    1.8801   -2.3726 H   0  0  0  0  0  0  0  0  0  0  0  0
    2.9248    3.5533    0.1466 H   0  0  0  0  0  0  0  0  0  0  0  0
    2.6585    4.1157   -1.5183 H   0  0  0  0  0  0  0  0  0  0  0  0
    7.6867    4.0311   -1.6030 H   0  0  0  0  0  0  0  0  0  0  0  0
    5.1036   -0.0286   -0.6783 H   0  0  0  0  0  0  0  0  0  0  0  0
    6.4854    0.4739   -3.3087 H   0  0  0  0  0  0  0  0  0  0  0  0
    6.4459   -0.7808   -5.4506 H   0  0  0  0  0  0  0  0  0  0  0  0
    4.4249   -2.0982   -6.0983 H   0  0  0  0  0  0  0  0  0  0  0  0
    2.4507   -2.1506   -4.5690 H   0  0  0  0  0  0  0  0  0  0  0  0
    2.4983   -0.9045   -2.4305 H   0  0  0  0  0  0  0  0  0  0  0  0
  1  2  2  0
  2  3  1  0
  2 11  1  0
  3  4  1  0
  4  5  1  0
  4 33  1  0
  4 34  1  0
  5  6  2  0
  5 10  1  0
  6  7  1  0
  6 35  1  0
  7  8  2  0
  7 36  1  0
  8  9  1  0
  8 37  1  0
  9 10  2  0
  9 38  1  0
 10 39  1  0
 11 12  1  0
 11 26  1  0
 12 13  1  0
 12 40  1  0
 12 41  1  0
 13 14  1  0
 13 42  1  0
 13 43  1  0
 14 15  2  0
 14 18  1  0
 15 16  1  0
 15 26  1  0
 16 17  2  0
 17 18  1  0
 17 44  1  0
 18 19  1  0
 19 20  1  0
 20 21  2  0
 20 22  1  0
 22 23  1  1
 22 24  1  0
 22 25  1  0
 26 27  1  0
 26 45  1  1
 27 28  2  0
 27 32  1  0
 28 29  1  0
 28 46  1  0
 29 30  2  0
 29 47  1  0
 30 31  1  0
 30 48  1  0
 31 32  2  0
 31 49  1  0
 32 50  1  0
M  END

