
     RDKit          3D

 34 34  0  0  0  0  0  0  0  0999 V2000
    0.9091    0.2430    0.3985 C   0  0  0  0  0  0  0  0  0  0  0  0
    2.4322    0.1519    0.2942 C   0  0  0  0  0  0  0  0  0  0  0  0
    2.9323   -1.2735    0.0424 C   0  0  0  0  0  0  0  0  0  0  0  0
    4.4551   -1.3723   -0.0537 C   0  0  1  0  0  0  0  0  0  0  0  0
    5.1584   -0.8777    1.0766 O   0  0  0  0  0  0  0  0  0  0  0  0
    4.9122   -1.5361    2.3003 C   0  0  0  0  0  0  0  0  0  0  0  0
    4.9472   -2.7832   -0.4336 C   0  0  0  0  0  0  0  0  0  0  0  0
    4.1668   -3.6694   -0.7278 O   0  0  0  0  0  0  0  0  0  0  0  0
    6.4567   -2.9955   -0.4994 C   0  0  0  0  0  0  0  0  0  0  0  0
    6.9758   -2.8890   -1.9220 C   0  0  0  0  0  0  0  0  0  0  0  0
    7.7575   -1.7973   -2.3170 C   0  0  0  0  0  0  0  0  0  0  0  0
    8.3028   -1.6347   -3.5240 N   0  0  0  0  0  0  0  0  0  0  0  0
    8.0801   -2.6081   -4.4132 C   0  0  0  0  0  0  0  0  0  0  0  0
    7.3195   -3.7433   -4.1510 C   0  0  0  0  0  0  0  0  0  0  0  0
    6.7272   -3.9088   -2.8812 C   0  0  0  0  0  0  0  0  0  0  0  0
    5.9896   -5.0227   -2.5661 N   0  0  0  0  0  0  0  0  0  0  0  0
    0.5783    1.2789    0.5744 H   0  0  0  0  0  0  0  0  0  0  0  0
    0.5259   -0.3737    1.2290 H   0  0  0  0  0  0  0  0  0  0  0  0
    0.4207   -0.1108   -0.5249 H   0  0  0  0  0  0  0  0  0  0  0  0
    2.8963    0.5459    1.2141 H   0  0  0  0  0  0  0  0  0  0  0  0
    2.7885    0.8086   -0.5200 H   0  0  0  0  0  0  0  0  0  0  0  0
    2.5147   -1.6646   -0.8993 H   0  0  0  0  0  0  0  0  0  0  0  0
    2.5604   -1.9571    0.8250 H   0  0  0  0  0  0  0  0  0  0  0  0
    4.7986   -0.7232   -0.8818 H   0  0  0  0  0  0  0  0  0  0  0  0
    5.6178   -1.1208    3.0343 H   0  0  0  0  0  0  0  0  0  0  0  0
    5.0805   -2.6295    2.2367 H   0  0  0  0  0  0  0  0  0  0  0  0
    3.8855   -1.3694    2.6738 H   0  0  0  0  0  0  0  0  0  0  0  0
    6.6656   -4.0030   -0.0998 H   0  0  0  0  0  0  0  0  0  0  0  0
    6.9599   -2.2501    0.1299 H   0  0  0  0  0  0  0  0  0  0  0  0
    7.9594   -1.0059   -1.5824 H   0  0  0  0  0  0  0  0  0  0  0  0
    8.5307   -2.4783   -5.4051 H   0  0  0  0  0  0  0  0  0  0  0  0
    7.1717   -4.4992   -4.9274 H   0  0  0  0  0  0  0  0  0  0  0  0
    5.7452   -5.6373   -3.3331 H   0  0  0  0  0  0  0  0  0  0  0  0
    5.2665   -4.9178   -1.8554 H   0  0  0  0  0  0  0  0  0  0  0  0
  1  2  1  0
  1 17  1  0
  1 18  1  0
  1 19  1  0
  2  3  1  0
  2 20  1  0
  2 21  1  0
  3  4  1  0
  3 22  1  0
  3 23  1  0
  4  5  1  0
  4  7  1  0
  4 24  1  6
  5  6  1  0
  6 25  1  0
  6 26  1  0
  6 27  1  0
  7  8  2  0
  7  9  1  0
  9 10  1  0
  9 28  1  0
  9 29  1  0
 10 11  2  0
 10 15  1  0
 11 12  1  0
 11 30  1  0
 12 13  2  0
 13 14  1  0
 13 31  1  0
 14 15  2  0
 14 32  1  0
 15 16  1  0
 16 33  1  0
 16 34  1  0
M  END

