
     RDKit          3D

 36 38  0  0  0  0  0  0  0  0999 V2000
    0.0707    1.6008   -0.9615 C   0  0  0  0  0  0  0  0  0  0  0  0
    1.5186    1.6267   -0.9672 N   0  0  0  0  0  0  0  0  0  0  0  0
    2.3378    2.7144   -0.9783 C   0  0  0  0  0  0  0  0  0  0  0  0
    3.6451    2.2442   -1.0033 C   0  0  0  0  0  0  0  0  0  0  0  0
    4.9199    3.0376   -0.9879 C   0  0  0  0  0  0  0  0  0  0  0  0
    5.5176    3.1837    0.4282 C   0  0  0  0  0  0  0  0  0  0  0  0
    6.7557    3.9392    0.4656 N   0  0  0  0  0  0  0  0  0  0  0  0
    6.8576    5.2999    0.6871 C   0  0  0  0  0  0  0  0  0  0  0  0
    8.1656    5.7066    0.5768 C   0  0  0  0  0  0  0  0  0  0  0  0
    8.9385    4.5354    0.2600 C   0  0  0  0  0  0  0  0  0  0  0  0
   10.3160    4.2998    0.0344 C   0  0  0  0  0  0  0  0  0  0  0  0
   11.3136    5.4394    0.0825 C   0  0  0  0  0  0  0  0  0  0  0  0
   12.6559    5.0311    0.2258 O   0  0  0  0  0  0  0  0  0  0  0  0
   10.7185    2.9976   -0.2574 C   0  0  0  0  0  0  0  0  0  0  0  0
    9.7943    1.9322   -0.3185 C   0  0  0  0  0  0  0  0  0  0  0  0
    8.4365    2.1373   -0.0973 C   0  0  0  0  0  0  0  0  0  0  0  0
    8.0200    3.4469    0.1919 C   0  0  0  0  0  0  0  0  0  0  0  0
    3.4844    0.8329   -1.0014 C   0  0  0  0  0  0  0  0  0  0  0  0
    2.2033    0.4760   -0.9820 N   0  0  0  0  0  0  0  0  0  0  0  0
   -0.3094    2.6304   -0.9258 H   0  0  0  0  0  0  0  0  0  0  0  0
   -0.2959    1.0490   -0.0828 H   0  0  0  0  0  0  0  0  0  0  0  0
   -0.3078    1.1067   -1.8693 H   0  0  0  0  0  0  0  0  0  0  0  0
    1.9413    3.7286   -0.9792 H   0  0  0  0  0  0  0  0  0  0  0  0
    4.7473    4.0445   -1.4014 H   0  0  0  0  0  0  0  0  0  0  0  0
    5.6698    2.5595   -1.6391 H   0  0  0  0  0  0  0  0  0  0  0  0
    5.6976    2.1875    0.8627 H   0  0  0  0  0  0  0  0  0  0  0  0
    4.7910    3.6836    1.0873 H   0  0  0  0  0  0  0  0  0  0  0  0
    5.9664    5.8811    0.9201 H   0  0  0  0  0  0  0  0  0  0  0  0
    8.5257    6.7240    0.7115 H   0  0  0  0  0  0  0  0  0  0  0  0
   11.0167    6.1512    0.8801 H   0  0  0  0  0  0  0  0  0  0  0  0
   11.2705    6.0081   -0.8636 H   0  0  0  0  0  0  0  0  0  0  0  0
   12.7195    4.5144    1.0407 H   0  0  0  0  0  0  0  0  0  0  0  0
   11.7772    2.8083   -0.4458 H   0  0  0  0  0  0  0  0  0  0  0  0
   10.1547    0.9263   -0.5489 H   0  0  0  0  0  0  0  0  0  0  0  0
    7.7287    1.3073   -0.1485 H   0  0  0  0  0  0  0  0  0  0  0  0
    4.2610    0.0670   -1.0232 H   0  0  0  0  0  0  0  0  0  0  0  0
  1  2  1  0
  1 20  1  0
  1 21  1  0
  1 22  1  0
  2  3  1  0
  2 19  1  0
  3  4  2  0
  3 23  1  0
  4  5  1  0
  4 18  1  0
  5  6  1  0
  5 24  1  0
  5 25  1  0
  6  7  1  0
  6 26  1  0
  6 27  1  0
  7  8  1  0
  7 17  1  0
  8  9  2  0
  8 28  1  0
  9 10  1  0
  9 29  1  0
 10 11  1  0
 10 17  2  0
 11 12  1  0
 11 14  2  0
 12 13  1  0
 12 30  1  0
 12 31  1  0
 13 32  1  0
 14 15  1  0
 14 33  1  0
 15 16  2  0
 15 34  1  0
 16 17  1  0
 16 35  1  0
 18 19  2  0
 18 36  1  0
M  END

