
     RDKit          3D

 45 47  0  0  0  0  0  0  0  0999 V2000
    1.1223   -0.0810    0.2745 C   0  0  0  0  0  0  0  0  0  0  0  0
    2.6329   -0.0493    0.0084 C   0  0  1  0  0  0  0  0  0  0  0  0
    3.2157   -1.4024   -0.4636 C   0  0  0  0  0  0  0  0  0  0  0  0
    2.8814   -1.7442   -1.9229 C   0  0  0  0  0  0  0  0  0  0  0  0
    3.2488   -0.5883   -2.8736 C   0  0  2  0  0  0  0  0  0  0  0  0
    4.7741   -0.5513   -3.1281 C   0  0  0  0  0  0  0  0  0  0  0  0
    5.3772   -1.5761   -3.3280 O   0  0  0  0  0  0  0  0  0  0  0  0
    5.3971    0.6288   -3.1906 O   0  0  0  0  0  0  0  0  0  0  0  0
    2.6127    0.7067   -2.3618 C   0  0  0  0  0  0  0  0  0  0  0  0
    3.0026    0.9885   -0.9762 N   0  0  0  0  0  0  0  0  0  0  0  0
    3.8716    2.0131   -0.7433 C   0  0  0  0  0  0  0  0  0  0  0  0
    4.3759    2.6478   -1.6773 O   0  0  0  0  0  0  0  0  0  0  0  0
    4.2136    2.3785    0.6937 C   0  0  0  0  0  0  0  0  0  0  0  0
    4.9657    3.7159    0.7763 C   0  0  0  0  0  0  0  0  0  0  0  0
    5.3217    4.0701    2.1356 N   0  0  0  0  0  0  0  0  0  0  0  0
    4.5649    4.8586    2.9862 C   0  0  0  0  0  0  0  0  0  0  0  0
    5.1422    4.9098    4.2311 C   0  0  0  0  0  0  0  0  0  0  0  0
    6.3309    4.1034    4.1711 C   0  0  0  0  0  0  0  0  0  0  0  0
    7.3393    3.7662    5.0949 C   0  0  0  0  0  0  0  0  0  0  0  0
    8.3806    2.9378    4.6888 C   0  0  0  0  0  0  0  0  0  0  0  0
    8.4403    2.4368    3.3698 C   0  0  0  0  0  0  0  0  0  0  0  0
    7.4607    2.7528    2.4316 C   0  0  0  0  0  0  0  0  0  0  0  0
    6.4100    3.5882    2.8428 C   0  0  0  0  0  0  0  0  0  0  0  0
    0.9005   -0.7975    1.0804 H   0  0  0  0  0  0  0  0  0  0  0  0
    0.5401   -0.3883   -0.6072 H   0  0  0  0  0  0  0  0  0  0  0  0
    0.7613    0.9101    0.5899 H   0  0  0  0  0  0  0  0  0  0  0  0
    3.1237    0.2090    0.9546 H   0  0  0  0  0  0  0  0  0  0  0  0
    2.8609   -2.2018    0.2071 H   0  0  0  0  0  0  0  0  0  0  0  0
    4.3127   -1.3638   -0.3499 H   0  0  0  0  0  0  0  0  0  0  0  0
    1.8050   -1.9616   -2.0278 H   0  0  0  0  0  0  0  0  0  0  0  0
    3.4260   -2.6474   -2.2315 H   0  0  0  0  0  0  0  0  0  0  0  0
    2.8217   -0.8065   -3.8688 H   0  0  0  0  0  0  0  0  0  0  0  0
    4.9022    1.4033   -2.8330 H   0  0  0  0  0  0  0  0  0  0  0  0
    1.5164    0.6028   -2.4013 H   0  0  0  0  0  0  0  0  0  0  0  0
    2.8720    1.5773   -2.9747 H   0  0  0  0  0  0  0  0  0  0  0  0
    4.8430    1.5832    1.1288 H   0  0  0  0  0  0  0  0  0  0  0  0
    3.3012    2.4205    1.3100 H   0  0  0  0  0  0  0  0  0  0  0  0
    4.3489    4.5223    0.3540 H   0  0  0  0  0  0  0  0  0  0  0  0
    5.8726    3.6710    0.1575 H   0  0  0  0  0  0  0  0  0  0  0  0
    3.6599    5.3403    2.6178 H   0  0  0  0  0  0  0  0  0  0  0  0
    4.7705    5.4692    5.0871 H   0  0  0  0  0  0  0  0  0  0  0  0
    7.3022    4.1520    6.1171 H   0  0  0  0  0  0  0  0  0  0  0  0
    9.1677    2.6695    5.3980 H   0  0  0  0  0  0  0  0  0  0  0  0
    9.2721    1.7906    3.0779 H   0  0  0  0  0  0  0  0  0  0  0  0
    7.5206    2.3651    1.4120 H   0  0  0  0  0  0  0  0  0  0  0  0
  1  2  1  0
  1 24  1  0
  1 25  1  0
  1 26  1  0
  2  3  1  0
  2 10  1  0
  2 27  1  1
  3  4  1  0
  3 28  1  0
  3 29  1  0
  4  5  1  0
  4 30  1  0
  4 31  1  0
  5  6  1  0
  5  9  1  0
  5 32  1  6
  6  7  2  0
  6  8  1  0
  8 33  1  0
  9 10  1  0
  9 34  1  0
  9 35  1  0
 10 11  1  0
 11 12  2  0
 11 13  1  0
 13 14  1  0
 13 36  1  0
 13 37  1  0
 14 15  1  0
 14 38  1  0
 14 39  1  0
 15 16  1  0
 15 23  1  0
 16 17  2  0
 16 40  1  0
 17 18  1  0
 17 41  1  0
 18 19  1  0
 18 23  2  0
 19 20  2  0
 19 42  1  0
 20 21  1  0
 20 43  1  0
 21 22  2  0
 21 44  1  0
 22 23  1  0
 22 45  1  0
M  END

