
     RDKit          3D

 42 42  0  0  0  0  0  0  0  0999 V2000
   11.8618    6.3868   -4.7719 C   0  0  0  0  0  0  0  0  0  0  0  0
   11.3313    5.4334   -3.8518 O   0  0  0  0  0  0  0  0  0  0  0  0
   11.2653    4.1596   -4.2870 C   0  0  0  0  0  0  0  0  0  0  0  0
   11.6272    3.8168   -5.3885 O   0  0  0  0  0  0  0  0  0  0  0  0
   10.6994    3.2401   -3.2595 C   0  0  0  0  0  0  0  0  0  0  0  0
   10.2876    3.6610   -1.9869 C   0  0  0  0  0  0  0  0  0  0  0  0
    9.7751    2.7162   -1.1021 C   0  0  0  0  0  0  0  0  0  0  0  0
    9.6804    1.3754   -1.5091 C   0  0  0  0  0  0  0  0  0  0  0  0
    9.0826    0.2960   -0.6106 C   0  0  0  0  0  0  0  0  0  0  0  0
    9.6494   -1.0280   -0.7552 N   0  0  0  0  0  0  0  0  0  0  0  0
   11.0026   -1.1786   -0.2344 C   0  0  0  0  0  0  0  0  0  0  0  0
   11.5062   -2.6096   -0.4162 C   0  0  0  0  0  0  0  0  0  0  0  0
   12.8989   -2.8462    0.1732 C   0  0  0  0  0  0  0  0  0  0  0  0
   13.3880   -4.2837   -0.0224 C   0  0  0  0  0  0  0  0  0  0  0  0
   14.7597   -4.5125    0.4139 N   0  0  0  0  0  0  0  0  0  0  0  0
   14.9324   -4.4536    1.8523 C   0  0  0  0  0  0  0  0  0  0  0  0
   15.3210   -5.7278   -0.1420 C   0  0  0  0  0  0  0  0  0  0  0  0
   10.0769    0.9755   -2.7261 N   0  0  0  0  0  0  0  0  0  0  0  0
   10.5703    1.8771   -3.5713 C   0  0  0  0  0  0  0  0  0  0  0  0
   11.8407    7.3546   -4.2560 H   0  0  0  0  0  0  0  0  0  0  0  0
   11.2523    6.4280   -5.6874 H   0  0  0  0  0  0  0  0  0  0  0  0
   12.8932    6.1262   -5.0541 H   0  0  0  0  0  0  0  0  0  0  0  0
   10.3781    4.7113   -1.7049 H   0  0  0  0  0  0  0  0  0  0  0  0
    9.4513    3.0088   -0.1001 H   0  0  0  0  0  0  0  0  0  0  0  0
    8.0014    0.2447   -0.8432 H   0  0  0  0  0  0  0  0  0  0  0  0
    9.1504    0.6142    0.4434 H   0  0  0  0  0  0  0  0  0  0  0  0
    9.6444   -1.2658   -1.7481 H   0  0  0  0  0  0  0  0  0  0  0  0
   10.9824   -0.9339    0.8440 H   0  0  0  0  0  0  0  0  0  0  0  0
   11.7325   -0.4762   -0.6956 H   0  0  0  0  0  0  0  0  0  0  0  0
   11.5186   -2.8497   -1.4961 H   0  0  0  0  0  0  0  0  0  0  0  0
   10.7726   -3.2965    0.0407 H   0  0  0  0  0  0  0  0  0  0  0  0
   12.8796   -2.5926    1.2476 H   0  0  0  0  0  0  0  0  0  0  0  0
   13.6334   -2.1660   -0.2921 H   0  0  0  0  0  0  0  0  0  0  0  0
   13.3411   -4.5192   -1.0993 H   0  0  0  0  0  0  0  0  0  0  0  0
   12.6765   -4.9881    0.4745 H   0  0  0  0  0  0  0  0  0  0  0  0
   14.5977   -3.4844    2.2502 H   0  0  0  0  0  0  0  0  0  0  0  0
   15.9987   -4.5625    2.1074 H   0  0  0  0  0  0  0  0  0  0  0  0
   14.3728   -5.2533    2.3946 H   0  0  0  0  0  0  0  0  0  0  0  0
   15.2621   -5.7078   -1.2420 H   0  0  0  0  0  0  0  0  0  0  0  0
   14.8069   -6.6554    0.2065 H   0  0  0  0  0  0  0  0  0  0  0  0
   16.3837   -5.8159    0.1362 H   0  0  0  0  0  0  0  0  0  0  0  0
   10.8888    1.5267   -4.5588 H   0  0  0  0  0  0  0  0  0  0  0  0
  1  2  1  0
  1 20  1  0
  1 21  1  0
  1 22  1  0
  2  3  1  0
  3  4  2  0
  3  5  1  0
  5  6  2  0
  5 19  1  0
  6  7  1  0
  6 23  1  0
  7  8  2  0
  7 24  1  0
  8  9  1  0
  8 18  1  0
  9 10  1  0
  9 25  1  0
  9 26  1  0
 10 11  1  0
 10 27  1  0
 11 12  1  0
 11 28  1  0
 11 29  1  0
 12 13  1  0
 12 30  1  0
 12 31  1  0
 13 14  1  0
 13 32  1  0
 13 33  1  0
 14 15  1  0
 14 34  1  0
 14 35  1  0
 15 16  1  0
 15 17  1  0
 16 36  1  0
 16 37  1  0
 16 38  1  0
 17 39  1  0
 17 40  1  0
 17 41  1  0
 18 19  2  0
 19 42  1  0
M  END

