
     RDKit          3D

 38 39  0  0  0  0  0  0  0  0999 V2000
    5.0365    1.2723    6.3679 O   0  0  0  0  0  0  0  0  0  0  0  0
    4.9270    0.2311    5.7506 C   0  0  0  0  0  0  0  0  0  0  0  0
    4.4561    0.1316    4.4794 N   0  0  0  0  0  0  0  0  0  0  0  0
    3.9116    1.2648    3.7637 C   0  0  1  0  0  0  0  0  0  0  0  0
    5.0381    2.2353    3.3242 C   0  0  0  0  0  0  0  0  0  0  0  0
    4.4494    3.8054    2.5581 S   0  0  0  0  0  0  0  0  0  0  0  0
    4.9551    3.5402    0.8061 C   0  0  0  0  0  0  0  0  0  0  0  0
    4.2366    4.5255   -0.1183 C   0  0  2  0  0  0  0  0  0  0  0  0
    4.8804    4.5868   -1.5146 C   0  0  0  0  0  0  0  0  0  0  0  0
    5.8517    5.6001   -1.3555 O   0  0  0  0  0  0  0  0  0  0  0  0
    5.3041    6.5717   -0.4908 C   0  0  1  0  0  0  0  0  0  0  0  0
    6.3932    7.2550    0.3624 C   0  0  0  0  0  0  0  0  0  0  0  0
    5.9793    8.7437    0.4800 C   0  0  0  0  0  0  0  0  0  0  0  0
    4.5593    8.8209   -0.1244 C   0  0  0  0  0  0  0  0  0  0  0  0
    4.5722    7.7277   -1.1966 C   0  0  0  0  0  0  0  0  0  0  0  0
    4.3701    5.8602    0.3420 O   0  0  0  0  0  0  0  0  0  0  0  0
    3.0615    0.7124    2.6051 C   0  0  0  0  0  0  0  0  0  0  0  0
    2.9639   -0.4688    2.3855 O   0  0  0  0  0  0  0  0  0  0  0  0
    2.4287    1.6225    1.8632 O   0  0  0  0  0  0  0  0  0  0  0  0
    5.2162   -0.7611    6.1742 H   0  0  0  0  0  0  0  0  0  0  0  0
    4.2847   -0.7773    4.0534 H   0  0  0  0  0  0  0  0  0  0  0  0
    3.2407    1.8316    4.4364 H   0  0  0  0  0  0  0  0  0  0  0  0
    5.7344    1.7334    2.6362 H   0  0  0  0  0  0  0  0  0  0  0  0
    5.5911    2.5120    4.2315 H   0  0  0  0  0  0  0  0  0  0  0  0
    4.7014    2.5105    0.5109 H   0  0  0  0  0  0  0  0  0  0  0  0
    6.0447    3.6803    0.7309 H   0  0  0  0  0  0  0  0  0  0  0  0
    3.1637    4.2725   -0.1660 H   0  0  0  0  0  0  0  0  0  0  0  0
    4.1294    4.8543   -2.2817 H   0  0  0  0  0  0  0  0  0  0  0  0
    5.3824    3.6567   -1.8187 H   0  0  0  0  0  0  0  0  0  0  0  0
    7.3625    7.1284   -0.1410 H   0  0  0  0  0  0  0  0  0  0  0  0
    6.4489    6.7477    1.3356 H   0  0  0  0  0  0  0  0  0  0  0  0
    6.6672    9.3762   -0.1044 H   0  0  0  0  0  0  0  0  0  0  0  0
    6.0125    9.1115    1.5163 H   0  0  0  0  0  0  0  0  0  0  0  0
    4.3106    9.8183   -0.5178 H   0  0  0  0  0  0  0  0  0  0  0  0
    3.8070    8.5672    0.6403 H   0  0  0  0  0  0  0  0  0  0  0  0
    5.1820    8.0385   -2.0621 H   0  0  0  0  0  0  0  0  0  0  0  0
    3.5759    7.4330   -1.5574 H   0  0  0  0  0  0  0  0  0  0  0  0
    2.7043    2.5317    2.1336 H   0  0  0  0  0  0  0  0  0  0  0  0
  1  2  2  0
  2  3  1  0
  2 20  1  0
  3  4  1  0
  3 21  1  0
  4  5  1  0
  4 17  1  0
  4 22  1  1
  5  6  1  0
  5 23  1  0
  5 24  1  0
  6  7  1  0
  7  8  1  0
  7 25  1  0
  7 26  1  0
  8  9  1  0
  8 16  1  0
  8 27  1  6
  9 10  1  0
  9 28  1  0
  9 29  1  0
 11 10  1  6
 11 12  1  0
 11 15  1  0
 11 16  1  0
 12 13  1  0
 12 30  1  0
 12 31  1  0
 13 14  1  0
 13 32  1  0
 13 33  1  0
 14 15  1  0
 14 34  1  0
 14 35  1  0
 15 36  1  0
 15 37  1  0
 17 18  2  0
 17 19  1  0
 19 38  1  0
M  END

