
     RDKit          3D

 46 46  0  0  0  0  0  0  0  0999 V2000
    2.7863    3.4980   -0.2654 C   0  0  0  0  0  0  0  0  0  0  0  0
    2.2147    2.1045    0.0168 C   0  0  1  0  0  0  0  0  0  0  0  0
    0.6851    2.0918   -0.0997 C   0  0  0  0  0  0  0  0  0  0  0  0
    2.8028    1.0257   -0.9171 C   0  0  0  0  0  0  0  0  0  0  0  0
    4.2610    0.8686   -0.8485 N   0  0  0  0  0  0  0  0  0  0  0  0
    4.7672    0.1222    0.2986 C   0  0  0  0  0  0  0  0  0  0  0  0
    4.4377   -1.3890    0.3058 C   0  0  0  0  0  0  0  0  0  0  0  0
    5.0372   -2.1807   -0.8256 C   0  0  0  0  0  0  0  0  0  0  0  0
    4.4778   -2.0792   -2.0738 N   0  0  0  0  0  0  0  0  0  0  0  0
    6.0441   -2.9377   -0.5442 N   0  0  0  0  0  0  0  0  0  0  0  0
    6.5195   -3.5626   -1.7201 O   0  0  0  0  0  0  0  0  0  0  0  0
    5.0125    1.4332   -1.8722 C   0  0  0  0  0  0  0  0  0  0  0  0
    4.4424    1.9160   -2.8422 O   0  0  0  0  0  0  0  0  0  0  0  0
    6.5607    1.5430   -1.7817 C   0  0  1  0  0  0  0  0  0  0  0  0
    6.9357    2.5008   -0.6271 C   0  0  0  0  0  0  0  0  0  0  0  0
    7.3491    0.2011   -1.7115 C   0  0  0  0  0  0  0  0  0  0  0  0
    8.7492    0.5005   -2.3001 C   0  0  0  0  0  0  0  0  0  0  0  0
    8.5952    1.7931   -3.1455 C   0  0  0  0  0  0  0  0  0  0  0  0
    7.0928    2.1197   -3.1210 C   0  0  0  0  0  0  0  0  0  0  0  0
    2.3455    4.2462    0.4132 H   0  0  0  0  0  0  0  0  0  0  0  0
    2.5790    3.8093   -1.3018 H   0  0  0  0  0  0  0  0  0  0  0  0
    3.8774    3.5241   -0.1242 H   0  0  0  0  0  0  0  0  0  0  0  0
    2.4699    1.8359    1.0596 H   0  0  0  0  0  0  0  0  0  0  0  0
    0.3660    2.3544   -1.1227 H   0  0  0  0  0  0  0  0  0  0  0  0
    0.2280    2.8205    0.5884 H   0  0  0  0  0  0  0  0  0  0  0  0
    0.2651    1.1000    0.1366 H   0  0  0  0  0  0  0  0  0  0  0  0
    2.5541    1.2721   -1.9578 H   0  0  0  0  0  0  0  0  0  0  0  0
    2.3278    0.0588   -0.6811 H   0  0  0  0  0  0  0  0  0  0  0  0
    4.3509    0.5605    1.2227 H   0  0  0  0  0  0  0  0  0  0  0  0
    5.8508    0.2402    0.3627 H   0  0  0  0  0  0  0  0  0  0  0  0
    3.3458   -1.5442    0.3185 H   0  0  0  0  0  0  0  0  0  0  0  0
    4.8342   -1.8105    1.2404 H   0  0  0  0  0  0  0  0  0  0  0  0
    3.9498   -1.2477   -2.3040 H   0  0  0  0  0  0  0  0  0  0  0  0
    5.0042   -2.5065   -2.8278 H   0  0  0  0  0  0  0  0  0  0  0  0
    7.2645   -4.0817   -1.3956 H   0  0  0  0  0  0  0  0  0  0  0  0
    6.6620    2.1104    0.3638 H   0  0  0  0  0  0  0  0  0  0  0  0
    6.4357    3.4739   -0.7557 H   0  0  0  0  0  0  0  0  0  0  0  0
    8.0205    2.6872   -0.6143 H   0  0  0  0  0  0  0  0  0  0  0  0
    6.8346   -0.5527   -2.3264 H   0  0  0  0  0  0  0  0  0  0  0  0
    7.4201   -0.2260   -0.7021 H   0  0  0  0  0  0  0  0  0  0  0  0
    9.1083   -0.3501   -2.8996 H   0  0  0  0  0  0  0  0  0  0  0  0
    9.4899    0.6428   -1.4974 H   0  0  0  0  0  0  0  0  0  0  0  0
    8.9626    1.6681   -4.1758 H   0  0  0  0  0  0  0  0  0  0  0  0
    9.1849    2.6144   -2.7075 H   0  0  0  0  0  0  0  0  0  0  0  0
    6.5727    1.6139   -3.9471 H   0  0  0  0  0  0  0  0  0  0  0  0
    6.8712    3.1916   -3.2297 H   0  0  0  0  0  0  0  0  0  0  0  0
  1  2  1  0
  1 20  1  0
  1 21  1  0
  1 22  1  0
  2  3  1  0
  2  4  1  0
  2 23  1  1
  3 24  1  0
  3 25  1  0
  3 26  1  0
  4  5  1  0
  4 27  1  0
  4 28  1  0
  5  6  1  0
  5 12  1  0
  6  7  1  0
  6 29  1  0
  6 30  1  0
  7  8  1  0
  7 31  1  0
  7 32  1  0
  8  9  1  0
  8 10  2  0
  9 33  1  0
  9 34  1  0
 10 11  1  0
 11 35  1  0
 12 13  2  0
 14 12  1  6
 14 15  1  0
 14 16  1  0
 14 19  1  0
 15 36  1  0
 15 37  1  0
 15 38  1  0
 16 17  1  0
 16 39  1  0
 16 40  1  0
 17 18  1  0
 17 41  1  0
 17 42  1  0
 18 19  1  0
 18 43  1  0
 18 44  1  0
 19 45  1  0
 19 46  1  0
M  END

