
     RDKit          3D

 54 55  0  0  0  0  0  0  0  0999 V2000
    5.2939   -0.5841   -1.9874 C   0  0  0  0  0  0  0  0  0  0  0  0
    4.4160   -0.5022   -0.7379 C   0  0  0  0  0  0  0  0  0  0  0  0
    5.0634    0.2771    0.4106 C   0  0  0  0  0  0  0  0  0  0  0  0
    4.1795    0.3589    1.6696 C   0  0  0  0  0  0  0  0  0  0  0  0
    4.8193    1.1309    2.7996 C   0  0  0  0  0  0  0  0  0  0  0  0
    4.6712    2.5271    2.8971 C   0  0  0  0  0  0  0  0  0  0  0  0
    5.2913    3.2456    3.9133 C   0  0  0  0  0  0  0  0  0  0  0  0
    6.0868    2.5945    4.8752 C   0  0  0  0  0  0  0  0  0  0  0  0
    6.7198    3.4359    5.9400 C   0  0  0  0  0  0  0  0  0  0  0  0
    6.5459    4.6457    5.9656 O   0  0  0  0  0  0  0  0  0  0  0  0
    7.5731    2.7765    6.9775 C   0  0  0  0  0  0  0  0  0  0  0  0
    8.1584    3.4965    7.9494 C   0  0  0  0  0  0  0  0  0  0  0  0
    9.0106    2.8372    8.9878 C   0  0  0  0  0  0  0  0  0  0  0  0
    9.1825    1.6271    8.9641 O   0  0  0  0  0  0  0  0  0  0  0  0
    9.6441    3.6792   10.0519 C   0  0  0  0  0  0  0  0  0  0  0  0
    9.5029    5.0764   10.1372 C   0  0  0  0  0  0  0  0  0  0  0  0
   10.1276    5.7914   11.1587 C   0  0  0  0  0  0  0  0  0  0  0  0
   10.9103    5.1442   12.1293 C   0  0  0  0  0  0  0  0  0  0  0  0
   11.5614    5.9326   13.2443 C   0  0  0  0  0  0  0  0  0  0  0  0
   10.5941    6.3740   14.3628 C   0  0  0  0  0  0  0  0  0  0  0  0
    9.9952    5.2275   15.1826 C   0  0  0  0  0  0  0  0  0  0  0  0
    9.0543    5.7062   16.2892 C   0  0  0  0  0  0  0  0  0  0  0  0
   11.0503    3.7476   12.0371 C   0  0  0  0  0  0  0  0  0  0  0  0
   10.4306    3.0282   11.0199 C   0  0  0  0  0  0  0  0  0  0  0  0
    6.2368    1.1995    4.7834 C   0  0  0  0  0  0  0  0  0  0  0  0
    5.6116    0.4844    3.7609 C   0  0  0  0  0  0  0  0  0  0  0  0
    4.7990   -1.1503   -2.7925 H   0  0  0  0  0  0  0  0  0  0  0  0
    6.2536   -1.0828   -1.7714 H   0  0  0  0  0  0  0  0  0  0  0  0
    5.5263    0.4196   -2.3809 H   0  0  0  0  0  0  0  0  0  0  0  0
    4.1700   -1.5225   -0.3910 H   0  0  0  0  0  0  0  0  0  0  0  0
    3.4489   -0.0328   -0.9952 H   0  0  0  0  0  0  0  0  0  0  0  0
    5.3075    1.3005    0.0730 H   0  0  0  0  0  0  0  0  0  0  0  0
    6.0292   -0.1887    0.6772 H   0  0  0  0  0  0  0  0  0  0  0  0
    3.9434   -0.6638    2.0097 H   0  0  0  0  0  0  0  0  0  0  0  0
    3.2177    0.8295    1.4023 H   0  0  0  0  0  0  0  0  0  0  0  0
    4.0532    3.0532    2.1636 H   0  0  0  0  0  0  0  0  0  0  0  0
    5.1749    4.3280    3.9928 H   0  0  0  0  0  0  0  0  0  0  0  0
    7.7395    1.6981    6.9689 H   0  0  0  0  0  0  0  0  0  0  0  0
    7.9920    4.5750    7.9579 H   0  0  0  0  0  0  0  0  0  0  0  0
    8.9085    5.6233    9.4045 H   0  0  0  0  0  0  0  0  0  0  0  0
   10.0093    6.8781   11.1994 H   0  0  0  0  0  0  0  0  0  0  0  0
   12.0316    6.8336   12.8153 H   0  0  0  0  0  0  0  0  0  0  0  0
   12.3765    5.3354   13.6864 H   0  0  0  0  0  0  0  0  0  0  0  0
    9.7780    6.9735   13.9199 H   0  0  0  0  0  0  0  0  0  0  0  0
   11.1383    7.0575   15.0391 H   0  0  0  0  0  0  0  0  0  0  0  0
   10.8157    4.6338   15.6264 H   0  0  0  0  0  0  0  0  0  0  0  0
    9.4533    4.5379   14.5121 H   0  0  0  0  0  0  0  0  0  0  0  0
    9.5734    6.3710   17.0002 H   0  0  0  0  0  0  0  0  0  0  0  0
    8.6439    4.8607   16.8639 H   0  0  0  0  0  0  0  0  0  0  0  0
    8.2021    6.2700   15.8741 H   0  0  0  0  0  0  0  0  0  0  0  0
   11.6604    3.2208   12.7761 H   0  0  0  0  0  0  0  0  0  0  0  0
   10.5402    1.9446   10.9467 H   0  0  0  0  0  0  0  0  0  0  0  0
    6.8396    0.6533    5.5097 H   0  0  0  0  0  0  0  0  0  0  0  0
    5.7380   -0.6009    3.7118 H   0  0  0  0  0  0  0  0  0  0  0  0
  1  2  1  0
  1 27  1  0
  1 28  1  0
  1 29  1  0
  2  3  1  0
  2 30  1  0
  2 31  1  0
  3  4  1  0
  3 32  1  0
  3 33  1  0
  4  5  1  0
  4 34  1  0
  4 35  1  0
  5  6  2  0
  5 26  1  0
  6  7  1  0
  6 36  1  0
  7  8  2  0
  7 37  1  0
  8  9  1  0
  8 25  1  0
  9 10  2  0
  9 11  1  0
 11 12  2  0
 11 38  1  0
 12 13  1  0
 12 39  1  0
 13 14  2  0
 13 15  1  0
 15 16  2  0
 15 24  1  0
 16 17  1  0
 16 40  1  0
 17 18  2  0
 17 41  1  0
 18 19  1  0
 18 23  1  0
 19 20  1  0
 19 42  1  0
 19 43  1  0
 20 21  1  0
 20 44  1  0
 20 45  1  0
 21 22  1  0
 21 46  1  0
 21 47  1  0
 22 48  1  0
 22 49  1  0
 22 50  1  0
 23 24  2  0
 23 51  1  0
 24 52  1  0
 25 26  2  0
 25 53  1  0
 26 54  1  0
M  END

