
     RDKit          3D

 64 66  0  0  0  0  0  0  0  0999 V2000
    0.8213    0.6213    0.8515 C   0  0  0  0  0  0  0  0  0  0  0  0
    2.2806    0.2034    0.8572 C   0  0  0  0  0  0  0  0  0  0  0  0
    3.0617    1.2650    0.3536 O   0  0  0  0  0  0  0  0  0  0  0  0
    4.4486    1.0169    0.3216 C   0  0  1  0  0  0  0  0  0  0  0  0
    4.9180    0.2215   -0.9201 C   0  0  0  0  0  0  0  0  0  0  0  0
    5.1950    1.5642   -1.6308 C   0  0  2  0  0  0  0  0  0  0  0  0
    6.3213    1.6586   -2.5497 N   0  0  0  0  0  0  0  0  0  0  0  0
    6.6708    0.4376   -3.2592 C   0  0  0  0  0  0  0  0  0  0  0  0
    6.2103    2.7828   -3.4515 C   0  0  0  0  0  0  0  0  0  0  0  0
    7.5633    3.2884   -3.9843 C   0  0  0  0  0  0  0  0  0  0  0  0
    8.6205    2.8160   -3.5958 O   0  0  0  0  0  0  0  0  0  0  0  0
    7.5194    4.2956   -4.9224 N   0  0  0  0  0  0  0  0  0  0  0  0
    6.3353    5.0443   -5.3336 C   0  0  0  0  0  0  0  0  0  0  0  0
    6.4392    6.5082   -4.8830 C   0  0  0  0  0  0  0  0  0  0  0  0
    7.7425    7.1503   -5.3747 C   0  0  0  0  0  0  0  0  0  0  0  0
    8.9621    6.2951   -4.9846 C   0  0  2  0  0  0  0  0  0  0  0  0
   10.2278    6.8569   -5.4562 N   0  0  0  0  0  0  0  0  0  0  0  0
   10.5576    7.0517   -6.7691 C   0  0  0  0  0  0  0  0  0  0  0  0
   11.9494    7.6184   -7.0147 C   0  0  0  0  0  0  0  0  0  0  0  0
    9.8029    6.7927   -7.6941 O   0  0  0  0  0  0  0  0  0  0  0  0
    8.7710    4.8344   -5.4458 C   0  0  0  0  0  0  0  0  0  0  0  0
    5.2310    2.2610   -0.2015 C   0  0  1  0  0  0  0  0  0  0  0  0
    4.5114    3.6033    0.0020 C   0  0  0  0  0  0  0  0  0  0  0  0
    5.3456    4.8410   -0.3580 C   0  0  0  0  0  0  0  0  0  0  0  0
    6.7192    4.8278    0.3221 C   0  0  0  0  0  0  0  0  0  0  0  0
    7.4700    3.5233    0.0327 C   0  0  0  0  0  0  0  0  0  0  0  0
    6.6382    2.2978    0.4294 C   0  0  0  0  0  0  0  0  0  0  0  0
    0.1854   -0.1847    1.2501 H   0  0  0  0  0  0  0  0  0  0  0  0
    0.4887    0.8533   -0.1723 H   0  0  0  0  0  0  0  0  0  0  0  0
    0.6745    1.5206    1.4696 H   0  0  0  0  0  0  0  0  0  0  0  0
    2.4198   -0.7122    0.2464 H   0  0  0  0  0  0  0  0  0  0  0  0
    2.6080   -0.0521    1.8874 H   0  0  0  0  0  0  0  0  0  0  0  0
    4.7842    0.6263    1.3033 H   0  0  0  0  0  0  0  0  0  0  0  0
    4.1919   -0.4586   -1.3897 H   0  0  0  0  0  0  0  0  0  0  0  0
    5.8371   -0.3384   -0.6995 H   0  0  0  0  0  0  0  0  0  0  0  0
    4.2508    1.8786   -2.1249 H   0  0  0  0  0  0  0  0  0  0  0  0
    6.8610   -0.3857   -2.5583 H   0  0  0  0  0  0  0  0  0  0  0  0
    7.6001    0.6046   -3.8201 H   0  0  0  0  0  0  0  0  0  0  0  0
    5.8820    0.1052   -3.9738 H   0  0  0  0  0  0  0  0  0  0  0  0
    5.7319    3.6198   -2.9219 H   0  0  0  0  0  0  0  0  0  0  0  0
    5.5440    2.5527   -4.3161 H   0  0  0  0  0  0  0  0  0  0  0  0
    5.4274    4.5790   -4.9342 H   0  0  0  0  0  0  0  0  0  0  0  0
    6.2578    5.0036   -6.4365 H   0  0  0  0  0  0  0  0  0  0  0  0
    6.3902    6.5430   -3.7797 H   0  0  0  0  0  0  0  0  0  0  0  0
    5.5703    7.0729   -5.2602 H   0  0  0  0  0  0  0  0  0  0  0  0
    7.8554    8.1665   -4.9619 H   0  0  0  0  0  0  0  0  0  0  0  0
    7.7258    7.2442   -6.4716 H   0  0  0  0  0  0  0  0  0  0  0  0
    9.0352    6.2778   -3.8840 H   0  0  0  0  0  0  0  0  0  0  0  0
   10.9299    7.0624   -4.7577 H   0  0  0  0  0  0  0  0  0  0  0  0
   12.5008    7.8779   -6.0991 H   0  0  0  0  0  0  0  0  0  0  0  0
   11.8538    8.5140   -7.6464 H   0  0  0  0  0  0  0  0  0  0  0  0
   12.5319    6.8808   -7.5879 H   0  0  0  0  0  0  0  0  0  0  0  0
    9.5893    4.2031   -5.0808 H   0  0  0  0  0  0  0  0  0  0  0  0
    8.7540    4.8080   -6.5474 H   0  0  0  0  0  0  0  0  0  0  0  0
    4.2342    3.6691    1.0702 H   0  0  0  0  0  0  0  0  0  0  0  0
    3.5572    3.6004   -0.5474 H   0  0  0  0  0  0  0  0  0  0  0  0
    4.7873    5.7518   -0.0816 H   0  0  0  0  0  0  0  0  0  0  0  0
    5.4859    4.8999   -1.4522 H   0  0  0  0  0  0  0  0  0  0  0  0
    6.5798    4.9344    1.4146 H   0  0  0  0  0  0  0  0  0  0  0  0
    7.3160    5.6989    0.0011 H   0  0  0  0  0  0  0  0  0  0  0  0
    8.4269    3.5073    0.5820 H   0  0  0  0  0  0  0  0  0  0  0  0
    7.7315    3.4516   -1.0351 H   0  0  0  0  0  0  0  0  0  0  0  0
    6.5080    2.2968    1.5285 H   0  0  0  0  0  0  0  0  0  0  0  0
    7.1938    1.3801    0.1793 H   0  0  0  0  0  0  0  0  0  0  0  0
  1  2  1  0
  1 28  1  0
  1 29  1  0
  1 30  1  0
  2  3  1  0
  2 31  1  0
  2 32  1  0
  3  4  1  0
  4  5  1  0
  4 22  1  0
  4 33  1  1
  5  6  1  0
  5 34  1  0
  5 35  1  0
  6  7  1  0
  6 22  1  0
  6 36  1  6
  7  8  1  0
  7  9  1  0
  8 37  1  0
  8 38  1  0
  8 39  1  0
  9 10  1  0
  9 40  1  0
  9 41  1  0
 10 11  2  0
 10 12  1  0
 12 13  1  0
 12 21  1  0
 13 14  1  0
 13 42  1  0
 13 43  1  0
 14 15  1  0
 14 44  1  0
 14 45  1  0
 15 16  1  0
 15 46  1  0
 15 47  1  0
 16 17  1  0
 16 21  1  0
 16 48  1  1
 17 18  1  0
 17 49  1  0
 18 19  1  0
 18 20  2  0
 19 50  1  0
 19 51  1  0
 19 52  1  0
 21 53  1  0
 21 54  1  0
 22 23  1  6
 22 27  1  0
 23 24  1  0
 23 55  1  0
 23 56  1  0
 24 25  1  0
 24 57  1  0
 24 58  1  0
 25 26  1  0
 25 59  1  0
 25 60  1  0
 26 27  1  0
 26 61  1  0
 26 62  1  0
 27 63  1  0
 27 64  1  0
M  END

