
     RDKit          3D

 23 24  0  0  0  0  0  0  0  0999 V2000
    1.3555    2.1590   -0.7329 C   0  0  0  0  0  0  0  0  0  0  0  0
    2.7518    1.8705   -0.7901 O   0  0  0  0  0  0  0  0  0  0  0  0
    3.0754    0.5915   -1.0745 C   0  0  0  0  0  0  0  0  0  0  0  0
    2.2686   -0.2885   -1.2750 O   0  0  0  0  0  0  0  0  0  0  0  0
    4.4447    0.4441   -1.1017 N   0  0  0  0  0  0  0  0  0  0  0  0
    5.3971    1.5288   -0.8510 C   0  0  0  0  0  0  0  0  0  0  0  0
    6.7795    0.8664   -0.9862 C   0  0  0  0  0  0  0  0  0  0  0  0
    7.8400    1.4341   -0.8508 O   0  0  0  0  0  0  0  0  0  0  0  0
    6.5174   -0.5485   -1.3030 C   0  0  0  0  0  0  0  0  0  0  0  0
    7.4211   -1.5911   -1.5263 C   0  0  0  0  0  0  0  0  0  0  0  0
    6.9164   -2.8583   -1.8121 C   0  0  0  0  0  0  0  0  0  0  0  0
    5.5251   -3.0605   -1.8697 C   0  0  0  0  0  0  0  0  0  0  0  0
    4.6084   -2.0286   -1.6490 C   0  0  0  0  0  0  0  0  0  0  0  0
    5.1257   -0.7575   -1.3620 C   0  0  0  0  0  0  0  0  0  0  0  0
    1.2771    3.2281   -0.5003 H   0  0  0  0  0  0  0  0  0  0  0  0
    0.8630    1.5620    0.0493 H   0  0  0  0  0  0  0  0  0  0  0  0
    0.8700    1.9420   -1.6962 H   0  0  0  0  0  0  0  0  0  0  0  0
    5.2721    1.9600    0.1550 H   0  0  0  0  0  0  0  0  0  0  0  0
    5.2880    2.3475   -1.5800 H   0  0  0  0  0  0  0  0  0  0  0  0
    8.4941   -1.3925   -1.4726 H   0  0  0  0  0  0  0  0  0  0  0  0
    7.5942   -3.6956   -1.9919 H   0  0  0  0  0  0  0  0  0  0  0  0
    5.1420   -4.0596   -2.0950 H   0  0  0  0  0  0  0  0  0  0  0  0
    3.5342   -2.1932   -1.6952 H   0  0  0  0  0  0  0  0  0  0  0  0
  1  2  1  0
  1 15  1  0
  1 16  1  0
  1 17  1  0
  2  3  1  0
  3  4  2  0
  3  5  1  0
  5  6  1  0
  5 14  1  0
  6  7  1  0
  6 18  1  0
  6 19  1  0
  7  8  2  0
  7  9  1  0
  9 10  2  0
  9 14  1  0
 10 11  1  0
 10 20  1  0
 11 12  2  0
 11 21  1  0
 12 13  1  0
 12 22  1  0
 13 14  2  0
 13 23  1  0
M  END

