
     RDKit          3D

 86 95  0  0  0  0  0  0  0  0999 V2000
    0.6462    0.5185   -0.5823 C   0  0  0  0  0  0  0  0  0  0  0  0
    2.1381    0.3751   -0.7657 C   0  0  0  0  0  0  0  0  0  0  0  0
    2.8677    1.5454   -0.9909 C   0  0  0  0  0  0  0  0  0  0  0  0
    4.2651    1.6102   -1.1841 C   0  0  0  0  0  0  0  0  0  0  0  0
    4.9032    2.8625   -1.3956 N   0  0  0  0  0  0  0  0  0  0  0  0
    6.2873    3.0537   -1.1290 C   0  0  0  0  0  0  0  0  0  0  0  0
    6.8325    2.6905    0.1109 C   0  0  0  0  0  0  0  0  0  0  0  0
    8.1925    2.8714    0.3597 C   0  0  0  0  0  0  0  0  0  0  0  0
    9.0096    3.4297   -0.6268 C   0  0  0  0  0  0  0  0  0  0  0  0
    8.4528    3.8404   -1.8411 C   0  0  0  0  0  0  0  0  0  0  0  0
    7.0867    3.6772   -2.1075 C   0  0  0  0  0  0  0  0  0  0  0  0
    6.4148    4.1786   -3.4054 C   0  0  2  0  0  0  0  0  0  0  0  0
    6.3917    3.1187   -4.5333 C   0  0  0  0  0  0  0  0  0  0  0  0
    5.6941    1.9145   -4.6077 C   0  0  0  0  0  0  0  0  0  0  0  0
    5.8244    1.1183   -5.7548 C   0  0  0  0  0  0  0  0  0  0  0  0
    6.6345    1.5255   -6.8212 C   0  0  0  0  0  0  0  0  0  0  0  0
    7.3141    2.7463   -6.7648 C   0  0  0  0  0  0  0  0  0  0  0  0
    7.1831    3.5428   -5.6230 C   0  0  0  0  0  0  0  0  0  0  0  0
    7.7236    4.8759   -5.3271 C   0  0  0  0  0  0  0  0  0  0  0  0
    8.5424    5.7212   -6.0857 C   0  0  0  0  0  0  0  0  0  0  0  0
    8.8917    6.9705   -5.5648 C   0  0  0  0  0  0  0  0  0  0  0  0
    8.4298    7.3704   -4.3029 C   0  0  0  0  0  0  0  0  0  0  0  0
    7.6143    6.5225   -3.5423 C   0  0  0  0  0  0  0  0  0  0  0  0
    7.2628    5.2765   -4.0588 C   0  0  0  0  0  0  0  0  0  0  0  0
    4.9993    4.6585   -3.0419 C   0  0  0  0  0  0  0  0  0  0  0  0
    4.4060    5.7529   -3.6844 C   0  0  0  0  0  0  0  0  0  0  0  0
    3.1630    6.2463   -3.2853 C   0  0  0  0  0  0  0  0  0  0  0  0
    2.5250    5.6779   -2.1830 C   0  0  0  0  0  0  0  0  0  0  0  0
    3.0972    4.5821   -1.5349 C   0  0  0  0  0  0  0  0  0  0  0  0
    4.2942    4.0105   -2.0014 C   0  0  0  0  0  0  0  0  0  0  0  0
    4.9697    0.3646   -1.2147 C   0  0  0  0  0  0  0  0  0  0  0  0
    6.4325    0.1590   -1.5521 C   0  0  0  0  0  0  0  0  0  0  0  0
    4.2348   -0.7948   -0.9582 C   0  0  0  0  0  0  0  0  0  0  0  0
    2.8513   -0.8506   -0.7169 C   0  0  0  0  0  0  0  0  0  0  0  0
    2.2521   -2.1825   -0.4570 C   0  0  0  0  0  0  0  0  0  0  0  0
    3.0823   -3.2425   -0.4367 N   0  0  0  0  0  0  0  0  0  0  0  0
    2.5348   -4.4358   -0.2021 C   0  0  0  0  0  0  0  0  0  0  0  0
    3.4262   -5.6271   -0.1744 C   0  0  0  0  0  0  0  0  0  0  0  0
    4.8110   -5.4875   -0.3727 C   0  0  0  0  0  0  0  0  0  0  0  0
    5.6444   -6.6059   -0.3460 C   0  0  0  0  0  0  0  0  0  0  0  0
    5.1067   -7.8780   -0.1215 C   0  0  0  0  0  0  0  0  0  0  0  0
    3.7298   -8.0257    0.0768 C   0  0  0  0  0  0  0  0  0  0  0  0
    2.8942   -6.9087    0.0512 C   0  0  0  0  0  0  0  0  0  0  0  0
    1.2245   -4.6264    0.0120 N   0  0  0  0  0  0  0  0  0  0  0  0
    0.4606   -3.5295   -0.0215 C   0  0  0  0  0  0  0  0  0  0  0  0
   -1.0004   -3.6905    0.2111 C   0  0  0  0  0  0  0  0  0  0  0  0
   -1.5436   -4.9622    0.4653 C   0  0  0  0  0  0  0  0  0  0  0  0
   -2.9131   -5.1148    0.6837 C   0  0  0  0  0  0  0  0  0  0  0  0
   -3.7585   -4.0005    0.6510 C   0  0  0  0  0  0  0  0  0  0  0  0
   -3.2263   -2.7315    0.3986 C   0  0  0  0  0  0  0  0  0  0  0  0
   -1.8570   -2.5762    0.1802 C   0  0  0  0  0  0  0  0  0  0  0  0
    0.9313   -2.2963   -0.2516 N   0  0  0  0  0  0  0  0  0  0  0  0
    0.3511    1.5737   -0.6819 H   0  0  0  0  0  0  0  0  0  0  0  0
    0.3218    0.1530    0.4027 H   0  0  0  0  0  0  0  0  0  0  0  0
    0.0893   -0.0738   -1.3225 H   0  0  0  0  0  0  0  0  0  0  0  0
    2.2932    2.4619   -1.0219 H   0  0  0  0  0  0  0  0  0  0  0  0
    6.1792    2.2553    0.8698 H   0  0  0  0  0  0  0  0  0  0  0  0
    8.6115    2.5806    1.3262 H   0  0  0  0  0  0  0  0  0  0  0  0
   10.0785    3.5665   -0.4468 H   0  0  0  0  0  0  0  0  0  0  0  0
    9.0937    4.3019   -2.5933 H   0  0  0  0  0  0  0  0  0  0  0  0
    5.0398    1.5888   -3.7990 H   0  0  0  0  0  0  0  0  0  0  0  0
    5.2806    0.1723   -5.8153 H   0  0  0  0  0  0  0  0  0  0  0  0
    6.7254    0.8927   -7.7077 H   0  0  0  0  0  0  0  0  0  0  0  0
    7.9280    3.0763   -7.6067 H   0  0  0  0  0  0  0  0  0  0  0  0
    8.9025    5.4137   -7.0707 H   0  0  0  0  0  0  0  0  0  0  0  0
    9.5289    7.6419   -6.1462 H   0  0  0  0  0  0  0  0  0  0  0  0
    8.7084    8.3511   -3.9090 H   0  0  0  0  0  0  0  0  0  0  0  0
    7.2601    6.8364   -2.5574 H   0  0  0  0  0  0  0  0  0  0  0  0
    4.9363    6.2345   -4.5073 H   0  0  0  0  0  0  0  0  0  0  0  0
    2.7177    7.0950   -3.8097 H   0  0  0  0  0  0  0  0  0  0  0  0
    1.5875    6.0952   -1.8073 H   0  0  0  0  0  0  0  0  0  0  0  0
    2.6286    4.2016   -0.6303 H   0  0  0  0  0  0  0  0  0  0  0  0
    6.8014    0.8465   -2.3220 H   0  0  0  0  0  0  0  0  0  0  0  0
    6.5733   -0.8650   -1.9277 H   0  0  0  0  0  0  0  0  0  0  0  0
    7.0891    0.2834   -0.6770 H   0  0  0  0  0  0  0  0  0  0  0  0
    4.7659   -1.7460   -0.9721 H   0  0  0  0  0  0  0  0  0  0  0  0
    5.2182   -4.4911   -0.5459 H   0  0  0  0  0  0  0  0  0  0  0  0
    6.7197   -6.4859   -0.5009 H   0  0  0  0  0  0  0  0  0  0  0  0
    5.7607   -8.7539   -0.1011 H   0  0  0  0  0  0  0  0  0  0  0  0
    3.3055   -9.0176    0.2524 H   0  0  0  0  0  0  0  0  0  0  0  0
    1.8195   -7.0100    0.2044 H   0  0  0  0  0  0  0  0  0  0  0  0
   -0.8740   -5.8222    0.4881 H   0  0  0  0  0  0  0  0  0  0  0  0
   -3.3243   -6.1081    0.8806 H   0  0  0  0  0  0  0  0  0  0  0  0
   -4.8316   -4.1211    0.8220 H   0  0  0  0  0  0  0  0  0  0  0  0
   -3.8829   -1.8581    0.3718 H   0  0  0  0  0  0  0  0  0  0  0  0
   -1.4324   -1.5924   -0.0174 H   0  0  0  0  0  0  0  0  0  0  0  0
  1  2  1  0
  1 53  1  0
  1 54  1  0
  1 55  1  0
  2  3  2  0
  2 34  1  0
  3  4  1  0
  3 56  1  0
  4  5  1  0
  4 31  2  0
  5  6  1  0
  5 30  1  0
  6  7  2  0
  6 11  1  0
  7  8  1  0
  7 57  1  0
  8  9  2  0
  8 58  1  0
  9 10  1  0
  9 59  1  0
 10 11  2  0
 10 60  1  0
 12 11  1  1
 12 13  1  0
 12 24  1  0
 12 25  1  0
 13 14  2  0
 13 18  1  0
 14 15  1  0
 14 61  1  0
 15 16  2  0
 15 62  1  0
 16 17  1  0
 16 63  1  0
 17 18  2  0
 17 64  1  0
 18 19  1  0
 19 20  2  0
 19 24  1  0
 20 21  1  0
 20 65  1  0
 21 22  2  0
 21 66  1  0
 22 23  1  0
 22 67  1  0
 23 24  2  0
 23 68  1  0
 25 26  1  0
 25 30  2  0
 26 27  2  0
 26 69  1  0
 27 28  1  0
 27 70  1  0
 28 29  2  0
 28 71  1  0
 29 30  1  0
 29 72  1  0
 31 32  1  0
 31 33  1  0
 32 73  1  0
 32 74  1  0
 32 75  1  0
 33 34  2  0
 33 76  1  0
 34 35  1  0
 35 36  2  0
 35 52  1  0
 36 37  1  0
 37 38  1  0
 37 44  2  0
 38 39  2  0
 38 43  1  0
 39 40  1  0
 39 77  1  0
 40 41  2  0
 40 78  1  0
 41 42  1  0
 41 79  1  0
 42 43  2  0
 42 80  1  0
 43 81  1  0
 44 45  1  0
 45 46  1  0
 45 52  2  0
 46 47  2  0
 46 51  1  0
 47 48  1  0
 47 82  1  0
 48 49  2  0
 48 83  1  0
 49 50  1  0
 49 84  1  0
 50 51  2  0
 50 85  1  0
 51 86  1  0
M  END

