
     RDKit          3D

 26 27  0  0  0  0  0  0  0  0999 V2000
    1.1326   -0.3258   -0.1482 N   0  0  0  0  0  0  0  0  0  0  0  0
    2.2887   -0.2072   -0.1588 C   0  0  0  0  0  0  0  0  0  0  0  0
    3.7278   -0.1598   -0.1720 C   0  0  0  0  0  0  0  0  0  0  0  0
    4.3079    1.0484   -0.2984 N   0  0  0  0  0  0  0  0  0  0  0  0
    5.6275    1.1421   -0.3306 C   0  0  0  0  0  0  0  0  0  0  0  0
    6.2569    2.3709   -0.4607 N   0  0  0  0  0  0  0  0  0  0  0  0
    5.7496    3.6622   -0.5774 C   0  0  0  0  0  0  0  0  0  0  0  0
    4.3768    3.9863   -0.5831 C   0  0  0  0  0  0  0  0  0  0  0  0
    3.9451    5.3074   -0.7034 C   0  0  0  0  0  0  0  0  0  0  0  0
    4.8780    6.3320   -0.8204 C   0  0  0  0  0  0  0  0  0  0  0  0
    4.4660    7.6041   -0.9362 F   0  0  0  0  0  0  0  0  0  0  0  0
    6.2434    6.0618   -0.8199 C   0  0  0  0  0  0  0  0  0  0  0  0
    6.6635    4.7391   -0.6994 C   0  0  0  0  0  0  0  0  0  0  0  0
    8.3937    4.4127   -0.7002 Cl  0  0  0  0  0  0  0  0  0  0  0  0
    6.4440   -0.0207   -0.2353 C   0  0  0  0  0  0  0  0  0  0  0  0
    5.8513   -1.2576   -0.1008 C   0  0  0  0  0  0  0  0  0  0  0  0
    4.4397   -1.3756   -0.0602 C   0  0  0  0  0  0  0  0  0  0  0  0
    3.8181   -2.5872    0.1190 N   0  0  0  0  0  0  0  0  0  0  0  0
    7.2695    2.3315   -0.4740 H   0  0  0  0  0  0  0  0  0  0  0  0
    3.6572    3.1772   -0.4914 H   0  0  0  0  0  0  0  0  0  0  0  0
    2.8801    5.5467   -0.7064 H   0  0  0  0  0  0  0  0  0  0  0  0
    6.9666    6.8722   -0.9121 H   0  0  0  0  0  0  0  0  0  0  0  0
    7.5332    0.0649   -0.2667 H   0  0  0  0  0  0  0  0  0  0  0  0
    6.4698   -2.1554   -0.0200 H   0  0  0  0  0  0  0  0  0  0  0  0
    4.3394   -3.4287   -0.0897 H   0  0  0  0  0  0  0  0  0  0  0  0
    2.8188   -2.6439   -0.0419 H   0  0  0  0  0  0  0  0  0  0  0  0
  1  2  3  0
  2  3  1  0
  3  4  2  0
  3 17  1  0
  4  5  1  0
  5  6  1  0
  5 15  2  0
  6  7  1  0
  6 19  1  0
  7  8  2  0
  7 13  1  0
  8  9  1  0
  8 20  1  0
  9 10  2  0
  9 21  1  0
 10 11  1  0
 10 12  1  0
 12 13  2  0
 12 22  1  0
 13 14  1  0
 15 16  1  0
 15 23  1  0
 16 17  2  0
 16 24  1  0
 17 18  1  0
 18 25  1  0
 18 26  1  0
M  END

