
     RDKit          3D

 78 85  0  0  0  0  0  0  0  0999 V2000
    2.9065    1.0646   -1.1843 C   0  0  0  0  0  0  0  0  0  0  0  0
    4.1545    0.8218   -0.3268 C   0  0  2  0  0  0  0  0  0  0  0  0
    3.8500    1.0406    1.1687 C   0  0  0  0  0  0  0  0  0  0  0  0
    3.4964    2.4967    1.4892 C   0  0  0  0  0  0  0  0  0  0  0  0
    4.4058    3.5203    0.8332 C   0  0  0  0  0  0  0  0  0  0  0  0
    5.2522    3.1513   -0.2071 C   0  0  0  0  0  0  0  0  0  0  0  0
    6.0699    4.1406   -0.8195 C   0  0  0  0  0  0  0  0  0  0  0  0
    6.0651    5.4502   -0.4039 C   0  0  0  0  0  0  0  0  0  0  0  0
    5.2153    5.8764    0.6568 C   0  0  0  0  0  0  0  0  0  0  0  0
    5.1824    7.2480    1.0962 C   0  0  0  0  0  0  0  0  0  0  0  0
    6.1871    8.2386    0.5955 C   0  0  0  0  0  0  0  0  0  0  0  0
    5.7872    9.3694   -0.1083 C   0  0  0  0  0  0  0  0  0  0  0  0
    4.4388    9.6027   -0.2422 O   0  0  0  0  0  0  0  0  0  0  0  0
    6.7212   10.2849   -0.6423 C   0  0  0  0  0  0  0  0  0  0  0  0
    8.0713   10.0867   -0.4620 C   0  0  0  0  0  0  0  0  0  0  0  0
    8.5574    8.9874    0.2981 C   0  0  0  0  0  0  0  0  0  0  0  0
    9.9662    8.8014    0.5367 C   0  0  0  0  0  0  0  0  0  0  0  0
   10.3922    7.7623    1.3556 C   0  0  0  0  0  0  0  0  0  0  0  0
    9.4258    6.8904    1.9306 C   0  0  0  0  0  0  0  0  0  0  0  0
    8.0814    7.0253    1.6858 C   0  0  0  0  0  0  0  0  0  0  0  0
    7.5955    8.0722    0.8509 C   0  0  0  0  0  0  0  0  0  0  0  0
   11.8549    7.5117    1.6601 C   0  0  1  0  0  0  0  0  0  0  0  0
   11.9315    7.2711    2.7358 H   0  0  0  0  0  0  0  0  0  0  0  0
   12.4754    6.3158    0.8659 C   0  0  0  0  0  0  0  0  0  0  0  0
   13.9596    6.6862    0.6245 C   0  0  0  0  0  0  0  0  0  0  0  0
   14.1748    8.0314    1.3483 C   0  0  1  0  0  0  0  0  0  0  0  0
   14.4560    7.8261    2.4024 H   0  0  0  0  0  0  0  0  0  0  0  0
   15.1341    8.8811    0.7516 O   0  0  0  0  0  0  0  0  0  0  0  0
   12.7885    8.7123    1.3796 C   0  0  2  0  0  0  0  0  0  0  0  0
   12.7304    9.7910    2.4682 C   0  0  0  0  0  0  0  0  0  0  0  0
   12.4221    9.2967    0.0008 C   0  0  0  0  0  0  0  0  0  0  0  0
   10.9664    9.7702   -0.0681 C   0  0  0  0  0  0  0  0  0  0  0  0
    4.2124    7.6297    2.0262 C   0  0  0  0  0  0  0  0  0  0  0  0
    4.0284    8.9152    2.4224 O   0  0  0  0  0  0  0  0  0  0  0  0
    3.3709    6.6595    2.6256 C   0  0  0  0  0  0  0  0  0  0  0  0
    3.4548    5.3342    2.2715 C   0  0  0  0  0  0  0  0  0  0  0  0
    4.3572    4.8946    1.2605 C   0  0  0  0  0  0  0  0  0  0  0  0
    5.3469    1.7268   -0.7152 C   0  0  1  0  0  0  0  0  0  0  0  0
    5.3883    1.7710   -1.8186 H   0  0  0  0  0  0  0  0  0  0  0  0
    6.6188    0.9577   -0.2292 C   0  0  0  0  0  0  0  0  0  0  0  0
    6.1976   -0.5266   -0.0959 C   0  0  0  0  0  0  0  0  0  0  0  0
    4.7343   -0.5874   -0.5806 C   0  0  1  0  0  0  0  0  0  0  0  0
    4.7310   -0.7430   -1.6798 H   0  0  0  0  0  0  0  0  0  0  0  0
    3.9407   -1.5750    0.0468 O   0  0  0  0  0  0  0  0  0  0  0  0
    2.5103    2.0843   -1.0642 H   0  0  0  0  0  0  0  0  0  0  0  0
    2.1126    0.3504   -0.9138 H   0  0  0  0  0  0  0  0  0  0  0  0
    3.1349    0.9252   -2.2541 H   0  0  0  0  0  0  0  0  0  0  0  0
    4.7288    0.7494    1.7671 H   0  0  0  0  0  0  0  0  0  0  0  0
    3.0355    0.3717    1.4845 H   0  0  0  0  0  0  0  0  0  0  0  0
    3.5168    2.6269    2.5835 H   0  0  0  0  0  0  0  0  0  0  0  0
    2.4516    2.7070    1.1948 H   0  0  0  0  0  0  0  0  0  0  0  0
    6.7143    3.8454   -1.6532 H   0  0  0  0  0  0  0  0  0  0  0  0
    6.7014    6.1796   -0.9058 H   0  0  0  0  0  0  0  0  0  0  0  0
    4.2942   10.3788   -0.7996 H   0  0  0  0  0  0  0  0  0  0  0  0
    6.3602   11.1527   -1.2040 H   0  0  0  0  0  0  0  0  0  0  0  0
    8.7683   10.8041   -0.8945 H   0  0  0  0  0  0  0  0  0  0  0  0
    9.7704    6.0926    2.5954 H   0  0  0  0  0  0  0  0  0  0  0  0
    7.3724    6.3410    2.1504 H   0  0  0  0  0  0  0  0  0  0  0  0
   11.9457    6.1782   -0.0886 H   0  0  0  0  0  0  0  0  0  0  0  0
   12.3601    5.3737    1.4227 H   0  0  0  0  0  0  0  0  0  0  0  0
   14.1685    6.8301   -0.4471 H   0  0  0  0  0  0  0  0  0  0  0  0
   14.6562    5.9128    0.9860 H   0  0  0  0  0  0  0  0  0  0  0  0
   16.0021    8.4661    0.8284 H   0  0  0  0  0  0  0  0  0  0  0  0
   12.9749    9.3634    3.4547 H   0  0  0  0  0  0  0  0  0  0  0  0
   11.7332   10.2497    2.5487 H   0  0  0  0  0  0  0  0  0  0  0  0
   13.4617   10.5870    2.2559 H   0  0  0  0  0  0  0  0  0  0  0  0
   12.5825    8.5310   -0.7757 H   0  0  0  0  0  0  0  0  0  0  0  0
   13.1042   10.1238   -0.2462 H   0  0  0  0  0  0  0  0  0  0  0  0
   10.7118    9.9590   -1.1238 H   0  0  0  0  0  0  0  0  0  0  0  0
   10.8625   10.7504    0.4331 H   0  0  0  0  0  0  0  0  0  0  0  0
    4.1642    9.4896    1.6505 H   0  0  0  0  0  0  0  0  0  0  0  0
    2.6524    7.0068    3.3711 H   0  0  0  0  0  0  0  0  0  0  0  0
    2.7915    4.6186    2.7577 H   0  0  0  0  0  0  0  0  0  0  0  0
    6.9572    1.3572    0.7385 H   0  0  0  0  0  0  0  0  0  0  0  0
    7.4543    1.0983   -0.9317 H   0  0  0  0  0  0  0  0  0  0  0  0
    6.2307   -0.8608    0.9529 H   0  0  0  0  0  0  0  0  0  0  0  0
    6.8462   -1.2079   -0.6702 H   0  0  0  0  0  0  0  0  0  0  0  0
    4.2797   -2.4440   -0.2014 H   0  0  0  0  0  0  0  0  0  0  0  0
  2  1  1  6
  1 45  1  0
  1 46  1  0
  1 47  1  0
  2  3  1  0
  2 38  1  0
  2 42  1  0
  3  4  1  0
  3 48  1  0
  3 49  1  0
  4  5  1  0
  4 50  1  0
  4 51  1  0
  5  6  2  0
  5 37  1  0
  6  7  1  0
  6 38  1  0
  7  8  2  0
  7 52  1  0
  8  9  1  0
  8 53  1  0
  9 10  1  0
  9 37  2  0
 10 11  1  0
 10 33  2  0
 11 12  2  0
 11 21  1  0
 12 13  1  0
 12 14  1  0
 13 54  1  0
 14 15  2  0
 14 55  1  0
 15 16  1  0
 15 56  1  0
 16 17  1  0
 16 21  2  0
 17 18  2  0
 17 32  1  0
 18 19  1  0
 18 22  1  0
 19 20  2  0
 19 57  1  0
 20 21  1  0
 20 58  1  0
 22 23  1  1
 22 24  1  0
 22 29  1  0
 24 25  1  0
 24 59  1  0
 24 60  1  0
 25 26  1  0
 25 61  1  0
 25 62  1  0
 26 27  1  1
 26 28  1  0
 26 29  1  0
 28 63  1  0
 29 30  1  1
 29 31  1  0
 30 64  1  0
 30 65  1  0
 30 66  1  0
 31 32  1  0
 31 67  1  0
 31 68  1  0
 32 69  1  0
 32 70  1  0
 33 34  1  0
 33 35  1  0
 34 71  1  0
 35 36  2  0
 35 72  1  0
 36 37  1  0
 36 73  1  0
 38 39  1  6
 38 40  1  0
 40 41  1  0
 40 74  1  0
 40 75  1  0
 41 42  1  0
 41 76  1  0
 41 77  1  0
 42 43  1  6
 42 44  1  0
 44 78  1  0
M  END

