
     RDKit          3D

 47 48  0  0  0  0  0  0  0  0999 V2000
    2.9707   -0.6146   -1.7593 C   0  0  0  0  0  0  0  0  0  0  0  0
    2.4467    0.3263   -0.6694 C   0  0  0  0  0  0  0  0  0  0  0  0
    3.2838    1.5947   -0.3434 C   0  0  1  0  0  0  0  0  0  0  0  0
    3.7402    2.3403   -1.6335 C   0  0  0  0  0  0  0  0  0  0  0  0
    2.6262    2.8321   -2.5646 C   0  0  0  0  0  0  0  0  0  0  0  0
    2.4366    2.5444    0.5434 C   0  0  0  0  0  0  0  0  0  0  0  0
    2.2149    1.9930    1.8781 N   0  0  0  0  0  0  0  0  0  0  0  0
    4.5652    1.1901    0.4356 C   0  0  0  0  0  0  0  0  0  0  0  0
    4.9077    0.0285    0.5157 O   0  0  0  0  0  0  0  0  0  0  0  0
    5.3633    2.2862    1.1377 C   0  0  0  0  0  0  0  0  0  0  0  0
    6.8243    1.9184    1.4883 C   0  0  2  0  0  0  0  0  0  0  0  0
    7.3291    2.7307    2.6942 C   0  0  0  0  0  0  0  0  0  0  0  0
    7.6176    4.1844    2.3123 C   0  0  0  0  0  0  0  0  0  0  0  0
    8.7246    4.2480    1.2567 C   0  0  0  0  0  0  0  0  0  0  0  0
    8.5946    3.2088    0.1551 C   0  0  0  0  0  0  0  0  0  0  0  0
    9.3896    3.3371   -0.9972 C   0  0  0  0  0  0  0  0  0  0  0  0
    9.3734    2.3757   -2.0060 C   0  0  0  0  0  0  0  0  0  0  0  0
    8.5565    1.2488   -1.8673 C   0  0  0  0  0  0  0  0  0  0  0  0
    7.7582    1.1103   -0.7321 C   0  0  0  0  0  0  0  0  0  0  0  0
    7.7520    2.0834    0.2852 C   0  0  0  0  0  0  0  0  0  0  0  0
    2.3067   -1.4898   -1.8492 H   0  0  0  0  0  0  0  0  0  0  0  0
    3.9763   -0.9818   -1.5159 H   0  0  0  0  0  0  0  0  0  0  0  0
    3.0050   -0.1343   -2.7498 H   0  0  0  0  0  0  0  0  0  0  0  0
    2.3429   -0.2558    0.2606 H   0  0  0  0  0  0  0  0  0  0  0  0
    1.4292    0.6562   -0.9449 H   0  0  0  0  0  0  0  0  0  0  0  0
    4.4140    1.6766   -2.1990 H   0  0  0  0  0  0  0  0  0  0  0  0
    4.3588    3.2056   -1.3436 H   0  0  0  0  0  0  0  0  0  0  0  0
    1.9815    2.0116   -2.9152 H   0  0  0  0  0  0  0  0  0  0  0  0
    3.0647    3.3076   -3.4566 H   0  0  0  0  0  0  0  0  0  0  0  0
    1.9787    3.5818   -2.0839 H   0  0  0  0  0  0  0  0  0  0  0  0
    1.5001    2.7773   -0.0027 H   0  0  0  0  0  0  0  0  0  0  0  0
    2.9663    3.5041    0.6598 H   0  0  0  0  0  0  0  0  0  0  0  0
    1.6151    1.1693    1.8360 H   0  0  0  0  0  0  0  0  0  0  0  0
    1.7304    2.6689    2.4680 H   0  0  0  0  0  0  0  0  0  0  0  0
    4.7899    2.4543    2.0679 H   0  0  0  0  0  0  0  0  0  0  0  0
    5.3107    3.2276    0.5710 H   0  0  0  0  0  0  0  0  0  0  0  0
    6.8094    0.8524    1.7635 H   0  0  0  0  0  0  0  0  0  0  0  0
    8.2564    2.2687    3.0782 H   0  0  0  0  0  0  0  0  0  0  0  0
    6.5922    2.6787    3.5129 H   0  0  0  0  0  0  0  0  0  0  0  0
    7.9120    4.7704    3.1985 H   0  0  0  0  0  0  0  0  0  0  0  0
    6.6978    4.6566    1.9246 H   0  0  0  0  0  0  0  0  0  0  0  0
    9.7002    4.0905    1.7549 H   0  0  0  0  0  0  0  0  0  0  0  0
    8.7820    5.2561    0.8122 H   0  0  0  0  0  0  0  0  0  0  0  0
   10.0405    4.2120   -1.0946 H   0  0  0  0  0  0  0  0  0  0  0  0
   10.0015    2.4993   -2.8923 H   0  0  0  0  0  0  0  0  0  0  0  0
    8.5448    0.4762   -2.6407 H   0  0  0  0  0  0  0  0  0  0  0  0
    7.1256    0.2278   -0.6158 H   0  0  0  0  0  0  0  0  0  0  0  0
  1  2  1  0
  1 21  1  0
  1 22  1  0
  1 23  1  0
  2  3  1  0
  2 24  1  0
  2 25  1  0
  3  4  1  0
  3  6  1  0
  3  8  1  1
  4  5  1  0
  4 26  1  0
  4 27  1  0
  5 28  1  0
  5 29  1  0
  5 30  1  0
  6  7  1  0
  6 31  1  0
  6 32  1  0
  7 33  1  0
  7 34  1  0
  8  9  2  0
  8 10  1  0
 10 11  1  0
 10 35  1  0
 10 36  1  0
 11 12  1  0
 11 20  1  0
 11 37  1  1
 12 13  1  0
 12 38  1  0
 12 39  1  0
 13 14  1  0
 13 40  1  0
 13 41  1  0
 14 15  1  0
 14 42  1  0
 14 43  1  0
 15 16  1  0
 15 20  2  0
 16 17  2  0
 16 44  1  0
 17 18  1  0
 17 45  1  0
 18 19  2  0
 18 46  1  0
 19 20  1  0
 19 47  1  0
M  END

