
     RDKit          3D

 44 46  0  0  0  0  0  0  0  0999 V2000
    1.7486    1.4531   -0.1875 C   0  0  0  0  0  0  0  0  0  0  0  0
    1.9464    0.0609   -0.2931 O   0  0  0  0  0  0  0  0  0  0  0  0
    2.7001   -0.4282   -1.3115 C   0  0  0  0  0  0  0  0  0  0  0  0
    3.3521    0.3566   -2.2645 C   0  0  0  0  0  0  0  0  0  0  0  0
    4.0968   -0.2195   -3.3114 C   0  0  0  0  0  0  0  0  0  0  0  0
    4.1880   -1.6147   -3.4024 C   0  0  0  0  0  0  0  0  0  0  0  0
    3.5407   -2.4024   -2.4341 C   0  0  0  0  0  0  0  0  0  0  0  0
    2.8043   -1.8420   -1.3970 C   0  0  0  0  0  0  0  0  0  0  0  0
    2.1433   -2.6660   -0.5339 O   0  0  0  0  0  0  0  0  0  0  0  0
    2.5455   -2.6513    0.8280 C   0  0  0  0  0  0  0  0  0  0  0  0
    4.9504   -2.3155   -4.5202 C   0  0  2  0  0  0  0  0  0  0  0  0
    6.2058   -3.0721   -4.0705 C   0  0  0  0  0  0  0  0  0  0  0  0
    6.6712   -4.1383   -4.8602 C   0  0  0  0  0  0  0  0  0  0  0  0
    7.8342   -4.8275   -4.5110 C   0  0  0  0  0  0  0  0  0  0  0  0
    8.5522   -4.4627   -3.3668 C   0  0  0  0  0  0  0  0  0  0  0  0
    8.0965   -3.4066   -2.5744 C   0  0  0  0  0  0  0  0  0  0  0  0
    6.9292   -2.7179   -2.9225 C   0  0  0  0  0  0  0  0  0  0  0  0
    5.2776   -1.3600   -5.5998 N   0  0  0  0  0  0  0  0  0  0  0  0
    5.0091   -1.7299   -6.8792 C   0  0  0  0  0  0  0  0  0  0  0  0
    4.5761   -2.8164   -7.2156 O   0  0  0  0  0  0  0  0  0  0  0  0
    5.2696   -0.6709   -7.9903 C   0  0  1  0  0  0  0  0  0  0  0  0
    4.5797    0.4663   -7.7603 F   0  0  0  0  0  0  0  0  0  0  0  0
    6.5752   -0.3444   -8.0674 F   0  0  0  0  0  0  0  0  0  0  0  0
    4.8958   -1.1431   -9.1688 F   0  0  0  0  0  0  0  0  0  0  0  0
    5.8182   -0.0821   -5.1399 C   0  0  0  0  0  0  0  0  0  0  0  0
    4.7555    0.6718   -4.3445 C   0  0  0  0  0  0  0  0  0  0  0  0
    1.0937    1.6110    0.6798 H   0  0  0  0  0  0  0  0  0  0  0  0
    1.2577    1.8652   -1.0872 H   0  0  0  0  0  0  0  0  0  0  0  0
    2.6983    1.9934   -0.0216 H   0  0  0  0  0  0  0  0  0  0  0  0
    3.2820    1.4442   -2.2153 H   0  0  0  0  0  0  0  0  0  0  0  0
    3.5926   -3.4929   -2.4787 H   0  0  0  0  0  0  0  0  0  0  0  0
    1.9487   -3.4195    1.3395 H   0  0  0  0  0  0  0  0  0  0  0  0
    2.3600   -1.6743    1.3011 H   0  0  0  0  0  0  0  0  0  0  0  0
    3.6163   -2.9073    0.9293 H   0  0  0  0  0  0  0  0  0  0  0  0
    4.2799   -3.0503   -4.9857 H   0  0  0  0  0  0  0  0  0  0  0  0
    6.1136   -4.4200   -5.7570 H   0  0  0  0  0  0  0  0  0  0  0  0
    8.1800   -5.6568   -5.1335 H   0  0  0  0  0  0  0  0  0  0  0  0
    9.4612   -5.0040   -3.0921 H   0  0  0  0  0  0  0  0  0  0  0  0
    8.6480   -3.1181   -1.6756 H   0  0  0  0  0  0  0  0  0  0  0  0
    6.5705   -1.9069   -2.2846 H   0  0  0  0  0  0  0  0  0  0  0  0
    6.1854    0.5124   -5.9804 H   0  0  0  0  0  0  0  0  0  0  0  0
    6.6912   -0.3008   -4.5012 H   0  0  0  0  0  0  0  0  0  0  0  0
    3.9946    1.0569   -5.0467 H   0  0  0  0  0  0  0  0  0  0  0  0
    5.2099    1.5517   -3.8593 H   0  0  0  0  0  0  0  0  0  0  0  0
  1  2  1  0
  1 27  1  0
  1 28  1  0
  1 29  1  0
  2  3  1  0
  3  4  2  0
  3  8  1  0
  4  5  1  0
  4 30  1  0
  5  6  2  0
  5 26  1  0
  6  7  1  0
  6 11  1  0
  7  8  2  0
  7 31  1  0
  8  9  1  0
  9 10  1  0
 10 32  1  0
 10 33  1  0
 10 34  1  0
 11 12  1  0
 11 18  1  0
 11 35  1  6
 12 13  2  0
 12 17  1  0
 13 14  1  0
 13 36  1  0
 14 15  2  0
 14 37  1  0
 15 16  1  0
 15 38  1  0
 16 17  2  0
 16 39  1  0
 17 40  1  0
 18 19  1  0
 18 25  1  0
 19 20  2  0
 19 21  1  0
 21 22  1  1
 21 23  1  0
 21 24  1  0
 25 26  1  0
 25 41  1  0
 25 42  1  0
 26 43  1  0
 26 44  1  0
M  END

