
     RDKit          3D

 35 37  0  0  0  0  0  0  0  0999 V2000
    2.1423   -0.7417   -1.0195 O   0  0  0  0  0  0  0  0  0  0  0  0
    1.9679    0.2559   -0.3450 C   0  0  0  0  0  0  0  0  0  0  0  0
    0.9825    1.0991   -0.6994 O   0  0  0  0  0  0  0  0  0  0  0  0
    2.7323    0.5656    0.9024 C   0  0  0  0  0  0  0  0  0  0  0  0
    3.2156   -0.5158    1.6665 C   0  0  0  0  0  0  0  0  0  0  0  0
    3.2209   -1.8141    1.1339 N   0  0  0  0  0  0  0  0  0  0  0  0
    2.6238   -3.1561    2.0052 S   0  0  1  0  0  0  0  0  0  0  0  0
    3.4332   -3.3122    3.2140 O   0  0  0  0  0  0  0  0  0  0  0  0
    1.1643   -3.0988    2.0912 O   0  0  0  0  0  0  0  0  0  0  0  0
    3.0597   -4.4551    0.8509 C   0  0  0  0  0  0  0  0  0  0  0  0
    4.3572   -4.9717    0.8261 C   0  0  0  0  0  0  0  0  0  0  0  0
    4.6969   -5.9511   -0.0083 N   0  0  0  0  0  0  0  0  0  0  0  0
    3.7935   -6.4570   -0.8291 C   0  0  0  0  0  0  0  0  0  0  0  0
    4.3265   -7.7277   -1.8872 Cl  0  0  0  0  0  0  0  0  0  0  0  0
    2.4517   -6.0110   -0.8653 C   0  0  0  0  0  0  0  0  0  0  0  0
    1.1611   -6.7552   -2.0285 Br  0  0  0  0  0  0  0  0  0  0  0  0
    2.0850   -4.9827    0.0029 C   0  0  0  0  0  0  0  0  0  0  0  0
    3.7433   -0.2902    2.9720 C   0  0  0  0  0  0  0  0  0  0  0  0
    3.8175    0.9808    3.4779 C   0  0  0  0  0  0  0  0  0  0  0  0
    3.4414    2.1160    2.7058 C   0  0  0  0  0  0  0  0  0  0  0  0
    3.6075    3.4315    3.2135 C   0  0  0  0  0  0  0  0  0  0  0  0
    3.3034    4.5368    2.4457 C   0  0  0  0  0  0  0  0  0  0  0  0
    2.8448    4.3534    1.1229 C   0  0  0  0  0  0  0  0  0  0  0  0
    2.6646    3.0843    0.6025 C   0  0  0  0  0  0  0  0  0  0  0  0
    2.9214    1.9162    1.3831 C   0  0  0  0  0  0  0  0  0  0  0  0
    0.8655    1.7888   -0.0283 H   0  0  0  0  0  0  0  0  0  0  0  0
    2.8675   -1.8123    0.1617 H   0  0  0  0  0  0  0  0  0  0  0  0
    5.1284   -4.5881    1.5006 H   0  0  0  0  0  0  0  0  0  0  0  0
    1.0629   -4.6009    0.0305 H   0  0  0  0  0  0  0  0  0  0  0  0
    4.0815   -1.1474    3.5519 H   0  0  0  0  0  0  0  0  0  0  0  0
    4.2110    1.1392    4.4855 H   0  0  0  0  0  0  0  0  0  0  0  0
    3.9958    3.5519    4.2284 H   0  0  0  0  0  0  0  0  0  0  0  0
    3.4371    5.5445    2.8454 H   0  0  0  0  0  0  0  0  0  0  0  0
    2.6467    5.2233    0.4917 H   0  0  0  0  0  0  0  0  0  0  0  0
    2.3642    2.9919   -0.4419 H   0  0  0  0  0  0  0  0  0  0  0  0
  1  2  2  0
  2  3  1  0
  2  4  1  0
  3 26  1  0
  4  5  2  0
  4 25  1  0
  5  6  1  0
  5 18  1  0
  7  6  1  6
  6 27  1  0
  7  8  2  0
  7  9  2  0
  7 10  1  0
 10 11  2  0
 10 17  1  0
 11 12  1  0
 11 28  1  0
 12 13  2  0
 13 14  1  0
 13 15  1  0
 15 16  1  0
 15 17  2  0
 17 29  1  0
 18 19  2  0
 18 30  1  0
 19 20  1  0
 19 31  1  0
 20 21  1  0
 20 25  2  0
 21 22  2  0
 21 32  1  0
 22 23  1  0
 22 33  1  0
 23 24  2  0
 23 34  1  0
 24 25  1  0
 24 35  1  0
M  END

