
     RDKit          3D

 49 52  0  0  0  0  0  0  0  0999 V2000
    5.2207    4.1406   -1.3376 C   0  0  0  0  0  0  0  0  0  0  0  0
    4.9360    3.1360   -2.2832 O   0  0  0  0  0  0  0  0  0  0  0  0
    4.8467    1.8432   -1.8703 C   0  0  0  0  0  0  0  0  0  0  0  0
    5.0219    1.4176   -0.5446 C   0  0  0  0  0  0  0  0  0  0  0  0
    4.9017    0.0531   -0.2575 C   0  0  0  0  0  0  0  0  0  0  0  0
    4.6148   -0.8943   -1.2383 C   0  0  0  0  0  0  0  0  0  0  0  0
    4.4432   -0.4579   -2.5668 C   0  0  0  0  0  0  0  0  0  0  0  0
    4.1586   -1.3314   -3.6280 N   0  0  0  0  0  0  0  0  0  0  0  0
    3.9926   -2.6955   -3.6023 C   0  0  0  0  0  0  0  0  0  0  0  0
    3.9950   -3.4986   -2.5609 N   0  0  0  0  0  0  0  0  0  0  0  0
    3.7827   -4.7692   -3.0234 N   0  0  0  0  0  0  0  0  0  0  0  0
    3.6674   -4.7279   -4.3309 C   0  0  0  0  0  0  0  0  0  0  0  0
    3.4634   -5.8799   -5.1973 C   0  0  0  0  0  0  0  0  0  0  0  0
    2.2411   -5.8880   -6.4818 S   0  0  0  0  0  0  0  0  0  0  0  0
    2.6633   -7.5749   -6.8099 C   0  0  0  0  0  0  0  0  0  0  0  0
    2.0844   -8.2721   -7.8342 N   0  0  0  0  0  0  0  0  0  0  0  0
    0.9112   -7.7738   -8.5372 C   0  0  0  0  0  0  0  0  0  0  0  0
    0.8702   -8.3563   -9.9506 C   0  0  0  0  0  0  0  0  0  0  0  0
    0.9633   -9.7626   -9.9362 O   0  0  0  0  0  0  0  0  0  0  0  0
    2.1690  -10.1962   -9.3357 C   0  0  0  0  0  0  0  0  0  0  0  0
    2.2733   -9.7220   -7.8909 C   0  0  0  0  0  0  0  0  0  0  0  0
    3.5753   -8.0605   -6.0144 N   0  0  0  0  0  0  0  0  0  0  0  0
    4.0324   -7.1348   -5.1086 C   0  0  0  0  0  0  0  0  0  0  0  0
    5.0798   -7.5571   -4.1242 C   0  0  0  0  0  0  0  0  0  0  0  0
    3.7991   -3.4080   -4.7652 N   0  0  0  0  0  0  0  0  0  0  0  0
    3.8748   -2.8907   -6.1155 C   0  0  0  0  0  0  0  0  0  0  0  0
    4.5602    0.9063   -2.8719 C   0  0  0  0  0  0  0  0  0  0  0  0
    5.2433    5.0916   -1.8874 H   0  0  0  0  0  0  0  0  0  0  0  0
    6.2017    3.9858   -0.8528 H   0  0  0  0  0  0  0  0  0  0  0  0
    4.4451    4.2011   -0.5526 H   0  0  0  0  0  0  0  0  0  0  0  0
    5.2456    2.1236    0.2545 H   0  0  0  0  0  0  0  0  0  0  0  0
    5.0348   -0.2831    0.7743 H   0  0  0  0  0  0  0  0  0  0  0  0
    4.5146   -1.9522   -1.0038 H   0  0  0  0  0  0  0  0  0  0  0  0
    4.0111   -0.8825   -4.5219 H   0  0  0  0  0  0  0  0  0  0  0  0
    0.9556   -6.6755   -8.6006 H   0  0  0  0  0  0  0  0  0  0  0  0
   -0.0170   -8.0450   -7.9940 H   0  0  0  0  0  0  0  0  0  0  0  0
    1.6986   -7.9208  -10.5474 H   0  0  0  0  0  0  0  0  0  0  0  0
   -0.0817   -8.0966  -10.4380 H   0  0  0  0  0  0  0  0  0  0  0  0
    3.0395   -9.8237   -9.9140 H   0  0  0  0  0  0  0  0  0  0  0  0
    2.1720  -11.2957   -9.3754 H   0  0  0  0  0  0  0  0  0  0  0  0
    3.2546   -9.9600   -7.4607 H   0  0  0  0  0  0  0  0  0  0  0  0
    1.5023  -10.2282   -7.2762 H   0  0  0  0  0  0  0  0  0  0  0  0
    5.9454   -7.9864   -4.6544 H   0  0  0  0  0  0  0  0  0  0  0  0
    4.6776   -8.3489   -3.4709 H   0  0  0  0  0  0  0  0  0  0  0  0
    5.3975   -6.7244   -3.4863 H   0  0  0  0  0  0  0  0  0  0  0  0
    3.9981   -3.7239   -6.8181 H   0  0  0  0  0  0  0  0  0  0  0  0
    4.7473   -2.2248   -6.2182 H   0  0  0  0  0  0  0  0  0  0  0  0
    2.9637   -2.3348   -6.3964 H   0  0  0  0  0  0  0  0  0  0  0  0
    4.4335    1.2729   -3.8940 H   0  0  0  0  0  0  0  0  0  0  0  0
  1  2  1  0
  1 28  1  0
  1 29  1  0
  1 30  1  0
  2  3  1  0
  3  4  2  0
  3 27  1  0
  4  5  1  0
  4 31  1  0
  5  6  2  0
  5 32  1  0
  6  7  1  0
  6 33  1  0
  7  8  1  0
  7 27  2  0
  8  9  1  0
  8 34  1  0
  9 10  2  0
  9 25  1  0
 10 11  1  0
 11 12  2  0
 12 13  1  0
 12 25  1  0
 13 14  1  0
 13 23  2  0
 14 15  1  0
 15 16  1  0
 15 22  2  0
 16 17  1  0
 16 21  1  0
 17 18  1  0
 17 35  1  0
 17 36  1  0
 18 19  1  0
 18 37  1  0
 18 38  1  0
 19 20  1  0
 20 21  1  0
 20 39  1  0
 20 40  1  0
 21 41  1  0
 21 42  1  0
 22 23  1  0
 23 24  1  0
 24 43  1  0
 24 44  1  0
 24 45  1  0
 25 26  1  0
 26 46  1  0
 26 47  1  0
 26 48  1  0
 27 49  1  0
M  END

