
     RDKit          3D

 37 36  0  0  0  0  0  0  0  0999 V2000
    4.3113   -3.1467    2.6065 C   0  0  0  0  0  0  0  0  0  0  0  0
    4.0954   -2.8097    1.1289 C   0  0  0  0  0  0  0  0  0  0  0  0
    4.7807   -1.5108    0.6607 C   0  0  2  0  0  0  0  0  0  0  0  0
    4.2591   -0.2627    1.3837 C   0  0  0  0  0  0  0  0  0  0  0  0
    4.6502   -1.3089   -0.8817 C   0  0  2  0  0  0  0  0  0  0  0  0
    5.1213   -0.3409   -1.1176 H   0  0  0  0  0  0  0  0  0  0  0  0
    3.2513   -1.2228   -1.2809 N   0  0  0  0  0  0  0  0  0  0  0  0
    5.3789   -2.4301   -1.6616 C   0  0  0  0  0  0  0  0  0  0  0  0
    4.7161   -3.3377   -2.1588 O   0  0  0  0  0  0  0  0  0  0  0  0
    6.7452   -2.4002   -1.7799 N   0  0  0  0  0  0  0  0  0  0  0  0
    7.6234   -1.4235   -1.1628 C   0  0  0  0  0  0  0  0  0  0  0  0
    7.3929   -3.5349   -2.4341 C   0  0  0  0  0  0  0  0  0  0  0  0
    7.8333   -4.6543   -1.4832 C   0  0  0  0  0  0  0  0  0  0  0  0
    6.7422   -5.1361   -0.6626 N   0  0  0  0  0  0  0  0  0  0  0  0
    7.0524   -6.3105    0.1238 C   0  0  0  0  0  0  0  0  0  0  0  0
    3.8586   -4.1202    2.8551 H   0  0  0  0  0  0  0  0  0  0  0  0
    3.8632   -2.3993    3.2803 H   0  0  0  0  0  0  0  0  0  0  0  0
    5.3858   -3.2127    2.8492 H   0  0  0  0  0  0  0  0  0  0  0  0
    3.0139   -2.7370    0.9206 H   0  0  0  0  0  0  0  0  0  0  0  0
    4.4802   -3.6455    0.5233 H   0  0  0  0  0  0  0  0  0  0  0  0
    5.8567   -1.6154    0.8897 H   0  0  0  0  0  0  0  0  0  0  0  0
    3.2000   -0.0979    1.1352 H   0  0  0  0  0  0  0  0  0  0  0  0
    4.8178    0.6372    1.0756 H   0  0  0  0  0  0  0  0  0  0  0  0
    4.3579   -0.3512    2.4760 H   0  0  0  0  0  0  0  0  0  0  0  0
    2.9256   -2.1746   -1.4661 H   0  0  0  0  0  0  0  0  0  0  0  0
    3.1833   -0.7487   -2.1813 H   0  0  0  0  0  0  0  0  0  0  0  0
    7.0833   -0.5074   -0.8998 H   0  0  0  0  0  0  0  0  0  0  0  0
    8.4240   -1.1466   -1.8692 H   0  0  0  0  0  0  0  0  0  0  0  0
    8.1017   -1.8107   -0.2451 H   0  0  0  0  0  0  0  0  0  0  0  0
    8.2735   -3.1651   -2.9854 H   0  0  0  0  0  0  0  0  0  0  0  0
    6.6801   -3.9379   -3.1666 H   0  0  0  0  0  0  0  0  0  0  0  0
    8.6436   -4.2956   -0.8190 H   0  0  0  0  0  0  0  0  0  0  0  0
    8.2984   -5.4498   -2.1141 H   0  0  0  0  0  0  0  0  0  0  0  0
    5.9020   -5.2647   -1.2250 H   0  0  0  0  0  0  0  0  0  0  0  0
    7.8468   -6.0794    0.8553 H   0  0  0  0  0  0  0  0  0  0  0  0
    7.4063   -7.1836   -0.4711 H   0  0  0  0  0  0  0  0  0  0  0  0
    6.1657   -6.6279    0.6942 H   0  0  0  0  0  0  0  0  0  0  0  0
  1  2  1  0
  1 16  1  0
  1 17  1  0
  1 18  1  0
  2  3  1  0
  2 19  1  0
  2 20  1  0
  3  4  1  0
  3  5  1  0
  3 21  1  6
  4 22  1  0
  4 23  1  0
  4 24  1  0
  5  6  1  1
  5  7  1  0
  5  8  1  0
  7 25  1  0
  7 26  1  0
  8  9  2  0
  8 10  1  0
 10 11  1  0
 10 12  1  0
 11 27  1  0
 11 28  1  0
 11 29  1  0
 12 13  1  0
 12 30  1  0
 12 31  1  0
 13 14  1  0
 13 32  1  0
 13 33  1  0
 14 15  1  0
 14 34  1  0
 15 35  1  0
 15 36  1  0
 15 37  1  0
M  END

