
     RDKit          3D

 44 45  0  0  0  0  0  0  0  0999 V2000
    1.3204   -2.3606   -2.7269 C   0  0  0  0  0  0  0  0  0  0  0  0
    1.4298   -1.2527   -3.7825 C   0  0  1  0  0  0  0  0  0  0  0  0
    0.1751   -0.3798   -3.8476 C   0  0  0  0  0  0  0  0  0  0  0  0
    2.6045   -0.4089   -3.5705 N   0  0  0  0  0  0  0  0  0  0  0  0
    3.8402   -0.7643   -4.0726 C   0  0  0  0  0  0  0  0  0  0  0  0
    4.0018   -1.7258   -4.8074 O   0  0  0  0  0  0  0  0  0  0  0  0
    4.8598    0.0916   -3.6766 N   0  0  0  0  0  0  0  0  0  0  0  0
    6.2294    0.0218   -3.9872 C   0  0  0  0  0  0  0  0  0  0  0  0
    7.0710    1.0274   -3.4793 C   0  0  0  0  0  0  0  0  0  0  0  0
    8.4413    1.0382   -3.7282 C   0  0  0  0  0  0  0  0  0  0  0  0
    9.0160    0.0188   -4.5081 C   0  0  0  0  0  0  0  0  0  0  0  0
   10.3884   -0.0500   -4.8088 N   0  0  0  0  0  0  0  0  0  0  0  0
   11.4060    0.7991   -4.4304 C   0  0  0  0  0  0  0  0  0  0  0  0
   11.2438    1.7946   -3.7377 O   0  0  0  0  0  0  0  0  0  0  0  0
   12.7382    0.3829   -4.9519 C   0  0  0  0  0  0  0  0  0  0  0  0
   13.8385    1.1045   -4.6749 C   0  0  0  0  0  0  0  0  0  0  0  0
   15.1914    0.7752   -5.1419 C   0  0  0  0  0  0  0  0  0  0  0  0
   16.2768    1.6011   -4.7929 C   0  0  0  0  0  0  0  0  0  0  0  0
   17.5551    1.2729   -5.2453 C   0  0  0  0  0  0  0  0  0  0  0  0
   17.7153    0.1320   -6.0320 C   0  0  0  0  0  0  0  0  0  0  0  0
   16.5759   -0.6300   -6.3288 C   0  0  0  0  0  0  0  0  0  0  0  0
   15.3555   -0.3248   -5.9023 N   0  0  0  0  0  0  0  0  0  0  0  0
    8.1750   -0.9865   -5.0168 C   0  0  0  0  0  0  0  0  0  0  0  0
    6.8047   -0.9963   -4.7692 C   0  0  0  0  0  0  0  0  0  0  0  0
    0.4542   -3.0118   -2.9274 H   0  0  0  0  0  0  0  0  0  0  0  0
    1.1956   -1.9356   -1.7157 H   0  0  0  0  0  0  0  0  0  0  0  0
    2.2256   -2.9860   -2.7329 H   0  0  0  0  0  0  0  0  0  0  0  0
    1.5909   -1.7293   -4.7610 H   0  0  0  0  0  0  0  0  0  0  0  0
   -0.0016    0.1388   -2.8885 H   0  0  0  0  0  0  0  0  0  0  0  0
   -0.7153   -0.9925   -4.0567 H   0  0  0  0  0  0  0  0  0  0  0  0
    0.2648    0.3822   -4.6368 H   0  0  0  0  0  0  0  0  0  0  0  0
    2.5609    0.2410   -2.7927 H   0  0  0  0  0  0  0  0  0  0  0  0
    4.5915    0.9083   -3.1412 H   0  0  0  0  0  0  0  0  0  0  0  0
    6.6439    1.8294   -2.8684 H   0  0  0  0  0  0  0  0  0  0  0  0
    9.0761    1.8245   -3.3271 H   0  0  0  0  0  0  0  0  0  0  0  0
   10.6611   -0.8384   -5.3837 H   0  0  0  0  0  0  0  0  0  0  0  0
   12.8351   -0.5169   -5.5672 H   0  0  0  0  0  0  0  0  0  0  0  0
   13.7176    2.0002   -4.0577 H   0  0  0  0  0  0  0  0  0  0  0  0
   16.1094    2.4860   -4.1747 H   0  0  0  0  0  0  0  0  0  0  0  0
   18.4127    1.8994   -4.9867 H   0  0  0  0  0  0  0  0  0  0  0  0
   18.6949   -0.1677   -6.4107 H   0  0  0  0  0  0  0  0  0  0  0  0
   16.6667   -1.5331   -6.9450 H   0  0  0  0  0  0  0  0  0  0  0  0
    8.6024   -1.7877   -5.6281 H   0  0  0  0  0  0  0  0  0  0  0  0
    6.1697   -1.7792   -5.1766 H   0  0  0  0  0  0  0  0  0  0  0  0
  1  2  1  0
  1 25  1  0
  1 26  1  0
  1 27  1  0
  2  3  1  0
  2  4  1  0
  2 28  1  6
  3 29  1  0
  3 30  1  0
  3 31  1  0
  4  5  1  0
  4 32  1  0
  5  6  2  0
  5  7  1  0
  7  8  1  0
  7 33  1  0
  8  9  2  0
  8 24  1  0
  9 10  1  0
  9 34  1  0
 10 11  2  0
 10 35  1  0
 11 12  1  0
 11 23  1  0
 12 13  1  0
 12 36  1  0
 13 14  2  0
 13 15  1  0
 15 16  2  0
 15 37  1  0
 16 17  1  0
 16 38  1  0
 17 18  2  0
 17 22  1  0
 18 19  1  0
 18 39  1  0
 19 20  2  0
 19 40  1  0
 20 21  1  0
 20 41  1  0
 21 22  2  0
 21 42  1  0
 23 24  2  0
 23 43  1  0
 24 44  1  0
M  END

