
     RDKit          3D

 52 54  0  0  0  0  0  0  0  0999 V2000
    0.4475    0.2073    1.7365 C   0  0  0  0  0  0  0  0  0  0  0  0
    1.5808   -0.3681    1.0102 N   0  0  0  0  0  0  0  0  0  0  0  0
    1.5843   -0.4194   -0.3735 C   0  0  0  0  0  0  0  0  0  0  0  0
    2.9546   -0.8714   -1.2497 S   0  0  0  0  0  0  0  0  0  0  0  0
    0.4329   -0.0254   -0.9719 N   0  0  0  0  0  0  0  0  0  0  0  0
    0.2226    0.0651   -2.4221 C   0  0  1  0  0  0  0  0  0  0  0  0
   -1.2613   -0.1798   -2.7448 C   0  0  0  0  0  0  0  0  0  0  0  0
   -2.1714    0.9851   -2.3234 C   0  0  0  0  0  0  0  0  0  0  0  0
   -1.6838    2.3204   -2.9022 C   0  0  0  0  0  0  0  0  0  0  0  0
   -0.2130    2.5827   -2.5487 C   0  0  0  0  0  0  0  0  0  0  0  0
    0.6883    1.4220   -2.9866 C   0  0  0  0  0  0  0  0  0  0  0  0
    2.4537   -1.1912    1.7819 C   0  0  0  0  0  0  0  0  0  0  0  0
    3.7622   -0.8276    2.0504 C   0  0  0  0  0  0  0  0  0  0  0  0
    4.3129    0.3163    1.5519 N   0  0  0  0  0  0  0  0  0  0  0  0
    4.5616   -1.6175    2.8697 N   0  0  0  0  0  0  0  0  0  0  0  0
    5.9115   -1.1883    3.2540 C   0  0  0  0  0  0  0  0  0  0  0  0
    6.9515   -1.2582    2.1481 C   0  0  0  0  0  0  0  0  0  0  0  0
    6.9855   -2.3304    1.2432 C   0  0  0  0  0  0  0  0  0  0  0  0
    7.9786   -2.3994    0.2640 C   0  0  0  0  0  0  0  0  0  0  0  0
    8.9550   -1.4014    0.1764 C   0  0  0  0  0  0  0  0  0  0  0  0
    8.9306   -0.3306    1.0731 C   0  0  0  0  0  0  0  0  0  0  0  0
    7.9326   -0.2594    2.0505 C   0  0  0  0  0  0  0  0  0  0  0  0
    4.0984   -2.8232    3.4333 C   0  0  0  0  0  0  0  0  0  0  0  0
    4.7955   -3.5163    4.1487 O   0  0  0  0  0  0  0  0  0  0  0  0
    2.8040   -3.1450    3.1096 N   0  0  0  0  0  0  0  0  0  0  0  0
    2.4559   -4.0159    3.5013 H   0  0  0  0  0  0  0  0  0  0  0  0
    1.9008   -2.4156    2.3123 C   0  0  0  0  0  0  0  0  0  0  0  0
    0.7651   -2.8303    2.1369 O   0  0  0  0  0  0  0  0  0  0  0  0
    0.1650    1.1787    1.3005 H   0  0  0  0  0  0  0  0  0  0  0  0
    0.7538    0.3814    2.7757 H   0  0  0  0  0  0  0  0  0  0  0  0
   -0.4262   -0.4678    1.7521 H   0  0  0  0  0  0  0  0  0  0  0  0
   -0.3913    0.0637   -0.3901 H   0  0  0  0  0  0  0  0  0  0  0  0
    0.8368   -0.7286   -2.8724 H   0  0  0  0  0  0  0  0  0  0  0  0
   -1.5927   -1.1270   -2.2866 H   0  0  0  0  0  0  0  0  0  0  0  0
   -1.3419   -0.3179   -3.8365 H   0  0  0  0  0  0  0  0  0  0  0  0
   -2.2105    1.0606   -1.2194 H   0  0  0  0  0  0  0  0  0  0  0  0
   -3.2078    0.7807   -2.6396 H   0  0  0  0  0  0  0  0  0  0  0  0
   -2.3214    3.1472   -2.5466 H   0  0  0  0  0  0  0  0  0  0  0  0
   -1.7926    2.2960   -4.0025 H   0  0  0  0  0  0  0  0  0  0  0  0
   -0.1199    2.7264   -1.4563 H   0  0  0  0  0  0  0  0  0  0  0  0
    0.1308    3.5234   -3.0100 H   0  0  0  0  0  0  0  0  0  0  0  0
    1.7355    1.5886   -2.6912 H   0  0  0  0  0  0  0  0  0  0  0  0
    0.6821    1.3466   -4.0889 H   0  0  0  0  0  0  0  0  0  0  0  0
    3.8602    0.6096    0.6853 H   0  0  0  0  0  0  0  0  0  0  0  0
    5.3240    0.3195    1.4556 H   0  0  0  0  0  0  0  0  0  0  0  0
    6.1994   -1.8608    4.0739 H   0  0  0  0  0  0  0  0  0  0  0  0
    5.8581   -0.1661    3.6605 H   0  0  0  0  0  0  0  0  0  0  0  0
    6.2285   -3.1156    1.3029 H   0  0  0  0  0  0  0  0  0  0  0  0
    7.9897   -3.2388   -0.4357 H   0  0  0  0  0  0  0  0  0  0  0  0
    9.7301   -1.4573   -0.5920 H   0  0  0  0  0  0  0  0  0  0  0  0
    9.6871    0.4559    1.0112 H   0  0  0  0  0  0  0  0  0  0  0  0
    7.9193    0.5827    2.7497 H   0  0  0  0  0  0  0  0  0  0  0  0
  1  2  1  0
  1 29  1  0
  1 30  1  0
  1 31  1  0
  2  3  1  0
  2 12  1  0
  3  4  2  0
  3  5  1  0
  5  6  1  0
  5 32  1  0
  6  7  1  0
  6 11  1  0
  6 33  1  6
  7  8  1  0
  7 34  1  0
  7 35  1  0
  8  9  1  0
  8 36  1  0
  8 37  1  0
  9 10  1  0
  9 38  1  0
  9 39  1  0
 10 11  1  0
 10 40  1  0
 10 41  1  0
 11 42  1  0
 11 43  1  0
 12 13  2  0
 12 27  1  0
 13 14  1  0
 13 15  1  0
 14 44  1  0
 14 45  1  0
 15 16  1  0
 15 23  1  0
 16 17  1  0
 16 46  1  0
 16 47  1  0
 17 18  2  0
 17 22  1  0
 18 19  1  0
 18 48  1  0
 19 20  2  0
 19 49  1  0
 20 21  1  0
 20 50  1  0
 21 22  2  0
 21 51  1  0
 22 52  1  0
 23 24  2  0
 23 25  1  0
 25 26  1  0
 25 27  1  0
 27 28  2  0
M  END

