
     RDKit          3D

 38 39  0  0  0  0  0  0  0  0999 V2000
   10.0432   -3.0741    3.0930 C   0  0  0  0  0  0  0  0  0  0  0  0
    8.7506   -3.2911    2.3056 C   0  0  0  0  0  0  0  0  0  0  0  0
    7.9339   -1.9950    2.1633 C   0  0  0  0  0  0  0  0  0  0  0  0
    6.7087   -2.0926    1.3711 N   0  0  0  0  0  0  0  0  0  0  0  0
    6.7440   -2.1631   -0.0103 C   0  0  0  0  0  0  0  0  0  0  0  0
    5.7592   -2.2552   -0.7057 O   0  0  0  0  0  0  0  0  0  0  0  0
    7.9747   -2.1190   -0.5861 O   0  0  0  0  0  0  0  0  0  0  0  0
    5.3394   -2.0157    1.9483 C   0  0  1  0  0  0  0  0  0  0  0  0
    4.7754   -1.3904    1.2425 H   0  0  0  0  0  0  0  0  0  0  0  0
    4.6250   -3.3762    2.0114 C   0  0  0  0  0  0  0  0  0  0  0  0
    5.2218   -4.3309    3.0470 C   0  0  0  0  0  0  0  0  0  0  0  0
    5.5727   -3.6606    4.3588 C   0  0  0  0  0  0  0  0  0  0  0  0
    5.6297   -2.2568    4.4971 C   0  0  0  0  0  0  0  0  0  0  0  0
    5.9843   -1.6964    5.7321 C   0  0  0  0  0  0  0  0  0  0  0  0
    6.2821   -2.5043    6.8339 C   0  0  0  0  0  0  0  0  0  0  0  0
    6.2303   -3.8899    6.7012 C   0  0  0  0  0  0  0  0  0  0  0  0
    6.5044   -4.7863    7.7024 O   0  0  0  0  0  0  0  0  0  0  0  0
    5.8833   -4.4654    5.4660 C   0  0  0  0  0  0  0  0  0  0  0  0
    5.8492   -5.8176    5.3391 O   0  0  0  0  0  0  0  0  0  0  0  0
    5.2720   -1.3522    3.3291 C   0  0  0  0  0  0  0  0  0  0  0  0
   10.6118   -4.0116    3.1910 H   0  0  0  0  0  0  0  0  0  0  0  0
    9.8341   -2.7039    4.1104 H   0  0  0  0  0  0  0  0  0  0  0  0
   10.7022   -2.3377    2.6019 H   0  0  0  0  0  0  0  0  0  0  0  0
    8.1287   -4.0470    2.8089 H   0  0  0  0  0  0  0  0  0  0  0  0
    8.9804   -3.7013    1.3070 H   0  0  0  0  0  0  0  0  0  0  0  0
    8.5817   -1.1943    1.7485 H   0  0  0  0  0  0  0  0  0  0  0  0
    7.6719   -1.6407    3.1671 H   0  0  0  0  0  0  0  0  0  0  0  0
    8.6691   -1.9541    0.0640 H   0  0  0  0  0  0  0  0  0  0  0  0
    4.6232   -3.8317    1.0114 H   0  0  0  0  0  0  0  0  0  0  0  0
    3.5696   -3.1722    2.2643 H   0  0  0  0  0  0  0  0  0  0  0  0
    6.1280   -4.8144    2.6396 H   0  0  0  0  0  0  0  0  0  0  0  0
    4.5297   -5.1664    3.2404 H   0  0  0  0  0  0  0  0  0  0  0  0
    6.0275   -0.6090    5.8392 H   0  0  0  0  0  0  0  0  0  0  0  0
    6.5573   -2.0580    7.7945 H   0  0  0  0  0  0  0  0  0  0  0  0
    6.7036   -4.3212    8.5243 H   0  0  0  0  0  0  0  0  0  0  0  0
    6.0685   -6.1991    6.2033 H   0  0  0  0  0  0  0  0  0  0  0  0
    5.8734   -0.4288    3.3568 H   0  0  0  0  0  0  0  0  0  0  0  0
    4.2266   -1.0174    3.4530 H   0  0  0  0  0  0  0  0  0  0  0  0
  1  2  1  0
  1 21  1  0
  1 22  1  0
  1 23  1  0
  2  3  1  0
  2 24  1  0
  2 25  1  0
  3  4  1  0
  3 26  1  0
  3 27  1  0
  4  5  1  0
  4  8  1  0
  5  6  2  0
  5  7  1  0
  7 28  1  0
  8  9  1  6
  8 10  1  0
  8 20  1  0
 10 11  1  0
 10 29  1  0
 10 30  1  0
 11 12  1  0
 11 31  1  0
 11 32  1  0
 12 13  2  0
 12 18  1  0
 13 14  1  0
 13 20  1  0
 14 15  2  0
 14 33  1  0
 15 16  1  0
 15 34  1  0
 16 17  1  0
 16 18  2  0
 17 35  1  0
 18 19  1  0
 19 36  1  0
 20 37  1  0
 20 38  1  0
M  END

