
     RDKit          3D

 37 39  0  0  0  0  0  0  0  0999 V2000
    1.0172   -0.1897    0.3908 C   0  0  0  0  0  0  0  0  0  0  0  0
    2.5055   -0.0925    0.1980 C   0  0  0  0  0  0  0  0  0  0  0  0
    3.1904    1.1280    0.1282 C   0  0  0  0  0  0  0  0  0  0  0  0
    4.5060    1.2178   -0.0432 N   0  0  0  0  0  0  0  0  0  0  0  0
    5.1976    0.0736   -0.1536 C   0  0  0  0  0  0  0  0  0  0  0  0
    6.6669    0.1630   -0.3470 C   0  0  0  0  0  0  0  0  0  0  0  0
    7.3077    1.4120   -0.4146 C   0  0  0  0  0  0  0  0  0  0  0  0
    8.6857    1.4940   -0.5965 C   0  0  0  0  0  0  0  0  0  0  0  0
    9.4771    0.3348   -0.7183 C   0  0  0  0  0  0  0  0  0  0  0  0
   10.9467    0.4249   -0.9138 C   0  0  0  0  0  0  0  0  0  0  0  0
   11.7055    1.4395   -0.2981 C   0  0  0  0  0  0  0  0  0  0  0  0
   13.0846    1.5215   -0.4755 C   0  0  0  0  0  0  0  0  0  0  0  0
   13.7341    0.5896   -1.2866 C   0  0  0  0  0  0  0  0  0  0  0  0
   15.1068    0.7779   -1.4350 O   0  0  0  0  0  0  0  0  0  0  0  0
   15.9485   -0.2567   -1.6397 C   0  0  1  0  0  0  0  0  0  0  0  0
   15.7571   -1.2526   -0.7664 F   0  0  0  0  0  0  0  0  0  0  0  0
   15.8300   -0.7831   -2.8735 F   0  0  0  0  0  0  0  0  0  0  0  0
   17.1875    0.1980   -1.5079 F   0  0  0  0  0  0  0  0  0  0  0  0
   13.0128   -0.4233   -1.9229 C   0  0  0  0  0  0  0  0  0  0  0  0
   11.6330   -0.4983   -1.7237 C   0  0  0  0  0  0  0  0  0  0  0  0
    8.8260   -0.9126   -0.6488 C   0  0  0  0  0  0  0  0  0  0  0  0
    7.4482   -0.9990   -0.4667 C   0  0  0  0  0  0  0  0  0  0  0  0
    4.6435   -1.1498   -0.1005 N   0  0  0  0  0  0  0  0  0  0  0  0
    3.3291   -1.2224    0.0717 C   0  0  0  0  0  0  0  0  0  0  0  0
    0.5599    0.8075    0.4746 H   0  0  0  0  0  0  0  0  0  0  0  0
    0.7654   -0.7531    1.3047 H   0  0  0  0  0  0  0  0  0  0  0  0
    0.5351   -0.7106   -0.4532 H   0  0  0  0  0  0  0  0  0  0  0  0
    2.6397    2.0741    0.2167 H   0  0  0  0  0  0  0  0  0  0  0  0
    6.7021    2.3153   -0.3305 H   0  0  0  0  0  0  0  0  0  0  0  0
    9.1541    2.4779   -0.6724 H   0  0  0  0  0  0  0  0  0  0  0  0
   11.2136    2.1611    0.3573 H   0  0  0  0  0  0  0  0  0  0  0  0
   13.6748    2.2974    0.0153 H   0  0  0  0  0  0  0  0  0  0  0  0
   13.5085   -1.1372   -2.5796 H   0  0  0  0  0  0  0  0  0  0  0  0
   11.0742   -1.2807   -2.2414 H   0  0  0  0  0  0  0  0  0  0  0  0
    9.4126   -1.8320   -0.7120 H   0  0  0  0  0  0  0  0  0  0  0  0
    6.9543   -1.9696   -0.4055 H   0  0  0  0  0  0  0  0  0  0  0  0
    2.8942   -2.2303    0.1133 H   0  0  0  0  0  0  0  0  0  0  0  0
  1  2  1  0
  1 25  1  0
  1 26  1  0
  1 27  1  0
  2  3  2  0
  2 24  1  0
  3  4  1  0
  3 28  1  0
  4  5  2  0
  5  6  1  0
  5 23  1  0
  6  7  2  0
  6 22  1  0
  7  8  1  0
  7 29  1  0
  8  9  2  0
  8 30  1  0
  9 10  1  0
  9 21  1  0
 10 11  2  0
 10 20  1  0
 11 12  1  0
 11 31  1  0
 12 13  2  0
 12 32  1  0
 13 14  1  0
 13 19  1  0
 14 15  1  0
 15 16  1  1
 15 17  1  0
 15 18  1  0
 19 20  2  0
 19 33  1  0
 20 34  1  0
 21 22  2  0
 21 35  1  0
 22 36  1  0
 23 24  2  0
 24 37  1  0
M  END

