
     RDKit          3D

 36 37  0  0  0  0  0  0  0  0999 V2000
    2.5267    0.5879   -0.6830 N   0  0  0  0  0  0  0  0  0  0  0  0
    2.0559   -0.0045    0.4462 C   0  0  0  0  0  0  0  0  0  0  0  0
    0.9585    0.2020    0.9239 O   0  0  0  0  0  0  0  0  0  0  0  0
    3.0319   -1.0430    1.0798 C   0  0  1  0  0  0  0  0  0  0  0  0
    2.5820   -2.4193    0.5909 C   0  0  0  0  0  0  0  0  0  0  0  0
    2.7280   -2.7340   -0.7703 C   0  0  0  0  0  0  0  0  0  0  0  0
    2.3061   -3.9566   -1.2916 C   0  0  0  0  0  0  0  0  0  0  0  0
    1.7127   -4.9016   -0.4530 C   0  0  0  0  0  0  0  0  0  0  0  0
    1.5474   -4.6082    0.8996 C   0  0  0  0  0  0  0  0  0  0  0  0
    1.9751   -3.3814    1.4285 C   0  0  0  0  0  0  0  0  0  0  0  0
    1.7472   -3.1331    2.9074 C   0  0  1  0  0  0  0  0  0  0  0  0
    0.9462   -2.0831    3.1343 F   0  0  0  0  0  0  0  0  0  0  0  0
    1.1890   -4.1943    3.5150 F   0  0  0  0  0  0  0  0  0  0  0  0
    2.9080   -2.8866    3.5643 F   0  0  0  0  0  0  0  0  0  0  0  0
    4.4282   -0.7175    0.7347 N   0  0  0  0  0  0  0  0  0  0  0  0
    4.9136    0.4903    1.4258 C   0  0  0  0  0  0  0  0  0  0  0  0
    5.4040    0.2184    2.8523 C   0  0  0  0  0  0  0  0  0  0  0  0
    6.4543   -0.7911    2.8074 N   0  0  0  0  0  0  0  0  0  0  0  0
    5.9754   -2.0406    2.2236 C   0  0  0  0  0  0  0  0  0  0  0  0
    5.4547   -1.7683    0.8080 C   0  0  0  0  0  0  0  0  0  0  0  0
    1.9587    1.2886   -1.1428 H   0  0  0  0  0  0  0  0  0  0  0  0
    3.4950    0.4344   -0.9430 H   0  0  0  0  0  0  0  0  0  0  0  0
    2.8354   -0.9614    2.1580 H   0  0  0  0  0  0  0  0  0  0  0  0
    3.1798   -1.9945   -1.4329 H   0  0  0  0  0  0  0  0  0  0  0  0
    2.4365   -4.1671   -2.3561 H   0  0  0  0  0  0  0  0  0  0  0  0
    1.3741   -5.8621   -0.8481 H   0  0  0  0  0  0  0  0  0  0  0  0
    1.0789   -5.3372    1.5607 H   0  0  0  0  0  0  0  0  0  0  0  0
    4.1220    1.2543    1.4324 H   0  0  0  0  0  0  0  0  0  0  0  0
    5.7616    0.8948    0.8453 H   0  0  0  0  0  0  0  0  0  0  0  0
    4.5408   -0.0793    3.4899 H   0  0  0  0  0  0  0  0  0  0  0  0
    5.8098    1.1513    3.2777 H   0  0  0  0  0  0  0  0  0  0  0  0
    6.8369   -0.9526    3.7367 H   0  0  0  0  0  0  0  0  0  0  0  0
    5.1737   -2.5206    2.8228 H   0  0  0  0  0  0  0  0  0  0  0  0
    6.8124   -2.7565    2.1635 H   0  0  0  0  0  0  0  0  0  0  0  0
    5.0764   -2.6948    0.3574 H   0  0  0  0  0  0  0  0  0  0  0  0
    6.3059   -1.4265    0.1926 H   0  0  0  0  0  0  0  0  0  0  0  0
  1  2  1  0
  1 21  1  0
  1 22  1  0
  2  3  2  0
  2  4  1  0
  4  5  1  0
  4 15  1  0
  4 23  1  1
  5  6  2  0
  5 10  1  0
  6  7  1  0
  6 24  1  0
  7  8  2  0
  7 25  1  0
  8  9  1  0
  8 26  1  0
  9 10  2  0
  9 27  1  0
 10 11  1  0
 11 12  1  6
 11 13  1  0
 11 14  1  0
 15 16  1  0
 15 20  1  0
 16 17  1  0
 16 28  1  0
 16 29  1  0
 17 18  1  0
 17 30  1  0
 17 31  1  0
 18 19  1  0
 18 32  1  0
 19 20  1  0
 19 33  1  0
 19 34  1  0
 20 35  1  0
 20 36  1  0
M  END

