
     RDKit          3D

 42 43  0  0  0  0  0  0  0  0999 V2000
    1.0916   -0.2573    0.4234 C   0  0  0  0  0  0  0  0  0  0  0  0
    2.5311   -0.0358   -0.0611 C   0  0  1  0  0  0  0  0  0  0  0  0
    2.8269   -0.7317   -1.4107 C   0  0  0  0  0  0  0  0  0  0  0  0
    2.0985   -0.1845   -2.6533 C   0  0  0  0  0  0  0  0  0  0  0  0
    2.4226   -0.9750   -3.9041 C   0  0  0  0  0  0  0  0  0  0  0  0
    1.6236   -2.0591   -4.3009 C   0  0  0  0  0  0  0  0  0  0  0  0
    1.9426   -2.8114   -5.4351 C   0  0  0  0  0  0  0  0  0  0  0  0
    3.0717   -2.4913   -6.1946 C   0  0  0  0  0  0  0  0  0  0  0  0
    3.8762   -1.4137   -5.8120 C   0  0  0  0  0  0  0  0  0  0  0  0
    3.5529   -0.6643   -4.6776 C   0  0  0  0  0  0  0  0  0  0  0  0
    2.9224    1.3923   -0.0161 N   0  0  0  0  0  0  0  0  0  0  0  0
    1.9816    2.3944   -0.4906 C   0  0  0  0  0  0  0  0  0  0  0  0
    1.4970    3.3795    0.5902 C   0  0  0  0  0  0  0  0  0  0  0  0
    0.8676    4.3671    0.3263 O   0  0  0  0  0  0  0  0  0  0  0  0
    1.7960    3.0186    1.8462 O   0  0  0  0  0  0  0  0  0  0  0  0
    4.2881    1.7501    0.0619 C   0  0  0  0  0  0  0  0  0  0  0  0
    4.6878    3.1025   -0.0553 C   0  0  0  0  0  0  0  0  0  0  0  0
    6.0285    3.4717    0.0662 C   0  0  0  0  0  0  0  0  0  0  0  0
    7.0206    2.5195    0.3062 C   0  0  0  0  0  0  0  0  0  0  0  0
    6.6402    1.1812    0.4242 C   0  0  0  0  0  0  0  0  0  0  0  0
    5.3040    0.7961    0.3037 C   0  0  0  0  0  0  0  0  0  0  0  0
    0.9299   -1.3317    0.5982 H   0  0  0  0  0  0  0  0  0  0  0  0
    0.3287    0.0681   -0.2993 H   0  0  0  0  0  0  0  0  0  0  0  0
    0.9035    0.2714    1.3703 H   0  0  0  0  0  0  0  0  0  0  0  0
    3.1650   -0.5352    0.6867 H   0  0  0  0  0  0  0  0  0  0  0  0
    2.5837   -1.8025   -1.2958 H   0  0  0  0  0  0  0  0  0  0  0  0
    3.9110   -0.6895   -1.6020 H   0  0  0  0  0  0  0  0  0  0  0  0
    2.3844    0.8676   -2.8114 H   0  0  0  0  0  0  0  0  0  0  0  0
    1.0078   -0.1981   -2.4928 H   0  0  0  0  0  0  0  0  0  0  0  0
    0.7343   -2.3143   -3.7164 H   0  0  0  0  0  0  0  0  0  0  0  0
    1.3037   -3.6483   -5.7291 H   0  0  0  0  0  0  0  0  0  0  0  0
    3.3211   -3.0761   -7.0837 H   0  0  0  0  0  0  0  0  0  0  0  0
    4.7581   -1.1516   -6.4025 H   0  0  0  0  0  0  0  0  0  0  0  0
    4.1857    0.1809   -4.3897 H   0  0  0  0  0  0  0  0  0  0  0  0
    1.0756    1.9078   -0.8713 H   0  0  0  0  0  0  0  0  0  0  0  0
    2.3743    2.9905   -1.3298 H   0  0  0  0  0  0  0  0  0  0  0  0
    2.3583    2.2219    1.7811 H   0  0  0  0  0  0  0  0  0  0  0  0
    3.9566    3.8908   -0.2294 H   0  0  0  0  0  0  0  0  0  0  0  0
    6.2925    4.5284   -0.0269 H   0  0  0  0  0  0  0  0  0  0  0  0
    8.0680    2.8138    0.3996 H   0  0  0  0  0  0  0  0  0  0  0  0
    7.3940    0.4113    0.6096 H   0  0  0  0  0  0  0  0  0  0  0  0
    5.0670   -0.2621    0.3981 H   0  0  0  0  0  0  0  0  0  0  0  0
  1  2  1  0
  1 22  1  0
  1 23  1  0
  1 24  1  0
  2  3  1  0
  2 11  1  0
  2 25  1  1
  3  4  1  0
  3 26  1  0
  3 27  1  0
  4  5  1  0
  4 28  1  0
  4 29  1  0
  5  6  2  0
  5 10  1  0
  6  7  1  0
  6 30  1  0
  7  8  2  0
  7 31  1  0
  8  9  1  0
  8 32  1  0
  9 10  2  0
  9 33  1  0
 10 34  1  0
 11 12  1  0
 11 16  1  0
 12 13  1  0
 12 35  1  0
 12 36  1  0
 13 14  2  0
 13 15  1  0
 15 37  1  0
 16 17  2  0
 16 21  1  0
 17 18  1  0
 17 38  1  0
 18 19  2  0
 18 39  1  0
 19 20  1  0
 19 40  1  0
 20 21  2  0
 20 41  1  0
 21 42  1  0
M  END

