
     RDKit          3D

 51 52  0  0  0  0  0  0  0  0999 V2000
    1.3038    0.2209    0.3828 C   0  0  0  0  0  0  0  0  0  0  0  0
    2.7861   -0.1180    0.5566 C   0  0  0  0  0  0  0  0  0  0  0  0
    3.5684    0.8237    1.4938 C   0  0  1  0  0  0  0  0  0  0  0  0
    4.9874    0.2927    1.7676 C   0  0  0  0  0  0  0  0  0  0  0  0
    5.8392    0.4432    0.5789 N   0  0  0  0  0  0  0  0  0  0  0  0
    7.2254   -0.5428    0.5217 S   0  0  1  0  0  0  0  0  0  0  0  0
    8.2419    0.1764   -0.2584 O   0  0  0  0  0  0  0  0  0  0  0  0
    7.5246   -1.0247    1.8776 O   0  0  0  0  0  0  0  0  0  0  0  0
    6.6774   -1.9951   -0.4611 C   0  0  1  0  0  0  0  0  0  0  0  0
    6.3657   -1.5809   -1.8948 C   0  0  0  0  0  0  0  0  0  0  0  0
    7.7580   -3.0718   -0.3509 C   0  0  0  0  0  0  0  0  0  0  0  0
    5.9893    1.8348    0.1313 C   0  0  0  0  0  0  0  0  0  0  0  0
    4.6117    2.4187   -0.1847 C   0  0  0  0  0  0  0  0  0  0  0  0
    3.6326    2.2941    1.0075 C   0  0  2  0  0  0  0  0  0  0  0  0
    3.9272    3.1718    2.1395 N   0  0  0  0  0  0  0  0  0  0  0  0
    3.7657    4.5971    1.9230 C   0  0  0  0  0  0  0  0  0  0  0  0
    3.8565    5.3405    3.2187 C   0  0  0  0  0  0  0  0  0  0  0  0
    3.6483    4.9812    4.5213 C   0  0  0  0  0  0  0  0  0  0  0  0
    3.8649    6.1649    5.3044 C   0  0  0  0  0  0  0  0  0  0  0  0
    4.1957    7.1594    4.4273 C   0  0  0  0  0  0  0  0  0  0  0  0
    4.5148    8.6111    4.5586 C   0  0  0  0  0  0  0  0  0  0  0  0
    3.5381    9.4599    3.9825 O   0  0  0  0  0  0  0  0  0  0  0  0
    4.1947    6.6588    3.1525 O   0  0  0  0  0  0  0  0  0  0  0  0
    0.7928   -0.5518   -0.2133 H   0  0  0  0  0  0  0  0  0  0  0  0
    1.1490    1.1810   -0.1349 H   0  0  0  0  0  0  0  0  0  0  0  0
    0.7892    0.2836    1.3562 H   0  0  0  0  0  0  0  0  0  0  0  0
    3.2771   -0.1630   -0.4298 H   0  0  0  0  0  0  0  0  0  0  0  0
    2.8671   -1.1380    0.9724 H   0  0  0  0  0  0  0  0  0  0  0  0
    3.0464    0.8453    2.4657 H   0  0  0  0  0  0  0  0  0  0  0  0
    4.9467   -0.7683    2.0504 H   0  0  0  0  0  0  0  0  0  0  0  0
    5.4385    0.8184    2.6321 H   0  0  0  0  0  0  0  0  0  0  0  0
    5.7617   -2.3233    0.0579 H   0  0  0  0  0  0  0  0  0  0  0  0
    7.2679   -1.1915   -2.3893 H   0  0  0  0  0  0  0  0  0  0  0  0
    5.5855   -0.8067   -1.9302 H   0  0  0  0  0  0  0  0  0  0  0  0
    6.0066   -2.4545   -2.4618 H   0  0  0  0  0  0  0  0  0  0  0  0
    8.7007   -2.7222   -0.7999 H   0  0  0  0  0  0  0  0  0  0  0  0
    7.4334   -3.9753   -0.8909 H   0  0  0  0  0  0  0  0  0  0  0  0
    7.9489   -3.3369    0.6979 H   0  0  0  0  0  0  0  0  0  0  0  0
    6.6424    1.8564   -0.7494 H   0  0  0  0  0  0  0  0  0  0  0  0
    6.4915    2.4430    0.9120 H   0  0  0  0  0  0  0  0  0  0  0  0
    4.1920    1.8981   -1.0613 H   0  0  0  0  0  0  0  0  0  0  0  0
    4.7266    3.4756   -0.4760 H   0  0  0  0  0  0  0  0  0  0  0  0
    2.6298    2.5879    0.6562 H   0  0  0  0  0  0  0  0  0  0  0  0
    4.8384    2.9776    2.5505 H   0  0  0  0  0  0  0  0  0  0  0  0
    2.7694    4.7603    1.4674 H   0  0  0  0  0  0  0  0  0  0  0  0
    4.4921    5.0568    1.2168 H   0  0  0  0  0  0  0  0  0  0  0  0
    3.3676    3.9894    4.8661 H   0  0  0  0  0  0  0  0  0  0  0  0
    3.7841    6.2657    6.3850 H   0  0  0  0  0  0  0  0  0  0  0  0
    5.5182    8.8074    4.1266 H   0  0  0  0  0  0  0  0  0  0  0  0
    4.5688    8.8603    5.6286 H   0  0  0  0  0  0  0  0  0  0  0  0
    3.4472    9.2056    3.0543 H   0  0  0  0  0  0  0  0  0  0  0  0
  1  2  1  0
  1 24  1  0
  1 25  1  0
  1 26  1  0
  2  3  1  0
  2 27  1  0
  2 28  1  0
  3  4  1  0
  3 14  1  0
  3 29  1  1
  4  5  1  0
  4 30  1  0
  4 31  1  0
  6  5  1  1
  5 12  1  0
  6  7  2  0
  6  8  2  0
  6  9  1  0
  9 10  1  0
  9 11  1  0
  9 32  1  1
 10 33  1  0
 10 34  1  0
 10 35  1  0
 11 36  1  0
 11 37  1  0
 11 38  1  0
 12 13  1  0
 12 39  1  0
 12 40  1  0
 13 14  1  0
 13 41  1  0
 13 42  1  0
 14 15  1  0
 14 43  1  6
 15 16  1  0
 15 44  1  0
 16 17  1  0
 16 45  1  0
 16 46  1  0
 17 18  2  0
 17 23  1  0
 18 19  1  0
 18 47  1  0
 19 20  2  0
 19 48  1  0
 20 21  1  0
 20 23  1  0
 21 22  1  0
 21 49  1  0
 21 50  1  0
 22 51  1  0
M  END

