
     RDKit          3D

 32 33  0  0  0  0  0  0  0  0999 V2000
    5.6640   -2.5176   -4.8736 C   0  0  0  0  0  0  0  0  0  0  0  0
    6.0074   -1.9095   -3.7356 C   0  0  0  0  0  0  0  0  0  0  0  0
    6.3210   -0.4416   -3.6113 C   0  0  0  0  0  0  0  0  0  0  0  0
    5.4309    0.2104   -2.6565 N   0  0  0  0  0  0  0  0  0  0  0  0
    5.6950    0.9740   -1.5611 C   0  0  0  0  0  0  0  0  0  0  0  0
    4.7999    1.3499   -0.8172 O   0  0  0  0  0  0  0  0  0  0  0  0
    7.1560    1.3607   -1.2518 C   0  0  0  0  0  0  0  0  0  0  0  0
    7.7846    2.3096   -2.1787 N   0  0  0  0  0  0  0  0  0  0  0  0
    8.8791    1.8485   -2.8999 C   0  0  0  0  0  0  0  0  0  0  0  0
    9.2710    0.6992   -2.8408 O   0  0  0  0  0  0  0  0  0  0  0  0
    9.6009    2.8434   -3.8181 C   0  0  0  0  0  0  0  0  0  0  0  0
   10.5326    2.4991   -4.5086 O   0  0  0  0  0  0  0  0  0  0  0  0
    9.1193    4.1272   -3.7883 N   0  0  0  0  0  0  0  0  0  0  0  0
    9.6077    4.7858   -4.3900 H   0  0  0  0  0  0  0  0  0  0  0  0
    8.0531    4.5802   -3.0174 C   0  0  0  0  0  0  0  0  0  0  0  0
    7.6679    5.9270   -3.0480 C   0  0  0  0  0  0  0  0  0  0  0  0
    6.6025    6.3737   -2.2697 C   0  0  0  0  0  0  0  0  0  0  0  0
    5.9147    5.4680   -1.4574 C   0  0  0  0  0  0  0  0  0  0  0  0
    6.2868    4.1232   -1.4199 C   0  0  0  0  0  0  0  0  0  0  0  0
    7.3624    3.6602   -2.1968 C   0  0  0  0  0  0  0  0  0  0  0  0
    5.4623   -3.5915   -4.9106 H   0  0  0  0  0  0  0  0  0  0  0  0
    5.5833   -1.9655   -5.8164 H   0  0  0  0  0  0  0  0  0  0  0  0
    6.0772   -2.4879   -2.8058 H   0  0  0  0  0  0  0  0  0  0  0  0
    6.2422    0.0418   -4.6021 H   0  0  0  0  0  0  0  0  0  0  0  0
    7.3624   -0.3155   -3.2800 H   0  0  0  0  0  0  0  0  0  0  0  0
    4.4360    0.0307   -2.7712 H   0  0  0  0  0  0  0  0  0  0  0  0
    7.8019    0.4737   -1.2383 H   0  0  0  0  0  0  0  0  0  0  0  0
    7.1349    1.7959   -0.2439 H   0  0  0  0  0  0  0  0  0  0  0  0
    8.2188    6.6199   -3.6895 H   0  0  0  0  0  0  0  0  0  0  0  0
    6.3106    7.4256   -2.3009 H   0  0  0  0  0  0  0  0  0  0  0  0
    5.0734    5.8030   -0.8471 H   0  0  0  0  0  0  0  0  0  0  0  0
    5.7152    3.4295   -0.8041 H   0  0  0  0  0  0  0  0  0  0  0  0
  1  2  2  0
  1 21  1  0
  1 22  1  0
  2  3  1  0
  2 23  1  0
  3  4  1  0
  3 24  1  0
  3 25  1  0
  4  5  1  0
  4 26  1  0
  5  6  2  0
  5  7  1  0
  7  8  1  0
  7 27  1  0
  7 28  1  0
  8  9  1  0
  8 20  1  0
  9 10  2  0
  9 11  1  0
 11 12  2  0
 11 13  1  0
 13 14  1  0
 13 15  1  0
 15 16  1  0
 15 20  2  0
 16 17  2  0
 16 29  1  0
 17 18  1  0
 17 30  1  0
 18 19  2  0
 18 31  1  0
 19 20  1  0
 19 32  1  0
M  END

