
     RDKit          3D

 43 47  0  0  0  0  0  0  0  0999 V2000
    1.9473    0.3371   -1.0008 C   0  0  0  0  0  0  0  0  0  0  0  0
    3.2697   -0.0080   -0.3681 C   0  0  0  0  0  0  0  0  0  0  0  0
    4.0787    0.9615    0.2457 C   0  0  0  0  0  0  0  0  0  0  0  0
    5.2909    0.5670    0.8145 C   0  0  0  0  0  0  0  0  0  0  0  0
    5.6596   -0.7759    0.7731 C   0  0  0  0  0  0  0  0  0  0  0  0
    4.7870   -1.6694    0.1320 C   0  0  0  0  0  0  0  0  0  0  0  0
    5.1101   -3.0490    0.0484 N   0  0  0  0  0  0  0  0  0  0  0  0
    4.2007   -4.0747    0.3245 C   0  0  0  0  0  0  0  0  0  0  0  0
    3.0621   -3.9908    0.7093 O   0  0  0  0  0  0  0  0  0  0  0  0
    5.0032   -5.3196    0.0970 C   0  0  0  0  0  0  0  0  0  0  0  0
    4.4821   -6.5310    0.2770 O   0  0  0  0  0  0  0  0  0  0  0  0
    5.3203   -7.6011    0.0930 C   0  0  0  0  0  0  0  0  0  0  0  0
    4.7639   -8.8756    0.2587 C   0  0  0  0  0  0  0  0  0  0  0  0
    5.5661   -9.9965    0.0924 C   0  0  0  0  0  0  0  0  0  0  0  0
    6.9263   -9.8444   -0.2378 C   0  0  0  0  0  0  0  0  0  0  0  0
    7.9162  -11.2674   -0.4411 Cl  0  0  0  0  0  0  0  0  0  0  0  0
    7.4804   -8.5821   -0.4008 C   0  0  0  0  0  0  0  0  0  0  0  0
    6.6807   -7.4367   -0.2394 C   0  0  0  0  0  0  0  0  0  0  0  0
    7.2800   -6.0809   -0.4114 C   0  0  0  0  0  0  0  0  0  0  0  0
    8.4659   -5.8916   -0.6434 O   0  0  0  0  0  0  0  0  0  0  0  0
    6.2795   -5.0330   -0.2460 C   0  0  0  0  0  0  0  0  0  0  0  0
    6.4426   -3.5330   -0.3390 C   0  0  1  0  0  0  0  0  0  0  0  0
    7.2049   -3.2109    0.3930 H   0  0  0  0  0  0  0  0  0  0  0  0
    6.8833   -3.0702   -1.7271 C   0  0  0  0  0  0  0  0  0  0  0  0
    5.9600   -2.7436   -2.7271 C   0  0  0  0  0  0  0  0  0  0  0  0
    6.4403   -2.3593   -3.9834 C   0  0  0  0  0  0  0  0  0  0  0  0
    7.7369   -2.2863   -4.2914 N   0  0  0  0  0  0  0  0  0  0  0  0
    8.6133   -2.6031   -3.3348 C   0  0  0  0  0  0  0  0  0  0  0  0
    8.2443   -2.9971   -2.0456 C   0  0  0  0  0  0  0  0  0  0  0  0
    3.6439   -1.2929   -0.4302 N   0  0  0  0  0  0  0  0  0  0  0  0
    1.7270    1.4120   -0.9377 H   0  0  0  0  0  0  0  0  0  0  0  0
    1.1371   -0.2225   -0.5064 H   0  0  0  0  0  0  0  0  0  0  0  0
    1.9417    0.0333   -2.0596 H   0  0  0  0  0  0  0  0  0  0  0  0
    3.7624    2.0063    0.2719 H   0  0  0  0  0  0  0  0  0  0  0  0
    5.9403    1.3000    1.2997 H   0  0  0  0  0  0  0  0  0  0  0  0
    6.5861   -1.1215    1.2336 H   0  0  0  0  0  0  0  0  0  0  0  0
    3.7072   -8.9636    0.5168 H   0  0  0  0  0  0  0  0  0  0  0  0
    5.1503  -10.9976    0.2164 H   0  0  0  0  0  0  0  0  0  0  0  0
    8.5323   -8.4436   -0.6544 H   0  0  0  0  0  0  0  0  0  0  0  0
    4.8858   -2.7647   -2.5331 H   0  0  0  0  0  0  0  0  0  0  0  0
    5.7321   -2.0945   -4.7778 H   0  0  0  0  0  0  0  0  0  0  0  0
    9.6748   -2.5424   -3.6027 H   0  0  0  0  0  0  0  0  0  0  0  0
    9.0061   -3.2683   -1.3124 H   0  0  0  0  0  0  0  0  0  0  0  0
  1  2  1  0
  1 31  1  0
  1 32  1  0
  1 33  1  0
  2  3  2  0
  2 30  1  0
  3  4  1  0
  3 34  1  0
  4  5  2  0
  4 35  1  0
  5  6  1  0
  5 36  1  0
  6  7  1  0
  6 30  2  0
  7  8  1  0
  7 22  1  0
  8  9  2  0
  8 10  1  0
 10 11  1  0
 10 21  2  0
 11 12  1  0
 12 13  1  0
 12 18  2  0
 13 14  2  0
 13 37  1  0
 14 15  1  0
 14 38  1  0
 15 16  1  0
 15 17  2  0
 17 18  1  0
 17 39  1  0
 18 19  1  0
 19 20  2  0
 19 21  1  0
 21 22  1  0
 22 23  1  1
 22 24  1  0
 24 25  2  0
 24 29  1  0
 25 26  1  0
 25 40  1  0
 26 27  2  0
 26 41  1  0
 27 28  1  0
 28 29  2  0
 28 42  1  0
 29 43  1  0
M  END

