
     RDKit          3D

 51 54  0  0  0  0  0  0  0  0999 V2000
    0.9702   -0.2281    0.9037 C   0  0  0  0  0  0  0  0  0  0  0  0
    2.3887   -0.7187    0.6819 C   0  0  0  0  0  0  0  0  0  0  0  0
    3.1641    0.3506    0.1759 O   0  0  0  0  0  0  0  0  0  0  0  0
    4.5177    0.0594   -0.0668 C   0  0  2  0  0  0  0  0  0  0  0  0
    5.3470    1.3619   -0.1405 C   0  0  0  0  0  0  0  0  0  0  0  0
    5.2791    1.2895   -1.6837 C   0  0  1  0  0  0  0  0  0  0  0  0
    6.4700    1.6562   -2.4202 N   0  0  0  0  0  0  0  0  0  0  0  0
    6.6127    2.3070   -3.6079 C   0  0  0  0  0  0  0  0  0  0  0  0
    7.7018    2.6579   -4.0344 O   0  0  0  0  0  0  0  0  0  0  0  0
    5.3578    2.5862   -4.4534 C   0  0  0  0  0  0  0  0  0  0  0  0
    5.1405    4.0225   -4.6116 N   0  0  0  0  0  0  0  0  0  0  0  0
    5.8850    4.7284   -5.5233 C   0  0  0  0  0  0  0  0  0  0  0  0
    5.7834    6.0044   -5.7310 N   0  0  0  0  0  0  0  0  0  0  0  0
    4.8730    6.6449   -4.9564 C   0  0  0  0  0  0  0  0  0  0  0  0
    4.5746    8.3543   -5.0704 S   0  0  0  0  0  0  0  0  0  0  0  0
    3.3581    8.2743   -3.7994 C   0  0  0  0  0  0  0  0  0  0  0  0
    2.6645    9.5438   -3.4035 C   0  0  0  0  0  0  0  0  0  0  0  0
    3.1917    6.9973   -3.3109 C   0  0  0  0  0  0  0  0  0  0  0  0
    2.2335    6.5900   -2.2256 C   0  0  0  0  0  0  0  0  0  0  0  0
    4.0639    6.0606   -3.9794 C   0  0  0  0  0  0  0  0  0  0  0  0
    4.1920    4.6364   -3.7438 C   0  0  0  0  0  0  0  0  0  0  0  0
    3.5885    3.9640   -2.9155 O   0  0  0  0  0  0  0  0  0  0  0  0
    4.8759   -0.2088   -1.5691 C   0  0  2  0  0  0  0  0  0  0  0  0
    3.8925   -0.9294   -2.5135 C   0  0  0  0  0  0  0  0  0  0  0  0
    4.7466   -2.2159   -2.3756 C   0  0  0  0  0  0  0  0  0  0  0  0
    5.9040   -1.3417   -1.8265 C   0  0  0  0  0  0  0  0  0  0  0  0
    0.3433   -1.0322    1.3200 H   0  0  0  0  0  0  0  0  0  0  0  0
    0.5226    0.1089   -0.0441 H   0  0  0  0  0  0  0  0  0  0  0  0
    0.9625    0.6212    1.6042 H   0  0  0  0  0  0  0  0  0  0  0  0
    2.3931   -1.5792   -0.0166 H   0  0  0  0  0  0  0  0  0  0  0  0
    2.8273   -1.0820    1.6348 H   0  0  0  0  0  0  0  0  0  0  0  0
    4.8827   -0.7056    0.6450 H   0  0  0  0  0  0  0  0  0  0  0  0
    6.3700    1.2165    0.2413 H   0  0  0  0  0  0  0  0  0  0  0  0
    4.8955    2.2399    0.3420 H   0  0  0  0  0  0  0  0  0  0  0  0
    4.4326    1.8913   -2.0396 H   0  0  0  0  0  0  0  0  0  0  0  0
    7.3650    1.4782   -1.9696 H   0  0  0  0  0  0  0  0  0  0  0  0
    4.4385    2.1565   -4.0458 H   0  0  0  0  0  0  0  0  0  0  0  0
    5.5536    2.1481   -5.4425 H   0  0  0  0  0  0  0  0  0  0  0  0
    6.6116    4.1375   -6.0884 H   0  0  0  0  0  0  0  0  0  0  0  0
    3.3806   10.3070   -3.0551 H   0  0  0  0  0  0  0  0  0  0  0  0
    1.9492    9.3627   -2.5900 H   0  0  0  0  0  0  0  0  0  0  0  0
    2.1059    9.9834   -4.2474 H   0  0  0  0  0  0  0  0  0  0  0  0
    1.6703    7.4471   -1.8321 H   0  0  0  0  0  0  0  0  0  0  0  0
    2.7664    6.1084   -1.3916 H   0  0  0  0  0  0  0  0  0  0  0  0
    1.5149    5.8421   -2.5954 H   0  0  0  0  0  0  0  0  0  0  0  0
    3.9436   -0.5124   -3.5333 H   0  0  0  0  0  0  0  0  0  0  0  0
    2.8356   -0.9570   -2.2094 H   0  0  0  0  0  0  0  0  0  0  0  0
    4.9440   -2.7969   -3.2892 H   0  0  0  0  0  0  0  0  0  0  0  0
    4.3455   -2.8999   -1.6115 H   0  0  0  0  0  0  0  0  0  0  0  0
    6.6184   -1.0637   -2.6181 H   0  0  0  0  0  0  0  0  0  0  0  0
    6.4720   -1.7210   -0.9607 H   0  0  0  0  0  0  0  0  0  0  0  0
  1  2  1  0
  1 27  1  0
  1 28  1  0
  1 29  1  0
  2  3  1  0
  2 30  1  0
  2 31  1  0
  3  4  1  0
  4  5  1  0
  4 23  1  0
  4 32  1  1
  5  6  1  0
  5 33  1  0
  5 34  1  0
  6  7  1  0
  6 23  1  0
  6 35  1  6
  7  8  1  0
  7 36  1  0
  8  9  2  0
  8 10  1  0
 10 11  1  0
 10 37  1  0
 10 38  1  0
 11 12  1  0
 11 21  1  0
 12 13  2  0
 12 39  1  0
 13 14  1  0
 14 15  2  0
 14 20  1  0
 15 16  1  0
 16 17  1  0
 16 18  2  0
 17 40  1  0
 17 41  1  0
 17 42  1  0
 18 19  1  0
 18 20  1  0
 19 43  1  0
 19 44  1  0
 19 45  1  0
 20 21  2  0
 21 22  1  0
 23 24  1  6
 23 26  1  0
 24 25  1  0
 24 46  1  0
 24 47  1  0
 25 26  1  0
 25 48  1  0
 25 49  1  0
 26 50  1  0
 26 51  1  0
M  CHG  2  15   1  22  -1
M  END

