
     RDKit          3D

 49 52  0  0  0  0  0  0  0  0999 V2000
    2.5500   -0.3957    2.8244 C   0  0  0  0  0  0  0  0  0  0  0  0
    3.6662   -0.5418    1.8420 C   0  0  0  0  0  0  0  0  0  0  0  0
    4.7318    0.2103    1.9619 N   0  0  0  0  0  0  0  0  0  0  0  0
    5.6239   -0.1164    0.9388 O   0  0  0  0  0  0  0  0  0  0  0  0
    5.0751   -1.0878    0.1904 C   0  0  0  0  0  0  0  0  0  0  0  0
    5.6899   -1.6064   -0.8548 N   0  0  0  0  0  0  0  0  0  0  0  0
    5.0209   -2.5686   -1.5001 C   0  0  0  0  0  0  0  0  0  0  0  0
    5.6633   -3.1750   -2.6953 C   0  0  1  0  0  0  0  0  0  0  0  0
    6.5242   -2.3120   -3.6033 C   0  0  0  0  0  0  0  0  0  0  0  0
    7.1739   -3.3373   -2.7345 C   0  0  0  0  0  0  0  0  0  0  0  0
    3.7395   -3.0079   -1.0784 C   0  0  0  0  0  0  0  0  0  0  0  0
    3.1050   -2.4459    0.0327 C   0  0  0  0  0  0  0  0  0  0  0  0
    1.7214   -2.8724    0.4549 C   0  0  0  0  0  0  0  0  0  0  0  0
    0.9009   -2.0687    0.8767 O   0  0  0  0  0  0  0  0  0  0  0  0
    1.4501   -4.2034    0.3289 N   0  0  0  0  0  0  0  0  0  0  0  0
    0.1527   -4.7461    0.7012 C   0  0  0  0  0  0  0  0  0  0  0  0
   -0.9069   -4.6845   -0.4296 C   0  0  1  0  0  0  0  0  0  0  0  0
   -0.5825   -5.7204   -1.5050 C   0  0  0  0  0  0  0  0  0  0  0  0
   -2.2259   -4.8476    0.1946 N   0  0  0  0  0  0  0  0  0  0  0  0
   -2.7548   -3.6177    0.7945 C   0  0  0  0  0  0  0  0  0  0  0  0
   -3.5544   -2.7808   -0.2085 C   0  0  0  0  0  0  0  0  0  0  0  0
   -4.5922   -3.5409   -0.8017 O   0  0  0  0  0  0  0  0  0  0  0  0
   -4.0954   -4.6919   -1.4557 C   0  0  0  0  0  0  0  0  0  0  0  0
   -3.2982   -5.5698   -0.4855 C   0  0  0  0  0  0  0  0  0  0  0  0
    3.8068   -1.4227    0.7028 C   0  0  0  0  0  0  0  0  0  0  0  0
    2.7984    0.3963    3.5437 H   0  0  0  0  0  0  0  0  0  0  0  0
    2.3840   -1.3374    3.3709 H   0  0  0  0  0  0  0  0  0  0  0  0
    1.6101   -0.1631    2.3059 H   0  0  0  0  0  0  0  0  0  0  0  0
    5.0714   -3.9571   -3.1783 H   0  0  0  0  0  0  0  0  0  0  0  0
    6.6280   -1.2644   -3.3093 H   0  0  0  0  0  0  0  0  0  0  0  0
    6.4554   -2.4936   -4.6795 H   0  0  0  0  0  0  0  0  0  0  0  0
    7.7157   -2.9803   -1.8548 H   0  0  0  0  0  0  0  0  0  0  0  0
    7.5683   -4.2489   -3.1923 H   0  0  0  0  0  0  0  0  0  0  0  0
    3.2348   -3.7772   -1.6655 H   0  0  0  0  0  0  0  0  0  0  0  0
    2.1992   -4.8298    0.0638 H   0  0  0  0  0  0  0  0  0  0  0  0
   -0.2112   -4.1743    1.5648 H   0  0  0  0  0  0  0  0  0  0  0  0
    0.2799   -5.7911    1.0232 H   0  0  0  0  0  0  0  0  0  0  0  0
   -0.8094   -3.6829   -0.8981 H   0  0  0  0  0  0  0  0  0  0  0  0
   -0.6670   -6.7484   -1.1159 H   0  0  0  0  0  0  0  0  0  0  0  0
    0.4542   -5.5746   -1.8464 H   0  0  0  0  0  0  0  0  0  0  0  0
   -1.2296   -5.6295   -2.3898 H   0  0  0  0  0  0  0  0  0  0  0  0
   -1.9311   -3.0142    1.2057 H   0  0  0  0  0  0  0  0  0  0  0  0
   -3.4205   -3.8904    1.6339 H   0  0  0  0  0  0  0  0  0  0  0  0
   -2.8793   -2.3804   -0.9945 H   0  0  0  0  0  0  0  0  0  0  0  0
   -4.0309   -1.9222    0.2904 H   0  0  0  0  0  0  0  0  0  0  0  0
   -3.4599   -4.3971   -2.3191 H   0  0  0  0  0  0  0  0  0  0  0  0
   -4.9676   -5.2373   -1.8511 H   0  0  0  0  0  0  0  0  0  0  0  0
   -2.9096   -6.4598   -0.9989 H   0  0  0  0  0  0  0  0  0  0  0  0
   -3.9982   -5.9340    0.2896 H   0  0  0  0  0  0  0  0  0  0  0  0
  1  2  1  0
  1 26  1  0
  1 27  1  0
  1 28  1  0
  2  3  2  0
  2 25  1  0
  3  4  1  0
  4  5  1  0
  5  6  1  0
  5 25  2  0
  6  7  2  0
  7  8  1  0
  7 11  1  0
  8  9  1  0
  8 10  1  0
  8 29  1  6
  9 10  1  0
  9 30  1  0
  9 31  1  0
 10 32  1  0
 10 33  1  0
 11 12  2  0
 11 34  1  0
 12 13  1  0
 12 25  1  0
 13 14  2  0
 13 15  1  0
 15 16  1  0
 15 35  1  0
 16 17  1  0
 16 36  1  0
 16 37  1  0
 17 18  1  0
 17 19  1  0
 17 38  1  6
 18 39  1  0
 18 40  1  0
 18 41  1  0
 19 20  1  0
 19 24  1  0
 20 21  1  0
 20 42  1  0
 20 43  1  0
 21 22  1  0
 21 44  1  0
 21 45  1  0
 22 23  1  0
 23 24  1  0
 23 46  1  0
 23 47  1  0
 24 48  1  0
 24 49  1  0
M  END

