
     RDKit          3D

 47 48  0  0  0  0  0  0  0  0999 V2000
    3.0740    1.7213    1.1607 C   0  0  0  0  0  0  0  0  0  0  0  0
    3.7037    1.0390   -0.0553 C   0  0  0  0  0  0  0  0  0  0  0  0
    5.1999    1.3293   -0.1742 C   0  0  0  0  0  0  0  0  0  0  0  0
    5.9282    0.6741   -1.3731 C   0  0  2  0  0  0  0  0  0  0  0  0
    5.9179   -0.4016   -1.1540 H   0  0  0  0  0  0  0  0  0  0  0  0
    7.4398    1.0136   -1.2931 C   0  0  0  0  0  0  0  0  0  0  0  0
    8.0209    1.0393   -0.2389 O   0  0  0  0  0  0  0  0  0  0  0  0
    8.0966    1.2275   -2.4434 O   0  0  0  0  0  0  0  0  0  0  0  0
    5.3140    0.7792   -2.7080 N   0  0  0  0  0  0  0  0  0  0  0  0
    5.2993   -0.3795   -3.5197 C   0  0  0  0  0  0  0  0  0  0  0  0
    4.7827   -1.6264   -3.0593 C   0  0  0  0  0  0  0  0  0  0  0  0
    4.2847   -1.6552   -1.7918 O   0  0  0  0  0  0  0  0  0  0  0  0
    3.7408   -2.8514   -1.2784 C   0  0  0  0  0  0  0  0  0  0  0  0
    4.7869   -2.7496   -3.8924 C   0  0  0  0  0  0  0  0  0  0  0  0
    5.2812   -2.6669   -5.1986 C   0  0  0  0  0  0  0  0  0  0  0  0
    5.7797   -1.4625   -5.6729 C   0  0  0  0  0  0  0  0  0  0  0  0
    5.7953   -0.3181   -4.8515 C   0  0  0  0  0  0  0  0  0  0  0  0
    6.3590    0.9584   -5.3221 C   0  0  0  0  0  0  0  0  0  0  0  0
    7.2488    0.9849   -6.5381 C   0  0  0  0  0  0  0  0  0  0  0  0
    6.0556    2.0818   -4.6363 C   0  0  0  0  0  0  0  0  0  0  0  0
    5.0935    2.0580   -3.4554 C   0  0  1  0  0  0  0  0  0  0  0  0
    3.6383    2.0967   -3.9766 C   0  0  0  0  0  0  0  0  0  0  0  0
    5.3342    3.3144   -2.6057 C   0  0  0  0  0  0  0  0  0  0  0  0
    1.9976    1.4982    1.2373 H   0  0  0  0  0  0  0  0  0  0  0  0
    3.1823    2.8181    1.1099 H   0  0  0  0  0  0  0  0  0  0  0  0
    3.5509    1.3911    2.0988 H   0  0  0  0  0  0  0  0  0  0  0  0
    3.1844    1.3611   -0.9733 H   0  0  0  0  0  0  0  0  0  0  0  0
    3.5440   -0.0490   -0.0007 H   0  0  0  0  0  0  0  0  0  0  0  0
    5.7214    0.9577    0.7210 H   0  0  0  0  0  0  0  0  0  0  0  0
    5.3692    2.4159   -0.1632 H   0  0  0  0  0  0  0  0  0  0  0  0
    7.4925    1.2067   -3.2088 H   0  0  0  0  0  0  0  0  0  0  0  0
    3.3996   -2.6243   -0.2593 H   0  0  0  0  0  0  0  0  0  0  0  0
    4.4921   -3.6596   -1.2329 H   0  0  0  0  0  0  0  0  0  0  0  0
    2.8785   -3.1980   -1.8751 H   0  0  0  0  0  0  0  0  0  0  0  0
    4.3847   -3.6961   -3.5329 H   0  0  0  0  0  0  0  0  0  0  0  0
    5.2673   -3.5515   -5.8392 H   0  0  0  0  0  0  0  0  0  0  0  0
    6.1619   -1.3997   -6.6923 H   0  0  0  0  0  0  0  0  0  0  0  0
    6.6883    0.7100   -7.4477 H   0  0  0  0  0  0  0  0  0  0  0  0
    8.0830    0.2704   -6.4482 H   0  0  0  0  0  0  0  0  0  0  0  0
    7.6674    1.9889   -6.6971 H   0  0  0  0  0  0  0  0  0  0  0  0
    6.4710    3.0460   -4.9469 H   0  0  0  0  0  0  0  0  0  0  0  0
    3.4168    1.2226   -4.6054 H   0  0  0  0  0  0  0  0  0  0  0  0
    3.4758    3.0009   -4.5842 H   0  0  0  0  0  0  0  0  0  0  0  0
    2.9278    2.1077   -3.1354 H   0  0  0  0  0  0  0  0  0  0  0  0
    6.3420    3.3457   -2.1684 H   0  0  0  0  0  0  0  0  0  0  0  0
    4.5903    3.4210   -1.8071 H   0  0  0  0  0  0  0  0  0  0  0  0
    5.2379    4.1913   -3.2635 H   0  0  0  0  0  0  0  0  0  0  0  0
  1  2  1  0
  1 24  1  0
  1 25  1  0
  1 26  1  0
  2  3  1  0
  2 27  1  0
  2 28  1  0
  3  4  1  0
  3 29  1  0
  3 30  1  0
  4  5  1  1
  4  6  1  0
  4  9  1  0
  6  7  2  0
  6  8  1  0
  8 31  1  0
  9 10  1  0
  9 21  1  0
 10 11  1  0
 10 17  2  0
 11 12  1  0
 11 14  2  0
 12 13  1  0
 13 32  1  0
 13 33  1  0
 13 34  1  0
 14 15  1  0
 14 35  1  0
 15 16  2  0
 15 36  1  0
 16 17  1  0
 16 37  1  0
 17 18  1  0
 18 19  1  0
 18 20  2  0
 19 38  1  0
 19 39  1  0
 19 40  1  0
 20 21  1  0
 20 41  1  0
 21 22  1  6
 21 23  1  0
 22 42  1  0
 22 43  1  0
 22 44  1  0
 23 45  1  0
 23 46  1  0
 23 47  1  0
M  END

