
     RDKit          3D

101106  0  0  0  0  0  0  0  0999 V2000
    1.1013   -0.9435    1.1366 C   0  0  0  0  0  0  0  0  0  0  0  0
    2.2421   -0.7386    0.4740 C   0  0  0  0  0  0  0  0  0  0  0  0
    3.2010   -1.8177    0.0641 C   0  0  0  0  0  0  0  0  0  0  0  0
    4.5136   -1.3741    0.3862 O   0  0  0  0  0  0  0  0  0  0  0  0
    5.6316   -2.2307    0.3892 C   0  0  2  0  0  0  0  0  0  0  0  0
    6.7388   -1.3537    0.4849 O   0  0  0  0  0  0  0  0  0  0  0  0
    6.9558   -0.7111    1.6850 C   0  0  0  0  0  0  0  0  0  0  0  0
    7.8257    0.3818    1.6573 C   0  0  0  0  0  0  0  0  0  0  0  0
    8.1207    1.0825    2.8269 C   0  0  0  0  0  0  0  0  0  0  0  0
    7.5331    0.6942    4.0371 C   0  0  0  0  0  0  0  0  0  0  0  0
    7.7685    1.3374    5.2159 O   0  0  0  0  0  0  0  0  0  0  0  0
    6.6657   -0.4041    4.0579 C   0  0  0  0  0  0  0  0  0  0  0  0
    6.3684   -1.1282    2.8969 C   0  0  0  0  0  0  0  0  0  0  0  0
    5.4121   -2.3095    2.8857 C   0  0  2  0  0  0  0  0  0  0  0  0
    5.3821   -3.1936    4.1538 C   0  0  2  0  0  0  0  0  0  0  0  0
    6.7377   -3.8878    4.4380 C   0  0  0  0  0  0  0  0  0  0  0  0
    7.1294   -4.0057    5.9199 C   0  0  0  0  0  0  0  0  0  0  0  0
    6.2220   -4.8664    6.8042 C   0  0  0  0  0  0  0  0  0  0  0  0
    6.7402   -5.0109    8.2356 C   0  0  0  0  0  0  0  0  0  0  0  0
    5.9350   -5.8516    9.0358 O   0  0  0  0  0  0  0  0  0  0  0  0
    4.2082   -4.2026    4.0206 C   0  0  1  0  0  0  0  0  0  0  0  0
    2.8432   -3.5780    4.4033 C   0  0  0  0  0  0  0  0  0  0  0  0
    1.6529   -4.5425    4.3779 C   0  0  0  0  0  0  0  0  0  0  0  0
    0.3479   -3.9023    4.8589 C   0  0  0  0  0  0  0  0  0  0  0  0
   -0.8475   -4.8544    4.8403 C   0  0  0  0  0  0  0  0  0  0  0  0
   -2.0591   -4.2297    5.2086 O   0  0  0  0  0  0  0  0  0  0  0  0
    4.1890   -4.8704    2.6656 C   0  0  0  0  0  0  0  0  0  0  0  0
    4.8408   -4.4174    1.5735 C   0  0  0  0  0  0  0  0  0  0  0  0
    4.9009   -5.1387    0.2786 C   0  0  0  0  0  0  0  0  0  0  0  0
    4.9214   -6.4109    0.0716 N   0  0  0  0  0  0  0  0  0  0  0  0
    4.8073   -7.1961    1.1929 O   0  0  0  0  0  0  0  0  0  0  0  0
    4.9403   -8.5926    0.8366 C   0  0  1  0  0  0  0  0  0  0  0  0
    6.3950   -8.9408    0.5148 C   0  0  0  0  0  0  0  0  0  0  0  0
    7.2711   -8.9163    1.7718 C   0  0  0  0  0  0  0  0  0  0  0  0
    6.6232   -9.7673    2.8705 C   0  0  0  0  0  0  0  0  0  0  0  0
    5.1828   -9.3181    3.0984 C   0  0  0  0  0  0  0  0  0  0  0  0
    4.4194   -9.3271    1.8901 O   0  0  0  0  0  0  0  0  0  0  0  0
    4.9595   -4.3091   -0.9908 C   0  0  0  0  0  0  0  0  0  0  0  0
    5.8538   -3.0578   -0.9011 C   0  0  1  0  0  0  0  0  0  0  0  0
    5.6239   -2.1345   -2.4761 S   0  0  0  0  0  0  0  0  0  0  0  0
    7.0585   -0.9918   -2.5151 C   0  0  0  0  0  0  0  0  0  0  0  0
    7.1779   -0.3793   -3.9191 C   0  0  0  0  0  0  0  0  0  0  0  0
    8.3279    0.5981   -4.0061 C   0  0  0  0  0  0  0  0  0  0  0  0
    9.5933    0.2077   -4.4658 C   0  0  0  0  0  0  0  0  0  0  0  0
   10.6329    1.1424   -4.4912 C   0  0  0  0  0  0  0  0  0  0  0  0
   10.4969    2.4104   -4.0961 N   0  0  0  0  0  0  0  0  0  0  0  0
    9.2927    2.7873   -3.6578 C   0  0  0  0  0  0  0  0  0  0  0  0
    8.1896    1.9316   -3.5932 C   0  0  0  0  0  0  0  0  0  0  0  0
    5.6816   -3.1569    1.6368 C   0  0  1  0  0  0  0  0  0  0  0  0
    0.4216   -0.1202    1.3728 H   0  0  0  0  0  0  0  0  0  0  0  0
    0.7947   -1.9441    1.4603 H   0  0  0  0  0  0  0  0  0  0  0  0
    2.5297    0.2727    0.1628 H   0  0  0  0  0  0  0  0  0  0  0  0
    3.1253   -1.9746   -1.0285 H   0  0  0  0  0  0  0  0  0  0  0  0
    2.9471   -2.7650    0.5701 H   0  0  0  0  0  0  0  0  0  0  0  0
    8.2690    0.6766    0.7042 H   0  0  0  0  0  0  0  0  0  0  0  0
    8.8050    1.9361    2.7945 H   0  0  0  0  0  0  0  0  0  0  0  0
    8.3745    2.0737    5.0633 H   0  0  0  0  0  0  0  0  0  0  0  0
    6.2252   -0.6817    5.0165 H   0  0  0  0  0  0  0  0  0  0  0  0
    4.4010   -1.8853    2.7650 H   0  0  0  0  0  0  0  0  0  0  0  0
    5.1495   -2.5389    5.0100 H   0  0  0  0  0  0  0  0  0  0  0  0
    7.5410   -3.3218    3.9392 H   0  0  0  0  0  0  0  0  0  0  0  0
    6.7431   -4.8904    3.9747 H   0  0  0  0  0  0  0  0  0  0  0  0
    7.1976   -2.9898    6.3509 H   0  0  0  0  0  0  0  0  0  0  0  0
    8.1543   -4.4163    5.9691 H   0  0  0  0  0  0  0  0  0  0  0  0
    6.1104   -5.8781    6.3756 H   0  0  0  0  0  0  0  0  0  0  0  0
    5.2051   -4.4323    6.8454 H   0  0  0  0  0  0  0  0  0  0  0  0
    6.8631   -4.0059    8.6919 H   0  0  0  0  0  0  0  0  0  0  0  0
    7.7426   -5.4710    8.2227 H   0  0  0  0  0  0  0  0  0  0  0  0
    5.0644   -5.4413    9.1193 H   0  0  0  0  0  0  0  0  0  0  0  0
    4.3795   -5.0149    4.7494 H   0  0  0  0  0  0  0  0  0  0  0  0
    2.6293   -2.7219    3.7401 H   0  0  0  0  0  0  0  0  0  0  0  0
    2.9388   -3.1582    5.4210 H   0  0  0  0  0  0  0  0  0  0  0  0
    1.8831   -5.4257    5.0030 H   0  0  0  0  0  0  0  0  0  0  0  0
    1.5051   -4.9291    3.3544 H   0  0  0  0  0  0  0  0  0  0  0  0
    0.1004   -3.0257    4.2347 H   0  0  0  0  0  0  0  0  0  0  0  0
    0.4827   -3.5166    5.8883 H   0  0  0  0  0  0  0  0  0  0  0  0
   -0.6319   -5.7386    5.4772 H   0  0  0  0  0  0  0  0  0  0  0  0
   -1.0011   -5.2387    3.8178 H   0  0  0  0  0  0  0  0  0  0  0  0
   -1.9689   -3.9132    6.1170 H   0  0  0  0  0  0  0  0  0  0  0  0
    3.6274   -5.8011    2.5830 H   0  0  0  0  0  0  0  0  0  0  0  0
    4.2882   -8.7721   -0.0325 H   0  0  0  0  0  0  0  0  0  0  0  0
    6.7596   -8.2442   -0.2553 H   0  0  0  0  0  0  0  0  0  0  0  0
    6.4002   -9.9511    0.0706 H   0  0  0  0  0  0  0  0  0  0  0  0
    7.3755   -7.8760    2.1262 H   0  0  0  0  0  0  0  0  0  0  0  0
    8.2866   -9.2764    1.5401 H   0  0  0  0  0  0  0  0  0  0  0  0
    7.1838   -9.6955    3.8178 H   0  0  0  0  0  0  0  0  0  0  0  0
    6.6275  -10.8303    2.5711 H   0  0  0  0  0  0  0  0  0  0  0  0
    5.1654   -8.3053    3.5416 H   0  0  0  0  0  0  0  0  0  0  0  0
    4.6520   -9.9948    3.7841 H   0  0  0  0  0  0  0  0  0  0  0  0
    3.9310   -4.0122   -1.2547 H   0  0  0  0  0  0  0  0  0  0  0  0
    5.3092   -4.9506   -1.8107 H   0  0  0  0  0  0  0  0  0  0  0  0
    6.9057   -3.3817   -0.8580 H   0  0  0  0  0  0  0  0  0  0  0  0
    7.9706   -1.5532   -2.2586 H   0  0  0  0  0  0  0  0  0  0  0  0
    6.9230   -0.2112   -1.7554 H   0  0  0  0  0  0  0  0  0  0  0  0
    6.2354    0.1358   -4.1696 H   0  0  0  0  0  0  0  0  0  0  0  0
    7.3108   -1.1845   -4.6593 H   0  0  0  0  0  0  0  0  0  0  0  0
    9.7698   -0.8158   -4.8082 H   0  0  0  0  0  0  0  0  0  0  0  0
   11.6252    0.8461   -4.8529 H   0  0  0  0  0  0  0  0  0  0  0  0
    9.1927    3.8326   -3.3406 H   0  0  0  0  0  0  0  0  0  0  0  0
    7.2285    2.3055   -3.2289 H   0  0  0  0  0  0  0  0  0  0  0  0
    6.7360   -3.4919    1.6623 H   0  0  0  0  0  0  0  0  0  0  0  0
  1  2  2  0
  1 50  1  0
  1 51  1  0
  2  3  1  0
  2 52  1  0
  3  4  1  0
  3 53  1  0
  3 54  1  0
  5  4  1  6
  5  6  1  0
  5 39  1  0
  5 49  1  0
  6  7  1  0
  7  8  2  0
  7 13  1  0
  8  9  1  0
  8 55  1  0
  9 10  2  0
  9 56  1  0
 10 11  1  0
 10 12  1  0
 11 57  1  0
 12 13  2  0
 12 58  1  0
 13 14  1  0
 14 15  1  0
 14 49  1  0
 14 59  1  6
 15 16  1  0
 15 21  1  0
 15 60  1  1
 16 17  1  0
 16 61  1  0
 16 62  1  0
 17 18  1  0
 17 63  1  0
 17 64  1  0
 18 19  1  0
 18 65  1  0
 18 66  1  0
 19 20  1  0
 19 67  1  0
 19 68  1  0
 20 69  1  0
 21 22  1  0
 21 27  1  0
 21 70  1  1
 22 23  1  0
 22 71  1  0
 22 72  1  0
 23 24  1  0
 23 73  1  0
 23 74  1  0
 24 25  1  0
 24 75  1  0
 24 76  1  0
 25 26  1  0
 25 77  1  0
 25 78  1  0
 26 79  1  0
 27 28  2  0
 27 80  1  0
 28 29  1  0
 28 49  1  0
 29 30  2  0
 29 38  1  0
 30 31  1  0
 31 32  1  0
 32 33  1  0
 32 37  1  0
 32 81  1  6
 33 34  1  0
 33 82  1  0
 33 83  1  0
 34 35  1  0
 34 84  1  0
 34 85  1  0
 35 36  1  0
 35 86  1  0
 35 87  1  0
 36 37  1  0
 36 88  1  0
 36 89  1  0
 38 39  1  0
 38 90  1  0
 38 91  1  0
 39 40  1  0
 39 92  1  1
 40 41  1  0
 41 42  1  0
 41 93  1  0
 41 94  1  0
 42 43  1  0
 42 95  1  0
 42 96  1  0
 43 44  2  0
 43 48  1  0
 44 45  1  0
 44 97  1  0
 45 46  2  0
 45 98  1  0
 46 47  1  0
 47 48  2  0
 47 99  1  0
 48100  1  0
 49101  1  1
M  END

