
     RDKit          3D

 42 44  0  0  0  0  0  0  0  0999 V2000
    1.5085    0.0587   -0.5493 C   0  0  0  0  0  0  0  0  0  0  0  0
    2.8906   -0.0385   -0.1172 N   0  0  0  0  0  0  0  0  0  0  0  0
    3.7272   -1.1241   -0.5980 C   0  0  0  0  0  0  0  0  0  0  0  0
    4.1416   -2.1515    0.4706 C   0  0  0  0  0  0  0  0  0  0  0  0
    5.0072   -1.5906    1.4891 N   0  0  0  0  0  0  0  0  0  0  0  0
    6.3816   -1.7487    1.5787 C   0  0  0  0  0  0  0  0  0  0  0  0
    7.0300   -1.2369    2.4870 O   0  0  0  0  0  0  0  0  0  0  0  0
    6.9843   -2.5310    0.6150 N   0  0  0  0  0  0  0  0  0  0  0  0
    8.4159   -2.8001    0.5956 C   0  0  1  0  0  0  0  0  0  0  0  0
    9.3250   -1.5621    0.4417 C   0  0  0  0  0  0  0  0  0  0  0  0
   10.7594   -2.0582    0.5590 C   0  0  0  0  0  0  0  0  0  0  0  0
   10.7999   -3.5117    1.7695 S   0  0  0  0  0  0  0  0  0  0  0  0
   11.2304   -4.7055    0.9456 O   0  0  0  0  0  0  0  0  0  0  0  0
    8.9329   -3.5478    1.8341 C   0  0  0  0  0  0  0  0  0  0  0  0
    4.3927   -0.5791    2.3465 C   0  0  0  0  0  0  0  0  0  0  0  0
    4.2768    0.8054    1.7329 C   0  0  0  0  0  0  0  0  0  0  0  0
    4.8994    1.8915    2.3647 C   0  0  0  0  0  0  0  0  0  0  0  0
    4.7127    3.2015    1.9196 C   0  0  0  0  0  0  0  0  0  0  0  0
    3.8908    3.4362    0.8142 C   0  0  0  0  0  0  0  0  0  0  0  0
    3.2899    2.3663    0.1504 C   0  0  0  0  0  0  0  0  0  0  0  0
    3.4816    1.0394    0.5825 C   0  0  0  0  0  0  0  0  0  0  0  0
    1.2416   -0.8379   -1.1269 H   0  0  0  0  0  0  0  0  0  0  0  0
    1.3096    0.9292   -1.2021 H   0  0  0  0  0  0  0  0  0  0  0  0
    0.8100    0.1230    0.3055 H   0  0  0  0  0  0  0  0  0  0  0  0
    4.6494   -0.7183   -1.0580 H   0  0  0  0  0  0  0  0  0  0  0  0
    3.1816   -1.6525   -1.3967 H   0  0  0  0  0  0  0  0  0  0  0  0
    4.6208   -3.0208   -0.0042 H   0  0  0  0  0  0  0  0  0  0  0  0
    3.2307   -2.5395    0.9615 H   0  0  0  0  0  0  0  0  0  0  0  0
    6.4662   -2.7986   -0.2083 H   0  0  0  0  0  0  0  0  0  0  0  0
    8.5859   -3.4571   -0.2732 H   0  0  0  0  0  0  0  0  0  0  0  0
    9.0809   -0.8561    1.2485 H   0  0  0  0  0  0  0  0  0  0  0  0
    9.1495   -1.0478   -0.5178 H   0  0  0  0  0  0  0  0  0  0  0  0
   11.4873   -1.2978    0.8755 H   0  0  0  0  0  0  0  0  0  0  0  0
   11.1220   -2.5584   -0.3522 H   0  0  0  0  0  0  0  0  0  0  0  0
    8.6173   -3.0435    2.7578 H   0  0  0  0  0  0  0  0  0  0  0  0
    8.6742   -4.6153    1.8605 H   0  0  0  0  0  0  0  0  0  0  0  0
    4.9853   -0.5209    3.2660 H   0  0  0  0  0  0  0  0  0  0  0  0
    3.3834   -0.9423    2.6089 H   0  0  0  0  0  0  0  0  0  0  0  0
    5.5298    1.6976    3.2366 H   0  0  0  0  0  0  0  0  0  0  0  0
    5.1994    4.0323    2.4362 H   0  0  0  0  0  0  0  0  0  0  0  0
    3.7301    4.4554    0.4529 H   0  0  0  0  0  0  0  0  0  0  0  0
    2.6757    2.5593   -0.7311 H   0  0  0  0  0  0  0  0  0  0  0  0
  1  2  1  0
  1 22  1  0
  1 23  1  0
  1 24  1  0
  2  3  1  0
  2 21  1  0
  3  4  1  0
  3 25  1  0
  3 26  1  0
  4  5  1  0
  4 27  1  0
  4 28  1  0
  5  6  1  0
  5 15  1  0
  6  7  2  0
  6  8  1  0
  8  9  1  0
  8 29  1  0
  9 10  1  0
  9 14  1  0
  9 30  1  6
 10 11  1  0
 10 31  1  0
 10 32  1  0
 11 12  1  0
 11 33  1  0
 11 34  1  0
 12 13  1  6
 12 14  1  0
 14 35  1  0
 14 36  1  0
 15 16  1  0
 15 37  1  0
 15 38  1  0
 16 17  2  0
 16 21  1  0
 17 18  1  0
 17 39  1  0
 18 19  2  0
 18 40  1  0
 19 20  1  0
 19 41  1  0
 20 21  2  0
 20 42  1  0
M  CHG  2  12   1  13  -1
M  END

