
     RDKit          3D

 47 48  0  0  0  0  0  0  0  0999 V2000
    8.5777  -10.5992   -6.4438 C   0  0  0  0  0  0  0  0  0  0  0  0
    9.2849   -9.7748   -5.5452 O   0  0  0  0  0  0  0  0  0  0  0  0
    8.7512   -9.5070   -4.3269 C   0  0  0  0  0  0  0  0  0  0  0  0
    9.5171   -8.6894   -3.4788 C   0  0  0  0  0  0  0  0  0  0  0  0
    9.0484   -8.3635   -2.2091 C   0  0  0  0  0  0  0  0  0  0  0  0
    7.8079   -8.8307   -1.7418 C   0  0  0  0  0  0  0  0  0  0  0  0
    7.2960   -8.4741   -0.3609 C   0  0  0  0  0  0  0  0  0  0  0  0
    6.2864   -7.4033   -0.3544 N   0  0  0  0  0  0  0  0  0  0  0  0
    6.8304   -6.1035   -0.7156 C   0  0  0  0  0  0  0  0  0  0  0  0
    5.4491   -7.3870    0.8546 C   0  0  2  0  0  0  0  0  0  0  0  0
    4.8784   -6.4414    0.8070 H   0  0  0  0  0  0  0  0  0  0  0  0
    6.1768   -7.4185    2.2033 C   0  0  0  0  0  0  0  0  0  0  0  0
    4.3565   -8.4863    0.7898 C   0  0  0  0  0  0  0  0  0  0  0  0
    3.9064   -9.0010    1.7984 O   0  0  0  0  0  0  0  0  0  0  0  0
    3.9349   -8.7307   -0.4908 N   0  0  0  0  0  0  0  0  0  0  0  0
    2.8931   -9.5589   -0.9503 C   0  0  0  0  0  0  0  0  0  0  0  0
    2.2316  -10.4640   -0.1013 C   0  0  0  0  0  0  0  0  0  0  0  0
    1.2102  -11.2734   -0.6015 C   0  0  0  0  0  0  0  0  0  0  0  0
    0.8351  -11.1945   -1.9435 C   0  0  0  0  0  0  0  0  0  0  0  0
    1.4890  -10.2878   -2.7817 C   0  0  0  0  0  0  0  0  0  0  0  0
    2.5143   -9.4566   -2.3136 C   0  0  0  0  0  0  0  0  0  0  0  0
    3.1795   -8.4642   -3.2374 C   0  0  0  0  0  0  0  0  0  0  0  0
    7.0606   -9.6519   -2.5959 C   0  0  0  0  0  0  0  0  0  0  0  0
    7.5142   -9.9937   -3.8743 C   0  0  0  0  0  0  0  0  0  0  0  0
    9.1934  -10.6749   -7.3502 H   0  0  0  0  0  0  0  0  0  0  0  0
    7.5965  -10.1682   -6.7140 H   0  0  0  0  0  0  0  0  0  0  0  0
    8.4183  -11.6134   -6.0349 H   0  0  0  0  0  0  0  0  0  0  0  0
   10.4814   -8.3264   -3.8402 H   0  0  0  0  0  0  0  0  0  0  0  0
    9.6651   -7.7342   -1.5604 H   0  0  0  0  0  0  0  0  0  0  0  0
    8.1605   -8.2110    0.2838 H   0  0  0  0  0  0  0  0  0  0  0  0
    6.8344   -9.3676    0.0884 H   0  0  0  0  0  0  0  0  0  0  0  0
    7.3215   -6.1632   -1.6980 H   0  0  0  0  0  0  0  0  0  0  0  0
    7.5798   -5.7188    0.0106 H   0  0  0  0  0  0  0  0  0  0  0  0
    6.0190   -5.3631   -0.7897 H   0  0  0  0  0  0  0  0  0  0  0  0
    5.4494   -7.3067    3.0183 H   0  0  0  0  0  0  0  0  0  0  0  0
    6.9095   -6.5996    2.2716 H   0  0  0  0  0  0  0  0  0  0  0  0
    6.6990   -8.3726    2.3667 H   0  0  0  0  0  0  0  0  0  0  0  0
    4.4957   -8.2270   -1.1770 H   0  0  0  0  0  0  0  0  0  0  0  0
    2.5262  -10.5121    0.9446 H   0  0  0  0  0  0  0  0  0  0  0  0
    0.7061  -11.9722    0.0713 H   0  0  0  0  0  0  0  0  0  0  0  0
    0.0368  -11.8284   -2.3372 H   0  0  0  0  0  0  0  0  0  0  0  0
    1.1934  -10.2121   -3.8322 H   0  0  0  0  0  0  0  0  0  0  0  0
    2.7277   -8.4991   -4.2389 H   0  0  0  0  0  0  0  0  0  0  0  0
    4.2598   -8.6567   -3.3605 H   0  0  0  0  0  0  0  0  0  0  0  0
    3.0794   -7.4293   -2.8658 H   0  0  0  0  0  0  0  0  0  0  0  0
    6.1032  -10.0540   -2.2535 H   0  0  0  0  0  0  0  0  0  0  0  0
    6.9022  -10.6434   -4.5002 H   0  0  0  0  0  0  0  0  0  0  0  0
  1  2  1  0
  1 25  1  0
  1 26  1  0
  1 27  1  0
  2  3  1  0
  3  4  2  0
  3 24  1  0
  4  5  1  0
  4 28  1  0
  5  6  2  0
  5 29  1  0
  6  7  1  0
  6 23  1  0
  7  8  1  0
  7 30  1  0
  7 31  1  0
  8  9  1  0
  8 10  1  0
  9 32  1  0
  9 33  1  0
  9 34  1  0
 10 11  1  1
 10 12  1  0
 10 13  1  0
 12 35  1  0
 12 36  1  0
 12 37  1  0
 13 14  2  0
 13 15  1  0
 15 16  1  0
 15 38  1  0
 16 17  2  0
 16 21  1  0
 17 18  1  0
 17 39  1  0
 18 19  2  0
 18 40  1  0
 19 20  1  0
 19 41  1  0
 20 21  2  0
 20 42  1  0
 21 22  1  0
 22 43  1  0
 22 44  1  0
 22 45  1  0
 23 24  2  0
 23 46  1  0
 24 47  1  0
M  END

