
     RDKit          3D

 72 76  0  0  0  0  0  0  0  0999 V2000
    7.8732   -1.8957    5.0113 C   0  0  0  0  0  0  0  0  0  0  0  0
    8.7746   -1.0882    4.3083 C   0  0  0  0  0  0  0  0  0  0  0  0
    8.4749   -0.6706    3.0106 C   0  0  0  0  0  0  0  0  0  0  0  0
    7.2712   -1.0493    2.3946 C   0  0  0  0  0  0  0  0  0  0  0  0
    6.9771   -0.5628    0.9917 C   0  0  0  0  0  0  0  0  0  0  0  0
    5.7704   -1.1392    0.5309 O   0  0  0  0  0  0  0  0  0  0  0  0
    5.2704   -0.8575   -0.7520 C   0  0  2  0  0  0  0  0  0  0  0  0
    4.1818   -1.0087   -0.6671 H   0  0  0  0  0  0  0  0  0  0  0  0
    5.7177   -1.8930   -1.8159 C   0  0  2  0  0  0  0  0  0  0  0  0
    5.4047   -2.8892   -1.4728 H   0  0  0  0  0  0  0  0  0  0  0  0
    7.5604   -1.9711   -2.0359 S   0  0  0  0  0  0  0  0  0  0  0  0
    7.6259   -3.5363   -3.0196 C   0  0  0  0  0  0  0  0  0  0  0  0
    9.0249   -3.7800   -3.5210 C   0  0  0  0  0  0  0  0  0  0  0  0
    9.9666   -4.4447   -2.7188 C   0  0  0  0  0  0  0  0  0  0  0  0
   11.2702   -4.6561   -3.1744 C   0  0  0  0  0  0  0  0  0  0  0  0
   11.6539   -4.2016   -4.4398 C   0  0  0  0  0  0  0  0  0  0  0  0
   10.7262   -3.5346   -5.2457 C   0  0  0  0  0  0  0  0  0  0  0  0
    9.4233   -3.3239   -4.7875 C   0  0  0  0  0  0  0  0  0  0  0  0
    5.0424   -1.6702   -3.0302 O   0  0  0  0  0  0  0  0  0  0  0  0
    5.2451   -0.3815   -3.5781 C   0  0  0  0  0  0  0  0  0  0  0  0
    4.7834    0.7447   -2.6464 C   0  0  1  0  0  0  0  0  0  0  0  0
    5.1071    1.7007   -3.0931 H   0  0  0  0  0  0  0  0  0  0  0  0
    2.9516    0.8488   -2.4087 S   0  0  0  0  0  0  0  0  0  0  0  0
    2.4239    1.2527   -4.1301 C   0  0  0  0  0  0  0  0  0  0  0  0
    0.9508    1.5771   -4.1394 C   0  0  0  0  0  0  0  0  0  0  0  0
    0.4986    2.8669   -3.8171 C   0  0  0  0  0  0  0  0  0  0  0  0
   -0.8661    3.1631   -3.8091 C   0  0  0  0  0  0  0  0  0  0  0  0
   -1.8018    2.1701   -4.1168 C   0  0  0  0  0  0  0  0  0  0  0  0
   -1.3637    0.8806   -4.4313 C   0  0  0  0  0  0  0  0  0  0  0  0
    0.0027    0.5870   -4.4398 C   0  0  0  0  0  0  0  0  0  0  0  0
    5.4633    0.5819   -1.2602 C   0  0  1  0  0  0  0  0  0  0  0  0
    6.5445    0.7848   -1.4133 H   0  0  0  0  0  0  0  0  0  0  0  0
    4.9554    1.4401   -0.2711 O   0  0  0  0  0  0  0  0  0  0  0  0
    5.1675    2.8197   -0.4631 C   0  0  0  0  0  0  0  0  0  0  0  0
    4.8781    3.5822    0.8119 C   0  0  0  0  0  0  0  0  0  0  0  0
    4.5328    2.9246    1.9989 C   0  0  0  0  0  0  0  0  0  0  0  0
    4.2785    3.6586    3.1630 C   0  0  0  0  0  0  0  0  0  0  0  0
    4.3655    5.0526    3.1537 C   0  0  0  0  0  0  0  0  0  0  0  0
    4.7078    5.7147    1.9692 C   0  0  0  0  0  0  0  0  0  0  0  0
    4.9598    4.9835    0.8072 C   0  0  0  0  0  0  0  0  0  0  0  0
    6.3739   -1.8575    3.1032 C   0  0  0  0  0  0  0  0  0  0  0  0
    6.6751   -2.2778    4.4036 C   0  0  0  0  0  0  0  0  0  0  0  0
    8.1065   -2.2250    6.0272 H   0  0  0  0  0  0  0  0  0  0  0  0
    9.7162   -0.7840    4.7731 H   0  0  0  0  0  0  0  0  0  0  0  0
    9.1867   -0.0411    2.4668 H   0  0  0  0  0  0  0  0  0  0  0  0
    7.8258   -0.8303    0.3361 H   0  0  0  0  0  0  0  0  0  0  0  0
    6.8943    0.5394    1.0071 H   0  0  0  0  0  0  0  0  0  0  0  0
    6.9139   -3.4303   -3.8499 H   0  0  0  0  0  0  0  0  0  0  0  0
    7.2893   -4.3605   -2.3715 H   0  0  0  0  0  0  0  0  0  0  0  0
    9.6724   -4.8000   -1.7272 H   0  0  0  0  0  0  0  0  0  0  0  0
   11.9893   -5.1795   -2.5388 H   0  0  0  0  0  0  0  0  0  0  0  0
   12.6731   -4.3685   -4.7979 H   0  0  0  0  0  0  0  0  0  0  0  0
   11.0178   -3.1781   -6.2371 H   0  0  0  0  0  0  0  0  0  0  0  0
    8.7013   -2.8010   -5.4212 H   0  0  0  0  0  0  0  0  0  0  0  0
    4.6988   -0.3618   -4.5309 H   0  0  0  0  0  0  0  0  0  0  0  0
    6.3195   -0.2350   -3.8018 H   0  0  0  0  0  0  0  0  0  0  0  0
    2.6270    0.3983   -4.7927 H   0  0  0  0  0  0  0  0  0  0  0  0
    3.0162    2.1133   -4.4816 H   0  0  0  0  0  0  0  0  0  0  0  0
    1.2257    3.6448   -3.5681 H   0  0  0  0  0  0  0  0  0  0  0  0
   -1.2011    4.1735   -3.5608 H   0  0  0  0  0  0  0  0  0  0  0  0
   -2.8701    2.4013   -4.1110 H   0  0  0  0  0  0  0  0  0  0  0  0
   -2.0886    0.0985   -4.6714 H   0  0  0  0  0  0  0  0  0  0  0  0
    0.3402   -0.4244   -4.6831 H   0  0  0  0  0  0  0  0  0  0  0  0
    4.5150    3.2013   -1.2726 H   0  0  0  0  0  0  0  0  0  0  0  0
    6.2179    3.0037   -0.7746 H   0  0  0  0  0  0  0  0  0  0  0  0
    4.4634    1.8362    2.0008 H   0  0  0  0  0  0  0  0  0  0  0  0
    4.0100    3.1331    4.0833 H   0  0  0  0  0  0  0  0  0  0  0  0
    4.1666    5.6234    4.0643 H   0  0  0  0  0  0  0  0  0  0  0  0
    4.7768    6.8056    1.9507 H   0  0  0  0  0  0  0  0  0  0  0  0
    5.2236    5.5091   -0.1164 H   0  0  0  0  0  0  0  0  0  0  0  0
    5.4406   -2.1536    2.6238 H   0  0  0  0  0  0  0  0  0  0  0  0
    5.9651   -2.9094    4.9447 H   0  0  0  0  0  0  0  0  0  0  0  0
  1  2  2  0
  1 42  1  0
  1 43  1  0
  2  3  1  0
  2 44  1  0
  3  4  2  0
  3 45  1  0
  4  5  1  0
  4 41  1  0
  5  6  1  0
  5 46  1  0
  5 47  1  0
  6  7  1  0
  7  8  1  1
  7  9  1  0
  7 31  1  0
  9 10  1  1
  9 11  1  0
  9 19  1  0
 11 12  1  0
 12 13  1  0
 12 48  1  0
 12 49  1  0
 13 14  2  0
 13 18  1  0
 14 15  1  0
 14 50  1  0
 15 16  2  0
 15 51  1  0
 16 17  1  0
 16 52  1  0
 17 18  2  0
 17 53  1  0
 18 54  1  0
 19 20  1  0
 20 21  1  0
 20 55  1  0
 20 56  1  0
 21 22  1  6
 21 23  1  0
 21 31  1  0
 23 24  1  0
 24 25  1  0
 24 57  1  0
 24 58  1  0
 25 26  2  0
 25 30  1  0
 26 27  1  0
 26 59  1  0
 27 28  2  0
 27 60  1  0
 28 29  1  0
 28 61  1  0
 29 30  2  0
 29 62  1  0
 30 63  1  0
 31 32  1  6
 31 33  1  0
 33 34  1  0
 34 35  1  0
 34 64  1  0
 34 65  1  0
 35 36  2  0
 35 40  1  0
 36 37  1  0
 36 66  1  0
 37 38  2  0
 37 67  1  0
 38 39  1  0
 38 68  1  0
 39 40  2  0
 39 69  1  0
 40 70  1  0
 41 42  2  0
 41 71  1  0
 42 72  1  0
M  END

