
     RDKit          3D

 49 51  0  0  0  0  0  0  0  0999 V2000
    4.5258    0.0244   -0.8857 C   0  0  0  0  0  0  0  0  0  0  0  0
    3.4670    0.0509    0.2229 C   0  0  1  0  0  0  0  0  0  0  0  0
    2.2949    0.9675   -0.1440 C   0  0  0  0  0  0  0  0  0  0  0  0
    2.9610   -1.3701    0.6104 C   0  0  1  0  0  0  0  0  0  0  0  0
    2.3101   -2.0517   -0.4918 N   0  0  0  0  0  0  0  0  0  0  0  0
    0.9608   -2.3484   -0.4777 C   0  0  0  0  0  0  0  0  0  0  0  0
    0.2088   -2.0138    0.4292 O   0  0  0  0  0  0  0  0  0  0  0  0
    0.5168   -3.0442   -1.5718 N   0  0  0  0  0  0  0  0  0  0  0  0
   -0.8632   -3.4483   -1.6638 C   0  0  0  0  0  0  0  0  0  0  0  0
   -1.0249   -4.2977   -2.8876 C   0  0  0  0  0  0  0  0  0  0  0  0
   -0.0470   -4.6244   -3.6949 N   0  0  0  0  0  0  0  0  0  0  0  0
   -0.5626   -5.4162   -4.6835 N   0  0  0  0  0  0  0  0  0  0  0  0
   -1.8487   -5.5509   -4.4620 C   0  0  0  0  0  0  0  0  0  0  0  0
   -2.2029   -4.8523   -3.3213 N   0  0  0  0  0  0  0  0  0  0  0  0
   -3.5031   -4.7391   -2.6563 C   0  0  0  0  0  0  0  0  0  0  0  0
   -4.6868   -4.8217   -3.6221 C   0  0  0  0  0  0  0  0  0  0  0  0
   -5.0490   -6.2359   -4.1075 C   0  0  0  0  0  0  0  0  0  0  0  0
   -3.8586   -7.1127   -4.5360 C   0  0  0  0  0  0  0  0  0  0  0  0
   -2.7744   -6.3592   -5.3216 C   0  0  0  0  0  0  0  0  0  0  0  0
    4.0333   -2.2535    1.2241 C   0  0  0  0  0  0  0  0  0  0  0  0
    4.2617   -3.5930    1.0133 C   0  0  0  0  0  0  0  0  0  0  0  0
    5.3250   -4.1243    1.8083 C   0  0  0  0  0  0  0  0  0  0  0  0
    5.8967   -3.1828    2.6222 C   0  0  0  0  0  0  0  0  0  0  0  0
    5.1435   -1.6353    2.4242 S   0  0  0  0  0  0  0  0  0  0  0  0
    4.9072    1.0386   -1.0843 H   0  0  0  0  0  0  0  0  0  0  0  0
    4.1012   -0.3508   -1.8326 H   0  0  0  0  0  0  0  0  0  0  0  0
    5.3848   -0.6106   -0.6191 H   0  0  0  0  0  0  0  0  0  0  0  0
    3.9407    0.4621    1.1333 H   0  0  0  0  0  0  0  0  0  0  0  0
    1.7879    0.6130   -1.0558 H   0  0  0  0  0  0  0  0  0  0  0  0
    2.6470    1.9941   -0.3343 H   0  0  0  0  0  0  0  0  0  0  0  0
    1.5420    1.0048    0.6583 H   0  0  0  0  0  0  0  0  0  0  0  0
    2.1605   -1.2350    1.3563 H   0  0  0  0  0  0  0  0  0  0  0  0
    2.8813   -2.3665   -1.2666 H   0  0  0  0  0  0  0  0  0  0  0  0
    1.1296   -3.4008   -2.3010 H   0  0  0  0  0  0  0  0  0  0  0  0
   -1.5332   -2.5672   -1.7108 H   0  0  0  0  0  0  0  0  0  0  0  0
   -1.1756   -4.0038   -0.7585 H   0  0  0  0  0  0  0  0  0  0  0  0
   -3.5165   -3.7656   -2.1444 H   0  0  0  0  0  0  0  0  0  0  0  0
   -3.5857   -5.5130   -1.8719 H   0  0  0  0  0  0  0  0  0  0  0  0
   -4.4755   -4.1597   -4.4787 H   0  0  0  0  0  0  0  0  0  0  0  0
   -5.5637   -4.3851   -3.1171 H   0  0  0  0  0  0  0  0  0  0  0  0
   -5.7505   -6.1309   -4.9527 H   0  0  0  0  0  0  0  0  0  0  0  0
   -5.6094   -6.7624   -3.3158 H   0  0  0  0  0  0  0  0  0  0  0  0
   -4.2373   -7.9472   -5.1477 H   0  0  0  0  0  0  0  0  0  0  0  0
   -3.3933   -7.5810   -3.6515 H   0  0  0  0  0  0  0  0  0  0  0  0
   -3.2430   -5.7141   -6.0879 H   0  0  0  0  0  0  0  0  0  0  0  0
   -2.1287   -7.0590   -5.8715 H   0  0  0  0  0  0  0  0  0  0  0  0
    3.6698   -4.1871    0.3166 H   0  0  0  0  0  0  0  0  0  0  0  0
    5.6487   -5.1660    1.7732 H   0  0  0  0  0  0  0  0  0  0  0  0
    6.7200   -3.3032    3.3250 H   0  0  0  0  0  0  0  0  0  0  0  0
  1  2  1  0
  1 25  1  0
  1 26  1  0
  1 27  1  0
  2  3  1  0
  2  4  1  0
  2 28  1  1
  3 29  1  0
  3 30  1  0
  3 31  1  0
  4  5  1  0
  4 20  1  0
  4 32  1  1
  5  6  1  0
  5 33  1  0
  6  7  2  0
  6  8  1  0
  8  9  1  0
  8 34  1  0
  9 10  1  0
  9 35  1  0
  9 36  1  0
 10 11  2  0
 10 14  1  0
 11 12  1  0
 12 13  2  0
 13 14  1  0
 13 19  1  0
 14 15  1  0
 15 16  1  0
 15 37  1  0
 15 38  1  0
 16 17  1  0
 16 39  1  0
 16 40  1  0
 17 18  1  0
 17 41  1  0
 17 42  1  0
 18 19  1  0
 18 43  1  0
 18 44  1  0
 19 45  1  0
 19 46  1  0
 20 21  2  0
 20 24  1  0
 21 22  1  0
 21 47  1  0
 22 23  2  0
 22 48  1  0
 23 24  1  0
 23 49  1  0
M  END

