
     RDKit          3D

 55 57  0  0  0  0  0  0  0  0999 V2000
    2.1442    0.7584    3.2628 C   0  0  0  0  0  0  0  0  0  0  0  0
    2.7570    1.4932    2.0692 C   0  0  0  0  0  0  0  0  0  0  0  0
    4.1116    0.9127    1.6528 C   0  0  0  0  0  0  0  0  0  0  0  0
    4.7951    1.5815    0.4533 C   0  0  0  0  0  0  0  0  0  0  0  0
    5.1434    3.0006    0.6612 N   0  0  0  0  0  0  0  0  0  0  0  0
    4.4316    4.0380    0.0925 C   0  0  0  0  0  0  0  0  0  0  0  0
    3.0479    3.5953   -0.9409 S   0  0  0  0  0  0  0  0  0  0  0  0
    2.5378    5.2749   -1.4399 C   0  0  0  0  0  0  0  0  0  0  0  0
    1.3221    5.1359   -2.3556 C   0  0  0  0  0  0  0  0  0  0  0  0
    0.8612    4.0340   -2.6162 O   0  0  0  0  0  0  0  0  0  0  0  0
    0.7933    6.2976   -2.8535 N   0  0  0  0  0  0  0  0  0  0  0  0
   -0.3511    6.2300   -3.7649 C   0  0  0  0  0  0  0  0  0  0  0  0
   -1.4553    7.1895   -3.2951 C   0  0  0  0  0  0  0  0  0  0  0  0
   -0.9886    8.5556   -3.0841 N   0  0  0  0  0  0  0  0  0  0  0  0
   -0.8519    9.3601   -4.2844 C   0  0  0  0  0  0  0  0  0  0  0  0
    0.1540    8.5766   -2.1843 C   0  0  0  0  0  0  0  0  0  0  0  0
    1.3039    7.6463   -2.6197 C   0  0  0  0  0  0  0  0  0  0  0  0
    4.7256    5.2973    0.2648 N   0  0  0  0  0  0  0  0  0  0  0  0
    5.7970    5.5693    1.0445 C   0  0  0  0  0  0  0  0  0  0  0  0
    6.3322    7.1880    1.3988 S   0  0  0  0  0  0  0  0  0  0  0  0
    7.6654    6.5827    2.3757 C   0  0  0  0  0  0  0  0  0  0  0  0
    8.6003    7.5634    3.0263 C   0  0  0  0  0  0  0  0  0  0  0  0
    7.6957    5.2082    2.4237 C   0  0  0  0  0  0  0  0  0  0  0  0
    8.7169    4.4005    3.1750 C   0  0  0  0  0  0  0  0  0  0  0  0
    6.6189    4.6287    1.6593 C   0  0  0  0  0  0  0  0  0  0  0  0
    6.3097    3.2271    1.4642 C   0  0  0  0  0  0  0  0  0  0  0  0
    6.9325    2.2744    1.9085 O   0  0  0  0  0  0  0  0  0  0  0  0
    1.1747    1.1950    3.5506 H   0  0  0  0  0  0  0  0  0  0  0  0
    2.8059    0.8031    4.1441 H   0  0  0  0  0  0  0  0  0  0  0  0
    1.9740   -0.3072    3.0339 H   0  0  0  0  0  0  0  0  0  0  0  0
    2.8744    2.5617    2.3221 H   0  0  0  0  0  0  0  0  0  0  0  0
    2.0590    1.4631    1.2147 H   0  0  0  0  0  0  0  0  0  0  0  0
    3.9875   -0.1533    1.3891 H   0  0  0  0  0  0  0  0  0  0  0  0
    4.8115    0.9351    2.5036 H   0  0  0  0  0  0  0  0  0  0  0  0
    4.1728    1.5107   -0.4494 H   0  0  0  0  0  0  0  0  0  0  0  0
    5.7402    1.0599    0.2503 H   0  0  0  0  0  0  0  0  0  0  0  0
    3.3792    5.7748   -1.9410 H   0  0  0  0  0  0  0  0  0  0  0  0
    2.3153    5.8631   -0.5384 H   0  0  0  0  0  0  0  0  0  0  0  0
   -0.7005    5.1902   -3.7859 H   0  0  0  0  0  0  0  0  0  0  0  0
   -0.0174    6.4948   -4.7864 H   0  0  0  0  0  0  0  0  0  0  0  0
   -1.8633    6.8101   -2.3407 H   0  0  0  0  0  0  0  0  0  0  0  0
   -2.2814    7.1951   -4.0242 H   0  0  0  0  0  0  0  0  0  0  0  0
   -1.8105    9.3759   -4.8277 H   0  0  0  0  0  0  0  0  0  0  0  0
   -0.0724    9.0233   -5.0035 H   0  0  0  0  0  0  0  0  0  0  0  0
   -0.6129   10.3995   -4.0067 H   0  0  0  0  0  0  0  0  0  0  0  0
   -0.1841    8.2543   -1.1821 H   0  0  0  0  0  0  0  0  0  0  0  0
    0.5284    9.6086   -2.0887 H   0  0  0  0  0  0  0  0  0  0  0  0
    2.0829    7.6358   -1.8476 H   0  0  0  0  0  0  0  0  0  0  0  0
    1.7723    8.0285   -3.5475 H   0  0  0  0  0  0  0  0  0  0  0  0
    8.2730    8.6007    2.8629 H   0  0  0  0  0  0  0  0  0  0  0  0
    9.6246    7.4757    2.6262 H   0  0  0  0  0  0  0  0  0  0  0  0
    8.6572    7.4049    4.1158 H   0  0  0  0  0  0  0  0  0  0  0  0
    9.4445    5.0442    3.6890 H   0  0  0  0  0  0  0  0  0  0  0  0
    9.2628    3.7258    2.4973 H   0  0  0  0  0  0  0  0  0  0  0  0
    8.2352    3.7496    3.9214 H   0  0  0  0  0  0  0  0  0  0  0  0
  1  2  1  0
  1 28  1  0
  1 29  1  0
  1 30  1  0
  2  3  1  0
  2 31  1  0
  2 32  1  0
  3  4  1  0
  3 33  1  0
  3 34  1  0
  4  5  1  0
  4 35  1  0
  4 36  1  0
  5  6  1  0
  5 26  1  0
  6  7  2  0
  6 18  1  0
  7  8  1  0
  8  9  1  0
  8 37  1  0
  8 38  1  0
  9 10  2  0
  9 11  1  0
 11 12  1  0
 11 17  1  0
 12 13  1  0
 12 39  1  0
 12 40  1  0
 13 14  1  0
 13 41  1  0
 13 42  1  0
 14 15  1  0
 14 16  1  0
 15 43  1  0
 15 44  1  0
 15 45  1  0
 16 17  1  0
 16 46  1  0
 16 47  1  0
 17 48  1  0
 17 49  1  0
 18 19  2  0
 19 20  1  0
 19 25  1  0
 20 21  1  0
 21 22  1  0
 21 23  2  0
 22 50  1  0
 22 51  1  0
 22 52  1  0
 23 24  1  0
 23 25  1  0
 24 53  1  0
 24 54  1  0
 24 55  1  0
 25 26  2  0
 26 27  1  0
M  CHG  2   7   1  27  -1
M  END

