
     RDKit          3D

 29 29  0  0  0  0  0  0  0  0999 V2000
    1.2143    0.9753   -0.6936 C   0  0  0  0  0  0  0  0  0  0  0  0
    2.3364    0.1622   -0.0433 C   0  0  0  0  0  0  0  0  0  0  0  0
    2.9593   -0.9207   -0.9498 C   0  0  1  0  0  0  0  0  0  0  0  0
    4.1892   -1.5891   -0.2988 C   0  0  0  0  0  0  0  0  0  0  0  0
    3.8172   -2.5727    0.8204 C   0  0  0  0  0  0  0  0  0  0  0  0
    2.8112   -3.6262    0.3386 C   0  0  0  0  0  0  0  0  0  0  0  0
    1.5623   -2.9851   -0.2871 C   0  0  2  0  0  0  0  0  0  0  0  0
    0.5650   -4.0437   -0.7775 C   0  0  0  0  0  0  0  0  0  0  0  0
   -0.6813   -3.4405   -1.2429 N   0  0  0  0  0  0  0  0  0  0  0  0
    1.9659   -2.0098   -1.4063 C   0  0  0  0  0  0  0  0  0  0  0  0
    0.8757    1.7862   -0.0285 H   0  0  0  0  0  0  0  0  0  0  0  0
    0.3345    0.3553   -0.9280 H   0  0  0  0  0  0  0  0  0  0  0  0
    1.5509    1.4391   -1.6364 H   0  0  0  0  0  0  0  0  0  0  0  0
    1.9617   -0.2866    0.8931 H   0  0  0  0  0  0  0  0  0  0  0  0
    3.1439    0.8508    0.2643 H   0  0  0  0  0  0  0  0  0  0  0  0
    3.3108   -0.3972   -1.8585 H   0  0  0  0  0  0  0  0  0  0  0  0
    4.8820   -0.8197    0.0842 H   0  0  0  0  0  0  0  0  0  0  0  0
    4.7426   -2.1407   -1.0807 H   0  0  0  0  0  0  0  0  0  0  0  0
    3.3858   -2.0225    1.6757 H   0  0  0  0  0  0  0  0  0  0  0  0
    4.7268   -3.0647    1.2048 H   0  0  0  0  0  0  0  0  0  0  0  0
    2.5239   -4.2900    1.1729 H   0  0  0  0  0  0  0  0  0  0  0  0
    3.2955   -4.2727   -0.4185 H   0  0  0  0  0  0  0  0  0  0  0  0
    1.0507   -2.4089    0.5099 H   0  0  0  0  0  0  0  0  0  0  0  0
    0.4255   -4.7951    0.0312 H   0  0  0  0  0  0  0  0  0  0  0  0
    1.0164   -4.5897   -1.6257 H   0  0  0  0  0  0  0  0  0  0  0  0
   -1.2087   -3.0663   -0.4527 H   0  0  0  0  0  0  0  0  0  0  0  0
   -1.2806   -4.1411   -1.6780 H   0  0  0  0  0  0  0  0  0  0  0  0
    1.0604   -1.5719   -1.8504 H   0  0  0  0  0  0  0  0  0  0  0  0
    2.4429   -2.5983   -2.2129 H   0  0  0  0  0  0  0  0  0  0  0  0
  1  2  1  0
  1 11  1  0
  1 12  1  0
  1 13  1  0
  2  3  1  0
  2 14  1  0
  2 15  1  0
  3  4  1  0
  3 10  1  0
  3 16  1  6
  4  5  1  0
  4 17  1  0
  4 18  1  0
  5  6  1  0
  5 19  1  0
  5 20  1  0
  6  7  1  0
  6 21  1  0
  6 22  1  0
  7  8  1  0
  7 10  1  0
  7 23  1  1
  8  9  1  0
  8 24  1  0
  8 25  1  0
  9 26  1  0
  9 27  1  0
 10 28  1  0
 10 29  1  0
M  END

