
     RDKit          3D

 24 25  0  0  0  0  0  0  0  0999 V2000
    3.5329    0.0218    1.1031 C   0  0  0  0  0  0  0  0  0  0  0  0
    2.4816    0.0437    0.0903 N   0  0  0  0  0  0  0  0  0  0  0  0
    2.8690   -0.3217   -1.2563 C   0  0  2  0  0  0  0  0  0  0  0  0
    3.3924   -1.7544   -1.3615 C   0  0  0  0  0  0  0  0  0  0  0  0
    3.6359   -2.1237   -2.7191 O   0  0  0  0  0  0  0  0  0  0  0  0
    4.3931   -1.2856   -3.4527 C   0  0  0  0  0  0  0  0  0  0  0  0
    5.0065   -1.7826   -4.6227 C   0  0  0  0  0  0  0  0  0  0  0  0
    4.7676   -3.4497   -5.0700 Cl  0  0  0  0  0  0  0  0  0  0  0  0
    5.8024   -0.9514   -5.4074 C   0  0  0  0  0  0  0  0  0  0  0  0
    6.0071    0.3895   -5.0478 C   0  0  0  0  0  0  0  0  0  0  0  0
    5.3989    0.8946   -3.9060 C   0  0  0  0  0  0  0  0  0  0  0  0
    4.5849    0.0713   -3.1078 C   0  0  0  0  0  0  0  0  0  0  0  0
    3.8648    0.6362   -1.9374 C   0  0  0  0  0  0  0  0  0  0  0  0
    3.9950    1.7864   -1.5645 O   0  0  0  0  0  0  0  0  0  0  0  0
    3.1326    0.4516    2.0336 H   0  0  0  0  0  0  0  0  0  0  0  0
    4.4461    0.5899    0.8360 H   0  0  0  0  0  0  0  0  0  0  0  0
    3.8289   -1.0132    1.3386 H   0  0  0  0  0  0  0  0  0  0  0  0
    2.0793    0.9784    0.0537 H   0  0  0  0  0  0  0  0  0  0  0  0
    1.9602   -0.2779   -1.8896 H   0  0  0  0  0  0  0  0  0  0  0  0
    2.6520   -2.4658   -0.9735 H   0  0  0  0  0  0  0  0  0  0  0  0
    4.3318   -1.8783   -0.7926 H   0  0  0  0  0  0  0  0  0  0  0  0
    6.2677   -1.3674   -6.3029 H   0  0  0  0  0  0  0  0  0  0  0  0
    6.6372    1.0262   -5.6723 H   0  0  0  0  0  0  0  0  0  0  0  0
    5.5176    1.9363   -3.6010 H   0  0  0  0  0  0  0  0  0  0  0  0
  1  2  1  0
  1 15  1  0
  1 16  1  0
  1 17  1  0
  2  3  1  0
  2 18  1  0
  3  4  1  0
  3 13  1  0
  3 19  1  6
  4  5  1  0
  4 20  1  0
  4 21  1  0
  5  6  1  0
  6  7  1  0
  6 12  2  0
  7  8  1  0
  7  9  2  0
  9 10  1  0
  9 22  1  0
 10 11  2  0
 10 23  1  0
 11 12  1  0
 11 24  1  0
 12 13  1  0
 13 14  2  0
M  END

