
     RDKit          3D

 66 68  0  0  0  0  0  0  0  0999 V2000
    2.6708   -2.7877   -0.5947 C   0  0  0  0  0  0  0  0  0  0  0  0
    2.3064   -1.4236   -1.1960 C   0  0  1  0  0  0  0  0  0  0  0  0
    0.8108   -1.1319   -1.0149 C   0  0  0  0  0  0  0  0  0  0  0  0
    3.1519   -0.2745   -0.6123 C   0  0  0  0  0  0  0  0  0  0  0  0
    4.6751   -0.3750   -0.7946 C   0  0  0  0  0  0  0  0  0  0  0  0
    5.1893   -0.4323   -2.2539 C   0  0  1  0  0  0  0  0  0  0  0  0
    4.7514    0.7466   -3.1503 C   0  0  0  0  0  0  0  0  0  0  0  0
    5.2407    2.1132   -2.6904 C   0  0  0  0  0  0  0  0  0  0  0  0
    4.8309    3.0789   -3.6446 O   0  0  0  0  0  0  0  0  0  0  0  0
    5.2330    4.3945   -3.3639 C   0  0  0  0  0  0  0  0  0  0  0  0
    4.3887    5.1069   -2.3188 C   0  0  0  0  0  0  0  0  0  0  0  0
    4.9394    6.1934   -1.5835 C   0  0  0  0  0  0  0  0  0  0  0  0
    4.1797    6.8903   -0.6691 C   0  0  0  0  0  0  0  0  0  0  0  0
    2.8224    6.5384   -0.4264 C   0  0  0  0  0  0  0  0  0  0  0  0
    2.0079    7.2300    0.5134 C   0  0  0  0  0  0  0  0  0  0  0  0
    0.6963    6.8573    0.7215 C   0  0  0  0  0  0  0  0  0  0  0  0
    0.1388    5.7722   -0.0025 C   0  0  0  0  0  0  0  0  0  0  0  0
    0.9028    5.0808   -0.9194 C   0  0  0  0  0  0  0  0  0  0  0  0
    2.2599    5.4394   -1.1588 C   0  0  0  0  0  0  0  0  0  0  0  0
    3.0720    4.7489   -2.1008 C   0  0  0  0  0  0  0  0  0  0  0  0
    6.7407   -0.7227   -2.3205 B   0  0  0  0  0  0  0  0  0  0  0  0
    7.5725   -0.2569   -3.3070 O   0  0  0  0  0  0  0  0  0  0  0  0
    8.8467   -0.9389   -3.1953 C   0  0  2  0  0  0  0  0  0  0  0  0
    9.9615    0.0507   -3.5243 C   0  0  0  0  0  0  0  0  0  0  0  0
    8.8345   -2.0739   -4.2265 C   0  0  0  0  0  0  0  0  0  0  0  0
    8.8216   -1.4515   -1.6947 C   0  0  2  0  0  0  0  0  0  0  0  0
    9.4228   -0.4520   -0.6992 C   0  0  0  0  0  0  0  0  0  0  0  0
    9.4275   -2.8351   -1.4724 C   0  0  0  0  0  0  0  0  0  0  0  0
    7.4009   -1.5172   -1.4177 O   0  0  0  0  0  0  0  0  0  0  0  0
    2.0413   -3.5880   -1.0170 H   0  0  0  0  0  0  0  0  0  0  0  0
    2.5186   -2.7886    0.4990 H   0  0  0  0  0  0  0  0  0  0  0  0
    3.7208   -3.0605   -0.7832 H   0  0  0  0  0  0  0  0  0  0  0  0
    2.5003   -1.4736   -2.2840 H   0  0  0  0  0  0  0  0  0  0  0  0
    0.5467   -1.0729    0.0554 H   0  0  0  0  0  0  0  0  0  0  0  0
    0.1880   -1.9209   -1.4674 H   0  0  0  0  0  0  0  0  0  0  0  0
    0.5273   -0.1731   -1.4790 H   0  0  0  0  0  0  0  0  0  0  0  0
    2.9388   -0.2045    0.4710 H   0  0  0  0  0  0  0  0  0  0  0  0
    2.7906    0.6765   -1.0419 H   0  0  0  0  0  0  0  0  0  0  0  0
    5.0547   -1.2613   -0.2614 H   0  0  0  0  0  0  0  0  0  0  0  0
    5.1365    0.4838   -0.2754 H   0  0  0  0  0  0  0  0  0  0  0  0
    4.7533   -1.3426   -2.7158 H   0  0  0  0  0  0  0  0  0  0  0  0
    3.6522    0.7864   -3.2337 H   0  0  0  0  0  0  0  0  0  0  0  0
    5.1321    0.5887   -4.1721 H   0  0  0  0  0  0  0  0  0  0  0  0
    6.3468    2.1155   -2.6112 H   0  0  0  0  0  0  0  0  0  0  0  0
    4.8388    2.3671   -1.6906 H   0  0  0  0  0  0  0  0  0  0  0  0
    5.1613    4.9458   -4.3189 H   0  0  0  0  0  0  0  0  0  0  0  0
    6.2997    4.4271   -3.0601 H   0  0  0  0  0  0  0  0  0  0  0  0
    5.9842    6.4749   -1.7482 H   0  0  0  0  0  0  0  0  0  0  0  0
    4.6168    7.7227   -0.1103 H   0  0  0  0  0  0  0  0  0  0  0  0
    2.4404    8.0662    1.0703 H   0  0  0  0  0  0  0  0  0  0  0  0
    0.0808    7.3973    1.4457 H   0  0  0  0  0  0  0  0  0  0  0  0
   -0.9018    5.4854    0.1701 H   0  0  0  0  0  0  0  0  0  0  0  0
    0.4741    4.2443   -1.4782 H   0  0  0  0  0  0  0  0  0  0  0  0
    2.6467    3.9148   -2.6646 H   0  0  0  0  0  0  0  0  0  0  0  0
    9.8769    0.3643   -4.5757 H   0  0  0  0  0  0  0  0  0  0  0  0
   10.9518   -0.4111   -3.3855 H   0  0  0  0  0  0  0  0  0  0  0  0
    9.9046    0.9522   -2.9005 H   0  0  0  0  0  0  0  0  0  0  0  0
    8.6443   -1.6468   -5.2224 H   0  0  0  0  0  0  0  0  0  0  0  0
    8.0378   -2.8022   -4.0148 H   0  0  0  0  0  0  0  0  0  0  0  0
    9.7956   -2.6087   -4.2573 H   0  0  0  0  0  0  0  0  0  0  0  0
   10.5174   -0.3896   -0.7927 H   0  0  0  0  0  0  0  0  0  0  0  0
    9.1812   -0.7800    0.3227 H   0  0  0  0  0  0  0  0  0  0  0  0
    9.0039    0.5558   -0.8367 H   0  0  0  0  0  0  0  0  0  0  0  0
   10.4956   -2.8457   -1.7407 H   0  0  0  0  0  0  0  0  0  0  0  0
    8.9105   -3.6058   -2.0588 H   0  0  0  0  0  0  0  0  0  0  0  0
    9.3412   -3.1083   -0.4099 H   0  0  0  0  0  0  0  0  0  0  0  0
  1  2  1  0
  1 30  1  0
  1 31  1  0
  1 32  1  0
  2  3  1  0
  2  4  1  0
  2 33  1  6
  3 34  1  0
  3 35  1  0
  3 36  1  0
  4  5  1  0
  4 37  1  0
  4 38  1  0
  5  6  1  0
  5 39  1  0
  5 40  1  0
  6  7  1  0
  6 21  1  0
  6 41  1  6
  7  8  1  0
  7 42  1  0
  7 43  1  0
  8  9  1  0
  8 44  1  0
  8 45  1  0
  9 10  1  0
 10 11  1  0
 10 46  1  0
 10 47  1  0
 11 12  2  0
 11 20  1  0
 12 13  1  0
 12 48  1  0
 13 14  2  0
 13 49  1  0
 14 15  1  0
 14 19  1  0
 15 16  2  0
 15 50  1  0
 16 17  1  0
 16 51  1  0
 17 18  2  0
 17 52  1  0
 18 19  1  0
 18 53  1  0
 19 20  2  0
 20 54  1  0
 21 22  1  0
 21 29  1  0
 22 23  1  0
 23 24  1  1
 23 25  1  0
 23 26  1  0
 24 55  1  0
 24 56  1  0
 24 57  1  0
 25 58  1  0
 25 59  1  0
 25 60  1  0
 26 27  1  1
 26 28  1  0
 26 29  1  0
 27 61  1  0
 27 62  1  0
 27 63  1  0
 28 64  1  0
 28 65  1  0
 28 66  1  0
M  END

