
     RDKit          3D

 25 25  0  0  0  0  0  0  0  0999 V2000
    1.7165    1.0724    0.7394 C   0  0  0  0  0  0  0  0  0  0  0  0
    2.2227   -0.0051   -0.0151 O   0  0  0  0  0  0  0  0  0  0  0  0
    2.7525    0.2433   -1.2343 C   0  0  0  0  0  0  0  0  0  0  0  0
    2.8709    1.4998   -1.8383 C   0  0  0  0  0  0  0  0  0  0  0  0
    3.4411    1.6226   -3.1136 C   0  0  0  0  0  0  0  0  0  0  0  0
    3.9037    0.5100   -3.8193 C   0  0  0  0  0  0  0  0  0  0  0  0
    4.6042    0.6713   -5.1576 C   0  0  1  0  0  0  0  0  0  0  0  0
    6.0742    0.6299   -5.0900 N   0  0  0  0  0  0  0  0  0  0  0  0
    4.0744   -0.3170   -6.2278 C   0  0  0  0  0  0  0  0  0  0  0  0
    5.0060   -0.6666   -7.1501 N   0  0  0  0  0  0  0  0  0  0  0  0
    2.9167   -0.6919   -6.2428 O   0  0  0  0  0  0  0  0  0  0  0  0
    3.7797   -0.7547   -3.2139 C   0  0  0  0  0  0  0  0  0  0  0  0
    3.2196   -0.8773   -1.9550 C   0  0  0  0  0  0  0  0  0  0  0  0
    3.1032   -2.0868   -1.3925 F   0  0  0  0  0  0  0  0  0  0  0  0
    1.3342    0.6455    1.6762 H   0  0  0  0  0  0  0  0  0  0  0  0
    0.8900    1.5873    0.2168 H   0  0  0  0  0  0  0  0  0  0  0  0
    2.5020    1.8127    0.9776 H   0  0  0  0  0  0  0  0  0  0  0  0
    2.5161    2.3926   -1.3230 H   0  0  0  0  0  0  0  0  0  0  0  0
    3.5151    2.6171   -3.5629 H   0  0  0  0  0  0  0  0  0  0  0  0
    4.3351    1.6650   -5.5563 H   0  0  0  0  0  0  0  0  0  0  0  0
    6.3678   -0.1674   -4.5216 H   0  0  0  0  0  0  0  0  0  0  0  0
    6.4240    1.4564   -4.6056 H   0  0  0  0  0  0  0  0  0  0  0  0
    5.9464   -0.2983   -7.0539 H   0  0  0  0  0  0  0  0  0  0  0  0
    4.7350   -1.2611   -7.9232 H   0  0  0  0  0  0  0  0  0  0  0  0
    4.0919   -1.6686   -3.7240 H   0  0  0  0  0  0  0  0  0  0  0  0
  1  2  1  0
  1 15  1  0
  1 16  1  0
  1 17  1  0
  2  3  1  0
  3  4  2  0
  3 13  1  0
  4  5  1  0
  4 18  1  0
  5  6  2  0
  5 19  1  0
  6  7  1  0
  6 12  1  0
  7  8  1  0
  7  9  1  0
  7 20  1  6
  8 21  1  0
  8 22  1  0
  9 10  1  0
  9 11  2  0
 10 23  1  0
 10 24  1  0
 12 13  2  0
 12 25  1  0
 13 14  1  0
M  END

