
     RDKit          3D

 25 26  0  0  0  0  0  0  0  0999 V2000
    1.2463    0.1137   -1.2293 N   0  0  0  0  0  0  0  0  0  0  0  0
    2.3073    0.0712   -0.7635 C   0  0  0  0  0  0  0  0  0  0  0  0
    3.6597    0.0351   -0.1727 C   0  0  1  0  0  0  0  0  0  0  0  0
    4.3747   -1.2416   -0.5608 C   0  0  0  0  0  0  0  0  0  0  0  0
    5.1697   -1.2591   -1.6533 C   0  0  0  0  0  0  0  0  0  0  0  0
    5.7214   -2.4461   -2.0350 O   0  0  0  0  0  0  0  0  0  0  0  0
    6.7697   -2.4708   -2.9658 C   0  0  1  0  0  0  0  0  0  0  0  0
    7.0154   -3.7969   -3.6068 C   0  0  0  0  0  0  0  0  0  0  0  0
    6.4488   -2.6574   -4.4260 C   0  0  0  0  0  0  0  0  0  0  0  0
    5.4217   -0.0293   -2.4225 C   0  0  0  0  0  0  0  0  0  0  0  0
    5.0751    1.1745   -1.9345 C   0  0  0  0  0  0  0  0  0  0  0  0
    4.4705    1.3239   -0.5555 C   0  0  2  0  0  0  0  0  0  0  0  0
    5.5367    1.6781    0.3675 N   0  0  0  0  0  0  0  0  0  0  0  0
    3.5169    0.0614    0.9219 H   0  0  0  0  0  0  0  0  0  0  0  0
    4.1838   -2.1633   -0.0087 H   0  0  0  0  0  0  0  0  0  0  0  0
    7.6321   -1.8519   -2.6876 H   0  0  0  0  0  0  0  0  0  0  0  0
    6.3305   -4.6006   -3.3238 H   0  0  0  0  0  0  0  0  0  0  0  0
    8.0499   -4.1085   -3.7734 H   0  0  0  0  0  0  0  0  0  0  0  0
    5.3896   -2.7114   -4.6921 H   0  0  0  0  0  0  0  0  0  0  0  0
    7.0865   -2.1683   -5.1687 H   0  0  0  0  0  0  0  0  0  0  0  0
    5.9042   -0.1115   -3.3973 H   0  0  0  0  0  0  0  0  0  0  0  0
    5.3014    2.0884   -2.4894 H   0  0  0  0  0  0  0  0  0  0  0  0
    3.7576    2.1642   -0.5679 H   0  0  0  0  0  0  0  0  0  0  0  0
    6.2055    0.9133    0.4586 H   0  0  0  0  0  0  0  0  0  0  0  0
    5.1729    1.8871    1.2972 H   0  0  0  0  0  0  0  0  0  0  0  0
  1  2  3  0
  2  3  1  0
  3  4  1  0
  3 12  1  0
  3 14  1  1
  4  5  2  0
  4 15  1  0
  5  6  1  0
  5 10  1  0
  6  7  1  0
  7  8  1  0
  7  9  1  0
  7 16  1  6
  8  9  1  0
  8 17  1  0
  8 18  1  0
  9 19  1  0
  9 20  1  0
 10 11  2  0
 10 21  1  0
 11 12  1  0
 11 22  1  0
 12 13  1  0
 12 23  1  6
 13 24  1  0
 13 25  1  0
M  END

