
     RDKit          3D

 35 36  0  0  0  0  0  0  0  0999 V2000
    1.6296    0.4395    0.4504 C   0  0  0  0  0  0  0  0  0  0  0  0
    2.9543    0.0222    0.1122 O   0  0  0  0  0  0  0  0  0  0  0  0
    3.0905   -0.7176   -1.0106 C   0  0  0  0  0  0  0  0  0  0  0  0
    2.1512   -1.0345   -1.6987 O   0  0  0  0  0  0  0  0  0  0  0  0
    4.5568   -1.1317   -1.2182 C   0  0  1  0  0  0  0  0  0  0  0  0
    5.4175   -0.1220   -0.7219 O   0  0  0  0  0  0  0  0  0  0  0  0
    4.7954   -2.4683   -0.4685 C   0  0  0  0  0  0  0  0  0  0  0  0
    4.1515   -3.6762   -1.1645 C   0  0  0  0  0  0  0  0  0  0  0  0
    4.5931   -3.8057   -2.5601 N   0  0  0  0  0  0  0  0  0  0  0  0
    5.8137   -4.4709   -2.8009 C   0  0  0  0  0  0  0  0  0  0  0  0
    6.8050   -3.8159   -3.3988 N   0  0  0  0  0  0  0  0  0  0  0  0
    7.9573   -4.4396   -3.6671 C   0  0  0  0  0  0  0  0  0  0  0  0
    8.1849   -5.7697   -3.3243 C   0  0  0  0  0  0  0  0  0  0  0  0
    7.1416   -6.4872   -2.7295 C   0  0  0  0  0  0  0  0  0  0  0  0
    5.9166   -5.8616   -2.4805 C   0  0  0  0  0  0  0  0  0  0  0  0
    4.8281   -6.5375   -1.9335 N   0  0  0  0  0  0  0  0  0  0  0  0
    4.3153   -2.5912   -3.3316 C   0  0  0  0  0  0  0  0  0  0  0  0
    4.8926   -1.3109   -2.7068 C   0  0  0  0  0  0  0  0  0  0  0  0
    1.7174    1.0201    1.3768 H   0  0  0  0  0  0  0  0  0  0  0  0
    0.9747   -0.4313    0.6038 H   0  0  0  0  0  0  0  0  0  0  0  0
    1.2026    1.0603   -0.3512 H   0  0  0  0  0  0  0  0  0  0  0  0
    5.0579    0.1776    0.1250 H   0  0  0  0  0  0  0  0  0  0  0  0
    4.4330   -2.3846    0.5712 H   0  0  0  0  0  0  0  0  0  0  0  0
    5.8887   -2.5983   -0.4225 H   0  0  0  0  0  0  0  0  0  0  0  0
    3.0527   -3.5708   -1.1605 H   0  0  0  0  0  0  0  0  0  0  0  0
    4.3900   -4.5970   -0.6155 H   0  0  0  0  0  0  0  0  0  0  0  0
    8.7312   -3.8469   -4.1676 H   0  0  0  0  0  0  0  0  0  0  0  0
    9.1447   -6.2463   -3.5350 H   0  0  0  0  0  0  0  0  0  0  0  0
    7.2616   -7.5484   -2.4905 H   0  0  0  0  0  0  0  0  0  0  0  0
    4.8677   -7.5477   -2.0280 H   0  0  0  0  0  0  0  0  0  0  0  0
    3.9348   -6.1600   -2.2442 H   0  0  0  0  0  0  0  0  0  0  0  0
    3.2217   -2.4973   -3.4173 H   0  0  0  0  0  0  0  0  0  0  0  0
    4.7328   -2.7185   -4.3388 H   0  0  0  0  0  0  0  0  0  0  0  0
    4.5504   -0.4278   -3.2697 H   0  0  0  0  0  0  0  0  0  0  0  0
    5.9895   -1.3449   -2.7716 H   0  0  0  0  0  0  0  0  0  0  0  0
  1  2  1  0
  1 19  1  0
  1 20  1  0
  1 21  1  0
  2  3  1  0
  3  4  2  0
  3  5  1  0
  5  6  1  1
  5  7  1  0
  5 18  1  0
  6 22  1  0
  7  8  1  0
  7 23  1  0
  7 24  1  0
  8  9  1  0
  8 25  1  0
  8 26  1  0
  9 10  1  0
  9 17  1  0
 10 11  2  0
 10 15  1  0
 11 12  1  0
 12 13  2  0
 12 27  1  0
 13 14  1  0
 13 28  1  0
 14 15  2  0
 14 29  1  0
 15 16  1  0
 16 30  1  0
 16 31  1  0
 17 18  1  0
 17 32  1  0
 17 33  1  0
 18 34  1  0
 18 35  1  0
M  END

