
     RDKit          3D

 37 38  0  0  0  0  0  0  0  0999 V2000
    1.1733    0.3049    0.2635 C   0  0  0  0  0  0  0  0  0  0  0  0
    2.5289   -0.0541   -0.1153 N   0  0  0  0  0  0  0  0  0  0  0  0
    2.7005   -1.4605   -0.4898 C   0  0  0  0  0  0  0  0  0  0  0  0
    2.2959   -1.7802   -1.9378 C   0  0  0  0  0  0  0  0  0  0  0  0
    3.0477   -0.8618   -2.9094 C   0  0  0  0  0  0  0  0  0  0  0  0
    2.8457    0.6112   -2.5265 C   0  0  0  0  0  0  0  0  0  0  0  0
    3.1702    0.8868   -1.0401 C   0  0  2  0  0  0  0  0  0  0  0  0
    4.6743    0.9259   -0.7395 C   0  0  0  0  0  0  0  0  0  0  0  0
    5.2551    1.9809   -1.5070 O   0  0  0  0  0  0  0  0  0  0  0  0
    6.5681    2.2422   -1.4109 C   0  0  0  0  0  0  0  0  0  0  0  0
    7.0638    3.2970   -2.2036 C   0  0  0  0  0  0  0  0  0  0  0  0
    8.4073    3.6330   -2.1647 C   0  0  0  0  0  0  0  0  0  0  0  0
    9.3220    2.9406   -1.3380 C   0  0  0  0  0  0  0  0  0  0  0  0
   10.6926    3.3625   -1.3711 C   0  0  0  0  0  0  0  0  0  0  0  0
   11.7532    3.8146   -1.5087 N   0  0  0  0  0  0  0  0  0  0  0  0
    8.8020    1.8926   -0.5560 C   0  0  0  0  0  0  0  0  0  0  0  0
    9.6783    1.1033    0.3460 N   0  0  0  0  0  0  0  0  0  0  0  0
   10.8516    1.4187    0.4082 O   0  0  0  0  0  0  0  0  0  0  0  0
    9.1633    0.1882    0.9678 O   0  0  0  0  0  0  0  0  0  0  0  0
    7.4541    1.5398   -0.5813 C   0  0  0  0  0  0  0  0  0  0  0  0
    0.8196   -0.3737    1.0561 H   0  0  0  0  0  0  0  0  0  0  0  0
    0.4270    0.2681   -0.5604 H   0  0  0  0  0  0  0  0  0  0  0  0
    1.1579    1.3267    0.6753 H   0  0  0  0  0  0  0  0  0  0  0  0
    2.1297   -2.0759    0.2235 H   0  0  0  0  0  0  0  0  0  0  0  0
    3.7605   -1.7419   -0.3490 H   0  0  0  0  0  0  0  0  0  0  0  0
    1.2071   -1.6407   -2.0631 H   0  0  0  0  0  0  0  0  0  0  0  0
    2.5029   -2.8412   -2.1575 H   0  0  0  0  0  0  0  0  0  0  0  0
    2.7146   -1.0302   -3.9467 H   0  0  0  0  0  0  0  0  0  0  0  0
    4.1239   -1.1155   -2.8930 H   0  0  0  0  0  0  0  0  0  0  0  0
    1.7912    0.8855   -2.7032 H   0  0  0  0  0  0  0  0  0  0  0  0
    3.4504    1.2750   -3.1643 H   0  0  0  0  0  0  0  0  0  0  0  0
    2.7981    1.8937   -0.7904 H   0  0  0  0  0  0  0  0  0  0  0  0
    5.1732   -0.0258   -0.9910 H   0  0  0  0  0  0  0  0  0  0  0  0
    4.8147    1.1123    0.3382 H   0  0  0  0  0  0  0  0  0  0  0  0
    6.3667    3.8392   -2.8448 H   0  0  0  0  0  0  0  0  0  0  0  0
    8.7822    4.4504   -2.7828 H   0  0  0  0  0  0  0  0  0  0  0  0
    7.1365    0.7183    0.0557 H   0  0  0  0  0  0  0  0  0  0  0  0
  1  2  1  0
  1 21  1  0
  1 22  1  0
  1 23  1  0
  2  3  1  0
  2  7  1  0
  3  4  1  0
  3 24  1  0
  3 25  1  0
  4  5  1  0
  4 26  1  0
  4 27  1  0
  5  6  1  0
  5 28  1  0
  5 29  1  0
  6  7  1  0
  6 30  1  0
  6 31  1  0
  7  8  1  0
  7 32  1  1
  8  9  1  0
  8 33  1  0
  8 34  1  0
  9 10  1  0
 10 11  2  0
 10 20  1  0
 11 12  1  0
 11 35  1  0
 12 13  2  0
 12 36  1  0
 13 14  1  0
 13 16  1  0
 14 15  3  0
 16 17  1  0
 16 20  2  0
 17 18  2  0
 17 19  1  0
 20 37  1  0
M  CHG  2  17   1  19  -1
M  END

