
     RDKit          3D

 51 54  0  0  0  0  0  0  0  0999 V2000
    1.4713   -0.0997   -0.3561 C   0  0  0  0  0  0  0  0  0  0  0  0
    2.8777   -0.7160   -0.3588 C   0  0  1  0  0  0  0  0  0  0  0  0
    2.9185   -2.1217   -0.9883 C   0  0  0  0  0  0  0  0  0  0  0  0
    2.7759   -2.0928   -2.5113 C   0  0  0  0  0  0  0  0  0  0  0  0
    3.7634   -1.2058   -3.1293 N   0  0  0  0  0  0  0  0  0  0  0  0
    4.3509   -1.5487   -4.3301 C   0  0  0  0  0  0  0  0  0  0  0  0
    5.0787   -0.6213   -5.1297 C   0  0  0  0  0  0  0  0  0  0  0  0
    5.6825   -1.0659   -6.2926 C   0  0  0  0  0  0  0  0  0  0  0  0
    5.5904   -2.4182   -6.6707 C   0  0  0  0  0  0  0  0  0  0  0  0
    6.1765   -2.8458   -7.9801 C   0  0  0  0  0  0  0  0  0  0  0  0
    6.0402   -2.1557   -8.9814 O   0  0  0  0  0  0  0  0  0  0  0  0
    6.8661   -4.0409   -8.0340 N   0  0  0  0  0  0  0  0  0  0  0  0
    7.4142   -4.4997   -9.3244 C   0  0  2  0  0  0  0  0  0  0  0  0
    7.5538   -6.0152   -9.0814 C   0  0  0  0  0  0  0  0  0  0  0  0
    7.7887   -6.1746   -7.5576 C   0  0  0  0  0  0  0  0  0  0  0  0
    7.4655   -4.7965   -6.9100 C   0  0  1  0  0  0  0  0  0  0  0  0
    8.7008   -4.0543   -6.2955 C   0  0  0  0  0  0  0  0  0  0  0  0
    9.2971   -3.1877   -7.4013 C   0  0  0  0  0  0  0  0  0  0  0  0
    9.2531   -1.9797   -7.3792 O   0  0  0  0  0  0  0  0  0  0  0  0
    9.7012   -3.9021   -8.5475 N   0  0  0  0  0  0  0  0  0  0  0  0
    8.7489   -3.7873   -9.6617 C   0  0  0  0  0  0  0  0  0  0  0  0
    4.8099   -3.2365   -5.8460 C   0  0  0  0  0  0  0  0  0  0  0  0
    4.2119   -2.8257   -4.7327 N   0  0  0  0  0  0  0  0  0  0  0  0
    3.7776    0.1535   -2.6050 C   0  0  0  0  0  0  0  0  0  0  0  0
    3.9173    0.1647   -1.0761 C   0  0  0  0  0  0  0  0  0  0  0  0
    0.7628   -0.7406    0.1936 H   0  0  0  0  0  0  0  0  0  0  0  0
    1.0652    0.0399   -1.3706 H   0  0  0  0  0  0  0  0  0  0  0  0
    1.4757    0.8880    0.1333 H   0  0  0  0  0  0  0  0  0  0  0  0
    3.1917   -0.8085    0.6957 H   0  0  0  0  0  0  0  0  0  0  0  0
    2.1227   -2.7583   -0.5654 H   0  0  0  0  0  0  0  0  0  0  0  0
    3.8801   -2.6014   -0.7364 H   0  0  0  0  0  0  0  0  0  0  0  0
    1.7565   -1.7581   -2.7937 H   0  0  0  0  0  0  0  0  0  0  0  0
    2.9137   -3.0913   -2.9388 H   0  0  0  0  0  0  0  0  0  0  0  0
    5.1559    0.4305   -4.8604 H   0  0  0  0  0  0  0  0  0  0  0  0
    6.2345   -0.3730   -6.9311 H   0  0  0  0  0  0  0  0  0  0  0  0
    6.6891   -4.2647  -10.1168 H   0  0  0  0  0  0  0  0  0  0  0  0
    8.3573   -6.4635   -9.6870 H   0  0  0  0  0  0  0  0  0  0  0  0
    6.6184   -6.5149   -9.3732 H   0  0  0  0  0  0  0  0  0  0  0  0
    8.8183   -6.4881   -7.3248 H   0  0  0  0  0  0  0  0  0  0  0  0
    7.1343   -6.9529   -7.1384 H   0  0  0  0  0  0  0  0  0  0  0  0
    6.7268   -4.9233   -6.1105 H   0  0  0  0  0  0  0  0  0  0  0  0
    9.4211   -4.7865   -5.8930 H   0  0  0  0  0  0  0  0  0  0  0  0
    8.3930   -3.3896   -5.4775 H   0  0  0  0  0  0  0  0  0  0  0  0
    9.8882   -4.8787   -8.3339 H   0  0  0  0  0  0  0  0  0  0  0  0
    9.1891   -4.2162  -10.5765 H   0  0  0  0  0  0  0  0  0  0  0  0
    8.5571   -2.7217   -9.8425 H   0  0  0  0  0  0  0  0  0  0  0  0
    4.6276   -4.2826   -6.1233 H   0  0  0  0  0  0  0  0  0  0  0  0
    2.8589    0.6944   -2.9138 H   0  0  0  0  0  0  0  0  0  0  0  0
    4.6236    0.7057   -3.0303 H   0  0  0  0  0  0  0  0  0  0  0  0
    3.8548    1.2075   -0.7214 H   0  0  0  0  0  0  0  0  0  0  0  0
    4.9280   -0.1994   -0.8235 H   0  0  0  0  0  0  0  0  0  0  0  0
  1  2  1  0
  1 26  1  0
  1 27  1  0
  1 28  1  0
  2  3  1  0
  2 25  1  0
  2 29  1  1
  3  4  1  0
  3 30  1  0
  3 31  1  0
  4  5  1  0
  4 32  1  0
  4 33  1  0
  5  6  1  0
  5 24  1  0
  6  7  2  0
  6 23  1  0
  7  8  1  0
  7 34  1  0
  8  9  2  0
  8 35  1  0
  9 10  1  0
  9 22  1  0
 10 11  2  0
 10 12  1  0
 12 13  1  0
 12 16  1  0
 13 14  1  0
 13 21  1  0
 13 36  1  6
 14 15  1  0
 14 37  1  0
 14 38  1  0
 15 16  1  0
 15 39  1  0
 15 40  1  0
 16 17  1  0
 16 41  1  1
 17 18  1  0
 17 42  1  0
 17 43  1  0
 18 19  2  0
 18 20  1  0
 20 21  1  0
 20 44  1  0
 21 45  1  0
 21 46  1  0
 22 23  2  0
 22 47  1  0
 24 25  1  0
 24 48  1  0
 24 49  1  0
 25 50  1  0
 25 51  1  0
M  END

