
     RDKit          3D

 51 53  0  0  0  0  0  0  0  0999 V2000
    1.3459   -0.3439   -0.3978 O   0  0  0  0  0  0  0  0  0  0  0  0
    2.2410    0.3122    0.1218 C   0  0  0  0  0  0  0  0  0  0  0  0
    2.5021    0.2423    1.4768 N   0  0  0  0  0  0  0  0  0  0  0  0
    1.7428   -0.6800    2.3042 C   0  0  0  0  0  0  0  0  0  0  0  0
    2.2386   -2.1356    2.2384 C   0  0  0  0  0  0  0  0  0  0  0  0
    1.3266   -3.0250    2.9458 N   0  0  0  0  0  0  0  0  0  0  0  0
    0.1957   -3.5051    2.1482 C   0  0  0  0  0  0  0  0  0  0  0  0
    0.5505   -4.7514    1.3306 C   0  0  0  0  0  0  0  0  0  0  0  0
    1.0782   -5.7737    2.1589 O   0  0  0  0  0  0  0  0  0  0  0  0
    2.2300   -5.3456    2.8605 C   0  0  0  0  0  0  0  0  0  0  0  0
    1.9141   -4.1158    3.7174 C   0  0  0  0  0  0  0  0  0  0  0  0
    3.0301    1.1879   -0.6102 N   0  0  0  0  0  0  0  0  0  0  0  0
    2.9900    1.1212   -2.0619 C   0  0  0  0  0  0  0  0  0  0  0  0
    2.8248    2.5079   -2.6866 C   0  0  0  0  0  0  0  0  0  0  0  0
    3.8555    3.4062   -2.1777 N   0  0  0  0  0  0  0  0  0  0  0  0
    4.3284    4.4530   -2.9557 C   0  0  0  0  0  0  0  0  0  0  0  0
    3.5622    4.9492   -4.0402 C   0  0  0  0  0  0  0  0  0  0  0  0
    3.9866    6.0179   -4.8231 C   0  0  0  0  0  0  0  0  0  0  0  0
    5.1941    6.6716   -4.5512 C   0  0  0  0  0  0  0  0  0  0  0  0
    5.9773    6.2117   -3.4999 C   0  0  0  0  0  0  0  0  0  0  0  0
    5.5750    5.1092   -2.7347 C   0  0  0  0  0  0  0  0  0  0  0  0
    6.5779    4.6209   -1.7719 N   0  0  0  0  0  0  0  0  0  0  0  0
    6.6052    3.4250   -1.5145 O   0  0  0  0  0  0  0  0  0  0  0  0
    7.3634    5.4372   -1.3125 O   0  0  0  0  0  0  0  0  0  0  0  0
    3.8282    3.4985   -0.7202 C   0  0  0  0  0  0  0  0  0  0  0  0
    4.0029    2.1241   -0.0691 C   0  0  0  0  0  0  0  0  0  0  0  0
    3.4232    0.5028    1.8054 H   0  0  0  0  0  0  0  0  0  0  0  0
    0.6985   -0.6404    1.9668 H   0  0  0  0  0  0  0  0  0  0  0  0
    1.7641   -0.3295    3.3482 H   0  0  0  0  0  0  0  0  0  0  0  0
    3.2347   -2.1981    2.7092 H   0  0  0  0  0  0  0  0  0  0  0  0
    2.3770   -2.4029    1.1719 H   0  0  0  0  0  0  0  0  0  0  0  0
   -0.1544   -2.7030    1.4796 H   0  0  0  0  0  0  0  0  0  0  0  0
   -0.6369   -3.7571    2.8304 H   0  0  0  0  0  0  0  0  0  0  0  0
    1.2809   -4.4918    0.5354 H   0  0  0  0  0  0  0  0  0  0  0  0
   -0.3437   -5.1671    0.8397 H   0  0  0  0  0  0  0  0  0  0  0  0
    3.0507   -5.1141    2.1470 H   0  0  0  0  0  0  0  0  0  0  0  0
    2.5573   -6.1913    3.4868 H   0  0  0  0  0  0  0  0  0  0  0  0
    2.8198   -3.7593    4.2349 H   0  0  0  0  0  0  0  0  0  0  0  0
    1.1902   -4.4195    4.4967 H   0  0  0  0  0  0  0  0  0  0  0  0
    2.1519    0.4718   -2.3431 H   0  0  0  0  0  0  0  0  0  0  0  0
    3.9297    0.6763   -2.4433 H   0  0  0  0  0  0  0  0  0  0  0  0
    1.8063    2.8939   -2.4710 H   0  0  0  0  0  0  0  0  0  0  0  0
    2.9300    2.4124   -3.7759 H   0  0  0  0  0  0  0  0  0  0  0  0
    2.5898    4.5023   -4.2452 H   0  0  0  0  0  0  0  0  0  0  0  0
    3.3493    6.3618   -5.6420 H   0  0  0  0  0  0  0  0  0  0  0  0
    5.5230    7.5198   -5.1543 H   0  0  0  0  0  0  0  0  0  0  0  0
    6.9345    6.6735   -3.2589 H   0  0  0  0  0  0  0  0  0  0  0  0
    2.8491    3.9164   -0.4034 H   0  0  0  0  0  0  0  0  0  0  0  0
    4.6044    4.1781   -0.3545 H   0  0  0  0  0  0  0  0  0  0  0  0
    3.8461    2.2438    1.0111 H   0  0  0  0  0  0  0  0  0  0  0  0
    5.0375    1.7763   -0.2436 H   0  0  0  0  0  0  0  0  0  0  0  0
  1  2  2  0
  2  3  1  0
  2 12  1  0
  3  4  1  0
  3 27  1  0
  4  5  1  0
  4 28  1  0
  4 29  1  0
  5  6  1  0
  5 30  1  0
  5 31  1  0
  6  7  1  0
  6 11  1  0
  7  8  1  0
  7 32  1  0
  7 33  1  0
  8  9  1  0
  8 34  1  0
  8 35  1  0
  9 10  1  0
 10 11  1  0
 10 36  1  0
 10 37  1  0
 11 38  1  0
 11 39  1  0
 12 13  1  0
 12 26  1  0
 13 14  1  0
 13 40  1  0
 13 41  1  0
 14 15  1  0
 14 42  1  0
 14 43  1  0
 15 16  1  0
 15 25  1  0
 16 17  2  0
 16 21  1  0
 17 18  1  0
 17 44  1  0
 18 19  2  0
 18 45  1  0
 19 20  1  0
 19 46  1  0
 20 21  2  0
 20 47  1  0
 21 22  1  0
 22 23  2  0
 22 24  1  0
 25 26  1  0
 25 48  1  0
 25 49  1  0
 26 50  1  0
 26 51  1  0
M  CHG  2  22   1  24  -1
M  END

