
     RDKit          3D

 45 46  0  0  0  0  0  0  0  0999 V2000
    1.1809    1.6344   -0.4548 C   0  0  0  0  0  0  0  0  0  0  0  0
    2.5811    1.0986   -0.2906 C   0  0  0  0  0  0  0  0  0  0  0  0
    3.6667    1.9486   -0.0649 C   0  0  0  0  0  0  0  0  0  0  0  0
    4.9671    1.4438    0.0469 C   0  0  0  0  0  0  0  0  0  0  0  0
    6.2432    2.7184    0.3374 S   0  0  1  0  0  0  0  0  0  0  0  0
    6.8020    2.4189    2.0288 C   0  0  0  0  0  0  0  0  0  0  0  0
    7.3814    2.4967   -0.5655 O   0  0  0  0  0  0  0  0  0  0  0  0
    5.5596    4.0201    0.3450 O   0  0  0  0  0  0  0  0  0  0  0  0
    5.2666    0.0717   -0.0669 C   0  0  0  0  0  0  0  0  0  0  0  0
    6.6650   -0.4920    0.0316 C   0  0  0  0  0  0  0  0  0  0  0  0
    4.1449   -0.7681   -0.2663 C   0  0  0  0  0  0  0  0  0  0  0  0
    4.4279   -2.5571   -0.3682 S   0  0  1  0  0  0  0  0  0  0  0  0
    5.1368   -2.8287   -1.6251 O   0  0  0  0  0  0  0  0  0  0  0  0
    4.9887   -2.9751    0.9223 O   0  0  0  0  0  0  0  0  0  0  0  0
    2.8995   -3.2306   -0.4862 N   0  0  0  0  0  0  0  0  0  0  0  0
    2.4919   -4.0180   -1.6613 C   0  0  0  0  0  0  0  0  0  0  0  0
    2.6331   -5.5121   -1.4766 C   0  0  0  0  0  0  0  0  0  0  0  0
    1.5624   -6.3207   -1.5534 C   0  0  0  0  0  0  0  0  0  0  0  0
    1.6542   -7.8251   -1.4370 C   0  0  0  0  0  0  0  0  0  0  0  0
    3.0097   -8.3576   -1.4863 N   0  0  0  0  0  0  0  0  0  0  0  0
    3.9522   -7.5324   -0.7394 C   0  0  0  0  0  0  0  0  0  0  0  0
    4.0169   -6.0750   -1.2254 C   0  0  0  0  0  0  0  0  0  0  0  0
    2.8452   -0.2754   -0.3777 C   0  0  0  0  0  0  0  0  0  0  0  0
    1.0726    2.6258    0.0088 H   0  0  0  0  0  0  0  0  0  0  0  0
    0.4353    0.9602   -0.0059 H   0  0  0  0  0  0  0  0  0  0  0  0
    0.9234    1.7409   -1.5229 H   0  0  0  0  0  0  0  0  0  0  0  0
    3.5232    3.0269    0.0273 H   0  0  0  0  0  0  0  0  0  0  0  0
    7.2410    1.4168    2.1106 H   0  0  0  0  0  0  0  0  0  0  0  0
    5.9501    2.5476    2.7084 H   0  0  0  0  0  0  0  0  0  0  0  0
    7.5638    3.1902    2.2106 H   0  0  0  0  0  0  0  0  0  0  0  0
    7.4221    0.2876   -0.0969 H   0  0  0  0  0  0  0  0  0  0  0  0
    6.8214   -1.2502   -0.7479 H   0  0  0  0  0  0  0  0  0  0  0  0
    6.8041   -1.0034    0.9975 H   0  0  0  0  0  0  0  0  0  0  0  0
    2.6158   -3.5998    0.4202 H   0  0  0  0  0  0  0  0  0  0  0  0
    3.1193   -3.6745   -2.4986 H   0  0  0  0  0  0  0  0  0  0  0  0
    1.4465   -3.7665   -1.9048 H   0  0  0  0  0  0  0  0  0  0  0  0
    0.5641   -5.8902   -1.7031 H   0  0  0  0  0  0  0  0  0  0  0  0
    1.0556   -8.2998   -2.2339 H   0  0  0  0  0  0  0  0  0  0  0  0
    1.1699   -8.1396   -0.4891 H   0  0  0  0  0  0  0  0  0  0  0  0
    3.3124   -8.4211   -2.4581 H   0  0  0  0  0  0  0  0  0  0  0  0
    4.9507   -7.9962   -0.7811 H   0  0  0  0  0  0  0  0  0  0  0  0
    3.6455   -7.5472    0.3222 H   0  0  0  0  0  0  0  0  0  0  0  0
    4.6159   -5.9968   -2.1528 H   0  0  0  0  0  0  0  0  0  0  0  0
    4.5524   -5.4536   -0.4876 H   0  0  0  0  0  0  0  0  0  0  0  0
    2.0283   -0.9819   -0.5313 H   0  0  0  0  0  0  0  0  0  0  0  0
  1  2  1  0
  1 24  1  0
  1 25  1  0
  1 26  1  0
  2  3  2  0
  2 23  1  0
  3  4  1  0
  3 27  1  0
  4  5  1  0
  4  9  2  0
  5  6  1  1
  5  7  2  0
  5  8  2  0
  6 28  1  0
  6 29  1  0
  6 30  1  0
  9 10  1  0
  9 11  1  0
 10 31  1  0
 10 32  1  0
 10 33  1  0
 11 12  1  0
 11 23  2  0
 12 13  2  0
 12 14  2  0
 12 15  1  6
 15 16  1  0
 15 34  1  0
 16 17  1  0
 16 35  1  0
 16 36  1  0
 17 18  2  0
 17 22  1  0
 18 19  1  0
 18 37  1  0
 19 20  1  0
 19 38  1  0
 19 39  1  0
 20 21  1  0
 20 40  1  0
 21 22  1  0
 21 41  1  0
 21 42  1  0
 22 43  1  0
 22 44  1  0
 23 45  1  0
M  END

