
     RDKit          3D

 34 36  0  0  0  0  0  0  0  0999 V2000
    1.2030    0.0380   -0.2822 C   0  0  0  0  0  0  0  0  0  0  0  0
    2.6912    0.0432   -0.0651 C   0  0  0  0  0  0  0  0  0  0  0  0
    3.4549   -1.1242    0.0199 C   0  0  0  0  0  0  0  0  0  0  0  0
    4.8514   -1.1010    0.2261 C   0  0  0  0  0  0  0  0  0  0  0  0
    5.5529    0.0959    0.3574 C   0  0  0  0  0  0  0  0  0  0  0  0
    4.7960    1.2704    0.2729 C   0  0  0  0  0  0  0  0  0  0  0  0
    5.1230    2.6111    0.3534 N   0  0  0  0  0  0  0  0  0  0  0  0
    6.0413    3.0129    0.4990 H   0  0  0  0  0  0  0  0  0  0  0  0
    3.9543    3.3263    0.1960 C   0  0  0  0  0  0  0  0  0  0  0  0
    3.9218    4.8303    0.2188 C   0  0  0  0  0  0  0  0  0  0  0  0
    4.6362    5.4771   -0.9522 C   0  0  0  0  0  0  0  0  0  0  0  0
    3.9506    5.9717   -2.0685 C   0  0  0  0  0  0  0  0  0  0  0  0
    4.6286    6.5580   -3.1413 C   0  0  0  0  0  0  0  0  0  0  0  0
    6.0217    6.6583   -3.1126 C   0  0  0  0  0  0  0  0  0  0  0  0
    6.7873    7.2928   -4.2484 C   0  0  1  0  0  0  0  0  0  0  0  0
    5.9822    7.6748   -5.2513 F   0  0  0  0  0  0  0  0  0  0  0  0
    7.4628    8.3819   -3.8359 F   0  0  0  0  0  0  0  0  0  0  0  0
    7.6977    6.4441   -4.7604 F   0  0  0  0  0  0  0  0  0  0  0  0
    6.7380    6.1682   -2.0129 C   0  0  0  0  0  0  0  0  0  0  0  0
    6.0317    5.5915   -0.9686 C   0  0  0  0  0  0  0  0  0  0  0  0
    6.7262    5.1074    0.0886 F   0  0  0  0  0  0  0  0  0  0  0  0
    2.9089    2.5571    0.0236 N   0  0  0  0  0  0  0  0  0  0  0  0
    3.3937    1.2597    0.0660 C   0  0  0  0  0  0  0  0  0  0  0  0
    0.8136   -0.9854   -0.3835 H   0  0  0  0  0  0  0  0  0  0  0  0
    0.9341    0.6059   -1.1878 H   0  0  0  0  0  0  0  0  0  0  0  0
    0.6802    0.5283    0.5556 H   0  0  0  0  0  0  0  0  0  0  0  0
    2.9533   -2.0911   -0.0768 H   0  0  0  0  0  0  0  0  0  0  0  0
    5.3942   -2.0479    0.2839 H   0  0  0  0  0  0  0  0  0  0  0  0
    6.6333    0.1103    0.5173 H   0  0  0  0  0  0  0  0  0  0  0  0
    4.3637    5.1946    1.1616 H   0  0  0  0  0  0  0  0  0  0  0  0
    2.8632    5.1180    0.2118 H   0  0  0  0  0  0  0  0  0  0  0  0
    2.8610    5.8945   -2.0950 H   0  0  0  0  0  0  0  0  0  0  0  0
    4.0741    6.9380   -3.9997 H   0  0  0  0  0  0  0  0  0  0  0  0
    7.8263    6.2270   -1.9596 H   0  0  0  0  0  0  0  0  0  0  0  0
  1  2  1  0
  1 24  1  0
  1 25  1  0
  1 26  1  0
  2  3  2  0
  2 23  1  0
  3  4  1  0
  3 27  1  0
  4  5  2  0
  4 28  1  0
  5  6  1  0
  5 29  1  0
  6  7  1  0
  6 23  2  0
  7  8  1  0
  7  9  1  0
  9 10  1  0
  9 22  2  0
 10 11  1  0
 10 30  1  0
 10 31  1  0
 11 12  2  0
 11 20  1  0
 12 13  1  0
 12 32  1  0
 13 14  2  0
 13 33  1  0
 14 15  1  0
 14 19  1  0
 15 16  1  6
 15 17  1  0
 15 18  1  0
 19 20  2  0
 19 34  1  0
 20 21  1  0
 22 23  1  0
M  END

