
     RDKit          3D

 51 54  0  0  0  0  0  0  0  0999 V2000
    3.7918   -0.2154    0.5071 C   0  0  0  0  0  0  0  0  0  0  0  0
    2.4786   -0.1244   -0.3040 C   0  0  1  0  0  0  0  0  0  0  0  0
    2.1722    1.3614   -0.5848 C   0  0  0  0  0  0  0  0  0  0  0  0
    2.7647   -0.8325   -1.6668 C   0  0  0  0  0  0  0  0  0  0  0  0
    3.1742   -0.2058   -2.6316 O   0  0  0  0  0  0  0  0  0  0  0  0
    2.5931   -2.1885   -1.6480 N   0  0  0  0  0  0  0  0  0  0  0  0
    2.8320   -3.1348   -2.6696 C   0  0  0  0  0  0  0  0  0  0  0  0
    3.3659   -2.8098   -3.9280 C   0  0  0  0  0  0  0  0  0  0  0  0
    3.5798   -3.8019   -4.8832 C   0  0  0  0  0  0  0  0  0  0  0  0
    3.2695   -5.1596   -4.6348 C   0  0  0  0  0  0  0  0  0  0  0  0
    3.4822   -6.1354   -5.5876 N   0  0  0  0  0  0  0  0  0  0  0  0
    3.9146   -5.8522   -6.9495 C   0  0  0  0  0  0  0  0  0  0  0  0
    3.7091   -7.1856   -7.6810 C   0  0  0  0  0  0  0  0  0  0  0  0
    3.9147   -8.2274   -6.5730 C   0  0  0  0  0  0  0  0  0  0  0  0
    3.2866   -7.5572   -5.3435 C   0  0  0  0  0  0  0  0  0  0  0  0
    2.7299   -5.4727   -3.3645 C   0  0  0  0  0  0  0  0  0  0  0  0
    2.5206   -4.4796   -2.4118 C   0  0  0  0  0  0  0  0  0  0  0  0
    1.3236   -0.7677    0.4417 C   0  0  0  0  0  0  0  0  0  0  0  0
    1.3242   -1.2361    1.7414 C   0  0  0  0  0  0  0  0  0  0  0  0
    0.0715   -1.6910    2.0893 N   0  0  0  0  0  0  0  0  0  0  0  0
   -0.1786   -2.0806    2.9875 H   0  0  0  0  0  0  0  0  0  0  0  0
   -0.7833   -1.5339    1.0184 C   0  0  0  0  0  0  0  0  0  0  0  0
   -2.1411   -1.8547    0.8838 C   0  0  0  0  0  0  0  0  0  0  0  0
   -2.7545   -1.5918   -0.3367 C   0  0  0  0  0  0  0  0  0  0  0  0
   -2.0105   -1.0259   -1.3883 C   0  0  0  0  0  0  0  0  0  0  0  0
   -2.6437   -0.7940   -2.5528 F   0  0  0  0  0  0  0  0  0  0  0  0
   -0.6682   -0.7028   -1.2763 C   0  0  0  0  0  0  0  0  0  0  0  0
   -0.0302   -0.9535   -0.0432 C   0  0  0  0  0  0  0  0  0  0  0  0
    4.6182    0.2251   -0.0699 H   0  0  0  0  0  0  0  0  0  0  0  0
    4.0586   -1.2580    0.7403 H   0  0  0  0  0  0  0  0  0  0  0  0
    3.7051    0.3414    1.4537 H   0  0  0  0  0  0  0  0  0  0  0  0
    2.9778    1.8075   -1.1833 H   0  0  0  0  0  0  0  0  0  0  0  0
    2.0756    1.9084    0.3655 H   0  0  0  0  0  0  0  0  0  0  0  0
    1.2342    1.4844   -1.1446 H   0  0  0  0  0  0  0  0  0  0  0  0
    2.1911   -2.5607   -0.7939 H   0  0  0  0  0  0  0  0  0  0  0  0
    3.6107   -1.7729   -4.1473 H   0  0  0  0  0  0  0  0  0  0  0  0
    4.0056   -3.5070   -5.8430 H   0  0  0  0  0  0  0  0  0  0  0  0
    4.9765   -5.5314   -6.9834 H   0  0  0  0  0  0  0  0  0  0  0  0
    3.3211   -5.0368   -7.3992 H   0  0  0  0  0  0  0  0  0  0  0  0
    4.3937   -7.3114   -8.5331 H   0  0  0  0  0  0  0  0  0  0  0  0
    2.6788   -7.2450   -8.0698 H   0  0  0  0  0  0  0  0  0  0  0  0
    4.9919   -8.3904   -6.4016 H   0  0  0  0  0  0  0  0  0  0  0  0
    3.4626   -9.2044   -6.8004 H   0  0  0  0  0  0  0  0  0  0  0  0
    3.7726   -7.8757   -4.4042 H   0  0  0  0  0  0  0  0  0  0  0  0
    2.2104   -7.8131   -5.2496 H   0  0  0  0  0  0  0  0  0  0  0  0
    2.4597   -6.4999   -3.1181 H   0  0  0  0  0  0  0  0  0  0  0  0
    2.0971   -4.7592   -1.4417 H   0  0  0  0  0  0  0  0  0  0  0  0
    2.1375   -1.2700    2.4629 H   0  0  0  0  0  0  0  0  0  0  0  0
   -2.7062   -2.2985    1.7070 H   0  0  0  0  0  0  0  0  0  0  0  0
   -3.8092   -1.8180   -0.5037 H   0  0  0  0  0  0  0  0  0  0  0  0
   -0.1450   -0.2753   -2.1329 H   0  0  0  0  0  0  0  0  0  0  0  0
  1  2  1  0
  1 29  1  0
  1 30  1  0
  1 31  1  0
  2  3  1  0
  2  4  1  6
  2 18  1  0
  3 32  1  0
  3 33  1  0
  3 34  1  0
  4  5  2  0
  4  6  1  0
  6  7  1  0
  6 35  1  0
  7  8  2  0
  7 17  1  0
  8  9  1  0
  8 36  1  0
  9 10  2  0
  9 37  1  0
 10 11  1  0
 10 16  1  0
 11 12  1  0
 11 15  1  0
 12 13  1  0
 12 38  1  0
 12 39  1  0
 13 14  1  0
 13 40  1  0
 13 41  1  0
 14 15  1  0
 14 42  1  0
 14 43  1  0
 15 44  1  0
 15 45  1  0
 16 17  2  0
 16 46  1  0
 17 47  1  0
 18 19  2  0
 18 28  1  0
 19 20  1  0
 19 48  1  0
 20 21  1  0
 20 22  1  0
 22 23  1  0
 22 28  2  0
 23 24  2  0
 23 49  1  0
 24 25  1  0
 24 50  1  0
 25 26  1  0
 25 27  2  0
 27 28  1  0
 27 51  1  0
M  END

