
     RDKit          3D

 65 69  0  0  0  0  0  0  0  0999 V2000
    4.7681   -0.5721    2.9718 C   0  0  0  0  0  0  0  0  0  0  0  0
    4.3276   -0.1075    1.6951 O   0  0  0  0  0  0  0  0  0  0  0  0
    3.7849    1.1224    1.6604 C   0  0  0  0  0  0  0  0  0  0  0  0
    3.6936    1.8237    2.6399 O   0  0  0  0  0  0  0  0  0  0  0  0
    3.2537    1.4869    0.2598 C   0  0  1  0  0  0  0  0  0  0  0  0
    1.8558    0.8371    0.1681 C   0  0  0  0  0  0  0  0  0  0  0  0
    0.8795    1.1633    1.1281 C   0  0  0  0  0  0  0  0  0  0  0  0
   -0.4028    0.6146    1.0698 C   0  0  0  0  0  0  0  0  0  0  0  0
   -0.7414   -0.2779    0.0482 C   0  0  0  0  0  0  0  0  0  0  0  0
    0.2187   -0.6167   -0.9065 C   0  0  0  0  0  0  0  0  0  0  0  0
    1.5043   -0.0673   -0.8458 C   0  0  0  0  0  0  0  0  0  0  0  0
    3.1341    3.0294    0.1443 C   0  0  0  0  0  0  0  0  0  0  0  0
    4.4920    3.7391    0.1224 C   0  0  0  0  0  0  0  0  0  0  0  0
    5.3677    3.1804   -0.8981 N   0  0  0  0  0  0  0  0  0  0  0  0
    6.1146    3.9830   -1.7337 C   0  0  0  0  0  0  0  0  0  0  0  0
    5.9121    5.3135   -1.6553 N   0  0  0  0  0  0  0  0  0  0  0  0
    6.6346    6.0368   -2.5079 C   0  0  0  0  0  0  0  0  0  0  0  0
    7.5378    5.5076   -3.4039 C   0  0  0  0  0  0  0  0  0  0  0  0
    7.7050    4.1098   -3.4166 C   0  0  0  0  0  0  0  0  0  0  0  0
    8.6052    3.5184   -4.2559 N   0  0  0  0  0  0  0  0  0  0  0  0
    8.7862    2.0807   -4.3802 C   0  0  1  0  0  0  0  0  0  0  0  0
    8.6598    1.6530   -3.3750 H   0  0  0  0  0  0  0  0  0  0  0  0
    7.7828    1.4265   -5.3430 C   0  0  0  0  0  0  0  0  0  0  0  0
    7.9805    1.9715   -6.7568 C   0  0  0  0  0  0  0  0  0  0  0  0
    9.4270    2.0568   -7.2392 C   0  0  0  0  0  0  0  0  0  0  0  0
    9.6806    2.1444   -8.4290 O   0  0  0  0  0  0  0  0  0  0  0  0
   10.4131    2.1129   -6.2702 N   0  0  0  0  0  0  0  0  0  0  0  0
   11.8012    2.1753   -6.6974 C   0  0  0  0  0  0  0  0  0  0  0  0
   10.2013    1.7736   -4.8632 C   0  0  0  0  0  0  0  0  0  0  0  0
    6.9768    3.3704   -2.5737 N   0  0  0  0  0  0  0  0  0  0  0  0
    8.1949    6.4286   -4.1758 O   0  0  0  0  0  0  0  0  0  0  0  0
    7.5161    7.6898   -3.9546 C   0  0  0  0  0  0  0  0  0  0  0  0
    6.6864    7.5423   -2.6550 C   0  0  0  0  0  0  0  0  0  0  0  0
    5.5631    1.7442   -0.8125 C   0  0  0  0  0  0  0  0  0  0  0  0
    4.2223    1.0031   -0.8420 C   0  0  0  0  0  0  0  0  0  0  0  0
    5.1824   -1.5742    2.8060 H   0  0  0  0  0  0  0  0  0  0  0  0
    3.9268   -0.6191    3.6796 H   0  0  0  0  0  0  0  0  0  0  0  0
    5.5365    0.0964    3.3882 H   0  0  0  0  0  0  0  0  0  0  0  0
    1.1308    1.8484    1.9409 H   0  0  0  0  0  0  0  0  0  0  0  0
   -1.1410    0.8858    1.8292 H   0  0  0  0  0  0  0  0  0  0  0  0
   -1.7451   -0.7079   -0.0005 H   0  0  0  0  0  0  0  0  0  0  0  0
   -0.0291   -1.3166   -1.7090 H   0  0  0  0  0  0  0  0  0  0  0  0
    2.2310   -0.3573   -1.6046 H   0  0  0  0  0  0  0  0  0  0  0  0
    2.5425    3.4252    0.9812 H   0  0  0  0  0  0  0  0  0  0  0  0
    2.5880    3.2537   -0.7864 H   0  0  0  0  0  0  0  0  0  0  0  0
    4.9696    3.6500    1.1175 H   0  0  0  0  0  0  0  0  0  0  0  0
    4.3647    4.8071   -0.0852 H   0  0  0  0  0  0  0  0  0  0  0  0
    9.0694    4.1273   -4.9193 H   0  0  0  0  0  0  0  0  0  0  0  0
    6.7550    1.6041   -4.9928 H   0  0  0  0  0  0  0  0  0  0  0  0
    7.9450    0.3345   -5.3264 H   0  0  0  0  0  0  0  0  0  0  0  0
    7.5811    2.9987   -6.8266 H   0  0  0  0  0  0  0  0  0  0  0  0
    7.4346    1.3872   -7.5113 H   0  0  0  0  0  0  0  0  0  0  0  0
   11.8271    2.4226   -7.7648 H   0  0  0  0  0  0  0  0  0  0  0  0
   12.3125    1.2064   -6.5450 H   0  0  0  0  0  0  0  0  0  0  0  0
   12.3454    2.9431   -6.1223 H   0  0  0  0  0  0  0  0  0  0  0  0
   10.9273    2.3425   -4.2590 H   0  0  0  0  0  0  0  0  0  0  0  0
   10.4164    0.7001   -4.6917 H   0  0  0  0  0  0  0  0  0  0  0  0
    6.8607    7.8832   -4.8224 H   0  0  0  0  0  0  0  0  0  0  0  0
    8.2786    8.4800   -3.9102 H   0  0  0  0  0  0  0  0  0  0  0  0
    5.6877    7.9971   -2.7352 H   0  0  0  0  0  0  0  0  0  0  0  0
    7.1841    7.9929   -1.7784 H   0  0  0  0  0  0  0  0  0  0  0  0
    6.1125    1.4903    0.1181 H   0  0  0  0  0  0  0  0  0  0  0  0
    6.1909    1.4295   -1.6528 H   0  0  0  0  0  0  0  0  0  0  0  0
    4.3988   -0.0779   -0.7515 H   0  0  0  0  0  0  0  0  0  0  0  0
    3.7527    1.1876   -1.8212 H   0  0  0  0  0  0  0  0  0  0  0  0
  1  2  1  0
  1 36  1  0
  1 37  1  0
  1 38  1  0
  2  3  1  0
  3  4  2  0
  5  3  1  1
  5  6  1  0
  5 12  1  0
  5 35  1  0
  6  7  2  0
  6 11  1  0
  7  8  1  0
  7 39  1  0
  8  9  2  0
  8 40  1  0
  9 10  1  0
  9 41  1  0
 10 11  2  0
 10 42  1  0
 11 43  1  0
 12 13  1  0
 12 44  1  0
 12 45  1  0
 13 14  1  0
 13 46  1  0
 13 47  1  0
 14 15  1  0
 14 34  1  0
 15 16  2  0
 15 30  1  0
 16 17  1  0
 17 18  2  0
 17 33  1  0
 18 19  1  0
 18 31  1  0
 19 20  1  0
 19 30  2  0
 20 21  1  0
 20 48  1  0
 21 22  1  1
 21 23  1  0
 21 29  1  0
 23 24  1  0
 23 49  1  0
 23 50  1  0
 24 25  1  0
 24 51  1  0
 24 52  1  0
 25 26  2  0
 25 27  1  0
 27 28  1  0
 27 29  1  0
 28 53  1  0
 28 54  1  0
 28 55  1  0
 29 56  1  0
 29 57  1  0
 31 32  1  0
 32 33  1  0
 32 58  1  0
 32 59  1  0
 33 60  1  0
 33 61  1  0
 34 35  1  0
 34 62  1  0
 34 63  1  0
 35 64  1  0
 35 65  1  0
M  END

