
     RDKit          3D

 46 47  0  0  0  0  0  0  0  0999 V2000
    2.4242    1.4668    1.3812 C   0  0  0  0  0  0  0  0  0  0  0  0
    2.9968    1.4749   -0.0418 C   0  0  1  0  0  0  0  0  0  0  0  0
    4.5027    1.7684   -0.0797 C   0  0  0  0  0  0  0  0  0  0  0  0
    2.6306    0.2738   -0.8386 N   0  0  0  0  0  0  0  0  0  0  0  0
    1.9091    0.5163   -2.0859 C   0  0  0  0  0  0  0  0  0  0  0  0
    0.3787    0.5695   -1.9166 C   0  0  0  0  0  0  0  0  0  0  0  0
   -0.2987    0.8628   -3.1711 N   0  0  0  0  0  0  0  0  0  0  0  0
   -0.4623   -0.3299   -3.9966 C   0  0  0  0  0  0  0  0  0  0  0  0
   -0.8945   -0.0963   -5.4494 C   0  0  0  0  0  0  0  0  0  0  0  0
   -2.3528    0.3520   -5.6246 C   0  0  0  0  0  0  0  0  0  0  0  0
   -2.6289    1.8491   -5.3975 C   0  0  0  0  0  0  0  0  0  0  0  0
   -1.8090    2.5284   -4.2845 C   0  0  0  0  0  0  0  0  0  0  0  0
   -1.4987    1.6918   -3.0336 C   0  0  0  0  0  0  0  0  0  0  0  0
    2.9634   -0.9931   -0.4561 C   0  0  0  0  0  0  0  0  0  0  0  0
    2.5149   -2.1614   -1.1639 C   0  0  0  0  0  0  0  0  0  0  0  0
    2.8686   -3.3764   -0.8075 N   0  0  0  0  0  0  0  0  0  0  0  0
    3.6696   -3.5173    0.2674 C   0  0  0  0  0  0  0  0  0  0  0  0
    4.0677   -4.8405    0.6653 C   0  0  0  0  0  0  0  0  0  0  0  0
    4.4081   -5.8953    1.0118 N   0  0  0  0  0  0  0  0  0  0  0  0
    4.0893   -2.3868    0.9849 C   0  0  0  0  0  0  0  0  0  0  0  0
    3.7442   -1.1572    0.6296 N   0  0  0  0  0  0  0  0  0  0  0  0
    2.5808    2.4549    1.8426 H   0  0  0  0  0  0  0  0  0  0  0  0
    2.9118    0.7095    2.0078 H   0  0  0  0  0  0  0  0  0  0  0  0
    1.3412    1.2667    1.3689 H   0  0  0  0  0  0  0  0  0  0  0  0
    2.4960    2.2977   -0.5752 H   0  0  0  0  0  0  0  0  0  0  0  0
    5.0688    0.9954    0.4564 H   0  0  0  0  0  0  0  0  0  0  0  0
    4.7050    2.7423    0.3941 H   0  0  0  0  0  0  0  0  0  0  0  0
    4.8677    1.8152   -1.1180 H   0  0  0  0  0  0  0  0  0  0  0  0
    2.1924   -0.2418   -2.8296 H   0  0  0  0  0  0  0  0  0  0  0  0
    2.2428    1.4792   -2.5005 H   0  0  0  0  0  0  0  0  0  0  0  0
    0.1495    1.3679   -1.1939 H   0  0  0  0  0  0  0  0  0  0  0  0
    0.0252   -0.3763   -1.4478 H   0  0  0  0  0  0  0  0  0  0  0  0
   -1.1881   -1.0378   -3.5275 H   0  0  0  0  0  0  0  0  0  0  0  0
    0.5042   -0.8589   -4.0151 H   0  0  0  0  0  0  0  0  0  0  0  0
   -0.7624   -1.0596   -5.9708 H   0  0  0  0  0  0  0  0  0  0  0  0
   -0.2011    0.6134   -5.9335 H   0  0  0  0  0  0  0  0  0  0  0  0
   -2.9758   -0.2492   -4.9386 H   0  0  0  0  0  0  0  0  0  0  0  0
   -2.6970    0.0854   -6.6379 H   0  0  0  0  0  0  0  0  0  0  0  0
   -3.7058    1.9715   -5.1888 H   0  0  0  0  0  0  0  0  0  0  0  0
   -2.4482    2.4021   -6.3355 H   0  0  0  0  0  0  0  0  0  0  0  0
   -2.3454    3.4398   -3.9701 H   0  0  0  0  0  0  0  0  0  0  0  0
   -0.8376    2.8687   -4.6791 H   0  0  0  0  0  0  0  0  0  0  0  0
   -2.3894    1.0921   -2.7339 H   0  0  0  0  0  0  0  0  0  0  0  0
   -1.3107    2.3886   -2.2028 H   0  0  0  0  0  0  0  0  0  0  0  0
    1.8431   -2.0840   -2.0219 H   0  0  0  0  0  0  0  0  0  0  0  0
    4.7240   -2.4955    1.8716 H   0  0  0  0  0  0  0  0  0  0  0  0
  1  2  1  0
  1 22  1  0
  1 23  1  0
  1 24  1  0
  2  3  1  0
  2  4  1  0
  2 25  1  6
  3 26  1  0
  3 27  1  0
  3 28  1  0
  4  5  1  0
  4 14  1  0
  5  6  1  0
  5 29  1  0
  5 30  1  0
  6  7  1  0
  6 31  1  0
  6 32  1  0
  7  8  1  0
  7 13  1  0
  8  9  1  0
  8 33  1  0
  8 34  1  0
  9 10  1  0
  9 35  1  0
  9 36  1  0
 10 11  1  0
 10 37  1  0
 10 38  1  0
 11 12  1  0
 11 39  1  0
 11 40  1  0
 12 13  1  0
 12 41  1  0
 12 42  1  0
 13 43  1  0
 13 44  1  0
 14 15  2  0
 14 21  1  0
 15 16  1  0
 15 45  1  0
 16 17  2  0
 17 18  1  0
 17 20  1  0
 18 19  3  0
 20 21  2  0
 20 46  1  0
M  END

