
     RDKit          3D

 46 48  0  0  0  0  0  0  0  0999 V2000
    7.4451   -3.6288    4.4072 C   0  0  0  0  0  0  0  0  0  0  0  0
    8.8331   -3.3269    3.8694 C   0  0  0  0  0  0  0  0  0  0  0  0
    8.7714   -2.5730    2.6394 O   0  0  0  0  0  0  0  0  0  0  0  0
    8.6449   -3.2613    1.4967 C   0  0  0  0  0  0  0  0  0  0  0  0
    8.5833   -4.4661    1.4319 O   0  0  0  0  0  0  0  0  0  0  0  0
    8.6230   -2.3397    0.2892 C   0  0  0  0  0  0  0  0  0  0  0  0
    7.5166   -2.7596   -0.6891 C   0  0  0  0  0  0  0  0  0  0  0  0
    6.3671   -2.7449   -0.3117 O   0  0  0  0  0  0  0  0  0  0  0  0
    7.8947   -3.0897   -2.1429 C   0  0  1  0  0  0  0  0  0  0  0  0
    6.7096   -3.8025   -2.8701 C   0  0  0  0  0  0  0  0  0  0  0  0
    6.4768   -5.2634   -2.5435 C   0  0  0  0  0  0  0  0  0  0  0  0
    5.7134   -5.6565   -1.4304 C   0  0  0  0  0  0  0  0  0  0  0  0
    5.5029   -7.0093   -1.1493 C   0  0  0  0  0  0  0  0  0  0  0  0
    6.0476   -7.9968   -1.9756 C   0  0  0  0  0  0  0  0  0  0  0  0
    6.8029   -7.6206   -3.0896 C   0  0  0  0  0  0  0  0  0  0  0  0
    7.0125   -6.2673   -3.3679 C   0  0  0  0  0  0  0  0  0  0  0  0
    8.2080   -1.7310   -2.8682 C   0  0  0  0  0  0  0  0  0  0  0  0
    9.2747   -2.0593   -3.9348 C   0  0  0  0  0  0  0  0  0  0  0  0
    9.9780   -3.2617   -3.3504 C   0  0  0  0  0  0  0  0  0  0  0  0
   11.2022   -3.8221   -3.7234 C   0  0  0  0  0  0  0  0  0  0  0  0
   11.6526   -4.9509   -3.0438 C   0  0  0  0  0  0  0  0  0  0  0  0
   12.8255   -5.5072   -3.3648 F   0  0  0  0  0  0  0  0  0  0  0  0
   10.8955   -5.5148   -2.0083 C   0  0  0  0  0  0  0  0  0  0  0  0
   11.3757   -6.5902   -1.3756 F   0  0  0  0  0  0  0  0  0  0  0  0
    9.6698   -4.9684   -1.6388 C   0  0  0  0  0  0  0  0  0  0  0  0
    9.2162   -3.8315   -2.3176 C   0  0  0  0  0  0  0  0  0  0  0  0
    7.5256   -4.1355    5.3823 H   0  0  0  0  0  0  0  0  0  0  0  0
    6.8953   -4.2904    3.7218 H   0  0  0  0  0  0  0  0  0  0  0  0
    6.8663   -2.7027    4.5463 H   0  0  0  0  0  0  0  0  0  0  0  0
    9.3991   -4.2527    3.6900 H   0  0  0  0  0  0  0  0  0  0  0  0
    9.4003   -2.6842    4.5579 H   0  0  0  0  0  0  0  0  0  0  0  0
    9.6203   -2.3673   -0.1743 H   0  0  0  0  0  0  0  0  0  0  0  0
    8.4191   -1.3122    0.6222 H   0  0  0  0  0  0  0  0  0  0  0  0
    6.8910   -3.7117   -3.9525 H   0  0  0  0  0  0  0  0  0  0  0  0
    5.8034   -3.2222   -2.6419 H   0  0  0  0  0  0  0  0  0  0  0  0
    5.2850   -4.8909   -0.7813 H   0  0  0  0  0  0  0  0  0  0  0  0
    4.9058   -7.2931   -0.2786 H   0  0  0  0  0  0  0  0  0  0  0  0
    5.8808   -9.0543   -1.7547 H   0  0  0  0  0  0  0  0  0  0  0  0
    7.2296   -8.3830   -3.7469 H   0  0  0  0  0  0  0  0  0  0  0  0
    7.6010   -5.9839   -4.2454 H   0  0  0  0  0  0  0  0  0  0  0  0
    8.6316   -1.0109   -2.1487 H   0  0  0  0  0  0  0  0  0  0  0  0
    7.2939   -1.2771   -3.2781 H   0  0  0  0  0  0  0  0  0  0  0  0
    9.9522   -1.2123   -4.1272 H   0  0  0  0  0  0  0  0  0  0  0  0
    8.8091   -2.3155   -4.9035 H   0  0  0  0  0  0  0  0  0  0  0  0
   11.8208   -3.4056   -4.5215 H   0  0  0  0  0  0  0  0  0  0  0  0
    9.1151   -5.4178   -0.8134 H   0  0  0  0  0  0  0  0  0  0  0  0
  1  2  1  0
  1 27  1  0
  1 28  1  0
  1 29  1  0
  2  3  1  0
  2 30  1  0
  2 31  1  0
  3  4  1  0
  4  5  2  0
  4  6  1  0
  6  7  1  0
  6 32  1  0
  6 33  1  0
  7  8  2  0
  9  7  1  1
  9 10  1  0
  9 17  1  0
  9 26  1  0
 10 11  1  0
 10 34  1  0
 10 35  1  0
 11 12  2  0
 11 16  1  0
 12 13  1  0
 12 36  1  0
 13 14  2  0
 13 37  1  0
 14 15  1  0
 14 38  1  0
 15 16  2  0
 15 39  1  0
 16 40  1  0
 17 18  1  0
 17 41  1  0
 17 42  1  0
 18 19  1  0
 18 43  1  0
 18 44  1  0
 19 20  1  0
 19 26  2  0
 20 21  2  0
 20 45  1  0
 21 22  1  0
 21 23  1  0
 23 24  1  0
 23 25  2  0
 25 26  1  0
 25 46  1  0
M  END

