
     RDKit          3D

 45 46  0  0  0  0  0  0  0  0999 V2000
    4.5983   -1.8448    3.7267 C   0  0  0  0  0  0  0  0  0  0  0  0
    5.1290   -1.7455    2.4054 O   0  0  0  0  0  0  0  0  0  0  0  0
    5.0223   -0.5321    1.8266 C   0  0  0  0  0  0  0  0  0  0  0  0
    4.5971    0.4340    2.4142 O   0  0  0  0  0  0  0  0  0  0  0  0
    5.5625   -0.4797    0.4296 C   0  0  0  0  0  0  0  0  0  0  0  0
    6.0380    0.7738    0.0081 C   0  0  0  0  0  0  0  0  0  0  0  0
    6.6168    0.9443   -1.2471 C   0  0  0  0  0  0  0  0  0  0  0  0
    6.7039   -0.1450   -2.1203 C   0  0  0  0  0  0  0  0  0  0  0  0
    6.1976   -1.3858   -1.7369 C   0  0  0  0  0  0  0  0  0  0  0  0
    5.6278   -1.5687   -0.4667 C   0  0  0  0  0  0  0  0  0  0  0  0
    5.0960   -2.8482   -0.1642 N   0  0  0  0  0  0  0  0  0  0  0  0
    5.9175   -4.0562   -0.1506 C   0  0  0  0  0  0  0  0  0  0  0  0
    4.8877   -5.1906   -0.2544 C   0  0  2  0  0  0  0  0  0  0  0  0
    4.6531   -5.5770   -1.7339 C   0  0  0  0  0  0  0  0  0  0  0  0
    5.2468   -5.0259   -2.6510 O   0  0  0  0  0  0  0  0  0  0  0  0
    3.7477   -6.5760   -1.9142 N   0  0  0  0  0  0  0  0  0  0  0  0
    3.3217   -7.1485   -3.2143 C   0  0  1  0  0  0  0  0  0  0  0  0
    4.5298   -7.7779   -3.9323 C   0  0  0  0  0  0  0  0  0  0  0  0
    2.2816   -8.2313   -2.8911 C   0  0  0  0  0  0  0  0  0  0  0  0
    2.6840   -6.0530   -4.0880 C   0  0  0  0  0  0  0  0  0  0  0  0
    3.6367   -4.5821    0.4133 C   0  0  0  0  0  0  0  0  0  0  0  0
    3.7907   -3.0722    0.2133 C   0  0  0  0  0  0  0  0  0  0  0  0
    2.9295   -2.2335    0.3697 O   0  0  0  0  0  0  0  0  0  0  0  0
    4.7950   -2.8719    4.0594 H   0  0  0  0  0  0  0  0  0  0  0  0
    3.5160   -1.6453    3.7230 H   0  0  0  0  0  0  0  0  0  0  0  0
    5.0852   -1.1254    4.4019 H   0  0  0  0  0  0  0  0  0  0  0  0
    5.9489    1.6105    0.7032 H   0  0  0  0  0  0  0  0  0  0  0  0
    6.9935    1.9250   -1.5468 H   0  0  0  0  0  0  0  0  0  0  0  0
    7.1450   -0.0235   -3.1129 H   0  0  0  0  0  0  0  0  0  0  0  0
    6.2055   -2.2317   -2.4282 H   0  0  0  0  0  0  0  0  0  0  0  0
    6.4912   -4.1161    0.7925 H   0  0  0  0  0  0  0  0  0  0  0  0
    6.6139   -4.0749   -0.9979 H   0  0  0  0  0  0  0  0  0  0  0  0
    5.2376   -6.0911    0.2761 H   0  0  0  0  0  0  0  0  0  0  0  0
    3.3284   -6.9770   -1.0836 H   0  0  0  0  0  0  0  0  0  0  0  0
    4.9784   -8.5726   -3.3148 H   0  0  0  0  0  0  0  0  0  0  0  0
    5.2961   -7.0177   -4.1348 H   0  0  0  0  0  0  0  0  0  0  0  0
    4.2147   -8.2234   -4.8890 H   0  0  0  0  0  0  0  0  0  0  0  0
    2.7142   -9.0254   -2.2598 H   0  0  0  0  0  0  0  0  0  0  0  0
    1.9201   -8.7003   -3.8180 H   0  0  0  0  0  0  0  0  0  0  0  0
    1.4096   -7.8040   -2.3687 H   0  0  0  0  0  0  0  0  0  0  0  0
    3.4081   -5.2538   -4.2947 H   0  0  0  0  0  0  0  0  0  0  0  0
    1.8105   -5.6113   -3.5826 H   0  0  0  0  0  0  0  0  0  0  0  0
    2.3475   -6.4795   -5.0461 H   0  0  0  0  0  0  0  0  0  0  0  0
    3.6173   -4.7783    1.4987 H   0  0  0  0  0  0  0  0  0  0  0  0
    2.6746   -4.9158    0.0003 H   0  0  0  0  0  0  0  0  0  0  0  0
  1  2  1  0
  1 24  1  0
  1 25  1  0
  1 26  1  0
  2  3  1  0
  3  4  2  0
  3  5  1  0
  5  6  2  0
  5 10  1  0
  6  7  1  0
  6 27  1  0
  7  8  2  0
  7 28  1  0
  8  9  1  0
  8 29  1  0
  9 10  2  0
  9 30  1  0
 10 11  1  0
 11 12  1  0
 11 22  1  0
 12 13  1  0
 12 31  1  0
 12 32  1  0
 13 14  1  0
 13 21  1  0
 13 33  1  1
 14 15  2  0
 14 16  1  0
 17 16  1  1
 16 34  1  0
 17 18  1  0
 17 19  1  0
 17 20  1  0
 18 35  1  0
 18 36  1  0
 18 37  1  0
 19 38  1  0
 19 39  1  0
 19 40  1  0
 20 41  1  0
 20 42  1  0
 20 43  1  0
 21 22  1  0
 21 44  1  0
 21 45  1  0
 22 23  2  0
M  END

