
     RDKit          3D

 43 44  0  0  0  0  0  0  0  0999 V2000
    4.9090   -0.8207    1.4217 C   0  0  0  0  0  0  0  0  0  0  0  0
    4.2495    0.0320    0.5129 O   0  0  0  0  0  0  0  0  0  0  0  0
    3.7180   -0.4830   -0.6222 C   0  0  0  0  0  0  0  0  0  0  0  0
    3.0827    0.4417   -1.4698 C   0  0  0  0  0  0  0  0  0  0  0  0
    2.5244   -0.0211   -2.6507 C   0  0  0  0  0  0  0  0  0  0  0  0
    1.9214    0.8565   -3.4671 F   0  0  0  0  0  0  0  0  0  0  0  0
    2.5658   -1.3651   -3.0266 C   0  0  0  0  0  0  0  0  0  0  0  0
    3.1969   -2.2860   -2.1829 C   0  0  0  0  0  0  0  0  0  0  0  0
    3.2441   -3.7561   -2.5355 C   0  0  0  0  0  0  0  0  0  0  0  0
    2.2559   -4.6544   -1.7345 C   0  0  1  0  0  0  0  0  0  0  0  0
    0.7964   -4.3021   -2.0231 C   0  0  0  0  0  0  0  0  0  0  0  0
    2.4534   -6.0835   -1.9613 N   0  0  0  0  0  0  0  0  0  0  0  0
    3.6968   -6.6763   -1.5096 C   0  0  0  0  0  0  0  0  0  0  0  0
    3.6635   -8.1940   -1.5331 C   0  0  0  0  0  0  0  0  0  0  0  0
    4.8436   -8.9293   -1.7314 C   0  0  0  0  0  0  0  0  0  0  0  0
    4.8342  -10.3220   -1.7053 C   0  0  0  0  0  0  0  0  0  0  0  0
    3.6339  -11.0209   -1.5046 C   0  0  0  0  0  0  0  0  0  0  0  0
    3.6913  -12.5225   -1.4854 C   0  0  0  0  0  0  0  0  0  0  0  0
    4.7125  -13.1420   -1.3411 O   0  0  0  0  0  0  0  0  0  0  0  0
    2.5161  -13.1747   -1.6474 O   0  0  0  0  0  0  0  0  0  0  0  0
    2.4530  -10.2888   -1.3012 C   0  0  0  0  0  0  0  0  0  0  0  0
    2.4675   -8.8935   -1.3154 C   0  0  0  0  0  0  0  0  0  0  0  0
    3.7752   -1.8386   -0.9795 C   0  0  0  0  0  0  0  0  0  0  0  0
    5.2470   -0.1886    2.2537 H   0  0  0  0  0  0  0  0  0  0  0  0
    5.7884   -1.3089    0.9642 H   0  0  0  0  0  0  0  0  0  0  0  0
    4.2346   -1.6014    1.8174 H   0  0  0  0  0  0  0  0  0  0  0  0
    3.0393    1.4972   -1.2008 H   0  0  0  0  0  0  0  0  0  0  0  0
    2.1114   -1.6690   -3.9712 H   0  0  0  0  0  0  0  0  0  0  0  0
    4.2678   -4.1274   -2.3632 H   0  0  0  0  0  0  0  0  0  0  0  0
    3.0368   -3.8884   -3.6114 H   0  0  0  0  0  0  0  0  0  0  0  0
    2.4471   -4.4793   -0.6595 H   0  0  0  0  0  0  0  0  0  0  0  0
    0.5539   -4.4826   -3.0851 H   0  0  0  0  0  0  0  0  0  0  0  0
    0.5875   -3.2436   -1.8104 H   0  0  0  0  0  0  0  0  0  0  0  0
    0.1268   -4.9260   -1.4131 H   0  0  0  0  0  0  0  0  0  0  0  0
    2.2672   -6.3257   -2.9348 H   0  0  0  0  0  0  0  0  0  0  0  0
    3.8588   -6.3491   -0.4644 H   0  0  0  0  0  0  0  0  0  0  0  0
    4.5994   -6.3414   -2.0654 H   0  0  0  0  0  0  0  0  0  0  0  0
    5.7847   -8.4002   -1.9083 H   0  0  0  0  0  0  0  0  0  0  0  0
    5.7514  -10.8966   -1.8472 H   0  0  0  0  0  0  0  0  0  0  0  0
    1.8143  -12.5522   -1.8826 H   0  0  0  0  0  0  0  0  0  0  0  0
    1.5055  -10.7973   -1.0957 H   0  0  0  0  0  0  0  0  0  0  0  0
    1.5497   -8.3242   -1.1579 H   0  0  0  0  0  0  0  0  0  0  0  0
    4.2771   -2.5600   -0.3341 H   0  0  0  0  0  0  0  0  0  0  0  0
  1  2  1  0
  1 24  1  0
  1 25  1  0
  1 26  1  0
  2  3  1  0
  3  4  2  0
  3 23  1  0
  4  5  1  0
  4 27  1  0
  5  6  1  0
  5  7  2  0
  7  8  1  0
  7 28  1  0
  8  9  1  0
  8 23  2  0
  9 10  1  0
  9 29  1  0
  9 30  1  0
 10 11  1  0
 10 12  1  0
 10 31  1  1
 11 32  1  0
 11 33  1  0
 11 34  1  0
 12 13  1  0
 12 35  1  0
 13 14  1  0
 13 36  1  0
 13 37  1  0
 14 15  2  0
 14 22  1  0
 15 16  1  0
 15 38  1  0
 16 17  2  0
 16 39  1  0
 17 18  1  0
 17 21  1  0
 18 19  2  0
 18 20  1  0
 20 40  1  0
 21 22  2  0
 21 41  1  0
 22 42  1  0
 23 43  1  0
M  END

