
     RDKit          3D

 33 34  0  0  0  0  0  0  0  0999 V2000
    1.0010    0.1573    0.4001 C   0  0  0  0  0  0  0  0  0  0  0  0
    2.4978    0.1166    0.2098 C   0  0  0  0  0  0  0  0  0  0  0  0
    3.1372    0.8916   -0.7654 C   0  0  0  0  0  0  0  0  0  0  0  0
    4.5219    0.8329   -0.9495 C   0  0  0  0  0  0  0  0  0  0  0  0
    5.3175   -0.0015   -0.1507 C   0  0  0  0  0  0  0  0  0  0  0  0
    6.7324   -0.0022   -0.3158 N   0  0  0  0  0  0  0  0  0  0  0  0
    7.4113    1.2786   -0.4986 C   0  0  0  0  0  0  0  0  0  0  0  0
    7.4710   -1.1616   -0.4635 C   0  0  0  0  0  0  0  0  0  0  0  0
    8.7922   -1.0073   -0.6788 N   0  0  0  0  0  0  0  0  0  0  0  0
    9.5026   -2.1224   -0.8252 C   0  0  0  0  0  0  0  0  0  0  0  0
    8.9422   -3.3985   -0.7743 C   0  0  0  0  0  0  0  0  0  0  0  0
    7.5584   -3.4490   -0.5553 C   0  0  0  0  0  0  0  0  0  0  0  0
    6.8032   -4.7605   -0.4559 C   0  0  0  0  0  0  0  0  0  0  0  0
    7.5423   -5.8850   -1.0096 N   0  0  0  0  0  0  0  0  0  0  0  0
    6.8327   -2.3416   -0.4039 N   0  0  0  0  0  0  0  0  0  0  0  0
    4.6857   -0.7751    0.8386 C   0  0  0  0  0  0  0  0  0  0  0  0
    3.3045   -0.7155    1.0059 C   0  0  0  0  0  0  0  0  0  0  0  0
    0.5411    0.9711   -0.1803 H   0  0  0  0  0  0  0  0  0  0  0  0
    0.7321    0.3039    1.4592 H   0  0  0  0  0  0  0  0  0  0  0  0
    0.5295   -0.7875    0.0780 H   0  0  0  0  0  0  0  0  0  0  0  0
    2.5441    1.5526   -1.4041 H   0  0  0  0  0  0  0  0  0  0  0  0
    4.9847    1.4394   -1.7307 H   0  0  0  0  0  0  0  0  0  0  0  0
    6.7840    2.0744   -0.0775 H   0  0  0  0  0  0  0  0  0  0  0  0
    7.6110    1.5016   -1.5619 H   0  0  0  0  0  0  0  0  0  0  0  0
    8.3802    1.2632    0.0158 H   0  0  0  0  0  0  0  0  0  0  0  0
   10.5791   -1.9929   -0.9953 H   0  0  0  0  0  0  0  0  0  0  0  0
    9.5236   -4.3114   -0.8941 H   0  0  0  0  0  0  0  0  0  0  0  0
    5.7972   -4.5853   -0.8879 H   0  0  0  0  0  0  0  0  0  0  0  0
    6.6332   -4.9526    0.6192 H   0  0  0  0  0  0  0  0  0  0  0  0
    7.5424   -5.8481   -2.0294 H   0  0  0  0  0  0  0  0  0  0  0  0
    7.1019   -6.7659   -0.7501 H   0  0  0  0  0  0  0  0  0  0  0  0
    5.2846   -1.4240    1.4761 H   0  0  0  0  0  0  0  0  0  0  0  0
    2.8398   -1.3259    1.7864 H   0  0  0  0  0  0  0  0  0  0  0  0
  1  2  1  0
  1 18  1  0
  1 19  1  0
  1 20  1  0
  2  3  2  0
  2 17  1  0
  3  4  1  0
  3 21  1  0
  4  5  2  0
  4 22  1  0
  5  6  1  0
  5 16  1  0
  6  7  1  0
  6  8  1  0
  7 23  1  0
  7 24  1  0
  7 25  1  0
  8  9  2  0
  8 15  1  0
  9 10  1  0
 10 11  2  0
 10 26  1  0
 11 12  1  0
 11 27  1  0
 12 13  1  0
 12 15  2  0
 13 14  1  0
 13 28  1  0
 13 29  1  0
 14 30  1  0
 14 31  1  0
 16 17  2  0
 16 32  1  0
 17 33  1  0
M  END

