
     RDKit          3D

 29 30  0  0  0  0  0  0  0  0999 V2000
    1.0789    0.2274    0.2577 C   0  0  0  0  0  0  0  0  0  0  0  0
    2.5742    0.0383   -0.0217 C   0  0  2  0  0  0  0  0  0  0  0  0
    2.8175   -0.1323   -1.5352 C   0  0  0  0  0  0  0  0  0  0  0  0
    3.1227   -1.1677    0.7592 C   0  0  0  0  0  0  0  0  0  0  0  0
    4.6463   -1.2828    0.7457 C   0  0  0  0  0  0  0  0  0  0  0  0
    5.1905   -2.3648    0.6808 O   0  0  0  0  0  0  0  0  0  0  0  0
    5.3645    0.0149    0.8736 C   0  0  0  0  0  0  0  0  0  0  0  0
    6.7460    0.0993    1.1514 C   0  0  0  0  0  0  0  0  0  0  0  0
    7.4257   -1.0290    1.2764 F   0  0  0  0  0  0  0  0  0  0  0  0
    7.4147    1.3170    1.3161 C   0  0  0  0  0  0  0  0  0  0  0  0
    8.8879    1.4670    1.6244 C   0  0  1  0  0  0  0  0  0  0  0  0
    9.5242    0.2992    1.7355 F   0  0  0  0  0  0  0  0  0  0  0  0
    9.5113    2.1726    0.6621 F   0  0  0  0  0  0  0  0  0  0  0  0
    9.0711    2.1345    2.7792 F   0  0  0  0  0  0  0  0  0  0  0  0
    6.6432    2.4910    1.1825 C   0  0  0  0  0  0  0  0  0  0  0  0
    7.2233    3.6781    1.3158 F   0  0  0  0  0  0  0  0  0  0  0  0
    5.2910    2.4488    0.9063 C   0  0  0  0  0  0  0  0  0  0  0  0
    4.5897    3.5877    0.7662 F   0  0  0  0  0  0  0  0  0  0  0  0
    4.6181    1.2198    0.7456 C   0  0  0  0  0  0  0  0  0  0  0  0
    3.2841    1.2267    0.4783 N   0  0  0  0  0  0  0  0  0  0  0  0
    0.5094   -0.6492   -0.0852 H   0  0  0  0  0  0  0  0  0  0  0  0
    0.6870    1.1088   -0.2771 H   0  0  0  0  0  0  0  0  0  0  0  0
    0.8939    0.3653    1.3337 H   0  0  0  0  0  0  0  0  0  0  0  0
    2.2908   -1.0211   -1.9163 H   0  0  0  0  0  0  0  0  0  0  0  0
    3.8884   -0.2524   -1.7613 H   0  0  0  0  0  0  0  0  0  0  0  0
    2.4487    0.7463   -2.0880 H   0  0  0  0  0  0  0  0  0  0  0  0
    2.7115   -2.1112    0.3750 H   0  0  0  0  0  0  0  0  0  0  0  0
    2.8206   -1.0782    1.8190 H   0  0  0  0  0  0  0  0  0  0  0  0
    2.8773    2.1331    0.2734 H   0  0  0  0  0  0  0  0  0  0  0  0
  2  1  1  6
  1 21  1  0
  1 22  1  0
  1 23  1  0
  2  3  1  0
  2  4  1  0
  2 20  1  0
  3 24  1  0
  3 25  1  0
  3 26  1  0
  4  5  1  0
  4 27  1  0
  4 28  1  0
  5  6  2  0
  5  7  1  0
  7  8  1  0
  7 19  2  0
  8  9  1  0
  8 10  2  0
 10 11  1  0
 10 15  1  0
 11 12  1  1
 11 13  1  0
 11 14  1  0
 15 16  1  0
 15 17  2  0
 17 18  1  0
 17 19  1  0
 19 20  1  0
 20 29  1  0
M  END

