
     RDKit          3D

 41 43  0  0  0  0  0  0  0  0999 V2000
    1.1552    0.9723    0.4888 C   0  0  0  0  0  0  0  0  0  0  0  0
    2.1603   -0.1809    0.4272 C   0  0  0  0  0  0  0  0  0  0  0  0
    2.7324   -0.4758   -0.9754 C   0  0  1  0  0  0  0  0  0  0  0  0
    3.9131   -1.4717   -0.9186 C   0  0  0  0  0  0  0  0  0  0  0  0
    3.4768   -2.9175   -0.6378 C   0  0  0  0  0  0  0  0  0  0  0  0
    2.4132   -3.3865   -1.6395 C   0  0  0  0  0  0  0  0  0  0  0  0
    1.2265   -2.4143   -1.6915 C   0  0  0  0  0  0  0  0  0  0  0  0
    1.6685   -0.9626   -1.9944 C   0  0  2  0  0  0  0  0  0  0  0  0
    2.1873   -0.7708   -3.3565 N   0  0  0  0  0  0  0  0  0  0  0  0
    1.2373   -0.8561   -4.4435 C   0  0  2  0  0  0  0  0  0  0  0  0
    1.8984   -1.4889   -5.6898 C   0  0  0  0  0  0  0  0  0  0  0  0
    2.6278   -2.4548   -5.7024 O   0  0  0  0  0  0  0  0  0  0  0  0
    1.5192   -0.7314   -6.7783 N   0  0  0  0  0  0  0  0  0  0  0  0
    0.8287    0.4267   -6.3990 C   0  0  0  0  0  0  0  0  0  0  0  0
    0.3619    1.4567   -7.2109 C   0  0  0  0  0  0  0  0  0  0  0  0
   -0.2792    2.5287   -6.5729 C   0  0  0  0  0  0  0  0  0  0  0  0
   -0.9322    3.9695   -7.6414 Br  0  0  0  0  0  0  0  0  0  0  0  0
   -0.4493    2.5726   -5.1875 C   0  0  0  0  0  0  0  0  0  0  0  0
    0.0244    1.5108   -4.3984 C   0  0  0  0  0  0  0  0  0  0  0  0
    0.6626    0.4355   -5.0003 C   0  0  0  0  0  0  0  0  0  0  0  0
    0.8636    1.1866    1.5294 H   0  0  0  0  0  0  0  0  0  0  0  0
    0.2280    0.7526   -0.0651 H   0  0  0  0  0  0  0  0  0  0  0  0
    1.5818    1.8977    0.0663 H   0  0  0  0  0  0  0  0  0  0  0  0
    1.7016   -1.0866    0.8596 H   0  0  0  0  0  0  0  0  0  0  0  0
    3.0116    0.0599    1.0882 H   0  0  0  0  0  0  0  0  0  0  0  0
    3.1176    0.4775   -1.3766 H   0  0  0  0  0  0  0  0  0  0  0  0
    4.6404   -1.1363   -0.1596 H   0  0  0  0  0  0  0  0  0  0  0  0
    4.4549   -1.4424   -1.8811 H   0  0  0  0  0  0  0  0  0  0  0  0
    3.0716   -2.9944    0.3871 H   0  0  0  0  0  0  0  0  0  0  0  0
    4.3532   -3.5866   -0.6689 H   0  0  0  0  0  0  0  0  0  0  0  0
    2.0606   -4.3995   -1.3831 H   0  0  0  0  0  0  0  0  0  0  0  0
    2.8607   -3.4697   -2.6465 H   0  0  0  0  0  0  0  0  0  0  0  0
    0.6911   -2.4321   -0.7258 H   0  0  0  0  0  0  0  0  0  0  0  0
    0.4915   -2.7495   -2.4435 H   0  0  0  0  0  0  0  0  0  0  0  0
    0.7862   -0.3084   -1.9071 H   0  0  0  0  0  0  0  0  0  0  0  0
    2.9505   -1.4181   -3.5485 H   0  0  0  0  0  0  0  0  0  0  0  0
    0.3834   -1.5335   -4.2100 H   0  0  0  0  0  0  0  0  0  0  0  0
    1.8494   -0.9343   -7.7151 H   0  0  0  0  0  0  0  0  0  0  0  0
    0.4919    1.4440   -8.2938 H   0  0  0  0  0  0  0  0  0  0  0  0
   -0.9473    3.4258   -4.7256 H   0  0  0  0  0  0  0  0  0  0  0  0
   -0.1086    1.5465   -3.3147 H   0  0  0  0  0  0  0  0  0  0  0  0
  1  2  1  0
  1 21  1  0
  1 22  1  0
  1 23  1  0
  2  3  1  0
  2 24  1  0
  2 25  1  0
  3  4  1  0
  3  8  1  0
  3 26  1  6
  4  5  1  0
  4 27  1  0
  4 28  1  0
  5  6  1  0
  5 29  1  0
  5 30  1  0
  6  7  1  0
  6 31  1  0
  6 32  1  0
  7  8  1  0
  7 33  1  0
  7 34  1  0
  8  9  1  0
  8 35  1  6
  9 10  1  0
  9 36  1  0
 10 11  1  0
 10 20  1  0
 10 37  1  1
 11 12  2  0
 11 13  1  0
 13 14  1  0
 13 38  1  0
 14 15  1  0
 14 20  2  0
 15 16  2  0
 15 39  1  0
 16 17  1  0
 16 18  1  0
 18 19  2  0
 18 40  1  0
 19 20  1  0
 19 41  1  0
M  END

