
     RDKit          3D

 42 44  0  0  0  0  0  0  0  0999 V2000
    0.4893   -0.7479    0.0026 C   0  0  0  0  0  0  0  0  0  0  0  0
    2.0211   -0.7290   -0.1062 C   0  0  1  0  0  0  0  0  0  0  0  0
    2.5912   -2.0056   -0.7585 C   0  0  0  0  0  0  0  0  0  0  0  0
    2.4130   -2.0304   -2.2809 C   0  0  0  0  0  0  0  0  0  0  0  0
    3.0550   -0.8009   -2.9318 C   0  0  0  0  0  0  0  0  0  0  0  0
    2.4838    0.5257   -2.3627 C   0  0  2  0  0  0  0  0  0  0  0  0
    1.0857    0.6373   -2.7681 N   0  0  0  0  0  0  0  0  0  0  0  0
    3.3072    1.7150   -2.9342 C   0  0  0  0  0  0  0  0  0  0  0  0
    2.7625    2.5522   -3.6310 O   0  0  0  0  0  0  0  0  0  0  0  0
    4.7692    1.8206   -2.6317 C   0  0  1  0  0  0  0  0  0  0  0  0
    5.6557    2.4961   -3.6547 C   0  0  0  0  0  0  0  0  0  0  0  0
    5.3308    3.2351   -2.3974 C   0  0  2  0  0  0  0  0  0  0  0  0
    6.3229    3.4927   -1.3126 C   0  0  0  0  0  0  0  0  0  0  0  0
    7.4278    2.6551   -1.0764 C   0  0  0  0  0  0  0  0  0  0  0  0
    8.3293    2.9295   -0.0459 C   0  0  0  0  0  0  0  0  0  0  0  0
    8.1491    4.0502    0.7712 C   0  0  0  0  0  0  0  0  0  0  0  0
    7.0572    4.8927    0.5467 C   0  0  0  0  0  0  0  0  0  0  0  0
    6.1547    4.6145   -0.4831 C   0  0  0  0  0  0  0  0  0  0  0  0
    2.5852    0.5266   -0.8133 C   0  0  0  0  0  0  0  0  0  0  0  0
    0.1545   -1.6222    0.5852 H   0  0  0  0  0  0  0  0  0  0  0  0
    0.0094   -0.7733   -0.9850 H   0  0  0  0  0  0  0  0  0  0  0  0
    0.1251    0.1538    0.5232 H   0  0  0  0  0  0  0  0  0  0  0  0
    2.4101   -0.6928    0.9277 H   0  0  0  0  0  0  0  0  0  0  0  0
    2.1262   -2.8960   -0.3024 H   0  0  0  0  0  0  0  0  0  0  0  0
    3.6711   -2.0712   -0.5282 H   0  0  0  0  0  0  0  0  0  0  0  0
    1.3431   -2.0571   -2.5395 H   0  0  0  0  0  0  0  0  0  0  0  0
    2.8655   -2.9458   -2.6984 H   0  0  0  0  0  0  0  0  0  0  0  0
    2.9017   -0.8145   -4.0249 H   0  0  0  0  0  0  0  0  0  0  0  0
    4.1459   -0.8326   -2.7707 H   0  0  0  0  0  0  0  0  0  0  0  0
    1.0510    0.8033   -3.7757 H   0  0  0  0  0  0  0  0  0  0  0  0
    0.6874    1.4859   -2.3628 H   0  0  0  0  0  0  0  0  0  0  0  0
    5.2204    1.0309   -2.0286 H   0  0  0  0  0  0  0  0  0  0  0  0
    5.1558    2.8308   -4.5674 H   0  0  0  0  0  0  0  0  0  0  0  0
    6.6672    2.1022   -3.7842 H   0  0  0  0  0  0  0  0  0  0  0  0
    4.5705    4.0135   -2.5114 H   0  0  0  0  0  0  0  0  0  0  0  0
    7.5936    1.7750   -1.7038 H   0  0  0  0  0  0  0  0  0  0  0  0
    9.1809    2.2639    0.1185 H   0  0  0  0  0  0  0  0  0  0  0  0
    8.8563    4.2651    1.5761 H   0  0  0  0  0  0  0  0  0  0  0  0
    6.9051    5.7732    1.1766 H   0  0  0  0  0  0  0  0  0  0  0  0
    5.3033    5.2797   -0.6514 H   0  0  0  0  0  0  0  0  0  0  0  0
    2.0887    1.4333   -0.4241 H   0  0  0  0  0  0  0  0  0  0  0  0
    3.6469    0.6224   -0.5351 H   0  0  0  0  0  0  0  0  0  0  0  0
  1  2  1  0
  1 20  1  0
  1 21  1  0
  1 22  1  0
  2  3  1  0
  2 19  1  0
  2 23  1  1
  3  4  1  0
  3 24  1  0
  3 25  1  0
  4  5  1  0
  4 26  1  0
  4 27  1  0
  5  6  1  0
  5 28  1  0
  5 29  1  0
  6  7  1  0
  6  8  1  6
  6 19  1  0
  7 30  1  0
  7 31  1  0
  8  9  2  0
  8 10  1  0
 10 11  1  0
 10 12  1  0
 10 32  1  1
 11 12  1  0
 11 33  1  0
 11 34  1  0
 12 13  1  0
 12 35  1  6
 13 14  2  0
 13 18  1  0
 14 15  1  0
 14 36  1  0
 15 16  2  0
 15 37  1  0
 16 17  1  0
 16 38  1  0
 17 18  2  0
 17 39  1  0
 18 40  1  0
 19 41  1  0
 19 42  1  0
M  END

