
     RDKit          3D

 38 39  0  0  0  0  0  0  0  0999 V2000
    2.5009   -0.6829   -1.0087 C   0  0  0  0  0  0  0  0  0  0  0  0
    2.2682    0.1826    0.2423 C   0  0  1  0  0  0  0  0  0  0  0  0
    2.6604   -0.5695    1.5249 C   0  0  0  0  0  0  0  0  0  0  0  0
    2.9653    1.5332    0.1331 C   0  0  0  0  0  0  0  0  0  0  0  0
    2.2237    2.7238    0.0721 C   0  0  0  0  0  0  0  0  0  0  0  0
    2.8505    3.9671   -0.0277 C   0  0  0  0  0  0  0  0  0  0  0  0
    4.2491    4.0654   -0.0711 C   0  0  0  0  0  0  0  0  0  0  0  0
    4.9291    5.4138   -0.1234 C   0  0  0  0  0  0  0  0  0  0  0  0
    4.9659    6.0296    1.2009 N   0  0  0  0  0  0  0  0  0  0  0  0
    5.2349    7.3516    1.3726 C   0  0  0  0  0  0  0  0  0  0  0  0
    5.4167    8.1197    0.4367 O   0  0  0  0  0  0  0  0  0  0  0  0
    5.2987    7.8110    2.8046 C   0  0  1  0  0  0  0  0  0  0  0  0
    6.3990    8.7564    3.1927 C   0  0  0  0  0  0  0  0  0  0  0  0
    4.9982    9.2804    3.0596 C   0  0  2  0  0  0  0  0  0  0  0  0
    4.2415    9.6060    4.3137 C   0  0  0  0  0  0  0  0  0  0  0  0
    4.4267    9.0566    5.3673 O   0  0  0  0  0  0  0  0  0  0  0  0
    3.3074   10.5751    4.1911 O   0  0  0  0  0  0  0  0  0  0  0  0
    4.9955    2.8786   -0.0170 C   0  0  0  0  0  0  0  0  0  0  0  0
    4.3656    1.6366    0.0819 C   0  0  0  0  0  0  0  0  0  0  0  0
    1.9334   -1.6256   -0.9427 H   0  0  0  0  0  0  0  0  0  0  0  0
    3.5666   -0.9433   -1.1220 H   0  0  0  0  0  0  0  0  0  0  0  0
    2.1866   -0.1573   -1.9239 H   0  0  0  0  0  0  0  0  0  0  0  0
    1.1856    0.3920    0.3020 H   0  0  0  0  0  0  0  0  0  0  0  0
    3.7318   -0.8303    1.5284 H   0  0  0  0  0  0  0  0  0  0  0  0
    2.0917   -1.5096    1.6142 H   0  0  0  0  0  0  0  0  0  0  0  0
    2.4613    0.0364    2.4228 H   0  0  0  0  0  0  0  0  0  0  0  0
    1.1309    2.6733    0.1008 H   0  0  0  0  0  0  0  0  0  0  0  0
    2.2451    4.8772   -0.0756 H   0  0  0  0  0  0  0  0  0  0  0  0
    4.3969    6.1040   -0.7965 H   0  0  0  0  0  0  0  0  0  0  0  0
    5.9523    5.3149   -0.5285 H   0  0  0  0  0  0  0  0  0  0  0  0
    4.8755    5.4256    2.0094 H   0  0  0  0  0  0  0  0  0  0  0  0
    4.9561    7.1269    3.5869 H   0  0  0  0  0  0  0  0  0  0  0  0
    7.1075    9.0505    2.4141 H   0  0  0  0  0  0  0  0  0  0  0  0
    6.7946    8.6656    4.2075 H   0  0  0  0  0  0  0  0  0  0  0  0
    4.7885    9.8520    2.1494 H   0  0  0  0  0  0  0  0  0  0  0  0
    3.2914   10.9116    3.2839 H   0  0  0  0  0  0  0  0  0  0  0  0
    6.0878    2.9287   -0.0609 H   0  0  0  0  0  0  0  0  0  0  0  0
    4.9805    0.7330    0.1176 H   0  0  0  0  0  0  0  0  0  0  0  0
  1  2  1  0
  1 20  1  0
  1 21  1  0
  1 22  1  0
  2  3  1  0
  2  4  1  0
  2 23  1  1
  3 24  1  0
  3 25  1  0
  3 26  1  0
  4  5  2  0
  4 19  1  0
  5  6  1  0
  5 27  1  0
  6  7  2  0
  6 28  1  0
  7  8  1  0
  7 18  1  0
  8  9  1  0
  8 29  1  0
  8 30  1  0
  9 10  1  0
  9 31  1  0
 10 11  2  0
 10 12  1  0
 12 13  1  0
 12 14  1  0
 12 32  1  1
 13 14  1  0
 13 33  1  0
 13 34  1  0
 14 15  1  0
 14 35  1  6
 15 16  2  0
 15 17  1  0
 17 36  1  0
 18 19  2  0
 18 37  1  0
 19 38  1  0
M  END

