
     RDKit          3D

 49 52  0  0  0  0  0  0  0  0999 V2000
    1.8114    0.6671    0.6029 C   0  0  0  0  0  0  0  0  0  0  0  0
    3.2015    0.2113    0.2893 C   0  0  0  0  0  0  0  0  0  0  0  0
    4.2068    1.0624    0.2319 N   0  0  0  0  0  0  0  0  0  0  0  0
    5.3079    0.3261   -0.0755 N   0  0  0  0  0  0  0  0  0  0  0  0
    6.5406    0.9978   -0.2033 C   0  0  0  0  0  0  0  0  0  0  0  0
    6.5855    2.4018   -0.0643 C   0  0  0  0  0  0  0  0  0  0  0  0
    7.8168    3.0241   -0.1933 C   0  0  0  0  0  0  0  0  0  0  0  0
    8.9592    2.2500   -0.4541 C   0  0  0  0  0  0  0  0  0  0  0  0
   10.3110    2.9009   -0.5641 C   0  0  1  0  0  0  0  0  0  0  0  0
   10.2665    3.9953   -1.3461 F   0  0  0  0  0  0  0  0  0  0  0  0
   10.7659    3.3035    0.6382 F   0  0  0  0  0  0  0  0  0  0  0  0
   11.2302    2.0685   -1.0795 F   0  0  0  0  0  0  0  0  0  0  0  0
    8.7980    0.8697   -0.5772 C   0  0  0  0  0  0  0  0  0  0  0  0
    7.6179    0.2604   -0.4536 N   0  0  0  0  0  0  0  0  0  0  0  0
    5.0062   -1.0215   -0.2173 C   0  0  0  0  0  0  0  0  0  0  0  0
    5.9780   -2.1014   -0.5685 C   0  0  0  0  0  0  0  0  0  0  0  0
    3.6416   -1.1262    0.0145 C   0  0  0  0  0  0  0  0  0  0  0  0
    2.7833   -2.3544   -0.0147 C   0  0  0  0  0  0  0  0  0  0  0  0
    2.4057   -3.0103    1.3281 C   0  0  0  0  0  0  0  0  0  0  0  0
    1.5960   -3.9198    1.3681 O   0  0  0  0  0  0  0  0  0  0  0  0
    3.0325   -2.5168    2.4357 N   0  0  0  0  0  0  0  0  0  0  0  0
    2.7852   -3.0388    3.7631 C   0  0  2  0  0  0  0  0  0  0  0  0
    3.0025   -2.0079    4.9108 C   0  0  0  0  0  0  0  0  0  0  0  0
    3.9323   -2.8038    5.8553 C   0  0  2  0  0  0  0  0  0  0  0  0
    5.3690   -2.8249    5.2869 C   0  0  0  0  0  0  0  0  0  0  0  0
    5.1993   -3.8161    4.0971 C   0  0  0  0  0  0  0  0  0  0  0  0
    3.7113   -4.1996    4.2413 C   0  0  1  0  0  0  0  0  0  0  0  0
    3.4992   -4.1552    5.6529 O   0  0  0  0  0  0  0  0  0  0  0  0
    1.8014    1.7507    0.7824 H   0  0  0  0  0  0  0  0  0  0  0  0
    1.4160    0.1567    1.4963 H   0  0  0  0  0  0  0  0  0  0  0  0
    1.1210    0.4445   -0.2278 H   0  0  0  0  0  0  0  0  0  0  0  0
    5.6686    2.9519    0.1351 H   0  0  0  0  0  0  0  0  0  0  0  0
    7.8952    4.1097   -0.0991 H   0  0  0  0  0  0  0  0  0  0  0  0
    9.6601    0.2298   -0.7879 H   0  0  0  0  0  0  0  0  0  0  0  0
    6.7760   -2.1969    0.1818 H   0  0  0  0  0  0  0  0  0  0  0  0
    6.4810   -1.9022   -1.5255 H   0  0  0  0  0  0  0  0  0  0  0  0
    5.4445   -3.0595   -0.6407 H   0  0  0  0  0  0  0  0  0  0  0  0
    3.2513   -3.1529   -0.6121 H   0  0  0  0  0  0  0  0  0  0  0  0
    1.8217   -2.1486   -0.5117 H   0  0  0  0  0  0  0  0  0  0  0  0
    3.7088   -1.7724    2.3068 H   0  0  0  0  0  0  0  0  0  0  0  0
    1.7565   -3.4228    3.7631 H   0  0  0  0  0  0  0  0  0  0  0  0
    2.0545   -1.7523    5.4050 H   0  0  0  0  0  0  0  0  0  0  0  0
    3.4580   -1.0701    4.5553 H   0  0  0  0  0  0  0  0  0  0  0  0
    3.8518   -2.5429    6.9187 H   0  0  0  0  0  0  0  0  0  0  0  0
    6.0718   -3.2150    6.0374 H   0  0  0  0  0  0  0  0  0  0  0  0
    5.7208   -1.8273    4.9825 H   0  0  0  0  0  0  0  0  0  0  0  0
    5.8368   -4.7038    4.2145 H   0  0  0  0  0  0  0  0  0  0  0  0
    5.4267   -3.3720    3.1168 H   0  0  0  0  0  0  0  0  0  0  0  0
    3.4305   -5.1822    3.8423 H   0  0  0  0  0  0  0  0  0  0  0  0
  1  2  1  0
  1 29  1  0
  1 30  1  0
  1 31  1  0
  2  3  2  0
  2 17  1  0
  3  4  1  0
  4  5  1  0
  4 15  1  0
  5  6  2  0
  5 14  1  0
  6  7  1  0
  6 32  1  0
  7  8  2  0
  7 33  1  0
  8  9  1  0
  8 13  1  0
  9 10  1  6
  9 11  1  0
  9 12  1  0
 13 14  2  0
 13 34  1  0
 15 16  1  0
 15 17  2  0
 16 35  1  0
 16 36  1  0
 16 37  1  0
 17 18  1  0
 18 19  1  0
 18 38  1  0
 18 39  1  0
 19 20  2  0
 19 21  1  0
 21 22  1  0
 21 40  1  0
 22 23  1  0
 22 27  1  0
 22 41  1  6
 23 24  1  0
 23 42  1  0
 23 43  1  0
 24 25  1  0
 24 28  1  0
 24 44  1  1
 25 26  1  0
 25 45  1  0
 25 46  1  0
 26 27  1  0
 26 47  1  0
 26 48  1  0
 27 28  1  0
 27 49  1  6
M  END

