
     RDKit          3D

 31 31  0  0  0  0  0  0  0  0999 V2000
    1.0293    0.2013   -0.1727 N   0  0  0  0  0  0  0  0  0  0  0  0
    2.4092    0.1685   -0.0696 C   0  0  0  0  0  0  0  0  0  0  0  0
    3.1469    1.3657   -0.0086 C   0  0  0  0  0  0  0  0  0  0  0  0
    4.5400    1.2985    0.0431 C   0  0  0  0  0  0  0  0  0  0  0  0
    5.5307    2.9319    0.1267 Br  0  0  0  0  0  0  0  0  0  0  0  0
    5.2336    0.0937    0.0399 C   0  0  0  0  0  0  0  0  0  0  0  0
    4.4890   -1.0992   -0.0189 C   0  0  0  0  0  0  0  0  0  0  0  0
    5.2196   -2.2431   -0.0176 O   0  0  0  0  0  0  0  0  0  0  0  0
    4.5692   -3.4999   -0.0534 C   0  0  0  0  0  0  0  0  0  0  0  0
    5.6458   -4.5758   -0.0912 C   0  0  0  0  0  0  0  0  0  0  0  0
    5.0757   -5.9837   -0.0703 C   0  0  0  0  0  0  0  0  0  0  0  0
    4.2267   -6.1529   -1.1893 O   0  0  0  0  0  0  0  0  0  0  0  0
    3.6237   -7.4050   -1.2718 C   0  0  0  0  0  0  0  0  0  0  0  0
    2.6898   -7.4208   -2.4692 C   0  0  1  0  0  0  0  0  0  0  0  0
    3.3435   -7.2061   -3.6168 F   0  0  0  0  0  0  0  0  0  0  0  0
    2.0926   -8.6238   -2.5520 F   0  0  0  0  0  0  0  0  0  0  0  0
    1.7297   -6.4922   -2.3615 F   0  0  0  0  0  0  0  0  0  0  0  0
    3.0910   -1.0678   -0.0709 C   0  0  0  0  0  0  0  0  0  0  0  0
    0.5650    1.0576    0.1037 H   0  0  0  0  0  0  0  0  0  0  0  0
    0.5237   -0.6393    0.0784 H   0  0  0  0  0  0  0  0  0  0  0  0
    2.6381    2.3307   -0.0080 H   0  0  0  0  0  0  0  0  0  0  0  0
    6.3208    0.0462    0.0811 H   0  0  0  0  0  0  0  0  0  0  0  0
    3.9203   -3.5837   -0.9421 H   0  0  0  0  0  0  0  0  0  0  0  0
    3.9280   -3.6244    0.8417 H   0  0  0  0  0  0  0  0  0  0  0  0
    6.3154   -4.4503    0.7755 H   0  0  0  0  0  0  0  0  0  0  0  0
    6.2592   -4.4383   -0.9964 H   0  0  0  0  0  0  0  0  0  0  0  0
    4.5049   -6.1611    0.8660 H   0  0  0  0  0  0  0  0  0  0  0  0
    5.8970   -6.7280   -0.0941 H   0  0  0  0  0  0  0  0  0  0  0  0
    3.0177   -7.6430   -0.3746 H   0  0  0  0  0  0  0  0  0  0  0  0
    4.3596   -8.2227   -1.4084 H   0  0  0  0  0  0  0  0  0  0  0  0
    2.5108   -1.9888   -0.1261 H   0  0  0  0  0  0  0  0  0  0  0  0
  1  2  1  0
  1 19  1  0
  1 20  1  0
  2  3  2  0
  2 18  1  0
  3  4  1  0
  3 21  1  0
  4  5  1  0
  4  6  2  0
  6  7  1  0
  6 22  1  0
  7  8  1  0
  7 18  2  0
  8  9  1  0
  9 10  1  0
  9 23  1  0
  9 24  1  0
 10 11  1  0
 10 25  1  0
 10 26  1  0
 11 12  1  0
 11 27  1  0
 11 28  1  0
 12 13  1  0
 13 14  1  0
 13 29  1  0
 13 30  1  0
 14 15  1  6
 14 16  1  0
 14 17  1  0
 18 31  1  0
M  END

