
     RDKit          3D

 32 33  0  0  0  0  0  0  0  0999 V2000
    4.6281   -1.5836   -1.7595 C   0  0  0  0  0  0  0  0  0  0  0  0
    4.5753   -2.9796   -1.2242 C   0  0  0  0  0  0  0  0  0  0  0  0
    5.2974   -4.0447   -1.6440 C   0  0  0  0  0  0  0  0  0  0  0  0
    4.9151   -5.5096   -0.7556 S   0  0  0  0  0  0  0  0  0  0  0  0
    3.7015   -4.6340    0.2188 C   0  0  0  0  0  0  0  0  0  0  0  0
    2.9706   -5.1078    1.0744 O   0  0  0  0  0  0  0  0  0  0  0  0
    3.7066   -3.3068   -0.1716 N   0  0  0  0  0  0  0  0  0  0  0  0
    2.8086   -2.3757    0.5075 C   0  0  0  0  0  0  0  0  0  0  0  0
    1.3833   -2.3804   -0.0774 C   0  0  0  0  0  0  0  0  0  0  0  0
    0.9704   -1.4406   -0.7354 O   0  0  0  0  0  0  0  0  0  0  0  0
    0.6859   -3.5209    0.2144 N   0  0  0  0  0  0  0  0  0  0  0  0
   -0.6081   -3.8849   -0.2029 C   0  0  0  0  0  0  0  0  0  0  0  0
   -1.4561   -3.0335   -0.9335 C   0  0  0  0  0  0  0  0  0  0  0  0
   -2.7293   -3.4719   -1.3013 C   0  0  0  0  0  0  0  0  0  0  0  0
   -3.1609   -4.7446   -0.9481 C   0  0  0  0  0  0  0  0  0  0  0  0
   -4.3855   -5.1477   -1.3079 F   0  0  0  0  0  0  0  0  0  0  0  0
   -2.3327   -5.6091   -0.2222 C   0  0  0  0  0  0  0  0  0  0  0  0
   -2.8162   -6.9902    0.1528 C   0  0  1  0  0  0  0  0  0  0  0  0
   -3.9170   -6.9389    0.9207 F   0  0  0  0  0  0  0  0  0  0  0  0
   -3.1210   -7.7206   -0.9320 F   0  0  0  0  0  0  0  0  0  0  0  0
   -1.8812   -7.6692    0.8413 F   0  0  0  0  0  0  0  0  0  0  0  0
   -1.0597   -5.1699    0.1437 C   0  0  0  0  0  0  0  0  0  0  0  0
    5.2858   -1.5469   -2.6382 H   0  0  0  0  0  0  0  0  0  0  0  0
    5.0246   -0.8747   -1.0124 H   0  0  0  0  0  0  0  0  0  0  0  0
    3.6274   -1.2277   -2.0536 H   0  0  0  0  0  0  0  0  0  0  0  0
    6.0357   -4.0495   -2.4427 H   0  0  0  0  0  0  0  0  0  0  0  0
    3.1938   -1.3556    0.4137 H   0  0  0  0  0  0  0  0  0  0  0  0
    2.7839   -2.6559    1.5717 H   0  0  0  0  0  0  0  0  0  0  0  0
    1.2079   -4.2296    0.7368 H   0  0  0  0  0  0  0  0  0  0  0  0
   -1.1085   -2.0402   -1.2075 H   0  0  0  0  0  0  0  0  0  0  0  0
   -3.4028   -2.8265   -1.8683 H   0  0  0  0  0  0  0  0  0  0  0  0
   -0.4091   -5.8432    0.7047 H   0  0  0  0  0  0  0  0  0  0  0  0
  1  2  1  0
  1 23  1  0
  1 24  1  0
  1 25  1  0
  2  3  2  0
  2  7  1  0
  3  4  1  0
  3 26  1  0
  4  5  2  0
  5  6  1  0
  5  7  1  0
  7  8  1  0
  8  9  1  0
  8 27  1  0
  8 28  1  0
  9 10  2  0
  9 11  1  0
 11 12  1  0
 11 29  1  0
 12 13  2  0
 12 22  1  0
 13 14  1  0
 13 30  1  0
 14 15  2  0
 14 31  1  0
 15 16  1  0
 15 17  1  0
 17 18  1  0
 17 22  2  0
 18 19  1  1
 18 20  1  0
 18 21  1  0
 22 32  1  0
M  CHG  2   4   1   6  -1
M  END

