
     RDKit          3D

 38 39  0  0  0  0  0  0  0  0999 V2000
   -0.3896    4.0889    6.2951 C   0  0  0  0  0  0  0  0  0  0  0  0
    0.1004    3.1080    5.4086 O   0  0  0  0  0  0  0  0  0  0  0  0
    1.3851    3.1790    4.9803 C   0  0  0  0  0  0  0  0  0  0  0  0
    2.2979    4.1765    5.3612 C   0  0  0  0  0  0  0  0  0  0  0  0
    3.6013    4.1564    4.8558 C   0  0  0  0  0  0  0  0  0  0  0  0
    4.0279    3.1552    3.9717 C   0  0  0  0  0  0  0  0  0  0  0  0
    5.4514    3.1423    3.4507 C   0  0  0  0  0  0  0  0  0  0  0  0
    6.4368    2.6424    4.4249 N   0  0  0  0  0  0  0  0  0  0  0  0
    6.4767    1.2009    4.6297 C   0  0  0  0  0  0  0  0  0  0  0  0
    7.1286    3.5615    5.1556 C   0  0  0  0  0  0  0  0  0  0  0  0
    7.0104    4.7710    5.0091 O   0  0  0  0  0  0  0  0  0  0  0  0
    8.1470    3.0560    6.1985 C   0  0  0  0  0  0  0  0  0  0  0  0
    9.4118    2.6732    5.5847 N   0  0  0  0  0  0  0  0  0  0  0  0
   10.2942    3.4519    4.9153 C   0  0  0  0  0  0  0  0  0  0  0  0
   11.2924    2.5694    4.5423 C   0  0  0  0  0  0  0  0  0  0  0  0
   12.5512    2.8049    3.7855 C   0  0  0  0  0  0  0  0  0  0  0  0
   12.8849    3.8811    3.3650 O   0  0  0  0  0  0  0  0  0  0  0  0
   13.2829    1.6924    3.6158 O   0  0  0  0  0  0  0  0  0  0  0  0
   10.9575    1.3301    4.9970 N   0  0  0  0  0  0  0  0  0  0  0  0
    9.8283    1.3892    5.6235 N   0  0  0  0  0  0  0  0  0  0  0  0
    3.1013    2.1666    3.5989 C   0  0  0  0  0  0  0  0  0  0  0  0
    1.7992    2.1727    4.0912 C   0  0  0  0  0  0  0  0  0  0  0  0
   -1.4373    3.8305    6.4996 H   0  0  0  0  0  0  0  0  0  0  0  0
   -0.3512    5.1005    5.8523 H   0  0  0  0  0  0  0  0  0  0  0  0
    0.1685    4.0981    7.2489 H   0  0  0  0  0  0  0  0  0  0  0  0
    2.0042    4.9756    6.0422 H   0  0  0  0  0  0  0  0  0  0  0  0
    4.3039    4.9395    5.1526 H   0  0  0  0  0  0  0  0  0  0  0  0
    5.7667    4.1572    3.1784 H   0  0  0  0  0  0  0  0  0  0  0  0
    5.5190    2.5055    2.5544 H   0  0  0  0  0  0  0  0  0  0  0  0
    6.4548    0.6967    3.6505 H   0  0  0  0  0  0  0  0  0  0  0  0
    5.6057    0.8468    5.2090 H   0  0  0  0  0  0  0  0  0  0  0  0
    7.3978    0.8848    5.1320 H   0  0  0  0  0  0  0  0  0  0  0  0
    7.8054    2.1915    6.7796 H   0  0  0  0  0  0  0  0  0  0  0  0
    8.3196    3.9001    6.8782 H   0  0  0  0  0  0  0  0  0  0  0  0
   10.1524    4.5176    4.7578 H   0  0  0  0  0  0  0  0  0  0  0  0
   12.8150    0.9492    4.0417 H   0  0  0  0  0  0  0  0  0  0  0  0
    3.4011    1.3791    2.9006 H   0  0  0  0  0  0  0  0  0  0  0  0
    1.0762    1.4084    3.7993 H   0  0  0  0  0  0  0  0  0  0  0  0
  1  2  1  0
  1 23  1  0
  1 24  1  0
  1 25  1  0
  2  3  1  0
  3  4  2  0
  3 22  1  0
  4  5  1  0
  4 26  1  0
  5  6  2  0
  5 27  1  0
  6  7  1  0
  6 21  1  0
  7  8  1  0
  7 28  1  0
  7 29  1  0
  8  9  1  0
  8 10  1  0
  9 30  1  0
  9 31  1  0
  9 32  1  0
 10 11  2  0
 10 12  1  0
 12 13  1  0
 12 33  1  0
 12 34  1  0
 13 14  1  0
 13 20  1  0
 14 15  2  0
 14 35  1  0
 15 16  1  0
 15 19  1  0
 16 17  2  0
 16 18  1  0
 18 36  1  0
 19 20  2  0
 21 22  2  0
 21 37  1  0
 22 38  1  0
M  END

