
     RDKit          3D

 58 61  0  0  0  0  0  0  0  0999 V2000
   10.2599    4.1796   -4.1502 C   0  0  0  0  0  0  0  0  0  0  0  0
    9.7938    3.5945   -2.9381 O   0  0  0  0  0  0  0  0  0  0  0  0
    8.5156    3.1432   -2.9485 C   0  0  0  0  0  0  0  0  0  0  0  0
    7.7996    3.2249   -3.9233 O   0  0  0  0  0  0  0  0  0  0  0  0
    8.1257    2.5604   -1.6612 C   0  0  0  0  0  0  0  0  0  0  0  0
    8.9110    2.4479   -0.5315 C   0  0  0  0  0  0  0  0  0  0  0  0
    8.2090    1.8279    0.4724 N   0  0  0  0  0  0  0  0  0  0  0  0
    8.6876    1.6088    1.8081 C   0  0  0  0  0  0  0  0  0  0  0  0
    8.3483    2.7448    2.7722 C   0  0  0  0  0  0  0  0  0  0  0  0
    7.8044    3.7774    2.4628 O   0  0  0  0  0  0  0  0  0  0  0  0
    8.7588    2.4368    4.0058 O   0  0  0  0  0  0  0  0  0  0  0  0
    8.4611    3.3551    5.0803 C   0  0  0  0  0  0  0  0  0  0  0  0
    9.5089    4.4747    5.2265 C   0  0  0  0  0  0  0  0  0  0  0  0
   10.2620    4.4882    6.1850 O   0  0  0  0  0  0  0  0  0  0  0  0
    9.4765    5.3997    4.2227 N   0  0  0  0  0  0  0  0  0  0  0  0
   10.3123    6.5220    4.0317 C   0  0  0  0  0  0  0  0  0  0  0  0
   11.3308    6.9007    4.9174 C   0  0  0  0  0  0  0  0  0  0  0  0
   12.1082    8.0315    4.6553 C   0  0  0  0  0  0  0  0  0  0  0  0
   11.9192    8.8196    3.5020 C   0  0  0  0  0  0  0  0  0  0  0  0
   12.7268    9.9328    3.2068 N   0  0  0  0  0  0  0  0  0  0  0  0
   13.8752   10.2137    4.0563 C   0  0  0  0  0  0  0  0  0  0  0  0
   14.8321   11.1746    3.3518 C   0  0  0  0  0  0  0  0  0  0  0  0
   14.1837   12.3587    2.9417 O   0  0  0  0  0  0  0  0  0  0  0  0
   13.1151   12.0726    2.0654 C   0  0  0  0  0  0  0  0  0  0  0  0
   12.0872   11.1551    2.7199 C   0  0  0  0  0  0  0  0  0  0  0  0
   10.8899    8.4206    2.6193 C   0  0  0  0  0  0  0  0  0  0  0  0
   10.1063    7.3036    2.8805 C   0  0  0  0  0  0  0  0  0  0  0  0
    6.9244    1.5436    0.0129 C   0  0  0  0  0  0  0  0  0  0  0  0
    5.8464    0.9330    0.6664 C   0  0  0  0  0  0  0  0  0  0  0  0
    4.6708    0.7605   -0.0616 C   0  0  0  0  0  0  0  0  0  0  0  0
    4.5712    1.1871   -1.4027 C   0  0  0  0  0  0  0  0  0  0  0  0
    5.6429    1.7975   -2.0485 C   0  0  0  0  0  0  0  0  0  0  0  0
    6.8402    1.9835   -1.3350 C   0  0  0  0  0  0  0  0  0  0  0  0
   11.2981    4.4836   -3.9654 H   0  0  0  0  0  0  0  0  0  0  0  0
    9.6514    5.0547   -4.4264 H   0  0  0  0  0  0  0  0  0  0  0  0
   10.2178    3.4570   -4.9799 H   0  0  0  0  0  0  0  0  0  0  0  0
    9.9401    2.7679   -0.3823 H   0  0  0  0  0  0  0  0  0  0  0  0
    9.7829    1.4920    1.8029 H   0  0  0  0  0  0  0  0  0  0  0  0
    8.2828    0.6699    2.2169 H   0  0  0  0  0  0  0  0  0  0  0  0
    8.5025    2.7569    5.9961 H   0  0  0  0  0  0  0  0  0  0  0  0
    7.4513    3.7679    4.9309 H   0  0  0  0  0  0  0  0  0  0  0  0
    8.7717    5.2438    3.5035 H   0  0  0  0  0  0  0  0  0  0  0  0
   11.5013    6.3141    5.8174 H   0  0  0  0  0  0  0  0  0  0  0  0
   12.8710    8.2992    5.3860 H   0  0  0  0  0  0  0  0  0  0  0  0
   14.4134    9.2774    4.2666 H   0  0  0  0  0  0  0  0  0  0  0  0
   13.5692   10.6519    5.0317 H   0  0  0  0  0  0  0  0  0  0  0  0
   15.2826   10.6615    2.4768 H   0  0  0  0  0  0  0  0  0  0  0  0
   15.6428   11.4686    4.0358 H   0  0  0  0  0  0  0  0  0  0  0  0
   13.4953   11.5951    1.1383 H   0  0  0  0  0  0  0  0  0  0  0  0
   12.6498   13.0331    1.7962 H   0  0  0  0  0  0  0  0  0  0  0  0
   11.3080   10.9127    1.9854 H   0  0  0  0  0  0  0  0  0  0  0  0
   11.5965   11.6990    3.5562 H   0  0  0  0  0  0  0  0  0  0  0  0
   10.7118    8.9765    1.6977 H   0  0  0  0  0  0  0  0  0  0  0  0
    9.3251    7.0218    2.1681 H   0  0  0  0  0  0  0  0  0  0  0  0
    5.9106    0.6062    1.7066 H   0  0  0  0  0  0  0  0  0  0  0  0
    3.8096    0.2884    0.4178 H   0  0  0  0  0  0  0  0  0  0  0  0
    3.6322    1.0359   -1.9411 H   0  0  0  0  0  0  0  0  0  0  0  0
    5.5760    2.1327   -3.0842 H   0  0  0  0  0  0  0  0  0  0  0  0
  1  2  1  0
  1 34  1  0
  1 35  1  0
  1 36  1  0
  2  3  1  0
  3  4  2  0
  3  5  1  0
  5  6  2  0
  5 33  1  0
  6  7  1  0
  6 37  1  0
  7  8  1  0
  7 28  1  0
  8  9  1  0
  8 38  1  0
  8 39  1  0
  9 10  2  0
  9 11  1  0
 11 12  1  0
 12 13  1  0
 12 40  1  0
 12 41  1  0
 13 14  2  0
 13 15  1  0
 15 16  1  0
 15 42  1  0
 16 17  2  0
 16 27  1  0
 17 18  1  0
 17 43  1  0
 18 19  2  0
 18 44  1  0
 19 20  1  0
 19 26  1  0
 20 21  1  0
 20 25  1  0
 21 22  1  0
 21 45  1  0
 21 46  1  0
 22 23  1  0
 22 47  1  0
 22 48  1  0
 23 24  1  0
 24 25  1  0
 24 49  1  0
 24 50  1  0
 25 51  1  0
 25 52  1  0
 26 27  2  0
 26 53  1  0
 27 54  1  0
 28 29  1  0
 28 33  2  0
 29 30  2  0
 29 55  1  0
 30 31  1  0
 30 56  1  0
 31 32  2  0
 31 57  1  0
 32 33  1  0
 32 58  1  0
M  END

