
     RDKit          3D

 82 92  0  0  0  0  0  0  0  0999 V2000
    4.2874    5.7995   -1.7827 C   0  0  0  0  0  0  0  0  0  0  0  0
    3.1176    5.0516   -1.9642 C   0  0  0  0  0  0  0  0  0  0  0  0
    3.1534    3.6610   -1.8832 C   0  0  0  0  0  0  0  0  0  0  0  0
    4.3699    3.0041   -1.6187 C   0  0  0  0  0  0  0  0  0  0  0  0
    4.3830    1.5475   -1.5369 C   0  0  0  0  0  0  0  0  0  0  0  0
    3.3824    0.7216   -1.6532 N   0  0  0  0  0  0  0  0  0  0  0  0
    3.8844   -0.5448   -1.4943 N   0  0  0  0  0  0  0  0  0  0  0  0
    5.1638   -0.4255   -1.2900 C   0  0  0  0  0  0  0  0  0  0  0  0
    6.1907   -1.4512   -1.1099 C   0  0  0  0  0  0  0  0  0  0  0  0
    7.5382   -1.0840   -1.2418 C   0  0  0  0  0  0  0  0  0  0  0  0
    8.5870   -2.0121   -1.1592 C   0  0  0  0  0  0  0  0  0  0  0  0
    9.9634   -1.5231   -1.2300 C   0  0  0  0  0  0  0  0  0  0  0  0
   11.0809   -2.1108   -0.9159 N   0  0  0  0  0  0  0  0  0  0  0  0
   12.0853   -1.1983   -1.1144 N   0  0  0  0  0  0  0  0  0  0  0  0
   11.5271   -0.1009   -1.5399 C   0  0  0  0  0  0  0  0  0  0  0  0
   12.1663    1.1599   -1.9006 C   0  0  0  0  0  0  0  0  0  0  0  0
   13.5626    1.2786   -1.7680 C   0  0  0  0  0  0  0  0  0  0  0  0
   14.1941    2.4733   -2.1080 C   0  0  0  0  0  0  0  0  0  0  0  0
   13.4453    3.5572   -2.5822 C   0  0  0  0  0  0  0  0  0  0  0  0
   12.0581    3.4419   -2.7163 C   0  0  0  0  0  0  0  0  0  0  0  0
   11.4169    2.2494   -2.3779 C   0  0  0  0  0  0  0  0  0  0  0  0
   10.1772   -0.2368   -1.6358 O   0  0  0  0  0  0  0  0  0  0  0  0
    8.2655   -3.3806   -0.9709 C   0  0  0  0  0  0  0  0  0  0  0  0
    9.2492   -4.3947   -0.9424 N   0  0  0  0  0  0  0  0  0  0  0  0
   10.0231   -4.8140   -2.0294 C   0  0  0  0  0  0  0  0  0  0  0  0
   10.0111   -4.3642   -3.3534 C   0  0  0  0  0  0  0  0  0  0  0  0
   10.8784   -4.9799   -4.2575 C   0  0  0  0  0  0  0  0  0  0  0  0
   11.7349   -6.0214   -3.8558 C   0  0  0  0  0  0  0  0  0  0  0  0
   11.7345   -6.4718   -2.5358 C   0  0  0  0  0  0  0  0  0  0  0  0
   10.8730   -5.8697   -1.6083 C   0  0  0  0  0  0  0  0  0  0  0  0
   10.5997   -6.0934   -0.2008 C   0  0  0  0  0  0  0  0  0  0  0  0
   11.1130   -6.9770    0.7587 C   0  0  0  0  0  0  0  0  0  0  0  0
   10.6197   -6.9270    2.0624 C   0  0  0  0  0  0  0  0  0  0  0  0
    9.6225   -5.9997    2.4162 C   0  0  0  0  0  0  0  0  0  0  0  0
    9.0955   -5.1072    1.4807 C   0  0  0  0  0  0  0  0  0  0  0  0
    9.5898   -5.1680    0.1735 C   0  0  0  0  0  0  0  0  0  0  0  0
    6.9249   -3.7421   -0.8017 C   0  0  0  0  0  0  0  0  0  0  0  0
    5.8826   -2.8102   -0.8464 C   0  0  0  0  0  0  0  0  0  0  0  0
    4.5610   -3.2610   -0.6311 N   0  0  0  0  0  0  0  0  0  0  0  0
    3.7608   -2.9502    0.4731 C   0  0  0  0  0  0  0  0  0  0  0  0
    4.0567   -2.1624    1.5900 C   0  0  0  0  0  0  0  0  0  0  0  0
    3.0756   -2.0350    2.5747 C   0  0  0  0  0  0  0  0  0  0  0  0
    1.8306   -2.6794    2.4544 C   0  0  0  0  0  0  0  0  0  0  0  0
    1.5459   -3.4720    1.3426 C   0  0  0  0  0  0  0  0  0  0  0  0
    2.5143   -3.6156    0.3394 C   0  0  0  0  0  0  0  0  0  0  0  0
    2.5664   -4.3592   -0.9057 C   0  0  0  0  0  0  0  0  0  0  0  0
    1.6588   -5.1886   -1.5790 C   0  0  0  0  0  0  0  0  0  0  0  0
    2.0330   -5.7607   -2.7948 C   0  0  0  0  0  0  0  0  0  0  0  0
    3.3029   -5.5076   -3.3453 C   0  0  0  0  0  0  0  0  0  0  0  0
    4.2247   -4.6838   -2.6965 C   0  0  0  0  0  0  0  0  0  0  0  0
    3.8454   -4.1194   -1.4740 C   0  0  0  0  0  0  0  0  0  0  0  0
    5.5480    0.8848   -1.3058 O   0  0  0  0  0  0  0  0  0  0  0  0
    5.5429    3.7573   -1.4361 C   0  0  0  0  0  0  0  0  0  0  0  0
    5.4972    5.1497   -1.5186 C   0  0  0  0  0  0  0  0  0  0  0  0
    4.2549    6.8900   -1.8464 H   0  0  0  0  0  0  0  0  0  0  0  0
    2.1712    5.5575   -2.1699 H   0  0  0  0  0  0  0  0  0  0  0  0
    2.2505    3.0636   -2.0212 H   0  0  0  0  0  0  0  0  0  0  0  0
    7.7798   -0.0366   -1.4154 H   0  0  0  0  0  0  0  0  0  0  0  0
   14.1318    0.4241   -1.3977 H   0  0  0  0  0  0  0  0  0  0  0  0
   15.2782    2.5612   -2.0032 H   0  0  0  0  0  0  0  0  0  0  0  0
   13.9445    4.4923   -2.8484 H   0  0  0  0  0  0  0  0  0  0  0  0
   11.4718    4.2856   -3.0883 H   0  0  0  0  0  0  0  0  0  0  0  0
   10.3346    2.1571   -2.4852 H   0  0  0  0  0  0  0  0  0  0  0  0
    9.3467   -3.5597   -3.6752 H   0  0  0  0  0  0  0  0  0  0  0  0
   10.8898   -4.6449   -5.2978 H   0  0  0  0  0  0  0  0  0  0  0  0
   12.4029   -6.4821   -4.5873 H   0  0  0  0  0  0  0  0  0  0  0  0
   12.3956   -7.2858   -2.2281 H   0  0  0  0  0  0  0  0  0  0  0  0
   11.8923   -7.6940    0.4884 H   0  0  0  0  0  0  0  0  0  0  0  0
   11.0120   -7.6110    2.8187 H   0  0  0  0  0  0  0  0  0  0  0  0
    9.2524   -5.9732    3.4443 H   0  0  0  0  0  0  0  0  0  0  0  0
    8.3268   -4.3866    1.7660 H   0  0  0  0  0  0  0  0  0  0  0  0
    6.6830   -4.7914   -0.6277 H   0  0  0  0  0  0  0  0  0  0  0  0
    5.0219   -1.6625    1.6942 H   0  0  0  0  0  0  0  0  0  0  0  0
    3.2815   -1.4227    3.4564 H   0  0  0  0  0  0  0  0  0  0  0  0
    1.0832   -2.5589    3.2420 H   0  0  0  0  0  0  0  0  0  0  0  0
    0.5809   -3.9773    1.2551 H   0  0  0  0  0  0  0  0  0  0  0  0
    0.6693   -5.3817   -1.1572 H   0  0  0  0  0  0  0  0  0  0  0  0
    1.3341   -6.4091   -3.3284 H   0  0  0  0  0  0  0  0  0  0  0  0
    3.5753   -5.9616   -4.3014 H   0  0  0  0  0  0  0  0  0  0  0  0
    5.2051   -4.4875   -3.1346 H   0  0  0  0  0  0  0  0  0  0  0  0
    6.4859    3.2492   -1.2266 H   0  0  0  0  0  0  0  0  0  0  0  0
    6.4110    5.7312   -1.3743 H   0  0  0  0  0  0  0  0  0  0  0  0
  1  2  2  0
  1 54  1  0
  1 55  1  0
  2  3  1  0
  2 56  1  0
  3  4  2  0
  3 57  1  0
  4  5  1  0
  4 53  1  0
  5  6  2  0
  5 52  1  0
  6  7  1  0
  7  8  2  0
  8  9  1  0
  8 52  1  0
  9 10  2  0
  9 38  1  0
 10 11  1  0
 10 58  1  0
 11 12  1  0
 11 23  2  0
 12 13  2  0
 12 22  1  0
 13 14  1  0
 14 15  2  0
 15 16  1  0
 15 22  1  0
 16 17  2  0
 16 21  1  0
 17 18  1  0
 17 59  1  0
 18 19  2  0
 18 60  1  0
 19 20  1  0
 19 61  1  0
 20 21  2  0
 20 62  1  0
 21 63  1  0
 23 24  1  0
 23 37  1  0
 24 25  1  0
 24 36  1  0
 25 26  2  0
 25 30  1  0
 26 27  1  0
 26 64  1  0
 27 28  2  0
 27 65  1  0
 28 29  1  0
 28 66  1  0
 29 30  2  0
 29 67  1  0
 30 31  1  0
 31 32  1  0
 31 36  2  0
 32 33  2  0
 32 68  1  0
 33 34  1  0
 33 69  1  0
 34 35  2  0
 34 70  1  0
 35 36  1  0
 35 71  1  0
 37 38  2  0
 37 72  1  0
 38 39  1  0
 39 40  1  0
 39 51  1  0
 40 41  2  0
 40 45  1  0
 41 42  1  0
 41 73  1  0
 42 43  2  0
 42 74  1  0
 43 44  1  0
 43 75  1  0
 44 45  2  0
 44 76  1  0
 45 46  1  0
 46 47  1  0
 46 51  2  0
 47 48  2  0
 47 77  1  0
 48 49  1  0
 48 78  1  0
 49 50  2  0
 49 79  1  0
 50 51  1  0
 50 80  1  0
 53 54  2  0
 53 81  1  0
 54 82  1  0
M  END

