
     RDKit          3D

 41 43  0  0  0  0  0  0  0  0999 V2000
    2.3952   -0.1410    1.0275 N   0  0  0  0  0  0  0  0  0  0  0  0
    3.4790    0.4844    0.2855 C   0  0  0  0  0  0  0  0  0  0  0  0
    2.9571    1.1154   -0.9671 C   0  0  0  0  0  0  0  0  0  0  0  0
    1.7027    1.5031   -1.3620 C   0  0  0  0  0  0  0  0  0  0  0  0
    1.8479    2.0685   -2.6670 C   0  0  0  0  0  0  0  0  0  0  0  0
    3.1793    1.9883   -2.9773 C   0  0  0  0  0  0  0  0  0  0  0  0
    3.9166    2.4153   -4.1856 C   0  0  0  0  0  0  0  0  0  0  0  0
    3.3379    2.9440   -5.1261 O   0  0  0  0  0  0  0  0  0  0  0  0
    5.2612    2.1646   -4.1597 N   0  0  0  0  0  0  0  0  0  0  0  0
    6.1558    2.5852   -5.2364 C   0  0  1  0  0  0  0  0  0  0  0  0
    7.2410    3.4944   -4.7077 C   0  0  0  0  0  0  0  0  0  0  0  0
    7.3086    4.8646   -4.7870 C   0  0  0  0  0  0  0  0  0  0  0  0
    8.4494    5.4184   -4.1275 C   0  0  0  0  0  0  0  0  0  0  0  0
    9.2395    4.4612   -3.5463 C   0  0  0  0  0  0  0  0  0  0  0  0
    8.6054    2.8709   -3.8067 S   0  0  0  0  0  0  0  0  0  0  0  0
    6.6927    1.3848   -6.0421 C   0  0  1  0  0  0  0  0  0  0  0  0
    5.6014    0.4528   -6.6021 C   0  0  0  0  0  0  0  0  0  0  0  0
    6.3390   -0.3325   -7.6928 C   0  0  0  0  0  0  0  0  0  0  0  0
    7.2183    0.7307   -8.3822 C   0  0  0  0  0  0  0  0  0  0  0  0
    7.5273    1.7913   -7.2878 C   0  0  0  0  0  0  0  0  0  0  0  0
    3.8594    1.4028   -1.9414 O   0  0  0  0  0  0  0  0  0  0  0  0
    2.7123   -0.4311    1.9508 H   0  0  0  0  0  0  0  0  0  0  0  0
    2.0667   -0.9785    0.5463 H   0  0  0  0  0  0  0  0  0  0  0  0
    4.3208   -0.1861    0.0055 H   0  0  0  0  0  0  0  0  0  0  0  0
    3.9257    1.2694    0.9241 H   0  0  0  0  0  0  0  0  0  0  0  0
    0.7978    1.3915   -0.7708 H   0  0  0  0  0  0  0  0  0  0  0  0
    1.0802    2.4878   -3.3125 H   0  0  0  0  0  0  0  0  0  0  0  0
    5.6617    1.7723   -3.3148 H   0  0  0  0  0  0  0  0  0  0  0  0
    5.5234    3.1891   -5.9052 H   0  0  0  0  0  0  0  0  0  0  0  0
    6.5525    5.4599   -5.3024 H   0  0  0  0  0  0  0  0  0  0  0  0
    8.6733    6.4858   -4.0892 H   0  0  0  0  0  0  0  0  0  0  0  0
   10.1652    4.5954   -2.9883 H   0  0  0  0  0  0  0  0  0  0  0  0
    7.3345    0.7825   -5.3705 H   0  0  0  0  0  0  0  0  0  0  0  0
    4.7867    1.0547   -7.0418 H   0  0  0  0  0  0  0  0  0  0  0  0
    5.1485   -0.1876   -5.8301 H   0  0  0  0  0  0  0  0  0  0  0  0
    5.6623   -0.8515   -8.3899 H   0  0  0  0  0  0  0  0  0  0  0  0
    6.9738   -1.1051   -7.2242 H   0  0  0  0  0  0  0  0  0  0  0  0
    6.6611    1.1954   -9.2118 H   0  0  0  0  0  0  0  0  0  0  0  0
    8.1310    0.2988   -8.8213 H   0  0  0  0  0  0  0  0  0  0  0  0
    7.2352    2.7982   -7.6281 H   0  0  0  0  0  0  0  0  0  0  0  0
    8.5994    1.8481   -7.0482 H   0  0  0  0  0  0  0  0  0  0  0  0
  1  2  1  0
  1 22  1  0
  1 23  1  0
  2  3  1  0
  2 24  1  0
  2 25  1  0
  3  4  2  0
  3 21  1  0
  4  5  1  0
  4 26  1  0
  5  6  2  0
  5 27  1  0
  6  7  1  0
  6 21  1  0
  7  8  2  0
  7  9  1  0
  9 10  1  0
  9 28  1  0
 10 11  1  0
 10 16  1  0
 10 29  1  6
 11 12  2  0
 11 15  1  0
 12 13  1  0
 12 30  1  0
 13 14  2  0
 13 31  1  0
 14 15  1  0
 14 32  1  0
 16 17  1  0
 16 20  1  0
 16 33  1  1
 17 18  1  0
 17 34  1  0
 17 35  1  0
 18 19  1  0
 18 36  1  0
 18 37  1  0
 19 20  1  0
 19 38  1  0
 19 39  1  0
 20 40  1  0
 20 41  1  0
M  END

