
     RDKit          3D

 49 52  0  0  0  0  0  0  0  0999 V2000
    6.2920    1.8981    0.3981 C   0  0  0  0  0  0  0  0  0  0  0  0
    5.2383    0.8205    0.3144 C   0  0  0  0  0  0  0  0  0  0  0  0
    3.9114    1.0524    0.6996 C   0  0  0  0  0  0  0  0  0  0  0  0
    2.9469    0.0479    0.5984 C   0  0  0  0  0  0  0  0  0  0  0  0
    3.2543   -1.2296    0.1107 C   0  0  0  0  0  0  0  0  0  0  0  0
    2.1918   -2.2923    0.0001 C   0  0  0  0  0  0  0  0  0  0  0  0
    4.5943   -1.4633   -0.2611 C   0  0  0  0  0  0  0  0  0  0  0  0
    4.9885   -2.7423   -0.7666 N   0  0  0  0  0  0  0  0  0  0  0  0
    4.9701   -3.9543   -0.0240 C   0  0  0  0  0  0  0  0  0  0  0  0
    4.5999   -4.0364    1.1251 O   0  0  0  0  0  0  0  0  0  0  0  0
    5.4695   -5.0258   -0.9102 C   0  0  0  0  0  0  0  0  0  0  0  0
    5.4237   -6.4186   -0.4228 C   0  0  0  0  0  0  0  0  0  0  0  0
    6.0841   -6.7690    0.7723 C   0  0  0  0  0  0  0  0  0  0  0  0
    6.0300   -8.0551    1.3045 C   0  0  0  0  0  0  0  0  0  0  0  0
    5.2880   -9.0358    0.6401 C   0  0  0  0  0  0  0  0  0  0  0  0
    5.2137  -10.6576    1.2821 Cl  0  0  0  0  0  0  0  0  0  0  0  0
    4.5937   -8.7312   -0.5316 C   0  0  0  0  0  0  0  0  0  0  0  0
    4.6587   -7.4313   -1.0399 C   0  0  0  0  0  0  0  0  0  0  0  0
    3.7186   -7.0791   -2.4770 Cl  0  0  0  0  0  0  0  0  0  0  0  0
    5.8414   -4.4587   -2.1128 C   0  0  0  0  0  0  0  0  0  0  0  0
    6.4531   -4.9881   -3.1995 N   0  0  0  0  0  0  0  0  0  0  0  0
    7.2083   -6.2438   -3.1373 C   0  0  0  0  0  0  0  0  0  0  0  0
    6.9541   -7.0996   -4.3782 C   0  0  0  0  0  0  0  0  0  0  0  0
    7.2174   -6.3784   -5.5625 O   0  0  0  0  0  0  0  0  0  0  0  0
    6.4198   -5.2163   -5.6407 C   0  0  0  0  0  0  0  0  0  0  0  0
    6.6699   -4.2730   -4.4653 C   0  0  0  0  0  0  0  0  0  0  0  0
    5.5266   -2.9577   -2.0236 C   0  0  0  0  0  0  0  0  0  0  0  0
    5.7208   -2.1064   -2.8624 O   0  0  0  0  0  0  0  0  0  0  0  0
    5.5602   -0.4576   -0.1609 C   0  0  0  0  0  0  0  0  0  0  0  0
    5.9056    2.8021    0.8915 H   0  0  0  0  0  0  0  0  0  0  0  0
    6.6458    2.1898   -0.6055 H   0  0  0  0  0  0  0  0  0  0  0  0
    7.1745    1.5560    0.9634 H   0  0  0  0  0  0  0  0  0  0  0  0
    3.6243    2.0365    1.0809 H   0  0  0  0  0  0  0  0  0  0  0  0
    1.9177    0.2620    0.8996 H   0  0  0  0  0  0  0  0  0  0  0  0
    1.1870   -1.8492    0.0551 H   0  0  0  0  0  0  0  0  0  0  0  0
    2.2909   -3.0306    0.8118 H   0  0  0  0  0  0  0  0  0  0  0  0
    2.2699   -2.8474   -0.9482 H   0  0  0  0  0  0  0  0  0  0  0  0
    6.6568   -5.9999    1.2928 H   0  0  0  0  0  0  0  0  0  0  0  0
    6.5571   -8.3008    2.2273 H   0  0  0  0  0  0  0  0  0  0  0  0
    3.9963   -9.4891   -1.0375 H   0  0  0  0  0  0  0  0  0  0  0  0
    6.9528   -6.8016   -2.2310 H   0  0  0  0  0  0  0  0  0  0  0  0
    8.2862   -5.9946   -3.0889 H   0  0  0  0  0  0  0  0  0  0  0  0
    5.9074   -7.4604   -4.3659 H   0  0  0  0  0  0  0  0  0  0  0  0
    7.6246   -7.9723   -4.3715 H   0  0  0  0  0  0  0  0  0  0  0  0
    5.3442   -5.4865   -5.6727 H   0  0  0  0  0  0  0  0  0  0  0  0
    6.6768   -4.7081   -6.5824 H   0  0  0  0  0  0  0  0  0  0  0  0
    6.0160   -3.3991   -4.5211 H   0  0  0  0  0  0  0  0  0  0  0  0
    7.7149   -3.9110   -4.5062 H   0  0  0  0  0  0  0  0  0  0  0  0
    6.5849   -0.6815   -0.4660 H   0  0  0  0  0  0  0  0  0  0  0  0
  1  2  1  0
  1 30  1  0
  1 31  1  0
  1 32  1  0
  2  3  2  0
  2 29  1  0
  3  4  1  0
  3 33  1  0
  4  5  2  0
  4 34  1  0
  5  6  1  0
  5  7  1  0
  6 35  1  0
  6 36  1  0
  6 37  1  0
  7  8  1  0
  7 29  2  0
  8  9  1  0
  8 27  1  0
  9 10  2  0
  9 11  1  0
 11 12  1  0
 11 20  2  0
 12 13  2  0
 12 18  1  0
 13 14  1  0
 13 38  1  0
 14 15  2  0
 14 39  1  0
 15 16  1  0
 15 17  1  0
 17 18  2  0
 17 40  1  0
 18 19  1  0
 20 21  1  0
 20 27  1  0
 21 22  1  0
 21 26  1  0
 22 23  1  0
 22 41  1  0
 22 42  1  0
 23 24  1  0
 23 43  1  0
 23 44  1  0
 24 25  1  0
 25 26  1  0
 25 45  1  0
 25 46  1  0
 26 47  1  0
 26 48  1  0
 27 28  2  0
 29 49  1  0
M  END

