
     RDKit          3D

 45 46  0  0  0  0  0  0  0  0999 V2000
    1.5828    0.2480   -1.7154 C   0  0  0  0  0  0  0  0  0  0  0  0
    2.7041    0.0009   -0.7085 C   0  0  1  0  0  0  0  0  0  0  0  0
    2.6576    0.9305    0.5069 C   0  0  0  0  0  0  0  0  0  0  0  0
    2.8039   -1.4162   -0.2872 N   0  0  0  0  0  0  0  0  0  0  0  0
    4.0399   -1.8673    0.0127 N   0  0  0  0  0  0  0  0  0  0  0  0
    3.9361   -3.1139    0.3062 N   0  0  0  0  0  0  0  0  0  0  0  0
    2.6605   -3.5229    0.2144 N   0  0  0  0  0  0  0  0  0  0  0  0
    1.9456   -2.4653   -0.1487 C   0  0  0  0  0  0  0  0  0  0  0  0
    0.4960   -2.5579   -0.3964 C   0  0  0  0  0  0  0  0  0  0  0  0
   -0.0010   -3.6164   -1.1788 C   0  0  0  0  0  0  0  0  0  0  0  0
   -1.3622   -3.8166   -1.3921 C   0  0  0  0  0  0  0  0  0  0  0  0
   -2.2936   -2.9445   -0.7979 C   0  0  0  0  0  0  0  0  0  0  0  0
   -3.6854   -3.0592   -0.9485 N   0  0  0  0  0  0  0  0  0  0  0  0
   -4.3982   -3.9475   -1.7318 C   0  0  0  0  0  0  0  0  0  0  0  0
   -3.8737   -4.8554   -2.3762 O   0  0  0  0  0  0  0  0  0  0  0  0
   -5.7509   -3.7449   -1.7391 N   0  0  0  0  0  0  0  0  0  0  0  0
   -6.6692   -4.7157   -2.3218 C   0  0  0  0  0  0  0  0  0  0  0  0
   -6.7240   -4.7493   -3.8673 C   0  0  1  0  0  0  0  0  0  0  0  0
   -6.9505   -3.3600   -4.4728 C   0  0  0  0  0  0  0  0  0  0  0  0
   -5.5662   -5.3551   -4.4261 O   0  0  0  0  0  0  0  0  0  0  0  0
   -7.9310   -5.6556   -4.2364 C   0  0  0  0  0  0  0  0  0  0  0  0
   -9.0577   -5.4067   -3.8889 O   0  0  0  0  0  0  0  0  0  0  0  0
   -7.5922   -6.7182   -4.9592 O   0  0  0  0  0  0  0  0  0  0  0  0
   -1.8232   -1.8928    0.0084 C   0  0  0  0  0  0  0  0  0  0  0  0
   -0.4590   -1.7275    0.1988 C   0  0  0  0  0  0  0  0  0  0  0  0
   -0.0567   -0.7228    0.9972 F   0  0  0  0  0  0  0  0  0  0  0  0
    1.7184    1.2506   -2.1486 H   0  0  0  0  0  0  0  0  0  0  0  0
    0.5892    0.2232   -1.2490 H   0  0  0  0  0  0  0  0  0  0  0  0
    1.6073   -0.4812   -2.5389 H   0  0  0  0  0  0  0  0  0  0  0  0
    3.6640    0.1607   -1.2216 H   0  0  0  0  0  0  0  0  0  0  0  0
    1.7253    0.8024    1.0734 H   0  0  0  0  0  0  0  0  0  0  0  0
    2.7223    1.9775    0.1720 H   0  0  0  0  0  0  0  0  0  0  0  0
    3.5090    0.7300    1.1735 H   0  0  0  0  0  0  0  0  0  0  0  0
    0.7178   -4.3064   -1.6241 H   0  0  0  0  0  0  0  0  0  0  0  0
   -1.7130   -4.6428   -2.0040 H   0  0  0  0  0  0  0  0  0  0  0  0
   -4.2249   -2.3987   -0.4018 H   0  0  0  0  0  0  0  0  0  0  0  0
   -6.1480   -2.9460   -1.2612 H   0  0  0  0  0  0  0  0  0  0  0  0
   -7.6788   -4.4858   -1.9568 H   0  0  0  0  0  0  0  0  0  0  0  0
   -6.4052   -5.7255   -1.9650 H   0  0  0  0  0  0  0  0  0  0  0  0
   -6.1381   -2.6784   -4.1787 H   0  0  0  0  0  0  0  0  0  0  0  0
   -7.9152   -2.9445   -4.1466 H   0  0  0  0  0  0  0  0  0  0  0  0
   -6.9533   -3.4343   -5.5701 H   0  0  0  0  0  0  0  0  0  0  0  0
   -4.8248   -5.2994   -3.7812 H   0  0  0  0  0  0  0  0  0  0  0  0
   -6.6133   -6.6592   -5.0536 H   0  0  0  0  0  0  0  0  0  0  0  0
   -2.5039   -1.1987    0.5066 H   0  0  0  0  0  0  0  0  0  0  0  0
  1  2  1  0
  1 27  1  0
  1 28  1  0
  1 29  1  0
  2  3  1  0
  2  4  1  0
  2 30  1  6
  3 31  1  0
  3 32  1  0
  3 33  1  0
  4  5  1  0
  4  8  1  0
  5  6  2  0
  6  7  1  0
  7  8  2  0
  8  9  1  0
  9 10  2  0
  9 25  1  0
 10 11  1  0
 10 34  1  0
 11 12  2  0
 11 35  1  0
 12 13  1  0
 12 24  1  0
 13 14  1  0
 13 36  1  0
 14 15  2  0
 14 16  1  0
 16 17  1  0
 16 37  1  0
 17 18  1  0
 17 38  1  0
 17 39  1  0
 18 19  1  0
 18 20  1  6
 18 21  1  0
 19 40  1  0
 19 41  1  0
 19 42  1  0
 20 43  1  0
 21 22  2  0
 21 23  1  0
 23 44  1  0
 24 25  2  0
 24 45  1  0
 25 26  1  0
M  END

