
     RDKit          3D

 44 45  0  0  0  0  0  0  0  0999 V2000
    2.9834    1.3822   -2.2130 C   0  0  0  0  0  0  0  0  0  0  0  0
    4.1564    1.0192   -3.1245 C   0  0  0  0  0  0  0  0  0  0  0  0
    5.4832    0.8059   -2.3818 C   0  0  0  0  0  0  0  0  0  0  0  0
    5.4422   -0.2834   -1.4034 N   0  0  0  0  0  0  0  0  0  0  0  0
    5.4878    0.0515   -0.0503 C   0  0  0  0  0  0  0  0  0  0  0  0
    5.8721    1.1870    0.2795 O   0  0  0  0  0  0  0  0  0  0  0  0
    5.0780   -0.8884    0.9845 C   0  0  0  0  0  0  0  0  0  0  0  0
    4.1801   -2.4194    0.8253 S   0  0  0  0  0  0  0  0  0  0  0  0
    4.0007   -2.4622    2.5792 C   0  0  0  0  0  0  0  0  0  0  0  0
    3.3524   -3.4782    3.2055 N   0  0  0  0  0  0  0  0  0  0  0  0
    2.7144   -4.5586    2.4634 C   0  0  0  0  0  0  0  0  0  0  0  0
    3.6223   -5.7663    2.2167 C   0  0  0  0  0  0  0  0  0  0  0  0
    3.2783   -3.4808    4.6683 C   0  0  0  0  0  0  0  0  0  0  0  0
    2.0822   -2.7036    5.2188 C   0  0  0  0  0  0  0  0  0  0  0  0
    4.5544   -1.4601    3.2194 N   0  0  0  0  0  0  0  0  0  0  0  0
    5.1360   -0.5735    2.3574 C   0  0  0  0  0  0  0  0  0  0  0  0
    5.7204    0.5342    2.8643 N   0  0  0  0  0  0  0  0  0  0  0  0
    5.2967   -1.6203   -1.9057 C   0  0  1  0  0  0  0  0  0  0  0  0
    6.2958   -2.1181   -2.9305 C   0  0  0  0  0  0  0  0  0  0  0  0
    6.3093   -2.6817   -1.5413 C   0  0  0  0  0  0  0  0  0  0  0  0
    2.0614    1.5477   -2.7932 H   0  0  0  0  0  0  0  0  0  0  0  0
    3.1927    2.2997   -1.6392 H   0  0  0  0  0  0  0  0  0  0  0  0
    2.7791    0.5815   -1.4840 H   0  0  0  0  0  0  0  0  0  0  0  0
    4.3183    1.8227   -3.8651 H   0  0  0  0  0  0  0  0  0  0  0  0
    3.9093    0.1172   -3.7130 H   0  0  0  0  0  0  0  0  0  0  0  0
    5.7630    1.7106   -1.8276 H   0  0  0  0  0  0  0  0  0  0  0  0
    6.2831    0.6103   -3.1157 H   0  0  0  0  0  0  0  0  0  0  0  0
    2.3458   -4.1563    1.5049 H   0  0  0  0  0  0  0  0  0  0  0  0
    1.8168   -4.8672    3.0246 H   0  0  0  0  0  0  0  0  0  0  0  0
    4.5059   -5.4778    1.6276 H   0  0  0  0  0  0  0  0  0  0  0  0
    3.0791   -6.5481    1.6618 H   0  0  0  0  0  0  0  0  0  0  0  0
    3.9708   -6.2049    3.1654 H   0  0  0  0  0  0  0  0  0  0  0  0
    4.2120   -3.0478    5.0537 H   0  0  0  0  0  0  0  0  0  0  0  0
    3.2408   -4.5326    4.9964 H   0  0  0  0  0  0  0  0  0  0  0  0
    2.1514   -1.6439    4.9314 H   0  0  0  0  0  0  0  0  0  0  0  0
    2.0622   -2.7610    6.3192 H   0  0  0  0  0  0  0  0  0  0  0  0
    1.1272   -3.1054    4.8425 H   0  0  0  0  0  0  0  0  0  0  0  0
    5.5544    0.7494    3.8378 H   0  0  0  0  0  0  0  0  0  0  0  0
    5.9629    1.2483    2.1772 H   0  0  0  0  0  0  0  0  0  0  0  0
    4.2657   -1.9700   -2.0578 H   0  0  0  0  0  0  0  0  0  0  0  0
    7.1106   -1.4464   -3.2114 H   0  0  0  0  0  0  0  0  0  0  0  0
    5.9146   -2.7341   -3.7498 H   0  0  0  0  0  0  0  0  0  0  0  0
    7.1211   -2.3786   -0.8757 H   0  0  0  0  0  0  0  0  0  0  0  0
    5.9430   -3.6975   -1.3740 H   0  0  0  0  0  0  0  0  0  0  0  0
  1  2  1  0
  1 21  1  0
  1 22  1  0
  1 23  1  0
  2  3  1  0
  2 24  1  0
  2 25  1  0
  3  4  1  0
  3 26  1  0
  3 27  1  0
  4  5  1  0
  4 18  1  0
  5  6  2  0
  5  7  1  0
  7  8  1  0
  7 16  2  0
  8  9  1  0
  9 10  1  0
  9 15  2  0
 10 11  1  0
 10 13  1  0
 11 12  1  0
 11 28  1  0
 11 29  1  0
 12 30  1  0
 12 31  1  0
 12 32  1  0
 13 14  1  0
 13 33  1  0
 13 34  1  0
 14 35  1  0
 14 36  1  0
 14 37  1  0
 15 16  1  0
 16 17  1  0
 17 38  1  0
 17 39  1  0
 18 19  1  0
 18 20  1  0
 18 40  1  6
 19 20  1  0
 19 41  1  0
 19 42  1  0
 20 43  1  0
 20 44  1  0
M  END

