
     RDKit          3D

 74 73  0  0  0  0  0  0  0  0999 V2000
    0.6034   -0.2736    0.1757 C   0  0  0  0  0  0  0  0  0  0  0  0
    2.1207   -0.2982   -0.0514 C   0  0  1  0  0  0  0  0  0  0  0  0
    2.4477   -0.7916   -1.4675 C   0  0  0  0  0  0  0  0  0  0  0  0
    2.7381    1.0792    0.2568 C   0  0  0  0  0  0  0  0  0  0  0  0
    4.2692    1.1395    0.2513 C   0  0  0  0  0  0  0  0  0  0  0  0
    4.8276    2.5070    0.6585 C   0  0  0  0  0  0  0  0  0  0  0  0
    6.3574    2.5804    0.6529 C   0  0  0  0  0  0  0  0  0  0  0  0
    6.9151    3.9453    1.0675 C   0  0  0  0  0  0  0  0  0  0  0  0
    8.4448    4.0198    1.0625 C   0  0  0  0  0  0  0  0  0  0  0  0
    9.0015    5.3835    1.4824 C   0  0  0  0  0  0  0  0  0  0  0  0
   10.5312    5.4590    1.4779 C   0  0  0  0  0  0  0  0  0  0  0  0
   11.0871    6.8216    1.9025 C   0  0  0  0  0  0  0  0  0  0  0  0
   12.6168    6.8978    1.8986 C   0  0  0  0  0  0  0  0  0  0  0  0
   13.1718    8.2595    2.3269 C   0  0  0  0  0  0  0  0  0  0  0  0
   14.7015    8.3363    2.3234 C   0  0  0  0  0  0  0  0  0  0  0  0
   15.2559    9.6973    2.7546 C   0  0  0  0  0  0  0  0  0  0  0  0
   16.7855    9.7741    2.7518 C   0  0  0  0  0  0  0  0  0  0  0  0
   17.3388   11.1353    3.1841 C   0  0  0  0  0  0  0  0  0  0  0  0
   18.8678   11.2064    3.1866 C   0  0  0  0  0  0  0  0  0  0  0  0
   19.4196   12.5673    3.6087 C   0  0  0  0  0  0  0  0  0  0  0  0
   20.8725   12.5703    3.6476 N   0  0  0  0  0  0  0  0  0  0  0  0
   21.4723   13.8386    4.0324 C   0  0  0  0  0  0  0  0  0  0  0  0
   22.9964   13.7480    4.1187 C   0  0  0  0  0  0  0  0  0  0  0  0
   23.5041   12.7660    5.1759 C   0  0  0  0  0  0  0  0  0  0  0  0
   24.9153   12.7447    5.2715 O   0  0  0  0  0  0  0  0  0  0  0  0
    0.1535   -1.2646    0.0011 H   0  0  0  0  0  0  0  0  0  0  0  0
    0.1132    0.4387   -0.5106 H   0  0  0  0  0  0  0  0  0  0  0  0
    0.3534    0.0323    1.2047 H   0  0  0  0  0  0  0  0  0  0  0  0
    2.5547   -1.0222    0.6653 H   0  0  0  0  0  0  0  0  0  0  0  0
    2.0589   -0.0911   -2.2274 H   0  0  0  0  0  0  0  0  0  0  0  0
    1.9898   -1.7756   -1.6597 H   0  0  0  0  0  0  0  0  0  0  0  0
    3.5311   -0.8959   -1.6331 H   0  0  0  0  0  0  0  0  0  0  0  0
    2.3781    1.4079    1.2490 H   0  0  0  0  0  0  0  0  0  0  0  0
    2.3396    1.8189   -0.4641 H   0  0  0  0  0  0  0  0  0  0  0  0
    4.6553    0.8806   -0.7504 H   0  0  0  0  0  0  0  0  0  0  0  0
    4.6664    0.3663    0.9356 H   0  0  0  0  0  0  0  0  0  0  0  0
    4.4540    2.7685    1.6661 H   0  0  0  0  0  0  0  0  0  0  0  0
    4.4231    3.2821   -0.0190 H   0  0  0  0  0  0  0  0  0  0  0  0
    6.7314    2.3248   -0.3561 H   0  0  0  0  0  0  0  0  0  0  0  0
    6.7621    1.8017    1.3263 H   0  0  0  0  0  0  0  0  0  0  0  0
    6.5413    4.2001    2.0768 H   0  0  0  0  0  0  0  0  0  0  0  0
    6.5099    4.7243    0.3949 H   0  0  0  0  0  0  0  0  0  0  0  0
    8.8189    3.7684    0.0524 H   0  0  0  0  0  0  0  0  0  0  0  0
    8.8500    3.2388    1.7327 H   0  0  0  0  0  0  0  0  0  0  0  0
    8.6273    5.6342    2.4926 H   0  0  0  0  0  0  0  0  0  0  0  0
    8.5960    6.1648    0.8127 H   0  0  0  0  0  0  0  0  0  0  0  0
   10.9057    5.2112    0.4671 H   0  0  0  0  0  0  0  0  0  0  0  0
   10.9368    4.6759    2.1456 H   0  0  0  0  0  0  0  0  0  0  0  0
   10.7125    7.0688    2.9134 H   0  0  0  0  0  0  0  0  0  0  0  0
   10.6813    7.6049    1.2352 H   0  0  0  0  0  0  0  0  0  0  0  0
   12.9915    6.6530    0.8871 H   0  0  0  0  0  0  0  0  0  0  0  0
   13.0225    6.1131    2.5642 H   0  0  0  0  0  0  0  0  0  0  0  0
   12.7971    8.5038    3.3385 H   0  0  0  0  0  0  0  0  0  0  0  0
   12.7659    9.0444    1.6617 H   0  0  0  0  0  0  0  0  0  0  0  0
   15.0765    8.0937    1.3115 H   0  0  0  0  0  0  0  0  0  0  0  0
   15.1075    7.5505    2.9875 H   0  0  0  0  0  0  0  0  0  0  0  0
   14.8808    9.9395    3.7665 H   0  0  0  0  0  0  0  0  0  0  0  0
   14.8500   10.4834    2.0907 H   0  0  0  0  0  0  0  0  0  0  0  0
   17.1610    9.5327    1.7398 H   0  0  0  0  0  0  0  0  0  0  0  0
   17.1919    8.9886    3.4156 H   0  0  0  0  0  0  0  0  0  0  0  0
   16.9611   11.3767    4.1951 H   0  0  0  0  0  0  0  0  0  0  0  0
   16.9344   11.9206    2.5186 H   0  0  0  0  0  0  0  0  0  0  0  0
   19.2450   10.9615    2.1751 H   0  0  0  0  0  0  0  0  0  0  0  0
   19.2840   10.4374    3.8604 H   0  0  0  0  0  0  0  0  0  0  0  0
   19.0498   12.8131    4.6213 H   0  0  0  0  0  0  0  0  0  0  0  0
   19.0046   13.3577    2.9386 H   0  0  0  0  0  0  0  0  0  0  0  0
   21.2396   12.2810    2.7399 H   0  0  0  0  0  0  0  0  0  0  0  0
   21.0685   14.1179    5.0233 H   0  0  0  0  0  0  0  0  0  0  0  0
   21.1925   14.6740    3.3496 H   0  0  0  0  0  0  0  0  0  0  0  0
   23.4139   14.7461    4.3334 H   0  0  0  0  0  0  0  0  0  0  0  0
   23.4008   13.4550    3.1290 H   0  0  0  0  0  0  0  0  0  0  0  0
   23.0826   11.7621    4.9816 H   0  0  0  0  0  0  0  0  0  0  0  0
   23.1348   13.0748    6.1687 H   0  0  0  0  0  0  0  0  0  0  0  0
   25.2643   12.3901    4.4436 H   0  0  0  0  0  0  0  0  0  0  0  0
  1  2  1  0
  1 26  1  0
  1 27  1  0
  1 28  1  0
  2  3  1  0
  2  4  1  0
  2 29  1  1
  3 30  1  0
  3 31  1  0
  3 32  1  0
  4  5  1  0
  4 33  1  0
  4 34  1  0
  5  6  1  0
  5 35  1  0
  5 36  1  0
  6  7  1  0
  6 37  1  0
  6 38  1  0
  7  8  1  0
  7 39  1  0
  7 40  1  0
  8  9  1  0
  8 41  1  0
  8 42  1  0
  9 10  1  0
  9 43  1  0
  9 44  1  0
 10 11  1  0
 10 45  1  0
 10 46  1  0
 11 12  1  0
 11 47  1  0
 11 48  1  0
 12 13  1  0
 12 49  1  0
 12 50  1  0
 13 14  1  0
 13 51  1  0
 13 52  1  0
 14 15  1  0
 14 53  1  0
 14 54  1  0
 15 16  1  0
 15 55  1  0
 15 56  1  0
 16 17  1  0
 16 57  1  0
 16 58  1  0
 17 18  1  0
 17 59  1  0
 17 60  1  0
 18 19  1  0
 18 61  1  0
 18 62  1  0
 19 20  1  0
 19 63  1  0
 19 64  1  0
 20 21  1  0
 20 65  1  0
 20 66  1  0
 21 22  1  0
 21 67  1  0
 22 23  1  0
 22 68  1  0
 22 69  1  0
 23 24  1  0
 23 70  1  0
 23 71  1  0
 24 25  1  0
 24 72  1  0
 24 73  1  0
 25 74  1  0
M  END

