
     RDKit          3D

 27 28  0  0  0  0  0  0  0  0999 V2000
    1.0220   -0.2033    0.2490 C   0  0  0  0  0  0  0  0  0  0  0  0
    2.5118   -0.1486    0.0168 C   0  0  0  0  0  0  0  0  0  0  0  0
    3.2206    1.0530    0.1675 C   0  0  0  0  0  0  0  0  0  0  0  0
    4.6017    1.0866   -0.0200 C   0  0  0  0  0  0  0  0  0  0  0  0
    5.3070   -0.0747   -0.3683 C   0  0  0  0  0  0  0  0  0  0  0  0
    7.0947    0.0239   -0.5054 S   0  0  0  0  0  0  0  0  0  0  0  0
    7.3630    0.1847   -2.2602 C   0  0  0  0  0  0  0  0  0  0  0  0
    6.3418    0.3179   -3.2261 C   0  0  0  0  0  0  0  0  0  0  0  0
    6.7373    0.4472   -4.5430 C   0  0  0  0  0  0  0  0  0  0  0  0
    8.1214    0.4398   -4.7927 C   0  0  0  0  0  0  0  0  0  0  0  0
    8.6981    0.5990   -6.4309 Cl  0  0  0  0  0  0  0  0  0  0  0  0
    9.0333    0.3183   -3.8467 N   0  0  0  0  0  0  0  0  0  0  0  0
    8.6574    0.1877   -2.5822 N   0  0  0  0  0  0  0  0  0  0  0  0
    4.6229   -1.3028   -0.5178 C   0  0  0  0  0  0  0  0  0  0  0  0
    5.3389   -2.5805   -0.8774 C   0  0  0  0  0  0  0  0  0  0  0  0
    3.2325   -1.3021   -0.3263 C   0  0  0  0  0  0  0  0  0  0  0  0
    0.5204    0.6982   -0.1358 H   0  0  0  0  0  0  0  0  0  0  0  0
    0.7944   -0.2638    1.3277 H   0  0  0  0  0  0  0  0  0  0  0  0
    0.5671   -1.0818   -0.2322 H   0  0  0  0  0  0  0  0  0  0  0  0
    2.6890    1.9704    0.4355 H   0  0  0  0  0  0  0  0  0  0  0  0
    5.1511    2.0229    0.1016 H   0  0  0  0  0  0  0  0  0  0  0  0
    5.2886    0.3223   -2.9421 H   0  0  0  0  0  0  0  0  0  0  0  0
    6.0215    0.5550   -5.3595 H   0  0  0  0  0  0  0  0  0  0  0  0
    5.7768   -2.5286   -1.8882 H   0  0  0  0  0  0  0  0  0  0  0  0
    4.6513   -3.4380   -0.8519 H   0  0  0  0  0  0  0  0  0  0  0  0
    6.1741   -2.7787   -0.1882 H   0  0  0  0  0  0  0  0  0  0  0  0
    2.6917   -2.2461   -0.4440 H   0  0  0  0  0  0  0  0  0  0  0  0
  1  2  1  0
  1 17  1  0
  1 18  1  0
  1 19  1  0
  2  3  2  0
  2 16  1  0
  3  4  1  0
  3 20  1  0
  4  5  2  0
  4 21  1  0
  5  6  1  0
  5 14  1  0
  6  7  1  0
  7  8  2  0
  7 13  1  0
  8  9  1  0
  8 22  1  0
  9 10  2  0
  9 23  1  0
 10 11  1  0
 10 12  1  0
 12 13  2  0
 14 15  1  0
 14 16  2  0
 15 24  1  0
 15 25  1  0
 15 26  1  0
 16 27  1  0
M  END

