
     RDKit          3D

 55 58  0  0  0  0  0  0  0  0999 V2000
    4.1668    0.7553    0.1132 C   0  0  0  0  0  0  0  0  0  0  0  0
    3.1368   -0.1945    0.2584 O   0  0  0  0  0  0  0  0  0  0  0  0
    3.2633   -1.2105    1.1469 C   0  0  0  0  0  0  0  0  0  0  0  0
    4.2675   -1.3004    2.1190 C   0  0  0  0  0  0  0  0  0  0  0  0
    4.2872   -2.3722    3.0210 C   0  0  0  0  0  0  0  0  0  0  0  0
    3.3068   -3.3612    2.9570 C   0  0  0  0  0  0  0  0  0  0  0  0
    2.3123   -3.2862    1.9748 C   0  0  0  0  0  0  0  0  0  0  0  0
    2.2793   -2.2285    1.0643 C   0  0  0  0  0  0  0  0  0  0  0  0
    1.2557   -2.1807    0.1621 O   0  0  0  0  0  0  0  0  0  0  0  0
    1.5225   -1.9953   -1.2334 C   0  0  1  0  0  0  0  0  0  0  0  0
    0.7477   -3.0675   -2.0331 C   0  0  0  0  0  0  0  0  0  0  0  0
    0.1950   -2.3366   -3.2615 C   0  0  0  0  0  0  0  0  0  0  0  0
   -0.1732   -0.9567   -2.6986 C   0  0  2  0  0  0  0  0  0  0  0  0
   -0.3338    0.0629   -3.7302 N   0  0  0  0  0  0  0  0  0  0  0  0
   -1.0445    1.2632   -3.3015 C   0  0  0  0  0  0  0  0  0  0  0  0
   -1.0538    2.3658   -4.3830 C   0  0  2  0  0  0  0  0  0  0  0  0
    0.3442    2.7595   -4.8935 C   0  0  0  0  0  0  0  0  0  0  0  0
    1.1997    3.4428   -3.8142 C   0  0  0  0  0  0  0  0  0  0  0  0
    0.4007    4.5290   -3.1570 C   0  0  0  0  0  0  0  0  0  0  0  0
    1.0808    5.8646   -2.2884 S   0  0  0  0  0  0  0  0  0  0  0  0
   -0.5052    6.5377   -1.9261 C   0  0  0  0  0  0  0  0  0  0  0  0
   -0.6356    7.8029   -1.1340 C   0  0  0  0  0  0  0  0  0  0  0  0
   -1.4869    5.7517   -2.4618 C   0  0  0  0  0  0  0  0  0  0  0  0
   -0.9808    4.6042   -3.1612 C   0  0  0  0  0  0  0  0  0  0  0  0
   -1.8140    3.5717   -3.8110 C   0  0  0  0  0  0  0  0  0  0  0  0
   -3.0298    3.6312   -3.8443 O   0  0  0  0  0  0  0  0  0  0  0  0
    1.0267   -0.6204   -1.7645 C   0  0  2  0  0  0  0  0  0  0  0  0
    2.0365    0.0127   -2.5273 O   0  0  0  0  0  0  0  0  0  0  0  0
    3.8935    1.3638   -0.7582 H   0  0  0  0  0  0  0  0  0  0  0  0
    5.1422    0.2722   -0.0767 H   0  0  0  0  0  0  0  0  0  0  0  0
    4.2583    1.4026    1.0045 H   0  0  0  0  0  0  0  0  0  0  0  0
    5.0295   -0.5230    2.1879 H   0  0  0  0  0  0  0  0  0  0  0  0
    5.0745   -2.4219    3.7772 H   0  0  0  0  0  0  0  0  0  0  0  0
    3.3151   -4.1968    3.6606 H   0  0  0  0  0  0  0  0  0  0  0  0
    1.5354   -4.0494    1.8924 H   0  0  0  0  0  0  0  0  0  0  0  0
    2.6035   -2.0483   -1.4226 H   0  0  0  0  0  0  0  0  0  0  0  0
   -0.0818   -3.4161   -1.3974 H   0  0  0  0  0  0  0  0  0  0  0  0
    1.3636   -3.9445   -2.2816 H   0  0  0  0  0  0  0  0  0  0  0  0
   -0.6578   -2.8550   -3.7287 H   0  0  0  0  0  0  0  0  0  0  0  0
    0.9770   -2.2131   -4.0301 H   0  0  0  0  0  0  0  0  0  0  0  0
   -1.0842   -1.0607   -2.0738 H   0  0  0  0  0  0  0  0  0  0  0  0
   -0.7738   -0.3335   -4.5600 H   0  0  0  0  0  0  0  0  0  0  0  0
   -0.5510    1.6397   -2.3898 H   0  0  0  0  0  0  0  0  0  0  0  0
   -2.0951    1.0540   -3.0161 H   0  0  0  0  0  0  0  0  0  0  0  0
   -1.6634    2.0023   -5.2278 H   0  0  0  0  0  0  0  0  0  0  0  0
    0.2226    3.4516   -5.7439 H   0  0  0  0  0  0  0  0  0  0  0  0
    0.8639    1.8687   -5.2765 H   0  0  0  0  0  0  0  0  0  0  0  0
    2.1229    3.8500   -4.2581 H   0  0  0  0  0  0  0  0  0  0  0  0
    1.5284    2.6986   -3.0650 H   0  0  0  0  0  0  0  0  0  0  0  0
   -0.1277    8.6505   -1.6238 H   0  0  0  0  0  0  0  0  0  0  0  0
   -0.2058    7.7030   -0.1231 H   0  0  0  0  0  0  0  0  0  0  0  0
   -1.6982    8.0644   -1.0241 H   0  0  0  0  0  0  0  0  0  0  0  0
   -2.5537    5.9610   -2.3728 H   0  0  0  0  0  0  0  0  0  0  0  0
    0.7346    0.0081   -0.9072 H   0  0  0  0  0  0  0  0  0  0  0  0
    1.5776    0.2763   -3.3508 H   0  0  0  0  0  0  0  0  0  0  0  0
  1  2  1  0
  1 29  1  0
  1 30  1  0
  1 31  1  0
  2  3  1  0
  3  4  2  0
  3  8  1  0
  4  5  1  0
  4 32  1  0
  5  6  2  0
  5 33  1  0
  6  7  1  0
  6 34  1  0
  7  8  2  0
  7 35  1  0
  8  9  1  0
  9 10  1  0
 10 11  1  0
 10 27  1  0
 10 36  1  1
 11 12  1  0
 11 37  1  0
 11 38  1  0
 12 13  1  0
 12 39  1  0
 12 40  1  0
 13 14  1  0
 13 27  1  0
 13 41  1  1
 14 15  1  0
 14 42  1  0
 15 16  1  0
 15 43  1  0
 15 44  1  0
 16 17  1  0
 16 25  1  0
 16 45  1  6
 17 18  1  0
 17 46  1  0
 17 47  1  0
 18 19  1  0
 18 48  1  0
 18 49  1  0
 19 20  2  0
 19 24  1  0
 20 21  1  0
 21 22  1  0
 21 23  2  0
 22 50  1  0
 22 51  1  0
 22 52  1  0
 23 24  1  0
 23 53  1  0
 24 25  2  0
 25 26  1  0
 27 28  1  0
 27 54  1  1
 28 55  1  0
M  CHG  2  20   1  26  -1
M  END

