
     RDKit          3D

 39 39  0  0  0  0  0  0  0  0999 V2000
    0.8098   -0.1059   -0.2219 C   0  0  0  0  0  0  0  0  0  0  0  0
    2.3366   -0.0778   -0.1019 C   0  0  0  0  0  0  0  0  0  0  0  0
    2.8918   -0.4243    1.2981 C   0  0  1  0  0  0  0  0  0  0  0  0
    2.3328   -1.7623    1.8397 C   0  0  0  0  0  0  0  0  0  0  0  0
    2.6369   -3.0087    1.0027 C   0  0  0  0  0  0  0  0  0  0  0  0
    4.4508   -0.3894    1.3481 C   0  0  1  0  0  0  0  0  0  0  0  0
    5.0519    0.9279    0.8064 C   0  0  0  0  0  0  0  0  0  0  0  0
    6.5064    0.8513    0.7527 N   0  0  0  0  0  0  0  0  0  0  0  0
    4.9924   -0.6809    2.7447 C   0  0  0  0  0  0  0  0  0  0  0  0
    5.8823   -1.6696    2.9526 C   0  0  0  0  0  0  0  0  0  0  0  0
    6.4819   -2.0272    4.2896 C   0  0  0  0  0  0  0  0  0  0  0  0
    5.7603   -1.3503    5.4611 C   0  0  0  0  0  0  0  0  0  0  0  0
    5.4395    0.1083    5.1258 C   0  0  0  0  0  0  0  0  0  0  0  0
    4.5304    0.2000    3.8935 C   0  0  0  0  0  0  0  0  0  0  0  0
    0.4893    0.2680   -1.2076 H   0  0  0  0  0  0  0  0  0  0  0  0
    0.3358    0.5329    0.5428 H   0  0  0  0  0  0  0  0  0  0  0  0
    0.3945   -1.1192   -0.1080 H   0  0  0  0  0  0  0  0  0  0  0  0
    2.6754    0.9323   -0.3799 H   0  0  0  0  0  0  0  0  0  0  0  0
    2.7788   -0.7555   -0.8547 H   0  0  0  0  0  0  0  0  0  0  0  0
    2.5218    0.3637    1.9814 H   0  0  0  0  0  0  0  0  0  0  0  0
    1.2402   -1.6660    1.9550 H   0  0  0  0  0  0  0  0  0  0  0  0
    2.7210   -1.9214    2.8585 H   0  0  0  0  0  0  0  0  0  0  0  0
    2.2234   -2.9389   -0.0164 H   0  0  0  0  0  0  0  0  0  0  0  0
    2.1982   -3.9050    1.4704 H   0  0  0  0  0  0  0  0  0  0  0  0
    3.7194   -3.1882    0.9091 H   0  0  0  0  0  0  0  0  0  0  0  0
    4.8330   -1.1806    0.6816 H   0  0  0  0  0  0  0  0  0  0  0  0
    4.6556    1.7800    1.4047 H   0  0  0  0  0  0  0  0  0  0  0  0
    4.6957    1.0898   -0.2221 H   0  0  0  0  0  0  0  0  0  0  0  0
    6.8904    0.6917    1.6842 H   0  0  0  0  0  0  0  0  0  0  0  0
    6.8991    1.7295    0.4151 H   0  0  0  0  0  0  0  0  0  0  0  0
    6.2136   -2.2639    2.0930 H   0  0  0  0  0  0  0  0  0  0  0  0
    7.5540   -1.7465    4.2921 H   0  0  0  0  0  0  0  0  0  0  0  0
    6.4758   -3.1246    4.4163 H   0  0  0  0  0  0  0  0  0  0  0  0
    6.3683   -1.4194    6.3783 H   0  0  0  0  0  0  0  0  0  0  0  0
    4.8166   -1.8863    5.6699 H   0  0  0  0  0  0  0  0  0  0  0  0
    6.3825    0.6506    4.9279 H   0  0  0  0  0  0  0  0  0  0  0  0
    4.9649    0.6125    5.9840 H   0  0  0  0  0  0  0  0  0  0  0  0
    4.4577    1.2485    3.5564 H   0  0  0  0  0  0  0  0  0  0  0  0
    3.4980   -0.0800    4.1766 H   0  0  0  0  0  0  0  0  0  0  0  0
  1  2  1  0
  1 15  1  0
  1 16  1  0
  1 17  1  0
  2  3  1  0
  2 18  1  0
  2 19  1  0
  3  4  1  0
  3  6  1  0
  3 20  1  1
  4  5  1  0
  4 21  1  0
  4 22  1  0
  5 23  1  0
  5 24  1  0
  5 25  1  0
  6  7  1  0
  6  9  1  0
  6 26  1  6
  7  8  1  0
  7 27  1  0
  7 28  1  0
  8 29  1  0
  8 30  1  0
  9 10  2  0
  9 14  1  0
 10 11  1  0
 10 31  1  0
 11 12  1  0
 11 32  1  0
 11 33  1  0
 12 13  1  0
 12 34  1  0
 12 35  1  0
 13 14  1  0
 13 36  1  0
 13 37  1  0
 14 38  1  0
 14 39  1  0
M  END

