
     RDKit          3D

 39 41  0  0  0  0  0  0  0  0999 V2000
    1.5791   -6.0298    0.8362 C   0  0  0  0  0  0  0  0  0  0  0  0
    1.9797   -5.1058    1.9473 C   0  0  0  0  0  0  0  0  0  0  0  0
    1.5140   -5.4772    3.5826 S   0  0  0  0  0  0  0  0  0  0  0  0
    2.3021   -4.0533    4.2102 C   0  0  0  0  0  0  0  0  0  0  0  0
    2.2527   -3.6938    5.8936 Cl  0  0  0  0  0  0  0  0  0  0  0  0
    2.8936   -3.3194    3.2205 C   0  0  0  0  0  0  0  0  0  0  0  0
    2.7070   -3.9302    1.9367 C   0  0  0  0  0  0  0  0  0  0  0  0
    3.4203   -3.1652    0.4943 S   0  0  1  0  0  0  0  0  0  0  0  0
    2.6808   -3.6108   -0.6898 O   0  0  0  0  0  0  0  0  0  0  0  0
    3.6295   -1.7538    0.8008 O   0  0  0  0  0  0  0  0  0  0  0  0
    4.9966   -3.7888    0.3100 N   0  0  0  0  0  0  0  0  0  0  0  0
    5.2504   -5.1823    0.1484 C   0  0  0  0  0  0  0  0  0  0  0  0
    5.5647   -5.9810    1.2526 C   0  0  0  0  0  0  0  0  0  0  0  0
    5.8736   -7.3342    1.1088 C   0  0  0  0  0  0  0  0  0  0  0  0
    6.2597   -8.2799    2.5171 Cl  0  0  0  0  0  0  0  0  0  0  0  0
    5.8634   -7.8951   -0.1794 C   0  0  0  0  0  0  0  0  0  0  0  0
    6.2482   -9.5721   -0.4217 Cl  0  0  0  0  0  0  0  0  0  0  0  0
    5.5606   -7.1102   -1.2936 C   0  0  0  0  0  0  0  0  0  0  0  0
    5.2446   -5.7488   -1.1540 C   0  0  0  0  0  0  0  0  0  0  0  0
    4.9783   -4.9174   -2.2416 N   0  0  0  0  0  0  0  0  0  0  0  0
    4.3643   -5.3551   -3.7582 S   0  0  1  0  0  0  0  0  0  0  0  0
    4.2992   -4.0881   -4.4736 O   0  0  0  0  0  0  0  0  0  0  0  0
    5.1320   -6.5042   -4.2303 O   0  0  0  0  0  0  0  0  0  0  0  0
    2.7057   -5.9157   -3.5021 C   0  0  0  0  0  0  0  0  0  0  0  0
    1.5897   -5.1152   -3.4114 C   0  0  0  0  0  0  0  0  0  0  0  0
    0.4085   -5.8773   -3.1931 C   0  0  0  0  0  0  0  0  0  0  0  0
    0.6566   -7.2294   -3.1226 C   0  0  0  0  0  0  0  0  0  0  0  0
    2.3282   -7.6034   -3.3266 S   0  0  0  0  0  0  0  0  0  0  0  0
    0.7640   -6.6957    1.1538 H   0  0  0  0  0  0  0  0  0  0  0  0
    2.4259   -6.6613    0.5210 H   0  0  0  0  0  0  0  0  0  0  0  0
    1.2545   -5.4549   -0.0410 H   0  0  0  0  0  0  0  0  0  0  0  0
    3.4123   -2.3749    3.3771 H   0  0  0  0  0  0  0  0  0  0  0  0
    5.6381   -3.2832    0.9194 H   0  0  0  0  0  0  0  0  0  0  0  0
    5.5693   -5.5398    2.2505 H   0  0  0  0  0  0  0  0  0  0  0  0
    5.6035   -7.5548   -2.2858 H   0  0  0  0  0  0  0  0  0  0  0  0
    4.6934   -3.9698   -1.9980 H   0  0  0  0  0  0  0  0  0  0  0  0
    1.6308   -4.0295   -3.4948 H   0  0  0  0  0  0  0  0  0  0  0  0
   -0.5881   -5.4430   -3.1028 H   0  0  0  0  0  0  0  0  0  0  0  0
   -0.0627   -8.0353   -2.9783 H   0  0  0  0  0  0  0  0  0  0  0  0
  1  2  1  0
  1 29  1  0
  1 30  1  0
  1 31  1  0
  2  3  1  0
  2  7  2  0
  3  4  1  0
  4  5  1  0
  4  6  2  0
  6  7  1  0
  6 32  1  0
  7  8  1  0
  8  9  2  0
  8 10  2  0
  8 11  1  6
 11 12  1  0
 11 33  1  0
 12 13  2  0
 12 19  1  0
 13 14  1  0
 13 34  1  0
 14 15  1  0
 14 16  2  0
 16 17  1  0
 16 18  1  0
 18 19  2  0
 18 35  1  0
 19 20  1  0
 21 20  1  1
 20 36  1  0
 21 22  2  0
 21 23  2  0
 21 24  1  0
 24 25  2  0
 24 28  1  0
 25 26  1  0
 25 37  1  0
 26 27  2  0
 26 38  1  0
 27 28  1  0
 27 39  1  0
M  END

