
     RDKit          3D

 31 32  0  0  0  0  0  0  0  0999 V2000
    1.3530   -1.0236   -0.4249 C   0  0  0  0  0  0  0  0  0  0  0  0
    2.5549   -0.1449   -0.0868 C   0  0  0  0  0  0  0  0  0  0  0  0
    2.9142    0.7640   -1.1666 N   0  0  0  0  0  0  0  0  0  0  0  0
    2.6694    2.1046   -1.2335 C   0  0  0  0  0  0  0  0  0  0  0  0
    3.1386    2.5157   -2.4765 C   0  0  0  0  0  0  0  0  0  0  0  0
    3.1461    3.7954   -3.0418 N   0  0  0  0  0  0  0  0  0  0  0  0
    2.6343    4.9213   -2.4509 C   0  0  0  0  0  0  0  0  0  0  0  0
    2.0912    4.9012   -1.3556 O   0  0  0  0  0  0  0  0  0  0  0  0
    2.7641    6.1944   -3.2478 C   0  0  0  0  0  0  0  0  0  0  0  0
    1.9008    7.2365   -2.9081 C   0  0  0  0  0  0  0  0  0  0  0  0
    1.9326    8.4719   -3.5813 C   0  0  0  0  0  0  0  0  0  0  0  0
    1.0436    9.4706   -3.2752 N   0  0  0  0  0  0  0  0  0  0  0  0
    2.8917    8.6372   -4.6131 C   0  0  0  0  0  0  0  0  0  0  0  0
    2.9619   10.1689   -5.4497 Cl  0  0  0  0  0  0  0  0  0  0  0  0
    3.7710    7.5958   -4.9385 C   0  0  0  0  0  0  0  0  0  0  0  0
    4.9690    7.8110   -6.1859 Cl  0  0  0  0  0  0  0  0  0  0  0  0
    3.7153    6.3745   -4.2636 C   0  0  0  0  0  0  0  0  0  0  0  0
    3.6426    1.3338   -3.0778 C   0  0  0  0  0  0  0  0  0  0  0  0
    3.4941    0.2859   -2.2718 N   0  0  0  0  0  0  0  0  0  0  0  0
    1.1394   -1.7137    0.4066 H   0  0  0  0  0  0  0  0  0  0  0  0
    1.5581   -1.6180   -1.3274 H   0  0  0  0  0  0  0  0  0  0  0  0
    0.4544   -0.4138   -0.6079 H   0  0  0  0  0  0  0  0  0  0  0  0
    3.4382   -0.7660    0.1284 H   0  0  0  0  0  0  0  0  0  0  0  0
    2.3575    0.4719    0.8028 H   0  0  0  0  0  0  0  0  0  0  0  0
    2.2022    2.6692   -0.4345 H   0  0  0  0  0  0  0  0  0  0  0  0
    3.4846    3.8657   -3.9927 H   0  0  0  0  0  0  0  0  0  0  0  0
    1.1886    7.0723   -2.0971 H   0  0  0  0  0  0  0  0  0  0  0  0
    0.5476    9.4107   -2.3959 H   0  0  0  0  0  0  0  0  0  0  0  0
    1.2408   10.4018   -3.6197 H   0  0  0  0  0  0  0  0  0  0  0  0
    4.4475    5.6093   -4.5222 H   0  0  0  0  0  0  0  0  0  0  0  0
    4.1080    1.2165   -4.0571 H   0  0  0  0  0  0  0  0  0  0  0  0
  1  2  1  0
  1 20  1  0
  1 21  1  0
  1 22  1  0
  2  3  1  0
  2 23  1  0
  2 24  1  0
  3  4  1  0
  3 19  1  0
  4  5  2  0
  4 25  1  0
  5  6  1  0
  5 18  1  0
  6  7  1  0
  6 26  1  0
  7  8  2  0
  7  9  1  0
  9 10  2  0
  9 17  1  0
 10 11  1  0
 10 27  1  0
 11 12  1  0
 11 13  2  0
 12 28  1  0
 12 29  1  0
 13 14  1  0
 13 15  1  0
 15 16  1  0
 15 17  2  0
 17 30  1  0
 18 19  2  0
 18 31  1  0
M  END

