
     RDKit          3D

 31 33  0  0  0  0  0  0  0  0999 V2000
    1.1208   -0.3172    0.8888 F   0  0  0  0  0  0  0  0  0  0  0  0
    2.3189   -0.0645    0.3002 B   0  0  2  0  0  0  0  0  0  0  0  0
    2.2626    0.1566   -1.0465 F   0  0  0  0  0  0  0  0  0  0  0  0
    3.2396   -1.2409    0.5512 O   0  0  0  0  0  0  0  0  0  0  0  0
    4.4804   -1.1248    0.8875 C   0  0  0  0  0  0  0  0  0  0  0  0
    5.2614   -2.3829    0.9005 C   0  0  0  0  0  0  0  0  0  0  0  0
    6.5781   -2.4467    1.3959 C   0  0  0  0  0  0  0  0  0  0  0  0
    7.2794   -3.6513    1.3866 C   0  0  0  0  0  0  0  0  0  0  0  0
    6.6778   -4.8103    0.8836 C   0  0  0  0  0  0  0  0  0  0  0  0
    5.3691   -4.7594    0.3923 C   0  0  0  0  0  0  0  0  0  0  0  0
    4.6642   -3.5567    0.4015 C   0  0  0  0  0  0  0  0  0  0  0  0
    5.0225    0.1233    1.2273 C   0  0  0  0  0  0  0  0  0  0  0  0
    4.1783    1.2415    1.2891 C   0  0  0  0  0  0  0  0  0  0  0  0
    4.6283    2.5775    1.7423 C   0  0  0  0  0  0  0  0  0  0  0  0
    5.9048    2.7942    2.2961 C   0  0  0  0  0  0  0  0  0  0  0  0
    6.2901    4.0693    2.7070 C   0  0  0  0  0  0  0  0  0  0  0  0
    5.4078    5.1470    2.5721 C   0  0  0  0  0  0  0  0  0  0  0  0
    4.1360    4.9427    2.0268 C   0  0  0  0  0  0  0  0  0  0  0  0
    3.7466    3.6686    1.6164 C   0  0  0  0  0  0  0  0  0  0  0  0
    2.9340    1.1540    0.9572 O   0  0  0  0  0  0  0  0  0  0  0  0
    7.0606   -1.5576    1.8040 H   0  0  0  0  0  0  0  0  0  0  0  0
    8.2993   -3.6880    1.7766 H   0  0  0  0  0  0  0  0  0  0  0  0
    7.2298   -5.7535    0.8768 H   0  0  0  0  0  0  0  0  0  0  0  0
    4.8957   -5.6622   -0.0007 H   0  0  0  0  0  0  0  0  0  0  0  0
    3.6440   -3.5051    0.0201 H   0  0  0  0  0  0  0  0  0  0  0  0
    6.0736    0.2157    1.4744 H   0  0  0  0  0  0  0  0  0  0  0  0
    6.6023    1.9650    2.4222 H   0  0  0  0  0  0  0  0  0  0  0  0
    7.2820    4.2233    3.1382 H   0  0  0  0  0  0  0  0  0  0  0  0
    5.7123    6.1460    2.8944 H   0  0  0  0  0  0  0  0  0  0  0  0
    3.4441    5.7815    1.9203 H   0  0  0  0  0  0  0  0  0  0  0  0
    2.7581    3.4978    1.1892 H   0  0  0  0  0  0  0  0  0  0  0  0
  2  1  1  1
  2  3  1  0
  2  4  1  0
  2 20  1  0
  4  5  1  0
  5  6  1  0
  5 12  2  0
  6  7  2  0
  6 11  1  0
  7  8  1  0
  7 21  1  0
  8  9  2  0
  8 22  1  0
  9 10  1  0
  9 23  1  0
 10 11  2  0
 10 24  1  0
 11 25  1  0
 12 13  1  0
 12 26  1  0
 13 14  1  0
 13 20  2  0
 14 15  2  0
 14 19  1  0
 15 16  1  0
 15 27  1  0
 16 17  2  0
 16 28  1  0
 17 18  1  0
 17 29  1  0
 18 19  2  0
 18 30  1  0
 19 31  1  0
M  CHG  2   2  -1  20   1
M  END

