
     RDKit          3D

 30 31  0  0  0  0  0  0  0  0999 V2000
    2.2871    0.1333   -3.2226 C   0  0  0  0  0  0  0  0  0  0  0  0
    3.4569   -0.3131   -2.3365 C   0  0  0  0  0  0  0  0  0  0  0  0
    3.4880   -1.7923   -2.1177 C   0  0  0  0  0  0  0  0  0  0  0  0
    4.5026   -2.5428   -2.4707 N   0  0  0  0  0  0  0  0  0  0  0  0
    4.1129   -3.8248   -2.0977 O   0  0  0  0  0  0  0  0  0  0  0  0
    2.8921   -3.7161   -1.5576 C   0  0  0  0  0  0  0  0  0  0  0  0
    2.2150   -4.9486   -1.0669 C   0  0  0  0  0  0  0  0  0  0  0  0
    2.9871   -5.4917    0.5124 S   0  0  0  0  0  0  0  0  0  0  0  0
    2.0525   -6.9477    0.9154 C   0  0  0  0  0  0  0  0  0  0  0  0
    2.4462   -7.6363    2.0824 C   0  0  0  0  0  0  0  0  0  0  0  0
    1.7750   -8.7858    2.4853 C   0  0  0  0  0  0  0  0  0  0  0  0
    0.7089   -9.2527    1.7221 C   0  0  0  0  0  0  0  0  0  0  0  0
    0.0758  -10.3796    2.1429 F   0  0  0  0  0  0  0  0  0  0  0  0
    0.2853   -8.6037    0.5597 C   0  0  0  0  0  0  0  0  0  0  0  0
   -0.8598   -9.0381   -0.3296 C   0  0  0  0  0  0  0  0  0  0  0  0
   -1.1570   -8.4181   -1.3180 O   0  0  0  0  0  0  0  0  0  0  0  0
   -1.5358  -10.1411    0.0207 O   0  0  0  0  0  0  0  0  0  0  0  0
    0.9767   -7.4419    0.1723 C   0  0  0  0  0  0  0  0  0  0  0  0
    2.4519   -2.4953   -1.5386 N   0  0  0  0  0  0  0  0  0  0  0  0
    2.2728    1.2296   -3.3200 H   0  0  0  0  0  0  0  0  0  0  0  0
    1.3264   -0.1866   -2.7915 H   0  0  0  0  0  0  0  0  0  0  0  0
    2.3666   -0.2971   -4.2333 H   0  0  0  0  0  0  0  0  0  0  0  0
    3.3791    0.1731   -1.3489 H   0  0  0  0  0  0  0  0  0  0  0  0
    4.4220   -0.0139   -2.7715 H   0  0  0  0  0  0  0  0  0  0  0  0
    2.3117   -5.7514   -1.8134 H   0  0  0  0  0  0  0  0  0  0  0  0
    1.1551   -4.7112   -0.9075 H   0  0  0  0  0  0  0  0  0  0  0  0
    3.2859   -7.2681    2.6772 H   0  0  0  0  0  0  0  0  0  0  0  0
    2.0663   -9.3310    3.3849 H   0  0  0  0  0  0  0  0  0  0  0  0
   -1.1795  -10.5281    0.8364 H   0  0  0  0  0  0  0  0  0  0  0  0
    0.6164   -6.9610   -0.7364 H   0  0  0  0  0  0  0  0  0  0  0  0
  1  2  1  0
  1 20  1  0
  1 21  1  0
  1 22  1  0
  2  3  1  0
  2 23  1  0
  2 24  1  0
  3  4  2  0
  3 19  1  0
  4  5  1  0
  5  6  1  0
  6  7  1  0
  6 19  2  0
  7  8  1  0
  7 25  1  0
  7 26  1  0
  8  9  1  0
  9 10  2  0
  9 18  1  0
 10 11  1  0
 10 27  1  0
 11 12  2  0
 11 28  1  0
 12 13  1  0
 12 14  1  0
 14 15  1  0
 14 18  2  0
 15 16  2  0
 15 17  1  0
 17 29  1  0
 18 30  1  0
M  END

