
     RDKit          3D

 42 44  0  0  0  0  0  0  0  0999 V2000
    4.0045    0.3459   -2.4345 C   0  0  0  0  0  0  0  0  0  0  0  0
    3.1469    0.6619   -1.2198 C   0  0  0  0  0  0  0  0  0  0  0  0
    3.5706    1.8690   -0.5652 O   0  0  0  0  0  0  0  0  0  0  0  0
    4.5610    1.7692    0.3520 C   0  0  0  0  0  0  0  0  0  0  0  0
    5.0872    0.7124    0.6339 O   0  0  0  0  0  0  0  0  0  0  0  0
    4.8971    3.0821    0.9457 C   0  0  0  0  0  0  0  0  0  0  0  0
    4.2284    4.2577    0.5549 C   0  0  0  0  0  0  0  0  0  0  0  0
    4.4882    5.4536    1.0517 N   0  0  0  0  0  0  0  0  0  0  0  0
    5.4610    5.5151    1.9879 C   0  0  0  0  0  0  0  0  0  0  0  0
    5.7485    6.7347    2.5235 N   0  0  0  0  0  0  0  0  0  0  0  0
    5.0826    7.9595    2.0917 C   0  0  0  0  0  0  0  0  0  0  0  0
    4.3892    8.6217    3.2800 C   0  0  0  0  0  0  0  0  0  0  0  0
    5.3150    8.7639    4.4679 C   0  0  0  0  0  0  0  0  0  0  0  0
    4.9913    9.6944    5.3771 N   0  0  0  0  0  0  0  0  0  0  0  0
    5.7975    9.8354    6.4296 C   0  0  0  0  0  0  0  0  0  0  0  0
    6.9493    9.0812    6.6351 C   0  0  0  0  0  0  0  0  0  0  0  0
    7.2995    8.1025    5.6871 C   0  0  0  0  0  0  0  0  0  0  0  0
    8.4537    7.3618    5.8172 N   0  0  0  0  0  0  0  0  0  0  0  0
    6.4445    7.9374    4.5694 C   0  0  0  0  0  0  0  0  0  0  0  0
    6.7902    6.8990    3.5230 C   0  0  0  0  0  0  0  0  0  0  0  0
    6.1682    4.4545    2.4317 N   0  0  0  0  0  0  0  0  0  0  0  0
    5.9039    3.2483    1.9360 C   0  0  0  0  0  0  0  0  0  0  0  0
    6.7240    2.1116    2.4806 C   0  0  0  0  0  0  0  0  0  0  0  0
    3.6042   -0.5385   -2.9562 H   0  0  0  0  0  0  0  0  0  0  0  0
    5.0395    0.1258   -2.1342 H   0  0  0  0  0  0  0  0  0  0  0  0
    4.0116    1.1891   -3.1429 H   0  0  0  0  0  0  0  0  0  0  0  0
    3.1739   -0.1661   -0.4962 H   0  0  0  0  0  0  0  0  0  0  0  0
    2.1029    0.8528   -1.5086 H   0  0  0  0  0  0  0  0  0  0  0  0
    3.4432    4.1981   -0.2048 H   0  0  0  0  0  0  0  0  0  0  0  0
    4.3742    7.7006    1.2986 H   0  0  0  0  0  0  0  0  0  0  0  0
    5.8416    8.6443    1.6676 H   0  0  0  0  0  0  0  0  0  0  0  0
    3.5088    8.0231    3.5755 H   0  0  0  0  0  0  0  0  0  0  0  0
    4.0118    9.6202    3.0110 H   0  0  0  0  0  0  0  0  0  0  0  0
    5.5157   10.6007    7.1634 H   0  0  0  0  0  0  0  0  0  0  0  0
    7.5726    9.2473    7.5178 H   0  0  0  0  0  0  0  0  0  0  0  0
    8.9129    7.3684    6.7194 H   0  0  0  0  0  0  0  0  0  0  0  0
    8.5293    6.4851    5.3176 H   0  0  0  0  0  0  0  0  0  0  0  0
    6.9603    5.9136    3.9819 H   0  0  0  0  0  0  0  0  0  0  0  0
    7.7490    7.1752    3.0326 H   0  0  0  0  0  0  0  0  0  0  0  0
    7.4341    2.5044    3.2195 H   0  0  0  0  0  0  0  0  0  0  0  0
    7.2616    1.5910    1.6746 H   0  0  0  0  0  0  0  0  0  0  0  0
    6.0801    1.3479    2.9418 H   0  0  0  0  0  0  0  0  0  0  0  0
  1  2  1  0
  1 24  1  0
  1 25  1  0
  1 26  1  0
  2  3  1  0
  2 27  1  0
  2 28  1  0
  3  4  1  0
  4  5  2  0
  4  6  1  0
  6  7  2  0
  6 22  1  0
  7  8  1  0
  7 29  1  0
  8  9  2  0
  9 10  1  0
  9 21  1  0
 10 11  1  0
 10 20  1  0
 11 12  1  0
 11 30  1  0
 11 31  1  0
 12 13  1  0
 12 32  1  0
 12 33  1  0
 13 14  2  0
 13 19  1  0
 14 15  1  0
 15 16  2  0
 15 34  1  0
 16 17  1  0
 16 35  1  0
 17 18  1  0
 17 19  2  0
 18 36  1  0
 18 37  1  0
 19 20  1  0
 20 38  1  0
 20 39  1  0
 21 22  2  0
 22 23  1  0
 23 40  1  0
 23 41  1  0
 23 42  1  0
M  END

