
     RDKit          3D

 25 25  0  0  0  0  0  0  0  0999 V2000
    2.9585   -0.5735   -0.9925 C   0  0  0  0  0  0  0  0  0  0  0  0
    2.6721    0.4238    0.1304 C   0  0  0  0  0  0  0  0  0  0  0  0
    3.1571   -0.0152    1.5183 C   0  0  0  0  0  0  0  0  0  0  0  0
    4.6136   -0.1850    1.6041 N   0  0  0  0  0  0  0  0  0  0  0  0
    5.5086    0.8447    1.6886 C   0  0  0  0  0  0  0  0  0  0  0  0
    6.7683    0.2685    1.7338 C   0  0  0  0  0  0  0  0  0  0  0  0
    6.6615   -1.0808    1.6779 N   0  0  0  0  0  0  0  0  0  0  0  0
    5.3609   -1.3471    1.5981 C   0  0  0  0  0  0  0  0  0  0  0  0
    4.8176   -2.7188    1.5474 C   0  0  0  0  0  0  0  0  0  0  0  0
    3.6232   -2.9591    1.4415 O   0  0  0  0  0  0  0  0  0  0  0  0
    5.8292   -3.8449    1.6928 C   0  0  0  0  0  0  0  0  0  0  0  0
    5.2712   -5.0915    1.2153 N   0  0  0  0  0  0  0  0  0  0  0  0
    2.5485   -0.2117   -1.9485 H   0  0  0  0  0  0  0  0  0  0  0  0
    2.5157   -1.5579   -0.7770 H   0  0  0  0  0  0  0  0  0  0  0  0
    4.0410   -0.7223   -1.1342 H   0  0  0  0  0  0  0  0  0  0  0  0
    1.5841    0.5920    0.2145 H   0  0  0  0  0  0  0  0  0  0  0  0
    3.1126    1.4068   -0.1149 H   0  0  0  0  0  0  0  0  0  0  0  0
    2.7041   -0.9730    1.7967 H   0  0  0  0  0  0  0  0  0  0  0  0
    2.8732    0.7381    2.2701 H   0  0  0  0  0  0  0  0  0  0  0  0
    5.1861    1.8835    1.7134 H   0  0  0  0  0  0  0  0  0  0  0  0
    7.7313    0.7736    1.8047 H   0  0  0  0  0  0  0  0  0  0  0  0
    6.1179   -3.8254    2.7706 H   0  0  0  0  0  0  0  0  0  0  0  0
    6.7487   -3.5707    1.1515 H   0  0  0  0  0  0  0  0  0  0  0  0
    4.2926   -5.1539    1.4977 H   0  0  0  0  0  0  0  0  0  0  0  0
    5.7653   -5.8877    1.6116 H   0  0  0  0  0  0  0  0  0  0  0  0
  1  2  1  0
  1 13  1  0
  1 14  1  0
  1 15  1  0
  2  3  1  0
  2 16  1  0
  2 17  1  0
  3  4  1  0
  3 18  1  0
  3 19  1  0
  4  5  1  0
  4  8  1  0
  5  6  2  0
  5 20  1  0
  6  7  1  0
  6 21  1  0
  7  8  2  0
  8  9  1  0
  9 10  2  0
  9 11  1  0
 11 12  1  0
 11 22  1  0
 11 23  1  0
 12 24  1  0
 12 25  1  0
M  END

