
     RDKit          3D

 43 44  0  0  0  0  0  0  0  0999 V2000
    1.5667   -0.2972    0.5968 C   0  0  0  0  0  0  0  0  0  0  0  0
    2.9639   -0.2046   -0.0367 C   0  0  1  0  0  0  0  0  0  0  0  0
    3.3709   -1.5029   -0.7613 C   0  0  0  0  0  0  0  0  0  0  0  0
    2.6846   -1.6530   -2.1238 C   0  0  0  0  0  0  0  0  0  0  0  0
    2.9702   -0.4444   -3.0220 C   0  0  0  0  0  0  0  0  0  0  0  0
    2.5622    0.9004   -2.3919 C   0  0  2  0  0  0  0  0  0  0  0  0
    1.0780    0.9570   -2.3953 N   0  0  0  0  0  0  0  0  0  0  0  0
    0.2793    1.9165   -1.8728 C   0  0  0  0  0  0  0  0  0  0  0  0
    0.7209    2.9519   -1.3603 O   0  0  0  0  0  0  0  0  0  0  0  0
   -1.2278    1.6868   -1.9799 C   0  0  1  0  0  0  0  0  0  0  0  0
   -1.8830    1.8329   -0.5996 C   0  0  0  0  0  0  0  0  0  0  0  0
   -1.8045    2.6882   -2.9863 C   0  0  1  0  0  0  0  0  0  0  0  0
   -1.4365    2.5712   -4.4883 C   0  0  0  0  0  0  0  0  0  0  0  0
   -2.8363    2.8852   -4.8162 N   0  0  0  0  0  0  0  0  0  0  0  0
   -3.2732    2.5274   -3.4570 C   0  0  0  0  0  0  0  0  0  0  0  0
    3.1531    2.0622   -3.2592 C   0  0  0  0  0  0  0  0  0  0  0  0
    3.9406    1.8554   -4.1478 O   0  0  0  0  0  0  0  0  0  0  0  0
    2.7765    3.2915   -2.9251 O   0  0  0  0  0  0  0  0  0  0  0  0
    3.1640    1.0172   -0.9623 C   0  0  0  0  0  0  0  0  0  0  0  0
    1.5498   -1.0792    1.3733 H   0  0  0  0  0  0  0  0  0  0  0  0
    0.7833   -0.5462   -0.1345 H   0  0  0  0  0  0  0  0  0  0  0  0
    1.2828    0.6541    1.0741 H   0  0  0  0  0  0  0  0  0  0  0  0
    3.6706   -0.0590    0.7993 H   0  0  0  0  0  0  0  0  0  0  0  0
    3.1565   -2.3757   -0.1218 H   0  0  0  0  0  0  0  0  0  0  0  0
    4.4640   -1.4954   -0.9208 H   0  0  0  0  0  0  0  0  0  0  0  0
    1.5969   -1.7934   -1.9865 H   0  0  0  0  0  0  0  0  0  0  0  0
    3.0383   -2.5674   -2.6277 H   0  0  0  0  0  0  0  0  0  0  0  0
    2.4842   -0.5447   -4.0073 H   0  0  0  0  0  0  0  0  0  0  0  0
    4.0463   -0.3825   -3.2362 H   0  0  0  0  0  0  0  0  0  0  0  0
    0.6121    0.1772   -2.8446 H   0  0  0  0  0  0  0  0  0  0  0  0
   -1.4099    0.6656   -2.3601 H   0  0  0  0  0  0  0  0  0  0  0  0
   -1.6637    2.8261   -0.1809 H   0  0  0  0  0  0  0  0  0  0  0  0
   -1.5100    1.0755    0.1071 H   0  0  0  0  0  0  0  0  0  0  0  0
   -2.9750    1.7171   -0.6767 H   0  0  0  0  0  0  0  0  0  0  0  0
   -1.6165    3.7092   -2.6214 H   0  0  0  0  0  0  0  0  0  0  0  0
   -1.1188    1.5399   -4.7532 H   0  0  0  0  0  0  0  0  0  0  0  0
   -0.6859    3.2739   -4.8883 H   0  0  0  0  0  0  0  0  0  0  0  0
   -3.2563    2.3673   -5.5860 H   0  0  0  0  0  0  0  0  0  0  0  0
   -3.6263    1.4807   -3.3413 H   0  0  0  0  0  0  0  0  0  0  0  0
   -4.0306    3.1974   -3.0145 H   0  0  0  0  0  0  0  0  0  0  0  0
    2.0794    3.2894   -2.2129 H   0  0  0  0  0  0  0  0  0  0  0  0
    2.7914    1.9285   -0.4744 H   0  0  0  0  0  0  0  0  0  0  0  0
    4.2481    1.1619   -1.1078 H   0  0  0  0  0  0  0  0  0  0  0  0
  1  2  1  0
  1 20  1  0
  1 21  1  0
  1 22  1  0
  2  3  1  0
  2 19  1  0
  2 23  1  1
  3  4  1  0
  3 24  1  0
  3 25  1  0
  4  5  1  0
  4 26  1  0
  4 27  1  0
  5  6  1  0
  5 28  1  0
  5 29  1  0
  6  7  1  0
  6 16  1  6
  6 19  1  0
  7  8  1  0
  7 30  1  0
  8  9  2  0
  8 10  1  0
 10 11  1  0
 10 12  1  0
 10 31  1  6
 11 32  1  0
 11 33  1  0
 11 34  1  0
 12 13  1  0
 12 15  1  0
 12 35  1  1
 13 14  1  0
 13 36  1  0
 13 37  1  0
 14 15  1  0
 14 38  1  0
 15 39  1  0
 15 40  1  0
 16 17  2  0
 16 18  1  0
 18 41  1  0
 19 42  1  0
 19 43  1  0
M  END

