
     RDKit          3D

 44 45  0  0  0  0  0  0  0  0999 V2000
    2.8270    0.1394   -2.0227 C   0  0  0  0  0  0  0  0  0  0  0  0
    4.1575   -0.5810   -2.1006 C   0  0  0  0  0  0  0  0  0  0  0  0
    4.4171   -1.1654   -0.8239 O   0  0  0  0  0  0  0  0  0  0  0  0
    5.4757   -1.9785   -0.6502 C   0  0  0  0  0  0  0  0  0  0  0  0
    6.4737   -2.2073   -1.6108 C   0  0  0  0  0  0  0  0  0  0  0  0
    7.5319   -3.0793   -1.3416 C   0  0  0  0  0  0  0  0  0  0  0  0
    7.6045   -3.7420   -0.1151 C   0  0  0  0  0  0  0  0  0  0  0  0
    8.9283   -4.8359    0.2113 Cl  0  0  0  0  0  0  0  0  0  0  0  0
    6.6197   -3.5343    0.8538 C   0  0  0  0  0  0  0  0  0  0  0  0
    5.5663   -2.6621    0.5834 C   0  0  0  0  0  0  0  0  0  0  0  0
    4.3484   -2.3719    1.8838 S   0  0  1  0  0  0  0  0  0  0  0  0
    4.5685   -3.4114    2.8951 O   0  0  0  0  0  0  0  0  0  0  0  0
    4.3705   -0.9539    2.2160 O   0  0  0  0  0  0  0  0  0  0  0  0
    2.8408   -2.6769    1.2232 N   0  0  0  0  0  0  0  0  0  0  0  0
    2.4049   -4.0421    0.9691 C   0  0  1  0  0  0  0  0  0  0  0  0
    0.9873   -4.2660    1.5237 C   0  0  0  0  0  0  0  0  0  0  0  0
    2.4315   -4.3343   -0.5446 C   0  0  0  0  0  0  0  0  0  0  0  0
    2.2639   -3.4436   -1.3627 O   0  0  0  0  0  0  0  0  0  0  0  0
    2.5974   -5.6576   -0.8589 N   0  0  0  0  0  0  0  0  0  0  0  0
    2.5759   -6.2822   -2.1238 C   0  0  0  0  0  0  0  0  0  0  0  0
    2.3113   -5.5925   -3.3201 C   0  0  0  0  0  0  0  0  0  0  0  0
    2.3018   -6.2902   -4.5289 C   0  0  0  0  0  0  0  0  0  0  0  0
    2.5517   -7.6583   -4.5653 C   0  0  0  0  0  0  0  0  0  0  0  0
    2.5387   -8.3079   -5.7308 F   0  0  0  0  0  0  0  0  0  0  0  0
    2.8168   -8.3519   -3.3787 C   0  0  0  0  0  0  0  0  0  0  0  0
    3.1286  -10.0613   -3.4284 Cl  0  0  0  0  0  0  0  0  0  0  0  0
    2.8285   -7.6640   -2.1657 C   0  0  0  0  0  0  0  0  0  0  0  0
    2.6151    0.6412   -2.9794 H   0  0  0  0  0  0  0  0  0  0  0  0
    2.8415    0.8989   -1.2263 H   0  0  0  0  0  0  0  0  0  0  0  0
    2.0179   -0.5778   -1.8193 H   0  0  0  0  0  0  0  0  0  0  0  0
    4.9754    0.1171   -2.3557 H   0  0  0  0  0  0  0  0  0  0  0  0
    4.1301   -1.3765   -2.8657 H   0  0  0  0  0  0  0  0  0  0  0  0
    6.4373   -1.7032   -2.5761 H   0  0  0  0  0  0  0  0  0  0  0  0
    8.3052   -3.2470   -2.0932 H   0  0  0  0  0  0  0  0  0  0  0  0
    6.6564   -4.0429    1.8176 H   0  0  0  0  0  0  0  0  0  0  0  0
    2.6237   -2.0183    0.4723 H   0  0  0  0  0  0  0  0  0  0  0  0
    3.0992   -4.7140    1.4985 H   0  0  0  0  0  0  0  0  0  0  0  0
    0.2727   -3.5912    1.0279 H   0  0  0  0  0  0  0  0  0  0  0  0
    0.9827   -4.0499    2.6014 H   0  0  0  0  0  0  0  0  0  0  0  0
    0.6518   -5.3031    1.3650 H   0  0  0  0  0  0  0  0  0  0  0  0
    2.7778   -6.2786   -0.0780 H   0  0  0  0  0  0  0  0  0  0  0  0
    2.1182   -4.5235   -3.2915 H   0  0  0  0  0  0  0  0  0  0  0  0
    2.0975   -5.7747   -5.4697 H   0  0  0  0  0  0  0  0  0  0  0  0
    3.0385   -8.2231   -1.2512 H   0  0  0  0  0  0  0  0  0  0  0  0
  1  2  1  0
  1 28  1  0
  1 29  1  0
  1 30  1  0
  2  3  1  0
  2 31  1  0
  2 32  1  0
  3  4  1  0
  4  5  2  0
  4 10  1  0
  5  6  1  0
  5 33  1  0
  6  7  2  0
  6 34  1  0
  7  8  1  0
  7  9  1  0
  9 10  2  0
  9 35  1  0
 10 11  1  0
 11 12  2  0
 11 13  2  0
 11 14  1  6
 14 15  1  0
 14 36  1  0
 15 16  1  0
 15 17  1  0
 15 37  1  1
 16 38  1  0
 16 39  1  0
 16 40  1  0
 17 18  2  0
 17 19  1  0
 19 20  1  0
 19 41  1  0
 20 21  2  0
 20 27  1  0
 21 22  1  0
 21 42  1  0
 22 23  2  0
 22 43  1  0
 23 24  1  0
 23 25  1  0
 25 26  1  0
 25 27  2  0
 27 44  1  0
M  END

