
     RDKit          3D

 18 18  0  0  0  0  0  0  0  0999 V2000
    2.5483    1.3400    0.0884 O   0  0  0  0  0  0  0  0  0  0  0  0
    2.3262    0.1499    0.1503 C   0  0  0  0  0  0  0  0  0  0  0  0
    3.0598   -0.7722    1.0572 C   0  0  0  0  0  0  0  0  0  0  0  0
    4.0611   -0.2475    1.8860 C   0  0  0  0  0  0  0  0  0  0  0  0
    4.7833   -1.0627    2.7572 C   0  0  0  0  0  0  0  0  0  0  0  0
    5.7582   -0.5850    3.5719 O   0  0  0  0  0  0  0  0  0  0  0  0
    4.4927   -2.4467    2.7989 C   0  0  0  0  0  0  0  0  0  0  0  0
    5.2266   -3.3689    3.7054 C   0  0  0  0  0  0  0  0  0  0  0  0
    5.0041   -4.5589    3.7679 O   0  0  0  0  0  0  0  0  0  0  0  0
    3.4912   -2.9714    1.9703 C   0  0  0  0  0  0  0  0  0  0  0  0
    2.7689   -2.1562    1.0990 C   0  0  0  0  0  0  0  0  0  0  0  0
    1.7938   -2.6338    0.2847 O   0  0  0  0  0  0  0  0  0  0  0  0
    1.5433   -0.3260   -0.4831 H   0  0  0  0  0  0  0  0  0  0  0  0
    4.2526    0.8279    1.8210 H   0  0  0  0  0  0  0  0  0  0  0  0
    5.8538    0.3679    3.4420 H   0  0  0  0  0  0  0  0  0  0  0  0
    6.0101   -2.8932    4.3383 H   0  0  0  0  0  0  0  0  0  0  0  0
    3.2996   -4.0467    2.0354 H   0  0  0  0  0  0  0  0  0  0  0  0
    1.7004   -3.5872    0.4122 H   0  0  0  0  0  0  0  0  0  0  0  0
  1  2  2  0
  2  3  1  0
  2 13  1  0
  3  4  2  0
  3 11  1  0
  4  5  1  0
  4 14  1  0
  5  6  1  0
  5  7  2  0
  6 15  1  0
  7  8  1  0
  7 10  1  0
  8  9  2  0
  8 16  1  0
 10 11  2  0
 10 17  1  0
 11 12  1  0
 12 18  1  0
M  END

