
     RDKit          3D

 37 37  0  0  0  0  0  0  0  0999 V2000
    2.9398    1.2954    0.5520 C   0  0  0  0  0  0  0  0  0  0  0  0
    2.5640   -0.1509    0.1768 C   0  0  1  0  0  0  0  0  0  0  0  0
    3.0629   -1.1113    1.2729 C   0  0  0  0  0  0  0  0  0  0  0  0
    1.0278   -0.2588    0.0910 C   0  0  0  0  0  0  0  0  0  0  0  0
    3.1194   -0.5111   -1.2297 C   0  0  0  0  0  0  0  0  0  0  0  0
    4.6182   -0.3971   -1.5047 C   0  0  1  0  0  0  0  0  0  0  0  0
    5.5453   -1.8319   -0.8491 Cl  0  0  0  0  0  0  0  0  0  0  0  0
    4.9585   -0.3236   -3.0060 C   0  0  0  0  0  0  0  0  0  0  0  0
    4.4129    0.8501   -3.6601 N   0  0  0  0  0  0  0  0  0  0  0  0
    5.0184    2.0656   -3.5496 C   0  0  0  0  0  0  0  0  0  0  0  0
    6.0359    2.2325   -2.8916 O   0  0  0  0  0  0  0  0  0  0  0  0
    4.3838    3.2275   -4.2875 C   0  0  0  0  0  0  0  0  0  0  0  0
    5.0605    4.4539   -4.2268 C   0  0  0  0  0  0  0  0  0  0  0  0
    4.5462    5.5759   -4.8745 C   0  0  0  0  0  0  0  0  0  0  0  0
    3.4046    5.5471   -5.5701 N   0  0  0  0  0  0  0  0  0  0  0  0
    2.7476    4.3966   -5.6368 C   0  0  0  0  0  0  0  0  0  0  0  0
    3.1822    3.2100   -5.0220 C   0  0  0  0  0  0  0  0  0  0  0  0
    2.4523    2.0633   -5.1326 O   0  0  0  0  0  0  0  0  0  0  0  0
    2.4670    1.5823    1.5053 H   0  0  0  0  0  0  0  0  0  0  0  0
    2.6039    2.0124   -0.2158 H   0  0  0  0  0  0  0  0  0  0  0  0
    4.0265    1.4219    0.6785 H   0  0  0  0  0  0  0  0  0  0  0  0
    2.5766   -0.8744    2.2338 H   0  0  0  0  0  0  0  0  0  0  0  0
    4.1504   -1.0438    1.4168 H   0  0  0  0  0  0  0  0  0  0  0  0
    2.8283   -2.1592    1.0255 H   0  0  0  0  0  0  0  0  0  0  0  0
    0.5613   -0.0105    1.0580 H   0  0  0  0  0  0  0  0  0  0  0  0
    0.7142   -1.2808   -0.1789 H   0  0  0  0  0  0  0  0  0  0  0  0
    0.6167    0.4300   -0.6659 H   0  0  0  0  0  0  0  0  0  0  0  0
    2.6309    0.1736   -1.9462 H   0  0  0  0  0  0  0  0  0  0  0  0
    2.7929   -1.5296   -1.5037 H   0  0  0  0  0  0  0  0  0  0  0  0
    5.0610    0.4779   -1.0125 H   0  0  0  0  0  0  0  0  0  0  0  0
    4.5723   -1.2205   -3.5140 H   0  0  0  0  0  0  0  0  0  0  0  0
    6.0528   -0.3137   -3.1077 H   0  0  0  0  0  0  0  0  0  0  0  0
    3.5659    0.7782   -4.2123 H   0  0  0  0  0  0  0  0  0  0  0  0
    5.9915    4.4924   -3.6587 H   0  0  0  0  0  0  0  0  0  0  0  0
    5.0739    6.5344   -4.8304 H   0  0  0  0  0  0  0  0  0  0  0  0
    1.8084    4.3849   -6.2102 H   0  0  0  0  0  0  0  0  0  0  0  0
    1.6635    2.2243   -5.6692 H   0  0  0  0  0  0  0  0  0  0  0  0
  2  1  1  1
  1 19  1  0
  1 20  1  0
  1 21  1  0
  2  3  1  0
  2  4  1  0
  2  5  1  0
  3 22  1  0
  3 23  1  0
  3 24  1  0
  4 25  1  0
  4 26  1  0
  4 27  1  0
  5  6  1  0
  5 28  1  0
  5 29  1  0
  6  7  1  0
  6  8  1  0
  6 30  1  1
  8  9  1  0
  8 31  1  0
  8 32  1  0
  9 10  1  0
  9 33  1  0
 10 11  2  0
 10 12  1  0
 12 13  2  0
 12 17  1  0
 13 14  1  0
 13 34  1  0
 14 15  2  0
 14 35  1  0
 15 16  1  0
 16 17  2  0
 16 36  1  0
 17 18  1  0
 18 37  1  0
M  END

