
     RDKit          3D

 53 58  0  0  0  0  0  0  0  0999 V2000
    2.9978    0.9086    2.1852 C   0  0  0  0  0  0  0  0  0  0  0  0
    3.4355    0.4091    0.8289 C   0  0  0  0  0  0  0  0  0  0  0  0
    3.2372    1.1761   -0.3290 C   0  0  0  0  0  0  0  0  0  0  0  0
    3.6414    0.6990   -1.5790 C   0  0  0  0  0  0  0  0  0  0  0  0
    4.2496   -0.5523   -1.6937 C   0  0  0  0  0  0  0  0  0  0  0  0
    4.4489   -1.3466   -0.5514 C   0  0  0  0  0  0  0  0  0  0  0  0
    5.1427   -2.6654   -0.6560 C   0  0  0  0  0  0  0  0  0  0  0  0
    6.4861   -2.6803   -1.0425 C   0  0  0  0  0  0  0  0  0  0  0  0
    7.2307   -3.8801   -1.1062 C   0  0  0  0  0  0  0  0  0  0  0  0
    8.6633   -3.9144   -1.5047 C   0  0  0  0  0  0  0  0  0  0  0  0
    9.3431   -5.1484   -1.5551 C   0  0  0  0  0  0  0  0  0  0  0  0
   10.6791   -5.2145   -1.9367 C   0  0  0  0  0  0  0  0  0  0  0  0
   11.3811   -4.0525   -2.2748 C   0  0  0  0  0  0  0  0  0  0  0  0
   10.7215   -2.8090   -2.2083 C   0  0  0  0  0  0  0  0  0  0  0  0
    9.3795   -2.7508   -1.8326 C   0  0  0  0  0  0  0  0  0  0  0  0
   11.3698   -1.6400   -2.5077 O   0  0  0  0  0  0  0  0  0  0  0  0
   12.7839   -1.7450   -2.5240 C   0  0  0  0  0  0  0  0  0  0  0  0
   13.2106   -2.9903   -3.2835 C   0  0  0  0  0  0  0  0  0  0  0  0
   12.6883   -4.1522   -2.6578 O   0  0  0  0  0  0  0  0  0  0  0  0
    6.6581   -5.0515   -0.7930 N   0  0  0  0  0  0  0  0  0  0  0  0
    5.3844   -5.0466   -0.4497 C   0  0  0  0  0  0  0  0  0  0  0  0
    4.5261   -6.5305   -0.0495 S   0  0  0  0  0  0  0  0  0  0  0  0
    3.0380   -5.6332    0.1895 C   0  0  0  0  0  0  0  0  0  0  0  0
    3.1682   -4.2819   -0.0134 C   0  0  0  0  0  0  0  0  0  0  0  0
    4.5282   -3.9100   -0.3613 C   0  0  0  0  0  0  0  0  0  0  0  0
    1.9716   -3.3615    0.0898 C   0  0  0  0  0  0  0  0  0  0  0  0
    0.6450   -4.1342    0.0539 C   0  0  0  0  0  0  0  0  0  0  0  0
    0.6792   -5.3506    0.9838 C   0  0  0  0  0  0  0  0  0  0  0  0
    1.7613   -6.3460    0.5415 C   0  0  0  0  0  0  0  0  0  0  0  0
    4.0429   -0.8492    0.6966 C   0  0  0  0  0  0  0  0  0  0  0  0
    2.7813    1.9871    2.1692 H   0  0  0  0  0  0  0  0  0  0  0  0
    3.7697    0.7273    2.9500 H   0  0  0  0  0  0  0  0  0  0  0  0
    2.0823    0.3924    2.5234 H   0  0  0  0  0  0  0  0  0  0  0  0
    2.7671    2.1605   -0.2497 H   0  0  0  0  0  0  0  0  0  0  0  0
    3.4835    1.3102   -2.4715 H   0  0  0  0  0  0  0  0  0  0  0  0
    4.5661   -0.9244   -2.6712 H   0  0  0  0  0  0  0  0  0  0  0  0
    6.9624   -1.7277   -1.2720 H   0  0  0  0  0  0  0  0  0  0  0  0
    8.7939   -6.0530   -1.2950 H   0  0  0  0  0  0  0  0  0  0  0  0
   11.2086   -6.1683   -1.9895 H   0  0  0  0  0  0  0  0  0  0  0  0
    8.9262   -1.7597   -1.8006 H   0  0  0  0  0  0  0  0  0  0  0  0
   13.1743   -1.7864   -1.4892 H   0  0  0  0  0  0  0  0  0  0  0  0
   13.1689   -0.8350   -3.0076 H   0  0  0  0  0  0  0  0  0  0  0  0
   14.3055   -3.0950   -3.2927 H   0  0  0  0  0  0  0  0  0  0  0  0
   12.8529   -2.9310   -4.3289 H   0  0  0  0  0  0  0  0  0  0  0  0
    1.9988   -2.6166   -0.7204 H   0  0  0  0  0  0  0  0  0  0  0  0
    2.0309   -2.7753    1.0244 H   0  0  0  0  0  0  0  0  0  0  0  0
    0.4438   -4.4739   -0.9782 H   0  0  0  0  0  0  0  0  0  0  0  0
   -0.1831   -3.4606    0.3283 H   0  0  0  0  0  0  0  0  0  0  0  0
   -0.3010   -5.8537    1.0088 H   0  0  0  0  0  0  0  0  0  0  0  0
    0.8885   -5.0149    2.0153 H   0  0  0  0  0  0  0  0  0  0  0  0
    1.4090   -6.9184   -0.3377 H   0  0  0  0  0  0  0  0  0  0  0  0
    1.9462   -7.0953    1.3303 H   0  0  0  0  0  0  0  0  0  0  0  0
    4.2209   -1.4545    1.5901 H   0  0  0  0  0  0  0  0  0  0  0  0
  1  2  1  0
  1 31  1  0
  1 32  1  0
  1 33  1  0
  2  3  2  0
  2 30  1  0
  3  4  1  0
  3 34  1  0
  4  5  2  0
  4 35  1  0
  5  6  1  0
  5 36  1  0
  6  7  1  0
  6 30  2  0
  7  8  2  0
  7 25  1  0
  8  9  1  0
  8 37  1  0
  9 10  1  0
  9 20  2  0
 10 11  2  0
 10 15  1  0
 11 12  1  0
 11 38  1  0
 12 13  2  0
 12 39  1  0
 13 14  1  0
 13 19  1  0
 14 15  2  0
 14 16  1  0
 15 40  1  0
 16 17  1  0
 17 18  1  0
 17 41  1  0
 17 42  1  0
 18 19  1  0
 18 43  1  0
 18 44  1  0
 20 21  1  0
 21 22  1  0
 21 25  2  0
 22 23  1  0
 23 24  2  0
 23 29  1  0
 24 25  1  0
 24 26  1  0
 26 27  1  0
 26 45  1  0
 26 46  1  0
 27 28  1  0
 27 47  1  0
 27 48  1  0
 28 29  1  0
 28 49  1  0
 28 50  1  0
 29 51  1  0
 29 52  1  0
 30 53  1  0
M  END

