
     RDKit          3D

 43 46  0  0  0  0  0  0  0  0999 V2000
    1.3604    1.2539   -0.3191 C   0  0  0  0  0  0  0  0  0  0  0  0
    1.8069   -0.0581   -0.5857 O   0  0  0  0  0  0  0  0  0  0  0  0
    2.6320   -0.2895   -1.6319 C   0  0  0  0  0  0  0  0  0  0  0  0
    3.0854    0.7251   -2.4917 C   0  0  0  0  0  0  0  0  0  0  0  0
    3.9374    0.4263   -3.5564 C   0  0  0  0  0  0  0  0  0  0  0  0
    4.3538   -0.8877   -3.7851 C   0  0  0  0  0  0  0  0  0  0  0  0
    3.9094   -1.8990   -2.9385 C   0  0  0  0  0  0  0  0  0  0  0  0
    3.0499   -1.6285   -1.8567 C   0  0  0  0  0  0  0  0  0  0  0  0
    2.6448   -2.7648   -1.0317 C   0  0  0  0  0  0  0  0  0  0  0  0
    3.0055   -4.0090   -1.2016 N   0  0  0  0  0  0  0  0  0  0  0  0
    2.4031   -4.7426   -0.2140 N   0  0  0  0  0  0  0  0  0  0  0  0
    1.7053   -3.9113    0.5094 C   0  0  0  0  0  0  0  0  0  0  0  0
    0.8693   -4.1386    1.6842 C   0  0  0  0  0  0  0  0  0  0  0  0
    0.2334   -3.0555    2.2734 C   0  0  0  0  0  0  0  0  0  0  0  0
   -0.5850   -3.2277    3.4129 C   0  0  0  0  0  0  0  0  0  0  0  0
   -1.2602   -2.1525    4.0568 C   0  0  0  0  0  0  0  0  0  0  0  0
   -2.0378   -2.4085    5.1628 C   0  0  0  0  0  0  0  0  0  0  0  0
   -2.1796   -3.7238    5.6739 C   0  0  0  0  0  0  0  0  0  0  0  0
   -1.5347   -4.7947    5.0692 C   0  0  0  0  0  0  0  0  0  0  0  0
   -1.6128   -6.0722    5.4858 O   0  0  0  0  0  0  0  0  0  0  0  0
   -2.3995   -6.3840    6.6121 C   0  0  0  0  0  0  0  0  0  0  0  0
   -0.7117   -4.5626    3.9080 C   0  0  0  0  0  0  0  0  0  0  0  0
   -0.0880   -5.6126    3.3260 N   0  0  0  0  0  0  0  0  0  0  0  0
    0.6740   -5.4483    2.2638 C   0  0  0  0  0  0  0  0  0  0  0  0
    1.3198   -6.6839    1.6968 C   0  0  0  0  0  0  0  0  0  0  0  0
    1.8207   -2.6376    0.0373 O   0  0  0  0  0  0  0  0  0  0  0  0
    0.7115    1.1861    0.5640 H   0  0  0  0  0  0  0  0  0  0  0  0
    0.7776    1.6682   -1.1608 H   0  0  0  0  0  0  0  0  0  0  0  0
    2.1998    1.9356   -0.0946 H   0  0  0  0  0  0  0  0  0  0  0  0
    2.7735    1.7566   -2.3323 H   0  0  0  0  0  0  0  0  0  0  0  0
    4.2760    1.2338   -4.2107 H   0  0  0  0  0  0  0  0  0  0  0  0
    5.0203   -1.1232   -4.6174 H   0  0  0  0  0  0  0  0  0  0  0  0
    4.2169   -2.9347   -3.0913 H   0  0  0  0  0  0  0  0  0  0  0  0
    0.3660   -2.0564    1.8529 H   0  0  0  0  0  0  0  0  0  0  0  0
   -1.1517   -1.1385    3.6641 H   0  0  0  0  0  0  0  0  0  0  0  0
   -2.5615   -1.5918    5.6663 H   0  0  0  0  0  0  0  0  0  0  0  0
   -2.8051   -3.8809    6.5525 H   0  0  0  0  0  0  0  0  0  0  0  0
   -2.3153   -7.4688    6.7602 H   0  0  0  0  0  0  0  0  0  0  0  0
   -3.4625   -6.1246    6.4554 H   0  0  0  0  0  0  0  0  0  0  0  0
   -2.0391   -5.8683    7.5209 H   0  0  0  0  0  0  0  0  0  0  0  0
    1.0168   -7.5441    2.3069 H   0  0  0  0  0  0  0  0  0  0  0  0
    2.4169   -6.5957    1.6860 H   0  0  0  0  0  0  0  0  0  0  0  0
    1.0304   -6.8439    0.6470 H   0  0  0  0  0  0  0  0  0  0  0  0
  1  2  1  0
  1 27  1  0
  1 28  1  0
  1 29  1  0
  2  3  1  0
  3  4  2  0
  3  8  1  0
  4  5  1  0
  4 30  1  0
  5  6  2  0
  5 31  1  0
  6  7  1  0
  6 32  1  0
  7  8  2  0
  7 33  1  0
  8  9  1  0
  9 10  2  0
  9 26  1  0
 10 11  1  0
 11 12  2  0
 12 13  1  0
 12 26  1  0
 13 14  2  0
 13 24  1  0
 14 15  1  0
 14 34  1  0
 15 16  2  0
 15 22  1  0
 16 17  1  0
 16 35  1  0
 17 18  2  0
 17 36  1  0
 18 19  1  0
 18 37  1  0
 19 20  1  0
 19 22  2  0
 20 21  1  0
 21 38  1  0
 21 39  1  0
 21 40  1  0
 22 23  1  0
 23 24  2  0
 24 25  1  0
 25 41  1  0
 25 42  1  0
 25 43  1  0
M  END

