
     RDKit          3D

 32 32  0  0  0  0  0  0  0  0999 V2000
    1.1230    0.6537    0.1058 C   0  0  0  0  0  0  0  0  0  0  0  0
    2.5814    0.1907    0.0010 C   0  0  1  0  0  0  0  0  0  0  0  0
    2.7212   -0.9116   -1.0647 C   0  0  0  0  0  0  0  0  0  0  0  0
    3.4176    1.3675   -0.2865 N   0  0  0  0  0  0  0  0  0  0  0  0
    3.0152   -0.3413    1.3892 C   0  0  0  0  0  0  0  0  0  0  0  0
    4.4561   -0.5516    1.4823 N   0  0  0  0  0  0  0  0  0  0  0  0
    5.1720   -1.9994    1.8004 S   0  0  1  0  0  0  0  0  0  0  0  0
    4.3384   -3.0479    1.2096 O   0  0  0  0  0  0  0  0  0  0  0  0
    6.5886   -1.8492    1.4860 O   0  0  0  0  0  0  0  0  0  0  0  0
    5.0789   -2.2643    3.5983 C   0  0  0  0  0  0  0  0  0  0  0  0
    4.4994   -3.4437    4.0583 C   0  0  0  0  0  0  0  0  0  0  0  0
    4.4730   -3.7172    5.4317 C   0  0  0  0  0  0  0  0  0  0  0  0
    5.0225   -2.8190    6.3454 C   0  0  0  0  0  0  0  0  0  0  0  0
    5.5966   -1.6413    5.8729 C   0  0  0  0  0  0  0  0  0  0  0  0
    6.1149   -0.7744    6.7396 F   0  0  0  0  0  0  0  0  0  0  0  0
    5.6445   -1.3357    4.5025 C   0  0  0  0  0  0  0  0  0  0  0  0
    6.2185   -0.0925    4.0813 C   0  0  0  0  0  0  0  0  0  0  0  0
    6.6530    0.9281    3.7402 N   0  0  0  0  0  0  0  0  0  0  0  0
    0.7552    1.0031   -0.8732 H   0  0  0  0  0  0  0  0  0  0  0  0
    1.0297    1.4859    0.8209 H   0  0  0  0  0  0  0  0  0  0  0  0
    0.4657   -0.1672    0.4327 H   0  0  0  0  0  0  0  0  0  0  0  0
    2.4831   -0.5084   -2.0626 H   0  0  0  0  0  0  0  0  0  0  0  0
    2.0480   -1.7617   -0.8682 H   0  0  0  0  0  0  0  0  0  0  0  0
    3.7483   -1.3074   -1.0867 H   0  0  0  0  0  0  0  0  0  0  0  0
    3.0214    1.8943   -1.0659 H   0  0  0  0  0  0  0  0  0  0  0  0
    4.3403    1.0639   -0.6020 H   0  0  0  0  0  0  0  0  0  0  0  0
    2.5161   -1.2993    1.5946 H   0  0  0  0  0  0  0  0  0  0  0  0
    2.7066    0.3830    2.1610 H   0  0  0  0  0  0  0  0  0  0  0  0
    5.0639    0.2552    1.6102 H   0  0  0  0  0  0  0  0  0  0  0  0
    4.0760   -4.1380    3.3317 H   0  0  0  0  0  0  0  0  0  0  0  0
    4.0195   -4.6438    5.7906 H   0  0  0  0  0  0  0  0  0  0  0  0
    5.0154   -3.0067    7.4205 H   0  0  0  0  0  0  0  0  0  0  0  0
  1  2  1  0
  1 19  1  0
  1 20  1  0
  1 21  1  0
  2  3  1  0
  2  4  1  6
  2  5  1  0
  3 22  1  0
  3 23  1  0
  3 24  1  0
  4 25  1  0
  4 26  1  0
  5  6  1  0
  5 27  1  0
  5 28  1  0
  7  6  1  1
  6 29  1  0
  7  8  2  0
  7  9  2  0
  7 10  1  0
 10 11  2  0
 10 16  1  0
 11 12  1  0
 11 30  1  0
 12 13  2  0
 12 31  1  0
 13 14  1  0
 13 32  1  0
 14 15  1  0
 14 16  2  0
 16 17  1  0
 17 18  3  0
M  END

