
     RDKit          3D

 43 46  0  0  0  0  0  0  0  0999 V2000
    4.1943    1.2037    0.5120 C   0  0  0  0  0  0  0  0  0  0  0  0
    3.3403    0.0910    0.6377 O   0  0  0  0  0  0  0  0  0  0  0  0
    3.7022   -1.0911    0.0726 C   0  0  0  0  0  0  0  0  0  0  0  0
    2.7991   -2.1564    0.2257 C   0  0  0  0  0  0  0  0  0  0  0  0
    3.0832   -3.4053   -0.3157 C   0  0  0  0  0  0  0  0  0  0  0  0
    4.2814   -3.6454   -1.0213 C   0  0  0  0  0  0  0  0  0  0  0  0
    4.6228   -4.9491   -1.6099 C   0  0  0  0  0  0  0  0  0  0  0  0
    5.5189   -5.0460   -2.6288 N   0  0  0  0  0  0  0  0  0  0  0  0
    5.6608   -6.3223   -2.9555 C   0  0  0  0  0  0  0  0  0  0  0  0
    6.5392   -6.7994   -4.0330 C   0  0  0  0  0  0  0  0  0  0  0  0
    7.2444   -8.0214   -3.9909 C   0  0  0  0  0  0  0  0  0  0  0  0
    8.0907   -8.4007   -5.0270 C   0  0  0  0  0  0  0  0  0  0  0  0
    8.2727   -7.5646   -6.1417 C   0  0  0  0  0  0  0  0  0  0  0  0
    9.1125   -8.0215   -7.1038 O   0  0  0  0  0  0  0  0  0  0  0  0
    9.3570   -7.2273   -8.2428 C   0  0  0  0  0  0  0  0  0  0  0  0
    7.5986   -6.3332   -6.1885 C   0  0  0  0  0  0  0  0  0  0  0  0
    6.7486   -5.9649   -5.1450 C   0  0  0  0  0  0  0  0  0  0  0  0
    4.8451   -7.1094   -2.1621 N   0  0  0  0  0  0  0  0  0  0  0  0
    4.5684   -8.4641   -2.1834 C   0  0  0  0  0  0  0  0  0  0  0  0
    3.7138   -8.9989   -1.2644 C   0  0  0  0  0  0  0  0  0  0  0  0
    3.0994   -8.1684   -0.2739 C   0  0  0  0  0  0  0  0  0  0  0  0
    3.3258   -6.8138   -0.2869 C   0  0  0  0  0  0  0  0  0  0  0  0
    4.1786   -6.2393   -1.2658 C   0  0  0  0  0  0  0  0  0  0  0  0
    5.1650   -2.5637   -1.1798 C   0  0  0  0  0  0  0  0  0  0  0  0
    4.8901   -1.3037   -0.6445 C   0  0  0  0  0  0  0  0  0  0  0  0
    3.7062    2.0360    1.0374 H   0  0  0  0  0  0  0  0  0  0  0  0
    4.3474    1.4902   -0.5446 H   0  0  0  0  0  0  0  0  0  0  0  0
    5.1819    1.0213    0.9739 H   0  0  0  0  0  0  0  0  0  0  0  0
    1.8676   -1.9728    0.7653 H   0  0  0  0  0  0  0  0  0  0  0  0
    2.3388   -4.1967   -0.2145 H   0  0  0  0  0  0  0  0  0  0  0  0
    7.1677   -8.6739   -3.1192 H   0  0  0  0  0  0  0  0  0  0  0  0
    8.6417   -9.3426   -4.9900 H   0  0  0  0  0  0  0  0  0  0  0  0
   10.0600   -7.7900   -8.8719 H   0  0  0  0  0  0  0  0  0  0  0  0
    9.8132   -6.2564   -7.9779 H   0  0  0  0  0  0  0  0  0  0  0  0
    8.4334   -7.0394   -8.8199 H   0  0  0  0  0  0  0  0  0  0  0  0
    7.7254   -5.6551   -7.0326 H   0  0  0  0  0  0  0  0  0  0  0  0
    6.2305   -5.0049   -5.1787 H   0  0  0  0  0  0  0  0  0  0  0  0
    5.0497   -9.0470   -2.9658 H   0  0  0  0  0  0  0  0  0  0  0  0
    3.5069  -10.0698   -1.2993 H   0  0  0  0  0  0  0  0  0  0  0  0
    2.4482   -8.6135    0.4807 H   0  0  0  0  0  0  0  0  0  0  0  0
    2.8625   -6.1626    0.4540 H   0  0  0  0  0  0  0  0  0  0  0  0
    6.0880   -2.7271   -1.7388 H   0  0  0  0  0  0  0  0  0  0  0  0
    5.6098   -0.4977   -0.7909 H   0  0  0  0  0  0  0  0  0  0  0  0
  1  2  1  0
  1 26  1  0
  1 27  1  0
  1 28  1  0
  2  3  1  0
  3  4  2  0
  3 25  1  0
  4  5  1  0
  4 29  1  0
  5  6  2  0
  5 30  1  0
  6  7  1  0
  6 24  1  0
  7  8  1  0
  7 23  2  0
  8  9  2  0
  9 10  1  0
  9 18  1  0
 10 11  2  0
 10 17  1  0
 11 12  1  0
 11 31  1  0
 12 13  2  0
 12 32  1  0
 13 14  1  0
 13 16  1  0
 14 15  1  0
 15 33  1  0
 15 34  1  0
 15 35  1  0
 16 17  2  0
 16 36  1  0
 17 37  1  0
 18 19  1  0
 18 23  1  0
 19 20  2  0
 19 38  1  0
 20 21  1  0
 20 39  1  0
 21 22  2  0
 21 40  1  0
 22 23  1  0
 22 41  1  0
 24 25  2  0
 24 42  1  0
 25 43  1  0
M  END

