
     RDKit          3D

 34 36  0  0  0  0  0  0  0  0999 V2000
    0.9463    0.3079    0.5449 C   0  0  0  0  0  0  0  0  0  0  0  0
    2.4007    0.0050    0.3394 C   0  0  0  0  0  0  0  0  0  0  0  0
    3.5427    1.3384    0.4766 S   0  0  0  0  0  0  0  0  0  0  0  0
    4.8882    0.2793    0.1402 C   0  0  0  0  0  0  0  0  0  0  0  0
    6.1570    0.7071    0.0928 N   0  0  0  0  0  0  0  0  0  0  0  0
    7.0368   -0.2467   -0.1775 C   0  0  0  0  0  0  0  0  0  0  0  0
    8.5050    0.1465   -0.1874 C   0  0  0  0  0  0  0  0  0  0  0  0
    9.2265   -0.3412   -1.3563 N   0  0  0  0  0  0  0  0  0  0  0  0
    9.4103    0.3328   -2.5344 C   0  0  0  0  0  0  0  0  0  0  0  0
   10.0725   -0.5405   -3.3791 C   0  0  0  0  0  0  0  0  0  0  0  0
   10.2914   -1.7297   -2.7557 N   0  0  0  0  0  0  0  0  0  0  0  0
    9.7718   -1.5923   -1.5458 C   0  0  0  0  0  0  0  0  0  0  0  0
    9.7518   -2.6069   -0.5428 C   0  0  0  0  0  0  0  0  0  0  0  0
    9.7301   -3.4378    0.2688 N   0  0  0  0  0  0  0  0  0  0  0  0
    6.7762   -1.5368   -0.4034 N   0  0  0  0  0  0  0  0  0  0  0  0
    5.5118   -1.9686   -0.3493 C   0  0  0  0  0  0  0  0  0  0  0  0
    5.3086   -3.2963   -0.5621 N   0  0  0  0  0  0  0  0  0  0  0  0
    6.3344   -4.2150   -0.7880 N   0  0  0  0  0  0  0  0  0  0  0  0
    4.4522   -1.0448   -0.0665 C   0  0  0  0  0  0  0  0  0  0  0  0
    3.0134   -1.1921    0.0515 C   0  0  0  0  0  0  0  0  0  0  0  0
    2.2866   -2.5004   -0.1234 C   0  0  0  0  0  0  0  0  0  0  0  0
    0.7562    0.7066    1.5556 H   0  0  0  0  0  0  0  0  0  0  0  0
    0.3280   -0.5912    0.4211 H   0  0  0  0  0  0  0  0  0  0  0  0
    0.5858    1.0625   -0.1743 H   0  0  0  0  0  0  0  0  0  0  0  0
    8.9923   -0.2653    0.7108 H   0  0  0  0  0  0  0  0  0  0  0  0
    8.5831    1.2396   -0.1486 H   0  0  0  0  0  0  0  0  0  0  0  0
    9.0668    1.3561   -2.6659 H   0  0  0  0  0  0  0  0  0  0  0  0
   10.4022   -0.3586   -4.4011 H   0  0  0  0  0  0  0  0  0  0  0  0
    4.3825   -3.6892   -0.4813 H   0  0  0  0  0  0  0  0  0  0  0  0
    7.0435   -4.1160   -0.0560 H   0  0  0  0  0  0  0  0  0  0  0  0
    6.8149   -3.9664   -1.6560 H   0  0  0  0  0  0  0  0  0  0  0  0
    2.6036   -3.2448    0.6276 H   0  0  0  0  0  0  0  0  0  0  0  0
    2.4633   -2.9316   -1.1236 H   0  0  0  0  0  0  0  0  0  0  0  0
    1.2006   -2.3843   -0.0144 H   0  0  0  0  0  0  0  0  0  0  0  0
  1  2  1  0
  1 22  1  0
  1 23  1  0
  1 24  1  0
  2  3  1  0
  2 20  2  0
  3  4  1  0
  4  5  2  0
  4 19  1  0
  5  6  1  0
  6  7  1  0
  6 15  2  0
  7  8  1  0
  7 25  1  0
  7 26  1  0
  8  9  1  0
  8 12  1  0
  9 10  2  0
  9 27  1  0
 10 11  1  0
 10 28  1  0
 11 12  2  0
 12 13  1  0
 13 14  3  0
 15 16  1  0
 16 17  1  0
 16 19  2  0
 17 18  1  0
 17 29  1  0
 18 30  1  0
 18 31  1  0
 19 20  1  0
 20 21  1  0
 21 32  1  0
 21 33  1  0
 21 34  1  0
M  END

