
     RDKit          3D

 39 40  0  0  0  0  0  0  0  0999 V2000
    1.0381    0.5466    0.7977 C   0  0  0  0  0  0  0  0  0  0  0  0
    2.4870    0.4397    0.3869 C   0  0  0  0  0  0  0  0  0  0  0  0
    3.2889    1.5810    0.2509 C   0  0  0  0  0  0  0  0  0  0  0  0
    4.6375    1.5188   -0.1055 C   0  0  0  0  0  0  0  0  0  0  0  0
    5.2312    0.2663   -0.3277 C   0  0  0  0  0  0  0  0  0  0  0  0
    6.5874    0.0966   -0.6738 N   0  0  0  0  0  0  0  0  0  0  0  0
    7.5532    1.0500   -0.8780 C   0  0  0  0  0  0  0  0  0  0  0  0
    7.3698    2.2538   -0.7836 O   0  0  0  0  0  0  0  0  0  0  0  0
    8.8987    0.4844   -1.2455 C   0  0  1  0  0  0  0  0  0  0  0  0
    9.7399    1.2568   -2.2187 C   0  0  0  0  0  0  0  0  0  0  0  0
   10.1143    1.2673   -0.7611 C   0  0  2  0  0  0  0  0  0  0  0  0
   11.3054    0.4592   -0.3397 C   0  0  0  0  0  0  0  0  0  0  0  0
   11.6148   -0.5866   -0.8480 O   0  0  0  0  0  0  0  0  0  0  0  0
   12.0377    0.9796    0.6680 O   0  0  0  0  0  0  0  0  0  0  0  0
    4.4450   -0.8901   -0.1934 C   0  0  0  0  0  0  0  0  0  0  0  0
    3.0918   -0.8119    0.1413 C   0  0  0  0  0  0  0  0  0  0  0  0
    2.3347   -2.1054    0.3656 C   0  0  0  0  0  0  0  0  0  0  0  0
    2.5132   -2.7431    1.3926 O   0  0  0  0  0  0  0  0  0  0  0  0
    1.4543   -2.5045   -0.6126 N   0  0  0  0  0  0  0  0  0  0  0  0
    1.2985   -1.8592   -1.9008 C   0  0  0  0  0  0  0  0  0  0  0  0
    0.6886   -3.7224   -0.4140 C   0  0  0  0  0  0  0  0  0  0  0  0
    0.7829    1.5780    1.0811 H   0  0  0  0  0  0  0  0  0  0  0  0
    0.8190   -0.1058    1.6582 H   0  0  0  0  0  0  0  0  0  0  0  0
    0.3548    0.2471   -0.0148 H   0  0  0  0  0  0  0  0  0  0  0  0
    2.8457    2.5632    0.4385 H   0  0  0  0  0  0  0  0  0  0  0  0
    5.2354    2.4214   -0.2046 H   0  0  0  0  0  0  0  0  0  0  0  0
    6.8846   -0.8663   -0.7806 H   0  0  0  0  0  0  0  0  0  0  0  0
    9.0247   -0.6020   -1.2503 H   0  0  0  0  0  0  0  0  0  0  0  0
    9.3100    2.1787   -2.6172 H   0  0  0  0  0  0  0  0  0  0  0  0
   10.3827    0.6770   -2.8852 H   0  0  0  0  0  0  0  0  0  0  0  0
    9.8776    2.1831   -0.2109 H   0  0  0  0  0  0  0  0  0  0  0  0
   11.6569    1.8180    0.9657 H   0  0  0  0  0  0  0  0  0  0  0  0
    4.8985   -1.8746   -0.3445 H   0  0  0  0  0  0  0  0  0  0  0  0
    1.9265   -0.9633   -1.9661 H   0  0  0  0  0  0  0  0  0  0  0  0
    0.2471   -1.5636   -2.0688 H   0  0  0  0  0  0  0  0  0  0  0  0
    1.5860   -2.5435   -2.7204 H   0  0  0  0  0  0  0  0  0  0  0  0
    0.8852   -4.0994    0.5963 H   0  0  0  0  0  0  0  0  0  0  0  0
    0.9767   -4.4956   -1.1493 H   0  0  0  0  0  0  0  0  0  0  0  0
   -0.3911   -3.5247   -0.5322 H   0  0  0  0  0  0  0  0  0  0  0  0
  1  2  1  0
  1 22  1  0
  1 23  1  0
  1 24  1  0
  2  3  2  0
  2 16  1  0
  3  4  1  0
  3 25  1  0
  4  5  2  0
  4 26  1  0
  5  6  1  0
  5 15  1  0
  6  7  1  0
  6 27  1  0
  7  8  2  0
  7  9  1  0
  9 10  1  0
  9 11  1  0
  9 28  1  6
 10 11  1  0
 10 29  1  0
 10 30  1  0
 11 12  1  0
 11 31  1  1
 12 13  2  0
 12 14  1  0
 14 32  1  0
 15 16  2  0
 15 33  1  0
 16 17  1  0
 17 18  2  0
 17 19  1  0
 19 20  1  0
 19 21  1  0
 20 34  1  0
 20 35  1  0
 20 36  1  0
 21 37  1  0
 21 38  1  0
 21 39  1  0
M  END

