
     RDKit          3D

 37 39  0  0  0  0  0  0  0  0999 V2000
    2.4869   -0.5801    0.9476 O   0  0  0  0  0  0  0  0  0  0  0  0
    2.4115    0.0801   -0.3619 S   0  0  1  0  0  0  0  0  0  0  0  0
    3.1864    1.3031   -0.6237 O   0  0  0  0  0  0  0  0  0  0  0  0
    2.8823   -0.9900   -1.6041 N   0  0  0  0  0  0  0  0  0  0  0  0
    2.7879   -2.4080   -1.4138 C   0  0  0  0  0  0  0  0  0  0  0  0
    1.8181   -3.1253   -2.1266 C   0  0  0  0  0  0  0  0  0  0  0  0
    1.6844   -4.5121   -1.9867 C   0  0  0  0  0  0  0  0  0  0  0  0
    2.5505   -5.1774   -1.1121 C   0  0  0  0  0  0  0  0  0  0  0  0
    3.5308   -4.4624   -0.3869 C   0  0  0  0  0  0  0  0  0  0  0  0
    3.6525   -3.0911   -0.5316 C   0  0  0  0  0  0  0  0  0  0  0  0
    4.3254   -5.4564    0.4352 C   0  0  0  0  0  0  0  0  0  0  0  0
    3.4271   -6.7165    0.3957 C   0  0  0  0  0  0  0  0  0  0  0  0
    2.6332   -6.5312   -0.8256 N   0  0  0  0  0  0  0  0  0  0  0  0
    0.6313    0.3424   -0.7256 C   0  0  1  0  0  0  0  0  0  0  0  0
   -0.0594    1.0386    0.4590 C   0  0  0  0  0  0  0  0  0  0  0  0
    0.1714    2.5518    0.4419 C   0  0  0  0  0  0  0  0  0  0  0  0
   -0.2112    3.1138   -0.7988 O   0  0  0  0  0  0  0  0  0  0  0  0
    0.5663    2.6212   -1.8747 C   0  0  0  0  0  0  0  0  0  0  0  0
    0.4058    1.1051   -2.0397 C   0  0  0  0  0  0  0  0  0  0  0  0
    3.7732   -0.6382   -1.9567 H   0  0  0  0  0  0  0  0  0  0  0  0
    1.1632   -2.5800   -2.8101 H   0  0  0  0  0  0  0  0  0  0  0  0
    0.9235   -5.0558   -2.5516 H   0  0  0  0  0  0  0  0  0  0  0  0
    4.3901   -2.5259    0.0422 H   0  0  0  0  0  0  0  0  0  0  0  0
    4.5322   -5.1193    1.4617 H   0  0  0  0  0  0  0  0  0  0  0  0
    5.2990   -5.6577   -0.0471 H   0  0  0  0  0  0  0  0  0  0  0  0
    2.7791   -6.7539    1.2944 H   0  0  0  0  0  0  0  0  0  0  0  0
    4.0052   -7.6526    0.3594 H   0  0  0  0  0  0  0  0  0  0  0  0
    1.8097   -7.1078   -0.9564 H   0  0  0  0  0  0  0  0  0  0  0  0
    0.2752   -0.6966   -0.8107 H   0  0  0  0  0  0  0  0  0  0  0  0
    0.2741    0.5958    1.4097 H   0  0  0  0  0  0  0  0  0  0  0  0
   -1.1416    0.8455    0.3637 H   0  0  0  0  0  0  0  0  0  0  0  0
    1.2339    2.7782    0.6587 H   0  0  0  0  0  0  0  0  0  0  0  0
   -0.4428    3.0399    1.2139 H   0  0  0  0  0  0  0  0  0  0  0  0
    1.6325    2.8706   -1.7262 H   0  0  0  0  0  0  0  0  0  0  0  0
    0.2132    3.1375   -2.7805 H   0  0  0  0  0  0  0  0  0  0  0  0
    1.0743    0.7262   -2.8287 H   0  0  0  0  0  0  0  0  0  0  0  0
   -0.6284    0.8910   -2.3607 H   0  0  0  0  0  0  0  0  0  0  0  0
  1  2  2  0
  2  3  2  0
  2  4  1  6
  2 14  1  0
  4  5  1  0
  4 20  1  0
  5  6  2  0
  5 10  1  0
  6  7  1  0
  6 21  1  0
  7  8  2  0
  7 22  1  0
  8  9  1  0
  8 13  1  0
  9 10  2  0
  9 11  1  0
 10 23  1  0
 11 12  1  0
 11 24  1  0
 11 25  1  0
 12 13  1  0
 12 26  1  0
 12 27  1  0
 13 28  1  0
 14 15  1  0
 14 19  1  0
 14 29  1  6
 15 16  1  0
 15 30  1  0
 15 31  1  0
 16 17  1  0
 16 32  1  0
 16 33  1  0
 17 18  1  0
 18 19  1  0
 18 34  1  0
 18 35  1  0
 19 36  1  0
 19 37  1  0
M  END

