
     RDKit          3D

 59 61  0  0  0  0  0  0  0  0999 V2000
    4.5458    1.0179    2.2058 C   0  0  0  0  0  0  0  0  0  0  0  0
    3.8301    0.6964    0.9997 N   0  0  0  0  0  0  0  0  0  0  0  0
    2.7652   -0.0218    1.0685 C   0  0  0  0  0  0  0  0  0  0  0  0
    2.2699   -0.6065    2.2298 N   0  0  0  0  0  0  0  0  0  0  0  0
    0.8766   -0.9943    2.4183 C   0  0  0  0  0  0  0  0  0  0  0  0
    0.6546   -1.5794    3.7974 C   0  0  0  0  0  0  0  0  0  0  0  0
   -0.3874   -1.1254    4.6154 C   0  0  0  0  0  0  0  0  0  0  0  0
   -0.6100   -1.6824    5.8787 C   0  0  0  0  0  0  0  0  0  0  0  0
    0.2107   -2.7098    6.3565 C   0  0  0  0  0  0  0  0  0  0  0  0
    0.0178   -3.3006    7.7356 C   0  0  0  0  0  0  0  0  0  0  0  0
   -1.2701   -3.0187    8.2213 O   0  0  0  0  0  0  0  0  0  0  0  0
   -1.5153   -3.3687    9.5802 C   0  0  1  0  0  0  0  0  0  0  0  0
   -2.7604   -2.5966   10.0279 C   0  0  0  0  0  0  0  0  0  0  0  0
   -4.0199   -3.1483    9.3556 C   0  0  0  0  0  0  0  0  0  0  0  0
   -4.1672   -4.5365    9.5902 O   0  0  0  0  0  0  0  0  0  0  0  0
   -3.0796   -5.2896    9.0900 C   0  0  0  0  0  0  0  0  0  0  0  0
   -1.7612   -4.8789    9.7496 C   0  0  0  0  0  0  0  0  0  0  0  0
    1.2554   -3.1687    5.5387 C   0  0  0  0  0  0  0  0  0  0  0  0
    1.4772   -2.6113    4.2802 C   0  0  0  0  0  0  0  0  0  0  0  0
    2.0052   -0.2565   -0.0672 N   0  0  0  0  0  0  0  0  0  0  0  0
    2.4932    0.1710   -1.3753 C   0  0  1  0  0  0  0  0  0  0  0  0
    3.4907   -0.8251   -1.9935 C   0  0  0  0  0  0  0  0  0  0  0  0
    1.3290    0.4778   -2.3059 C   0  0  0  0  0  0  0  0  0  0  0  0
    1.2235    1.7084   -2.9702 C   0  0  0  0  0  0  0  0  0  0  0  0
    0.1756    1.9939   -3.8502 C   0  0  0  0  0  0  0  0  0  0  0  0
   -0.7954    1.0208   -4.0694 C   0  0  0  0  0  0  0  0  0  0  0  0
   -1.8100    1.2751   -4.9060 F   0  0  0  0  0  0  0  0  0  0  0  0
   -0.7424   -0.2191   -3.4356 C   0  0  0  0  0  0  0  0  0  0  0  0
    0.3227   -0.4581   -2.5739 C   0  0  0  0  0  0  0  0  0  0  0  0
    0.3734   -1.6626   -1.9591 F   0  0  0  0  0  0  0  0  0  0  0  0
    5.3454    1.7433    1.9875 H   0  0  0  0  0  0  0  0  0  0  0  0
    5.0372    0.1352    2.6684 H   0  0  0  0  0  0  0  0  0  0  0  0
    3.9121    1.4783    2.9975 H   0  0  0  0  0  0  0  0  0  0  0  0
    2.7192   -0.2723    3.0746 H   0  0  0  0  0  0  0  0  0  0  0  0
    0.6052   -1.7597    1.6683 H   0  0  0  0  0  0  0  0  0  0  0  0
    0.1829   -0.1473    2.2573 H   0  0  0  0  0  0  0  0  0  0  0  0
   -1.0389   -0.3214    4.2607 H   0  0  0  0  0  0  0  0  0  0  0  0
   -1.4278   -1.3233    6.5046 H   0  0  0  0  0  0  0  0  0  0  0  0
    0.7826   -2.8810    8.4260 H   0  0  0  0  0  0  0  0  0  0  0  0
    0.2100   -4.3915    7.6913 H   0  0  0  0  0  0  0  0  0  0  0  0
   -0.6430   -3.0608   10.1913 H   0  0  0  0  0  0  0  0  0  0  0  0
   -2.6349   -1.5270    9.7940 H   0  0  0  0  0  0  0  0  0  0  0  0
   -2.8618   -2.6940   11.1215 H   0  0  0  0  0  0  0  0  0  0  0  0
   -3.9799   -2.9449    8.2668 H   0  0  0  0  0  0  0  0  0  0  0  0
   -4.9229   -2.6636    9.7575 H   0  0  0  0  0  0  0  0  0  0  0  0
   -2.9983   -5.1640    7.9911 H   0  0  0  0  0  0  0  0  0  0  0  0
   -3.3081   -6.3472    9.2929 H   0  0  0  0  0  0  0  0  0  0  0  0
   -0.9260   -5.4655    9.3320 H   0  0  0  0  0  0  0  0  0  0  0  0
   -1.8054   -5.1081   10.8278 H   0  0  0  0  0  0  0  0  0  0  0  0
    1.9028   -3.9787    5.8892 H   0  0  0  0  0  0  0  0  0  0  0  0
    2.2967   -2.9799    3.6577 H   0  0  0  0  0  0  0  0  0  0  0  0
    1.4526   -1.1057   -0.0730 H   0  0  0  0  0  0  0  0  0  0  0  0
    3.0353    1.1073   -1.1856 H   0  0  0  0  0  0  0  0  0  0  0  0
    3.0176   -1.8040   -2.1708 H   0  0  0  0  0  0  0  0  0  0  0  0
    4.3424   -0.9548   -1.3097 H   0  0  0  0  0  0  0  0  0  0  0  0
    3.8731   -0.4507   -2.9564 H   0  0  0  0  0  0  0  0  0  0  0  0
    1.9879    2.4680   -2.7874 H   0  0  0  0  0  0  0  0  0  0  0  0
    0.1004    2.9549   -4.3615 H   0  0  0  0  0  0  0  0  0  0  0  0
   -1.5058   -0.9782   -3.6087 H   0  0  0  0  0  0  0  0  0  0  0  0
  1  2  1  0
  1 31  1  0
  1 32  1  0
  1 33  1  0
  2  3  2  0
  3  4  1  0
  3 20  1  0
  4  5  1  0
  4 34  1  0
  5  6  1  0
  5 35  1  0
  5 36  1  0
  6  7  2  0
  6 19  1  0
  7  8  1  0
  7 37  1  0
  8  9  2  0
  8 38  1  0
  9 10  1  0
  9 18  1  0
 10 11  1  0
 10 39  1  0
 10 40  1  0
 11 12  1  0
 12 13  1  0
 12 17  1  0
 12 41  1  1
 13 14  1  0
 13 42  1  0
 13 43  1  0
 14 15  1  0
 14 44  1  0
 14 45  1  0
 15 16  1  0
 16 17  1  0
 16 46  1  0
 16 47  1  0
 17 48  1  0
 17 49  1  0
 18 19  2  0
 18 50  1  0
 19 51  1  0
 20 21  1  0
 20 52  1  0
 21 22  1  0
 21 23  1  0
 21 53  1  1
 22 54  1  0
 22 55  1  0
 22 56  1  0
 23 24  2  0
 23 29  1  0
 24 25  1  0
 24 57  1  0
 25 26  2  0
 25 58  1  0
 26 27  1  0
 26 28  1  0
 28 29  2  0
 28 59  1  0
 29 30  1  0
M  END

