
     RDKit          3D

 56 59  0  0  0  0  0  0  0  0999 V2000
    7.9593    1.5074   -7.5238 C   0  0  0  0  0  0  0  0  0  0  0  0
    7.1465    0.6461   -6.6069 C   0  0  0  0  0  0  0  0  0  0  0  0
    5.7839    0.2589   -6.7332 C   0  0  0  0  0  0  0  0  0  0  0  0
    5.5109   -0.5275   -5.6287 C   0  0  0  0  0  0  0  0  0  0  0  0
    4.2494   -1.2533   -5.2803 C   0  0  0  0  0  0  0  0  0  0  0  0
    6.6840   -0.5696   -4.9029 N   0  0  0  0  0  0  0  0  0  0  0  0
    6.9867   -1.2789   -3.7125 C   0  0  0  0  0  0  0  0  0  0  0  0
    6.0495   -1.4101   -2.6775 C   0  0  0  0  0  0  0  0  0  0  0  0
    6.3841   -2.1176   -1.5219 C   0  0  0  0  0  0  0  0  0  0  0  0
    7.6537   -2.6894   -1.3633 C   0  0  0  0  0  0  0  0  0  0  0  0
    7.9925   -3.4673   -0.1173 C   0  0  0  0  0  0  0  0  0  0  0  0
    7.5953   -4.8572   -0.2191 O   0  0  0  0  0  0  0  0  0  0  0  0
    8.4793   -5.7218   -0.7432 C   0  0  0  0  0  0  0  0  0  0  0  0
    9.5944   -5.4181   -1.1026 O   0  0  0  0  0  0  0  0  0  0  0  0
    7.9303   -7.1127   -0.8251 C   0  0  0  0  0  0  0  0  0  0  0  0
    8.7597   -8.1213   -1.3385 C   0  0  0  0  0  0  0  0  0  0  0  0
    8.2898   -9.4310   -1.4533 C   0  0  0  0  0  0  0  0  0  0  0  0
    6.9904   -9.7483   -1.0497 C   0  0  0  0  0  0  0  0  0  0  0  0
    6.1744   -8.7390   -0.5249 C   0  0  0  0  0  0  0  0  0  0  0  0
    4.5053   -9.1543    0.0213 S   0  0  1  0  0  0  0  0  0  0  0  0
    3.7337   -7.9111    0.0327 O   0  0  0  0  0  0  0  0  0  0  0  0
    4.0955  -10.3445   -0.7205 O   0  0  0  0  0  0  0  0  0  0  0  0
    4.6227   -9.6391    1.6163 N   0  0  0  0  0  0  0  0  0  0  0  0
    4.9132   -8.6688    2.6758 C   0  0  0  0  0  0  0  0  0  0  0  0
    4.6619   -9.2607    4.0194 C   0  0  0  0  0  0  0  0  0  0  0  0
    3.7500   -9.0158    5.0081 C   0  0  0  0  0  0  0  0  0  0  0  0
    4.0382   -9.9450    6.0636 C   0  0  0  0  0  0  0  0  0  0  0  0
    5.0983  -10.6878    5.6322 C   0  0  0  0  0  0  0  0  0  0  0  0
    5.4866  -10.2807    4.3955 O   0  0  0  0  0  0  0  0  0  0  0  0
    6.6236   -7.4219   -0.4190 C   0  0  0  0  0  0  0  0  0  0  0  0
    8.5910   -2.5324   -2.3980 C   0  0  0  0  0  0  0  0  0  0  0  0
    8.2662   -1.8369   -3.5601 C   0  0  0  0  0  0  0  0  0  0  0  0
    7.6763    0.1336   -5.5057 N   0  0  0  0  0  0  0  0  0  0  0  0
    7.9871    1.0925   -8.5449 H   0  0  0  0  0  0  0  0  0  0  0  0
    8.9897    1.5825   -7.1496 H   0  0  0  0  0  0  0  0  0  0  0  0
    7.5412    2.5252   -7.5966 H   0  0  0  0  0  0  0  0  0  0  0  0
    5.0898    0.5069   -7.5339 H   0  0  0  0  0  0  0  0  0  0  0  0
    3.6157   -1.3254   -6.1754 H   0  0  0  0  0  0  0  0  0  0  0  0
    3.6612   -0.7347   -4.5047 H   0  0  0  0  0  0  0  0  0  0  0  0
    4.4465   -2.2739   -4.9178 H   0  0  0  0  0  0  0  0  0  0  0  0
    5.0717   -0.9369   -2.7550 H   0  0  0  0  0  0  0  0  0  0  0  0
    5.6444   -2.2089   -0.7215 H   0  0  0  0  0  0  0  0  0  0  0  0
    7.4295   -3.0889    0.7464 H   0  0  0  0  0  0  0  0  0  0  0  0
    9.0687   -3.4258    0.0970 H   0  0  0  0  0  0  0  0  0  0  0  0
    9.7701   -7.8524   -1.6519 H   0  0  0  0  0  0  0  0  0  0  0  0
    8.9344  -10.2089   -1.8690 H   0  0  0  0  0  0  0  0  0  0  0  0
    6.5958  -10.7608   -1.1556 H   0  0  0  0  0  0  0  0  0  0  0  0
    5.0567  -10.5554    1.7154 H   0  0  0  0  0  0  0  0  0  0  0  0
    4.2451   -7.8092    2.5345 H   0  0  0  0  0  0  0  0  0  0  0  0
    5.9576   -8.3000    2.6230 H   0  0  0  0  0  0  0  0  0  0  0  0
    2.9638   -8.2642    4.9840 H   0  0  0  0  0  0  0  0  0  0  0  0
    3.5206  -10.0457    7.0152 H   0  0  0  0  0  0  0  0  0  0  0  0
    5.6670  -11.5045    6.0691 H   0  0  0  0  0  0  0  0  0  0  0  0
    5.9603   -6.6414   -0.0475 H   0  0  0  0  0  0  0  0  0  0  0  0
    9.5821   -2.9794   -2.2939 H   0  0  0  0  0  0  0  0  0  0  0  0
    8.9929   -1.7062   -4.3615 H   0  0  0  0  0  0  0  0  0  0  0  0
  1  2  1  0
  1 34  1  0
  1 35  1  0
  1 36  1  0
  2  3  1  0
  2 33  2  0
  3  4  2  0
  3 37  1  0
  4  5  1  0
  4  6  1  0
  5 38  1  0
  5 39  1  0
  5 40  1  0
  6  7  1  0
  6 33  1  0
  7  8  2  0
  7 32  1  0
  8  9  1  0
  8 41  1  0
  9 10  2  0
  9 42  1  0
 10 11  1  0
 10 31  1  0
 11 12  1  0
 11 43  1  0
 11 44  1  0
 12 13  1  0
 13 14  2  0
 13 15  1  0
 15 16  2  0
 15 30  1  0
 16 17  1  0
 16 45  1  0
 17 18  2  0
 17 46  1  0
 18 19  1  0
 18 47  1  0
 19 20  1  0
 19 30  2  0
 20 21  2  0
 20 22  2  0
 20 23  1  1
 23 24  1  0
 23 48  1  0
 24 25  1  0
 24 49  1  0
 24 50  1  0
 25 26  2  0
 25 29  1  0
 26 27  1  0
 26 51  1  0
 27 28  2  0
 27 52  1  0
 28 29  1  0
 28 53  1  0
 30 54  1  0
 31 32  2  0
 31 55  1  0
 32 56  1  0
M  END

