
     RDKit          3D

 76 81  0  0  0  0  0  0  0  0999 V2000
    0.7470   -0.7817    1.1315 C   0  0  0  0  0  0  0  0  0  0  0  0
    2.2413   -0.6489    0.9787 C   0  0  0  0  0  0  0  0  0  0  0  0
    2.8861    0.5694    1.3305 C   0  0  0  0  0  0  0  0  0  0  0  0
    4.2483    0.7304    1.1963 C   0  0  0  0  0  0  0  0  0  0  0  0
    5.0572   -0.3275    0.7013 C   0  0  0  0  0  0  0  0  0  0  0  0
    6.4013   -0.1448    0.5636 N   0  0  0  0  0  0  0  0  0  0  0  0
    7.0955   -1.1620    0.0947 C   0  0  0  0  0  0  0  0  0  0  0  0
    8.6046   -0.9743   -0.0797 C   0  0  0  0  0  0  0  0  0  0  0  0
    9.3227   -1.8638   -0.5018 O   0  0  0  0  0  0  0  0  0  0  0  0
    9.0267    0.2672    0.2787 N   0  0  0  0  0  0  0  0  0  0  0  0
   10.4149    0.6965    0.2137 C   0  0  1  0  0  0  0  0  0  0  0  0
   10.5123    1.9568   -0.6644 C   0  0  0  0  0  0  0  0  0  0  0  0
   11.8991    2.5982   -0.8217 C   0  0  0  0  0  0  0  0  0  0  0  0
   12.4297    3.2825    0.4491 C   0  0  0  0  0  0  0  0  0  0  0  0
   13.1307    2.3694    1.4733 C   0  0  0  0  0  0  0  0  0  0  0  0
   12.5490    0.9549    1.6481 C   0  0  0  0  0  0  0  0  0  0  0  0
   11.0168    0.8277    1.6295 C   0  0  0  0  0  0  0  0  0  0  0  0
    6.6182   -2.3716   -0.2454 N   0  0  0  0  0  0  0  0  0  0  0  0
    5.3190   -2.5950   -0.1265 C   0  0  0  0  0  0  0  0  0  0  0  0
    4.8400   -3.8188   -0.4910 N   0  0  0  0  0  0  0  0  0  0  0  0
    5.7049   -4.9441   -0.8675 C   0  0  1  0  0  0  0  0  0  0  0  0
    6.5989   -4.4903   -1.3147 H   0  0  0  0  0  0  0  0  0  0  0  0
    6.1333   -5.7897    0.3476 C   0  0  0  0  0  0  0  0  0  0  0  0
    4.9701   -6.5832    0.9569 C   0  0  0  0  0  0  0  0  0  0  0  0
    4.2711   -7.4496   -0.0995 C   0  0  0  0  0  0  0  0  0  0  0  0
    3.8206   -6.6187   -1.3080 C   0  0  0  0  0  0  0  0  0  0  0  0
    4.9958   -5.8245   -1.9157 C   0  0  1  0  0  0  0  0  0  0  0  0
    5.7322   -6.5661   -2.2691 H   0  0  0  0  0  0  0  0  0  0  0  0
    4.6183   -5.0266   -3.0665 N   0  0  0  0  0  0  0  0  0  0  0  0
    4.4172   -5.5627   -4.3018 C   0  0  0  0  0  0  0  0  0  0  0  0
    4.5464   -6.8256   -4.5699 N   0  0  0  0  0  0  0  0  0  0  0  0
    4.2842   -7.0178   -5.9886 C   0  0  0  0  0  0  0  0  0  0  0  0
    3.9549   -5.6520   -6.5488 C   0  0  0  0  0  0  0  0  0  0  0  0
    3.6200   -5.2073   -7.8265 C   0  0  0  0  0  0  0  0  0  0  0  0
    3.3753   -3.8405   -8.0173 C   0  0  0  0  0  0  0  0  0  0  0  0
    3.4678   -2.9357   -6.9493 C   0  0  0  0  0  0  0  0  0  0  0  0
    3.8059   -3.3800   -5.6662 C   0  0  0  0  0  0  0  0  0  0  0  0
    4.0438   -4.7443   -5.4813 C   0  0  0  0  0  0  0  0  0  0  0  0
    4.4273   -1.5580    0.3562 C   0  0  0  0  0  0  0  0  0  0  0  0
    3.0239   -1.6881    0.4969 C   0  0  0  0  0  0  0  0  0  0  0  0
    0.2155   -0.0246    0.5306 H   0  0  0  0  0  0  0  0  0  0  0  0
    0.4387   -0.6305    2.1797 H   0  0  0  0  0  0  0  0  0  0  0  0
    0.3911   -1.7732    0.8155 H   0  0  0  0  0  0  0  0  0  0  0  0
    2.2806    1.3965    1.7127 H   0  0  0  0  0  0  0  0  0  0  0  0
    4.7432    1.6669    1.4607 H   0  0  0  0  0  0  0  0  0  0  0  0
    8.3048    0.8971    0.6198 H   0  0  0  0  0  0  0  0  0  0  0  0
   10.9443   -0.1286   -0.2896 H   0  0  0  0  0  0  0  0  0  0  0  0
    9.8221    2.7214   -0.2583 H   0  0  0  0  0  0  0  0  0  0  0  0
   10.1175    1.6914   -1.6593 H   0  0  0  0  0  0  0  0  0  0  0  0
   11.8194    3.3565   -1.6188 H   0  0  0  0  0  0  0  0  0  0  0  0
   12.6262    1.8536   -1.1936 H   0  0  0  0  0  0  0  0  0  0  0  0
   11.5829    3.8011    0.9335 H   0  0  0  0  0  0  0  0  0  0  0  0
   13.1350    4.0825    0.1672 H   0  0  0  0  0  0  0  0  0  0  0  0
   13.1310    2.8873    2.4486 H   0  0  0  0  0  0  0  0  0  0  0  0
   14.1947    2.2640    1.1975 H   0  0  0  0  0  0  0  0  0  0  0  0
   12.9323    0.5466    2.5981 H   0  0  0  0  0  0  0  0  0  0  0  0
   12.9534    0.2887    0.8658 H   0  0  0  0  0  0  0  0  0  0  0  0
   10.5443    1.6704    2.1685 H   0  0  0  0  0  0  0  0  0  0  0  0
   10.7299   -0.0838    2.1777 H   0  0  0  0  0  0  0  0  0  0  0  0
    3.8909   -4.0387   -0.2185 H   0  0  0  0  0  0  0  0  0  0  0  0
    6.6064   -5.1301    1.0916 H   0  0  0  0  0  0  0  0  0  0  0  0
    6.9166   -6.4905    0.0097 H   0  0  0  0  0  0  0  0  0  0  0  0
    4.2375   -5.8859    1.4056 H   0  0  0  0  0  0  0  0  0  0  0  0
    5.3363   -7.2076    1.7884 H   0  0  0  0  0  0  0  0  0  0  0  0
    3.4100   -7.9792    0.3410 H   0  0  0  0  0  0  0  0  0  0  0  0
    4.9706   -8.2323   -0.4452 H   0  0  0  0  0  0  0  0  0  0  0  0
    3.0128   -5.9213   -1.0114 H   0  0  0  0  0  0  0  0  0  0  0  0
    3.4006   -7.2628   -2.0948 H   0  0  0  0  0  0  0  0  0  0  0  0
    4.4224   -4.0459   -2.9156 H   0  0  0  0  0  0  0  0  0  0  0  0
    3.4558   -7.7366   -6.1385 H   0  0  0  0  0  0  0  0  0  0  0  0
    5.1628   -7.4651   -6.4920 H   0  0  0  0  0  0  0  0  0  0  0  0
    3.5486   -5.9029   -8.6674 H   0  0  0  0  0  0  0  0  0  0  0  0
    3.1108   -3.4720   -9.0120 H   0  0  0  0  0  0  0  0  0  0  0  0
    3.2768   -1.8737   -7.1231 H   0  0  0  0  0  0  0  0  0  0  0  0
    3.8828   -2.6657   -4.8413 H   0  0  0  0  0  0  0  0  0  0  0  0
    2.5274   -2.6210    0.2147 H   0  0  0  0  0  0  0  0  0  0  0  0
  1  2  1  0
  1 41  1  0
  1 42  1  0
  1 43  1  0
  2  3  2  0
  2 40  1  0
  3  4  1  0
  3 44  1  0
  4  5  2  0
  4 45  1  0
  5  6  1  0
  5 39  1  0
  6  7  2  0
  7  8  1  0
  7 18  1  0
  8  9  2  0
  8 10  1  0
 10 11  1  0
 10 46  1  0
 11 12  1  0
 11 17  1  0
 11 47  1  6
 12 13  1  0
 12 48  1  0
 12 49  1  0
 13 14  1  0
 13 50  1  0
 13 51  1  0
 14 15  1  0
 14 52  1  0
 14 53  1  0
 15 16  1  0
 15 54  1  0
 15 55  1  0
 16 17  1  0
 16 56  1  0
 16 57  1  0
 17 58  1  0
 17 59  1  0
 18 19  2  0
 19 20  1  0
 19 39  1  0
 20 21  1  0
 20 60  1  0
 21 22  1  6
 21 23  1  0
 21 27  1  0
 23 24  1  0
 23 61  1  0
 23 62  1  0
 24 25  1  0
 24 63  1  0
 24 64  1  0
 25 26  1  0
 25 65  1  0
 25 66  1  0
 26 27  1  0
 26 67  1  0
 26 68  1  0
 27 28  1  6
 27 29  1  0
 29 30  1  0
 29 69  1  0
 30 31  2  0
 30 38  1  0
 31 32  1  0
 32 33  1  0
 32 70  1  0
 32 71  1  0
 33 34  1  0
 33 38  2  0
 34 35  2  0
 34 72  1  0
 35 36  1  0
 35 73  1  0
 36 37  2  0
 36 74  1  0
 37 38  1  0
 37 75  1  0
 39 40  2  0
 40 76  1  0
M  END

