
     RDKit          3D

 45 47  0  0  0  0  0  0  0  0999 V2000
    1.2250    0.6884   -0.5369 C   0  0  0  0  0  0  0  0  0  0  0  0
    2.4139    0.0376    0.1703 C   0  0  1  0  0  0  0  0  0  0  0  0
    2.0165   -0.3420    1.5996 C   0  0  0  0  0  0  0  0  0  0  0  0
    3.1265   -1.1437   -0.5937 C   0  0  1  0  0  0  0  0  0  0  0  0
    2.6537   -1.4039   -1.9355 N   0  0  0  0  0  0  0  0  0  0  0  0
    3.2953   -2.5148   -2.6194 C   0  0  0  0  0  0  0  0  0  0  0  0
    2.6700   -2.7504   -4.0029 C   0  0  0  0  0  0  0  0  0  0  0  0
    3.2592   -3.9349   -4.7350 C   0  0  0  0  0  0  0  0  0  0  0  0
    2.7234   -5.2220   -4.5819 C   0  0  0  0  0  0  0  0  0  0  0  0
    3.2851   -6.3283   -5.2244 C   0  0  0  0  0  0  0  0  0  0  0  0
    4.4110   -6.1688   -6.0434 C   0  0  0  0  0  0  0  0  0  0  0  0
    5.0000   -7.2059   -6.6965 O   0  0  0  0  0  0  0  0  0  0  0  0
    4.9609   -4.8899   -6.2100 C   0  0  0  0  0  0  0  0  0  0  0  0
    4.3875   -3.7969   -5.5619 C   0  0  0  0  0  0  0  0  0  0  0  0
    4.5151   -0.4310   -0.4025 C   0  0  2  0  0  0  0  0  0  0  0  0
    5.4732   -1.0239    0.6403 C   0  0  0  0  0  0  0  0  0  0  0  0
    6.1690    0.0973    1.4184 C   0  0  0  0  0  0  0  0  0  0  0  0
    5.1246    0.9880    2.0842 C   0  0  0  0  0  0  0  0  0  0  0  0
    4.2332    1.5941    1.1615 O   0  0  0  0  0  0  0  0  0  0  0  0
    3.7558    0.8425    0.0697 C   0  0  2  0  0  0  0  0  0  0  0  0
    0.3841   -0.0159   -0.6342 H   0  0  0  0  0  0  0  0  0  0  0  0
    1.4781    1.0390   -1.5501 H   0  0  0  0  0  0  0  0  0  0  0  0
    0.8784    1.5658    0.0343 H   0  0  0  0  0  0  0  0  0  0  0  0
    1.1128   -0.9741    1.5890 H   0  0  0  0  0  0  0  0  0  0  0  0
    1.7979    0.5593    2.1942 H   0  0  0  0  0  0  0  0  0  0  0  0
    2.8030   -0.9043    2.1238 H   0  0  0  0  0  0  0  0  0  0  0  0
    3.0683   -2.0959   -0.0382 H   0  0  0  0  0  0  0  0  0  0  0  0
    2.7091   -0.5642   -2.5108 H   0  0  0  0  0  0  0  0  0  0  0  0
    3.1614   -3.4220   -2.0036 H   0  0  0  0  0  0  0  0  0  0  0  0
    4.3958   -2.3910   -2.7374 H   0  0  0  0  0  0  0  0  0  0  0  0
    2.8017   -1.8382   -4.6123 H   0  0  0  0  0  0  0  0  0  0  0  0
    1.5841   -2.8802   -3.8667 H   0  0  0  0  0  0  0  0  0  0  0  0
    1.8416   -5.3668   -3.9506 H   0  0  0  0  0  0  0  0  0  0  0  0
    2.8437   -7.3218   -5.0928 H   0  0  0  0  0  0  0  0  0  0  0  0
    4.5224   -8.0221   -6.4993 H   0  0  0  0  0  0  0  0  0  0  0  0
    5.8343   -4.7737   -6.8551 H   0  0  0  0  0  0  0  0  0  0  0  0
    4.8266   -2.8054   -5.7085 H   0  0  0  0  0  0  0  0  0  0  0  0
    5.0585   -0.2718   -1.3490 H   0  0  0  0  0  0  0  0  0  0  0  0
    6.2059   -1.6884    0.1538 H   0  0  0  0  0  0  0  0  0  0  0  0
    4.9174   -1.6541    1.3575 H   0  0  0  0  0  0  0  0  0  0  0  0
    6.7925    0.7061    0.7393 H   0  0  0  0  0  0  0  0  0  0  0  0
    6.8389   -0.3139    2.1923 H   0  0  0  0  0  0  0  0  0  0  0  0
    5.6030    1.8218    2.6226 H   0  0  0  0  0  0  0  0  0  0  0  0
    4.5683    0.3934    2.8373 H   0  0  0  0  0  0  0  0  0  0  0  0
    3.6714    1.5659   -0.7587 H   0  0  0  0  0  0  0  0  0  0  0  0
  2  1  1  6
  1 21  1  0
  1 22  1  0
  1 23  1  0
  2  3  1  0
  2  4  1  0
  2 20  1  0
  3 24  1  0
  3 25  1  0
  3 26  1  0
  4  5  1  0
  4 15  1  0
  4 27  1  1
  5  6  1  0
  5 28  1  0
  6  7  1  0
  6 29  1  0
  6 30  1  0
  7  8  1  0
  7 31  1  0
  7 32  1  0
  8  9  2  0
  8 14  1  0
  9 10  1  0
  9 33  1  0
 10 11  2  0
 10 34  1  0
 11 12  1  0
 11 13  1  0
 12 35  1  0
 13 14  2  0
 13 36  1  0
 14 37  1  0
 15 16  1  0
 15 20  1  0
 15 38  1  6
 16 17  1  0
 16 39  1  0
 16 40  1  0
 17 18  1  0
 17 41  1  0
 17 42  1  0
 18 19  1  0
 18 43  1  0
 18 44  1  0
 19 20  1  0
 20 45  1  6
M  END

