
     RDKit          3D

 50 52  0  0  0  0  0  0  0  0999 V2000
    1.7458   -0.9635   -0.2261 C   0  0  0  0  0  0  0  0  0  0  0  0
    3.1830   -0.5531   -0.5929 C   0  0  1  0  0  0  0  0  0  0  0  0
    3.3004    0.1014   -1.9865 C   0  0  0  0  0  0  0  0  0  0  0  0
    2.5188    1.4156   -2.1601 C   0  0  0  0  0  0  0  0  0  0  0  0
    2.7284    2.0387   -3.5244 C   0  0  0  0  0  0  0  0  0  0  0  0
    1.9080    1.6877   -4.6085 C   0  0  0  0  0  0  0  0  0  0  0  0
    2.1214    2.2328   -5.8775 C   0  0  0  0  0  0  0  0  0  0  0  0
    3.1633    3.1417   -6.0849 C   0  0  0  0  0  0  0  0  0  0  0  0
    3.9873    3.5011   -5.0144 C   0  0  0  0  0  0  0  0  0  0  0  0
    3.7703    2.9531   -3.7470 C   0  0  0  0  0  0  0  0  0  0  0  0
    3.7993    0.2570    0.4606 N   0  0  0  0  0  0  0  0  0  0  0  0
    4.7711   -0.3906    1.1673 C   0  0  0  0  0  0  0  0  0  0  0  0
    5.3724   -0.0425    2.1512 O   0  0  0  0  0  0  0  0  0  0  0  0
    4.9788   -1.6231    0.4725 N   0  0  0  0  0  0  0  0  0  0  0  0
    5.7251   -2.6259    1.0116 N   0  0  0  0  0  0  0  0  0  0  0  0
    5.1678   -3.4343    1.9890 C   0  0  0  0  0  0  0  0  0  0  0  0
    3.9965   -3.3509    2.2918 O   0  0  0  0  0  0  0  0  0  0  0  0
    6.1503   -4.3985    2.6332 C   0  0  0  0  0  0  0  0  0  0  0  0
    5.4652   -5.6923    3.0997 C   0  0  0  0  0  0  0  0  0  0  0  0
    6.3707   -6.5926    3.9061 C   0  0  0  0  0  0  0  0  0  0  0  0
    6.2167   -6.7712    5.2892 C   0  0  0  0  0  0  0  0  0  0  0  0
    7.0695   -7.6057    6.0189 C   0  0  0  0  0  0  0  0  0  0  0  0
    8.1042   -8.2853    5.3703 C   0  0  0  0  0  0  0  0  0  0  0  0
    8.2844   -8.1280    3.9929 C   0  0  0  0  0  0  0  0  0  0  0  0
    7.4210   -7.2898    3.2951 C   0  0  0  0  0  0  0  0  0  0  0  0
    7.6013   -7.1382    1.9661 F   0  0  0  0  0  0  0  0  0  0  0  0
    4.0614   -1.8203   -0.5562 C   0  0  0  0  0  0  0  0  0  0  0  0
    3.9688   -2.7865   -1.2664 O   0  0  0  0  0  0  0  0  0  0  0  0
    1.0974   -0.0800   -0.1225 H   0  0  0  0  0  0  0  0  0  0  0  0
    1.7405   -1.5133    0.7271 H   0  0  0  0  0  0  0  0  0  0  0  0
    1.3299   -1.6179   -1.0060 H   0  0  0  0  0  0  0  0  0  0  0  0
    2.9687   -0.6370   -2.7339 H   0  0  0  0  0  0  0  0  0  0  0  0
    4.3676    0.2924   -2.1874 H   0  0  0  0  0  0  0  0  0  0  0  0
    2.8356    2.1326   -1.3837 H   0  0  0  0  0  0  0  0  0  0  0  0
    1.4429    1.2341   -2.0069 H   0  0  0  0  0  0  0  0  0  0  0  0
    1.0871    0.9805   -4.4555 H   0  0  0  0  0  0  0  0  0  0  0  0
    1.4687    1.9488   -6.7072 H   0  0  0  0  0  0  0  0  0  0  0  0
    3.3299    3.5711   -7.0761 H   0  0  0  0  0  0  0  0  0  0  0  0
    4.8016    4.2148   -5.1652 H   0  0  0  0  0  0  0  0  0  0  0  0
    4.4180    3.2442   -2.9144 H   0  0  0  0  0  0  0  0  0  0  0  0
    3.3735    1.0887    0.8512 H   0  0  0  0  0  0  0  0  0  0  0  0
    6.7188   -2.6337    0.8092 H   0  0  0  0  0  0  0  0  0  0  0  0
    6.5873   -3.8717    3.5006 H   0  0  0  0  0  0  0  0  0  0  0  0
    6.9813   -4.6231    1.9461 H   0  0  0  0  0  0  0  0  0  0  0  0
    5.0937   -6.2338    2.2140 H   0  0  0  0  0  0  0  0  0  0  0  0
    4.5822   -5.4207    3.6951 H   0  0  0  0  0  0  0  0  0  0  0  0
    5.4042   -6.2450    5.7979 H   0  0  0  0  0  0  0  0  0  0  0  0
    6.9230   -7.7264    7.0947 H   0  0  0  0  0  0  0  0  0  0  0  0
    8.7738   -8.9404    5.9328 H   0  0  0  0  0  0  0  0  0  0  0  0
    9.0798   -8.6427    3.4502 H   0  0  0  0  0  0  0  0  0  0  0  0
  2  1  1  1
  1 29  1  0
  1 30  1  0
  1 31  1  0
  2  3  1  0
  2 11  1  0
  2 27  1  0
  3  4  1  0
  3 32  1  0
  3 33  1  0
  4  5  1  0
  4 34  1  0
  4 35  1  0
  5  6  2  0
  5 10  1  0
  6  7  1  0
  6 36  1  0
  7  8  2  0
  7 37  1  0
  8  9  1  0
  8 38  1  0
  9 10  2  0
  9 39  1  0
 10 40  1  0
 11 12  1  0
 11 41  1  0
 12 13  2  0
 12 14  1  0
 14 15  1  0
 14 27  1  0
 15 16  1  0
 15 42  1  0
 16 17  2  0
 16 18  1  0
 18 19  1  0
 18 43  1  0
 18 44  1  0
 19 20  1  0
 19 45  1  0
 19 46  1  0
 20 21  2  0
 20 25  1  0
 21 22  1  0
 21 47  1  0
 22 23  2  0
 22 48  1  0
 23 24  1  0
 23 49  1  0
 24 25  2  0
 24 50  1  0
 25 26  1  0
 27 28  2  0
M  END

