
     RDKit          3D

 45 46  0  0  0  0  0  0  0  0999 V2000
    0.5058   -4.7698    0.9381 C   0  0  0  0  0  0  0  0  0  0  0  0
    1.9864   -5.1470    0.8698 C   0  0  1  0  0  0  0  0  0  0  0  0
    2.2429   -6.1567   -0.2538 C   0  0  0  0  0  0  0  0  0  0  0  0
    2.7762   -3.9264    0.6689 N   0  0  0  0  0  0  0  0  0  0  0  0
    4.1927   -4.0222    0.9707 C   0  0  0  0  0  0  0  0  0  0  0  0
    4.9060   -2.7508    0.5009 C   0  0  0  0  0  0  0  0  0  0  0  0
    6.3326   -2.7665    0.7881 N   0  0  0  0  0  0  0  0  0  0  0  0
    7.3504   -2.9633   -0.0814 C   0  0  0  0  0  0  0  0  0  0  0  0
    8.5139   -2.9309    0.6757 C   0  0  0  0  0  0  0  0  0  0  0  0
   10.1625   -3.0484    0.0690 S   0  0  1  0  0  0  0  0  0  0  0  0
   10.1910   -2.4193   -1.2546 O   0  0  0  0  0  0  0  0  0  0  0  0
   11.0403   -2.6134    1.1608 O   0  0  0  0  0  0  0  0  0  0  0  0
   10.4092   -4.6902   -0.2521 N   0  0  0  0  0  0  0  0  0  0  0  0
   11.1762   -5.5766    0.6372 C   0  0  1  0  0  0  0  0  0  0  0  0
   10.4919   -5.7126    2.0019 C   0  0  0  0  0  0  0  0  0  0  0  0
   11.3295   -6.9577   -0.0496 C   0  0  0  0  0  0  0  0  0  0  0  0
   12.6827   -7.4849    0.4774 C   0  0  0  0  0  0  0  0  0  0  0  0
   13.3017   -6.4096    1.1748 O   0  0  0  0  0  0  0  0  0  0  0  0
   12.6715   -5.2029    0.8028 C   0  0  0  0  0  0  0  0  0  0  0  0
    8.0810   -2.6959    2.0036 C   0  0  0  0  0  0  0  0  0  0  0  0
    6.7588   -2.6046    2.0561 N   0  0  0  0  0  0  0  0  0  0  0  0
   -0.1228   -5.6616    1.0820 H   0  0  0  0  0  0  0  0  0  0  0  0
    0.1930   -4.2711    0.0061 H   0  0  0  0  0  0  0  0  0  0  0  0
    0.3062   -4.0822    1.7774 H   0  0  0  0  0  0  0  0  0  0  0  0
    2.2572   -5.6359    1.8339 H   0  0  0  0  0  0  0  0  0  0  0  0
    1.9647   -5.7218   -1.2274 H   0  0  0  0  0  0  0  0  0  0  0  0
    1.6513   -7.0721   -0.0950 H   0  0  0  0  0  0  0  0  0  0  0  0
    3.3007   -6.4580   -0.3068 H   0  0  0  0  0  0  0  0  0  0  0  0
    2.3677   -3.1742    1.2233 H   0  0  0  0  0  0  0  0  0  0  0  0
    4.6222   -4.8812    0.4303 H   0  0  0  0  0  0  0  0  0  0  0  0
    4.4186   -4.1820    2.0468 H   0  0  0  0  0  0  0  0  0  0  0  0
    4.4785   -1.8661    0.9988 H   0  0  0  0  0  0  0  0  0  0  0  0
    4.7719   -2.6254   -0.5826 H   0  0  0  0  0  0  0  0  0  0  0  0
    7.1970   -3.0912   -1.1504 H   0  0  0  0  0  0  0  0  0  0  0  0
   10.6773   -4.7468   -1.2343 H   0  0  0  0  0  0  0  0  0  0  0  0
    9.4692   -6.1031    1.8887 H   0  0  0  0  0  0  0  0  0  0  0  0
   10.4489   -4.7432    2.5174 H   0  0  0  0  0  0  0  0  0  0  0  0
   11.0684   -6.4022    2.6355 H   0  0  0  0  0  0  0  0  0  0  0  0
   11.3647   -6.8250   -1.1432 H   0  0  0  0  0  0  0  0  0  0  0  0
   10.4852   -7.6268    0.1713 H   0  0  0  0  0  0  0  0  0  0  0  0
   13.3265   -7.8306   -0.3536 H   0  0  0  0  0  0  0  0  0  0  0  0
   12.5671   -8.3271    1.1794 H   0  0  0  0  0  0  0  0  0  0  0  0
   13.0621   -4.8102   -0.1606 H   0  0  0  0  0  0  0  0  0  0  0  0
   12.8526   -4.4483    1.5790 H   0  0  0  0  0  0  0  0  0  0  0  0
    8.6914   -2.5775    2.8973 H   0  0  0  0  0  0  0  0  0  0  0  0
  1  2  1  0
  1 22  1  0
  1 23  1  0
  1 24  1  0
  2  3  1  0
  2  4  1  0
  2 25  1  1
  3 26  1  0
  3 27  1  0
  3 28  1  0
  4  5  1  0
  4 29  1  0
  5  6  1  0
  5 30  1  0
  5 31  1  0
  6  7  1  0
  6 32  1  0
  6 33  1  0
  7  8  1  0
  7 21  1  0
  8  9  2  0
  8 34  1  0
  9 10  1  0
  9 20  1  0
 10 11  2  0
 10 12  2  0
 10 13  1  6
 14 13  1  6
 13 35  1  0
 14 15  1  0
 14 16  1  0
 14 19  1  0
 15 36  1  0
 15 37  1  0
 15 38  1  0
 16 17  1  0
 16 39  1  0
 16 40  1  0
 17 18  1  0
 17 41  1  0
 17 42  1  0
 18 19  1  0
 19 43  1  0
 19 44  1  0
 20 21  2  0
 20 45  1  0
M  END

