
     RDKit          3D

 62 63  0  0  0  0  0  0  0  0999 V2000
    4.2308    0.0069    6.8042 C   0  0  0  0  0  0  0  0  0  0  0  0
    5.3877    1.0067    6.7797 C   0  0  0  0  0  0  0  0  0  0  0  0
    4.9607    2.4379    7.1159 C   0  0  0  0  0  0  0  0  0  0  0  0
    6.0986    3.4666    7.0850 C   0  0  0  0  0  0  0  0  0  0  0  0
    6.7158    3.6314    5.7747 N   0  0  0  0  0  0  0  0  0  0  0  0
    6.1997    4.4973    4.8630 C   0  0  0  0  0  0  0  0  0  0  0  0
    5.1889    5.1529    5.0627 O   0  0  0  0  0  0  0  0  0  0  0  0
    6.8770    4.5486    3.4676 C   0  0  1  0  0  0  0  0  0  0  0  0
    6.7938    5.9508    2.8586 C   0  0  0  0  0  0  0  0  0  0  0  0
    8.2164    3.9234    3.4248 N   0  0  0  0  0  0  0  0  0  0  0  0
    8.3196    2.5774    2.8585 C   0  0  0  0  0  0  0  0  0  0  0  0
    8.8458    2.4799    1.4325 C   0  0  0  0  0  0  0  0  0  0  0  0
    9.1169    3.6025    0.6417 C   0  0  0  0  0  0  0  0  0  0  0  0
    9.5955    3.4664   -0.6667 C   0  0  0  0  0  0  0  0  0  0  0  0
    9.8016    2.1907   -1.1800 C   0  0  0  0  0  0  0  0  0  0  0  0
   10.2603    2.0498   -2.4311 F   0  0  0  0  0  0  0  0  0  0  0  0
    9.5420    1.0509   -0.4182 C   0  0  0  0  0  0  0  0  0  0  0  0
    9.0664    1.2048    0.8831 C   0  0  0  0  0  0  0  0  0  0  0  0
    9.2534    4.5503    4.0594 C   0  0  0  0  0  0  0  0  0  0  0  0
    9.1046    5.5914    4.6899 O   0  0  0  0  0  0  0  0  0  0  0  0
   10.6605    3.9325    3.9678 C   0  0  0  0  0  0  0  0  0  0  0  0
   11.3803    4.0341    5.2361 N   0  0  0  0  0  0  0  0  0  0  0  0
   12.5823    4.7906    5.3536 C   0  0  0  0  0  0  0  0  0  0  0  0
   12.5102    6.1789    5.5463 C   0  0  0  0  0  0  0  0  0  0  0  0
   13.6784    6.9337    5.6616 C   0  0  0  0  0  0  0  0  0  0  0  0
   13.5729    8.6595    5.9014 Cl  0  0  0  0  0  0  0  0  0  0  0  0
   14.9313    6.3173    5.5858 C   0  0  0  0  0  0  0  0  0  0  0  0
   15.0097    4.9410    5.3740 C   0  0  0  0  0  0  0  0  0  0  0  0
   13.8460    4.1753    5.2487 C   0  0  0  0  0  0  0  0  0  0  0  0
   13.9763    2.4736    4.9227 Cl  0  0  0  0  0  0  0  0  0  0  0  0
   10.7086    3.3140    6.6084 S   0  0  1  0  0  0  0  0  0  0  0  0
   10.0281    4.6459    7.6057 C   0  0  0  0  0  0  0  0  0  0  0  0
    9.5792    2.5163    6.0883 O   0  0  0  0  0  0  0  0  0  0  0  0
   11.7688    2.6921    7.3921 O   0  0  0  0  0  0  0  0  0  0  0  0
    4.5698   -1.0119    6.5568 H   0  0  0  0  0  0  0  0  0  0  0  0
    3.4473    0.2836    6.0788 H   0  0  0  0  0  0  0  0  0  0  0  0
    3.7559   -0.0335    7.7990 H   0  0  0  0  0  0  0  0  0  0  0  0
    5.8620    0.9960    5.7825 H   0  0  0  0  0  0  0  0  0  0  0  0
    6.1724    0.6832    7.4884 H   0  0  0  0  0  0  0  0  0  0  0  0
    4.5099    2.4613    8.1248 H   0  0  0  0  0  0  0  0  0  0  0  0
    4.1718    2.7726    6.4203 H   0  0  0  0  0  0  0  0  0  0  0  0
    6.8933    3.1695    7.7888 H   0  0  0  0  0  0  0  0  0  0  0  0
    5.7076    4.4455    7.4019 H   0  0  0  0  0  0  0  0  0  0  0  0
    7.6137    3.1823    5.6163 H   0  0  0  0  0  0  0  0  0  0  0  0
    6.2391    3.8970    2.8494 H   0  0  0  0  0  0  0  0  0  0  0  0
    7.4355    6.6589    3.3957 H   0  0  0  0  0  0  0  0  0  0  0  0
    5.7535    6.2931    2.9361 H   0  0  0  0  0  0  0  0  0  0  0  0
    7.0810    5.9271    1.7965 H   0  0  0  0  0  0  0  0  0  0  0  0
    7.3100    2.1388    2.8946 H   0  0  0  0  0  0  0  0  0  0  0  0
    8.9247    1.9439    3.5249 H   0  0  0  0  0  0  0  0  0  0  0  0
    8.9501    4.6028    1.0452 H   0  0  0  0  0  0  0  0  0  0  0  0
    9.8077    4.3373   -1.2899 H   0  0  0  0  0  0  0  0  0  0  0  0
    9.7167    0.0645   -0.8522 H   0  0  0  0  0  0  0  0  0  0  0  0
    8.8638    0.3130    1.4838 H   0  0  0  0  0  0  0  0  0  0  0  0
   11.2224    4.5300    3.2343 H   0  0  0  0  0  0  0  0  0  0  0  0
   10.6678    2.8990    3.6045 H   0  0  0  0  0  0  0  0  0  0  0  0
   11.5262    6.6490    5.5817 H   0  0  0  0  0  0  0  0  0  0  0  0
   15.8396    6.9143    5.6822 H   0  0  0  0  0  0  0  0  0  0  0  0
   15.9811    4.4502    5.2976 H   0  0  0  0  0  0  0  0  0  0  0  0
    9.2953    5.1985    7.0056 H   0  0  0  0  0  0  0  0  0  0  0  0
   10.8564    5.2881    7.9301 H   0  0  0  0  0  0  0  0  0  0  0  0
    9.5689    4.1550    8.4748 H   0  0  0  0  0  0  0  0  0  0  0  0
  1  2  1  0
  1 35  1  0
  1 36  1  0
  1 37  1  0
  2  3  1  0
  2 38  1  0
  2 39  1  0
  3  4  1  0
  3 40  1  0
  3 41  1  0
  4  5  1  0
  4 42  1  0
  4 43  1  0
  5  6  1  0
  5 44  1  0
  6  7  2  0
  6  8  1  0
  8  9  1  0
  8 10  1  0
  8 45  1  6
  9 46  1  0
  9 47  1  0
  9 48  1  0
 10 11  1  0
 10 19  1  0
 11 12  1  0
 11 49  1  0
 11 50  1  0
 12 13  2  0
 12 18  1  0
 13 14  1  0
 13 51  1  0
 14 15  2  0
 14 52  1  0
 15 16  1  0
 15 17  1  0
 17 18  2  0
 17 53  1  0
 18 54  1  0
 19 20  2  0
 19 21  1  0
 21 22  1  0
 21 55  1  0
 21 56  1  0
 22 23  1  0
 31 22  1  6
 23 24  2  0
 23 29  1  0
 24 25  1  0
 24 57  1  0
 25 26  1  0
 25 27  2  0
 27 28  1  0
 27 58  1  0
 28 29  2  0
 28 59  1  0
 29 30  1  0
 31 32  1  0
 31 33  2  0
 31 34  2  0
 32 60  1  0
 32 61  1  0
 32 62  1  0
M  END

