
     RDKit          3D

 39 40  0  0  0  0  0  0  0  0999 V2000
    4.2963   -2.5040    2.8806 C   0  0  0  0  0  0  0  0  0  0  0  0
    4.7280   -1.5469    1.7699 C   0  0  0  0  0  0  0  0  0  0  0  0
    5.2084   -0.1933    2.2911 C   0  0  0  0  0  0  0  0  0  0  0  0
    5.6580    0.6678    1.2062 N   0  0  0  0  0  0  0  0  0  0  0  0
    6.1361    1.9729    1.6142 C   0  0  0  0  0  0  0  0  0  0  0  0
    6.8083    2.6728    0.4277 C   0  0  0  0  0  0  0  0  0  0  0  0
    7.2996    3.9994    0.7586 N   0  0  0  0  0  0  0  0  0  0  0  0
    6.5286    5.1023    0.6038 N   0  0  0  0  0  0  0  0  0  0  0  0
    7.2186    6.1007    1.0172 N   0  0  0  0  0  0  0  0  0  0  0  0
    8.4375    5.7104    1.4581 N   0  0  0  0  0  0  0  0  0  0  0  0
    8.4785    4.3983    1.2972 C   0  0  0  0  0  0  0  0  0  0  0  0
    9.7972    3.3140    1.6852 S   0  0  0  0  0  0  0  0  0  0  0  0
   11.0340    4.5641    2.2758 C   0  0  0  0  0  0  0  0  0  0  0  0
   12.2978    3.8496    2.6768 C   0  0  0  0  0  0  0  0  0  0  0  0
   13.3212    3.6321    1.7386 C   0  0  0  0  0  0  0  0  0  0  0  0
   14.4826    2.9594    2.1209 C   0  0  0  0  0  0  0  0  0  0  0  0
   14.6384    2.4939    3.4289 C   0  0  0  0  0  0  0  0  0  0  0  0
   13.6185    2.7040    4.3681 C   0  0  0  0  0  0  0  0  0  0  0  0
   13.7064    2.2799    5.6543 O   0  0  0  0  0  0  0  0  0  0  0  0
   12.4508    3.3794    3.9864 C   0  0  0  0  0  0  0  0  0  0  0  0
    3.9509   -3.4652    2.4689 H   0  0  0  0  0  0  0  0  0  0  0  0
    3.4709   -2.0836    3.4791 H   0  0  0  0  0  0  0  0  0  0  0  0
    5.1289   -2.7190    3.5712 H   0  0  0  0  0  0  0  0  0  0  0  0
    3.8831   -1.3849    1.0744 H   0  0  0  0  0  0  0  0  0  0  0  0
    5.5374   -1.9937    1.1678 H   0  0  0  0  0  0  0  0  0  0  0  0
    6.0597   -0.3479    2.9793 H   0  0  0  0  0  0  0  0  0  0  0  0
    4.4028    0.2721    2.9054 H   0  0  0  0  0  0  0  0  0  0  0  0
    4.9089    0.7708    0.5205 H   0  0  0  0  0  0  0  0  0  0  0  0
    6.8830    1.8381    2.4155 H   0  0  0  0  0  0  0  0  0  0  0  0
    5.3499    2.6434    2.0267 H   0  0  0  0  0  0  0  0  0  0  0  0
    6.0967    2.8026   -0.4013 H   0  0  0  0  0  0  0  0  0  0  0  0
    7.6489    2.0650    0.0607 H   0  0  0  0  0  0  0  0  0  0  0  0
   10.5751    5.1078    3.1116 H   0  0  0  0  0  0  0  0  0  0  0  0
   11.1995    5.2741    1.4551 H   0  0  0  0  0  0  0  0  0  0  0  0
   13.2066    3.9940    0.7141 H   0  0  0  0  0  0  0  0  0  0  0  0
   15.2822    2.7948    1.3942 H   0  0  0  0  0  0  0  0  0  0  0  0
   15.5526    1.9691    3.7244 H   0  0  0  0  0  0  0  0  0  0  0  0
   14.5543    1.8379    5.7932 H   0  0  0  0  0  0  0  0  0  0  0  0
   11.6699    3.5325    4.7347 H   0  0  0  0  0  0  0  0  0  0  0  0
  1  2  1  0
  1 21  1  0
  1 22  1  0
  1 23  1  0
  2  3  1  0
  2 24  1  0
  2 25  1  0
  3  4  1  0
  3 26  1  0
  3 27  1  0
  4  5  1  0
  4 28  1  0
  5  6  1  0
  5 29  1  0
  5 30  1  0
  6  7  1  0
  6 31  1  0
  6 32  1  0
  7  8  1  0
  7 11  1  0
  8  9  2  0
  9 10  1  0
 10 11  2  0
 11 12  1  0
 12 13  1  0
 13 14  1  0
 13 33  1  0
 13 34  1  0
 14 15  2  0
 14 20  1  0
 15 16  1  0
 15 35  1  0
 16 17  2  0
 16 36  1  0
 17 18  1  0
 17 37  1  0
 18 19  1  0
 18 20  2  0
 19 38  1  0
 20 39  1  0
M  END

