
     RDKit          3D

 40 42  0  0  0  0  0  0  0  0999 V2000
    1.0942   -0.8145    1.0542 C   0  0  0  0  0  0  0  0  0  0  0  0
    2.1391   -0.9338   -0.0552 C   0  0  0  0  0  0  0  0  0  0  0  0
    2.8935   -2.2029   -0.0206 N   0  0  0  0  0  0  0  0  0  0  0  0
    2.2137   -3.3308   -0.4049 C   0  0  0  0  0  0  0  0  0  0  0  0
    1.0668   -3.2931   -0.8139 O   0  0  0  0  0  0  0  0  0  0  0  0
    2.9143   -4.7065   -0.3079 C   0  0  0  0  0  0  0  0  0  0  0  0
    3.2819   -5.0921    1.0448 N   0  0  0  0  0  0  0  0  0  0  0  0
    4.5401   -5.1580    1.4602 N   0  0  0  0  0  0  0  0  0  0  0  0
    4.4976   -5.4994    2.7162 N   0  0  0  0  0  0  0  0  0  0  0  0
    3.1822   -5.6373    3.0364 C   0  0  0  0  0  0  0  0  0  0  0  0
    2.7082   -6.0264    4.3758 C   0  0  1  0  0  0  0  0  0  0  0  0
    1.4059   -5.4661    4.9159 C   0  0  0  0  0  0  0  0  0  0  0  0
    1.4825   -6.9086    4.5234 C   0  0  0  0  0  0  0  0  0  0  0  0
    2.3990   -5.3806    1.9887 N   0  0  0  0  0  0  0  0  0  0  0  0
    4.3354   -2.1455    0.2094 C   0  0  1  0  0  0  0  0  0  0  0  0
    5.1011   -1.4720   -0.9778 C   0  0  0  0  0  0  0  0  0  0  0  0
    6.4174   -0.9188   -0.4438 C   0  0  0  0  0  0  0  0  0  0  0  0
    5.9061   -0.1192    1.1149 S   0  0  2  0  0  0  0  0  0  0  0  0
    5.1167    1.0713    0.7499 O   0  0  0  0  0  0  0  0  0  0  0  0
    7.0046   -0.0297    2.0790 O   0  0  0  0  0  0  0  0  0  0  0  0
    4.7226   -1.4493    1.5440 C   0  0  0  0  0  0  0  0  0  0  0  0
    0.5865    0.1602    0.9813 H   0  0  0  0  0  0  0  0  0  0  0  0
    1.5524   -0.8825    2.0539 H   0  0  0  0  0  0  0  0  0  0  0  0
    0.3360   -1.6042    0.9621 H   0  0  0  0  0  0  0  0  0  0  0  0
    2.8671   -0.1140    0.0241 H   0  0  0  0  0  0  0  0  0  0  0  0
    1.6442   -0.8507   -1.0354 H   0  0  0  0  0  0  0  0  0  0  0  0
    3.8296   -4.7650   -0.9114 H   0  0  0  0  0  0  0  0  0  0  0  0
    2.1832   -5.4291   -0.6889 H   0  0  0  0  0  0  0  0  0  0  0  0
    3.5300   -6.1759    5.0794 H   0  0  0  0  0  0  0  0  0  0  0  0
    0.8529   -4.7878    4.2605 H   0  0  0  0  0  0  0  0  0  0  0  0
    1.3732   -5.2089    5.9782 H   0  0  0  0  0  0  0  0  0  0  0  0
    0.9824   -7.2139    3.6003 H   0  0  0  0  0  0  0  0  0  0  0  0
    1.5045   -7.6693    5.3085 H   0  0  0  0  0  0  0  0  0  0  0  0
    4.7122   -3.1684    0.2929 H   0  0  0  0  0  0  0  0  0  0  0  0
    4.5060   -0.6448   -1.3901 H   0  0  0  0  0  0  0  0  0  0  0  0
    5.2599   -2.2016   -1.7865 H   0  0  0  0  0  0  0  0  0  0  0  0
    6.8866   -0.1488   -1.0711 H   0  0  0  0  0  0  0  0  0  0  0  0
    7.1540   -1.6938   -0.1823 H   0  0  0  0  0  0  0  0  0  0  0  0
    3.8864   -0.9604    2.0571 H   0  0  0  0  0  0  0  0  0  0  0  0
    5.2335   -2.1302    2.2380 H   0  0  0  0  0  0  0  0  0  0  0  0
  1  2  1  0
  1 22  1  0
  1 23  1  0
  1 24  1  0
  2  3  1  0
  2 25  1  0
  2 26  1  0
  3  4  1  0
  3 15  1  0
  4  5  2  0
  4  6  1  0
  6  7  1  0
  6 27  1  0
  6 28  1  0
  7  8  1  0
  7 14  1  0
  8  9  2  0
  9 10  1  0
 10 11  1  0
 10 14  2  0
 11 12  1  0
 11 13  1  0
 11 29  1  1
 12 13  1  0
 12 30  1  0
 12 31  1  0
 13 32  1  0
 13 33  1  0
 15 16  1  0
 15 21  1  0
 15 34  1  1
 16 17  1  0
 16 35  1  0
 16 36  1  0
 18 17  1  6
 17 37  1  0
 17 38  1  0
 18 19  2  0
 18 20  2  0
 18 21  1  0
 21 39  1  0
 21 40  1  0
M  END

