
     RDKit          3D

 40 41  0  0  0  0  0  0  0  0999 V2000
    1.7013   -1.1552    0.4511 C   0  0  0  0  0  0  0  0  0  0  0  0
    3.3529   -0.4451    0.1984 S   0  0  0  0  0  0  0  0  0  0  0  0
    3.5571   -0.4691   -1.5664 C   0  0  0  0  0  0  0  0  0  0  0  0
    2.6084   -0.9590   -2.4796 C   0  0  0  0  0  0  0  0  0  0  0  0
    2.8718   -0.9325   -3.8500 C   0  0  0  0  0  0  0  0  0  0  0  0
    4.0745   -0.4221   -4.3634 C   0  0  0  0  0  0  0  0  0  0  0  0
    4.2905   -0.3996   -5.8780 C   0  0  1  0  0  0  0  0  0  0  0  0
    5.6669    0.1236   -6.3148 C   0  0  0  0  0  0  0  0  0  0  0  0
    3.9969   -1.7250   -6.4125 N   0  0  0  0  0  0  0  0  0  0  0  0
    3.7073   -2.0056   -7.7422 C   0  0  0  0  0  0  0  0  0  0  0  0
    3.3933   -0.9868   -8.6649 C   0  0  0  0  0  0  0  0  0  0  0  0
    3.0602   -1.3080   -9.9792 C   0  0  0  0  0  0  0  0  0  0  0  0
    3.0432   -2.6353  -10.4023 C   0  0  0  0  0  0  0  0  0  0  0  0
    3.3564   -3.6709   -9.5056 C   0  0  0  0  0  0  0  0  0  0  0  0
    3.3264   -5.1004  -10.0016 C   0  0  0  0  0  0  0  0  0  0  0  0
    3.6885   -3.3647   -8.1707 C   0  0  0  0  0  0  0  0  0  0  0  0
    4.0153   -4.4400   -7.1613 C   0  0  0  0  0  0  0  0  0  0  0  0
    5.0149    0.0645   -3.4426 C   0  0  0  0  0  0  0  0  0  0  0  0
    4.7648    0.0431   -2.0699 C   0  0  0  0  0  0  0  0  0  0  0  0
    1.5435   -1.1499    1.5388 H   0  0  0  0  0  0  0  0  0  0  0  0
    1.6417   -2.1928    0.0901 H   0  0  0  0  0  0  0  0  0  0  0  0
    0.9173   -0.5462   -0.0231 H   0  0  0  0  0  0  0  0  0  0  0  0
    1.6566   -1.3645   -2.1347 H   0  0  0  0  0  0  0  0  0  0  0  0
    2.1241   -1.3255   -4.5434 H   0  0  0  0  0  0  0  0  0  0  0  0
    3.5278    0.2861   -6.2886 H   0  0  0  0  0  0  0  0  0  0  0  0
    6.4771   -0.4973   -5.8999 H   0  0  0  0  0  0  0  0  0  0  0  0
    5.8282    1.1642   -5.9928 H   0  0  0  0  0  0  0  0  0  0  0  0
    5.7488    0.0940   -7.4110 H   0  0  0  0  0  0  0  0  0  0  0  0
    4.4045   -2.4826   -5.8794 H   0  0  0  0  0  0  0  0  0  0  0  0
    3.4051    0.0593   -8.3578 H   0  0  0  0  0  0  0  0  0  0  0  0
    2.8168   -0.5063  -10.6818 H   0  0  0  0  0  0  0  0  0  0  0  0
    2.7869   -2.8783  -11.4364 H   0  0  0  0  0  0  0  0  0  0  0  0
    3.0580   -5.1365  -11.0673 H   0  0  0  0  0  0  0  0  0  0  0  0
    2.5896   -5.7136   -9.4554 H   0  0  0  0  0  0  0  0  0  0  0  0
    4.3040   -5.5990   -9.8903 H   0  0  0  0  0  0  0  0  0  0  0  0
    3.9384   -5.4495   -7.5814 H   0  0  0  0  0  0  0  0  0  0  0  0
    3.3374   -4.3955   -6.2898 H   0  0  0  0  0  0  0  0  0  0  0  0
    5.0444   -4.3356   -6.7679 H   0  0  0  0  0  0  0  0  0  0  0  0
    5.9661    0.4724   -3.7874 H   0  0  0  0  0  0  0  0  0  0  0  0
    5.5195    0.4289   -1.3790 H   0  0  0  0  0  0  0  0  0  0  0  0
  1  2  1  0
  1 20  1  0
  1 21  1  0
  1 22  1  0
  2  3  1  0
  3  4  2  0
  3 19  1  0
  4  5  1  0
  4 23  1  0
  5  6  2  0
  5 24  1  0
  6  7  1  0
  6 18  1  0
  7  8  1  0
  7  9  1  0
  7 25  1  6
  8 26  1  0
  8 27  1  0
  8 28  1  0
  9 10  1  0
  9 29  1  0
 10 11  2  0
 10 16  1  0
 11 12  1  0
 11 30  1  0
 12 13  2  0
 12 31  1  0
 13 14  1  0
 13 32  1  0
 14 15  1  0
 14 16  2  0
 15 33  1  0
 15 34  1  0
 15 35  1  0
 16 17  1  0
 17 36  1  0
 17 37  1  0
 17 38  1  0
 18 19  2  0
 18 39  1  0
 19 40  1  0
M  END

