
     RDKit          3D

 55 57  0  0  0  0  0  0  0  0999 V2000
    4.1662   -3.9773    1.5621 N   0  0  0  0  0  0  0  0  0  0  0  0
    3.6197   -4.2996    0.3250 C   0  0  0  0  0  0  0  0  0  0  0  0
    4.1374   -5.0900   -0.4483 O   0  0  0  0  0  0  0  0  0  0  0  0
    2.4527   -3.6183    0.0207 N   0  0  0  0  0  0  0  0  0  0  0  0
    1.7590   -3.9095   -1.2354 C   0  0  0  0  0  0  0  0  0  0  0  0
    1.2051   -2.5497   -1.6613 C   0  0  0  0  0  0  0  0  0  0  0  0
    0.8895   -1.8794   -0.3201 C   0  0  0  0  0  0  0  0  0  0  0  0
    2.0416   -2.3460    0.6106 C   0  0  1  0  0  0  0  0  0  0  0  0
    2.8879   -1.6352    0.5727 H   0  0  0  0  0  0  0  0  0  0  0  0
    1.5799   -2.4690    2.0789 C   0  0  0  0  0  0  0  0  0  0  0  0
    1.4246   -3.5692    2.5930 O   0  0  0  0  0  0  0  0  0  0  0  0
    1.3466   -1.3092    2.7753 N   0  0  0  0  0  0  0  0  0  0  0  0
    1.6357    0.0490    2.3281 C   0  0  0  0  0  0  0  0  0  0  0  0
    0.4203    0.9702    2.5149 C   0  0  0  0  0  0  0  0  0  0  0  0
   -0.1373    0.9283    3.9459 C   0  0  2  0  0  0  0  0  0  0  0  0
    0.7481    1.6422    4.8649 N   0  0  0  0  0  0  0  0  0  0  0  0
    0.2858    2.2010    6.0260 C   0  0  0  0  0  0  0  0  0  0  0  0
   -0.8802    2.0991    6.3731 O   0  0  0  0  0  0  0  0  0  0  0  0
    1.3164    2.9875    6.8339 C   0  0  0  0  0  0  0  0  0  0  0  0
    1.1225    2.8424    8.3428 C   0  0  1  0  0  0  0  0  0  0  0  0
    1.4346    1.4476    8.9147 C   0  0  0  0  0  0  0  0  0  0  0  0
    1.5700    1.6672   10.4394 C   0  0  0  0  0  0  0  0  0  0  0  0
    1.8923    3.1809   10.6233 C   0  0  0  0  0  0  0  0  0  0  0  0
    2.0158    3.7560    9.1977 C   0  0  0  0  0  0  0  0  0  0  0  0
   -0.3660   -0.5351    4.3741 C   0  0  0  0  0  0  0  0  0  0  0  0
    0.8821   -1.3927    4.1645 C   0  0  0  0  0  0  0  0  0  0  0  0
    4.9671   -4.5673    1.7669 H   0  0  0  0  0  0  0  0  0  0  0  0
    3.4836   -3.9522    2.3190 H   0  0  0  0  0  0  0  0  0  0  0  0
    0.9434   -4.6388   -1.0715 H   0  0  0  0  0  0  0  0  0  0  0  0
    2.4653   -4.3523   -1.9495 H   0  0  0  0  0  0  0  0  0  0  0  0
    0.3251   -2.6277   -2.3172 H   0  0  0  0  0  0  0  0  0  0  0  0
    1.9787   -1.9768   -2.1993 H   0  0  0  0  0  0  0  0  0  0  0  0
   -0.0703   -2.2538    0.0722 H   0  0  0  0  0  0  0  0  0  0  0  0
    0.8147   -0.7843   -0.3868 H   0  0  0  0  0  0  0  0  0  0  0  0
    1.9469    0.0532    1.2788 H   0  0  0  0  0  0  0  0  0  0  0  0
    2.5013    0.4367    2.9040 H   0  0  0  0  0  0  0  0  0  0  0  0
   -0.3749    0.6458    1.8243 H   0  0  0  0  0  0  0  0  0  0  0  0
    0.6899    2.0034    2.2398 H   0  0  0  0  0  0  0  0  0  0  0  0
   -1.1038    1.4530    3.9845 H   0  0  0  0  0  0  0  0  0  0  0  0
    1.7285    1.7461    4.6352 H   0  0  0  0  0  0  0  0  0  0  0  0
    1.1944    4.0486    6.5491 H   0  0  0  0  0  0  0  0  0  0  0  0
    2.3441    2.7023    6.5457 H   0  0  0  0  0  0  0  0  0  0  0  0
    0.0642    3.0738    8.5563 H   0  0  0  0  0  0  0  0  0  0  0  0
    2.3940    1.0929    8.4948 H   0  0  0  0  0  0  0  0  0  0  0  0
    0.6689    0.7009    8.6546 H   0  0  0  0  0  0  0  0  0  0  0  0
    2.3471    1.0198   10.8743 H   0  0  0  0  0  0  0  0  0  0  0  0
    0.6295    1.4104   10.9516 H   0  0  0  0  0  0  0  0  0  0  0  0
    2.8026    3.3506   11.2189 H   0  0  0  0  0  0  0  0  0  0  0  0
    1.0699    3.6810   11.1593 H   0  0  0  0  0  0  0  0  0  0  0  0
    3.0600    3.6799    8.8423 H   0  0  0  0  0  0  0  0  0  0  0  0
    1.7316    4.8191    9.1349 H   0  0  0  0  0  0  0  0  0  0  0  0
   -1.1972   -0.9524    3.7805 H   0  0  0  0  0  0  0  0  0  0  0  0
   -0.6773   -0.5586    5.4292 H   0  0  0  0  0  0  0  0  0  0  0  0
    0.6944   -2.4494    4.3863 H   0  0  0  0  0  0  0  0  0  0  0  0
    1.6925   -1.0481    4.8357 H   0  0  0  0  0  0  0  0  0  0  0  0
  1  2  1  0
  1 27  1  0
  1 28  1  0
  2  3  2  0
  2  4  1  0
  4  5  1  0
  4  8  1  0
  5  6  1  0
  5 29  1  0
  5 30  1  0
  6  7  1  0
  6 31  1  0
  6 32  1  0
  7  8  1  0
  7 33  1  0
  7 34  1  0
  8  9  1  1
  8 10  1  0
 10 11  2  0
 10 12  1  0
 12 13  1  0
 12 26  1  0
 13 14  1  0
 13 35  1  0
 13 36  1  0
 14 15  1  0
 14 37  1  0
 14 38  1  0
 15 16  1  0
 15 25  1  0
 15 39  1  6
 16 17  1  0
 16 40  1  0
 17 18  2  0
 17 19  1  0
 19 20  1  0
 19 41  1  0
 19 42  1  0
 20 21  1  0
 20 24  1  0
 20 43  1  6
 21 22  1  0
 21 44  1  0
 21 45  1  0
 22 23  1  0
 22 46  1  0
 22 47  1  0
 23 24  1  0
 23 48  1  0
 23 49  1  0
 24 50  1  0
 24 51  1  0
 25 26  1  0
 25 52  1  0
 25 53  1  0
 26 54  1  0
 26 55  1  0
M  END

