
     RDKit          3D

 31 32  0  0  0  0  0  0  0  0999 V2000
    4.5798   -1.9651   -3.3446 C   0  0  0  0  0  0  0  0  0  0  0  0
    4.8305   -0.6773   -2.6258 C   0  0  0  0  0  0  0  0  0  0  0  0
    5.0960   -0.4663   -1.2388 C   0  0  0  0  0  0  0  0  0  0  0  0
    5.2441    0.8890   -1.1343 C   0  0  0  0  0  0  0  0  0  0  0  0
    5.5348    1.6760    0.1008 C   0  0  0  0  0  0  0  0  0  0  0  0
    5.6590    1.0403    1.1517 O   0  0  0  0  0  0  0  0  0  0  0  0
    5.6487    3.0256    0.0410 N   0  0  0  0  0  0  0  0  0  0  0  0
    5.4660    3.9038   -1.1352 C   0  0  0  0  0  0  0  0  0  0  0  0
    5.6611    5.3180   -0.5746 C   0  0  0  0  0  0  0  0  0  0  0  0
    5.2580    5.1880    0.8988 C   0  0  0  0  0  0  0  0  0  0  0  0
    5.7942    3.8069    1.2989 C   0  0  2  0  0  0  0  0  0  0  0  0
    7.2299    3.8043    1.8146 C   0  0  0  0  0  0  0  0  0  0  0  0
    7.6664    2.6554    2.3992 N   0  0  0  0  0  0  0  0  0  0  0  0
    7.9233    4.8861    1.6919 N   0  0  0  0  0  0  0  0  0  0  0  0
    9.2219    4.6872    2.2097 O   0  0  0  0  0  0  0  0  0  0  0  0
    5.0828    1.4495   -2.3503 O   0  0  0  0  0  0  0  0  0  0  0  0
    4.8248    0.4650   -3.2814 N   0  0  0  0  0  0  0  0  0  0  0  0
    3.6958   -2.4785   -2.9340 H   0  0  0  0  0  0  0  0  0  0  0  0
    5.4379   -2.6477   -3.2385 H   0  0  0  0  0  0  0  0  0  0  0  0
    4.4118   -1.7731   -4.4129 H   0  0  0  0  0  0  0  0  0  0  0  0
    5.1692   -1.1904   -0.4330 H   0  0  0  0  0  0  0  0  0  0  0  0
    4.4562    3.7669   -1.5537 H   0  0  0  0  0  0  0  0  0  0  0  0
    6.1829    3.6545   -1.9294 H   0  0  0  0  0  0  0  0  0  0  0  0
    5.0638    6.0588   -1.1263 H   0  0  0  0  0  0  0  0  0  0  0  0
    6.7188    5.6120   -0.6329 H   0  0  0  0  0  0  0  0  0  0  0  0
    4.1605    5.1888    1.0017 H   0  0  0  0  0  0  0  0  0  0  0  0
    5.6728    5.9836    1.5282 H   0  0  0  0  0  0  0  0  0  0  0  0
    5.1755    3.3202    2.0687 H   0  0  0  0  0  0  0  0  0  0  0  0
    7.1185    1.8119    2.2471 H   0  0  0  0  0  0  0  0  0  0  0  0
    8.6571    2.5912    2.5972 H   0  0  0  0  0  0  0  0  0  0  0  0
    9.6379    5.5456    2.0703 H   0  0  0  0  0  0  0  0  0  0  0  0
  1  2  1  0
  1 18  1  0
  1 19  1  0
  1 20  1  0
  2  3  1  0
  2 17  2  0
  3  4  2  0
  3 21  1  0
  4  5  1  0
  4 16  1  0
  5  6  2  0
  5  7  1  0
  7  8  1  0
  7 11  1  0
  8  9  1  0
  8 22  1  0
  8 23  1  0
  9 10  1  0
  9 24  1  0
  9 25  1  0
 10 11  1  0
 10 26  1  0
 10 27  1  0
 11 12  1  0
 11 28  1  1
 12 13  1  0
 12 14  2  0
 13 29  1  0
 13 30  1  0
 14 15  1  0
 15 31  1  0
 16 17  1  0
M  END

