
     RDKit          3D

 78 81  0  0  0  0  0  0  0  0999 V2000
    2.2545   -1.2821   -3.8898 C   0  0  0  0  0  0  0  0  0  0  0  0
    2.3113   -1.4170   -2.4350 N   0  0  0  0  0  0  0  0  0  0  0  0
    2.5033   -0.2472   -1.6376 C   0  0  0  0  0  0  0  0  0  0  0  0
    3.2852    0.8233   -2.1048 C   0  0  0  0  0  0  0  0  0  0  0  0
    3.4269    1.9819   -1.3361 C   0  0  0  0  0  0  0  0  0  0  0  0
    2.8062    2.0815   -0.0887 C   0  0  0  0  0  0  0  0  0  0  0  0
    2.0303    1.0157    0.3801 C   0  0  0  0  0  0  0  0  0  0  0  0
    1.8660   -0.1367   -0.3888 C   0  0  0  0  0  0  0  0  0  0  0  0
    2.8773   -2.9221   -1.8529 S   0  0  1  0  0  0  0  0  0  0  0  0
    2.5888   -2.9701   -0.4210 O   0  0  0  0  0  0  0  0  0  0  0  0
    2.3516   -3.9244   -2.7812 O   0  0  0  0  0  0  0  0  0  0  0  0
    4.6583   -2.8871   -2.0460 C   0  0  0  0  0  0  0  0  0  0  0  0
    5.4584   -2.3085   -1.0546 C   0  0  0  0  0  0  0  0  0  0  0  0
    6.8431   -2.2614   -1.2075 C   0  0  0  0  0  0  0  0  0  0  0  0
    7.4384   -2.8069   -2.3624 C   0  0  0  0  0  0  0  0  0  0  0  0
    8.8232   -2.8048   -2.5878 N   0  0  0  0  0  0  0  0  0  0  0  0
    9.8363   -2.2777   -1.8080 C   0  0  0  0  0  0  0  0  0  0  0  0
    9.6506   -1.7302   -0.7385 O   0  0  0  0  0  0  0  0  0  0  0  0
   11.2255   -2.4132   -2.4301 C   0  0  0  0  0  0  0  0  0  0  0  0
   12.3475   -2.3352   -1.3955 C   0  0  0  0  0  0  0  0  0  0  0  0
   13.7409   -2.3349   -2.0267 C   0  0  0  0  0  0  0  0  0  0  0  0
   14.8612   -2.2606   -0.9909 C   0  0  0  0  0  0  0  0  0  0  0  0
   16.2538   -2.3551   -1.6130 C   0  0  0  0  0  0  0  0  0  0  0  0
   16.4424   -2.7840   -2.7350 O   0  0  0  0  0  0  0  0  0  0  0  0
   17.2666   -1.9334   -0.7711 N   0  0  0  0  0  0  0  0  0  0  0  0
   18.6538   -1.9339   -0.9804 C   0  0  0  0  0  0  0  0  0  0  0  0
   19.2561   -2.4037   -2.1639 C   0  0  0  0  0  0  0  0  0  0  0  0
   20.6446   -2.3731   -2.2915 C   0  0  0  0  0  0  0  0  0  0  0  0
   21.4388   -1.8733   -1.2546 C   0  0  0  0  0  0  0  0  0  0  0  0
   23.2190   -1.8112   -1.4448 S   0  0  1  0  0  0  0  0  0  0  0  0
   23.8061   -1.8841   -0.1078 O   0  0  0  0  0  0  0  0  0  0  0  0
   23.5891   -2.7512   -2.5032 O   0  0  0  0  0  0  0  0  0  0  0  0
   23.5692   -0.2572   -2.0693 N   0  0  0  0  0  0  0  0  0  0  0  0
   23.3210   -0.0797   -3.4996 C   0  0  0  0  0  0  0  0  0  0  0  0
   23.4751    0.8757   -1.2047 C   0  0  0  0  0  0  0  0  0  0  0  0
   24.3383    0.9910   -0.1000 C   0  0  0  0  0  0  0  0  0  0  0  0
   24.2669    2.1105    0.7295 C   0  0  0  0  0  0  0  0  0  0  0  0
   23.3585    3.1405    0.4616 C   0  0  0  0  0  0  0  0  0  0  0  0
   22.5116    3.0374   -0.6444 C   0  0  0  0  0  0  0  0  0  0  0  0
   22.5610    1.9105   -1.4696 C   0  0  0  0  0  0  0  0  0  0  0  0
   20.8529   -1.4147   -0.0687 C   0  0  0  0  0  0  0  0  0  0  0  0
   19.4689   -1.4448    0.0610 C   0  0  0  0  0  0  0  0  0  0  0  0
    6.6202   -3.3983   -3.3459 C   0  0  0  0  0  0  0  0  0  0  0  0
    5.2381   -3.4417   -3.1925 C   0  0  0  0  0  0  0  0  0  0  0  0
    1.6223   -0.4156   -4.1294 H   0  0  0  0  0  0  0  0  0  0  0  0
    1.7937   -2.1832   -4.3114 H   0  0  0  0  0  0  0  0  0  0  0  0
    3.2448   -1.1351   -4.3615 H   0  0  0  0  0  0  0  0  0  0  0  0
    3.7865    0.7545   -3.0717 H   0  0  0  0  0  0  0  0  0  0  0  0
    4.0341    2.8079   -1.7153 H   0  0  0  0  0  0  0  0  0  0  0  0
    2.9208    2.9865    0.5129 H   0  0  0  0  0  0  0  0  0  0  0  0
    1.5317    1.0870    1.3502 H   0  0  0  0  0  0  0  0  0  0  0  0
    1.2523   -0.9633   -0.0341 H   0  0  0  0  0  0  0  0  0  0  0  0
    4.9966   -1.9083   -0.1505 H   0  0  0  0  0  0  0  0  0  0  0  0
    7.4743   -1.8168   -0.4422 H   0  0  0  0  0  0  0  0  0  0  0  0
    9.1156   -3.2442   -3.4531 H   0  0  0  0  0  0  0  0  0  0  0  0
   11.3334   -1.5915   -3.1634 H   0  0  0  0  0  0  0  0  0  0  0  0
   11.2943   -3.3489   -3.0125 H   0  0  0  0  0  0  0  0  0  0  0  0
   12.2524   -3.1831   -0.6944 H   0  0  0  0  0  0  0  0  0  0  0  0
   12.1954   -1.4292   -0.7867 H   0  0  0  0  0  0  0  0  0  0  0  0
   13.8374   -1.4852   -2.7251 H   0  0  0  0  0  0  0  0  0  0  0  0
   13.8912   -3.2382   -2.6399 H   0  0  0  0  0  0  0  0  0  0  0  0
   14.7663   -3.0949   -0.2703 H   0  0  0  0  0  0  0  0  0  0  0  0
   14.7795   -1.3359   -0.3923 H   0  0  0  0  0  0  0  0  0  0  0  0
   16.9721   -1.5862    0.1347 H   0  0  0  0  0  0  0  0  0  0  0  0
   18.6299   -2.7936   -2.9624 H   0  0  0  0  0  0  0  0  0  0  0  0
   21.1198   -2.7609   -3.1943 H   0  0  0  0  0  0  0  0  0  0  0  0
   23.7321   -0.9408   -4.0395 H   0  0  0  0  0  0  0  0  0  0  0  0
   23.8458    0.8283   -3.8287 H   0  0  0  0  0  0  0  0  0  0  0  0
   22.2492    0.0214   -3.7552 H   0  0  0  0  0  0  0  0  0  0  0  0
   25.0538    0.1941    0.0963 H   0  0  0  0  0  0  0  0  0  0  0  0
   24.9427    2.1856    1.5854 H   0  0  0  0  0  0  0  0  0  0  0  0
   23.3173    4.0212    1.1072 H   0  0  0  0  0  0  0  0  0  0  0  0
   21.7998    3.8365   -0.8679 H   0  0  0  0  0  0  0  0  0  0  0  0
   21.8848    1.8388   -2.3229 H   0  0  0  0  0  0  0  0  0  0  0  0
   21.4810   -1.0551    0.7475 H   0  0  0  0  0  0  0  0  0  0  0  0
   19.0088   -1.0915    0.9886 H   0  0  0  0  0  0  0  0  0  0  0  0
    7.0763   -3.8389   -4.2375 H   0  0  0  0  0  0  0  0  0  0  0  0
    4.6069   -3.9217   -3.9419 H   0  0  0  0  0  0  0  0  0  0  0  0
  1  2  1  0
  1 45  1  0
  1 46  1  0
  1 47  1  0
  2  3  1  0
  9  2  1  6
  3  4  2  0
  3  8  1  0
  4  5  1  0
  4 48  1  0
  5  6  2  0
  5 49  1  0
  6  7  1  0
  6 50  1  0
  7  8  2  0
  7 51  1  0
  8 52  1  0
  9 10  2  0
  9 11  2  0
  9 12  1  0
 12 13  2  0
 12 44  1  0
 13 14  1  0
 13 53  1  0
 14 15  2  0
 14 54  1  0
 15 16  1  0
 15 43  1  0
 16 17  1  0
 16 55  1  0
 17 18  2  0
 17 19  1  0
 19 20  1  0
 19 56  1  0
 19 57  1  0
 20 21  1  0
 20 58  1  0
 20 59  1  0
 21 22  1  0
 21 60  1  0
 21 61  1  0
 22 23  1  0
 22 62  1  0
 22 63  1  0
 23 24  2  0
 23 25  1  0
 25 26  1  0
 25 64  1  0
 26 27  2  0
 26 42  1  0
 27 28  1  0
 27 65  1  0
 28 29  2  0
 28 66  1  0
 29 30  1  0
 29 41  1  0
 30 31  2  0
 30 32  2  0
 30 33  1  6
 33 34  1  0
 33 35  1  0
 34 67  1  0
 34 68  1  0
 34 69  1  0
 35 36  2  0
 35 40  1  0
 36 37  1  0
 36 70  1  0
 37 38  2  0
 37 71  1  0
 38 39  1  0
 38 72  1  0
 39 40  2  0
 39 73  1  0
 40 74  1  0
 41 42  2  0
 41 75  1  0
 42 76  1  0
 43 44  2  0
 43 77  1  0
 44 78  1  0
M  END

