
     RDKit          3D

 31 31  0  0  0  0  0  0  0  0999 V2000
    1.2374   -0.5428    0.6535 O   0  0  0  0  0  0  0  0  0  0  0  0
    2.2923   -0.1493    0.1859 C   0  0  0  0  0  0  0  0  0  0  0  0
    2.9762    1.1197    0.6909 C   0  0  0  0  0  0  0  0  0  0  0  0
    1.9482    2.2138    1.0048 C   0  0  0  0  0  0  0  0  0  0  0  0
    2.5105    3.3732    1.6735 N   0  0  0  0  0  0  0  0  0  0  0  0
    3.2599    4.2896    1.0066 C   0  0  0  0  0  0  0  0  0  0  0  0
    3.5066    4.2622   -0.1815 O   0  0  0  0  0  0  0  0  0  0  0  0
    3.6971    5.2566    1.8621 O   0  0  0  0  0  0  0  0  0  0  0  0
    4.5088    6.3038    1.3042 C   0  0  0  0  0  0  0  0  0  0  0  0
    3.6461    7.5084    0.9656 C   0  0  0  0  0  0  0  0  0  0  0  0
    2.9787    8.0221    2.0944 O   0  0  0  0  0  0  0  0  0  0  0  0
    2.9634   -0.8212   -0.8009 N   0  0  0  0  0  0  0  0  0  0  0  0
    2.4441   -2.0090   -1.4126 C   0  0  1  0  0  0  0  0  0  0  0  0
    3.4232   -3.0697   -1.8430 C   0  0  0  0  0  0  0  0  0  0  0  0
    2.5135   -3.3142   -0.6666 C   0  0  0  0  0  0  0  0  0  0  0  0
    3.7213    1.5005   -0.0246 H   0  0  0  0  0  0  0  0  0  0  0  0
    3.5167    0.8531    1.6167 H   0  0  0  0  0  0  0  0  0  0  0  0
    1.1583    1.7885    1.6388 H   0  0  0  0  0  0  0  0  0  0  0  0
    1.4726    2.5460    0.0686 H   0  0  0  0  0  0  0  0  0  0  0  0
    2.4437    3.4620    2.6800 H   0  0  0  0  0  0  0  0  0  0  0  0
    5.0334    5.9295    0.4132 H   0  0  0  0  0  0  0  0  0  0  0  0
    5.2327    6.5630    2.0912 H   0  0  0  0  0  0  0  0  0  0  0  0
    2.9435    7.2296    0.1541 H   0  0  0  0  0  0  0  0  0  0  0  0
    4.2937    8.3105    0.5737 H   0  0  0  0  0  0  0  0  0  0  0  0
    2.4893    7.2871    2.4894 H   0  0  0  0  0  0  0  0  0  0  0  0
    3.7575   -0.3666   -1.2373 H   0  0  0  0  0  0  0  0  0  0  0  0
    1.5593   -1.8542   -2.0430 H   0  0  0  0  0  0  0  0  0  0  0  0
    4.4830   -2.8912   -1.6365 H   0  0  0  0  0  0  0  0  0  0  0  0
    3.2296   -3.5933   -2.7830 H   0  0  0  0  0  0  0  0  0  0  0  0
    2.9533   -3.2905    0.3333 H   0  0  0  0  0  0  0  0  0  0  0  0
    1.6758   -4.0070   -0.7797 H   0  0  0  0  0  0  0  0  0  0  0  0
  1  2  2  0
  2  3  1  0
  2 12  1  0
  3  4  1  0
  3 16  1  0
  3 17  1  0
  4  5  1  0
  4 18  1  0
  4 19  1  0
  5  6  1  0
  5 20  1  0
  6  7  2  0
  6  8  1  0
  8  9  1  0
  9 10  1  0
  9 21  1  0
  9 22  1  0
 10 11  1  0
 10 23  1  0
 10 24  1  0
 11 25  1  0
 12 13  1  0
 12 26  1  0
 13 14  1  0
 13 15  1  0
 13 27  1  6
 14 15  1  0
 14 28  1  0
 14 29  1  0
 15 30  1  0
 15 31  1  0
M  END

