
     RDKit          3D

 63 70  0  0  0  0  0  0  0  0999 V2000
    0.2780   -2.2000   -0.7148 F   0  0  0  0  0  0  0  0  0  0  0  0
    0.7059   -2.4598   -2.0114 B   0  0  2  0  0  0  0  0  0  0  0  0
   -0.3821   -2.5477   -2.8735 F   0  0  0  0  0  0  0  0  0  0  0  0
    1.5348   -3.7739   -2.0441 N   0  0  0  0  0  0  0  0  0  0  0  0
    2.9193   -3.8357   -1.9063 C   0  0  0  0  0  0  0  0  0  0  0  0
    3.2974   -5.1910   -1.5921 C   0  0  0  0  0  0  0  0  0  0  0  0
    4.6044   -5.7859   -1.2379 C   0  0  0  0  0  0  0  0  0  0  0  0
    5.3284   -5.3432   -0.1154 C   0  0  0  0  0  0  0  0  0  0  0  0
    6.5189   -5.9686    0.2572 C   0  0  0  0  0  0  0  0  0  0  0  0
    7.0096   -7.0505   -0.4813 C   0  0  0  0  0  0  0  0  0  0  0  0
    6.2960   -7.5068   -1.5932 C   0  0  0  0  0  0  0  0  0  0  0  0
    5.1014   -6.8851   -1.9641 C   0  0  0  0  0  0  0  0  0  0  0  0
    2.0961   -5.9389   -1.6048 C   0  0  0  0  0  0  0  0  0  0  0  0
    1.8020   -7.3089   -1.3597 C   0  0  0  0  0  0  0  0  0  0  0  0
    0.4874   -7.7203   -1.4125 C   0  0  0  0  0  0  0  0  0  0  0  0
   -0.5612   -6.7957   -1.7004 C   0  0  0  0  0  0  0  0  0  0  0  0
   -0.3169   -5.4549   -1.9306 C   0  0  0  0  0  0  0  0  0  0  0  0
    1.0275   -5.0206   -1.8787 C   0  0  0  0  0  0  0  0  0  0  0  0
    3.7055   -2.6821   -2.1688 C   0  0  0  0  0  0  0  0  0  0  0  0
    5.1909   -2.7498   -2.0947 C   0  0  0  0  0  0  0  0  0  0  0  0
    5.8842   -1.9998   -1.1308 C   0  0  0  0  0  0  0  0  0  0  0  0
    7.2762   -2.0656   -1.0511 C   0  0  0  0  0  0  0  0  0  0  0  0
    7.9932   -2.8700   -1.9414 C   0  0  0  0  0  0  0  0  0  0  0  0
    7.3110   -3.6129   -2.9096 C   0  0  0  0  0  0  0  0  0  0  0  0
    5.9188   -3.5581   -2.9827 C   0  0  0  0  0  0  0  0  0  0  0  0
    3.0719   -1.4607   -2.5251 C   0  0  0  0  0  0  0  0  0  0  0  0
    3.6245   -0.1995   -2.9505 C   0  0  0  0  0  0  0  0  0  0  0  0
    5.0132    0.2174   -3.2499 C   0  0  0  0  0  0  0  0  0  0  0  0
    5.7584   -0.3819   -4.2814 C   0  0  0  0  0  0  0  0  0  0  0  0
    7.0324    0.0870   -4.6064 C   0  0  0  0  0  0  0  0  0  0  0  0
    7.5865    1.1666   -3.9113 C   0  0  0  0  0  0  0  0  0  0  0  0
    6.8533    1.7783   -2.8906 C   0  0  0  0  0  0  0  0  0  0  0  0
    5.5768    1.3124   -2.5671 C   0  0  0  0  0  0  0  0  0  0  0  0
    2.5190    0.6629   -3.1374 C   0  0  0  0  0  0  0  0  0  0  0  0
    2.4040    2.0134   -3.5688 C   0  0  0  0  0  0  0  0  0  0  0  0
    1.1457    2.5661   -3.6742 C   0  0  0  0  0  0  0  0  0  0  0  0
   -0.0207    1.8003   -3.3730 C   0  0  0  0  0  0  0  0  0  0  0  0
    0.0496    0.4801   -2.9695 C   0  0  0  0  0  0  0  0  0  0  0  0
    1.3353   -0.0954   -2.8491 C   0  0  0  0  0  0  0  0  0  0  0  0
    1.6851   -1.3552   -2.4898 N   0  0  0  0  0  0  0  0  0  0  0  0
    4.9445   -4.5080    0.4734 H   0  0  0  0  0  0  0  0  0  0  0  0
    7.0649   -5.6112    1.1339 H   0  0  0  0  0  0  0  0  0  0  0  0
    7.9425   -7.5384   -0.1881 H   0  0  0  0  0  0  0  0  0  0  0  0
    6.6702   -8.3527   -2.1759 H   0  0  0  0  0  0  0  0  0  0  0  0
    4.5503   -7.2419   -2.8376 H   0  0  0  0  0  0  0  0  0  0  0  0
    2.6043   -8.0125   -1.1296 H   0  0  0  0  0  0  0  0  0  0  0  0
    0.2353   -8.7673   -1.2283 H   0  0  0  0  0  0  0  0  0  0  0  0
   -1.5902   -7.1632   -1.7367 H   0  0  0  0  0  0  0  0  0  0  0  0
   -1.1143   -4.7474   -2.1545 H   0  0  0  0  0  0  0  0  0  0  0  0
    5.3252   -1.3687   -0.4365 H   0  0  0  0  0  0  0  0  0  0  0  0
    7.8030   -1.4814   -0.2927 H   0  0  0  0  0  0  0  0  0  0  0  0
    9.0834   -2.9169   -1.8818 H   0  0  0  0  0  0  0  0  0  0  0  0
    7.8653   -4.2422   -3.6101 H   0  0  0  0  0  0  0  0  0  0  0  0
    5.3880   -4.1396   -3.7391 H   0  0  0  0  0  0  0  0  0  0  0  0
    5.3263   -1.2140   -4.8403 H   0  0  0  0  0  0  0  0  0  0  0  0
    7.5939   -0.3912   -5.4130 H   0  0  0  0  0  0  0  0  0  0  0  0
    8.5840    1.5322   -4.1678 H   0  0  0  0  0  0  0  0  0  0  0  0
    7.2759    2.6244   -2.3424 H   0  0  0  0  0  0  0  0  0  0  0  0
    5.0088    1.7915   -1.7660 H   0  0  0  0  0  0  0  0  0  0  0  0
    3.2976    2.5921   -3.8109 H   0  0  0  0  0  0  0  0  0  0  0  0
    1.0298    3.6025   -4.0003 H   0  0  0  0  0  0  0  0  0  0  0  0
   -1.0008    2.2737   -3.4759 H   0  0  0  0  0  0  0  0  0  0  0  0
   -0.8420   -0.1107   -2.7632 H   0  0  0  0  0  0  0  0  0  0  0  0
  2  1  1  1
  2  3  1  0
  2  4  1  0
  2 40  1  0
  4  5  1  0
  4 18  1  0
  5  6  2  0
  5 19  1  0
  6  7  1  0
  6 13  1  0
  7  8  2  0
  7 12  1  0
  8  9  1  0
  8 41  1  0
  9 10  2  0
  9 42  1  0
 10 11  1  0
 10 43  1  0
 11 12  2  0
 11 44  1  0
 12 45  1  0
 13 14  1  0
 13 18  2  0
 14 15  2  0
 14 46  1  0
 15 16  1  0
 15 47  1  0
 16 17  2  0
 16 48  1  0
 17 18  1  0
 17 49  1  0
 19 20  1  0
 19 26  2  0
 20 21  2  0
 20 25  1  0
 21 22  1  0
 21 50  1  0
 22 23  2  0
 22 51  1  0
 23 24  1  0
 23 52  1  0
 24 25  2  0
 24 53  1  0
 25 54  1  0
 26 27  1  0
 26 40  1  0
 27 28  1  0
 27 34  2  0
 28 29  2  0
 28 33  1  0
 29 30  1  0
 29 55  1  0
 30 31  2  0
 30 56  1  0
 31 32  1  0
 31 57  1  0
 32 33  2  0
 32 58  1  0
 33 59  1  0
 34 35  1  0
 34 39  1  0
 35 36  2  0
 35 60  1  0
 36 37  1  0
 36 61  1  0
 37 38  2  0
 37 62  1  0
 38 39  1  0
 38 63  1  0
 39 40  2  0
M  CHG  2   2  -1  40   1
M  END

