
     RDKit          3D

 51 53  0  0  0  0  0  0  0  0999 V2000
    0.4647    0.9849   -0.5970 C   0  0  0  0  0  0  0  0  0  0  0  0
    1.8694    0.4930   -0.2059 C   0  0  1  0  0  0  0  0  0  0  0  0
    2.6076    0.0211   -1.3759 N   0  0  0  0  0  0  0  0  0  0  0  0
    2.1020   -1.1377   -2.1077 C   0  0  2  0  0  0  0  0  0  0  0  0
    2.0698   -2.4701   -1.3188 C   0  0  0  0  0  0  0  0  0  0  0  0
    3.5256   -2.9648   -1.3970 C   0  0  0  0  0  0  0  0  0  0  0  0
    4.1037   -2.3386   -2.6030 N   0  0  0  0  0  0  0  0  0  0  0  0
    4.5923   -3.2330   -3.6453 C   0  0  0  0  0  0  0  0  0  0  0  0
    3.3579   -3.5839   -4.5069 C   0  0  0  0  0  0  0  0  0  0  0  0
    2.5016   -2.2984   -4.4450 C   0  0  0  0  0  0  0  0  0  0  0  0
    3.0812   -1.4825   -3.2414 C   0  0  1  0  0  0  0  0  0  0  0  0
    2.6554    1.6043    0.4779 C   0  0  0  0  0  0  0  0  0  0  0  0
    2.7007    1.7014    1.8726 C   0  0  0  0  0  0  0  0  0  0  0  0
    3.3815    2.7455    2.5086 C   0  0  0  0  0  0  0  0  0  0  0  0
    4.0509    3.7371    1.7749 C   0  0  0  0  0  0  0  0  0  0  0  0
    4.8155    4.9010    2.4356 C   0  0  1  0  0  0  0  0  0  0  0  0
    4.7482    4.8445    3.9724 C   0  0  0  0  0  0  0  0  0  0  0  0
    6.3027    4.8442    2.0156 C   0  0  0  0  0  0  0  0  0  0  0  0
    4.2038    6.2446    1.9754 C   0  0  0  0  0  0  0  0  0  0  0  0
    4.0041    3.6281    0.3718 C   0  0  0  0  0  0  0  0  0  0  0  0
    3.3238    2.5906   -0.2648 C   0  0  0  0  0  0  0  0  0  0  0  0
   -0.1561    0.1696   -1.0011 H   0  0  0  0  0  0  0  0  0  0  0  0
    0.5345    1.7773   -1.3587 H   0  0  0  0  0  0  0  0  0  0  0  0
   -0.0542    1.3925    0.2835 H   0  0  0  0  0  0  0  0  0  0  0  0
    1.7283   -0.3081    0.5535 H   0  0  0  0  0  0  0  0  0  0  0  0
    3.5872   -0.1233   -1.1337 H   0  0  0  0  0  0  0  0  0  0  0  0
    1.1100   -0.8869   -2.5134 H   0  0  0  0  0  0  0  0  0  0  0  0
    1.3943   -3.1790   -1.8260 H   0  0  0  0  0  0  0  0  0  0  0  0
    1.7030   -2.3578   -0.2872 H   0  0  0  0  0  0  0  0  0  0  0  0
    3.5818   -4.0667   -1.4427 H   0  0  0  0  0  0  0  0  0  0  0  0
    4.0939   -2.6626   -0.4974 H   0  0  0  0  0  0  0  0  0  0  0  0
    5.0957   -4.1107   -3.2119 H   0  0  0  0  0  0  0  0  0  0  0  0
    5.3434   -2.7030   -4.2597 H   0  0  0  0  0  0  0  0  0  0  0  0
    2.8169   -4.4321   -4.0547 H   0  0  0  0  0  0  0  0  0  0  0  0
    3.6205   -3.8798   -5.5346 H   0  0  0  0  0  0  0  0  0  0  0  0
    1.4329   -2.5262   -4.3070 H   0  0  0  0  0  0  0  0  0  0  0  0
    2.5832   -1.7147   -5.3752 H   0  0  0  0  0  0  0  0  0  0  0  0
    3.5408   -0.5525   -3.6146 H   0  0  0  0  0  0  0  0  0  0  0  0
    2.1974    0.9443    2.4823 H   0  0  0  0  0  0  0  0  0  0  0  0
    3.3858    2.7689    3.5987 H   0  0  0  0  0  0  0  0  0  0  0  0
    5.1974    3.9209    4.3701 H   0  0  0  0  0  0  0  0  0  0  0  0
    3.7123    4.9073    4.3411 H   0  0  0  0  0  0  0  0  0  0  0  0
    5.3037    5.6932    4.4018 H   0  0  0  0  0  0  0  0  0  0  0  0
    6.7671    3.8978    2.3356 H   0  0  0  0  0  0  0  0  0  0  0  0
    6.8660    5.6730    2.4757 H   0  0  0  0  0  0  0  0  0  0  0  0
    6.4246    4.9238    0.9247 H   0  0  0  0  0  0  0  0  0  0  0  0
    3.1437    6.3159    2.2668 H   0  0  0  0  0  0  0  0  0  0  0  0
    4.2589    6.3683    0.8831 H   0  0  0  0  0  0  0  0  0  0  0  0
    4.7413    7.0910    2.4345 H   0  0  0  0  0  0  0  0  0  0  0  0
    4.5121    4.3714   -0.2479 H   0  0  0  0  0  0  0  0  0  0  0  0
    3.3141    2.5287   -1.3552 H   0  0  0  0  0  0  0  0  0  0  0  0
  1  2  1  0
  1 22  1  0
  1 23  1  0
  1 24  1  0
  2  3  1  0
  2 12  1  0
  2 25  1  1
  3  4  1  0
  3 26  1  0
  4  5  1  0
  4 11  1  0
  4 27  1  6
  5  6  1  0
  5 28  1  0
  5 29  1  0
  6  7  1  0
  6 30  1  0
  6 31  1  0
  7  8  1  0
  7 11  1  0
  8  9  1  0
  8 32  1  0
  8 33  1  0
  9 10  1  0
  9 34  1  0
  9 35  1  0
 10 11  1  0
 10 36  1  0
 10 37  1  0
 11 38  1  6
 12 13  2  0
 12 21  1  0
 13 14  1  0
 13 39  1  0
 14 15  2  0
 14 40  1  0
 15 16  1  0
 15 20  1  0
 16 17  1  1
 16 18  1  0
 16 19  1  0
 17 41  1  0
 17 42  1  0
 17 43  1  0
 18 44  1  0
 18 45  1  0
 18 46  1  0
 19 47  1  0
 19 48  1  0
 19 49  1  0
 20 21  2  0
 20 50  1  0
 21 51  1  0
M  END

