
     RDKit          3D

 35 37  0  0  0  0  0  0  0  0999 V2000
    4.9393   -0.1434    1.9207 C   0  0  0  0  0  0  0  0  0  0  0  0
    4.3187    1.2267    1.6472 C   0  0  0  0  0  0  0  0  0  0  0  0
    5.2351    2.4102    1.9823 C   0  0  0  0  0  0  0  0  0  0  0  0
    6.4679    2.4503    1.2071 N   0  0  0  0  0  0  0  0  0  0  0  0
    6.5611    3.1255    0.0433 C   0  0  0  0  0  0  0  0  0  0  0  0
    5.7294    3.8081   -0.4959 O   0  0  0  0  0  0  0  0  0  0  0  0
    7.8516    2.9280   -0.4807 O   0  0  0  0  0  0  0  0  0  0  0  0
    8.0256    3.5501   -1.6797 N   0  0  0  0  0  0  0  0  0  0  0  0
    8.2893    4.9567   -1.7618 C   0  0  0  0  0  0  0  0  0  0  0  0
    8.6448    5.6449   -0.8480 O   0  0  0  0  0  0  0  0  0  0  0  0
    7.8572    5.2307   -3.1900 C   0  0  1  0  0  0  0  0  0  0  0  0
    6.7638    5.2162   -3.0333 H   0  0  0  0  0  0  0  0  0  0  0  0
    8.1137    6.2959   -4.3184 C   0  0  2  0  0  0  0  0  0  0  0  0
    8.4247    7.2969   -3.9954 H   0  0  0  0  0  0  0  0  0  0  0  0
    6.7924    6.1888   -5.0952 C   0  0  0  0  0  0  0  0  0  0  0  0
    6.7644    4.9838   -5.6904 C   0  0  0  0  0  0  0  0  0  0  0  0
    8.0859    4.2797   -5.4039 C   0  0  1  0  0  0  0  0  0  0  0  0
    8.3801    3.4846   -6.1009 H   0  0  0  0  0  0  0  0  0  0  0  0
    9.0208    5.5376   -5.3261 C   0  0  0  0  0  0  0  0  0  0  0  0
    8.2370    3.9133   -3.8950 C   0  0  2  0  0  0  0  0  0  0  0  0
    9.3256    3.7766   -3.7690 H   0  0  0  0  0  0  0  0  0  0  0  0
    7.7058    2.8921   -2.9041 C   0  0  0  0  0  0  0  0  0  0  0  0
    7.2228    1.7985   -2.9975 O   0  0  0  0  0  0  0  0  0  0  0  0
    4.2377   -0.9555    1.6743 H   0  0  0  0  0  0  0  0  0  0  0  0
    5.2178   -0.2565    2.9826 H   0  0  0  0  0  0  0  0  0  0  0  0
    5.8461   -0.3036    1.3147 H   0  0  0  0  0  0  0  0  0  0  0  0
    3.3933    1.3441    2.2382 H   0  0  0  0  0  0  0  0  0  0  0  0
    4.0208    1.3044    0.5877 H   0  0  0  0  0  0  0  0  0  0  0  0
    5.5094    2.3908    3.0507 H   0  0  0  0  0  0  0  0  0  0  0  0
    4.7062    3.3560    1.7957 H   0  0  0  0  0  0  0  0  0  0  0  0
    7.2659    1.8909    1.4846 H   0  0  0  0  0  0  0  0  0  0  0  0
    5.9795    6.9159   -5.0387 H   0  0  0  0  0  0  0  0  0  0  0  0
    5.9301    4.5412   -6.2372 H   0  0  0  0  0  0  0  0  0  0  0  0
    9.0954    6.0650   -6.2870 H   0  0  0  0  0  0  0  0  0  0  0  0
   10.0335    5.3158   -4.9547 H   0  0  0  0  0  0  0  0  0  0  0  0
  1  2  1  0
  1 24  1  0
  1 25  1  0
  1 26  1  0
  2  3  1  0
  2 27  1  0
  2 28  1  0
  3  4  1  0
  3 29  1  0
  3 30  1  0
  4  5  1  0
  4 31  1  0
  5  6  2  0
  5  7  1  0
  7  8  1  0
  8  9  1  0
  8 22  1  0
  9 10  2  0
  9 11  1  0
 11 12  1  1
 11 13  1  0
 11 20  1  0
 13 14  1  1
 13 15  1  0
 13 19  1  0
 15 16  2  0
 15 32  1  0
 16 17  1  0
 16 33  1  0
 17 18  1  6
 17 19  1  0
 17 20  1  0
 19 34  1  0
 19 35  1  0
 20 21  1  6
 20 22  1  0
 22 23  2  0
M  END

