
     RDKit          3D

 39 40  0  0  0  0  0  0  0  0999 V2000
    2.7871   -2.4316    1.1322 C   0  0  0  0  0  0  0  0  0  0  0  0
    3.9038   -1.5098    0.6839 C   0  0  0  0  0  0  0  0  0  0  0  0
    5.0456   -1.6420    1.0919 O   0  0  0  0  0  0  0  0  0  0  0  0
    3.5752   -0.4853   -0.2048 N   0  0  0  0  0  0  0  0  0  0  0  0
    2.2293   -0.2957   -0.7416 C   0  0  0  0  0  0  0  0  0  0  0  0
    1.8822   -1.1500   -1.9804 C   0  0  0  0  0  0  0  0  0  0  0  0
    1.5878   -2.3265   -1.8896 O   0  0  0  0  0  0  0  0  0  0  0  0
    1.9136   -0.4608   -3.1675 N   0  0  0  0  0  0  0  0  0  0  0  0
    1.5420   -1.0160   -4.4179 C   0  0  0  0  0  0  0  0  0  0  0  0
    0.4477   -0.4686   -5.1012 C   0  0  0  0  0  0  0  0  0  0  0  0
    0.0542   -0.9701   -6.3409 C   0  0  0  0  0  0  0  0  0  0  0  0
    0.7407   -2.0417   -6.9106 C   0  0  0  0  0  0  0  0  0  0  0  0
    1.8391   -2.5950   -6.2465 C   0  0  0  0  0  0  0  0  0  0  0  0
    2.6911   -3.9166   -6.9938 Cl  0  0  0  0  0  0  0  0  0  0  0  0
    2.2595   -2.0793   -5.0068 C   0  0  0  0  0  0  0  0  0  0  0  0
    3.6846   -2.7131   -4.2433 Cl  0  0  0  0  0  0  0  0  0  0  0  0
    4.6565    0.4219   -0.5883 C   0  0  1  0  0  0  0  0  0  0  0  0
    5.1960    0.1795   -2.0472 C   0  0  0  0  0  0  0  0  0  0  0  0
    5.5188    1.5150   -2.7181 C   0  0  0  0  0  0  0  0  0  0  0  0
    4.2349    2.6377   -2.0828 S   0  0  2  0  0  0  0  0  0  0  0  0
    2.9425    2.2368   -2.6957 O   0  0  0  0  0  0  0  0  0  0  0  0
    4.6363    4.0447   -2.1103 O   0  0  0  0  0  0  0  0  0  0  0  0
    4.3135    1.9210   -0.4073 C   0  0  0  0  0  0  0  0  0  0  0  0
    3.2377   -3.2188    1.7478 H   0  0  0  0  0  0  0  0  0  0  0  0
    2.2537   -2.8680    0.2758 H   0  0  0  0  0  0  0  0  0  0  0  0
    2.0520   -1.8831    1.7450 H   0  0  0  0  0  0  0  0  0  0  0  0
    2.0868    0.7664   -0.9791 H   0  0  0  0  0  0  0  0  0  0  0  0
    1.4867   -0.5598    0.0227 H   0  0  0  0  0  0  0  0  0  0  0  0
    2.1177    0.5424   -3.1359 H   0  0  0  0  0  0  0  0  0  0  0  0
   -0.0974    0.3540   -4.6338 H   0  0  0  0  0  0  0  0  0  0  0  0
   -0.8013   -0.5343   -6.8614 H   0  0  0  0  0  0  0  0  0  0  0  0
    0.4404   -2.4593   -7.8726 H   0  0  0  0  0  0  0  0  0  0  0  0
    5.4621    0.1750    0.1131 H   0  0  0  0  0  0  0  0  0  0  0  0
    4.4418   -0.3523   -2.6392 H   0  0  0  0  0  0  0  0  0  0  0  0
    6.0834   -0.4686   -2.0118 H   0  0  0  0  0  0  0  0  0  0  0  0
    5.4476    1.5114   -3.8145 H   0  0  0  0  0  0  0  0  0  0  0  0
    6.4807    1.9543   -2.4126 H   0  0  0  0  0  0  0  0  0  0  0  0
    3.3643    2.1250    0.1045 H   0  0  0  0  0  0  0  0  0  0  0  0
    5.1159    2.4717    0.1033 H   0  0  0  0  0  0  0  0  0  0  0  0
  1  2  1  0
  1 24  1  0
  1 25  1  0
  1 26  1  0
  2  3  2  0
  2  4  1  0
  4  5  1  0
  4 17  1  0
  5  6  1  0
  5 27  1  0
  5 28  1  0
  6  7  2  0
  6  8  1  0
  8  9  1  0
  8 29  1  0
  9 10  2  0
  9 15  1  0
 10 11  1  0
 10 30  1  0
 11 12  2  0
 11 31  1  0
 12 13  1  0
 12 32  1  0
 13 14  1  0
 13 15  2  0
 15 16  1  0
 17 18  1  0
 17 23  1  0
 17 33  1  1
 18 19  1  0
 18 34  1  0
 18 35  1  0
 20 19  1  6
 19 36  1  0
 19 37  1  0
 20 21  2  0
 20 22  2  0
 20 23  1  0
 23 38  1  0
 23 39  1  0
M  END

