
     RDKit          3D

 44 47  0  0  0  0  0  0  0  0999 V2000
    0.3201    0.4661    1.0142 C   0  0  0  0  0  0  0  0  0  0  0  0
    1.6980    0.4901    1.3120 O   0  0  0  0  0  0  0  0  0  0  0  0
    2.4461    1.5498    0.9180 C   0  0  0  0  0  0  0  0  0  0  0  0
    1.9526    2.6517    0.2015 C   0  0  0  0  0  0  0  0  0  0  0  0
    2.8159    3.6919   -0.1499 C   0  0  0  0  0  0  0  0  0  0  0  0
    4.1810    3.6581    0.1730 C   0  0  0  0  0  0  0  0  0  0  0  0
    5.0441    4.8233   -0.1667 C   0  0  0  0  0  0  0  0  0  0  0  0
    4.4779    6.0098   -0.0500 N   0  0  0  0  0  0  0  0  0  0  0  0
    5.2291    7.1278   -0.1984 C   0  0  0  0  0  0  0  0  0  0  0  0
    4.6389    8.4151   -0.0806 C   0  0  0  0  0  0  0  0  0  0  0  0
    5.4289    9.5440   -0.1590 C   0  0  0  0  0  0  0  0  0  0  0  0
    6.8313    9.4338   -0.3558 C   0  0  0  0  0  0  0  0  0  0  0  0
    7.4280    8.1963   -0.4871 C   0  0  0  0  0  0  0  0  0  0  0  0
    6.6360    7.0178   -0.4250 C   0  0  0  0  0  0  0  0  0  0  0  0
    7.1964    5.8006   -0.6252 N   0  0  0  0  0  0  0  0  0  0  0  0
    6.4447    4.7176   -0.5606 C   0  0  0  0  0  0  0  0  0  0  0  0
    7.1089    3.4450   -0.9551 C   0  0  0  0  0  0  0  0  0  0  0  0
    8.4697    3.2467   -0.6415 C   0  0  0  0  0  0  0  0  0  0  0  0
    9.1415    2.1007   -1.0430 C   0  0  0  0  0  0  0  0  0  0  0  0
    8.4782    1.1167   -1.7995 C   0  0  0  0  0  0  0  0  0  0  0  0
    9.2137    0.0333   -2.1488 O   0  0  0  0  0  0  0  0  0  0  0  0
    8.6165   -0.9935   -2.9084 C   0  0  0  0  0  0  0  0  0  0  0  0
    7.1316    1.3102   -2.1446 C   0  0  0  0  0  0  0  0  0  0  0  0
    6.4629    2.4613   -1.7188 C   0  0  0  0  0  0  0  0  0  0  0  0
    4.6576    2.5484    0.9009 C   0  0  0  0  0  0  0  0  0  0  0  0
    3.8071    1.5150    1.2721 C   0  0  0  0  0  0  0  0  0  0  0  0
   -0.0742   -0.4702    1.4313 H   0  0  0  0  0  0  0  0  0  0  0  0
    0.1337    0.4782   -0.0750 H   0  0  0  0  0  0  0  0  0  0  0  0
   -0.2153    1.3160    1.4745 H   0  0  0  0  0  0  0  0  0  0  0  0
    0.9017    2.7139   -0.0817 H   0  0  0  0  0  0  0  0  0  0  0  0
    2.4269    4.5603   -0.6846 H   0  0  0  0  0  0  0  0  0  0  0  0
    3.5612    8.4713    0.0864 H   0  0  0  0  0  0  0  0  0  0  0  0
    4.9769   10.5346   -0.0629 H   0  0  0  0  0  0  0  0  0  0  0  0
    7.4385   10.3411   -0.4090 H   0  0  0  0  0  0  0  0  0  0  0  0
    8.5011    8.0841   -0.6549 H   0  0  0  0  0  0  0  0  0  0  0  0
    8.9937    4.0186   -0.0754 H   0  0  0  0  0  0  0  0  0  0  0  0
   10.1911    1.9386   -0.7892 H   0  0  0  0  0  0  0  0  0  0  0  0
    9.3898   -1.7576   -3.0646 H   0  0  0  0  0  0  0  0  0  0  0  0
    8.2704   -0.6294   -3.8926 H   0  0  0  0  0  0  0  0  0  0  0  0
    7.7616   -1.4526   -2.3797 H   0  0  0  0  0  0  0  0  0  0  0  0
    6.5937    0.5773   -2.7459 H   0  0  0  0  0  0  0  0  0  0  0  0
    5.4188    2.5938   -2.0072 H   0  0  0  0  0  0  0  0  0  0  0  0
    5.7066    2.5005    1.1975 H   0  0  0  0  0  0  0  0  0  0  0  0
    4.1714    0.6614    1.8472 H   0  0  0  0  0  0  0  0  0  0  0  0
  1  2  1  0
  1 27  1  0
  1 28  1  0
  1 29  1  0
  2  3  1  0
  3  4  2  0
  3 26  1  0
  4  5  1  0
  4 30  1  0
  5  6  2  0
  5 31  1  0
  6  7  1  0
  6 25  1  0
  7  8  2  0
  7 16  1  0
  8  9  1  0
  9 10  2  0
  9 14  1  0
 10 11  1  0
 10 32  1  0
 11 12  2  0
 11 33  1  0
 12 13  1  0
 12 34  1  0
 13 14  2  0
 13 35  1  0
 14 15  1  0
 15 16  2  0
 16 17  1  0
 17 18  2  0
 17 24  1  0
 18 19  1  0
 18 36  1  0
 19 20  2  0
 19 37  1  0
 20 21  1  0
 20 23  1  0
 21 22  1  0
 22 38  1  0
 22 39  1  0
 22 40  1  0
 23 24  2  0
 23 41  1  0
 24 42  1  0
 25 26  2  0
 25 43  1  0
 26 44  1  0
M  END

