
     RDKit          3D

 35 36  0  0  0  0  0  0  0  0999 V2000
    4.5480   -1.3337   -2.1074 C   0  0  0  0  0  0  0  0  0  0  0  0
    4.0069   -0.5115   -0.9608 C   0  0  0  0  0  0  0  0  0  0  0  0
    4.4772    0.7999   -0.7832 C   0  0  0  0  0  0  0  0  0  0  0  0
    3.9986    1.5997    0.2546 C   0  0  0  0  0  0  0  0  0  0  0  0
    4.6650    3.3791    0.4592 Br  0  0  0  0  0  0  0  0  0  0  0  0
    3.0398    1.1132    1.1422 C   0  0  0  0  0  0  0  0  0  0  0  0
    2.5730   -0.1903    0.9645 C   0  0  0  0  0  0  0  0  0  0  0  0
    3.0313   -1.0202   -0.0704 C   0  0  0  0  0  0  0  0  0  0  0  0
    2.5286   -2.4655   -0.1573 C   0  0  1  0  0  0  0  0  0  0  0  0
    3.0329   -3.3219    0.9287 N   0  0  0  0  0  0  0  0  0  0  0  0
    0.9977   -2.5868   -0.1837 C   0  0  0  0  0  0  0  0  0  0  0  0
    0.3060   -2.0270   -1.4096 C   0  0  0  0  0  0  0  0  0  0  0  0
    1.0635   -1.7430   -2.4743 N   0  0  0  0  0  0  0  0  0  0  0  0
    0.4908   -1.2749   -3.5859 C   0  0  0  0  0  0  0  0  0  0  0  0
   -0.8818   -1.0651   -3.6996 C   0  0  0  0  0  0  0  0  0  0  0  0
   -1.6810   -1.3664   -2.5949 C   0  0  0  0  0  0  0  0  0  0  0  0
   -1.1024   -1.8572   -1.4202 C   0  0  0  0  0  0  0  0  0  0  0  0
   -1.9494   -2.1989   -0.2209 C   0  0  0  0  0  0  0  0  0  0  0  0
    5.2630   -0.7514   -2.7064 H   0  0  0  0  0  0  0  0  0  0  0  0
    3.7266   -1.6637   -2.7625 H   0  0  0  0  0  0  0  0  0  0  0  0
    5.0716   -2.2386   -1.7557 H   0  0  0  0  0  0  0  0  0  0  0  0
    5.2267    1.2003   -1.4688 H   0  0  0  0  0  0  0  0  0  0  0  0
    2.6635    1.7378    1.9540 H   0  0  0  0  0  0  0  0  0  0  0  0
    1.8226   -0.5661    1.6665 H   0  0  0  0  0  0  0  0  0  0  0  0
    2.8920   -2.9003   -1.0955 H   0  0  0  0  0  0  0  0  0  0  0  0
    2.7697   -2.9267    1.8340 H   0  0  0  0  0  0  0  0  0  0  0  0
    4.0538   -3.3180    0.9221 H   0  0  0  0  0  0  0  0  0  0  0  0
    0.5662   -2.1311    0.7239 H   0  0  0  0  0  0  0  0  0  0  0  0
    0.7630   -3.6635   -0.0983 H   0  0  0  0  0  0  0  0  0  0  0  0
    1.1600   -1.0558   -4.4264 H   0  0  0  0  0  0  0  0  0  0  0  0
   -1.3139   -0.6789   -4.6255 H   0  0  0  0  0  0  0  0  0  0  0  0
   -2.7643   -1.2208   -2.6428 H   0  0  0  0  0  0  0  0  0  0  0  0
   -3.0173   -2.0428   -0.4328 H   0  0  0  0  0  0  0  0  0  0  0  0
   -1.6878   -1.5790    0.6535 H   0  0  0  0  0  0  0  0  0  0  0  0
   -1.8164   -3.2495    0.0866 H   0  0  0  0  0  0  0  0  0  0  0  0
  1  2  1  0
  1 19  1  0
  1 20  1  0
  1 21  1  0
  2  3  2  0
  2  8  1  0
  3  4  1  0
  3 22  1  0
  4  5  1  0
  4  6  2  0
  6  7  1  0
  6 23  1  0
  7  8  2  0
  7 24  1  0
  8  9  1  0
  9 10  1  0
  9 11  1  0
  9 25  1  6
 10 26  1  0
 10 27  1  0
 11 12  1  0
 11 28  1  0
 11 29  1  0
 12 13  2  0
 12 17  1  0
 13 14  1  0
 14 15  2  0
 14 30  1  0
 15 16  1  0
 15 31  1  0
 16 17  2  0
 16 32  1  0
 17 18  1  0
 18 33  1  0
 18 34  1  0
 18 35  1  0
M  END

