
     RDKit          3D

 43 44  0  0  0  0  0  0  0  0999 V2000
    0.8270   -0.4427   -0.0373 C   0  0  0  0  0  0  0  0  0  0  0  0
    2.3211   -0.4284    0.1684 C   0  0  0  0  0  0  0  0  0  0  0  0
    2.9565    0.7637    0.6101 C   0  0  0  0  0  0  0  0  0  0  0  0
    2.1784    1.9115    0.7813 N   0  0  0  0  0  0  0  0  0  0  0  0
    2.7236    3.2479    0.9958 C   0  0  1  0  0  0  0  0  0  0  0  0
    3.3276    3.8635   -0.2757 C   0  0  0  0  0  0  0  0  0  0  0  0
    1.6328    4.1515    1.5896 C   0  0  0  0  0  0  0  0  0  0  0  0
    1.1411    3.6812    2.9600 C   0  0  0  0  0  0  0  0  0  0  0  0
    0.1072    4.5434    3.5091 N   0  0  0  0  0  0  0  0  0  0  0  0
   -1.1927    4.2672    3.7736 C   0  0  0  0  0  0  0  0  0  0  0  0
   -1.8020    5.3367    4.2499 N   0  0  0  0  0  0  0  0  0  0  0  0
   -0.8087    6.2638    4.2605 C   0  0  0  0  0  0  0  0  0  0  0  0
    0.3636    5.8293    3.8213 N   0  0  0  0  0  0  0  0  0  0  0  0
    4.3297    0.7440    0.9269 C   0  0  0  0  0  0  0  0  0  0  0  0
    5.0565   -0.4386    0.8065 C   0  0  0  0  0  0  0  0  0  0  0  0
    4.4564   -1.6054    0.3386 C   0  0  0  0  0  0  0  0  0  0  0  0
    3.0899   -1.6051    0.0004 C   0  0  0  0  0  0  0  0  0  0  0  0
    2.4551   -2.7817   -0.4891 N   0  0  0  0  0  0  0  0  0  0  0  0
    3.0059   -4.0575   -0.0769 C   0  0  0  0  0  0  0  0  0  0  0  0
    2.0934   -2.7668   -1.8997 C   0  0  0  0  0  0  0  0  0  0  0  0
    0.3145    0.0898    0.7820 H   0  0  0  0  0  0  0  0  0  0  0  0
    0.4579   -1.4766   -0.0514 H   0  0  0  0  0  0  0  0  0  0  0  0
    0.5083    0.0386   -0.9821 H   0  0  0  0  0  0  0  0  0  0  0  0
    1.3274    1.9171    0.2292 H   0  0  0  0  0  0  0  0  0  0  0  0
    3.5210    3.1578    1.7523 H   0  0  0  0  0  0  0  0  0  0  0  0
    2.5477    4.0140   -1.0412 H   0  0  0  0  0  0  0  0  0  0  0  0
    4.0991    3.2058   -0.7030 H   0  0  0  0  0  0  0  0  0  0  0  0
    3.7877    4.8424   -0.0653 H   0  0  0  0  0  0  0  0  0  0  0  0
    0.7763    4.2061    0.8924 H   0  0  0  0  0  0  0  0  0  0  0  0
    2.0188    5.1778    1.6866 H   0  0  0  0  0  0  0  0  0  0  0  0
    1.9794    3.6513    3.6747 H   0  0  0  0  0  0  0  0  0  0  0  0
    0.7271    2.6654    2.8942 H   0  0  0  0  0  0  0  0  0  0  0  0
   -1.6342    3.2844    3.6060 H   0  0  0  0  0  0  0  0  0  0  0  0
   -0.9479    7.2894    4.6032 H   0  0  0  0  0  0  0  0  0  0  0  0
    4.8336    1.6463    1.2729 H   0  0  0  0  0  0  0  0  0  0  0  0
    6.1199   -0.4412    1.0613 H   0  0  0  0  0  0  0  0  0  0  0  0
    5.0534   -2.5090    0.2152 H   0  0  0  0  0  0  0  0  0  0  0  0
    3.2099   -4.0537    1.0034 H   0  0  0  0  0  0  0  0  0  0  0  0
    3.9442   -4.3365   -0.6052 H   0  0  0  0  0  0  0  0  0  0  0  0
    2.2706   -4.8530   -0.2830 H   0  0  0  0  0  0  0  0  0  0  0  0
    1.6284   -1.8118   -2.1770 H   0  0  0  0  0  0  0  0  0  0  0  0
    1.3695   -3.5713   -2.1121 H   0  0  0  0  0  0  0  0  0  0  0  0
    2.9727   -2.9173   -2.5640 H   0  0  0  0  0  0  0  0  0  0  0  0
  1  2  1  0
  1 21  1  0
  1 22  1  0
  1 23  1  0
  2  3  2  0
  2 17  1  0
  3  4  1  0
  3 14  1  0
  4  5  1  0
  4 24  1  0
  5  6  1  0
  5  7  1  0
  5 25  1  1
  6 26  1  0
  6 27  1  0
  6 28  1  0
  7  8  1  0
  7 29  1  0
  7 30  1  0
  8  9  1  0
  8 31  1  0
  8 32  1  0
  9 10  1  0
  9 13  1  0
 10 11  2  0
 10 33  1  0
 11 12  1  0
 12 13  2  0
 12 34  1  0
 14 15  2  0
 14 35  1  0
 15 16  1  0
 15 36  1  0
 16 17  2  0
 16 37  1  0
 17 18  1  0
 18 19  1  0
 18 20  1  0
 19 38  1  0
 19 39  1  0
 19 40  1  0
 20 41  1  0
 20 42  1  0
 20 43  1  0
M  END

