
     RDKit          3D

 46 48  0  0  0  0  0  0  0  0999 V2000
    5.8701   -0.7341   -2.6077 C   0  0  0  0  0  0  0  0  0  0  0  0
    4.8611   -1.4942   -1.7496 C   0  0  0  0  0  0  0  0  0  0  0  0
    4.7704   -1.0142   -0.3722 N   0  0  0  0  0  0  0  0  0  0  0  0
    4.1589    0.2967   -0.2602 C   0  0  0  0  0  0  0  0  0  0  0  0
    4.1497   -1.9862    0.5176 C   0  0  0  0  0  0  0  0  0  0  0  0
    5.0030   -3.2149    0.7798 C   0  0  0  0  0  0  0  0  0  0  0  0
    6.3804   -3.0853    1.0232 C   0  0  0  0  0  0  0  0  0  0  0  0
    7.1509   -4.2106    1.3154 C   0  0  0  0  0  0  0  0  0  0  0  0
    6.5594   -5.4775    1.3718 C   0  0  0  0  0  0  0  0  0  0  0  0
    5.1898   -5.6319    1.1235 C   0  0  0  0  0  0  0  0  0  0  0  0
    4.5543   -7.0081    1.1325 C   0  0  0  0  0  0  0  0  0  0  0  0
    3.2929   -7.0316    1.8462 N   0  0  0  0  0  0  0  0  0  0  0  0
    2.2562   -7.8772    1.5383 C   0  0  0  0  0  0  0  0  0  0  0  0
    1.0986   -7.8893    2.3955 C   0  0  0  0  0  0  0  0  0  0  0  0
    0.0528   -8.7122    2.0789 C   0  0  0  0  0  0  0  0  0  0  0  0
    0.1162   -9.5363    0.9160 C   0  0  0  0  0  0  0  0  0  0  0  0
   -0.9260  -10.4120    0.5198 C   0  0  0  0  0  0  0  0  0  0  0  0
   -0.8015  -11.1844   -0.6197 C   0  0  0  0  0  0  0  0  0  0  0  0
    0.3775  -11.1024   -1.3999 C   0  0  0  0  0  0  0  0  0  0  0  0
    1.4096  -10.2584   -1.0369 C   0  0  0  0  0  0  0  0  0  0  0  0
    1.3114   -9.4507    0.1293 C   0  0  0  0  0  0  0  0  0  0  0  0
    2.3482   -8.6343    0.4613 N   0  0  0  0  0  0  0  0  0  0  0  0
    4.4269   -4.4896    0.8286 C   0  0  0  0  0  0  0  0  0  0  0  0
    5.9451   -1.1980   -3.6041 H   0  0  0  0  0  0  0  0  0  0  0  0
    6.8675   -0.7535   -2.1409 H   0  0  0  0  0  0  0  0  0  0  0  0
    5.5870    0.3191   -2.7607 H   0  0  0  0  0  0  0  0  0  0  0  0
    5.1632   -2.5523   -1.7112 H   0  0  0  0  0  0  0  0  0  0  0  0
    3.8599   -1.4767   -2.2428 H   0  0  0  0  0  0  0  0  0  0  0  0
    4.7062    1.0340   -0.8654 H   0  0  0  0  0  0  0  0  0  0  0  0
    4.1908    0.6407    0.7856 H   0  0  0  0  0  0  0  0  0  0  0  0
    3.0937    0.3153   -0.5909 H   0  0  0  0  0  0  0  0  0  0  0  0
    3.1461   -2.3089    0.1550 H   0  0  0  0  0  0  0  0  0  0  0  0
    3.9695   -1.4795    1.4825 H   0  0  0  0  0  0  0  0  0  0  0  0
    6.8340   -2.0931    0.9707 H   0  0  0  0  0  0  0  0  0  0  0  0
    8.2217   -4.1028    1.5084 H   0  0  0  0  0  0  0  0  0  0  0  0
    7.1688   -6.3550    1.6074 H   0  0  0  0  0  0  0  0  0  0  0  0
    5.2715   -7.7409    1.5509 H   0  0  0  0  0  0  0  0  0  0  0  0
    4.3389   -7.3488    0.1076 H   0  0  0  0  0  0  0  0  0  0  0  0
    3.2606   -6.5662    2.7445 H   0  0  0  0  0  0  0  0  0  0  0  0
    1.0666   -7.2461    3.2789 H   0  0  0  0  0  0  0  0  0  0  0  0
   -0.8392   -8.7438    2.7115 H   0  0  0  0  0  0  0  0  0  0  0  0
   -1.8318  -10.4658    1.1311 H   0  0  0  0  0  0  0  0  0  0  0  0
   -1.6081  -11.8572   -0.9207 H   0  0  0  0  0  0  0  0  0  0  0  0
    0.4701  -11.7159   -2.3003 H   0  0  0  0  0  0  0  0  0  0  0  0
    2.3247  -10.1850   -1.6280 H   0  0  0  0  0  0  0  0  0  0  0  0
    3.3566   -4.6044    0.6332 H   0  0  0  0  0  0  0  0  0  0  0  0
  1  2  1  0
  1 24  1  0
  1 25  1  0
  1 26  1  0
  2  3  1  0
  2 27  1  0
  2 28  1  0
  3  4  1  0
  3  5  1  0
  4 29  1  0
  4 30  1  0
  4 31  1  0
  5  6  1  0
  5 32  1  0
  5 33  1  0
  6  7  2  0
  6 23  1  0
  7  8  1  0
  7 34  1  0
  8  9  2  0
  8 35  1  0
  9 10  1  0
  9 36  1  0
 10 11  1  0
 10 23  2  0
 11 12  1  0
 11 37  1  0
 11 38  1  0
 12 13  1  0
 12 39  1  0
 13 14  2  0
 13 22  1  0
 14 15  1  0
 14 40  1  0
 15 16  2  0
 15 41  1  0
 16 17  1  0
 16 21  1  0
 17 18  2  0
 17 42  1  0
 18 19  1  0
 18 43  1  0
 19 20  2  0
 19 44  1  0
 20 21  1  0
 20 45  1  0
 21 22  2  0
 23 46  1  0
M  END

