
     RDKit          3D

 23 24  0  0  0  0  0  0  0  0999 V2000
    3.7944    2.6639   -2.2114 C   0  0  0  0  0  0  0  0  0  0  0  0
    3.4184    1.8007   -1.2766 C   0  0  0  0  0  0  0  0  0  0  0  0
    2.3472    1.1025   -0.5716 C   0  0  0  0  0  0  0  0  0  0  0  0
    3.8357    0.9188   -0.1709 C   0  0  2  0  0  0  0  0  0  0  0  0
    4.3290    1.4379    1.1541 C   0  0  0  0  0  0  0  0  0  0  0  0
    4.8549    0.7155    1.9809 O   0  0  0  0  0  0  0  0  0  0  0  0
    4.1243    2.7814    1.3835 N   0  0  0  0  0  0  0  0  0  0  0  0
    4.4433    3.4578    2.5518 C   0  0  0  0  0  0  0  0  0  0  0  0
    4.2187    4.7340    2.6730 N   0  0  0  0  0  0  0  0  0  0  0  0
    4.6110    5.1930    3.9131 C   0  0  0  0  0  0  0  0  0  0  0  0
    4.4319    6.6447    4.2433 C   0  0  0  0  0  0  0  0  0  0  0  0
    5.1401    4.2323    4.7344 C   0  0  0  0  0  0  0  0  0  0  0  0
    5.1650    2.6790    3.9457 S   0  0  0  0  0  0  0  0  0  0  0  0
    3.0612    3.1456   -2.8655 H   0  0  0  0  0  0  0  0  0  0  0  0
    4.8491    2.9143   -2.3606 H   0  0  0  0  0  0  0  0  0  0  0  0
    1.8564    0.2465   -1.0488 H   0  0  0  0  0  0  0  0  0  0  0  0
    1.7029    1.6653    0.1147 H   0  0  0  0  0  0  0  0  0  0  0  0
    4.2847   -0.0521   -0.4039 H   0  0  0  0  0  0  0  0  0  0  0  0
    3.7606    3.3740    0.6413 H   0  0  0  0  0  0  0  0  0  0  0  0
    4.9869    7.2767    3.5305 H   0  0  0  0  0  0  0  0  0  0  0  0
    4.7844    6.8726    5.2591 H   0  0  0  0  0  0  0  0  0  0  0  0
    3.3703    6.9325    4.1684 H   0  0  0  0  0  0  0  0  0  0  0  0
    5.5156    4.3490    5.7496 H   0  0  0  0  0  0  0  0  0  0  0  0
  1  2  2  0
  1 14  1  0
  1 15  1  0
  2  3  1  0
  2  4  1  0
  3  4  1  0
  3 16  1  0
  3 17  1  0
  4  5  1  0
  4 18  1  6
  5  6  2  0
  5  7  1  0
  7  8  1  0
  7 19  1  0
  8  9  2  0
  8 13  1  0
  9 10  1  0
 10 11  1  0
 10 12  2  0
 11 20  1  0
 11 21  1  0
 11 22  1  0
 12 13  1  0
 12 23  1  0
M  END

