
     RDKit          3D

 54 57  0  0  0  0  0  0  0  0999 V2000
    2.7949    0.9145    2.0238 C   0  0  0  0  0  0  0  0  0  0  0  0
    2.9534    0.2402    0.7538 N   0  0  0  0  0  0  0  0  0  0  0  0
    2.4407    0.8468   -0.4560 C   0  0  0  0  0  0  0  0  0  0  0  0
    3.6038   -0.9804    0.6956 C   0  0  0  0  0  0  0  0  0  0  0  0
    4.1231   -1.6025    1.8551 C   0  0  0  0  0  0  0  0  0  0  0  0
    4.7744   -2.8365    1.7826 C   0  0  0  0  0  0  0  0  0  0  0  0
    4.9519   -3.5190    0.5708 C   0  0  0  0  0  0  0  0  0  0  0  0
    5.6447   -4.8792    0.4446 C   0  0  1  0  0  0  0  0  0  0  0  0
    6.6513   -5.1760    1.5796 C   0  0  0  0  0  0  0  0  0  0  0  0
    7.7332   -4.2070    1.6375 N   0  0  0  0  0  0  0  0  0  0  0  0
    9.0110   -4.5117    1.2758 C   0  0  0  0  0  0  0  0  0  0  0  0
    9.3901   -5.6370    1.0019 O   0  0  0  0  0  0  0  0  0  0  0  0
    9.9639   -3.3085    1.2648 C   0  0  1  0  0  0  0  0  0  0  0  0
    9.9692   -2.4698    2.5324 C   0  0  0  0  0  0  0  0  0  0  0  0
   11.2486   -3.5338    0.4930 C   0  0  0  0  0  0  0  0  0  0  0  0
   10.1920   -2.6538   -0.0874 C   0  0  1  0  0  0  0  0  0  0  0  0
    9.2672   -3.2151   -1.5013 Cl  0  0  0  0  0  0  0  0  0  0  0  0
   10.4754   -0.8957   -0.1595 Cl  0  0  0  0  0  0  0  0  0  0  0  0
    4.6759   -6.0286    0.2616 C   0  0  0  0  0  0  0  0  0  0  0  0
    4.7039   -6.9098   -0.7971 C   0  0  0  0  0  0  0  0  0  0  0  0
    3.7170   -7.8625   -0.6552 N   0  0  0  0  0  0  0  0  0  0  0  0
    3.5346   -8.6168   -1.3026 H   0  0  0  0  0  0  0  0  0  0  0  0
    3.0200   -7.6228    0.5078 C   0  0  0  0  0  0  0  0  0  0  0  0
    1.9404   -8.3159    1.0734 C   0  0  0  0  0  0  0  0  0  0  0  0
    1.4260   -7.8415    2.2762 C   0  0  0  0  0  0  0  0  0  0  0  0
    1.9731   -6.6994    2.9004 C   0  0  0  0  0  0  0  0  0  0  0  0
    3.0437   -6.0131    2.3361 C   0  0  0  0  0  0  0  0  0  0  0  0
    3.5944   -6.4680    1.1198 C   0  0  0  0  0  0  0  0  0  0  0  0
    4.4410   -2.8936   -0.5778 C   0  0  0  0  0  0  0  0  0  0  0  0
    3.7859   -1.6672   -0.5317 C   0  0  0  0  0  0  0  0  0  0  0  0
    2.2571    1.8592    1.8718 H   0  0  0  0  0  0  0  0  0  0  0  0
    3.7663    1.1544    2.4969 H   0  0  0  0  0  0  0  0  0  0  0  0
    2.2154    0.3124    2.7491 H   0  0  0  0  0  0  0  0  0  0  0  0
    1.9525    1.7983   -0.2084 H   0  0  0  0  0  0  0  0  0  0  0  0
    1.6914    0.2079   -0.9601 H   0  0  0  0  0  0  0  0  0  0  0  0
    3.2394    1.0614   -1.1912 H   0  0  0  0  0  0  0  0  0  0  0  0
    4.0200   -1.1278    2.8302 H   0  0  0  0  0  0  0  0  0  0  0  0
    5.1461   -3.2650    2.7175 H   0  0  0  0  0  0  0  0  0  0  0  0
    6.2489   -4.8349   -0.4770 H   0  0  0  0  0  0  0  0  0  0  0  0
    7.1155   -6.1541    1.4027 H   0  0  0  0  0  0  0  0  0  0  0  0
    6.1381   -5.2315    2.5541 H   0  0  0  0  0  0  0  0  0  0  0  0
    7.4780   -3.2286    1.7111 H   0  0  0  0  0  0  0  0  0  0  0  0
   10.1664   -3.1117    3.4053 H   0  0  0  0  0  0  0  0  0  0  0  0
    9.0069   -1.9588    2.6953 H   0  0  0  0  0  0  0  0  0  0  0  0
   10.7464   -1.6951    2.4897 H   0  0  0  0  0  0  0  0  0  0  0  0
   11.3672   -4.5282    0.0549 H   0  0  0  0  0  0  0  0  0  0  0  0
   12.1614   -3.0503    0.8508 H   0  0  0  0  0  0  0  0  0  0  0  0
    5.3743   -6.9262   -1.6553 H   0  0  0  0  0  0  0  0  0  0  0  0
    1.5174   -9.1987    0.5869 H   0  0  0  0  0  0  0  0  0  0  0  0
    0.5848   -8.3599    2.7433 H   0  0  0  0  0  0  0  0  0  0  0  0
    1.5439   -6.3483    3.8422 H   0  0  0  0  0  0  0  0  0  0  0  0
    3.4440   -5.1253    2.8278 H   0  0  0  0  0  0  0  0  0  0  0  0
    4.5563   -3.3875   -1.5474 H   0  0  0  0  0  0  0  0  0  0  0  0
    3.4168   -1.2394   -1.4632 H   0  0  0  0  0  0  0  0  0  0  0  0
  1  2  1  0
  1 31  1  0
  1 32  1  0
  1 33  1  0
  2  3  1  0
  2  4  1  0
  3 34  1  0
  3 35  1  0
  3 36  1  0
  4  5  2  0
  4 30  1  0
  5  6  1  0
  5 37  1  0
  6  7  2  0
  6 38  1  0
  7  8  1  0
  7 29  1  0
  8  9  1  0
  8 19  1  0
  8 39  1  6
  9 10  1  0
  9 40  1  0
  9 41  1  0
 10 11  1  0
 10 42  1  0
 11 12  2  0
 13 11  1  6
 13 14  1  0
 13 15  1  0
 13 16  1  0
 14 43  1  0
 14 44  1  0
 14 45  1  0
 15 16  1  0
 15 46  1  0
 15 47  1  0
 16 17  1  6
 16 18  1  0
 19 20  2  0
 19 28  1  0
 20 21  1  0
 20 48  1  0
 21 22  1  0
 21 23  1  0
 23 24  1  0
 23 28  2  0
 24 25  2  0
 24 49  1  0
 25 26  1  0
 25 50  1  0
 26 27  2  0
 26 51  1  0
 27 28  1  0
 27 52  1  0
 29 30  2  0
 29 53  1  0
 30 54  1  0
M  END

