
     RDKit          3D

 25 26  0  0  0  0  0  0  0  0999 V2000
    1.3266    0.8181    1.3147 C   0  0  0  0  0  0  0  0  0  0  0  0
    2.6403    0.4145    0.7033 C   0  0  0  0  0  0  0  0  0  0  0  0
    3.6050    1.3362    0.6086 N   0  0  0  0  0  0  0  0  0  0  0  0
    4.7826    1.0040    0.0745 C   0  0  0  0  0  0  0  0  0  0  0  0
    5.0783   -0.2773   -0.3945 C   0  0  0  0  0  0  0  0  0  0  0  0
    4.0850   -1.2542   -0.3048 C   0  0  0  0  0  0  0  0  0  0  0  0
    2.8560   -0.8994    0.2423 C   0  0  0  0  0  0  0  0  0  0  0  0
    1.8868   -1.8709    0.4173 O   0  0  0  0  0  0  0  0  0  0  0  0
    0.8785   -2.0081   -0.4804 C   0  0  0  0  0  0  0  0  0  0  0  0
    0.0277   -2.9862   -0.1938 N   0  0  0  0  0  0  0  0  0  0  0  0
   -0.9673   -3.1391   -1.0759 C   0  0  0  0  0  0  0  0  0  0  0  0
   -1.1205   -2.3514   -2.2079 C   0  0  0  0  0  0  0  0  0  0  0  0
   -0.1497   -1.3385   -2.3972 C   0  0  0  0  0  0  0  0  0  0  0  0
   -0.1791   -0.4848   -3.4511 N   0  0  0  0  0  0  0  0  0  0  0  0
    0.8515   -1.1803   -1.5168 N   0  0  0  0  0  0  0  0  0  0  0  0
    1.4378    1.7995    1.7935 H   0  0  0  0  0  0  0  0  0  0  0  0
    0.9821    0.0787    2.0543 H   0  0  0  0  0  0  0  0  0  0  0  0
    0.5452    0.8915    0.5395 H   0  0  0  0  0  0  0  0  0  0  0  0
    5.5362    1.7990    0.0236 H   0  0  0  0  0  0  0  0  0  0  0  0
    6.0602   -0.5063   -0.8149 H   0  0  0  0  0  0  0  0  0  0  0  0
    4.2461   -2.2798   -0.6443 H   0  0  0  0  0  0  0  0  0  0  0  0
   -1.6847   -3.9411   -0.8645 H   0  0  0  0  0  0  0  0  0  0  0  0
   -1.9436   -2.5033   -2.9077 H   0  0  0  0  0  0  0  0  0  0  0  0
   -0.8741   -0.5675   -4.1779 H   0  0  0  0  0  0  0  0  0  0  0  0
    0.5655    0.1936   -3.5448 H   0  0  0  0  0  0  0  0  0  0  0  0
  1  2  1  0
  1 16  1  0
  1 17  1  0
  1 18  1  0
  2  3  2  0
  2  7  1  0
  3  4  1  0
  4  5  2  0
  4 19  1  0
  5  6  1  0
  5 20  1  0
  6  7  2  0
  6 21  1  0
  7  8  1  0
  8  9  1  0
  9 10  2  0
  9 15  1  0
 10 11  1  0
 11 12  2  0
 11 22  1  0
 12 13  1  0
 12 23  1  0
 13 14  1  0
 13 15  2  0
 14 24  1  0
 14 25  1  0
M  END

