
     RDKit          3D

 39 40  0  0  0  0  0  0  0  0999 V2000
    2.0219    0.1458    0.0780 C   0  0  0  0  0  0  0  0  0  0  0  0
    3.2740   -0.7258   -0.0804 C   0  0  1  0  0  0  0  0  0  0  0  0
    2.9266   -2.2173    0.0061 C   0  0  0  0  0  0  0  0  0  0  0  0
    4.0179   -0.4253   -1.3921 C   0  0  0  0  0  0  0  0  0  0  0  0
    4.7150    0.9368   -1.4090 C   0  0  0  0  0  0  0  0  0  0  0  0
    4.7594    1.6473   -0.4184 O   0  0  0  0  0  0  0  0  0  0  0  0
    5.3242    1.3238   -2.5904 N   0  0  0  0  0  0  0  0  0  0  0  0
    5.2708    0.6149   -3.8584 C   0  0  0  0  0  0  0  0  0  0  0  0
    4.3730    1.3715   -4.8320 C   0  0  0  0  0  0  0  0  0  0  0  0
    4.7390    2.7772   -4.8356 N   0  0  0  0  0  0  0  0  0  0  0  0
    5.4010    3.4619   -3.8547 C   0  0  0  0  0  0  0  0  0  0  0  0
    5.5690    4.6675   -3.9191 O   0  0  0  0  0  0  0  0  0  0  0  0
    5.9446    2.6459   -2.6647 C   0  0  2  0  0  0  0  0  0  0  0  0
    7.4824    2.5986   -2.6418 C   0  0  0  0  0  0  0  0  0  0  0  0
    8.2452    3.7428   -2.9353 C   0  0  0  0  0  0  0  0  0  0  0  0
    9.6390    3.7121   -2.8697 C   0  0  0  0  0  0  0  0  0  0  0  0
   10.2770    2.5299   -2.5012 C   0  0  0  0  0  0  0  0  0  0  0  0
   11.6171    2.4969   -2.4376 F   0  0  0  0  0  0  0  0  0  0  0  0
    9.5514    1.3838   -2.1937 C   0  0  0  0  0  0  0  0  0  0  0  0
    8.1559    1.4285   -2.2636 C   0  0  0  0  0  0  0  0  0  0  0  0
    1.5192   -0.0614    1.0364 H   0  0  0  0  0  0  0  0  0  0  0  0
    1.2935   -0.0572   -0.7274 H   0  0  0  0  0  0  0  0  0  0  0  0
    2.2787    1.2142    0.0571 H   0  0  0  0  0  0  0  0  0  0  0  0
    3.9623   -0.4764    0.7443 H   0  0  0  0  0  0  0  0  0  0  0  0
    2.2543   -2.5211   -0.8155 H   0  0  0  0  0  0  0  0  0  0  0  0
    2.4133   -2.4483    0.9530 H   0  0  0  0  0  0  0  0  0  0  0  0
    3.8273   -2.8511   -0.0487 H   0  0  0  0  0  0  0  0  0  0  0  0
    3.3149   -0.5016   -2.2407 H   0  0  0  0  0  0  0  0  0  0  0  0
    4.7870   -1.1990   -1.5697 H   0  0  0  0  0  0  0  0  0  0  0  0
    4.9078   -0.4096   -3.7242 H   0  0  0  0  0  0  0  0  0  0  0  0
    6.2924    0.5487   -4.2720 H   0  0  0  0  0  0  0  0  0  0  0  0
    3.3127    1.2415   -4.5404 H   0  0  0  0  0  0  0  0  0  0  0  0
    4.4871    0.9573   -5.8482 H   0  0  0  0  0  0  0  0  0  0  0  0
    4.3552    3.3779   -5.5601 H   0  0  0  0  0  0  0  0  0  0  0  0
    5.6129    3.1870   -1.7655 H   0  0  0  0  0  0  0  0  0  0  0  0
    7.7345    4.6642   -3.2171 H   0  0  0  0  0  0  0  0  0  0  0  0
   10.2378    4.5965   -3.0965 H   0  0  0  0  0  0  0  0  0  0  0  0
   10.0796    0.4748   -1.8995 H   0  0  0  0  0  0  0  0  0  0  0  0
    7.5860    0.5335   -2.0080 H   0  0  0  0  0  0  0  0  0  0  0  0
  1  2  1  0
  1 21  1  0
  1 22  1  0
  1 23  1  0
  2  3  1  0
  2  4  1  0
  2 24  1  1
  3 25  1  0
  3 26  1  0
  3 27  1  0
  4  5  1  0
  4 28  1  0
  4 29  1  0
  5  6  2  0
  5  7  1  0
  7  8  1  0
  7 13  1  0
  8  9  1  0
  8 30  1  0
  8 31  1  0
  9 10  1  0
  9 32  1  0
  9 33  1  0
 10 11  1  0
 10 34  1  0
 11 12  2  0
 11 13  1  0
 13 14  1  0
 13 35  1  1
 14 15  2  0
 14 20  1  0
 15 16  1  0
 15 36  1  0
 16 17  2  0
 16 37  1  0
 17 18  1  0
 17 19  1  0
 19 20  2  0
 19 38  1  0
 20 39  1  0
M  END

