
     RDKit          3D

 60 62  0  0  0  0  0  0  0  0999 V2000
   -0.1946    1.0440    0.0027 C   0  0  0  0  0  0  0  0  0  0  0  0
    1.1854    0.6747    0.2445 N   0  0  0  0  0  0  0  0  0  0  0  0
    1.4946   -0.6264    0.8017 C   0  0  0  0  0  0  0  0  0  0  0  0
    2.2001    1.5607   -0.0545 C   0  0  0  0  0  0  0  0  0  0  0  0
    1.9321    2.8412   -0.6024 C   0  0  0  0  0  0  0  0  0  0  0  0
    2.9653    3.7217   -0.8979 C   0  0  0  0  0  0  0  0  0  0  0  0
    4.3212    3.4012   -0.6747 C   0  0  0  0  0  0  0  0  0  0  0  0
    5.3552    4.3695   -1.0057 C   0  0  0  0  0  0  0  0  0  0  0  0
    6.7037    4.2450   -0.8617 C   0  0  0  0  0  0  0  0  0  0  0  0
    7.6281    5.2829   -1.2288 C   0  0  0  0  0  0  0  0  0  0  0  0
    8.9813    5.2384   -1.1155 C   0  0  0  0  0  0  0  0  0  0  0  0
    9.8488    4.1160   -0.5951 C   0  0  0  0  0  0  0  0  0  0  0  0
   11.3077    4.6629   -0.5983 C   0  0  0  0  0  0  0  0  0  0  0  0
   11.2412    6.0255   -1.2480 C   0  0  0  0  0  0  0  0  0  0  0  0
   12.2597    6.8717   -1.5522 C   0  0  0  0  0  0  0  0  0  0  0  0
   13.6600    6.6441   -1.3203 C   0  0  0  0  0  0  0  0  0  0  0  0
   14.6227    7.5470   -1.6561 C   0  0  0  0  0  0  0  0  0  0  0  0
   16.0620    7.4377   -1.4746 C   0  0  0  0  0  0  0  0  0  0  0  0
   16.9019    8.4915   -1.8928 C   0  0  0  0  0  0  0  0  0  0  0  0
   18.2828    8.4476   -1.7470 C   0  0  0  0  0  0  0  0  0  0  0  0
   18.9185    7.3227   -1.1621 C   0  0  0  0  0  0  0  0  0  0  0  0
   20.2888    7.2634   -1.0105 N   0  0  0  0  0  0  0  0  0  0  0  0
   20.9051    6.1008   -0.4042 C   0  0  0  0  0  0  0  0  0  0  0  0
   21.1156    8.3690   -1.4496 C   0  0  0  0  0  0  0  0  0  0  0  0
   18.0784    6.2573   -0.7379 C   0  0  0  0  0  0  0  0  0  0  0  0
   16.7015    6.3206   -0.8924 C   0  0  0  0  0  0  0  0  0  0  0  0
    9.8279    6.3855   -1.5372 C   0  0  0  0  0  0  0  0  0  0  0  0
    9.4339    7.4339   -2.0312 O   0  0  0  0  0  0  0  0  0  0  0  0
    4.5811    2.1242   -0.1291 C   0  0  0  0  0  0  0  0  0  0  0  0
    3.5641    1.2307    0.1727 C   0  0  0  0  0  0  0  0  0  0  0  0
   -0.8515    0.2179    0.3033 H   0  0  0  0  0  0  0  0  0  0  0  0
   -0.3890    1.2570   -1.0649 H   0  0  0  0  0  0  0  0  0  0  0  0
   -0.4942    1.9388    0.5792 H   0  0  0  0  0  0  0  0  0  0  0  0
    0.5631   -1.1823    0.9681 H   0  0  0  0  0  0  0  0  0  0  0  0
    2.0189   -0.5518    1.7725 H   0  0  0  0  0  0  0  0  0  0  0  0
    2.1296   -1.2299    0.1270 H   0  0  0  0  0  0  0  0  0  0  0  0
    0.9078    3.1540   -0.8004 H   0  0  0  0  0  0  0  0  0  0  0  0
    2.7166    4.7000   -1.3195 H   0  0  0  0  0  0  0  0  0  0  0  0
    4.9873    5.3147   -1.4232 H   0  0  0  0  0  0  0  0  0  0  0  0
    7.1217    3.3204   -0.4501 H   0  0  0  0  0  0  0  0  0  0  0  0
    7.2169    6.2115   -1.6438 H   0  0  0  0  0  0  0  0  0  0  0  0
    9.7635    3.2229   -1.2388 H   0  0  0  0  0  0  0  0  0  0  0  0
    9.5416    3.7944    0.4143 H   0  0  0  0  0  0  0  0  0  0  0  0
   11.9907    3.9847   -1.1368 H   0  0  0  0  0  0  0  0  0  0  0  0
   11.7008    4.7373    0.4309 H   0  0  0  0  0  0  0  0  0  0  0  0
   11.9657    7.8191   -2.0207 H   0  0  0  0  0  0  0  0  0  0  0  0
   13.9455    5.6969   -0.8505 H   0  0  0  0  0  0  0  0  0  0  0  0
   14.2846    8.4801   -2.1231 H   0  0  0  0  0  0  0  0  0  0  0  0
   16.4503    9.3773   -2.3489 H   0  0  0  0  0  0  0  0  0  0  0  0
   18.8708    9.2971   -2.0918 H   0  0  0  0  0  0  0  0  0  0  0  0
   20.5579    5.9358    0.6327 H   0  0  0  0  0  0  0  0  0  0  0  0
   21.9933    6.2397   -0.3732 H   0  0  0  0  0  0  0  0  0  0  0  0
   20.7012    5.1752   -0.9738 H   0  0  0  0  0  0  0  0  0  0  0  0
   21.0140    8.5608   -2.5338 H   0  0  0  0  0  0  0  0  0  0  0  0
   22.1696    8.1389   -1.2488 H   0  0  0  0  0  0  0  0  0  0  0  0
   20.8702    9.3096   -0.9221 H   0  0  0  0  0  0  0  0  0  0  0  0
   18.5089    5.3671   -0.2807 H   0  0  0  0  0  0  0  0  0  0  0  0
   16.1044    5.4729   -0.5484 H   0  0  0  0  0  0  0  0  0  0  0  0
    5.6114    1.8180    0.0661 H   0  0  0  0  0  0  0  0  0  0  0  0
    3.8322    0.2615    0.5916 H   0  0  0  0  0  0  0  0  0  0  0  0
  1  2  1  0
  1 31  1  0
  1 32  1  0
  1 33  1  0
  2  3  1  0
  2  4  1  0
  3 34  1  0
  3 35  1  0
  3 36  1  0
  4  5  2  0
  4 30  1  0
  5  6  1  0
  5 37  1  0
  6  7  2  0
  6 38  1  0
  7  8  1  0
  7 29  1  0
  8  9  2  0
  8 39  1  0
  9 10  1  0
  9 40  1  0
 10 11  2  0
 10 41  1  0
 11 12  1  0
 11 27  1  0
 12 13  1  0
 12 42  1  0
 12 43  1  0
 13 14  1  0
 13 44  1  0
 13 45  1  0
 14 15  2  0
 14 27  1  0
 15 16  1  0
 15 46  1  0
 16 17  2  0
 16 47  1  0
 17 18  1  0
 17 48  1  0
 18 19  2  0
 18 26  1  0
 19 20  1  0
 19 49  1  0
 20 21  2  0
 20 50  1  0
 21 22  1  0
 21 25  1  0
 22 23  1  0
 22 24  1  0
 23 51  1  0
 23 52  1  0
 23 53  1  0
 24 54  1  0
 24 55  1  0
 24 56  1  0
 25 26  2  0
 25 57  1  0
 26 58  1  0
 27 28  2  0
 29 30  2  0
 29 59  1  0
 30 60  1  0
M  END

