
     RDKit          3D

 41 42  0  0  0  0  0  0  0  0999 V2000
    0.5981    0.6412   -2.5649 C   0  0  0  0  0  0  0  0  0  0  0  0
    0.4962   -0.1735   -1.2743 C   0  0  1  0  0  0  0  0  0  0  0  0
    0.9573   -1.6276   -1.4296 C   0  0  0  0  0  0  0  0  0  0  0  0
    2.3891   -1.7603   -1.6897 N   0  0  0  0  0  0  0  0  0  0  0  0
    2.7733   -3.0629   -2.2007 C   0  0  0  0  0  0  0  0  0  0  0  0
    2.5093   -3.3248   -3.7110 C   0  0  1  0  0  0  0  0  0  0  0  0
    3.1919   -4.6470   -4.1118 C   0  0  0  0  0  0  0  0  0  0  0  0
    1.1064   -3.4499   -3.9626 O   0  0  0  0  0  0  0  0  0  0  0  0
    3.0255   -2.1833   -4.5887 C   0  0  0  0  0  0  0  0  0  0  0  0
    4.3493   -1.7297   -4.4669 C   0  0  0  0  0  0  0  0  0  0  0  0
    4.8397   -0.7141   -5.2900 C   0  0  0  0  0  0  0  0  0  0  0  0
    4.0129   -0.1299   -6.2550 C   0  0  0  0  0  0  0  0  0  0  0  0
    2.6961   -0.5750   -6.3861 C   0  0  0  0  0  0  0  0  0  0  0  0
    2.2066   -1.5940   -5.5615 C   0  0  0  0  0  0  0  0  0  0  0  0
    3.2146   -1.3152   -0.5723 C   0  0  0  0  0  0  0  0  0  0  0  0
    3.0878    0.1807   -0.2792 C   0  0  2  0  0  0  0  0  0  0  0  0
    3.9937    0.6180    0.8698 C   0  0  0  0  0  0  0  0  0  0  0  0
    1.3526    0.6277    0.1518 S   0  0  0  0  0  0  0  0  0  0  0  0
   -0.0262    0.1866   -3.3528 H   0  0  0  0  0  0  0  0  0  0  0  0
    1.6300    0.6659   -2.9432 H   0  0  0  0  0  0  0  0  0  0  0  0
    0.2571    1.6745   -2.4035 H   0  0  0  0  0  0  0  0  0  0  0  0
   -0.5556   -0.1996   -0.9444 H   0  0  0  0  0  0  0  0  0  0  0  0
    0.4222   -2.0704   -2.2800 H   0  0  0  0  0  0  0  0  0  0  0  0
    0.6677   -2.1933   -0.5140 H   0  0  0  0  0  0  0  0  0  0  0  0
    2.2879   -3.8957   -1.6358 H   0  0  0  0  0  0  0  0  0  0  0  0
    3.8530   -3.1869   -2.0287 H   0  0  0  0  0  0  0  0  0  0  0  0
    2.8491   -5.4734   -3.4641 H   0  0  0  0  0  0  0  0  0  0  0  0
    4.2871   -4.5866   -4.0296 H   0  0  0  0  0  0  0  0  0  0  0  0
    2.9361   -4.8908   -5.1531 H   0  0  0  0  0  0  0  0  0  0  0  0
    0.7974   -4.2473   -3.5125 H   0  0  0  0  0  0  0  0  0  0  0  0
    5.0148   -2.1700   -3.7200 H   0  0  0  0  0  0  0  0  0  0  0  0
    5.8733   -0.3764   -5.1759 H   0  0  0  0  0  0  0  0  0  0  0  0
    4.3948    0.6662   -6.8994 H   0  0  0  0  0  0  0  0  0  0  0  0
    2.0393   -0.1276   -7.1371 H   0  0  0  0  0  0  0  0  0  0  0  0
    1.1788   -1.9405   -5.6654 H   0  0  0  0  0  0  0  0  0  0  0  0
    4.2695   -1.5173   -0.8265 H   0  0  0  0  0  0  0  0  0  0  0  0
    2.9899   -1.8804    0.3633 H   0  0  0  0  0  0  0  0  0  0  0  0
    3.3617    0.7330   -1.1927 H   0  0  0  0  0  0  0  0  0  0  0  0
    3.7430    0.0828    1.8001 H   0  0  0  0  0  0  0  0  0  0  0  0
    3.8952    1.6973    1.0626 H   0  0  0  0  0  0  0  0  0  0  0  0
    5.0497    0.4117    0.6282 H   0  0  0  0  0  0  0  0  0  0  0  0
  1  2  1  0
  1 19  1  0
  1 20  1  0
  1 21  1  0
  2  3  1  0
  2 18  1  0
  2 22  1  1
  3  4  1  0
  3 23  1  0
  3 24  1  0
  4  5  1  0
  4 15  1  0
  5  6  1  0
  5 25  1  0
  5 26  1  0
  6  7  1  0
  6  8  1  1
  6  9  1  0
  7 27  1  0
  7 28  1  0
  7 29  1  0
  8 30  1  0
  9 10  2  0
  9 14  1  0
 10 11  1  0
 10 31  1  0
 11 12  2  0
 11 32  1  0
 12 13  1  0
 12 33  1  0
 13 14  2  0
 13 34  1  0
 14 35  1  0
 15 16  1  0
 15 36  1  0
 15 37  1  0
 16 17  1  0
 16 18  1  0
 16 38  1  6
 17 39  1  0
 17 40  1  0
 17 41  1  0
M  END

