
     RDKit          3D

 37 39  0  0  0  0  0  0  0  0999 V2000
    0.6055   -0.5379    0.0773 C   0  0  0  0  0  0  0  0  0  0  0  0
    2.1240   -0.3229    0.0959 C   0  0  1  0  0  0  0  0  0  0  0  0
    2.9066   -1.5564   -0.3966 C   0  0  0  0  0  0  0  0  0  0  0  0
    2.7900   -1.7362   -1.9153 C   0  0  0  0  0  0  0  0  0  0  0  0
    3.1936   -0.4579   -2.6520 C   0  0  0  0  0  0  0  0  0  0  0  0
    2.4634    0.7127   -2.1514 N   0  0  0  0  0  0  0  0  0  0  0  0
    1.8376    1.5305   -3.0588 C   0  0  0  0  0  0  0  0  0  0  0  0
    1.7185    1.2456   -4.2409 O   0  0  0  0  0  0  0  0  0  0  0  0
    1.3247    2.8778   -2.5821 C   0  0  0  0  0  0  0  0  0  0  0  0
    2.2425    3.7953   -2.0494 C   0  0  0  0  0  0  0  0  0  0  0  0
    1.8686    5.1136   -1.7863 C   0  0  0  0  0  0  0  0  0  0  0  0
    3.0428    6.2284   -1.1370 Cl  0  0  0  0  0  0  0  0  0  0  0  0
    0.5641    5.5440   -2.0415 C   0  0  0  0  0  0  0  0  0  0  0  0
   -0.3593    4.6412   -2.5616 C   0  0  0  0  0  0  0  0  0  0  0  0
    0.0116    3.3190   -2.8419 C   0  0  0  0  0  0  0  0  0  0  0  0
   -0.9821    2.4619   -3.3901 N   0  0  0  0  0  0  0  0  0  0  0  0
   -1.2044    1.1310   -3.2652 C   0  0  0  0  0  0  0  0  0  0  0  0
   -2.2848    0.8163   -3.9379 N   0  0  0  0  0  0  0  0  0  0  0  0
   -2.7288    1.9730   -4.4881 N   0  0  0  0  0  0  0  0  0  0  0  0
   -1.9726    2.9588   -4.1738 N   0  0  0  0  0  0  0  0  0  0  0  0
    2.5547    0.9237   -0.7066 C   0  0  0  0  0  0  0  0  0  0  0  0
    0.3231   -1.3886    0.7172 H   0  0  0  0  0  0  0  0  0  0  0  0
    0.2285   -0.7565   -0.9341 H   0  0  0  0  0  0  0  0  0  0  0  0
    0.0704    0.3507    0.4495 H   0  0  0  0  0  0  0  0  0  0  0  0
    2.4180   -0.1250    1.1416 H   0  0  0  0  0  0  0  0  0  0  0  0
    2.5604   -2.4608    0.1305 H   0  0  0  0  0  0  0  0  0  0  0  0
    3.9724   -1.4311   -0.1324 H   0  0  0  0  0  0  0  0  0  0  0  0
    1.7594   -2.0100   -2.1963 H   0  0  0  0  0  0  0  0  0  0  0  0
    3.4346   -2.5633   -2.2550 H   0  0  0  0  0  0  0  0  0  0  0  0
    3.0028   -0.5287   -3.7293 H   0  0  0  0  0  0  0  0  0  0  0  0
    4.2769   -0.2752   -2.5085 H   0  0  0  0  0  0  0  0  0  0  0  0
    3.2722    3.4869   -1.8640 H   0  0  0  0  0  0  0  0  0  0  0  0
    0.2753    6.5747   -1.8317 H   0  0  0  0  0  0  0  0  0  0  0  0
   -1.3827    4.9534   -2.7698 H   0  0  0  0  0  0  0  0  0  0  0  0
   -0.5897    0.4533   -2.6811 H   0  0  0  0  0  0  0  0  0  0  0  0
    1.9344    1.7821   -0.4221 H   0  0  0  0  0  0  0  0  0  0  0  0
    3.6015    1.1728   -0.4444 H   0  0  0  0  0  0  0  0  0  0  0  0
  1  2  1  0
  1 22  1  0
  1 23  1  0
  1 24  1  0
  2  3  1  0
  2 21  1  0
  2 25  1  1
  3  4  1  0
  3 26  1  0
  3 27  1  0
  4  5  1  0
  4 28  1  0
  4 29  1  0
  5  6  1  0
  5 30  1  0
  5 31  1  0
  6  7  1  0
  6 21  1  0
  7  8  2  0
  7  9  1  0
  9 10  2  0
  9 15  1  0
 10 11  1  0
 10 32  1  0
 11 12  1  0
 11 13  2  0
 13 14  1  0
 13 33  1  0
 14 15  2  0
 14 34  1  0
 15 16  1  0
 16 17  1  0
 16 20  1  0
 17 18  2  0
 17 35  1  0
 18 19  1  0
 19 20  2  0
 21 36  1  0
 21 37  1  0
M  END

