
     RDKit          3D

 50 53  0  0  0  0  0  0  0  0999 V2000
    1.3845    1.1288    2.4022 C   0  0  0  0  0  0  0  0  0  0  0  0
    2.6416    0.9204    1.5781 C   0  0  0  0  0  0  0  0  0  0  0  0
    3.1154    1.8264    0.9216 O   0  0  0  0  0  0  0  0  0  0  0  0
    3.2961   -0.4360    1.5884 C   0  0  0  0  0  0  0  0  0  0  0  0
    2.7956   -1.5228    2.3242 C   0  0  0  0  0  0  0  0  0  0  0  0
    3.4430   -2.7577    2.2977 C   0  0  0  0  0  0  0  0  0  0  0  0
    4.6046   -2.9126    1.5355 C   0  0  0  0  0  0  0  0  0  0  0  0
    5.2678   -4.1857    1.4864 N   0  0  0  0  0  0  0  0  0  0  0  0
    5.3674   -4.8841    0.2555 C   0  0  0  0  0  0  0  0  0  0  0  0
    4.9235   -4.4651   -0.7869 O   0  0  0  0  0  0  0  0  0  0  0  0
    6.0818   -6.1765    0.4563 C   0  0  0  0  0  0  0  0  0  0  0  0
    6.2699   -7.0086   -0.5982 C   0  0  0  0  0  0  0  0  0  0  0  0
    6.9170   -8.3105   -0.6982 C   0  0  0  0  0  0  0  0  0  0  0  0
    7.5182   -8.9899    0.3881 C   0  0  0  0  0  0  0  0  0  0  0  0
    8.1092  -10.2320    0.1865 C   0  0  0  0  0  0  0  0  0  0  0  0
    8.1275  -10.8372   -1.0773 C   0  0  0  0  0  0  0  0  0  0  0  0
    7.5371  -10.1735   -2.1640 C   0  0  0  0  0  0  0  0  0  0  0  0
    7.4922  -10.6581   -3.4307 O   0  0  0  0  0  0  0  0  0  0  0  0
    8.0903  -11.9071   -3.7260 C   0  0  0  0  0  0  0  0  0  0  0  0
    7.9486  -12.2037   -5.2001 C   0  0  0  0  0  0  0  0  0  0  0  0
    7.9043  -11.1741   -6.1501 C   0  0  0  0  0  0  0  0  0  0  0  0
    7.8201  -11.4619   -7.5138 C   0  0  0  0  0  0  0  0  0  0  0  0
    7.7858  -12.7941   -7.9352 C   0  0  0  0  0  0  0  0  0  0  0  0
    7.6828  -13.1615   -9.6417 Cl  0  0  0  0  0  0  0  0  0  0  0  0
    7.8274  -13.8360   -7.0047 C   0  0  0  0  0  0  0  0  0  0  0  0
    7.9034  -13.5325   -5.6440 C   0  0  0  0  0  0  0  0  0  0  0  0
    6.9388   -8.9215   -1.9651 C   0  0  0  0  0  0  0  0  0  0  0  0
    6.5534   -6.3432    2.1465 S   0  0  0  0  0  0  0  0  0  0  0  0
    5.8426   -4.7797    2.5979 C   0  0  0  0  0  0  0  0  0  0  0  0
    5.9206   -4.2021    4.1289 S   0  0  0  0  0  0  0  0  0  0  0  0
    5.1147   -1.8404    0.7942 C   0  0  0  0  0  0  0  0  0  0  0  0
    4.4606   -0.6125    0.8229 C   0  0  0  0  0  0  0  0  0  0  0  0
    1.0486    2.1656    2.2759 H   0  0  0  0  0  0  0  0  0  0  0  0
    1.5748    0.9330    3.4699 H   0  0  0  0  0  0  0  0  0  0  0  0
    0.5834    0.4431    2.0816 H   0  0  0  0  0  0  0  0  0  0  0  0
    1.8912   -1.4174    2.9255 H   0  0  0  0  0  0  0  0  0  0  0  0
    3.0521   -3.5994    2.8702 H   0  0  0  0  0  0  0  0  0  0  0  0
    5.8540   -6.6133   -1.5314 H   0  0  0  0  0  0  0  0  0  0  0  0
    7.5269   -8.5556    1.3873 H   0  0  0  0  0  0  0  0  0  0  0  0
    8.5707  -10.7519    1.0297 H   0  0  0  0  0  0  0  0  0  0  0  0
    8.5978  -11.8128   -1.1972 H   0  0  0  0  0  0  0  0  0  0  0  0
    7.6193  -12.7118   -3.1313 H   0  0  0  0  0  0  0  0  0  0  0  0
    9.1627  -11.8813   -3.4468 H   0  0  0  0  0  0  0  0  0  0  0  0
    7.9248  -10.1354   -5.8166 H   0  0  0  0  0  0  0  0  0  0  0  0
    7.7807  -10.6588   -8.2516 H   0  0  0  0  0  0  0  0  0  0  0  0
    7.7910  -14.8718   -7.3458 H   0  0  0  0  0  0  0  0  0  0  0  0
    7.9241  -14.3511   -4.9184 H   0  0  0  0  0  0  0  0  0  0  0  0
    6.4835   -8.4273   -2.8257 H   0  0  0  0  0  0  0  0  0  0  0  0
    6.0178   -1.9736    0.1969 H   0  0  0  0  0  0  0  0  0  0  0  0
    4.8376    0.2398    0.2548 H   0  0  0  0  0  0  0  0  0  0  0  0
  1  2  1  0
  1 33  1  0
  1 34  1  0
  1 35  1  0
  2  3  2  0
  2  4  1  0
  4  5  2  0
  4 32  1  0
  5  6  1  0
  5 36  1  0
  6  7  2  0
  6 37  1  0
  7  8  1  0
  7 31  1  0
  8  9  1  0
  8 29  1  0
  9 10  2  0
  9 11  1  0
 11 12  2  0
 11 28  1  0
 12 13  1  0
 12 38  1  0
 13 14  2  0
 13 27  1  0
 14 15  1  0
 14 39  1  0
 15 16  2  0
 15 40  1  0
 16 17  1  0
 16 41  1  0
 17 18  1  0
 17 27  2  0
 18 19  1  0
 19 20  1  0
 19 42  1  0
 19 43  1  0
 20 21  2  0
 20 26  1  0
 21 22  1  0
 21 44  1  0
 22 23  2  0
 22 45  1  0
 23 24  1  0
 23 25  1  0
 25 26  2  0
 25 46  1  0
 26 47  1  0
 27 48  1  0
 28 29  1  0
 29 30  2  0
 31 32  2  0
 31 49  1  0
 32 50  1  0
M  END

