
     RDKit          3D

 27 28  0  0  0  0  0  0  0  0999 V2000
    1.5101    0.8469   -1.0069 C   0  0  0  0  0  0  0  0  0  0  0  0
    2.7102    0.3191   -0.2865 C   0  0  0  0  0  0  0  0  0  0  0  0
    3.4925    1.1264    0.3868 N   0  0  0  0  0  0  0  0  0  0  0  0
    4.4925    0.3327    0.9270 O   0  0  0  0  0  0  0  0  0  0  0  0
    4.3013   -0.9491    0.5764 C   0  0  0  0  0  0  0  0  0  0  0  0
    5.3014   -1.9345    1.0730 C   0  0  0  0  0  0  0  0  0  0  0  0
    3.1776   -1.0409   -0.2061 C   0  0  0  0  0  0  0  0  0  0  0  0
    2.5824   -2.2541   -0.8519 C   0  0  0  0  0  0  0  0  0  0  0  0
    1.2193   -2.5723   -0.3948 N   0  0  0  0  0  0  0  0  0  0  0  0
    0.2016   -2.7790   -1.2982 C   0  0  0  0  0  0  0  0  0  0  0  0
   -1.0513   -3.1427   -0.9151 C   0  0  0  0  0  0  0  0  0  0  0  0
   -1.4032   -3.3527    0.4966 C   0  0  0  0  0  0  0  0  0  0  0  0
   -2.5214   -3.6850    0.8778 O   0  0  0  0  0  0  0  0  0  0  0  0
   -0.2688   -3.1195    1.4033 C   0  0  0  0  0  0  0  0  0  0  0  0
    0.9575   -2.7534    0.9452 C   0  0  0  0  0  0  0  0  0  0  0  0
    1.4720    1.9406   -0.9145 H   0  0  0  0  0  0  0  0  0  0  0  0
    0.5805    0.4252   -0.5926 H   0  0  0  0  0  0  0  0  0  0  0  0
    1.5429    0.5862   -2.0774 H   0  0  0  0  0  0  0  0  0  0  0  0
    5.3828   -1.8844    2.1704 H   0  0  0  0  0  0  0  0  0  0  0  0
    6.3004   -1.7196    0.6599 H   0  0  0  0  0  0  0  0  0  0  0  0
    5.0227   -2.9582    0.7889 H   0  0  0  0  0  0  0  0  0  0  0  0
    3.2377   -3.1257   -0.6843 H   0  0  0  0  0  0  0  0  0  0  0  0
    2.5205   -2.1162   -1.9420 H   0  0  0  0  0  0  0  0  0  0  0  0
    0.4691   -2.6282   -2.3470 H   0  0  0  0  0  0  0  0  0  0  0  0
   -1.8316   -3.2887   -1.6642 H   0  0  0  0  0  0  0  0  0  0  0  0
   -0.4367   -3.2482    2.4741 H   0  0  0  0  0  0  0  0  0  0  0  0
    1.8008   -2.5705    1.6143 H   0  0  0  0  0  0  0  0  0  0  0  0
  1  2  1  0
  1 16  1  0
  1 17  1  0
  1 18  1  0
  2  3  2  0
  2  7  1  0
  3  4  1  0
  4  5  1  0
  5  6  1  0
  5  7  2  0
  6 19  1  0
  6 20  1  0
  6 21  1  0
  7  8  1  0
  8  9  1  0
  8 22  1  0
  8 23  1  0
  9 10  1  0
  9 15  1  0
 10 11  2  0
 10 24  1  0
 11 12  1  0
 11 25  1  0
 12 13  2  0
 12 14  1  0
 14 15  2  0
 14 26  1  0
 15 27  1  0
M  END

