
     RDKit          3D

 43 45  0  0  0  0  0  0  0  0999 V2000
    0.8914    0.0732    1.3496 C   0  0  0  0  0  0  0  0  0  0  0  0
    2.2201    0.1723    0.7750 N   0  0  0  0  0  0  0  0  0  0  0  0
    3.0577   -0.9816    1.1058 C   0  0  0  0  0  0  0  0  0  0  0  0
    4.4481   -0.8847    0.4687 C   0  0  0  0  0  0  0  0  0  0  0  0
    5.1089    0.3329    0.7892 O   0  0  0  0  0  0  0  0  0  0  0  0
    4.2847    1.4034    0.4167 C   0  0  2  0  0  0  0  0  0  0  0  0
    4.8204    2.7932    0.7420 C   0  0  0  0  0  0  0  0  0  0  0  0
    3.5824    3.5744    0.7852 N   0  0  0  0  0  0  0  0  0  0  0  0
    3.4770    4.9453    0.7640 C   0  0  0  0  0  0  0  0  0  0  0  0
    2.3936    5.5131    0.6903 O   0  0  0  0  0  0  0  0  0  0  0  0
    4.6736    5.6388    0.8089 N   0  0  0  0  0  0  0  0  0  0  0  0
    4.6596    7.0867    0.8851 C   0  0  0  0  0  0  0  0  0  0  0  0
    4.3354    7.6385    2.2918 C   0  0  0  0  0  0  0  0  0  0  0  0
    4.2524    9.1446    2.3130 C   0  0  0  0  0  0  0  0  0  0  0  0
    3.0978    9.8129    1.8768 C   0  0  0  0  0  0  0  0  0  0  0  0
    3.0747   11.2098    1.8741 C   0  0  0  0  0  0  0  0  0  0  0  0
    4.1019   11.9689    2.2673 N   0  0  0  0  0  0  0  0  0  0  0  0
    5.2024   11.3376    2.6823 C   0  0  0  0  0  0  0  0  0  0  0  0
    5.3277    9.9454    2.7226 C   0  0  0  0  0  0  0  0  0  0  0  0
    2.3693    2.7439    0.7658 C   0  0  0  0  0  0  0  0  0  0  0  0
    2.9386    1.3760    1.1419 C   0  0  1  0  0  0  0  0  0  0  0  0
    0.3985   -0.8455    0.9941 H   0  0  0  0  0  0  0  0  0  0  0  0
    0.2725    0.9267    1.0341 H   0  0  0  0  0  0  0  0  0  0  0  0
    0.8970    0.0462    2.4636 H   0  0  0  0  0  0  0  0  0  0  0  0
    2.5669   -1.9010    0.7451 H   0  0  0  0  0  0  0  0  0  0  0  0
    3.1771   -1.0844    2.2098 H   0  0  0  0  0  0  0  0  0  0  0  0
    4.3533   -0.9774   -0.6316 H   0  0  0  0  0  0  0  0  0  0  0  0
    5.0872   -1.7025    0.8329 H   0  0  0  0  0  0  0  0  0  0  0  0
    4.0676    1.3463   -0.6708 H   0  0  0  0  0  0  0  0  0  0  0  0
    5.5137    3.1694   -0.0279 H   0  0  0  0  0  0  0  0  0  0  0  0
    5.3537    2.7744    1.7130 H   0  0  0  0  0  0  0  0  0  0  0  0
    5.5072    5.1605    1.1271 H   0  0  0  0  0  0  0  0  0  0  0  0
    3.9018    7.4507    0.1768 H   0  0  0  0  0  0  0  0  0  0  0  0
    5.6377    7.4642    0.5457 H   0  0  0  0  0  0  0  0  0  0  0  0
    5.1029    7.2926    3.0045 H   0  0  0  0  0  0  0  0  0  0  0  0
    3.3711    7.2064    2.6005 H   0  0  0  0  0  0  0  0  0  0  0  0
    2.2215    9.2476    1.5471 H   0  0  0  0  0  0  0  0  0  0  0  0
    2.1754   11.7406    1.5384 H   0  0  0  0  0  0  0  0  0  0  0  0
    6.0376   11.9711    3.0058 H   0  0  0  0  0  0  0  0  0  0  0  0
    6.2567    9.4913    3.0792 H   0  0  0  0  0  0  0  0  0  0  0  0
    1.9024    2.7199   -0.2361 H   0  0  0  0  0  0  0  0  0  0  0  0
    1.6261    3.1405    1.4710 H   0  0  0  0  0  0  0  0  0  0  0  0
    3.1592    1.3868    2.2374 H   0  0  0  0  0  0  0  0  0  0  0  0
  1  2  1  0
  1 22  1  0
  1 23  1  0
  1 24  1  0
  2  3  1  0
  2 21  1  0
  3  4  1  0
  3 25  1  0
  3 26  1  0
  4  5  1  0
  4 27  1  0
  4 28  1  0
  5  6  1  0
  6  7  1  0
  6 21  1  0
  6 29  1  6
  7  8  1  0
  7 30  1  0
  7 31  1  0
  8  9  1  0
  8 20  1  0
  9 10  2  0
  9 11  1  0
 11 12  1  0
 11 32  1  0
 12 13  1  0
 12 33  1  0
 12 34  1  0
 13 14  1  0
 13 35  1  0
 13 36  1  0
 14 15  2  0
 14 19  1  0
 15 16  1  0
 15 37  1  0
 16 17  2  0
 16 38  1  0
 17 18  1  0
 18 19  2  0
 18 39  1  0
 19 40  1  0
 20 21  1  0
 20 41  1  0
 20 42  1  0
 21 43  1  1
M  END

