
     RDKit          3D

 55 58  0  0  0  0  0  0  0  0999 V2000
    9.4146   -0.2546    7.1196 C   0  0  0  0  0  0  0  0  0  0  0  0
    9.3749   -0.8550    5.7344 C   0  0  0  0  0  0  0  0  0  0  0  0
    8.8288   -2.1286    5.4984 C   0  0  0  0  0  0  0  0  0  0  0  0
    8.8034   -2.6875    4.2230 C   0  0  0  0  0  0  0  0  0  0  0  0
    9.3298   -1.9810    3.1304 C   0  0  0  0  0  0  0  0  0  0  0  0
    9.2635   -2.6031    1.9210 O   0  0  0  0  0  0  0  0  0  0  0  0
    9.7412   -1.9416    0.7670 C   0  0  0  0  0  0  0  0  0  0  0  0
    9.5491   -2.8838   -0.4126 C   0  0  0  0  0  0  0  0  0  0  0  0
   10.0158   -2.3496   -1.7719 C   0  0  0  0  0  0  0  0  0  0  0  0
   11.4593   -2.0922   -1.8757 N   0  0  0  0  0  0  0  0  0  0  0  0
   12.2711   -3.1954   -2.0620 C   0  0  0  0  0  0  0  0  0  0  0  0
   11.8376   -4.3304   -2.1207 O   0  0  0  0  0  0  0  0  0  0  0  0
   13.7619   -2.8975   -2.1390 C   0  0  0  0  0  0  0  0  0  0  0  0
   14.0522   -1.6732   -2.7844 O   0  0  0  0  0  0  0  0  0  0  0  0
   13.3315   -0.6090   -2.3272 C   0  0  0  0  0  0  0  0  0  0  0  0
   13.8881    0.6662   -2.3778 C   0  0  0  0  0  0  0  0  0  0  0  0
   13.1730    1.7912   -1.9645 C   0  0  0  0  0  0  0  0  0  0  0  0
   11.8671    1.6272   -1.4764 C   0  0  0  0  0  0  0  0  0  0  0  0
   11.0628    2.6960   -1.0315 N   0  0  0  0  0  0  0  0  0  0  0  0
   11.3804    4.0318   -0.9322 C   0  0  0  0  0  0  0  0  0  0  0  0
   12.4786    4.4926   -1.1949 O   0  0  0  0  0  0  0  0  0  0  0  0
   10.2590    4.9174   -0.4432 C   0  0  0  0  0  0  0  0  0  0  0  0
    8.8960    4.5925   -0.5487 C   0  0  0  0  0  0  0  0  0  0  0  0
    7.9225    5.4824   -0.0857 C   0  0  0  0  0  0  0  0  0  0  0  0
    8.2914    6.7024    0.4847 C   0  0  0  0  0  0  0  0  0  0  0  0
    9.6480    7.0164    0.5693 C   0  0  0  0  0  0  0  0  0  0  0  0
   10.0091    8.1876    1.1084 F   0  0  0  0  0  0  0  0  0  0  0  0
   10.6333    6.1513    0.1087 C   0  0  0  0  0  0  0  0  0  0  0  0
   11.3025    0.3385   -1.4232 C   0  0  0  0  0  0  0  0  0  0  0  0
   12.0133   -0.7883   -1.8527 C   0  0  0  0  0  0  0  0  0  0  0  0
    9.8789   -0.7072    3.3421 C   0  0  0  0  0  0  0  0  0  0  0  0
    9.8944   -0.1642    4.6317 C   0  0  0  0  0  0  0  0  0  0  0  0
    8.8591   -0.8714    7.8419 H   0  0  0  0  0  0  0  0  0  0  0  0
    8.9765    0.7571    7.1359 H   0  0  0  0  0  0  0  0  0  0  0  0
   10.4498   -0.1620    7.4908 H   0  0  0  0  0  0  0  0  0  0  0  0
    8.4122   -2.6975    6.3347 H   0  0  0  0  0  0  0  0  0  0  0  0
    8.3773   -3.6772    4.0452 H   0  0  0  0  0  0  0  0  0  0  0  0
   10.8077   -1.6741    0.8882 H   0  0  0  0  0  0  0  0  0  0  0  0
    9.1809   -0.9970    0.6157 H   0  0  0  0  0  0  0  0  0  0  0  0
    8.4769   -3.1296   -0.4935 H   0  0  0  0  0  0  0  0  0  0  0  0
   10.0710   -3.8298   -0.2035 H   0  0  0  0  0  0  0  0  0  0  0  0
    9.4831   -1.4303   -2.0524 H   0  0  0  0  0  0  0  0  0  0  0  0
    9.7777   -3.1103   -2.5287 H   0  0  0  0  0  0  0  0  0  0  0  0
   14.2370   -3.7022   -2.7130 H   0  0  0  0  0  0  0  0  0  0  0  0
   14.1785   -2.9085   -1.1105 H   0  0  0  0  0  0  0  0  0  0  0  0
   14.9064    0.7642   -2.7593 H   0  0  0  0  0  0  0  0  0  0  0  0
   13.6142    2.7832   -2.0014 H   0  0  0  0  0  0  0  0  0  0  0  0
   10.1529    2.4292   -0.6777 H   0  0  0  0  0  0  0  0  0  0  0  0
    8.5758    3.6631   -1.0254 H   0  0  0  0  0  0  0  0  0  0  0  0
    6.8641    5.2276   -0.1785 H   0  0  0  0  0  0  0  0  0  0  0  0
    7.5513    7.4141    0.8553 H   0  0  0  0  0  0  0  0  0  0  0  0
   11.6880    6.4228    0.1687 H   0  0  0  0  0  0  0  0  0  0  0  0
   10.2857    0.2274   -1.0464 H   0  0  0  0  0  0  0  0  0  0  0  0
   10.3001   -0.1311    2.5177 H   0  0  0  0  0  0  0  0  0  0  0  0
   10.3280    0.8302    4.7759 H   0  0  0  0  0  0  0  0  0  0  0  0
  1  2  1  0
  1 33  1  0
  1 34  1  0
  1 35  1  0
  2  3  2  0
  2 32  1  0
  3  4  1  0
  3 36  1  0
  4  5  2  0
  4 37  1  0
  5  6  1  0
  5 31  1  0
  6  7  1  0
  7  8  1  0
  7 38  1  0
  7 39  1  0
  8  9  1  0
  8 40  1  0
  8 41  1  0
  9 10  1  0
  9 42  1  0
  9 43  1  0
 10 11  1  0
 10 30  1  0
 11 12  2  0
 11 13  1  0
 13 14  1  0
 13 44  1  0
 13 45  1  0
 14 15  1  0
 15 16  2  0
 15 30  1  0
 16 17  1  0
 16 46  1  0
 17 18  2  0
 17 47  1  0
 18 19  1  0
 18 29  1  0
 19 20  1  0
 19 48  1  0
 20 21  2  0
 20 22  1  0
 22 23  2  0
 22 28  1  0
 23 24  1  0
 23 49  1  0
 24 25  2  0
 24 50  1  0
 25 26  1  0
 25 51  1  0
 26 27  1  0
 26 28  2  0
 28 52  1  0
 29 30  2  0
 29 53  1  0
 31 32  2  0
 31 54  1  0
 32 55  1  0
M  END

