
     RDKit          3D

 30 31  0  0  0  0  0  0  0  0999 V2000
    1.9713   -0.4130    1.4263 C   0  0  0  0  0  0  0  0  0  0  0  0
    3.2750   -0.6905    0.8475 N   0  0  0  0  0  0  0  0  0  0  0  0
    4.2687    0.1908    1.0323 N   0  0  0  0  0  0  0  0  0  0  0  0
    5.3578   -0.2980    0.4413 C   0  0  0  0  0  0  0  0  0  0  0  0
    6.6711    0.4309    0.4599 C   0  0  0  0  0  0  0  0  0  0  0  0
    6.5907    1.9705    0.5372 C   0  0  0  0  0  0  0  0  0  0  0  0
    6.3621    2.5825    1.9255 C   0  0  0  0  0  0  0  0  0  0  0  0
    7.1350    3.3710    2.4081 O   0  0  0  0  0  0  0  0  0  0  0  0
    5.2488    2.2160    2.5705 O   0  0  0  0  0  0  0  0  0  0  0  0
    5.0425   -1.5493   -0.1389 C   0  0  0  0  0  0  0  0  0  0  0  0
    6.2126   -2.6432   -1.1265 Br  0  0  0  0  0  0  0  0  0  0  0  0
    3.6898   -1.7793    0.1295 C   0  0  0  0  0  0  0  0  0  0  0  0
    2.8120   -2.9006   -0.2529 C   0  0  0  0  0  0  0  0  0  0  0  0
    3.2073   -4.2310   -0.0366 C   0  0  0  0  0  0  0  0  0  0  0  0
    2.3486   -5.2632   -0.4234 C   0  0  0  0  0  0  0  0  0  0  0  0
    1.1581   -5.0619   -0.9938 N   0  0  0  0  0  0  0  0  0  0  0  0
    0.7823   -3.7992   -1.2055 C   0  0  0  0  0  0  0  0  0  0  0  0
    1.5623   -2.6918   -0.8609 C   0  0  0  0  0  0  0  0  0  0  0  0
    2.1231    0.1091    2.3800 H   0  0  0  0  0  0  0  0  0  0  0  0
    1.4377   -1.3539    1.6077 H   0  0  0  0  0  0  0  0  0  0  0  0
    1.3662    0.2251    0.7628 H   0  0  0  0  0  0  0  0  0  0  0  0
    7.2132    0.1537   -0.4575 H   0  0  0  0  0  0  0  0  0  0  0  0
    7.2909    0.0465    1.2904 H   0  0  0  0  0  0  0  0  0  0  0  0
    5.7984    2.3313   -0.1419 H   0  0  0  0  0  0  0  0  0  0  0  0
    7.5409    2.3948    0.1883 H   0  0  0  0  0  0  0  0  0  0  0  0
    4.7268    1.5555    2.0524 H   0  0  0  0  0  0  0  0  0  0  0  0
    4.1659   -4.4588    0.4320 H   0  0  0  0  0  0  0  0  0  0  0  0
    2.6421   -6.3063   -0.2571 H   0  0  0  0  0  0  0  0  0  0  0  0
   -0.1937   -3.6507   -1.6827 H   0  0  0  0  0  0  0  0  0  0  0  0
    1.2065   -1.6848   -1.0873 H   0  0  0  0  0  0  0  0  0  0  0  0
  1  2  1  0
  1 19  1  0
  1 20  1  0
  1 21  1  0
  2  3  1  0
  2 12  1  0
  3  4  2  0
  4  5  1  0
  4 10  1  0
  5  6  1  0
  5 22  1  0
  5 23  1  0
  6  7  1  0
  6 24  1  0
  6 25  1  0
  7  8  2  0
  7  9  1  0
  9 26  1  0
 10 11  1  0
 10 12  2  0
 12 13  1  0
 13 14  2  0
 13 18  1  0
 14 15  1  0
 14 27  1  0
 15 16  2  0
 15 28  1  0
 16 17  1  0
 17 18  2  0
 17 29  1  0
 18 30  1  0
M  END

