
     RDKit          3D

 66 70  0  0  0  0  0  0  0  0999 V2000
    0.5585    0.9215   -0.1871 C   0  0  0  0  0  0  0  0  0  0  0  0
    2.0581    0.6417   -0.0982 C   0  0  0  0  0  0  0  0  0  0  0  0
    2.8315    1.1291   -1.3401 C   0  0  0  0  0  0  0  0  0  0  0  0
    4.3094    0.8942   -1.2519 C   0  0  0  0  0  0  0  0  0  0  0  0
    5.1329    1.6752   -0.5914 N   0  0  0  0  0  0  0  0  0  0  0  0
    6.3782    1.0957   -0.7102 C   0  0  0  0  0  0  0  0  0  0  0  0
    7.6154    1.5200   -0.1823 C   0  0  0  0  0  0  0  0  0  0  0  0
    7.6981    2.7609    0.6637 C   0  0  0  0  0  0  0  0  0  0  0  0
    8.7250    0.7257   -0.4769 C   0  0  0  0  0  0  0  0  0  0  0  0
    8.6377   -0.4534   -1.2616 C   0  0  0  0  0  0  0  0  0  0  0  0
    9.8249   -1.3132   -1.4974 C   0  0  0  0  0  0  0  0  0  0  0  0
    9.7478   -2.5980   -1.4646 N   0  0  0  0  0  0  0  0  0  0  0  0
   11.1022   -3.1188   -1.6359 C   0  0  0  0  0  0  0  0  0  0  0  0
   11.9722   -1.9059   -2.0423 C   0  0  0  0  0  0  0  0  0  0  0  0
   11.1032   -0.7757   -1.7021 N   0  0  0  0  0  0  0  0  0  0  0  0
   11.3569    0.4687   -2.3997 C   0  0  0  0  0  0  0  0  0  0  0  0
    7.4047   -0.8819   -1.7676 C   0  0  0  0  0  0  0  0  0  0  0  0
    6.2921   -0.0877   -1.4838 C   0  0  0  0  0  0  0  0  0  0  0  0
    4.9505   -0.1967   -1.8257 N   0  0  0  0  0  0  0  0  0  0  0  0
    4.3595   -1.2683   -2.6163 C   0  0  0  0  0  0  0  0  0  0  0  0
    3.6165   -2.3153   -1.8042 C   0  0  0  0  0  0  0  0  0  0  0  0
    2.2937   -2.6528   -2.1184 C   0  0  0  0  0  0  0  0  0  0  0  0
    1.5948   -3.6021   -1.3693 C   0  0  0  0  0  0  0  0  0  0  0  0
    2.2064   -4.2433   -0.2798 C   0  0  0  0  0  0  0  0  0  0  0  0
    1.4730   -5.2605    0.5249 C   0  0  0  0  0  0  0  0  0  0  0  0
    1.9579   -6.5763    0.6344 C   0  0  0  0  0  0  0  0  0  0  0  0
    1.2769   -7.5456    1.3726 C   0  0  0  0  0  0  0  0  0  0  0  0
    0.0886   -7.2150    2.0302 C   0  0  0  0  0  0  0  0  0  0  0  0
   -0.4043   -5.9117    1.9548 C   0  0  0  0  0  0  0  0  0  0  0  0
    0.2857   -4.9546    1.2115 C   0  0  0  0  0  0  0  0  0  0  0  0
   -0.1592   -3.6324    1.2498 O   0  0  0  0  0  0  0  0  0  0  0  0
   -1.1826   -3.2623    0.4648 C   0  0  0  0  0  0  0  0  0  0  0  0
   -1.7407   -3.9433   -0.3536 O   0  0  0  0  0  0  0  0  0  0  0  0
   -1.4736   -1.9855    0.7430 O   0  0  0  0  0  0  0  0  0  0  0  0
    3.5413   -3.9196    0.0207 C   0  0  0  0  0  0  0  0  0  0  0  0
    4.2353   -2.9686   -0.7275 C   0  0  0  0  0  0  0  0  0  0  0  0
    0.0305    0.5397    0.7000 H   0  0  0  0  0  0  0  0  0  0  0  0
    0.1126    0.4309   -1.0694 H   0  0  0  0  0  0  0  0  0  0  0  0
    0.3535    2.0021   -0.2704 H   0  0  0  0  0  0  0  0  0  0  0  0
    2.2259   -0.4394    0.0375 H   0  0  0  0  0  0  0  0  0  0  0  0
    2.4871    1.1364    0.7889 H   0  0  0  0  0  0  0  0  0  0  0  0
    2.6845    2.2152   -1.4518 H   0  0  0  0  0  0  0  0  0  0  0  0
    2.4158    0.6549   -2.2443 H   0  0  0  0  0  0  0  0  0  0  0  0
    7.3295    3.6401    0.1102 H   0  0  0  0  0  0  0  0  0  0  0  0
    8.7293    2.9601    0.9905 H   0  0  0  0  0  0  0  0  0  0  0  0
    7.0596    2.6715    1.5579 H   0  0  0  0  0  0  0  0  0  0  0  0
    9.6945    1.0032   -0.0567 H   0  0  0  0  0  0  0  0  0  0  0  0
   11.1286   -3.9340   -2.3780 H   0  0  0  0  0  0  0  0  0  0  0  0
   11.4424   -3.5551   -0.6783 H   0  0  0  0  0  0  0  0  0  0  0  0
   12.1890   -1.8994   -3.1310 H   0  0  0  0  0  0  0  0  0  0  0  0
   12.9382   -1.8539   -1.5131 H   0  0  0  0  0  0  0  0  0  0  0  0
   11.3725    0.3307   -3.5015 H   0  0  0  0  0  0  0  0  0  0  0  0
   12.3362    0.8783   -2.1017 H   0  0  0  0  0  0  0  0  0  0  0  0
   10.5903    1.2149   -2.1606 H   0  0  0  0  0  0  0  0  0  0  0  0
    7.3545   -1.8112   -2.3364 H   0  0  0  0  0  0  0  0  0  0  0  0
    5.1812   -1.7374   -3.1794 H   0  0  0  0  0  0  0  0  0  0  0  0
    3.6823   -0.8319   -3.3661 H   0  0  0  0  0  0  0  0  0  0  0  0
    1.7957   -2.1646   -2.9615 H   0  0  0  0  0  0  0  0  0  0  0  0
    0.5674   -3.8579   -1.6382 H   0  0  0  0  0  0  0  0  0  0  0  0
    2.8802   -6.8377    0.1101 H   0  0  0  0  0  0  0  0  0  0  0  0
    1.6736   -8.5619    1.4315 H   0  0  0  0  0  0  0  0  0  0  0  0
   -0.4517   -7.9674    2.6095 H   0  0  0  0  0  0  0  0  0  0  0  0
   -1.3155   -5.6203    2.4807 H   0  0  0  0  0  0  0  0  0  0  0  0
   -2.2016   -1.7331    0.1539 H   0  0  0  0  0  0  0  0  0  0  0  0
    4.0352   -4.4071    0.8647 H   0  0  0  0  0  0  0  0  0  0  0  0
    5.2671   -2.7251   -0.4609 H   0  0  0  0  0  0  0  0  0  0  0  0
  1  2  1  0
  1 37  1  0
  1 38  1  0
  1 39  1  0
  2  3  1  0
  2 40  1  0
  2 41  1  0
  3  4  1  0
  3 42  1  0
  3 43  1  0
  4  5  2  0
  4 19  1  0
  5  6  1  0
  6  7  2  0
  6 18  1  0
  7  8  1  0
  7  9  1  0
  8 44  1  0
  8 45  1  0
  8 46  1  0
  9 10  2  0
  9 47  1  0
 10 11  1  0
 10 17  1  0
 11 12  2  0
 11 15  1  0
 12 13  1  0
 13 14  1  0
 13 48  1  0
 13 49  1  0
 14 15  1  0
 14 50  1  0
 14 51  1  0
 15 16  1  0
 16 52  1  0
 16 53  1  0
 16 54  1  0
 17 18  2  0
 17 55  1  0
 18 19  1  0
 19 20  1  0
 20 21  1  0
 20 56  1  0
 20 57  1  0
 21 22  2  0
 21 36  1  0
 22 23  1  0
 22 58  1  0
 23 24  2  0
 23 59  1  0
 24 25  1  0
 24 35  1  0
 25 26  2  0
 25 30  1  0
 26 27  1  0
 26 60  1  0
 27 28  2  0
 27 61  1  0
 28 29  1  0
 28 62  1  0
 29 30  2  0
 29 63  1  0
 30 31  1  0
 31 32  1  0
 32 33  2  0
 32 34  1  0
 34 64  1  0
 35 36  2  0
 35 65  1  0
 36 66  1  0
M  END

