
     RDKit          3D

 74 75  0  0  0  0  0  0  0  0999 V2000
   10.3562    3.8960    0.7902 C   0  0  0  0  0  0  0  0  0  0  0  0
    9.6254    2.7640    1.5146 C   0  0  0  0  0  0  0  0  0  0  0  0
    8.0827    2.8058    1.4406 C   0  0  1  0  0  0  0  0  0  0  0  0
    7.7169    1.8896    1.9281 H   0  0  0  0  0  0  0  0  0  0  0  0
    7.4649    4.0179    2.1429 C   0  0  0  0  0  0  0  0  0  0  0  0
    7.5843    2.7283    0.0672 N   0  0  0  0  0  0  0  0  0  0  0  0
    7.3642    1.5416   -0.5649 C   0  0  0  0  0  0  0  0  0  0  0  0
    7.4595    0.4601   -0.0108 O   0  0  0  0  0  0  0  0  0  0  0  0
    6.8199    1.6331   -2.0128 C   0  0  2  0  0  0  0  0  0  0  0  0
    5.7329    1.7605   -1.8732 H   0  0  0  0  0  0  0  0  0  0  0  0
    7.0490    0.3286   -2.7783 C   0  0  0  0  0  0  0  0  0  0  0  0
    7.2577    2.8292   -2.7597 N   0  0  0  0  0  0  0  0  0  0  0  0
    6.2179    3.6211   -3.4160 C   0  0  0  0  0  0  0  0  0  0  0  0
    5.5665    4.6766   -2.4972 C   0  0  0  0  0  0  0  0  0  0  0  0
    4.4382    5.4196   -3.1774 C   0  0  0  0  0  0  0  0  0  0  0  0
    3.1194    4.9416   -3.1111 C   0  0  0  0  0  0  0  0  0  0  0  0
    2.0820    5.6014   -3.7756 C   0  0  0  0  0  0  0  0  0  0  0  0
    2.3471    6.7540   -4.5210 C   0  0  0  0  0  0  0  0  0  0  0  0
    3.6550    7.2420   -4.5950 C   0  0  0  0  0  0  0  0  0  0  0  0
    4.6894    6.5789   -3.9291 C   0  0  0  0  0  0  0  0  0  0  0  0
    8.6084    3.0066   -2.9640 C   0  0  0  0  0  0  0  0  0  0  0  0
    9.4268    2.2544   -2.4544 O   0  0  0  0  0  0  0  0  0  0  0  0
    9.0630    4.1903   -3.8239 C   0  0  0  0  0  0  0  0  0  0  0  0
   10.5773    4.3829   -3.7547 C   0  0  0  0  0  0  0  0  0  0  0  0
   11.0615    5.5504   -4.6171 C   0  0  0  0  0  0  0  0  0  0  0  0
   12.5120    5.7837   -4.5580 N   0  0  0  0  0  0  0  0  0  0  0  0
   13.0876    6.4448   -3.4222 C   0  0  0  0  0  0  0  0  0  0  0  0
   13.4460    5.6825   -2.3008 C   0  0  0  0  0  0  0  0  0  0  0  0
   13.9623    6.3072   -1.1642 C   0  0  0  0  0  0  0  0  0  0  0  0
   14.3934    5.3427    0.2318 Cl  0  0  0  0  0  0  0  0  0  0  0  0
   14.1309    7.6914   -1.1376 C   0  0  0  0  0  0  0  0  0  0  0  0
   13.7742    8.4402   -2.2615 C   0  0  0  0  0  0  0  0  0  0  0  0
   13.2487    7.8495   -3.4198 C   0  0  0  0  0  0  0  0  0  0  0  0
   12.8947    8.6827   -4.6236 C   0  0  0  0  0  0  0  0  0  0  0  0
   13.5010    5.3139   -5.8412 S   0  0  1  0  0  0  0  0  0  0  0  0
   14.1880    3.7151   -5.3752 C   0  0  0  0  0  0  0  0  0  0  0  0
   12.6272    5.0897   -6.9951 O   0  0  0  0  0  0  0  0  0  0  0  0
   14.6281    6.2461   -5.9039 O   0  0  0  0  0  0  0  0  0  0  0  0
   11.4464    3.8110    0.9196 H   0  0  0  0  0  0  0  0  0  0  0  0
   10.0661    4.8919    1.1646 H   0  0  0  0  0  0  0  0  0  0  0  0
   10.1597    3.8587   -0.2929 H   0  0  0  0  0  0  0  0  0  0  0  0
    9.9086    2.7562    2.5823 H   0  0  0  0  0  0  0  0  0  0  0  0
    9.9511    1.7958    1.1012 H   0  0  0  0  0  0  0  0  0  0  0  0
    7.8100    4.0789    3.1868 H   0  0  0  0  0  0  0  0  0  0  0  0
    6.3661    3.9478    2.1481 H   0  0  0  0  0  0  0  0  0  0  0  0
    7.7401    4.9654    1.6494 H   0  0  0  0  0  0  0  0  0  0  0  0
    7.6045    3.5676   -0.4988 H   0  0  0  0  0  0  0  0  0  0  0  0
    6.5253    0.3556   -3.7469 H   0  0  0  0  0  0  0  0  0  0  0  0
    6.6668   -0.5133   -2.1866 H   0  0  0  0  0  0  0  0  0  0  0  0
    8.1214    0.1677   -2.9493 H   0  0  0  0  0  0  0  0  0  0  0  0
    5.4392    2.9347   -3.7876 H   0  0  0  0  0  0  0  0  0  0  0  0
    6.6263    4.1146   -4.3071 H   0  0  0  0  0  0  0  0  0  0  0  0
    6.3431    5.3889   -2.1706 H   0  0  0  0  0  0  0  0  0  0  0  0
    5.1944    4.1765   -1.5879 H   0  0  0  0  0  0  0  0  0  0  0  0
    2.9002    4.0445   -2.5240 H   0  0  0  0  0  0  0  0  0  0  0  0
    1.0614    5.2159   -3.7069 H   0  0  0  0  0  0  0  0  0  0  0  0
    1.5364    7.2729   -5.0386 H   0  0  0  0  0  0  0  0  0  0  0  0
    3.8709    8.1460   -5.1704 H   0  0  0  0  0  0  0  0  0  0  0  0
    5.7084    6.9739   -3.9868 H   0  0  0  0  0  0  0  0  0  0  0  0
    8.5428    5.1101   -3.5055 H   0  0  0  0  0  0  0  0  0  0  0  0
    8.7473    4.0147   -4.8685 H   0  0  0  0  0  0  0  0  0  0  0  0
   11.0718    3.4501   -4.0667 H   0  0  0  0  0  0  0  0  0  0  0  0
   10.8697    4.5429   -2.7055 H   0  0  0  0  0  0  0  0  0  0  0  0
   10.5611    6.4848   -4.3061 H   0  0  0  0  0  0  0  0  0  0  0  0
   10.8031    5.3894   -5.6736 H   0  0  0  0  0  0  0  0  0  0  0  0
   13.3149    4.6003   -2.3129 H   0  0  0  0  0  0  0  0  0  0  0  0
   14.5357    8.1758   -0.2475 H   0  0  0  0  0  0  0  0  0  0  0  0
   13.9113    9.5245   -2.2372 H   0  0  0  0  0  0  0  0  0  0  0  0
   12.9972    9.7552   -4.4047 H   0  0  0  0  0  0  0  0  0  0  0  0
   11.8609    8.4992   -4.9580 H   0  0  0  0  0  0  0  0  0  0  0  0
   13.5542    8.4293   -5.4676 H   0  0  0  0  0  0  0  0  0  0  0  0
   13.3684    2.9980   -5.2401 H   0  0  0  0  0  0  0  0  0  0  0  0
   14.7763    3.8350   -4.4568 H   0  0  0  0  0  0  0  0  0  0  0  0
   14.8372    3.4084   -6.2069 H   0  0  0  0  0  0  0  0  0  0  0  0
  1  2  1  0
  1 39  1  0
  1 40  1  0
  1 41  1  0
  2  3  1  0
  2 42  1  0
  2 43  1  0
  3  4  1  1
  3  5  1  0
  3  6  1  0
  5 44  1  0
  5 45  1  0
  5 46  1  0
  6  7  1  0
  6 47  1  0
  7  8  2  0
  7  9  1  0
  9 10  1  1
  9 11  1  0
  9 12  1  0
 11 48  1  0
 11 49  1  0
 11 50  1  0
 12 13  1  0
 12 21  1  0
 13 14  1  0
 13 51  1  0
 13 52  1  0
 14 15  1  0
 14 53  1  0
 14 54  1  0
 15 16  2  0
 15 20  1  0
 16 17  1  0
 16 55  1  0
 17 18  2  0
 17 56  1  0
 18 19  1  0
 18 57  1  0
 19 20  2  0
 19 58  1  0
 20 59  1  0
 21 22  2  0
 21 23  1  0
 23 24  1  0
 23 60  1  0
 23 61  1  0
 24 25  1  0
 24 62  1  0
 24 63  1  0
 25 26  1  0
 25 64  1  0
 25 65  1  0
 26 27  1  0
 35 26  1  1
 27 28  2  0
 27 33  1  0
 28 29  1  0
 28 66  1  0
 29 30  1  0
 29 31  2  0
 31 32  1  0
 31 67  1  0
 32 33  2  0
 32 68  1  0
 33 34  1  0
 34 69  1  0
 34 70  1  0
 34 71  1  0
 35 36  1  0
 35 37  2  0
 35 38  2  0
 36 72  1  0
 36 73  1  0
 36 74  1  0
M  END

