
     RDKit          3D

 37 40  0  0  0  0  0  0  0  0999 V2000
    1.8995    0.9850   -1.6367 C   0  0  0  0  0  0  0  0  0  0  0  0
    3.1903    0.8740   -1.0391 C   0  0  0  0  0  0  0  0  0  0  0  0
    3.7069   -0.4757   -1.1383 N   0  0  0  0  0  0  0  0  0  0  0  0
    2.8512   -1.2427   -0.2699 B   0  0  0  0  0  0  0  0  0  0  0  0
    3.2375   -2.7181   -0.1279 C   0  0  0  0  0  0  0  0  0  0  0  0
    4.2698   -3.1869   -0.9034 C   0  0  0  0  0  0  0  0  0  0  0  0
    5.0321   -2.3597   -1.8017 C   0  0  0  0  0  0  0  0  0  0  0  0
    6.0819   -2.8786   -2.5979 C   0  0  0  0  0  0  0  0  0  0  0  0
    6.8089   -2.0642   -3.4510 C   0  0  0  0  0  0  0  0  0  0  0  0
    6.5095   -0.6872   -3.5276 C   0  0  0  0  0  0  0  0  0  0  0  0
    5.4887   -0.1415   -2.7657 C   0  0  0  0  0  0  0  0  0  0  0  0
    4.7326   -0.9666   -1.9045 C   0  0  0  0  0  0  0  0  0  0  0  0
    1.5397   -0.4094    0.2332 C   0  0  0  0  0  0  0  0  0  0  0  0
    0.9019   -0.6743    1.4072 N   0  0  0  0  0  0  0  0  0  0  0  0
    1.3035   -1.7483    2.3144 C   0  0  0  0  0  0  0  0  0  0  0  0
    1.2298   -1.2984    3.7732 C   0  0  0  0  0  0  0  0  0  0  0  0
   -0.0384   -0.7729    4.0957 O   0  0  0  0  0  0  0  0  0  0  0  0
   -0.3290    0.3482    3.2918 C   0  0  0  0  0  0  0  0  0  0  0  0
   -0.3377   -0.0044    1.8037 C   0  0  0  0  0  0  0  0  0  0  0  0
    0.9632    0.5080   -0.7284 C   0  0  0  0  0  0  0  0  0  0  0  0
    1.7208    1.0534   -2.7177 H   0  0  0  0  0  0  0  0  0  0  0  0
    3.2576    1.2263   -0.0013 H   0  0  0  0  0  0  0  0  0  0  0  0
    2.7169   -3.4505    0.4969 H   0  0  0  0  0  0  0  0  0  0  0  0
    4.5485   -4.2474   -0.8710 H   0  0  0  0  0  0  0  0  0  0  0  0
    6.3119   -3.9456   -2.5261 H   0  0  0  0  0  0  0  0  0  0  0  0
    7.6161   -2.4825   -4.0568 H   0  0  0  0  0  0  0  0  0  0  0  0
    7.0929   -0.0416   -4.1896 H   0  0  0  0  0  0  0  0  0  0  0  0
    5.2515    0.9246   -2.8025 H   0  0  0  0  0  0  0  0  0  0  0  0
    2.3300   -2.0518    2.0818 H   0  0  0  0  0  0  0  0  0  0  0  0
    0.6451   -2.6272    2.1704 H   0  0  0  0  0  0  0  0  0  0  0  0
    2.0190   -0.5421    3.9663 H   0  0  0  0  0  0  0  0  0  0  0  0
    1.4083   -2.1581    4.4367 H   0  0  0  0  0  0  0  0  0  0  0  0
    0.4126    1.1535    3.4742 H   0  0  0  0  0  0  0  0  0  0  0  0
   -1.3203    0.7205    3.5916 H   0  0  0  0  0  0  0  0  0  0  0  0
   -0.4546    0.9139    1.2141 H   0  0  0  0  0  0  0  0  0  0  0  0
   -1.2030   -0.6599    1.5868 H   0  0  0  0  0  0  0  0  0  0  0  0
   -0.1253    0.6103   -0.8296 H   0  0  0  0  0  0  0  0  0  0  0  0
  1  2  2  0
  1 20  1  0
  1 21  1  0
  2  3  1  0
  2 22  1  0
  3  4  1  0
  3 12  1  0
  4  5  1  0
  4 13  1  0
  5  6  2  0
  5 23  1  0
  6  7  1  0
  6 24  1  0
  7  8  2  0
  7 12  1  0
  8  9  1  0
  8 25  1  0
  9 10  2  0
  9 26  1  0
 10 11  1  0
 10 27  1  0
 11 12  2  0
 11 28  1  0
 13 14  1  0
 13 20  2  0
 14 15  1  0
 14 19  1  0
 15 16  1  0
 15 29  1  0
 15 30  1  0
 16 17  1  0
 16 31  1  0
 16 32  1  0
 17 18  1  0
 18 19  1  0
 18 33  1  0
 18 34  1  0
 19 35  1  0
 19 36  1  0
 20 37  1  0
M  END

