
     RDKit          3D

 50 51  0  0  0  0  0  0  0  0999 V2000
    1.1690   -1.9678   -0.9126 C   0  0  0  0  0  0  0  0  0  0  0  0
    1.9812   -0.7625   -0.4361 C   0  0  0  0  0  0  0  0  0  0  0  0
    3.3427   -0.6918   -0.9759 N   0  0  0  0  0  0  0  0  0  0  0  0
    3.5587   -0.2008   -2.3390 C   0  0  0  0  0  0  0  0  0  0  0  0
    3.5968    1.3234   -2.4553 C   0  0  0  0  0  0  0  0  0  0  0  0
    4.6741   -0.9868   -0.0118 S   0  0  1  0  0  0  0  0  0  0  0  0
    5.7416   -0.0700   -0.4297 O   0  0  0  0  0  0  0  0  0  0  0  0
    4.2035   -1.0363    1.3747 O   0  0  0  0  0  0  0  0  0  0  0  0
    5.2385   -2.6436   -0.4481 C   0  0  0  0  0  0  0  0  0  0  0  0
    6.3739   -2.7976   -1.2421 C   0  0  0  0  0  0  0  0  0  0  0  0
    6.7786   -4.0937   -1.5711 C   0  0  0  0  0  0  0  0  0  0  0  0
    6.0766   -5.2230   -1.1359 C   0  0  0  0  0  0  0  0  0  0  0  0
    6.5379   -6.6074   -1.5197 C   0  0  0  0  0  0  0  0  0  0  0  0
    4.9269   -5.0359   -0.3226 C   0  0  0  0  0  0  0  0  0  0  0  0
    4.2379   -6.1770    0.1248 N   0  0  0  0  0  0  0  0  0  0  0  0
    2.9543   -6.2563    0.6361 C   0  0  0  0  0  0  0  0  0  0  0  0
    2.2120   -5.2918    0.7351 O   0  0  0  0  0  0  0  0  0  0  0  0
    2.5163   -7.6310    1.0476 C   0  0  0  0  0  0  0  0  0  0  0  0
    3.3939   -8.6955    1.3333 C   0  0  0  0  0  0  0  0  0  0  0  0
    2.9096   -9.9374    1.7232 C   0  0  0  0  0  0  0  0  0  0  0  0
    1.5235  -10.1527    1.8422 C   0  0  0  0  0  0  0  0  0  0  0  0
    1.1454  -11.3928    2.2223 O   0  0  0  0  0  0  0  0  0  0  0  0
   -0.2271  -11.6853    2.3843 C   0  0  0  0  0  0  0  0  0  0  0  0
    0.6369   -9.0950    1.5750 C   0  0  0  0  0  0  0  0  0  0  0  0
    1.1394   -7.8522    1.1909 C   0  0  0  0  0  0  0  0  0  0  0  0
    4.5206   -3.7403    0.0296 C   0  0  0  0  0  0  0  0  0  0  0  0
    0.1392   -1.8977   -0.5256 H   0  0  0  0  0  0  0  0  0  0  0  0
    1.5955   -2.9177   -0.5568 H   0  0  0  0  0  0  0  0  0  0  0  0
    1.1049   -2.0090   -2.0125 H   0  0  0  0  0  0  0  0  0  0  0  0
    2.0600   -0.7617    0.6590 H   0  0  0  0  0  0  0  0  0  0  0  0
    1.4638    0.1747   -0.7093 H   0  0  0  0  0  0  0  0  0  0  0  0
    2.7563   -0.6191   -2.9701 H   0  0  0  0  0  0  0  0  0  0  0  0
    4.4979   -0.6272   -2.7237 H   0  0  0  0  0  0  0  0  0  0  0  0
    2.6606    1.7795   -2.0951 H   0  0  0  0  0  0  0  0  0  0  0  0
    3.7336    1.6255   -3.5067 H   0  0  0  0  0  0  0  0  0  0  0  0
    4.4310    1.7242   -1.8622 H   0  0  0  0  0  0  0  0  0  0  0  0
    6.9306   -1.9213   -1.5752 H   0  0  0  0  0  0  0  0  0  0  0  0
    7.6699   -4.2351   -2.1884 H   0  0  0  0  0  0  0  0  0  0  0  0
    7.4226   -6.5613   -2.1695 H   0  0  0  0  0  0  0  0  0  0  0  0
    5.7564   -7.1653   -2.0651 H   0  0  0  0  0  0  0  0  0  0  0  0
    6.8177   -7.2115   -0.6373 H   0  0  0  0  0  0  0  0  0  0  0  0
    4.6917   -7.0613   -0.0593 H   0  0  0  0  0  0  0  0  0  0  0  0
    4.4775   -8.5554    1.2902 H   0  0  0  0  0  0  0  0  0  0  0  0
    3.5842  -10.7630    1.9572 H   0  0  0  0  0  0  0  0  0  0  0  0
   -0.2862  -12.7360    2.6973 H   0  0  0  0  0  0  0  0  0  0  0  0
   -0.7865  -11.5605    1.4403 H   0  0  0  0  0  0  0  0  0  0  0  0
   -0.6912  -11.0528    3.1616 H   0  0  0  0  0  0  0  0  0  0  0  0
   -0.4409   -9.2291    1.6667 H   0  0  0  0  0  0  0  0  0  0  0  0
    0.4618   -7.0194    0.9937 H   0  0  0  0  0  0  0  0  0  0  0  0
    3.6563   -3.6017    0.6733 H   0  0  0  0  0  0  0  0  0  0  0  0
  1  2  1  0
  1 27  1  0
  1 28  1  0
  1 29  1  0
  2  3  1  0
  2 30  1  0
  2 31  1  0
  3  4  1  0
  6  3  1  6
  4  5  1  0
  4 32  1  0
  4 33  1  0
  5 34  1  0
  5 35  1  0
  5 36  1  0
  6  7  2  0
  6  8  2  0
  6  9  1  0
  9 10  2  0
  9 26  1  0
 10 11  1  0
 10 37  1  0
 11 12  2  0
 11 38  1  0
 12 13  1  0
 12 14  1  0
 13 39  1  0
 13 40  1  0
 13 41  1  0
 14 15  1  0
 14 26  2  0
 15 16  1  0
 15 42  1  0
 16 17  2  0
 16 18  1  0
 18 19  2  0
 18 25  1  0
 19 20  1  0
 19 43  1  0
 20 21  2  0
 20 44  1  0
 21 22  1  0
 21 24  1  0
 22 23  1  0
 23 45  1  0
 23 46  1  0
 23 47  1  0
 24 25  2  0
 24 48  1  0
 25 49  1  0
 26 50  1  0
M  END

