
     RDKit          3D

 53 55  0  0  0  0  0  0  0  0999 V2000
    3.0382    1.7710    0.2333 O   0  0  0  0  0  0  0  0  0  0  0  0
    2.7603    0.3829    0.1912 C   0  0  0  0  0  0  0  0  0  0  0  0
    3.1019   -0.1431   -1.1949 C   0  0  0  0  0  0  0  0  0  0  0  0
    4.5888    0.0251   -1.5607 C   0  0  0  0  0  0  0  0  0  0  0  0
    4.9108   -0.4386   -2.9627 C   0  0  0  0  0  0  0  0  0  0  0  0
    4.8028    0.4303   -4.0602 C   0  0  0  0  0  0  0  0  0  0  0  0
    5.0355   -0.0154   -5.3640 C   0  0  0  0  0  0  0  0  0  0  0  0
    5.3811   -1.3523   -5.6221 C   0  0  0  0  0  0  0  0  0  0  0  0
    5.5726   -1.8620   -7.0190 C   0  0  0  0  0  0  0  0  0  0  0  0
    6.6682   -1.4279   -7.8016 C   0  0  0  0  0  0  0  0  0  0  0  0
    7.6780   -0.4204   -7.2657 C   0  0  0  0  0  0  0  0  0  0  0  0
    8.9097   -0.4255   -7.9550 O   0  0  0  0  0  0  0  0  0  0  0  0
    6.8465   -1.9421   -9.0930 C   0  0  0  0  0  0  0  0  0  0  0  0
    5.9677   -2.8935   -9.6109 C   0  0  0  0  0  0  0  0  0  0  0  0
    4.8912   -3.3334   -8.8421 C   0  0  0  0  0  0  0  0  0  0  0  0
    4.6733   -2.8217   -7.5526 C   0  0  0  0  0  0  0  0  0  0  0  0
    3.4986   -3.2995   -6.7626 C   0  0  0  0  0  0  0  0  0  0  0  0
    3.3661   -4.6528   -6.4089 C   0  0  0  0  0  0  0  0  0  0  0  0
    2.3173   -5.0834   -5.5926 C   0  0  0  0  0  0  0  0  0  0  0  0
    1.3516   -4.1827   -5.1167 C   0  0  0  0  0  0  0  0  0  0  0  0
    0.3182   -4.5968   -4.0962 C   0  0  0  0  0  0  0  0  0  0  0  0
    0.8107   -4.3524   -2.6546 C   0  0  0  0  0  0  0  0  0  0  0  0
    1.1104   -2.9999   -2.3912 O   0  0  0  0  0  0  0  0  0  0  0  0
    1.4477   -2.8417   -5.5290 C   0  0  0  0  0  0  0  0  0  0  0  0
    2.5028   -2.4075   -6.3317 C   0  0  0  0  0  0  0  0  0  0  0  0
    5.5128   -2.2172   -4.5221 C   0  0  0  0  0  0  0  0  0  0  0  0
    5.2825   -1.7682   -3.2209 C   0  0  0  0  0  0  0  0  0  0  0  0
    2.8660    2.0926    1.1264 H   0  0  0  0  0  0  0  0  0  0  0  0
    1.6912    0.1777    0.4018 H   0  0  0  0  0  0  0  0  0  0  0  0
    3.3520   -0.1688    0.9523 H   0  0  0  0  0  0  0  0  0  0  0  0
    2.4822    0.3945   -1.9335 H   0  0  0  0  0  0  0  0  0  0  0  0
    2.8036   -1.2037   -1.2507 H   0  0  0  0  0  0  0  0  0  0  0  0
    5.2028   -0.5371   -0.8354 H   0  0  0  0  0  0  0  0  0  0  0  0
    4.8520    1.0874   -1.4423 H   0  0  0  0  0  0  0  0  0  0  0  0
    4.5245    1.4748   -3.8913 H   0  0  0  0  0  0  0  0  0  0  0  0
    4.9242    0.6827   -6.1983 H   0  0  0  0  0  0  0  0  0  0  0  0
    7.8158   -0.5757   -6.1794 H   0  0  0  0  0  0  0  0  0  0  0  0
    7.2810    0.6030   -7.3770 H   0  0  0  0  0  0  0  0  0  0  0  0
    9.3122   -1.2968   -7.8368 H   0  0  0  0  0  0  0  0  0  0  0  0
    7.6961   -1.5886   -9.6802 H   0  0  0  0  0  0  0  0  0  0  0  0
    6.1189   -3.2885  -10.6190 H   0  0  0  0  0  0  0  0  0  0  0  0
    4.1905   -4.0684   -9.2461 H   0  0  0  0  0  0  0  0  0  0  0  0
    4.1183   -5.3707   -6.7469 H   0  0  0  0  0  0  0  0  0  0  0  0
    2.2594   -6.1374   -5.3044 H   0  0  0  0  0  0  0  0  0  0  0  0
    0.0736   -5.6669   -4.2039 H   0  0  0  0  0  0  0  0  0  0  0  0
   -0.6145   -4.0284   -4.2461 H   0  0  0  0  0  0  0  0  0  0  0  0
    1.6825   -5.0087   -2.4543 H   0  0  0  0  0  0  0  0  0  0  0  0
    0.0182   -4.6404   -1.9446 H   0  0  0  0  0  0  0  0  0  0  0  0
    1.8049   -2.7206   -3.0060 H   0  0  0  0  0  0  0  0  0  0  0  0
    0.6891   -2.1245   -5.2034 H   0  0  0  0  0  0  0  0  0  0  0  0
    2.5636   -1.3559   -6.6185 H   0  0  0  0  0  0  0  0  0  0  0  0
    5.7914   -3.2599   -4.6919 H   0  0  0  0  0  0  0  0  0  0  0  0
    5.3934   -2.4663   -2.3854 H   0  0  0  0  0  0  0  0  0  0  0  0
  1  2  1  0
  1 28  1  0
  2  3  1  0
  2 29  1  0
  2 30  1  0
  3  4  1  0
  3 31  1  0
  3 32  1  0
  4  5  1  0
  4 33  1  0
  4 34  1  0
  5  6  2  0
  5 27  1  0
  6  7  1  0
  6 35  1  0
  7  8  2  0
  7 36  1  0
  8  9  1  0
  8 26  1  0
  9 10  2  0
  9 16  1  0
 10 11  1  0
 10 13  1  0
 11 12  1  0
 11 37  1  0
 11 38  1  0
 12 39  1  0
 13 14  2  0
 13 40  1  0
 14 15  1  0
 14 41  1  0
 15 16  2  0
 15 42  1  0
 16 17  1  0
 17 18  2  0
 17 25  1  0
 18 19  1  0
 18 43  1  0
 19 20  2  0
 19 44  1  0
 20 21  1  0
 20 24  1  0
 21 22  1  0
 21 45  1  0
 21 46  1  0
 22 23  1  0
 22 47  1  0
 22 48  1  0
 23 49  1  0
 24 25  2  0
 24 50  1  0
 25 51  1  0
 26 27  2  0
 26 52  1  0
 27 53  1  0
M  END

