
     RDKit          3D

 47 50  0  0  0  0  0  0  0  0999 V2000
    2.8975   -1.3503    0.1236 C   0  0  0  0  0  0  0  0  0  0  0  0
    2.4241    0.0465   -0.2718 C   0  0  2  0  0  0  0  0  0  0  0  0
    1.3267    0.0926   -0.3357 H   0  0  0  0  0  0  0  0  0  0  0  0
    2.9667    0.3135   -1.5654 O   0  0  0  0  0  0  0  0  0  0  0  0
    2.4519    1.3665   -2.2370 C   0  0  0  0  0  0  0  0  0  0  0  0
    1.5482    2.0427   -1.8137 O   0  0  0  0  0  0  0  0  0  0  0  0
    3.1291    1.5467   -3.5861 C   0  0  0  0  0  0  0  0  0  0  0  0
    2.5991    0.6000   -4.6308 C   0  0  0  0  0  0  0  0  0  0  0  0
    1.6711    0.9041   -5.6020 C   0  0  0  0  0  0  0  0  0  0  0  0
    1.4153   -0.2083   -6.3766 N   0  0  0  0  0  0  0  0  0  0  0  0
    0.7825   -0.2375   -7.1640 H   0  0  0  0  0  0  0  0  0  0  0  0
    2.1742   -1.2650   -5.9220 C   0  0  0  0  0  0  0  0  0  0  0  0
    2.2671   -2.5857   -6.3838 C   0  0  0  0  0  0  0  0  0  0  0  0
    3.1381   -3.4425   -5.7167 C   0  0  0  0  0  0  0  0  0  0  0  0
    3.8992   -2.9973   -4.6130 C   0  0  0  0  0  0  0  0  0  0  0  0
    3.8040   -1.6871   -4.1543 C   0  0  0  0  0  0  0  0  0  0  0  0
    2.9340   -0.7942   -4.8113 C   0  0  0  0  0  0  0  0  0  0  0  0
    2.9200    1.1143    0.7269 C   0  0  0  0  0  0  0  0  0  0  0  0
    3.8910    1.7882    0.4513 O   0  0  0  0  0  0  0  0  0  0  0  0
    2.2193    1.2540    2.0441 C   0  0  0  0  0  0  0  0  0  0  0  0
    1.0124    0.5994    2.3551 C   0  0  0  0  0  0  0  0  0  0  0  0
    0.3977    0.7812    3.5981 C   0  0  0  0  0  0  0  0  0  0  0  0
    0.9911    1.6255    4.5375 C   0  0  0  0  0  0  0  0  0  0  0  0
    2.1968    2.2871    4.2358 C   0  0  0  0  0  0  0  0  0  0  0  0
    2.8080    2.1054    3.0008 C   0  0  0  0  0  0  0  0  0  0  0  0
    2.6417    3.1287    5.4137 C   0  0  0  0  0  0  0  0  0  0  0  0
    1.3568    3.2444    6.2687 C   0  0  0  0  0  0  0  0  0  0  0  0
    0.5378    1.9734    5.9378 C   0  0  0  0  0  0  0  0  0  0  0  0
    3.9966   -1.3749    0.1752 H   0  0  0  0  0  0  0  0  0  0  0  0
    2.5668   -2.0830   -0.6273 H   0  0  0  0  0  0  0  0  0  0  0  0
    2.4955   -1.6406    1.1047 H   0  0  0  0  0  0  0  0  0  0  0  0
    4.2131    1.4050   -3.4507 H   0  0  0  0  0  0  0  0  0  0  0  0
    2.9486    2.5864   -3.8904 H   0  0  0  0  0  0  0  0  0  0  0  0
    1.1706    1.8503   -5.8021 H   0  0  0  0  0  0  0  0  0  0  0  0
    1.6785   -2.9313   -7.2377 H   0  0  0  0  0  0  0  0  0  0  0  0
    3.2339   -4.4782   -6.0527 H   0  0  0  0  0  0  0  0  0  0  0  0
    4.5720   -3.6980   -4.1120 H   0  0  0  0  0  0  0  0  0  0  0  0
    4.3833   -1.3536   -3.2910 H   0  0  0  0  0  0  0  0  0  0  0  0
    0.5284   -0.0483    1.6223 H   0  0  0  0  0  0  0  0  0  0  0  0
   -0.5440    0.2719    3.8205 H   0  0  0  0  0  0  0  0  0  0  0  0
    3.7385    2.6119    2.7350 H   0  0  0  0  0  0  0  0  0  0  0  0
    3.0538    4.1058    5.1167 H   0  0  0  0  0  0  0  0  0  0  0  0
    3.4416    2.6044    5.9695 H   0  0  0  0  0  0  0  0  0  0  0  0
    0.7882    4.1339    5.9503 H   0  0  0  0  0  0  0  0  0  0  0  0
    1.5622    3.3561    7.3438 H   0  0  0  0  0  0  0  0  0  0  0  0
   -0.5507    2.1236    6.0174 H   0  0  0  0  0  0  0  0  0  0  0  0
    0.7924    1.1466    6.6278 H   0  0  0  0  0  0  0  0  0  0  0  0
  1  2  1  0
  1 29  1  0
  1 30  1  0
  1 31  1  0
  2  3  1  6
  2  4  1  0
  2 18  1  0
  4  5  1  0
  5  6  2  0
  5  7  1  0
  7  8  1  0
  7 32  1  0
  7 33  1  0
  8  9  2  0
  8 17  1  0
  9 10  1  0
  9 34  1  0
 10 11  1  0
 10 12  1  0
 12 13  1  0
 12 17  2  0
 13 14  2  0
 13 35  1  0
 14 15  1  0
 14 36  1  0
 15 16  2  0
 15 37  1  0
 16 17  1  0
 16 38  1  0
 18 19  2  0
 18 20  1  0
 20 21  2  0
 20 25  1  0
 21 22  1  0
 21 39  1  0
 22 23  2  0
 22 40  1  0
 23 24  1  0
 23 28  1  0
 24 25  2  0
 24 26  1  0
 25 41  1  0
 26 27  1  0
 26 42  1  0
 26 43  1  0
 27 28  1  0
 27 44  1  0
 27 45  1  0
 28 46  1  0
 28 47  1  0
M  END

