
     RDKit          3D

 40 42  0  0  0  0  0  0  0  0999 V2000
    1.2241    0.0290   -0.4649 C   0  0  0  0  0  0  0  0  0  0  0  0
    2.7288   -0.0915   -0.2750 C   0  0  2  0  0  0  0  0  0  0  0  0
    3.1772   -1.1797    0.7180 C   0  0  1  0  0  0  0  0  0  0  0  0
    2.5866   -2.5561    0.3110 C   0  0  0  0  0  0  0  0  0  0  0  0
    1.3986   -2.7498    0.5211 O   0  0  0  0  0  0  0  0  0  0  0  0
    3.4061   -3.4130   -0.3330 N   0  0  0  0  0  0  0  0  0  0  0  0
    2.9301   -4.7282   -0.7635 C   0  0  0  0  0  0  0  0  0  0  0  0
    2.4040   -4.7414   -2.1875 C   0  0  0  0  0  0  0  0  0  0  0  0
    3.2410   -5.0842   -3.2595 C   0  0  0  0  0  0  0  0  0  0  0  0
    2.7612   -5.0740   -4.5726 C   0  0  0  0  0  0  0  0  0  0  0  0
    1.4337   -4.7192   -4.8293 C   0  0  0  0  0  0  0  0  0  0  0  0
    0.5903   -4.3770   -3.7672 C   0  0  0  0  0  0  0  0  0  0  0  0
    1.0713   -4.3881   -2.4551 C   0  0  0  0  0  0  0  0  0  0  0  0
    4.6625   -1.1476    0.8796 N   0  0  0  0  0  0  0  0  0  0  0  0
    5.2793   -2.2349    1.1446 O   0  0  0  0  0  0  0  0  0  0  0  0
    5.2650    0.0495    0.9168 C   0  0  0  0  0  0  0  0  0  0  0  0
    6.6454    0.1355    1.2941 C   0  0  0  0  0  0  0  0  0  0  0  0
    7.2428    1.3504    1.4707 C   0  0  0  0  0  0  0  0  0  0  0  0
    8.9073    1.4303    1.9495 Cl  0  0  0  0  0  0  0  0  0  0  0  0
    6.4919    2.5806    1.2736 C   0  0  0  0  0  0  0  0  0  0  0  0
    7.2683    4.1127    1.5164 Cl  0  0  0  0  0  0  0  0  0  0  0  0
    5.1844    2.5314    0.8852 C   0  0  0  0  0  0  0  0  0  0  0  0
    4.5366    1.2736    0.6638 C   0  0  0  0  0  0  0  0  0  0  0  0
    3.2914    1.2464    0.1513 N   0  0  0  0  0  0  0  0  0  0  0  0
    2.6326    2.2806   -0.1054 O   0  0  0  0  0  0  0  0  0  0  0  0
    0.8302   -0.8818   -0.9283 H   0  0  0  0  0  0  0  0  0  0  0  0
    1.0113    0.8952   -1.1014 H   0  0  0  0  0  0  0  0  0  0  0  0
    0.7146    0.1676    0.4998 H   0  0  0  0  0  0  0  0  0  0  0  0
    3.2149   -0.2984   -1.2484 H   0  0  0  0  0  0  0  0  0  0  0  0
    2.7529   -0.9660    1.7162 H   0  0  0  0  0  0  0  0  0  0  0  0
    4.4033   -3.2677   -0.1613 H   0  0  0  0  0  0  0  0  0  0  0  0
    2.1370   -5.0486   -0.0714 H   0  0  0  0  0  0  0  0  0  0  0  0
    3.7714   -5.4301   -0.6675 H   0  0  0  0  0  0  0  0  0  0  0  0
    4.2798   -5.3682   -3.0649 H   0  0  0  0  0  0  0  0  0  0  0  0
    3.4248   -5.3483   -5.3969 H   0  0  0  0  0  0  0  0  0  0  0  0
    1.0555   -4.7138   -5.8549 H   0  0  0  0  0  0  0  0  0  0  0  0
   -0.4503   -4.1038   -3.9615 H   0  0  0  0  0  0  0  0  0  0  0  0
    0.4168   -4.1167   -1.6231 H   0  0  0  0  0  0  0  0  0  0  0  0
    7.1805   -0.7968    1.4631 H   0  0  0  0  0  0  0  0  0  0  0  0
    4.6069    3.4362    0.7041 H   0  0  0  0  0  0  0  0  0  0  0  0
  1  2  1  0
  1 26  1  0
  1 27  1  0
  1 28  1  0
  2  3  1  0
  2 24  1  0
  2 29  1  6
  3  4  1  0
  3 14  1  0
  3 30  1  1
  4  5  2  0
  4  6  1  0
  6  7  1  0
  6 31  1  0
  7  8  1  0
  7 32  1  0
  7 33  1  0
  8  9  2  0
  8 13  1  0
  9 10  1  0
  9 34  1  0
 10 11  2  0
 10 35  1  0
 11 12  1  0
 11 36  1  0
 12 13  2  0
 12 37  1  0
 13 38  1  0
 14 15  1  0
 14 16  1  0
 16 17  1  0
 16 23  2  0
 17 18  2  0
 17 39  1  0
 18 19  1  0
 18 20  1  0
 20 21  1  0
 20 22  2  0
 22 23  1  0
 22 40  1  0
 23 24  1  0
 24 25  2  0
M  CHG  2  15  -1  24   1
M  END

