
     RDKit          3D

 40 42  0  0  0  0  0  0  0  0999 V2000
    1.4031   -0.3814    0.3110 N   0  0  0  0  0  0  0  0  0  0  0  0
    2.5455   -0.1905    0.3373 C   0  0  0  0  0  0  0  0  0  0  0  0
    4.0233   -0.0068    0.3300 C   0  0  1  0  0  0  0  0  0  0  0  0
    4.4812    0.2553    1.6995 N   0  0  0  0  0  0  0  0  0  0  0  0
    4.0893    1.3267    2.4634 C   0  0  0  0  0  0  0  0  0  0  0  0
    3.3971    2.2341    2.0401 O   0  0  0  0  0  0  0  0  0  0  0  0
    4.6365    1.3404    3.8906 C   0  0  2  0  0  0  0  0  0  0  0  0
    6.1172    1.9027    4.0474 C   0  0  0  0  0  0  0  0  0  0  0  0
    6.4614    0.5629    4.6776 C   0  0  0  0  0  0  0  0  0  0  0  0
    7.4796   -0.1784    5.2659 C   0  0  0  0  0  0  0  0  0  0  0  0
    7.1301   -1.4706    5.6982 C   0  0  0  0  0  0  0  0  0  0  0  0
    5.8276   -1.9750    5.5483 C   0  0  0  0  0  0  0  0  0  0  0  0
    4.8034   -1.2115    4.9599 C   0  0  0  0  0  0  0  0  0  0  0  0
    5.1651    0.0626    4.5318 C   0  0  0  0  0  0  0  0  0  0  0  0
    4.6304   -1.3639   -0.1225 C   0  0  0  0  0  0  0  0  0  0  0  0
    6.1399   -1.4043   -0.4101 C   0  0  0  0  0  0  0  0  0  0  0  0
    6.5540   -0.7009   -1.7130 C   0  0  0  0  0  0  0  0  0  0  0  0
    6.7557    0.8245   -1.6283 C   0  0  0  0  0  0  0  0  0  0  0  0
    5.8340    1.5840   -0.6586 C   0  0  0  0  0  0  0  0  0  0  0  0
    4.3548    1.1715   -0.6376 C   0  0  0  0  0  0  0  0  0  0  0  0
    4.9400   -0.5110    2.1809 H   0  0  0  0  0  0  0  0  0  0  0  0
    3.9046    1.8969    4.4944 H   0  0  0  0  0  0  0  0  0  0  0  0
    6.1961    2.7812    4.7067 H   0  0  0  0  0  0  0  0  0  0  0  0
    6.6225    2.1310    3.0954 H   0  0  0  0  0  0  0  0  0  0  0  0
    8.4970    0.1999    5.3954 H   0  0  0  0  0  0  0  0  0  0  0  0
    7.8897   -2.1027    6.1660 H   0  0  0  0  0  0  0  0  0  0  0  0
    5.6069   -2.9845    5.9055 H   0  0  0  0  0  0  0  0  0  0  0  0
    3.7907   -1.6111    4.8586 H   0  0  0  0  0  0  0  0  0  0  0  0
    4.0899   -1.6819   -1.0281 H   0  0  0  0  0  0  0  0  0  0  0  0
    4.3778   -2.1081    0.6528 H   0  0  0  0  0  0  0  0  0  0  0  0
    6.4138   -2.4698   -0.4848 H   0  0  0  0  0  0  0  0  0  0  0  0
    6.7158   -1.0115    0.4462 H   0  0  0  0  0  0  0  0  0  0  0  0
    5.7937   -0.9342   -2.4790 H   0  0  0  0  0  0  0  0  0  0  0  0
    7.4882   -1.1526   -2.0861 H   0  0  0  0  0  0  0  0  0  0  0  0
    6.6449    1.2422   -2.6439 H   0  0  0  0  0  0  0  0  0  0  0  0
    7.7983    1.0384   -1.3354 H   0  0  0  0  0  0  0  0  0  0  0  0
    5.8888    2.6572   -0.9026 H   0  0  0  0  0  0  0  0  0  0  0  0
    6.2278    1.5034    0.3673 H   0  0  0  0  0  0  0  0  0  0  0  0
    4.0028    0.8891   -1.6438 H   0  0  0  0  0  0  0  0  0  0  0  0
    3.7460    2.0233   -0.3103 H   0  0  0  0  0  0  0  0  0  0  0  0
  1  2  3  0
  3  2  1  1
  3  4  1  0
  3 15  1  0
  3 20  1  0
  4  5  1  0
  4 21  1  0
  5  6  2  0
  5  7  1  0
  7  8  1  0
  7 14  1  0
  7 22  1  1
  8  9  1  0
  8 23  1  0
  8 24  1  0
  9 10  2  0
  9 14  1  0
 10 11  1  0
 10 25  1  0
 11 12  2  0
 11 26  1  0
 12 13  1  0
 12 27  1  0
 13 14  2  0
 13 28  1  0
 15 16  1  0
 15 29  1  0
 15 30  1  0
 16 17  1  0
 16 31  1  0
 16 32  1  0
 17 18  1  0
 17 33  1  0
 17 34  1  0
 18 19  1  0
 18 35  1  0
 18 36  1  0
 19 20  1  0
 19 37  1  0
 19 38  1  0
 20 39  1  0
 20 40  1  0
M  END

