
     RDKit          3D

 56 59  0  0  0  0  0  0  0  0999 V2000
    5.4114    2.8890    0.0362 C   0  0  0  0  0  0  0  0  0  0  0  0
    4.3898    2.8920    1.1751 C   0  0  2  0  0  0  0  0  0  0  0  0
    3.4012    4.0454    1.0523 C   0  0  0  0  0  0  0  0  0  0  0  0
    5.0831    2.8131    2.5717 C   0  0  0  0  0  0  0  0  0  0  0  0
    4.9233    1.3585    2.9387 C   0  0  0  0  0  0  0  0  0  0  0  0
    5.4546    0.6159    3.9880 C   0  0  0  0  0  0  0  0  0  0  0  0
    5.0846   -0.7402    4.1095 C   0  0  0  0  0  0  0  0  0  0  0  0
    5.5658   -1.5862    5.1340 N   0  0  0  0  0  0  0  0  0  0  0  0
    6.4350   -1.2826    6.1655 C   0  0  0  0  0  0  0  0  0  0  0  0
    6.9370   -0.1819    6.3431 O   0  0  0  0  0  0  0  0  0  0  0  0
    6.6978   -2.3541    6.9976 N   0  0  0  0  0  0  0  0  0  0  0  0
    7.5726   -2.2324    8.1458 C   0  0  0  0  0  0  0  0  0  0  0  0
    6.8423   -2.0673    9.5066 C   0  0  1  0  0  0  0  0  0  0  0  0
    5.9535   -3.2099    9.8332 N   0  0  0  0  0  0  0  0  0  0  0  0
    6.5093   -4.5385    9.6313 C   0  0  0  0  0  0  0  0  0  0  0  0
    5.7003   -5.5816   10.4008 C   0  0  0  0  0  0  0  0  0  0  0  0
    4.3396   -5.5444   10.0336 O   0  0  0  0  0  0  0  0  0  0  0  0
    3.7897   -4.2629   10.2641 C   0  0  0  0  0  0  0  0  0  0  0  0
    4.5359   -3.1717    9.4983 C   0  0  0  0  0  0  0  0  0  0  0  0
    7.8731   -1.9123   10.6552 C   0  0  0  0  0  0  0  0  0  0  0  0
    7.1078   -1.4705   11.9041 C   0  0  0  0  0  0  0  0  0  0  0  0
    5.7795   -0.3228   11.3189 S   0  0  0  0  0  0  0  0  0  0  0  0
    6.0956   -0.7198    9.5479 C   0  0  0  0  0  0  0  0  0  0  0  0
    4.1926   -1.3004    3.1758 C   0  0  0  0  0  0  0  0  0  0  0  0
    3.6625   -0.5509    2.1201 C   0  0  0  0  0  0  0  0  0  0  0  0
    4.0411    0.7853    2.0168 C   0  0  0  0  0  0  0  0  0  0  0  0
    3.6178    1.6508    1.0603 O   0  0  0  0  0  0  0  0  0  0  0  0
    6.0051    3.8171    0.0425 H   0  0  0  0  0  0  0  0  0  0  0  0
    4.9013    2.8046   -0.9354 H   0  0  0  0  0  0  0  0  0  0  0  0
    6.1018    2.0372    0.1384 H   0  0  0  0  0  0  0  0  0  0  0  0
    3.9232    5.0121    1.1335 H   0  0  0  0  0  0  0  0  0  0  0  0
    2.6432    3.9900    1.8482 H   0  0  0  0  0  0  0  0  0  0  0  0
    2.8843    4.0107    0.0810 H   0  0  0  0  0  0  0  0  0  0  0  0
    4.5790    3.4644    3.3071 H   0  0  0  0  0  0  0  0  0  0  0  0
    6.1348    3.1364    2.5218 H   0  0  0  0  0  0  0  0  0  0  0  0
    6.1409    1.0494    4.7122 H   0  0  0  0  0  0  0  0  0  0  0  0
    5.2225   -2.5376    5.0858 H   0  0  0  0  0  0  0  0  0  0  0  0
    6.2428   -3.2441    6.8387 H   0  0  0  0  0  0  0  0  0  0  0  0
    8.2136   -1.3575    7.9705 H   0  0  0  0  0  0  0  0  0  0  0  0
    8.2320   -3.1140    8.1859 H   0  0  0  0  0  0  0  0  0  0  0  0
    7.5536   -4.5746    9.9780 H   0  0  0  0  0  0  0  0  0  0  0  0
    6.5141   -4.8445    8.5573 H   0  0  0  0  0  0  0  0  0  0  0  0
    5.8129   -5.3989   11.4897 H   0  0  0  0  0  0  0  0  0  0  0  0
    6.0696   -6.5947   10.1773 H   0  0  0  0  0  0  0  0  0  0  0  0
    3.8183   -4.0229   11.3466 H   0  0  0  0  0  0  0  0  0  0  0  0
    2.7374   -4.3018    9.9431 H   0  0  0  0  0  0  0  0  0  0  0  0
    4.1039   -2.2084    9.7986 H   0  0  0  0  0  0  0  0  0  0  0  0
    4.3459   -3.3087    8.4088 H   0  0  0  0  0  0  0  0  0  0  0  0
    8.6115   -1.1451   10.3699 H   0  0  0  0  0  0  0  0  0  0  0  0
    8.4316   -2.8435   10.8420 H   0  0  0  0  0  0  0  0  0  0  0  0
    7.7522   -0.9479   12.6259 H   0  0  0  0  0  0  0  0  0  0  0  0
    6.6355   -2.3288   12.4015 H   0  0  0  0  0  0  0  0  0  0  0  0
    6.7299    0.0531    9.0942 H   0  0  0  0  0  0  0  0  0  0  0  0
    5.1496   -0.7177    8.9928 H   0  0  0  0  0  0  0  0  0  0  0  0
    3.9069   -2.3527    3.2723 H   0  0  0  0  0  0  0  0  0  0  0  0
    2.9757   -0.9970    1.3987 H   0  0  0  0  0  0  0  0  0  0  0  0
  2  1  1  6
  1 28  1  0
  1 29  1  0
  1 30  1  0
  2  3  1  0
  2  4  1  0
  2 27  1  0
  3 31  1  0
  3 32  1  0
  3 33  1  0
  4  5  1  0
  4 34  1  0
  4 35  1  0
  5  6  2  0
  5 26  1  0
  6  7  1  0
  6 36  1  0
  7  8  1  0
  7 24  2  0
  8  9  1  0
  8 37  1  0
  9 10  2  0
  9 11  1  0
 11 12  1  0
 11 38  1  0
 13 12  1  6
 12 39  1  0
 12 40  1  0
 13 14  1  0
 13 20  1  0
 13 23  1  0
 14 15  1  0
 14 19  1  0
 15 16  1  0
 15 41  1  0
 15 42  1  0
 16 17  1  0
 16 43  1  0
 16 44  1  0
 17 18  1  0
 18 19  1  0
 18 45  1  0
 18 46  1  0
 19 47  1  0
 19 48  1  0
 20 21  1  0
 20 49  1  0
 20 50  1  0
 21 22  1  0
 21 51  1  0
 21 52  1  0
 22 23  1  0
 23 53  1  0
 23 54  1  0
 24 25  1  0
 24 55  1  0
 25 26  2  0
 25 56  1  0
 26 27  1  0
M  END

