
     RDKit          3D

 47 52  0  0  0  0  0  0  0  0999 V2000
    1.2960    0.2682   -0.8808 O   0  0  0  0  0  0  0  0  0  0  0  0
    2.2891    0.3176   -0.2190 C   0  0  0  0  0  0  0  0  0  0  0  0
    3.1879    1.5190   -0.0410 C   0  0  0  0  0  0  0  0  0  0  0  0
    3.7540    1.6526    1.3895 C   0  0  1  0  0  0  0  0  0  0  0  0
    2.7311    2.2282    2.3674 C   0  0  0  0  0  0  0  0  0  0  0  0
    1.7379    1.4319    2.9623 C   0  0  0  0  0  0  0  0  0  0  0  0
    0.7867    1.9885    3.8168 C   0  0  0  0  0  0  0  0  0  0  0  0
    0.8372    3.3574    4.0781 C   0  0  0  0  0  0  0  0  0  0  0  0
   -0.1630    3.9545    4.9872 N   0  0  0  0  0  0  0  0  0  0  0  0
   -0.9983    3.2101    5.4743 O   0  0  0  0  0  0  0  0  0  0  0  0
   -0.0911    5.1554    5.1940 O   0  0  0  0  0  0  0  0  0  0  0  0
    1.8111    4.1775    3.5080 C   0  0  0  0  0  0  0  0  0  0  0  0
    2.7519    3.6032    2.6552 C   0  0  0  0  0  0  0  0  0  0  0  0
    4.3083    0.3091    1.8037 C   0  0  0  0  0  0  0  0  0  0  0  0
    3.7785   -0.8412    1.2902 C   0  0  0  0  0  0  0  0  0  0  0  0
    4.2583   -2.1655    1.6377 C   0  0  0  0  0  0  0  0  0  0  0  0
    3.6855   -3.3309    1.0842 C   0  0  0  0  0  0  0  0  0  0  0  0
    4.1687   -4.5828    1.4411 C   0  0  0  0  0  0  0  0  0  0  0  0
    5.2296   -4.6995    2.3573 C   0  0  0  0  0  0  0  0  0  0  0  0
    5.8018   -3.5627    2.9122 C   0  0  0  0  0  0  0  0  0  0  0  0
    5.3294   -2.2818    2.5645 C   0  0  0  0  0  0  0  0  0  0  0  0
    5.9191   -1.0731    3.1367 C   0  0  0  0  0  0  0  0  0  0  0  0
    6.9180   -1.1746    4.0009 N   0  0  0  0  0  0  0  0  0  0  0  0
    7.4424   -0.0440    4.5129 C   0  0  0  0  0  0  0  0  0  0  0  0
    8.5158   -0.1129    5.4488 C   0  0  0  0  0  0  0  0  0  0  0  0
    9.0530    1.0419    5.9694 C   0  0  0  0  0  0  0  0  0  0  0  0
    8.5480    2.3171    5.5827 C   0  0  0  0  0  0  0  0  0  0  0  0
    7.5134    2.4208    4.6814 C   0  0  0  0  0  0  0  0  0  0  0  0
    6.9312    1.2455    4.1222 C   0  0  0  0  0  0  0  0  0  0  0  0
    5.9179    1.3442    3.2400 N   0  0  0  0  0  0  0  0  0  0  0  0
    5.4024    0.2221    2.7480 C   0  0  0  0  0  0  0  0  0  0  0  0
    2.7106   -0.8299    0.4237 O   0  0  0  0  0  0  0  0  0  0  0  0
    2.6255    2.4063   -0.3587 H   0  0  0  0  0  0  0  0  0  0  0  0
    4.0302    1.3868   -0.7442 H   0  0  0  0  0  0  0  0  0  0  0  0
    4.5929    2.3608    1.3609 H   0  0  0  0  0  0  0  0  0  0  0  0
    1.7059    0.3580    2.7674 H   0  0  0  0  0  0  0  0  0  0  0  0
    0.0110    1.3831    4.2848 H   0  0  0  0  0  0  0  0  0  0  0  0
    1.8192    5.2413    3.7437 H   0  0  0  0  0  0  0  0  0  0  0  0
    3.5252    4.2343    2.2099 H   0  0  0  0  0  0  0  0  0  0  0  0
    2.8607   -3.2312    0.3783 H   0  0  0  0  0  0  0  0  0  0  0  0
    3.7201   -5.4802    1.0081 H   0  0  0  0  0  0  0  0  0  0  0  0
    5.6042   -5.6881    2.6340 H   0  0  0  0  0  0  0  0  0  0  0  0
    6.6245   -3.6293    3.6252 H   0  0  0  0  0  0  0  0  0  0  0  0
    8.8841   -1.1021    5.7281 H   0  0  0  0  0  0  0  0  0  0  0  0
    9.8751    0.9874    6.6873 H   0  0  0  0  0  0  0  0  0  0  0  0
    8.9911    3.2196    6.0111 H   0  0  0  0  0  0  0  0  0  0  0  0
    7.1090    3.3865    4.3717 H   0  0  0  0  0  0  0  0  0  0  0  0
  1  2  2  0
  2  3  1  0
  2 32  1  0
  3  4  1  0
  3 33  1  0
  3 34  1  0
  4  5  1  0
  4 14  1  0
  4 35  1  6
  5  6  2  0
  5 13  1  0
  6  7  1  0
  6 36  1  0
  7  8  2  0
  7 37  1  0
  8  9  1  0
  8 12  1  0
  9 10  2  0
  9 11  1  0
 12 13  2  0
 12 38  1  0
 13 39  1  0
 14 15  2  0
 14 31  1  0
 15 16  1  0
 15 32  1  0
 16 17  2  0
 16 21  1  0
 17 18  1  0
 17 40  1  0
 18 19  2  0
 18 41  1  0
 19 20  1  0
 19 42  1  0
 20 21  2  0
 20 43  1  0
 21 22  1  0
 22 23  1  0
 22 31  2  0
 23 24  2  0
 24 25  1  0
 24 29  1  0
 25 26  2  0
 25 44  1  0
 26 27  1  0
 26 45  1  0
 27 28  2  0
 27 46  1  0
 28 29  1  0
 28 47  1  0
 29 30  2  0
 30 31  1  0
M  CHG  2   9   1  11  -1
M  END

