
     RDKit          3D

 78 80  0  0  0  0  0  0  0  0999 V2000
    8.2436   -0.0283    1.6387 C   0  0  0  0  0  0  0  0  0  0  0  0
    8.8558    0.8760    0.5681 C   0  0  0  0  0  0  0  0  0  0  0  0
    7.8579    1.8800   -0.0167 C   0  0  0  0  0  0  0  0  0  0  0  0
    8.4531    2.8443   -1.0522 C   0  0  0  0  0  0  0  0  0  0  0  0
    9.0000    2.1964   -2.2441 N   0  0  0  0  0  0  0  0  0  0  0  0
    8.0610    1.5738   -3.1613 C   0  0  0  0  0  0  0  0  0  0  0  0
   10.3677    2.1169   -2.3887 C   0  0  0  0  0  0  0  0  0  0  0  0
   11.1373    2.6099   -1.5757 O   0  0  0  0  0  0  0  0  0  0  0  0
   10.8907    1.3862   -3.6259 C   0  0  0  0  0  0  0  0  0  0  0  0
   12.4142    1.2589   -3.6212 C   0  0  0  0  0  0  0  0  0  0  0  0
   12.9856    0.5777   -4.8658 C   0  0  0  0  0  0  0  0  0  0  0  0
   12.4838   -1.1868   -4.9627 S   0  0  0  0  0  0  0  0  0  0  0  0
   13.2015   -1.6248   -6.5905 C   0  0  0  0  0  0  0  0  0  0  0  0
   12.9573   -3.1041   -6.8977 C   0  0  0  0  0  0  0  0  0  0  0  0
   13.4525   -3.5515   -8.2812 C   0  0  0  0  0  0  0  0  0  0  0  0
   14.9729   -3.5143   -8.4751 C   0  0  0  0  0  0  0  0  0  0  0  0
   15.4240   -4.0450   -9.8389 C   0  0  0  0  0  0  0  0  0  0  0  0
   16.9518   -4.0141  -10.0402 C   0  0  0  0  0  0  0  0  0  0  0  0
   17.4145   -4.5521  -11.3784 C   0  0  0  0  0  0  0  0  0  0  0  0
   17.5597   -5.9379  -11.5504 C   0  0  0  0  0  0  0  0  0  0  0  0
   17.3093   -6.8281  -10.5408 O   0  0  0  0  0  0  0  0  0  0  0  0
   17.9764   -6.5072  -12.7740 C   0  0  0  0  0  0  0  0  0  0  0  0
   18.2463   -5.7076  -13.8748 C   0  0  0  0  0  0  0  0  0  0  0  0
   18.0956   -4.3243  -13.7271 C   0  0  0  0  0  0  0  0  0  0  0  0
   18.2841   -3.3187  -14.6486 N   0  0  0  0  0  0  0  0  0  0  0  0
   18.7181   -3.4359  -15.5541 H   0  0  0  0  0  0  0  0  0  0  0  0
   18.0512   -2.0893  -14.0552 C   0  0  0  0  0  0  0  0  0  0  0  0
   18.1973   -0.8583  -14.8485 C   0  0  0  0  0  0  0  0  0  0  0  0
   17.7636   -0.8118  -16.1878 C   0  0  0  0  0  0  0  0  0  0  0  0
   17.9116    0.3393  -16.9619 C   0  0  0  0  0  0  0  0  0  0  0  0
   18.4959    1.4889  -16.4115 C   0  0  0  0  0  0  0  0  0  0  0  0
   18.6614    2.6392  -17.1127 O   0  0  0  0  0  0  0  0  0  0  0  0
   18.9369    1.4617  -15.0800 C   0  0  0  0  0  0  0  0  0  0  0  0
   18.7933    0.3053  -14.3186 C   0  0  0  0  0  0  0  0  0  0  0  0
   17.6602   -2.2892  -12.7346 C   0  0  0  0  0  0  0  0  0  0  0  0
   17.2094   -1.2094  -11.7913 C   0  0  0  0  0  0  0  0  0  0  0  0
   17.6898   -3.7209  -12.5011 C   0  0  0  0  0  0  0  0  0  0  0  0
    8.9828   -0.7433    2.0336 H   0  0  0  0  0  0  0  0  0  0  0  0
    7.3979   -0.6127    1.2379 H   0  0  0  0  0  0  0  0  0  0  0  0
    7.8615    0.5587    2.4910 H   0  0  0  0  0  0  0  0  0  0  0  0
    9.2660    0.2537   -0.2466 H   0  0  0  0  0  0  0  0  0  0  0  0
    9.7197    1.4230    0.9833 H   0  0  0  0  0  0  0  0  0  0  0  0
    7.4309    2.4936    0.7976 H   0  0  0  0  0  0  0  0  0  0  0  0
    7.0009    1.3357   -0.4566 H   0  0  0  0  0  0  0  0  0  0  0  0
    9.2756    3.4160   -0.6031 H   0  0  0  0  0  0  0  0  0  0  0  0
    7.6766    3.5622   -1.3728 H   0  0  0  0  0  0  0  0  0  0  0  0
    7.0861    2.0762   -3.0709 H   0  0  0  0  0  0  0  0  0  0  0  0
    7.9027    0.4979   -2.9594 H   0  0  0  0  0  0  0  0  0  0  0  0
    8.3841    1.6772   -4.2064 H   0  0  0  0  0  0  0  0  0  0  0  0
   10.5619    1.9339   -4.5288 H   0  0  0  0  0  0  0  0  0  0  0  0
   10.4223    0.3911   -3.7029 H   0  0  0  0  0  0  0  0  0  0  0  0
   12.7347    0.7188   -2.7157 H   0  0  0  0  0  0  0  0  0  0  0  0
   12.8572    2.2634   -3.5330 H   0  0  0  0  0  0  0  0  0  0  0  0
   14.0865    0.6275   -4.8478 H   0  0  0  0  0  0  0  0  0  0  0  0
   12.6440    1.0914   -5.7815 H   0  0  0  0  0  0  0  0  0  0  0  0
   14.2796   -1.3960   -6.5687 H   0  0  0  0  0  0  0  0  0  0  0  0
   12.7416   -0.9911   -7.3689 H   0  0  0  0  0  0  0  0  0  0  0  0
   11.8744   -3.3033   -6.8243 H   0  0  0  0  0  0  0  0  0  0  0  0
   13.4359   -3.7193   -6.1151 H   0  0  0  0  0  0  0  0  0  0  0  0
   12.9693   -2.9340   -9.0609 H   0  0  0  0  0  0  0  0  0  0  0  0
   13.0994   -4.5831   -8.4574 H   0  0  0  0  0  0  0  0  0  0  0  0
   15.4550   -4.1044   -7.6726 H   0  0  0  0  0  0  0  0  0  0  0  0
   15.3466   -2.4820   -8.3515 H   0  0  0  0  0  0  0  0  0  0  0  0
   14.9473   -3.4592  -10.6441 H   0  0  0  0  0  0  0  0  0  0  0  0
   15.0605   -5.0796   -9.9742 H   0  0  0  0  0  0  0  0  0  0  0  0
   17.4309   -4.5851   -9.2193 H   0  0  0  0  0  0  0  0  0  0  0  0
   17.3159   -2.9873   -9.8997 H   0  0  0  0  0  0  0  0  0  0  0  0
   17.1244   -6.3454   -9.7261 H   0  0  0  0  0  0  0  0  0  0  0  0
   18.0759   -7.5931  -12.8233 H   0  0  0  0  0  0  0  0  0  0  0  0
   18.5643   -6.1474  -14.8233 H   0  0  0  0  0  0  0  0  0  0  0  0
   17.2783   -1.6867  -16.6279 H   0  0  0  0  0  0  0  0  0  0  0  0
   17.5583    0.3505  -17.9982 H   0  0  0  0  0  0  0  0  0  0  0  0
   18.3213    2.5239  -18.0098 H   0  0  0  0  0  0  0  0  0  0  0  0
   19.4043    2.3569  -14.6646 H   0  0  0  0  0  0  0  0  0  0  0  0
   19.1752    0.2932  -13.2962 H   0  0  0  0  0  0  0  0  0  0  0  0
   17.0370   -0.2648  -12.3266 H   0  0  0  0  0  0  0  0  0  0  0  0
   17.9457   -1.0019  -10.9946 H   0  0  0  0  0  0  0  0  0  0  0  0
   16.2629   -1.4740  -11.2935 H   0  0  0  0  0  0  0  0  0  0  0  0
  1  2  1  0
  1 38  1  0
  1 39  1  0
  1 40  1  0
  2  3  1  0
  2 41  1  0
  2 42  1  0
  3  4  1  0
  3 43  1  0
  3 44  1  0
  4  5  1  0
  4 45  1  0
  4 46  1  0
  5  6  1  0
  5  7  1  0
  6 47  1  0
  6 48  1  0
  6 49  1  0
  7  8  2  0
  7  9  1  0
  9 10  1  0
  9 50  1  0
  9 51  1  0
 10 11  1  0
 10 52  1  0
 10 53  1  0
 11 12  1  0
 11 54  1  0
 11 55  1  0
 12 13  1  0
 13 14  1  0
 13 56  1  0
 13 57  1  0
 14 15  1  0
 14 58  1  0
 14 59  1  0
 15 16  1  0
 15 60  1  0
 15 61  1  0
 16 17  1  0
 16 62  1  0
 16 63  1  0
 17 18  1  0
 17 64  1  0
 17 65  1  0
 18 19  1  0
 18 66  1  0
 18 67  1  0
 19 20  2  0
 19 37  1  0
 20 21  1  0
 20 22  1  0
 21 68  1  0
 22 23  2  0
 22 69  1  0
 23 24  1  0
 23 70  1  0
 24 25  1  0
 24 37  2  0
 25 26  1  0
 25 27  1  0
 27 28  1  0
 27 35  2  0
 28 29  2  0
 28 34  1  0
 29 30  1  0
 29 71  1  0
 30 31  2  0
 30 72  1  0
 31 32  1  0
 31 33  1  0
 32 73  1  0
 33 34  2  0
 33 74  1  0
 34 75  1  0
 35 36  1  0
 35 37  1  0
 36 76  1  0
 36 77  1  0
 36 78  1  0
M  END

