
     RDKit          3D

 51 52  0  0  0  0  0  0  0  0999 V2000
    1.0537    1.6437    1.2837 C   0  0  0  0  0  0  0  0  0  0  0  0
    2.4832    1.7061    0.7505 C   0  0  0  0  0  0  0  0  0  0  0  0
    3.1892    0.4221    0.7917 N   0  0  0  0  0  0  0  0  0  0  0  0
    2.7657   -0.4816   -0.2766 C   0  0  0  0  0  0  0  0  0  0  0  0
    2.8903   -1.9635    0.0794 C   0  0  1  0  0  0  0  0  0  0  0  0
    1.9758   -2.4610    1.2064 C   0  0  0  0  0  0  0  0  0  0  0  0
    1.7475   -3.9237    0.8071 C   0  0  0  0  0  0  0  0  0  0  0  0
    1.6931   -3.8232   -0.7214 C   0  0  0  0  0  0  0  0  0  0  0  0
    2.5265   -2.7251   -1.0760 O   0  0  0  0  0  0  0  0  0  0  0  0
    4.6454    0.5811    0.8597 C   0  0  0  0  0  0  0  0  0  0  0  0
    5.1238    0.8947    2.2958 C   0  0  1  0  0  0  0  0  0  0  0  0
    4.7611   -0.1489    3.2651 N   0  0  0  0  0  0  0  0  0  0  0  0
    5.4931   -1.4029    3.2028 C   0  0  0  0  0  0  0  0  0  0  0  0
    6.6019    1.2639    2.4048 C   0  0  0  0  0  0  0  0  0  0  0  0
    7.5265    0.8914    1.4175 C   0  0  0  0  0  0  0  0  0  0  0  0
    8.8912    1.2051    1.4991 C   0  0  0  0  0  0  0  0  0  0  0  0
    9.8619    0.7765    0.4245 C   0  0  0  0  0  0  0  0  0  0  0  0
    9.3270    1.9207    2.6212 C   0  0  0  0  0  0  0  0  0  0  0  0
    8.4236    2.2986    3.6151 C   0  0  0  0  0  0  0  0  0  0  0  0
    7.0589    1.9858    3.5339 C   0  0  0  0  0  0  0  0  0  0  0  0
    6.1162    2.4252    4.6288 C   0  0  0  0  0  0  0  0  0  0  0  0
    0.5859    2.6407    1.2444 H   0  0  0  0  0  0  0  0  0  0  0  0
    1.0423    1.2962    2.3289 H   0  0  0  0  0  0  0  0  0  0  0  0
    0.4189    0.9619    0.6961 H   0  0  0  0  0  0  0  0  0  0  0  0
    3.0478    2.4254    1.3634 H   0  0  0  0  0  0  0  0  0  0  0  0
    2.4846    2.1260   -0.2811 H   0  0  0  0  0  0  0  0  0  0  0  0
    3.3238   -0.2999   -1.2204 H   0  0  0  0  0  0  0  0  0  0  0  0
    1.7063   -0.2966   -0.5098 H   0  0  0  0  0  0  0  0  0  0  0  0
    3.9437   -2.1967    0.3351 H   0  0  0  0  0  0  0  0  0  0  0  0
    1.0245   -1.9020    1.1965 H   0  0  0  0  0  0  0  0  0  0  0  0
    2.4237   -2.3404    2.2025 H   0  0  0  0  0  0  0  0  0  0  0  0
    0.8372   -4.3637    1.2418 H   0  0  0  0  0  0  0  0  0  0  0  0
    2.6036   -4.5434    1.1216 H   0  0  0  0  0  0  0  0  0  0  0  0
    0.6586   -3.6372   -1.0718 H   0  0  0  0  0  0  0  0  0  0  0  0
    2.0560   -4.7341   -1.2275 H   0  0  0  0  0  0  0  0  0  0  0  0
    4.9987    1.3715    0.1623 H   0  0  0  0  0  0  0  0  0  0  0  0
    5.1082   -0.3558    0.5180 H   0  0  0  0  0  0  0  0  0  0  0  0
    4.5613    1.7884    2.6163 H   0  0  0  0  0  0  0  0  0  0  0  0
    3.7612   -0.3203    3.1604 H   0  0  0  0  0  0  0  0  0  0  0  0
    6.5518   -1.2415    3.4581 H   0  0  0  0  0  0  0  0  0  0  0  0
    5.4688   -1.9262    2.2218 H   0  0  0  0  0  0  0  0  0  0  0  0
    5.0782   -2.0958    3.9523 H   0  0  0  0  0  0  0  0  0  0  0  0
    7.1851    0.3304    0.5449 H   0  0  0  0  0  0  0  0  0  0  0  0
    9.3416    0.3445   -0.4436 H   0  0  0  0  0  0  0  0  0  0  0  0
   10.5680    0.0161    0.8007 H   0  0  0  0  0  0  0  0  0  0  0  0
   10.4676    1.6252    0.0662 H   0  0  0  0  0  0  0  0  0  0  0  0
   10.3839    2.1863    2.7215 H   0  0  0  0  0  0  0  0  0  0  0  0
    8.7862    2.8569    4.4833 H   0  0  0  0  0  0  0  0  0  0  0  0
    6.6688    2.8403    5.4845 H   0  0  0  0  0  0  0  0  0  0  0  0
    5.4963    1.5836    4.9718 H   0  0  0  0  0  0  0  0  0  0  0  0
    5.4236    3.2091    4.2733 H   0  0  0  0  0  0  0  0  0  0  0  0
  1  2  1  0
  1 22  1  0
  1 23  1  0
  1 24  1  0
  2  3  1  0
  2 25  1  0
  2 26  1  0
  3  4  1  0
  3 10  1  0
  4  5  1  0
  4 27  1  0
  4 28  1  0
  5  6  1  0
  5  9  1  0
  5 29  1  1
  6  7  1  0
  6 30  1  0
  6 31  1  0
  7  8  1  0
  7 32  1  0
  7 33  1  0
  8  9  1  0
  8 34  1  0
  8 35  1  0
 10 11  1  0
 10 36  1  0
 10 37  1  0
 11 12  1  0
 11 14  1  0
 11 38  1  1
 12 13  1  0
 12 39  1  0
 13 40  1  0
 13 41  1  0
 13 42  1  0
 14 15  2  0
 14 20  1  0
 15 16  1  0
 15 43  1  0
 16 17  1  0
 16 18  2  0
 17 44  1  0
 17 45  1  0
 17 46  1  0
 18 19  1  0
 18 47  1  0
 19 20  2  0
 19 48  1  0
 20 21  1  0
 21 49  1  0
 21 50  1  0
 21 51  1  0
M  END

