
     RDKit          3D

 37 38  0  0  0  0  0  0  0  0999 V2000
    1.0065   -1.7806    1.0485 C   0  0  0  0  0  0  0  0  0  0  0  0
    2.5211   -1.9358    1.1111 C   0  0  0  0  0  0  0  0  0  0  0  0
    3.2775   -1.2845   -0.4128 S   0  0  1  0  0  0  0  0  0  0  0  0
    2.7923   -2.1400   -1.5279 O   0  0  0  0  0  0  0  0  0  0  0  0
    3.0225    0.1611   -0.4550 O   0  0  0  0  0  0  0  0  0  0  0  0
    5.0397   -1.5663   -0.2000 C   0  0  0  0  0  0  0  0  0  0  0  0
    5.7841   -0.4788    0.2731 C   0  0  0  0  0  0  0  0  0  0  0  0
    7.1420   -0.6257    0.5422 C   0  0  0  0  0  0  0  0  0  0  0  0
    7.7401   -1.8745    0.3369 C   0  0  0  0  0  0  0  0  0  0  0  0
    7.0155   -2.9600   -0.1507 C   0  0  0  0  0  0  0  0  0  0  0  0
    5.6422   -2.8301   -0.4490 C   0  0  0  0  0  0  0  0  0  0  0  0
    4.8754   -3.8622   -0.9843 N   0  0  0  0  0  0  0  0  0  0  0  0
    5.2447   -5.1920   -1.1740 C   0  0  0  0  0  0  0  0  0  0  0  0
    6.3020   -5.6771   -0.8069 O   0  0  0  0  0  0  0  0  0  0  0  0
    4.2831   -5.9128   -1.8462 N   0  0  0  0  0  0  0  0  0  0  0  0
    4.3989   -7.3576   -1.9901 C   0  0  0  0  0  0  0  0  0  0  0  0
    3.6035   -8.1366   -0.9924 C   0  0  0  0  0  0  0  0  0  0  0  0
    3.9296   -8.8317    0.1399 C   0  0  0  0  0  0  0  0  0  0  0  0
    2.6957   -9.3220    0.6854 C   0  0  0  0  0  0  0  0  0  0  0  0
    1.7131   -8.8828   -0.1541 C   0  0  0  0  0  0  0  0  0  0  0  0
    2.2505   -8.1645   -1.1737 O   0  0  0  0  0  0  0  0  0  0  0  0
    0.5520   -2.1749    1.9702 H   0  0  0  0  0  0  0  0  0  0  0  0
    0.5930   -2.3317    0.1913 H   0  0  0  0  0  0  0  0  0  0  0  0
    0.7291   -0.7213    0.9476 H   0  0  0  0  0  0  0  0  0  0  0  0
    2.8409   -2.9867    1.1826 H   0  0  0  0  0  0  0  0  0  0  0  0
    2.9746   -1.3653    1.9351 H   0  0  0  0  0  0  0  0  0  0  0  0
    5.2750    0.4758    0.4188 H   0  0  0  0  0  0  0  0  0  0  0  0
    7.7256    0.2212    0.9088 H   0  0  0  0  0  0  0  0  0  0  0  0
    8.8038   -2.0089    0.5507 H   0  0  0  0  0  0  0  0  0  0  0  0
    7.4885   -3.9250   -0.3167 H   0  0  0  0  0  0  0  0  0  0  0  0
    3.9871   -3.5474   -1.3838 H   0  0  0  0  0  0  0  0  0  0  0  0
    3.3690   -5.5015   -1.9992 H   0  0  0  0  0  0  0  0  0  0  0  0
    5.4611   -7.6048   -1.8716 H   0  0  0  0  0  0  0  0  0  0  0  0
    4.0910   -7.6402   -3.0109 H   0  0  0  0  0  0  0  0  0  0  0  0
    4.9331   -8.9702    0.5367 H   0  0  0  0  0  0  0  0  0  0  0  0
    2.5609   -9.9235    1.5821 H   0  0  0  0  0  0  0  0  0  0  0  0
    0.6324   -8.9994   -0.1661 H   0  0  0  0  0  0  0  0  0  0  0  0
  1  2  1  0
  1 22  1  0
  1 23  1  0
  1 24  1  0
  3  2  1  1
  2 25  1  0
  2 26  1  0
  3  4  2  0
  3  5  2  0
  3  6  1  0
  6  7  2  0
  6 11  1  0
  7  8  1  0
  7 27  1  0
  8  9  2  0
  8 28  1  0
  9 10  1  0
  9 29  1  0
 10 11  2  0
 10 30  1  0
 11 12  1  0
 12 13  1  0
 12 31  1  0
 13 14  2  0
 13 15  1  0
 15 16  1  0
 15 32  1  0
 16 17  1  0
 16 33  1  0
 16 34  1  0
 17 18  2  0
 17 21  1  0
 18 19  1  0
 18 35  1  0
 19 20  2  0
 19 36  1  0
 20 21  1  0
 20 37  1  0
M  END

