
     RDKit          3D

 50 52  0  0  0  0  0  0  0  0999 V2000
    1.3338   -3.1978    0.9503 C   0  0  0  0  0  0  0  0  0  0  0  0
    2.7500   -2.8243    0.6015 C   0  0  0  0  0  0  0  0  0  0  0  0
    3.1059   -1.5975    0.0252 C   0  0  0  0  0  0  0  0  0  0  0  0
    4.4249   -1.2631   -0.2934 C   0  0  0  0  0  0  0  0  0  0  0  0
    5.4531   -2.1844   -0.0324 C   0  0  0  0  0  0  0  0  0  0  0  0
    6.8081   -1.9391   -0.3211 N   0  0  0  0  0  0  0  0  0  0  0  0
    7.3933   -0.8154   -0.8554 C   0  0  0  0  0  0  0  0  0  0  0  0
    6.7989    0.1930   -1.1859 O   0  0  0  0  0  0  0  0  0  0  0  0
    8.9288   -0.9046   -0.9462 C   0  0  1  0  0  0  0  0  0  0  0  0
    9.5089   -0.4313    0.3991 C   0  0  0  0  0  0  0  0  0  0  0  0
    9.3352   -2.2666   -1.2816 N   0  0  0  0  0  0  0  0  0  0  0  0
   10.6640   -2.5957   -1.6367 C   0  0  0  0  0  0  0  0  0  0  0  0
   11.6925   -1.6447   -1.7601 C   0  0  0  0  0  0  0  0  0  0  0  0
   12.9726   -2.0784   -2.1095 C   0  0  0  0  0  0  0  0  0  0  0  0
   13.2555   -3.4197   -2.3605 C   0  0  0  0  0  0  0  0  0  0  0  0
   12.2348   -4.3926   -2.2472 C   0  0  0  0  0  0  0  0  0  0  0  0
   12.4877   -5.7584   -2.4531 N   0  0  0  0  0  0  0  0  0  0  0  0
   13.8495   -6.1966   -2.7271 C   0  0  0  0  0  0  0  0  0  0  0  0
   13.9869   -7.6983   -2.4805 C   0  0  0  0  0  0  0  0  0  0  0  0
   13.0398   -8.4436   -3.2136 O   0  0  0  0  0  0  0  0  0  0  0  0
   11.7260   -8.0580   -2.8736 C   0  0  0  0  0  0  0  0  0  0  0  0
   11.4904   -6.5750   -3.1434 C   0  0  0  0  0  0  0  0  0  0  0  0
   10.9495   -3.9498   -1.8772 C   0  0  0  0  0  0  0  0  0  0  0  0
    5.1281   -3.4248    0.5461 C   0  0  0  0  0  0  0  0  0  0  0  0
    3.8039   -3.7128    0.8458 C   0  0  0  0  0  0  0  0  0  0  0  0
    3.5211   -4.9072    1.3992 F   0  0  0  0  0  0  0  0  0  0  0  0
    0.6396   -2.3838    0.6972 H   0  0  0  0  0  0  0  0  0  0  0  0
    1.2277   -3.4169    2.0257 H   0  0  0  0  0  0  0  0  0  0  0  0
    1.0108   -4.1037    0.4109 H   0  0  0  0  0  0  0  0  0  0  0  0
    2.3168   -0.8697   -0.1835 H   0  0  0  0  0  0  0  0  0  0  0  0
    4.6695   -0.3016   -0.7377 H   0  0  0  0  0  0  0  0  0  0  0  0
    7.4612   -2.6794   -0.0780 H   0  0  0  0  0  0  0  0  0  0  0  0
    9.2002   -0.1749   -1.7322 H   0  0  0  0  0  0  0  0  0  0  0  0
    9.1789   -1.0918    1.2158 H   0  0  0  0  0  0  0  0  0  0  0  0
    9.1610    0.5906    0.6106 H   0  0  0  0  0  0  0  0  0  0  0  0
   10.6069   -0.4297    0.3902 H   0  0  0  0  0  0  0  0  0  0  0  0
    8.6780   -2.7145   -1.9156 H   0  0  0  0  0  0  0  0  0  0  0  0
   11.5030   -0.5824   -1.6127 H   0  0  0  0  0  0  0  0  0  0  0  0
   13.7729   -1.3408   -2.2155 H   0  0  0  0  0  0  0  0  0  0  0  0
   14.2643   -3.6978   -2.6606 H   0  0  0  0  0  0  0  0  0  0  0  0
   14.5459   -5.6733   -2.0560 H   0  0  0  0  0  0  0  0  0  0  0  0
   14.1519   -5.9665   -3.7720 H   0  0  0  0  0  0  0  0  0  0  0  0
   13.8752   -7.8997   -1.3948 H   0  0  0  0  0  0  0  0  0  0  0  0
   14.9844   -8.0411   -2.7950 H   0  0  0  0  0  0  0  0  0  0  0  0
   11.5274   -8.2723   -1.8027 H   0  0  0  0  0  0  0  0  0  0  0  0
   11.0403   -8.6668   -3.4826 H   0  0  0  0  0  0  0  0  0  0  0  0
   10.4798   -6.3133   -2.8060 H   0  0  0  0  0  0  0  0  0  0  0  0
   11.5309   -6.3953   -4.2396 H   0  0  0  0  0  0  0  0  0  0  0  0
   10.1440   -4.6699   -1.7256 H   0  0  0  0  0  0  0  0  0  0  0  0
    5.8931   -4.1719    0.7701 H   0  0  0  0  0  0  0  0  0  0  0  0
  1  2  1  0
  1 27  1  0
  1 28  1  0
  1 29  1  0
  2  3  2  0
  2 25  1  0
  3  4  1  0
  3 30  1  0
  4  5  2  0
  4 31  1  0
  5  6  1  0
  5 24  1  0
  6  7  1  0
  6 32  1  0
  7  8  2  0
  7  9  1  0
  9 10  1  0
  9 11  1  0
  9 33  1  6
 10 34  1  0
 10 35  1  0
 10 36  1  0
 11 12  1  0
 11 37  1  0
 12 13  2  0
 12 23  1  0
 13 14  1  0
 13 38  1  0
 14 15  2  0
 14 39  1  0
 15 16  1  0
 15 40  1  0
 16 17  1  0
 16 23  2  0
 17 18  1  0
 17 22  1  0
 18 19  1  0
 18 41  1  0
 18 42  1  0
 19 20  1  0
 19 43  1  0
 19 44  1  0
 20 21  1  0
 21 22  1  0
 21 45  1  0
 21 46  1  0
 22 47  1  0
 22 48  1  0
 23 49  1  0
 24 25  2  0
 24 50  1  0
 25 26  1  0
M  END

