
     RDKit          3D

 49 51  0  0  0  0  0  0  0  0999 V2000
    2.3009   -0.0512   -0.0406 O   0  0  0  0  0  0  0  0  0  0  0  0
    2.9905    1.1092   -0.4891 C   0  0  1  0  0  0  0  0  0  0  0  0
    3.7266    1.7171    0.7243 C   0  0  0  0  0  0  0  0  0  0  0  0
    4.4548    0.6748    1.4401 N   0  0  0  0  0  0  0  0  0  0  0  0
    4.8314    0.9539    2.8340 C   0  0  1  0  0  0  0  0  0  0  0  0
    3.6117    0.9549    3.7734 C   0  0  0  0  0  0  0  0  0  0  0  0
    2.9686   -0.4304    3.9230 C   0  0  0  0  0  0  0  0  0  0  0  0
    3.9556   -1.5378    4.3811 C   0  0  1  0  0  0  0  0  0  0  0  0
    4.3829   -1.3544    5.8629 C   0  0  0  0  0  0  0  0  0  0  0  0
    3.2706   -1.7057    6.8541 C   0  0  0  0  0  0  0  0  0  0  0  0
    2.7730   -3.0119    6.6533 O   0  0  0  0  0  0  0  0  0  0  0  0
    2.2427   -3.1894    5.3547 C   0  0  0  0  0  0  0  0  0  0  0  0
    3.2949   -2.9345    4.2748 C   0  0  0  0  0  0  0  0  0  0  0  0
    5.1899   -1.5012    3.4481 C   0  0  0  0  0  0  0  0  0  0  0  0
    5.8300   -0.1128    3.3125 C   0  0  0  0  0  0  0  0  0  0  0  0
    3.9652    0.7303   -1.6306 C   0  0  0  0  0  0  0  0  0  0  0  0
    3.1942    0.2475   -2.8601 C   0  0  0  0  0  0  0  0  0  0  0  0
    2.2706    1.2206   -3.3064 O   0  0  0  0  0  0  0  0  0  0  0  0
    1.3013    1.5298   -2.3227 C   0  0  0  0  0  0  0  0  0  0  0  0
    1.9446    2.0835   -1.0498 C   0  0  0  0  0  0  0  0  0  0  0  0
    2.9073   -0.4406    0.6171 H   0  0  0  0  0  0  0  0  0  0  0  0
    2.9635    2.1327    1.3995 H   0  0  0  0  0  0  0  0  0  0  0  0
    4.3690    2.5635    0.4037 H   0  0  0  0  0  0  0  0  0  0  0  0
    5.2948    0.4247    0.9198 H   0  0  0  0  0  0  0  0  0  0  0  0
    5.3224    1.9485    2.9084 H   0  0  0  0  0  0  0  0  0  0  0  0
    2.8545    1.6761    3.4259 H   0  0  0  0  0  0  0  0  0  0  0  0
    3.9465    1.3338    4.7539 H   0  0  0  0  0  0  0  0  0  0  0  0
    2.5415   -0.7237    2.9496 H   0  0  0  0  0  0  0  0  0  0  0  0
    2.1141   -0.3567    4.6140 H   0  0  0  0  0  0  0  0  0  0  0  0
    4.7302   -0.3274    6.0628 H   0  0  0  0  0  0  0  0  0  0  0  0
    5.2397   -2.0212    6.0638 H   0  0  0  0  0  0  0  0  0  0  0  0
    2.4427   -0.9681    6.7892 H   0  0  0  0  0  0  0  0  0  0  0  0
    3.6532   -1.6711    7.8862 H   0  0  0  0  0  0  0  0  0  0  0  0
    1.3626   -2.5285    5.2083 H   0  0  0  0  0  0  0  0  0  0  0  0
    1.8801   -4.2278    5.3032 H   0  0  0  0  0  0  0  0  0  0  0  0
    2.8431   -3.0654    3.2760 H   0  0  0  0  0  0  0  0  0  0  0  0
    4.0797   -3.7049    4.3759 H   0  0  0  0  0  0  0  0  0  0  0  0
    4.8773   -1.8494    2.4491 H   0  0  0  0  0  0  0  0  0  0  0  0
    5.9418   -2.2245    3.8081 H   0  0  0  0  0  0  0  0  0  0  0  0
    6.6883   -0.1596    2.6180 H   0  0  0  0  0  0  0  0  0  0  0  0
    6.2471    0.2117    4.2801 H   0  0  0  0  0  0  0  0  0  0  0  0
    4.6522   -0.0649   -1.2922 H   0  0  0  0  0  0  0  0  0  0  0  0
    4.5748    1.6084   -1.9065 H   0  0  0  0  0  0  0  0  0  0  0  0
    2.6704   -0.6968   -2.6113 H   0  0  0  0  0  0  0  0  0  0  0  0
    3.8764    0.0506   -3.7015 H   0  0  0  0  0  0  0  0  0  0  0  0
    0.7098    0.6282   -2.0687 H   0  0  0  0  0  0  0  0  0  0  0  0
    0.6211    2.2695   -2.7723 H   0  0  0  0  0  0  0  0  0  0  0  0
    1.1708    2.2600   -0.2845 H   0  0  0  0  0  0  0  0  0  0  0  0
    2.4301    3.0484   -1.2760 H   0  0  0  0  0  0  0  0  0  0  0  0
  2  1  1  1
  1 21  1  0
  2  3  1  0
  2 16  1  0
  2 20  1  0
  3  4  1  0
  3 22  1  0
  3 23  1  0
  4  5  1  0
  4 24  1  0
  5  6  1  0
  5 15  1  0
  5 25  1  6
  6  7  1  0
  6 26  1  0
  6 27  1  0
  8  7  1  6
  7 28  1  0
  7 29  1  0
  8  9  1  0
  8 13  1  0
  8 14  1  0
  9 10  1  0
  9 30  1  0
  9 31  1  0
 10 11  1  0
 10 32  1  0
 10 33  1  0
 11 12  1  0
 12 13  1  0
 12 34  1  0
 12 35  1  0
 13 36  1  0
 13 37  1  0
 14 15  1  0
 14 38  1  0
 14 39  1  0
 15 40  1  0
 15 41  1  0
 16 17  1  0
 16 42  1  0
 16 43  1  0
 17 18  1  0
 17 44  1  0
 17 45  1  0
 18 19  1  0
 19 20  1  0
 19 46  1  0
 19 47  1  0
 20 48  1  0
 20 49  1  0
M  END

