
     RDKit          3D

 32 33  0  0  0  0  0  0  0  0999 V2000
    2.3957    0.5066    1.1263 C   0  0  0  0  0  0  0  0  0  0  0  0
    2.8946    0.0236   -0.1021 O   0  0  0  0  0  0  0  0  0  0  0  0
    3.0997    0.8863   -1.1278 C   0  0  0  0  0  0  0  0  0  0  0  0
    2.8806    2.2672   -1.0446 C   0  0  0  0  0  0  0  0  0  0  0  0
    3.1195    3.0863   -2.1540 C   0  0  0  0  0  0  0  0  0  0  0  0
    3.5780    2.5398   -3.3538 C   0  0  0  0  0  0  0  0  0  0  0  0
    3.7976    1.1649   -3.4420 C   0  0  0  0  0  0  0  0  0  0  0  0
    3.5669    0.3131   -2.3442 C   0  0  0  0  0  0  0  0  0  0  0  0
    3.7886   -1.0906   -2.4487 C   0  0  0  0  0  0  0  0  0  0  0  0
    3.9820   -2.2919   -2.5428 C   0  0  0  0  0  0  0  0  0  0  0  0
    4.1844   -3.6905   -2.7426 C   0  0  0  0  0  0  0  0  0  0  0  0
    4.4686   -4.1452   -4.0548 C   0  0  0  0  0  0  0  0  0  0  0  0
    4.5885   -5.4964   -4.3553 C   0  0  0  0  0  0  0  0  0  0  0  0
    4.4219   -6.4440   -3.3365 C   0  0  0  0  0  0  0  0  0  0  0  0
    4.1629   -6.0265   -2.0347 C   0  0  0  0  0  0  0  0  0  0  0  0
    4.0528   -4.6632   -1.7124 C   0  0  0  0  0  0  0  0  0  0  0  0
    3.7814   -4.3971   -0.4118 O   0  0  0  0  0  0  0  0  0  0  0  0
    4.3443   -3.2742    0.2534 C   0  0  0  0  0  0  0  0  0  0  0  0
    2.2963   -0.3657    1.7859 H   0  0  0  0  0  0  0  0  0  0  0  0
    1.4051    0.9802    1.0073 H   0  0  0  0  0  0  0  0  0  0  0  0
    3.0853    1.2324    1.5932 H   0  0  0  0  0  0  0  0  0  0  0  0
    2.5227    2.7148   -0.1175 H   0  0  0  0  0  0  0  0  0  0  0  0
    2.9427    4.1616   -2.0706 H   0  0  0  0  0  0  0  0  0  0  0  0
    3.7639    3.1801   -4.2189 H   0  0  0  0  0  0  0  0  0  0  0  0
    4.1551    0.7214   -4.3735 H   0  0  0  0  0  0  0  0  0  0  0  0
    4.5747   -3.3951   -4.8414 H   0  0  0  0  0  0  0  0  0  0  0  0
    4.8024   -5.8125   -5.3788 H   0  0  0  0  0  0  0  0  0  0  0  0
    4.5064   -7.5114   -3.5558 H   0  0  0  0  0  0  0  0  0  0  0  0
    4.0446   -6.7433   -1.2197 H   0  0  0  0  0  0  0  0  0  0  0  0
    4.3340   -3.5213    1.3255 H   0  0  0  0  0  0  0  0  0  0  0  0
    3.7677   -2.3541    0.0829 H   0  0  0  0  0  0  0  0  0  0  0  0
    5.3875   -3.1043   -0.0630 H   0  0  0  0  0  0  0  0  0  0  0  0
  1  2  1  0
  1 19  1  0
  1 20  1  0
  1 21  1  0
  2  3  1  0
  3  4  2  0
  3  8  1  0
  4  5  1  0
  4 22  1  0
  5  6  2  0
  5 23  1  0
  6  7  1  0
  6 24  1  0
  7  8  2  0
  7 25  1  0
  8  9  1  0
  9 10  3  0
 10 11  1  0
 11 12  2  0
 11 16  1  0
 12 13  1  0
 12 26  1  0
 13 14  2  0
 13 27  1  0
 14 15  1  0
 14 28  1  0
 15 16  2  0
 15 29  1  0
 16 17  1  0
 17 18  1  0
 18 30  1  0
 18 31  1  0
 18 32  1  0
M  END

