
     RDKit          3D

 37 39  0  0  0  0  0  0  0  0999 V2000
    5.4507    2.3554    0.0618 C   0  0  0  0  0  0  0  0  0  0  0  0
    4.5388    1.1546    0.0311 C   0  0  0  0  0  0  0  0  0  0  0  0
    3.1433    1.2901   -0.0245 C   0  0  0  0  0  0  0  0  0  0  0  0
    2.3366    0.1446   -0.0495 C   0  0  0  0  0  0  0  0  0  0  0  0
    0.8333    0.2346   -0.1087 C   0  0  0  0  0  0  0  0  0  0  0  0
    2.8511   -1.0915   -0.0221 N   0  0  0  0  0  0  0  0  0  0  0  0
    4.1693   -1.2345    0.0297 C   0  0  0  0  0  0  0  0  0  0  0  0
    4.7251   -2.5233    0.0592 N   0  0  0  0  0  0  0  0  0  0  0  0
    4.1095   -3.7697    0.0277 C   0  0  0  0  0  0  0  0  0  0  0  0
    2.9143   -3.9622   -0.0348 O   0  0  0  0  0  0  0  0  0  0  0  0
    5.0722   -4.9088    0.0785 C   0  0  0  0  0  0  0  0  0  0  0  0
    6.4935   -4.9949    0.1496 C   0  0  0  0  0  0  0  0  0  0  0  0
    6.9089   -6.2493    0.1796 N   0  0  0  0  0  0  0  0  0  0  0  0
    5.7842   -7.0010    0.1289 N   0  0  0  0  0  0  0  0  0  0  0  0
    5.8754   -8.4157    0.1511 C   0  0  0  0  0  0  0  0  0  0  0  0
    4.7979   -9.2223   -0.2311 C   0  0  0  0  0  0  0  0  0  0  0  0
    4.9551  -10.6064   -0.1707 C   0  0  0  0  0  0  0  0  0  0  0  0
    6.1797  -11.1284    0.2556 C   0  0  0  0  0  0  0  0  0  0  0  0
    7.2116  -10.3589    0.6108 N   0  0  0  0  0  0  0  0  0  0  0  0
    7.0679   -9.0367    0.5638 C   0  0  0  0  0  0  0  0  0  0  0  0
    4.6625   -6.2321    0.0703 C   0  0  0  0  0  0  0  0  0  0  0  0
    5.0587   -0.1403    0.0582 C   0  0  0  0  0  0  0  0  0  0  0  0
    4.8830    3.2958    0.0165 H   0  0  0  0  0  0  0  0  0  0  0  0
    6.1542    2.3411   -0.7869 H   0  0  0  0  0  0  0  0  0  0  0  0
    6.0570    2.3687    0.9827 H   0  0  0  0  0  0  0  0  0  0  0  0
    2.6872    2.2826   -0.0481 H   0  0  0  0  0  0  0  0  0  0  0  0
    0.4799    1.2753   -0.1307 H   0  0  0  0  0  0  0  0  0  0  0  0
    0.3909   -0.2757    0.7619 H   0  0  0  0  0  0  0  0  0  0  0  0
    0.4594   -0.2900   -1.0025 H   0  0  0  0  0  0  0  0  0  0  0  0
    5.7357   -2.5352    0.1101 H   0  0  0  0  0  0  0  0  0  0  0  0
    7.2361   -4.1957    0.1765 H   0  0  0  0  0  0  0  0  0  0  0  0
    3.8602   -8.7870   -0.5807 H   0  0  0  0  0  0  0  0  0  0  0  0
    4.1385  -11.2712   -0.4608 H   0  0  0  0  0  0  0  0  0  0  0  0
    6.3318  -12.2124    0.3096 H   0  0  0  0  0  0  0  0  0  0  0  0
    7.9186   -8.4155    0.8554 H   0  0  0  0  0  0  0  0  0  0  0  0
    3.6538   -6.6336    0.0445 H   0  0  0  0  0  0  0  0  0  0  0  0
    6.1401   -0.3026    0.1003 H   0  0  0  0  0  0  0  0  0  0  0  0
  1  2  1  0
  1 23  1  0
  1 24  1  0
  1 25  1  0
  2  3  2  0
  2 22  1  0
  3  4  1  0
  3 26  1  0
  4  5  1  0
  4  6  2  0
  5 27  1  0
  5 28  1  0
  5 29  1  0
  6  7  1  0
  7  8  1  0
  7 22  2  0
  8  9  1  0
  8 30  1  0
  9 10  2  0
  9 11  1  0
 11 12  1  0
 11 21  2  0
 12 13  2  0
 12 31  1  0
 13 14  1  0
 14 15  1  0
 14 21  1  0
 15 16  2  0
 15 20  1  0
 16 17  1  0
 16 32  1  0
 17 18  2  0
 17 33  1  0
 18 19  1  0
 18 34  1  0
 19 20  2  0
 20 35  1  0
 21 36  1  0
 22 37  1  0
M  END

