
     RDKit          3D

 48 50  0  0  0  0  0  0  0  0999 V2000
    2.3766    2.3908    0.7105 C   0  0  0  0  0  0  0  0  0  0  0  0
    2.7140    0.8993    0.7446 C   0  0  0  0  0  0  0  0  0  0  0  0
    4.0588    0.6030    1.4173 C   0  0  0  0  0  0  0  0  0  0  0  0
    4.4039   -0.8915    1.5383 C   0  0  1  0  0  0  0  0  0  0  0  0
    4.4559   -1.5512    0.1467 C   0  0  0  0  0  0  0  0  0  0  0  0
    3.6369   -2.3790   -0.2264 O   0  0  0  0  0  0  0  0  0  0  0  0
    5.4779   -1.1223   -0.6544 N   0  0  0  0  0  0  0  0  0  0  0  0
    5.6490   -1.5433   -2.0343 C   0  0  0  0  0  0  0  0  0  0  0  0
    6.6907   -2.6670   -2.2001 C   0  0  1  0  0  0  0  0  0  0  0  0
    6.2733   -4.0002   -1.5402 C   0  0  0  0  0  0  0  0  0  0  0  0
    6.8089   -5.0844   -2.4818 C   0  0  0  0  0  0  0  0  0  0  0  0
    6.6527   -4.4509   -3.8685 C   0  0  0  0  0  0  0  0  0  0  0  0
    6.8848   -3.0293   -3.6181 N   0  0  0  0  0  0  0  0  0  0  0  0
    7.4977   -2.1944   -4.5110 C   0  0  0  0  0  0  0  0  0  0  0  0
    7.6662   -2.5329   -5.8826 C   0  0  0  0  0  0  0  0  0  0  0  0
    8.3229   -1.6189   -6.6801 C   0  0  0  0  0  0  0  0  0  0  0  0
    8.7662   -0.4228   -6.0904 C   0  0  0  0  0  0  0  0  0  0  0  0
    8.5598   -0.1476   -4.8064 N   0  0  0  0  0  0  0  0  0  0  0  0
    7.9389   -1.0117   -4.0259 N   0  0  0  0  0  0  0  0  0  0  0  0
    5.6592   -1.2440    2.4091 C   0  0  0  0  0  0  0  0  0  0  0  0
    4.8317   -2.3435    3.1196 C   0  0  0  0  0  0  0  0  0  0  0  0
    3.5402   -1.7303    2.5231 C   0  0  0  0  0  0  0  0  0  0  0  0
    1.4063    2.5732    0.2219 H   0  0  0  0  0  0  0  0  0  0  0  0
    3.1398    2.9634    0.1566 H   0  0  0  0  0  0  0  0  0  0  0  0
    2.3217    2.8151    1.7273 H   0  0  0  0  0  0  0  0  0  0  0  0
    2.7174    0.4986   -0.2837 H   0  0  0  0  0  0  0  0  0  0  0  0
    1.9159    0.3500    1.2741 H   0  0  0  0  0  0  0  0  0  0  0  0
    4.0589    1.0320    2.4358 H   0  0  0  0  0  0  0  0  0  0  0  0
    4.8647    1.1306    0.8730 H   0  0  0  0  0  0  0  0  0  0  0  0
    6.1253   -0.4361   -0.2860 H   0  0  0  0  0  0  0  0  0  0  0  0
    5.9711   -0.6788   -2.6304 H   0  0  0  0  0  0  0  0  0  0  0  0
    4.6730   -1.8908   -2.4030 H   0  0  0  0  0  0  0  0  0  0  0  0
    7.6516   -2.3009   -1.7956 H   0  0  0  0  0  0  0  0  0  0  0  0
    5.1760   -4.0502   -1.4689 H   0  0  0  0  0  0  0  0  0  0  0  0
    6.6657   -4.0911   -0.5173 H   0  0  0  0  0  0  0  0  0  0  0  0
    6.2734   -6.0412   -2.3908 H   0  0  0  0  0  0  0  0  0  0  0  0
    7.8767   -5.2770   -2.2852 H   0  0  0  0  0  0  0  0  0  0  0  0
    5.6420   -4.6324   -4.2832 H   0  0  0  0  0  0  0  0  0  0  0  0
    7.3817   -4.8478   -4.5922 H   0  0  0  0  0  0  0  0  0  0  0  0
    7.2773   -3.4659   -6.2913 H   0  0  0  0  0  0  0  0  0  0  0  0
    8.4860   -1.8119   -7.7434 H   0  0  0  0  0  0  0  0  0  0  0  0
    9.2943    0.3430   -6.6657 H   0  0  0  0  0  0  0  0  0  0  0  0
    5.9250   -0.4122    3.0807 H   0  0  0  0  0  0  0  0  0  0  0  0
    6.5696   -1.5621    1.8767 H   0  0  0  0  0  0  0  0  0  0  0  0
    4.9073   -2.3872    4.2167 H   0  0  0  0  0  0  0  0  0  0  0  0
    5.0387   -3.3477    2.7190 H   0  0  0  0  0  0  0  0  0  0  0  0
    3.0069   -1.0886    3.2416 H   0  0  0  0  0  0  0  0  0  0  0  0
    2.8284   -2.4186    2.0491 H   0  0  0  0  0  0  0  0  0  0  0  0
  1  2  1  0
  1 23  1  0
  1 24  1  0
  1 25  1  0
  2  3  1  0
  2 26  1  0
  2 27  1  0
  3  4  1  0
  3 28  1  0
  3 29  1  0
  4  5  1  6
  4 20  1  0
  4 22  1  0
  5  6  2  0
  5  7  1  0
  7  8  1  0
  7 30  1  0
  8  9  1  0
  8 31  1  0
  8 32  1  0
  9 10  1  0
  9 13  1  0
  9 33  1  1
 10 11  1  0
 10 34  1  0
 10 35  1  0
 11 12  1  0
 11 36  1  0
 11 37  1  0
 12 13  1  0
 12 38  1  0
 12 39  1  0
 13 14  1  0
 14 15  2  0
 14 19  1  0
 15 16  1  0
 15 40  1  0
 16 17  2  0
 16 41  1  0
 17 18  1  0
 17 42  1  0
 18 19  2  0
 20 21  1  0
 20 43  1  0
 20 44  1  0
 21 22  1  0
 21 45  1  0
 21 46  1  0
 22 47  1  0
 22 48  1  0
M  END

