
     RDKit          3D

 47 48  0  0  0  0  0  0  0  0999 V2000
    5.5668   -5.2862    4.1491 C   0  0  0  0  0  0  0  0  0  0  0  0
    5.9195   -4.1711    3.1724 C   0  0  0  0  0  0  0  0  0  0  0  0
    4.7623   -3.3273    2.9151 N   0  0  0  0  0  0  0  0  0  0  0  0
    4.8212   -2.1301    2.2878 C   0  0  0  0  0  0  0  0  0  0  0  0
    6.0299   -1.6599    1.9292 N   0  0  0  0  0  0  0  0  0  0  0  0
    6.1178   -0.4757    1.3197 C   0  0  0  0  0  0  0  0  0  0  0  0
    7.5282    0.0720    1.0023 C   0  0  1  0  0  0  0  0  0  0  0  0
    7.8670    1.0173    2.0278 O   0  0  0  0  0  0  0  0  0  0  0  0
    8.0630    0.5691    3.3552 C   0  0  0  0  0  0  0  0  0  0  0  0
    8.2961    1.7930    4.2249 C   0  0  0  0  0  0  0  0  0  0  0  0
    8.5829   -1.0430    0.8802 C   0  0  0  0  0  0  0  0  0  0  0  0
    8.4161   -1.8853   -0.3925 C   0  0  0  0  0  0  0  0  0  0  0  0
    8.3931   -1.0668   -1.7064 C   0  0  2  0  0  0  0  0  0  0  0  0
    7.9845   -1.9862   -2.8695 C   0  0  0  0  0  0  0  0  0  0  0  0
    9.7869   -0.4844   -2.0134 C   0  0  0  0  0  0  0  0  0  0  0  0
    7.3463    0.0640   -1.5526 C   0  0  0  0  0  0  0  0  0  0  0  0
    7.5215    0.9081   -0.2873 C   0  0  0  0  0  0  0  0  0  0  0  0
    5.0813    0.3078    1.0129 N   0  0  0  0  0  0  0  0  0  0  0  0
    3.8670   -0.1358    1.3545 C   0  0  0  0  0  0  0  0  0  0  0  0
    3.6678   -1.3476    1.9978 C   0  0  0  0  0  0  0  0  0  0  0  0
    1.7066   -1.9887    2.5100 I   0  0  0  0  0  0  0  0  0  0  0  0
    6.4457   -5.9207    4.3377 H   0  0  0  0  0  0  0  0  0  0  0  0
    4.7696   -5.9358    3.7499 H   0  0  0  0  0  0  0  0  0  0  0  0
    5.2260   -4.8789    5.1145 H   0  0  0  0  0  0  0  0  0  0  0  0
    6.3041   -4.5958    2.2262 H   0  0  0  0  0  0  0  0  0  0  0  0
    6.7292   -3.5421    3.5728 H   0  0  0  0  0  0  0  0  0  0  0  0
    3.8401   -3.7015    3.1093 H   0  0  0  0  0  0  0  0  0  0  0  0
    8.9327   -0.1132    3.4212 H   0  0  0  0  0  0  0  0  0  0  0  0
    7.1854    0.0028    3.7214 H   0  0  0  0  0  0  0  0  0  0  0  0
    9.1751    2.3551    3.8730 H   0  0  0  0  0  0  0  0  0  0  0  0
    8.4660    1.4981    5.2727 H   0  0  0  0  0  0  0  0  0  0  0  0
    7.4252    2.4655    4.1854 H   0  0  0  0  0  0  0  0  0  0  0  0
    8.5423   -1.7058    1.7553 H   0  0  0  0  0  0  0  0  0  0  0  0
    9.5678   -0.5476    0.8898 H   0  0  0  0  0  0  0  0  0  0  0  0
    7.4737   -2.4546   -0.3161 H   0  0  0  0  0  0  0  0  0  0  0  0
    9.2223   -2.6385   -0.4408 H   0  0  0  0  0  0  0  0  0  0  0  0
    8.7038   -2.8126   -2.9967 H   0  0  0  0  0  0  0  0  0  0  0  0
    7.9428   -1.4298   -3.8207 H   0  0  0  0  0  0  0  0  0  0  0  0
    6.9901   -2.4304   -2.6976 H   0  0  0  0  0  0  0  0  0  0  0  0
   10.5309   -1.2904   -2.1274 H   0  0  0  0  0  0  0  0  0  0  0  0
   10.1501    0.1902   -1.2238 H   0  0  0  0  0  0  0  0  0  0  0  0
    9.7712    0.0898   -2.9546 H   0  0  0  0  0  0  0  0  0  0  0  0
    6.3378   -0.3863   -1.5468 H   0  0  0  0  0  0  0  0  0  0  0  0
    7.3775    0.7205   -2.4396 H   0  0  0  0  0  0  0  0  0  0  0  0
    6.7218    1.6565   -0.2089 H   0  0  0  0  0  0  0  0  0  0  0  0
    8.4777    1.4540   -0.3061 H   0  0  0  0  0  0  0  0  0  0  0  0
    3.0134    0.5031    1.1016 H   0  0  0  0  0  0  0  0  0  0  0  0
  1  2  1  0
  1 22  1  0
  1 23  1  0
  1 24  1  0
  2  3  1  0
  2 25  1  0
  2 26  1  0
  3  4  1  0
  3 27  1  0
  4  5  2  0
  4 20  1  0
  5  6  1  0
  6  7  1  0
  6 18  2  0
  7  8  1  1
  7 11  1  0
  7 17  1  0
  8  9  1  0
  9 10  1  0
  9 28  1  0
  9 29  1  0
 10 30  1  0
 10 31  1  0
 10 32  1  0
 11 12  1  0
 11 33  1  0
 11 34  1  0
 12 13  1  0
 12 35  1  0
 12 36  1  0
 13 14  1  6
 13 15  1  0
 13 16  1  0
 14 37  1  0
 14 38  1  0
 14 39  1  0
 15 40  1  0
 15 41  1  0
 15 42  1  0
 16 17  1  0
 16 43  1  0
 16 44  1  0
 17 45  1  0
 17 46  1  0
 18 19  1  0
 19 20  2  0
 19 47  1  0
 20 21  1  0
M  END

