
     RDKit          3D

 39 40  0  0  0  0  0  0  0  0999 V2000
    2.2917    4.3065    0.7033 C   0  0  0  0  0  0  0  0  0  0  0  0
    1.5142    3.4721    1.7252 C   0  0  0  0  0  0  0  0  0  0  0  0
    1.7675    2.0306    1.6705 N   0  0  0  0  0  0  0  0  0  0  0  0
    0.9726    1.1966    0.7559 C   0  0  0  0  0  0  0  0  0  0  0  0
    1.5346    1.0345   -0.6350 C   0  0  0  0  0  0  0  0  0  0  0  0
    2.6175    0.2860   -1.0303 C   0  0  0  0  0  0  0  0  0  0  0  0
    2.8858    0.3601   -2.4306 C   0  0  0  0  0  0  0  0  0  0  0  0
    1.9919    1.1676   -3.0865 C   0  0  0  0  0  0  0  0  0  0  0  0
    1.9426    1.5196   -4.7755 Cl  0  0  0  0  0  0  0  0  0  0  0  0
    0.8108    1.8480   -2.0038 S   0  0  0  0  0  0  0  0  0  0  0  0
    2.7594    1.4045    2.3690 C   0  0  0  0  0  0  0  0  0  0  0  0
    3.0146    0.2161    2.2432 O   0  0  0  0  0  0  0  0  0  0  0  0
    3.5634    2.2560    3.3776 C   0  0  0  0  0  0  0  0  0  0  0  0
    4.5948    1.4553    3.9843 N   0  0  0  0  0  0  0  0  0  0  0  0
    5.8225    1.1997    3.3924 C   0  0  0  0  0  0  0  0  0  0  0  0
    6.2935    1.7437    2.4301 O   0  0  0  0  0  0  0  0  0  0  0  0
    6.4444    0.0729    4.2535 C   0  0  0  0  0  0  0  0  0  0  0  0
    7.5284   -0.4325    4.1303 O   0  0  0  0  0  0  0  0  0  0  0  0
    5.4763   -0.2244    5.2007 N   0  0  0  0  0  0  0  0  0  0  0  0
    5.5977   -1.2647    6.2185 C   0  0  0  0  0  0  0  0  0  0  0  0
    5.0115   -2.6045    5.7781 C   0  0  0  0  0  0  0  0  0  0  0  0
    4.3381    0.5736    5.0455 C   0  0  0  0  0  0  0  0  0  0  0  0
    3.3364    0.5388    5.7122 O   0  0  0  0  0  0  0  0  0  0  0  0
    2.0515    5.3744    0.8296 H   0  0  0  0  0  0  0  0  0  0  0  0
    2.0377    4.0184   -0.3269 H   0  0  0  0  0  0  0  0  0  0  0  0
    3.3794    4.1854    0.8263 H   0  0  0  0  0  0  0  0  0  0  0  0
    0.4314    3.6181    1.5787 H   0  0  0  0  0  0  0  0  0  0  0  0
    1.7218    3.8339    2.7432 H   0  0  0  0  0  0  0  0  0  0  0  0
   -0.0400    1.6249    0.7102 H   0  0  0  0  0  0  0  0  0  0  0  0
    0.8982    0.2022    1.2174 H   0  0  0  0  0  0  0  0  0  0  0  0
    3.2062   -0.2966   -0.3205 H   0  0  0  0  0  0  0  0  0  0  0  0
    3.6979   -0.1617   -2.9370 H   0  0  0  0  0  0  0  0  0  0  0  0
    2.9014    2.6332    4.1707 H   0  0  0  0  0  0  0  0  0  0  0  0
    4.0434    3.1092    2.8779 H   0  0  0  0  0  0  0  0  0  0  0  0
    5.0913   -0.8964    7.1226 H   0  0  0  0  0  0  0  0  0  0  0  0
    6.6718   -1.3599    6.4359 H   0  0  0  0  0  0  0  0  0  0  0  0
    3.9376   -2.5103    5.5571 H   0  0  0  0  0  0  0  0  0  0  0  0
    5.1326   -3.3479    6.5816 H   0  0  0  0  0  0  0  0  0  0  0  0
    5.5238   -2.9844    4.8811 H   0  0  0  0  0  0  0  0  0  0  0  0
  1  2  1  0
  1 24  1  0
  1 25  1  0
  1 26  1  0
  2  3  1  0
  2 27  1  0
  2 28  1  0
  3  4  1  0
  3 11  1  0
  4  5  1  0
  4 29  1  0
  4 30  1  0
  5  6  2  0
  5 10  1  0
  6  7  1  0
  6 31  1  0
  7  8  2  0
  7 32  1  0
  8  9  1  0
  8 10  1  0
 11 12  2  0
 11 13  1  0
 13 14  1  0
 13 33  1  0
 13 34  1  0
 14 15  1  0
 14 22  1  0
 15 16  2  0
 15 17  1  0
 17 18  2  0
 17 19  1  0
 19 20  1  0
 19 22  1  0
 20 21  1  0
 20 35  1  0
 20 36  1  0
 21 37  1  0
 21 38  1  0
 21 39  1  0
 22 23  2  0
M  END

