
     RDKit          3D

 38 42  0  0  0  0  0  0  0  0999 V2000
    4.9793    1.5095   -0.5164 O   0  0  0  0  0  0  0  0  0  0  0  0
    4.8342    0.7074    0.3664 C   0  0  0  0  0  0  0  0  0  0  0  0
    3.4974    0.0686    0.7103 C   0  0  0  0  0  0  0  0  0  0  0  0
    3.4396   -1.4196    0.3372 C   0  0  0  0  0  0  0  0  0  0  0  0
    4.3545   -2.3804    1.0729 C   0  0  0  0  0  0  0  0  0  0  0  0
    4.1112   -3.7718    0.8376 C   0  0  0  0  0  0  0  0  0  0  0  0
    4.8991   -4.6959    1.4631 C   0  0  0  0  0  0  0  0  0  0  0  0
    5.9081   -4.3041    2.3083 N   0  0  0  0  0  0  0  0  0  0  0  0
    6.2210   -2.9772    2.6053 C   0  0  0  0  0  0  0  0  0  0  0  0
    7.1298   -2.7256    3.3905 O   0  0  0  0  0  0  0  0  0  0  0  0
    5.3838   -1.9881    1.9113 C   0  0  0  0  0  0  0  0  0  0  0  0
    5.7615   -0.5566    2.2189 C   0  0  0  0  0  0  0  0  0  0  0  0
    5.9068    0.2933    1.0773 O   0  0  0  0  0  0  0  0  0  0  0  0
    6.6468   -5.4270    2.8967 C   0  0  0  0  0  0  0  0  0  0  0  0
    5.9530   -6.6162    2.2880 C   0  0  0  0  0  0  0  0  0  0  0  0
    6.1555   -7.9678    2.4185 C   0  0  0  0  0  0  0  0  0  0  0  0
    5.3043   -8.8463    1.6900 C   0  0  0  0  0  0  0  0  0  0  0  0
    5.4326  -10.2602    1.7574 C   0  0  0  0  0  0  0  0  0  0  0  0
    4.5857  -11.0635    1.0350 C   0  0  0  0  0  0  0  0  0  0  0  0
    4.6868  -12.3908    1.0822 F   0  0  0  0  0  0  0  0  0  0  0  0
    3.5728  -10.4984    0.2128 C   0  0  0  0  0  0  0  0  0  0  0  0
    2.7832  -11.3310   -0.4628 F   0  0  0  0  0  0  0  0  0  0  0  0
    3.4181   -9.1387    0.1218 C   0  0  0  0  0  0  0  0  0  0  0  0
    4.2769   -8.2720    0.8558 C   0  0  0  0  0  0  0  0  0  0  0  0
    4.0938   -6.9306    0.7404 N   0  0  0  0  0  0  0  0  0  0  0  0
    4.9037   -6.1631    1.4310 C   0  0  0  0  0  0  0  0  0  0  0  0
    2.7398    0.6160    0.1349 H   0  0  0  0  0  0  0  0  0  0  0  0
    3.2618    0.2041    1.7781 H   0  0  0  0  0  0  0  0  0  0  0  0
    2.4042   -1.7736    0.4771 H   0  0  0  0  0  0  0  0  0  0  0  0
    3.6355   -1.5254   -0.7454 H   0  0  0  0  0  0  0  0  0  0  0  0
    3.3140   -4.1099    0.1754 H   0  0  0  0  0  0  0  0  0  0  0  0
    6.7463   -0.5698    2.7004 H   0  0  0  0  0  0  0  0  0  0  0  0
    5.0610   -0.0999    2.9401 H   0  0  0  0  0  0  0  0  0  0  0  0
    6.5832   -5.3878    3.9974 H   0  0  0  0  0  0  0  0  0  0  0  0
    7.7172   -5.3530    2.6396 H   0  0  0  0  0  0  0  0  0  0  0  0
    6.9413   -8.3804    3.0574 H   0  0  0  0  0  0  0  0  0  0  0  0
    6.2008  -10.7238    2.3798 H   0  0  0  0  0  0  0  0  0  0  0  0
    2.6403   -8.7095   -0.5104 H   0  0  0  0  0  0  0  0  0  0  0  0
  1  2  2  0
  2  3  1  0
  2 13  1  0
  3  4  1  0
  3 27  1  0
  3 28  1  0
  4  5  1  0
  4 29  1  0
  4 30  1  0
  5  6  1  0
  5 11  2  0
  6  7  2  0
  6 31  1  0
  7  8  1  0
  7 26  1  0
  8  9  1  0
  8 14  1  0
  9 10  2  0
  9 11  1  0
 11 12  1  0
 12 13  1  0
 12 32  1  0
 12 33  1  0
 14 15  1  0
 14 34  1  0
 14 35  1  0
 15 16  1  0
 15 26  2  0
 16 17  2  0
 16 36  1  0
 17 18  1  0
 17 24  1  0
 18 19  2  0
 18 37  1  0
 19 20  1  0
 19 21  1  0
 21 22  1  0
 21 23  2  0
 23 24  1  0
 23 38  1  0
 24 25  2  0
 25 26  1  0
M  END

