
     RDKit          3D

 39 41  0  0  0  0  0  0  0  0999 V2000
    5.6548    1.2393    3.3194 C   0  0  0  0  0  0  0  0  0  0  0  0
    5.2309    0.3365    2.1855 C   0  0  0  0  0  0  0  0  0  0  0  0
    4.4449    0.8118    1.1272 C   0  0  0  0  0  0  0  0  0  0  0  0
    4.0666   -0.0392    0.0831 C   0  0  0  0  0  0  0  0  0  0  0  0
    4.4693   -1.3746    0.0785 C   0  0  0  0  0  0  0  0  0  0  0  0
    5.2581   -1.8764    1.1274 C   0  0  0  0  0  0  0  0  0  0  0  0
    5.7392   -3.3141    1.1153 C   0  0  0  0  0  0  0  0  0  0  0  0
    4.6784   -4.2331    0.7774 N   0  0  0  0  0  0  0  0  0  0  0  0
    4.8614   -5.5676    0.5213 C   0  0  0  0  0  0  0  0  0  0  0  0
    6.1599   -6.1378    0.4934 C   0  0  0  0  0  0  0  0  0  0  0  0
    6.3567   -7.4839    0.2025 C   0  0  0  0  0  0  0  0  0  0  0  0
    5.2697   -8.3251   -0.0625 C   0  0  0  0  0  0  0  0  0  0  0  0
    3.9858   -7.7892   -0.0246 C   0  0  0  0  0  0  0  0  0  0  0  0
    3.7490   -6.4336    0.2634 C   0  0  0  0  0  0  0  0  0  0  0  0
    2.3565   -5.9603    0.2869 C   0  0  0  0  0  0  0  0  0  0  0  0
    1.3221   -6.7463   -0.0116 N   0  0  0  0  0  0  0  0  0  0  0  0
    0.2660   -5.9262    0.1474 N   0  0  0  0  0  0  0  0  0  0  0  0
   -0.6727   -6.2681   -0.0243 H   0  0  0  0  0  0  0  0  0  0  0  0
    0.6571   -4.6884    0.5262 C   0  0  0  0  0  0  0  0  0  0  0  0
   -0.2703   -3.5531    0.8043 C   0  0  0  0  0  0  0  0  0  0  0  0
    1.9750   -4.6815    0.6218 N   0  0  0  0  0  0  0  0  0  0  0  0
    5.6225   -1.0131    2.1670 C   0  0  0  0  0  0  0  0  0  0  0  0
    5.1764    2.2275    3.2510 H   0  0  0  0  0  0  0  0  0  0  0  0
    6.7471    1.3967    3.3182 H   0  0  0  0  0  0  0  0  0  0  0  0
    5.3955    0.8046    4.2988 H   0  0  0  0  0  0  0  0  0  0  0  0
    4.1233    1.8573    1.1208 H   0  0  0  0  0  0  0  0  0  0  0  0
    3.4533    0.3465   -0.7360 H   0  0  0  0  0  0  0  0  0  0  0  0
    4.1699   -2.0388   -0.7356 H   0  0  0  0  0  0  0  0  0  0  0  0
    6.2003   -3.5527    2.0958 H   0  0  0  0  0  0  0  0  0  0  0  0
    6.5558   -3.4036    0.3721 H   0  0  0  0  0  0  0  0  0  0  0  0
    3.7114   -3.9331    0.9070 H   0  0  0  0  0  0  0  0  0  0  0  0
    7.0254   -5.5104    0.7064 H   0  0  0  0  0  0  0  0  0  0  0  0
    7.3754   -7.8818    0.1891 H   0  0  0  0  0  0  0  0  0  0  0  0
    5.4221   -9.3827   -0.2880 H   0  0  0  0  0  0  0  0  0  0  0  0
    3.1186   -8.4229   -0.2193 H   0  0  0  0  0  0  0  0  0  0  0  0
   -1.2860   -3.7616    0.4373 H   0  0  0  0  0  0  0  0  0  0  0  0
    0.0986   -2.6371    0.3205 H   0  0  0  0  0  0  0  0  0  0  0  0
   -0.3284   -3.3525    1.8865 H   0  0  0  0  0  0  0  0  0  0  0  0
    6.2283   -1.4024    2.9919 H   0  0  0  0  0  0  0  0  0  0  0  0
  1  2  1  0
  1 23  1  0
  1 24  1  0
  1 25  1  0
  2  3  2  0
  2 22  1  0
  3  4  1  0
  3 26  1  0
  4  5  2  0
  4 27  1  0
  5  6  1  0
  5 28  1  0
  6  7  1  0
  6 22  2  0
  7  8  1  0
  7 29  1  0
  7 30  1  0
  8  9  1  0
  8 31  1  0
  9 10  2  0
  9 14  1  0
 10 11  1  0
 10 32  1  0
 11 12  2  0
 11 33  1  0
 12 13  1  0
 12 34  1  0
 13 14  2  0
 13 35  1  0
 14 15  1  0
 15 16  2  0
 15 21  1  0
 16 17  1  0
 17 18  1  0
 17 19  1  0
 19 20  1  0
 19 21  2  0
 20 36  1  0
 20 37  1  0
 20 38  1  0
 22 39  1  0
M  END

