
     RDKit          3D

 34 34  0  0  0  0  0  0  0  0999 V2000
    1.3445    0.6304   -0.3186 C   0  0  0  0  0  0  0  0  0  0  0  0
    2.6257   -0.1932   -0.2681 C   0  0  1  0  0  0  0  0  0  0  0  0
    3.7830    0.6202    0.1515 N   0  0  0  0  0  0  0  0  0  0  0  0
    4.6257   -0.2321    0.9837 C   0  0  0  0  0  0  0  0  0  0  0  0
    3.6406   -1.1286    1.7538 C   0  0  0  0  0  0  0  0  0  0  0  0
    2.5533   -1.4286    0.7027 C   0  0  2  0  0  0  0  0  0  0  0  0
    2.9000   -2.7018    0.0219 N   0  0  0  0  0  0  0  0  0  0  0  0
    1.6930   -3.4751   -0.8996 S   0  0  1  0  0  0  0  0  0  0  0  0
    1.2823   -4.6885   -0.1753 O   0  0  0  0  0  0  0  0  0  0  0  0
    0.6983   -2.4552   -1.2663 O   0  0  0  0  0  0  0  0  0  0  0  0
    2.5625   -4.0366   -2.4499 C   0  0  1  0  0  0  0  0  0  0  0  0
    3.7062   -4.9688   -2.0389 C   0  0  0  0  0  0  0  0  0  0  0  0
    1.4823   -4.7870   -3.2446 C   0  0  0  0  0  0  0  0  0  0  0  0
    3.0657   -2.8094   -3.2111 C   0  0  0  0  0  0  0  0  0  0  0  0
    1.4812    1.5128   -0.9639 H   0  0  0  0  0  0  0  0  0  0  0  0
    1.0609    0.9859    0.6880 H   0  0  0  0  0  0  0  0  0  0  0  0
    0.5194    0.0255   -0.7186 H   0  0  0  0  0  0  0  0  0  0  0  0
    2.8251   -0.5890   -1.2763 H   0  0  0  0  0  0  0  0  0  0  0  0
    3.4523    1.4087    0.7078 H   0  0  0  0  0  0  0  0  0  0  0  0
    5.2804    0.3682    1.6341 H   0  0  0  0  0  0  0  0  0  0  0  0
    5.2779   -0.8542    0.3445 H   0  0  0  0  0  0  0  0  0  0  0  0
    3.1909   -0.5583    2.5834 H   0  0  0  0  0  0  0  0  0  0  0  0
    4.0877   -2.0378    2.1888 H   0  0  0  0  0  0  0  0  0  0  0  0
    1.5563   -1.5013    1.1672 H   0  0  0  0  0  0  0  0  0  0  0  0
    3.2211   -3.4012    0.6916 H   0  0  0  0  0  0  0  0  0  0  0  0
    3.3345   -5.8158   -1.4446 H   0  0  0  0  0  0  0  0  0  0  0  0
    4.4714   -4.4320   -1.4580 H   0  0  0  0  0  0  0  0  0  0  0  0
    4.1897   -5.3677   -2.9453 H   0  0  0  0  0  0  0  0  0  0  0  0
    1.0996   -5.6484   -2.6792 H   0  0  0  0  0  0  0  0  0  0  0  0
    1.9190   -5.1517   -4.1881 H   0  0  0  0  0  0  0  0  0  0  0  0
    0.6380   -4.1250   -3.4864 H   0  0  0  0  0  0  0  0  0  0  0  0
    3.8240   -2.2605   -2.6345 H   0  0  0  0  0  0  0  0  0  0  0  0
    2.2403   -2.1246   -3.4522 H   0  0  0  0  0  0  0  0  0  0  0  0
    3.5281   -3.1389   -4.1558 H   0  0  0  0  0  0  0  0  0  0  0  0
  1  2  1  0
  1 15  1  0
  1 16  1  0
  1 17  1  0
  2  3  1  0
  2  6  1  0
  2 18  1  6
  3  4  1  0
  3 19  1  0
  4  5  1  0
  4 20  1  0
  4 21  1  0
  5  6  1  0
  5 22  1  0
  5 23  1  0
  6  7  1  0
  6 24  1  1
  8  7  1  1
  7 25  1  0
  8  9  2  0
  8 10  2  0
  8 11  1  0
 11 12  1  1
 11 13  1  0
 11 14  1  0
 12 26  1  0
 12 27  1  0
 12 28  1  0
 13 29  1  0
 13 30  1  0
 13 31  1  0
 14 32  1  0
 14 33  1  0
 14 34  1  0
M  END

