
     RDKit          3D

 41 43  0  0  0  0  0  0  0  0999 V2000
    0.5563   -0.4181    0.4966 C   0  0  0  0  0  0  0  0  0  0  0  0
    1.6826   -0.4426   -0.5220 C   0  0  0  0  0  0  0  0  0  0  0  0
    1.9938    0.5658   -1.1274 O   0  0  0  0  0  0  0  0  0  0  0  0
    2.4054   -1.7364   -0.7679 C   0  0  0  0  0  0  0  0  0  0  0  0
    3.4460   -1.7451   -1.7136 C   0  0  0  0  0  0  0  0  0  0  0  0
    4.1488   -2.9147   -1.9803 C   0  0  0  0  0  0  0  0  0  0  0  0
    3.8281   -4.1076   -1.3069 C   0  0  0  0  0  0  0  0  0  0  0  0
    4.5997   -5.2392   -1.6480 N   0  0  0  0  0  0  0  0  0  0  0  0
    4.3003   -6.2989   -1.0403 N   0  0  0  0  0  0  0  0  0  0  0  0
    5.0563   -7.4310   -1.3660 C   0  0  0  0  0  0  0  0  0  0  0  0
    6.1096   -7.4537   -2.3076 C   0  0  0  0  0  0  0  0  0  0  0  0
    6.8009   -8.6258   -2.5521 C   0  0  0  0  0  0  0  0  0  0  0  0
    6.4747   -9.8306   -1.8751 C   0  0  0  0  0  0  0  0  0  0  0  0
    7.1921  -10.9704   -2.1952 N   0  0  0  0  0  0  0  0  0  0  0  0
    7.2748  -12.2086   -1.5412 C   0  0  0  0  0  0  0  0  0  0  0  0
    7.5416  -13.3563   -2.3134 C   0  0  0  0  0  0  0  0  0  0  0  0
    7.6842  -14.6043   -1.7083 C   0  0  0  0  0  0  0  0  0  0  0  0
    7.5503  -14.7401   -0.3228 C   0  0  0  0  0  0  0  0  0  0  0  0
    7.2910  -13.6038    0.4489 C   0  0  0  0  0  0  0  0  0  0  0  0
    7.1623  -12.3463   -0.1445 C   0  0  0  0  0  0  0  0  0  0  0  0
    5.4113   -9.8079   -0.9458 C   0  0  0  0  0  0  0  0  0  0  0  0
    4.7240   -8.6246   -0.7014 C   0  0  0  0  0  0  0  0  0  0  0  0
    2.7866   -4.1075   -0.3578 C   0  0  0  0  0  0  0  0  0  0  0  0
    2.0880   -2.9344   -0.0960 C   0  0  0  0  0  0  0  0  0  0  0  0
    0.1479    0.5993    0.5446 H   0  0  0  0  0  0  0  0  0  0  0  0
    0.9179   -0.7148    1.4945 H   0  0  0  0  0  0  0  0  0  0  0  0
   -0.2451   -1.1213    0.2177 H   0  0  0  0  0  0  0  0  0  0  0  0
    3.6814   -0.8108   -2.2266 H   0  0  0  0  0  0  0  0  0  0  0  0
    4.9599   -2.9400   -2.7111 H   0  0  0  0  0  0  0  0  0  0  0  0
    6.3650   -6.5287   -2.8259 H   0  0  0  0  0  0  0  0  0  0  0  0
    7.6223   -8.6315   -3.2753 H   0  0  0  0  0  0  0  0  0  0  0  0
    7.7139  -10.9139   -3.0619 H   0  0  0  0  0  0  0  0  0  0  0  0
    7.6301  -13.2617   -3.3995 H   0  0  0  0  0  0  0  0  0  0  0  0
    7.8920  -15.4801   -2.3285 H   0  0  0  0  0  0  0  0  0  0  0  0
    7.6529  -15.7192    0.1502 H   0  0  0  0  0  0  0  0  0  0  0  0
    7.2023  -13.6897    1.5351 H   0  0  0  0  0  0  0  0  0  0  0  0
    7.0033  -11.4676    0.4807 H   0  0  0  0  0  0  0  0  0  0  0  0
    5.1068  -10.7221   -0.4379 H   0  0  0  0  0  0  0  0  0  0  0  0
    3.8957   -8.5999    0.0101 H   0  0  0  0  0  0  0  0  0  0  0  0
    2.5493   -5.0393    0.1561 H   0  0  0  0  0  0  0  0  0  0  0  0
    1.2841   -2.9535    0.6428 H   0  0  0  0  0  0  0  0  0  0  0  0
  1  2  1  0
  1 25  1  0
  1 26  1  0
  1 27  1  0
  2  3  2  0
  2  4  1  0
  4  5  2  0
  4 24  1  0
  5  6  1  0
  5 28  1  0
  6  7  2  0
  6 29  1  0
  7  8  1  0
  7 23  1  0
  8  9  2  0
  9 10  1  0
 10 11  2  0
 10 22  1  0
 11 12  1  0
 11 30  1  0
 12 13  2  0
 12 31  1  0
 13 14  1  0
 13 21  1  0
 14 15  1  0
 14 32  1  0
 15 16  2  0
 15 20  1  0
 16 17  1  0
 16 33  1  0
 17 18  2  0
 17 34  1  0
 18 19  1  0
 18 35  1  0
 19 20  2  0
 19 36  1  0
 20 37  1  0
 21 22  2  0
 21 38  1  0
 22 39  1  0
 23 24  2  0
 23 40  1  0
 24 41  1  0
M  END

