
     RDKit          3D

 57 60  0  0  0  0  0  0  0  0999 V2000
    3.7000    1.9280    0.2028 N   0  0  0  0  0  0  0  0  0  0  0  0
    3.3380    0.6705    0.5396 C   0  0  0  0  0  0  0  0  0  0  0  0
    2.1976    0.2291    0.4123 O   0  0  0  0  0  0  0  0  0  0  0  0
    4.4440   -0.1710    1.1016 C   0  0  0  0  0  0  0  0  0  0  0  0
    5.6413    0.3453    1.3009 N   0  0  0  0  0  0  0  0  0  0  0  0
    6.6509   -0.7585    1.9990 S   0  0  0  0  0  0  0  0  0  0  0  0
    5.4734   -2.0482    1.9951 C   0  0  0  0  0  0  0  0  0  0  0  0
    5.8345   -3.3143    2.6693 C   0  0  0  0  0  0  0  0  0  0  0  0
    6.6568   -3.3028    3.5769 O   0  0  0  0  0  0  0  0  0  0  0  0
    5.2028   -4.4838    2.2270 N   0  0  0  0  0  0  0  0  0  0  0  0
    4.9619   -4.6826    0.7915 C   0  0  0  0  0  0  0  0  0  0  0  0
    6.1697   -5.1097   -0.0627 C   0  0  0  0  0  0  0  0  0  0  0  0
    5.9995   -5.3403   -1.2488 O   0  0  0  0  0  0  0  0  0  0  0  0
    7.3722   -5.1920    0.5613 N   0  0  0  0  0  0  0  0  0  0  0  0
    8.5940   -5.5825   -0.1510 C   0  0  1  0  0  0  0  0  0  0  0  0
    9.2300   -4.3860   -0.8796 C   0  0  0  0  0  0  0  0  0  0  0  0
    9.6833   -3.2735    0.0881 C   0  0  0  0  0  0  0  0  0  0  0  0
   10.1957   -3.8322    1.4381 C   0  0  0  0  0  0  0  0  0  0  0  0
   10.7180   -5.2661    1.2899 C   0  0  0  0  0  0  0  0  0  0  0  0
    9.6104   -6.2343    0.8218 C   0  0  0  0  0  0  0  0  0  0  0  0
    5.1172   -5.6451    3.0769 C   0  0  0  0  0  0  0  0  0  0  0  0
    6.1580   -6.0718    3.9198 C   0  0  0  0  0  0  0  0  0  0  0  0
    5.9899   -7.2042    4.7190 C   0  0  0  0  0  0  0  0  0  0  0  0
    4.8053   -7.9408    4.6903 C   0  0  0  0  0  0  0  0  0  0  0  0
    3.7651   -7.5276    3.8328 C   0  0  0  0  0  0  0  0  0  0  0  0
    3.9240   -6.3842    3.0498 C   0  0  0  0  0  0  0  0  0  0  0  0
    2.5862   -8.2133    3.7559 O   0  0  0  0  0  0  0  0  0  0  0  0
    2.6285   -9.5196    4.3126 C   0  0  0  0  0  0  0  0  0  0  0  0
    3.3455   -9.4988    5.6521 C   0  0  0  0  0  0  0  0  0  0  0  0
    4.6793   -9.0408    5.4899 O   0  0  0  0  0  0  0  0  0  0  0  0
    4.2666   -1.5548    1.4917 C   0  0  0  0  0  0  0  0  0  0  0  0
    3.0853   -2.2151    1.3378 N   0  0  0  0  0  0  0  0  0  0  0  0
    3.0002    2.5573   -0.1689 H   0  0  0  0  0  0  0  0  0  0  0  0
    4.6543    2.2340    0.3513 H   0  0  0  0  0  0  0  0  0  0  0  0
    4.5563   -3.7753    0.3272 H   0  0  0  0  0  0  0  0  0  0  0  0
    4.1968   -5.4553    0.6453 H   0  0  0  0  0  0  0  0  0  0  0  0
    7.4244   -5.0139    1.5566 H   0  0  0  0  0  0  0  0  0  0  0  0
    8.2725   -6.3141   -0.9070 H   0  0  0  0  0  0  0  0  0  0  0  0
    8.5224   -3.9959   -1.6267 H   0  0  0  0  0  0  0  0  0  0  0  0
   10.0958   -4.7715   -1.4454 H   0  0  0  0  0  0  0  0  0  0  0  0
    8.8544   -2.5715    0.2723 H   0  0  0  0  0  0  0  0  0  0  0  0
   10.4752   -2.6816   -0.4006 H   0  0  0  0  0  0  0  0  0  0  0  0
    9.3819   -3.8185    2.1852 H   0  0  0  0  0  0  0  0  0  0  0  0
   10.9818   -3.1784    1.8490 H   0  0  0  0  0  0  0  0  0  0  0  0
   11.1502   -5.6244    2.2383 H   0  0  0  0  0  0  0  0  0  0  0  0
   11.5468   -5.2694    0.5603 H   0  0  0  0  0  0  0  0  0  0  0  0
    9.0616   -6.6376    1.6898 H   0  0  0  0  0  0  0  0  0  0  0  0
   10.0687   -7.1070    0.3297 H   0  0  0  0  0  0  0  0  0  0  0  0
    7.0797   -5.5003    3.9819 H   0  0  0  0  0  0  0  0  0  0  0  0
    6.7849   -7.5358    5.3901 H   0  0  0  0  0  0  0  0  0  0  0  0
    3.0843   -6.0922    2.4170 H   0  0  0  0  0  0  0  0  0  0  0  0
    3.1475  -10.2081    3.6196 H   0  0  0  0  0  0  0  0  0  0  0  0
    1.5867   -9.8535    4.4248 H   0  0  0  0  0  0  0  0  0  0  0  0
    3.4029  -10.5076    6.0863 H   0  0  0  0  0  0  0  0  0  0  0  0
    2.8031   -8.8413    6.3576 H   0  0  0  0  0  0  0  0  0  0  0  0
    2.9175   -3.0467    1.8894 H   0  0  0  0  0  0  0  0  0  0  0  0
    2.2972   -1.6255    1.0684 H   0  0  0  0  0  0  0  0  0  0  0  0
  1  2  1  0
  1 33  1  0
  1 34  1  0
  2  3  2  0
  2  4  1  0
  4  5  1  0
  4 31  2  0
  5  6  2  0
  6  7  1  0
  7  8  2  0
  7 31  1  0
  8  9  1  0
  8 10  1  0
 10 11  1  0
 10 21  1  0
 11 12  1  0
 11 35  1  0
 11 36  1  0
 12 13  2  0
 12 14  1  0
 14 15  1  0
 14 37  1  0
 15 16  1  0
 15 20  1  0
 15 38  1  6
 16 17  1  0
 16 39  1  0
 16 40  1  0
 17 18  1  0
 17 41  1  0
 17 42  1  0
 18 19  1  0
 18 43  1  0
 18 44  1  0
 19 20  1  0
 19 45  1  0
 19 46  1  0
 20 47  1  0
 20 48  1  0
 21 22  2  0
 21 26  1  0
 22 23  1  0
 22 49  1  0
 23 24  2  0
 23 50  1  0
 24 25  1  0
 24 30  1  0
 25 26  2  0
 25 27  1  0
 26 51  1  0
 27 28  1  0
 28 29  1  0
 28 52  1  0
 28 53  1  0
 29 30  1  0
 29 54  1  0
 29 55  1  0
 31 32  1  0
 32 56  1  0
 32 57  1  0
M  CHG  2   6   1   9  -1
M  END

