
     RDKit          3D

 52 53  0  0  0  0  0  0  0  0999 V2000
    1.0222    0.1095    0.3201 C   0  0  0  0  0  0  0  0  0  0  0  0
    2.5270   -0.0786    0.0681 C   0  0  1  0  0  0  0  0  0  0  0  0
    2.8568   -1.4738   -0.5050 C   0  0  0  0  0  0  0  0  0  0  0  0
    2.5457   -1.5932   -2.0043 C   0  0  0  0  0  0  0  0  0  0  0  0
    3.2814   -0.5245   -2.8487 C   0  0  2  0  0  0  0  0  0  0  0  0
    4.8290   -0.7353   -2.8998 C   0  0  1  0  0  0  0  0  0  0  0  0
    5.2045   -2.2038   -3.1657 C   0  0  0  0  0  0  0  0  0  0  0  0
    5.5294    0.1498   -3.9448 C   0  0  0  0  0  0  0  0  0  0  0  0
    2.7787    0.8520   -2.3214 C   0  0  2  0  0  0  0  0  0  0  0  0
    3.2420    1.9866   -3.1226 N   0  0  0  0  0  0  0  0  0  0  0  0
    2.4722    3.2130   -2.9773 C   0  0  0  0  0  0  0  0  0  0  0  0
    2.9689    4.2919   -3.9381 C   0  0  0  0  0  0  0  0  0  0  0  0
    2.2092    5.6030   -3.8097 C   0  0  0  0  0  0  0  0  0  0  0  0
    2.7224    6.5209   -4.7475 O   0  0  0  0  0  0  0  0  0  0  0  0
    2.0978    7.7746   -4.7246 C   0  0  0  0  0  0  0  0  0  0  0  0
    2.7338    8.6467   -5.7571 C   0  0  0  0  0  0  0  0  0  0  0  0
    3.7518    8.4497   -6.6458 C   0  0  0  0  0  0  0  0  0  0  0  0
    3.8893    9.6846   -7.3688 C   0  0  0  0  0  0  0  0  0  0  0  0
    2.9462   10.5290   -6.8610 C   0  0  0  0  0  0  0  0  0  0  0  0
    2.2376    9.9056   -5.8792 O   0  0  0  0  0  0  0  0  0  0  0  0
    3.1226    1.0284   -0.8304 C   0  0  0  0  0  0  0  0  0  0  0  0
    0.6446   -0.6512    1.0227 H   0  0  0  0  0  0  0  0  0  0  0  0
    0.4230    0.0302   -0.6009 H   0  0  0  0  0  0  0  0  0  0  0  0
    0.8167    1.0992    0.7600 H   0  0  0  0  0  0  0  0  0  0  0  0
    3.0211    0.0016    1.0527 H   0  0  0  0  0  0  0  0  0  0  0  0
    2.3050   -2.2474    0.0563 H   0  0  0  0  0  0  0  0  0  0  0  0
    3.9269   -1.6856   -0.3384 H   0  0  0  0  0  0  0  0  0  0  0  0
    1.4603   -1.4747   -2.1645 H   0  0  0  0  0  0  0  0  0  0  0  0
    2.7840   -2.6060   -2.3598 H   0  0  0  0  0  0  0  0  0  0  0  0
    2.9188   -0.6251   -3.8913 H   0  0  0  0  0  0  0  0  0  0  0  0
    5.2487   -0.4655   -1.9150 H   0  0  0  0  0  0  0  0  0  0  0  0
    4.7343   -2.5735   -4.0939 H   0  0  0  0  0  0  0  0  0  0  0  0
    4.9111   -2.8807   -2.3499 H   0  0  0  0  0  0  0  0  0  0  0  0
    6.2948   -2.3008   -3.2910 H   0  0  0  0  0  0  0  0  0  0  0  0
    5.1386   -0.0541   -4.9582 H   0  0  0  0  0  0  0  0  0  0  0  0
    6.6105   -0.0647   -3.9660 H   0  0  0  0  0  0  0  0  0  0  0  0
    5.3924    1.2167   -3.7317 H   0  0  0  0  0  0  0  0  0  0  0  0
    1.6684    0.7933   -2.3918 H   0  0  0  0  0  0  0  0  0  0  0  0
    3.2355    1.7175   -4.1060 H   0  0  0  0  0  0  0  0  0  0  0  0
    2.5732    3.5802   -1.9417 H   0  0  0  0  0  0  0  0  0  0  0  0
    1.3792    3.0482   -3.1332 H   0  0  0  0  0  0  0  0  0  0  0  0
    2.8771    3.9411   -4.9817 H   0  0  0  0  0  0  0  0  0  0  0  0
    4.0408    4.4757   -3.7607 H   0  0  0  0  0  0  0  0  0  0  0  0
    2.3084    6.0080   -2.7797 H   0  0  0  0  0  0  0  0  0  0  0  0
    1.1234    5.4424   -3.9832 H   0  0  0  0  0  0  0  0  0  0  0  0
    2.1860    8.2516   -3.7231 H   0  0  0  0  0  0  0  0  0  0  0  0
    1.0072    7.6868   -4.9267 H   0  0  0  0  0  0  0  0  0  0  0  0
    4.3250    7.5341   -6.7613 H   0  0  0  0  0  0  0  0  0  0  0  0
    4.5994    9.9096   -8.1621 H   0  0  0  0  0  0  0  0  0  0  0  0
    2.6622   11.5555   -7.0768 H   0  0  0  0  0  0  0  0  0  0  0  0
    2.7656    2.0092   -0.4765 H   0  0  0  0  0  0  0  0  0  0  0  0
    4.2199    1.0508   -0.7249 H   0  0  0  0  0  0  0  0  0  0  0  0
  1  2  1  0
  1 22  1  0
  1 23  1  0
  1 24  1  0
  2  3  1  0
  2 21  1  0
  2 25  1  1
  3  4  1  0
  3 26  1  0
  3 27  1  0
  4  5  1  0
  4 28  1  0
  4 29  1  0
  5  6  1  0
  5  9  1  0
  5 30  1  6
  6  7  1  0
  6  8  1  0
  6 31  1  1
  7 32  1  0
  7 33  1  0
  7 34  1  0
  8 35  1  0
  8 36  1  0
  8 37  1  0
  9 10  1  0
  9 21  1  0
  9 38  1  1
 10 11  1  0
 10 39  1  0
 11 12  1  0
 11 40  1  0
 11 41  1  0
 12 13  1  0
 12 42  1  0
 12 43  1  0
 13 14  1  0
 13 44  1  0
 13 45  1  0
 14 15  1  0
 15 16  1  0
 15 46  1  0
 15 47  1  0
 16 17  2  0
 16 20  1  0
 17 18  1  0
 17 48  1  0
 18 19  2  0
 18 49  1  0
 19 20  1  0
 19 50  1  0
 21 51  1  0
 21 52  1  0
M  END

