
     RDKit          3D

 26 28  0  0  0  0  0  0  0  0999 V2000
    1.1981    0.1001   -0.4641 C   0  0  0  0  0  0  0  0  0  0  0  0
    2.2917    0.2741    0.4653 N   0  0  0  0  0  0  0  0  0  0  0  0
    2.9792   -0.6674    1.1402 C   0  0  0  0  0  0  0  0  0  0  0  0
    2.7500   -2.0693    0.9964 C   0  0  0  0  0  0  0  0  0  0  0  0
    1.9420   -2.8392    0.1177 C   0  0  0  0  0  0  0  0  0  0  0  0
    2.1920   -4.1843    0.4003 C   0  0  0  0  0  0  0  0  0  0  0  0
    3.1348   -4.2088    1.4400 C   0  0  0  0  0  0  0  0  0  0  0  0
    3.4656   -2.9566    1.7913 N   0  0  0  0  0  0  0  0  0  0  0  0
    4.3637   -2.5935    3.0234 B   0  0  1  0  0  0  0  0  0  0  0  0
    3.6453   -2.7780    4.1933 F   0  0  0  0  0  0  0  0  0  0  0  0
    5.5135   -3.3584    3.0130 F   0  0  0  0  0  0  0  0  0  0  0  0
    4.7066   -1.0852    2.8346 N   0  0  0  0  0  0  0  0  0  0  0  0
    5.6434   -0.3910    3.5096 C   0  0  0  0  0  0  0  0  0  0  0  0
    5.5829    0.9636    3.1514 C   0  0  0  0  0  0  0  0  0  0  0  0
    4.5515    1.0835    2.2101 C   0  0  0  0  0  0  0  0  0  0  0  0
    4.0138   -0.2086    2.0247 C   0  0  0  0  0  0  0  0  0  0  0  0
    0.8113    1.0915   -0.7342 H   0  0  0  0  0  0  0  0  0  0  0  0
    0.3757   -0.4824   -0.0175 H   0  0  0  0  0  0  0  0  0  0  0  0
    1.5181   -0.4042   -1.3903 H   0  0  0  0  0  0  0  0  0  0  0  0
    2.5388    1.2295    0.6887 H   0  0  0  0  0  0  0  0  0  0  0  0
    1.2743   -2.4747   -0.6547 H   0  0  0  0  0  0  0  0  0  0  0  0
    1.7524   -5.0493   -0.0918 H   0  0  0  0  0  0  0  0  0  0  0  0
    3.5843   -5.0600    1.9490 H   0  0  0  0  0  0  0  0  0  0  0  0
    6.3055   -0.8945    4.2117 H   0  0  0  0  0  0  0  0  0  0  0  0
    6.2262    1.7572    3.5260 H   0  0  0  0  0  0  0  0  0  0  0  0
    4.2551    2.0009    1.7016 H   0  0  0  0  0  0  0  0  0  0  0  0
  1  2  1  0
  1 17  1  0
  1 18  1  0
  1 19  1  0
  2  3  1  0
  2 20  1  0
  3  4  1  0
  3 16  2  0
  4  5  2  0
  4  8  1  0
  5  6  1  0
  5 21  1  0
  6  7  2  0
  6 22  1  0
  7  8  1  0
  7 23  1  0
  8  9  1  0
  9 10  1  1
  9 11  1  0
  9 12  1  0
 12 13  2  0
 12 16  1  0
 13 14  1  0
 13 24  1  0
 14 15  2  0
 14 25  1  0
 15 16  1  0
 15 26  1  0
M  CHG  2   9  -1  12   1
M  END

