
     RDKit          3D

 49 51  0  0  0  0  0  0  0  0999 V2000
    5.2311    2.0978   -6.2614 C   0  0  0  0  0  0  0  0  0  0  0  0
    3.9937    1.3047   -6.7137 C   0  0  1  0  0  0  0  0  0  0  0  0
    4.2081    0.6565   -8.0925 C   0  0  0  0  0  0  0  0  0  0  0  0
    3.6247    0.2617   -5.6837 C   0  0  0  0  0  0  0  0  0  0  0  0
    4.4100   -0.6983   -5.2843 N   0  0  0  0  0  0  0  0  0  0  0  0
    3.8178   -1.5009   -4.3354 C   0  0  0  0  0  0  0  0  0  0  0  0
    4.5661   -2.6814   -3.7662 C   0  0  0  0  0  0  0  0  0  0  0  0
    4.0994   -4.0234   -4.3587 C   0  0  0  0  0  0  0  0  0  0  0  0
    3.2385   -4.6606   -3.7700 O   0  0  0  0  0  0  0  0  0  0  0  0
    4.6548   -4.4473   -5.5433 N   0  0  0  0  0  0  0  0  0  0  0  0
    4.2405   -5.7406   -6.0798 C   0  0  0  0  0  0  0  0  0  0  0  0
    5.3861   -6.7491   -6.2232 C   0  0  0  0  0  0  0  0  0  0  0  0
    6.4625   -6.3468   -7.2501 C   0  0  0  0  0  0  0  0  0  0  0  0
    7.4950   -5.4023   -6.8243 N   0  0  0  0  0  0  0  0  0  0  0  0
    8.7148   -6.0096   -6.3177 C   0  0  0  0  0  0  0  0  0  0  0  0
    9.4962   -6.7489   -7.3763 C   0  0  0  0  0  0  0  0  0  0  0  0
    9.6851   -6.4082   -8.6949 C   0  0  0  0  0  0  0  0  0  0  0  0
   10.5388   -7.3156   -9.3941 C   0  0  0  0  0  0  0  0  0  0  0  0
   10.9901   -8.3386   -8.5992 C   0  0  0  0  0  0  0  0  0  0  0  0
   10.3689   -8.2060   -6.9886 S   0  0  0  0  0  0  0  0  0  0  0  0
    7.1045   -4.2250   -6.0518 C   0  0  0  0  0  0  0  0  0  0  0  0
    5.6772   -3.7168   -6.2872 C   0  0  0  0  0  0  0  0  0  0  0  0
    2.5325   -1.1472   -4.0046 C   0  0  0  0  0  0  0  0  0  0  0  0
    2.0539    0.2469   -4.9073 S   0  0  0  0  0  0  0  0  0  0  0  0
    5.4956    2.8622   -7.0093 H   0  0  0  0  0  0  0  0  0  0  0  0
    6.0913    1.4230   -6.1332 H   0  0  0  0  0  0  0  0  0  0  0  0
    5.0526    2.6046   -5.3004 H   0  0  0  0  0  0  0  0  0  0  0  0
    3.1432    2.0033   -6.7919 H   0  0  0  0  0  0  0  0  0  0  0  0
    5.0405   -0.0632   -8.0544 H   0  0  0  0  0  0  0  0  0  0  0  0
    4.4486    1.4231   -8.8463 H   0  0  0  0  0  0  0  0  0  0  0  0
    3.3077    0.1178   -8.4264 H   0  0  0  0  0  0  0  0  0  0  0  0
    4.3533   -2.7720   -2.6931 H   0  0  0  0  0  0  0  0  0  0  0  0
    5.6441   -2.5116   -3.8870 H   0  0  0  0  0  0  0  0  0  0  0  0
    3.7758   -5.5834   -7.0728 H   0  0  0  0  0  0  0  0  0  0  0  0
    3.4656   -6.1254   -5.4059 H   0  0  0  0  0  0  0  0  0  0  0  0
    4.9383   -7.7023   -6.5543 H   0  0  0  0  0  0  0  0  0  0  0  0
    5.8415   -6.9474   -5.2373 H   0  0  0  0  0  0  0  0  0  0  0  0
    5.9485   -5.9539   -8.1477 H   0  0  0  0  0  0  0  0  0  0  0  0
    6.9907   -7.2474   -7.5952 H   0  0  0  0  0  0  0  0  0  0  0  0
    8.5364   -6.6863   -5.4498 H   0  0  0  0  0  0  0  0  0  0  0  0
    9.3481   -5.1953   -5.9228 H   0  0  0  0  0  0  0  0  0  0  0  0
    9.2130   -5.5324   -9.1418 H   0  0  0  0  0  0  0  0  0  0  0  0
   10.8058   -7.2132  -10.4475 H   0  0  0  0  0  0  0  0  0  0  0  0
   11.6473   -9.1646   -8.8673 H   0  0  0  0  0  0  0  0  0  0  0  0
    7.8053   -3.4047   -6.2966 H   0  0  0  0  0  0  0  0  0  0  0  0
    7.2064   -4.3967   -4.9567 H   0  0  0  0  0  0  0  0  0  0  0  0
    5.4308   -3.7617   -7.3618 H   0  0  0  0  0  0  0  0  0  0  0  0
    5.6320   -2.6536   -6.0234 H   0  0  0  0  0  0  0  0  0  0  0  0
    1.8666   -1.6370   -3.2968 H   0  0  0  0  0  0  0  0  0  0  0  0
  1  2  1  0
  1 25  1  0
  1 26  1  0
  1 27  1  0
  2  3  1  0
  2  4  1  0
  2 28  1  6
  3 29  1  0
  3 30  1  0
  3 31  1  0
  4  5  2  0
  4 24  1  0
  5  6  1  0
  6  7  1  0
  6 23  2  0
  7  8  1  0
  7 32  1  0
  7 33  1  0
  8  9  2  0
  8 10  1  0
 10 11  1  0
 10 22  1  0
 11 12  1  0
 11 34  1  0
 11 35  1  0
 12 13  1  0
 12 36  1  0
 12 37  1  0
 13 14  1  0
 13 38  1  0
 13 39  1  0
 14 15  1  0
 14 21  1  0
 15 16  1  0
 15 40  1  0
 15 41  1  0
 16 17  2  0
 16 20  1  0
 17 18  1  0
 17 42  1  0
 18 19  2  0
 18 43  1  0
 19 20  1  0
 19 44  1  0
 21 22  1  0
 21 45  1  0
 21 46  1  0
 22 47  1  0
 22 48  1  0
 23 24  1  0
 23 49  1  0
M  END

