
     RDKit          3D

 28 29  0  0  0  0  0  0  0  0999 V2000
    2.2170   -0.6510   -2.1195 C   0  0  0  0  0  0  0  0  0  0  0  0
    2.7780   -0.2158   -0.8549 N   0  0  0  0  0  0  0  0  0  0  0  0
    3.1550    1.0699   -0.5623 C   0  0  0  0  0  0  0  0  0  0  0  0
    3.6175    1.1156    0.7403 C   0  0  0  0  0  0  0  0  0  0  0  0
    3.5142   -0.1996    1.2645 C   0  0  0  0  0  0  0  0  0  0  0  0
    2.9889   -1.0101    0.2644 C   0  0  0  0  0  0  0  0  0  0  0  0
    2.6984   -2.4451    0.2887 C   0  0  0  0  0  0  0  0  0  0  0  0
    3.5118   -3.5686    0.1859 C   0  0  0  0  0  0  0  0  0  0  0  0
    4.9869   -3.6928   -0.0350 C   0  0  0  0  0  0  0  0  0  0  0  0
    5.7040   -4.8213    0.7337 C   0  0  0  0  0  0  0  0  0  0  0  0
    6.8666   -4.7281    1.0278 O   0  0  0  0  0  0  0  0  0  0  0  0
    4.9891   -5.9184    0.9874 O   0  0  0  0  0  0  0  0  0  0  0  0
    2.7195   -4.6664    0.3167 N   0  0  0  0  0  0  0  0  0  0  0  0
    1.4822   -4.3108    0.5001 N   0  0  0  0  0  0  0  0  0  0  0  0
    1.4471   -2.9804    0.4856 N   0  0  0  0  0  0  0  0  0  0  0  0
    0.1879   -2.2836    0.6753 C   0  0  0  0  0  0  0  0  0  0  0  0
    2.6158   -0.0284   -2.9324 H   0  0  0  0  0  0  0  0  0  0  0  0
    1.1161   -0.5748   -2.1315 H   0  0  0  0  0  0  0  0  0  0  0  0
    2.4966   -1.6953   -2.3166 H   0  0  0  0  0  0  0  0  0  0  0  0
    3.0730    1.8554   -1.3112 H   0  0  0  0  0  0  0  0  0  0  0  0
    3.9974    1.9967    1.2533 H   0  0  0  0  0  0  0  0  0  0  0  0
    3.7962   -0.5369    2.2601 H   0  0  0  0  0  0  0  0  0  0  0  0
    5.5011   -2.7536    0.2063 H   0  0  0  0  0  0  0  0  0  0  0  0
    5.1880   -3.8920   -1.1044 H   0  0  0  0  0  0  0  0  0  0  0  0
    4.0411   -5.7920    0.7331 H   0  0  0  0  0  0  0  0  0  0  0  0
   -0.5006   -2.9697    1.1828 H   0  0  0  0  0  0  0  0  0  0  0  0
   -0.2469   -1.9830   -0.2906 H   0  0  0  0  0  0  0  0  0  0  0  0
    0.3542   -1.3895    1.2909 H   0  0  0  0  0  0  0  0  0  0  0  0
  1  2  1  0
  1 17  1  0
  1 18  1  0
  1 19  1  0
  2  3  1  0
  2  6  1  0
  3  4  2  0
  3 20  1  0
  4  5  1  0
  4 21  1  0
  5  6  2  0
  5 22  1  0
  6  7  1  0
  7  8  2  0
  7 15  1  0
  8  9  1  0
  8 13  1  0
  9 10  1  0
  9 23  1  0
  9 24  1  0
 10 11  2  0
 10 12  1  0
 12 25  1  0
 13 14  2  0
 14 15  1  0
 15 16  1  0
 16 26  1  0
 16 27  1  0
 16 28  1  0
M  END

