
     RDKit          3D

 67 70  0  0  0  0  0  0  0  0999 V2000
    3.1436    3.7234   -0.7080 C   0  0  0  0  0  0  0  0  0  0  0  0
    4.5416    3.1942   -0.4187 C   0  0  0  0  0  0  0  0  0  0  0  0
    5.5222    3.9071   -0.5145 O   0  0  0  0  0  0  0  0  0  0  0  0
    4.5833    1.8665   -0.0467 N   0  0  0  0  0  0  0  0  0  0  0  0
    5.6962    1.0717    0.2888 C   0  0  0  0  0  0  0  0  0  0  0  0
    7.0190    1.5544    0.3032 C   0  0  0  0  0  0  0  0  0  0  0  0
    8.0625    0.6957    0.6469 C   0  0  0  0  0  0  0  0  0  0  0  0
    7.8409   -0.6485    0.9838 C   0  0  0  0  0  0  0  0  0  0  0  0
    8.9947   -1.5761    1.3194 C   0  0  0  0  0  0  0  0  0  0  0  0
    9.8621   -1.0730    2.3879 N   0  0  0  0  0  0  0  0  0  0  0  0
    9.2332   -0.9838    3.7022 C   0  0  0  0  0  0  0  0  0  0  0  0
   11.2024   -1.4769    2.3671 C   0  0  0  0  0  0  0  0  0  0  0  0
   11.8556   -2.7092    2.4094 C   0  0  0  0  0  0  0  0  0  0  0  0
   11.2346   -4.0683    2.5019 C   0  0  0  0  0  0  0  0  0  0  0  0
   13.2107   -2.5598    2.3464 N   0  0  0  0  0  0  0  0  0  0  0  0
   13.4352   -1.2560    2.2767 C   0  0  0  0  0  0  0  0  0  0  0  0
   14.6436   -0.5184    2.2136 C   0  0  0  0  0  0  0  0  0  0  0  0
   14.6010    0.8550    2.1456 C   0  0  0  0  0  0  0  0  0  0  0  0
   13.3484    1.5506    2.1377 C   0  0  0  0  0  0  0  0  0  0  0  0
   13.1940    3.0446    2.0656 C   0  0  0  0  0  0  0  0  0  0  0  0
   12.1350    3.5949    2.3398 O   0  0  0  0  0  0  0  0  0  0  0  0
   14.2907    3.7503    1.6587 N   0  0  0  0  0  0  0  0  0  0  0  0
   14.2671    5.1998    1.5562 C   0  0  0  0  0  0  0  0  0  0  0  0
   14.5906    5.9124    2.8749 C   0  0  0  0  0  0  0  0  0  0  0  0
   14.5585    7.4389    2.7251 C   0  0  0  0  0  0  0  0  0  0  0  0
   14.8556    8.1557    3.9474 N   0  0  0  0  0  0  0  0  0  0  0  0
   13.9354    8.2483    5.0712 C   0  0  0  0  0  0  0  0  0  0  0  0
   14.5725    9.3363    5.9595 C   0  0  0  0  0  0  0  0  0  0  0  0
   16.0668    9.2525    5.6221 C   0  0  0  0  0  0  0  0  0  0  0  0
   16.1001    8.6814    4.2034 C   0  0  0  0  0  0  0  0  0  0  0  0
   17.0453    8.6640    3.4388 O   0  0  0  0  0  0  0  0  0  0  0  0
   12.1805    0.8255    2.2203 C   0  0  0  0  0  0  0  0  0  0  0  0
   12.2278   -0.5337    2.2820 N   0  0  0  0  0  0  0  0  0  0  0  0
    6.5196   -1.1134    0.9713 C   0  0  0  0  0  0  0  0  0  0  0  0
    5.4617   -0.2720    0.6275 C   0  0  0  0  0  0  0  0  0  0  0  0
    3.1286    4.1262   -1.7320 H   0  0  0  0  0  0  0  0  0  0  0  0
    2.9417    4.5651   -0.0282 H   0  0  0  0  0  0  0  0  0  0  0  0
    2.3420    2.9775   -0.6033 H   0  0  0  0  0  0  0  0  0  0  0  0
    3.6926    1.3864   -0.0098 H   0  0  0  0  0  0  0  0  0  0  0  0
    7.2086    2.5930    0.0429 H   0  0  0  0  0  0  0  0  0  0  0  0
    9.0830    1.0867    0.6545 H   0  0  0  0  0  0  0  0  0  0  0  0
    9.6282   -1.7101    0.4278 H   0  0  0  0  0  0  0  0  0  0  0  0
    8.5793   -2.5768    1.5632 H   0  0  0  0  0  0  0  0  0  0  0  0
    8.9791   -1.9772    4.1287 H   0  0  0  0  0  0  0  0  0  0  0  0
    8.3054   -0.3952    3.6332 H   0  0  0  0  0  0  0  0  0  0  0  0
    9.9067   -0.4731    4.4056 H   0  0  0  0  0  0  0  0  0  0  0  0
   10.1649   -4.0172    2.7475 H   0  0  0  0  0  0  0  0  0  0  0  0
   11.7455   -4.6635    3.2745 H   0  0  0  0  0  0  0  0  0  0  0  0
   11.3438   -4.6169    1.5510 H   0  0  0  0  0  0  0  0  0  0  0  0
   15.5830   -1.0722    2.2319 H   0  0  0  0  0  0  0  0  0  0  0  0
   15.5406    1.4115    2.1326 H   0  0  0  0  0  0  0  0  0  0  0  0
   15.1256    3.2564    1.3742 H   0  0  0  0  0  0  0  0  0  0  0  0
   13.2608    5.4936    1.2184 H   0  0  0  0  0  0  0  0  0  0  0  0
   14.9830    5.5012    0.7739 H   0  0  0  0  0  0  0  0  0  0  0  0
   15.5893    5.6055    3.2295 H   0  0  0  0  0  0  0  0  0  0  0  0
   13.8576    5.5865    3.6310 H   0  0  0  0  0  0  0  0  0  0  0  0
   13.5681    7.7593    2.3533 H   0  0  0  0  0  0  0  0  0  0  0  0
   15.3132    7.7591    1.9896 H   0  0  0  0  0  0  0  0  0  0  0  0
   13.8514    7.2824    5.6070 H   0  0  0  0  0  0  0  0  0  0  0  0
   12.9220    8.5170    4.7278 H   0  0  0  0  0  0  0  0  0  0  0  0
   14.3483    9.1873    7.0255 H   0  0  0  0  0  0  0  0  0  0  0  0
   14.1773   10.3235    5.6717 H   0  0  0  0  0  0  0  0  0  0  0  0
   16.6057    8.5472    6.2792 H   0  0  0  0  0  0  0  0  0  0  0  0
   16.6057   10.2094    5.6638 H   0  0  0  0  0  0  0  0  0  0  0  0
   11.1980    1.2970    2.2404 H   0  0  0  0  0  0  0  0  0  0  0  0
    6.3089   -2.1542    1.2343 H   0  0  0  0  0  0  0  0  0  0  0  0
    4.4390   -0.6620    0.6261 H   0  0  0  0  0  0  0  0  0  0  0  0
  1  2  1  0
  1 36  1  0
  1 37  1  0
  1 38  1  0
  2  3  2  0
  2  4  1  0
  4  5  1  0
  4 39  1  0
  5  6  2  0
  5 35  1  0
  6  7  1  0
  6 40  1  0
  7  8  2  0
  7 41  1  0
  8  9  1  0
  8 34  1  0
  9 10  1  0
  9 42  1  0
  9 43  1  0
 10 11  1  0
 10 12  1  0
 11 44  1  0
 11 45  1  0
 11 46  1  0
 12 13  2  0
 12 33  1  0
 13 14  1  0
 13 15  1  0
 14 47  1  0
 14 48  1  0
 14 49  1  0
 15 16  2  0
 16 17  1  0
 16 33  1  0
 17 18  2  0
 17 50  1  0
 18 19  1  0
 18 51  1  0
 19 20  1  0
 19 32  2  0
 20 21  2  0
 20 22  1  0
 22 23  1  0
 22 52  1  0
 23 24  1  0
 23 53  1  0
 23 54  1  0
 24 25  1  0
 24 55  1  0
 24 56  1  0
 25 26  1  0
 25 57  1  0
 25 58  1  0
 26 27  1  0
 26 30  1  0
 27 28  1  0
 27 59  1  0
 27 60  1  0
 28 29  1  0
 28 61  1  0
 28 62  1  0
 29 30  1  0
 29 63  1  0
 29 64  1  0
 30 31  2  0
 32 33  1  0
 32 65  1  0
 34 35  2  0
 34 66  1  0
 35 67  1  0
M  END

