
     RDKit          3D

 49 51  0  0  0  0  0  0  0  0999 V2000
    0.9453   -0.5727   -0.5598 C   0  0  0  0  0  0  0  0  0  0  0  0
    2.0763    0.0182    0.2815 C   0  0  0  0  0  0  0  0  0  0  0  0
    3.0108   -1.0234    0.9371 C   0  0  1  0  0  0  0  0  0  0  0  0
    4.1543   -0.3979    1.7547 C   0  0  0  0  0  0  0  0  0  0  0  0
    4.2499    0.9798    1.9949 C   0  0  0  0  0  0  0  0  0  0  0  0
    5.2865    1.5093    2.7708 C   0  0  0  0  0  0  0  0  0  0  0  0
    6.2377    0.6470    3.3037 C   0  0  0  0  0  0  0  0  0  0  0  0
    7.2346    1.1468    4.0480 F   0  0  0  0  0  0  0  0  0  0  0  0
    6.1792   -0.7269    3.0756 C   0  0  0  0  0  0  0  0  0  0  0  0
    5.1389   -1.2417    2.3038 C   0  0  0  0  0  0  0  0  0  0  0  0
    2.2703   -2.0043    1.7332 N   0  0  0  0  0  0  0  0  0  0  0  0
    2.4142   -3.2946    1.3072 C   0  0  0  0  0  0  0  0  0  0  0  0
    1.9800   -4.3127    1.7921 O   0  0  0  0  0  0  0  0  0  0  0  0
    3.1849   -3.2268    0.1210 N   0  0  0  0  0  0  0  0  0  0  0  0
    3.6400   -4.4011   -0.5655 C   0  0  0  0  0  0  0  0  0  0  0  0
    4.8791   -5.0108    0.1195 C   0  0  0  0  0  0  0  0  0  0  0  0
    5.4357   -4.4565    1.0490 O   0  0  0  0  0  0  0  0  0  0  0  0
    5.2530   -6.2011   -0.4470 N   0  0  0  0  0  0  0  0  0  0  0  0
    6.3230   -7.0358   -0.1234 C   0  0  0  0  0  0  0  0  0  0  0  0
    7.2206   -6.7296    0.9193 C   0  0  0  0  0  0  0  0  0  0  0  0
    8.2772   -7.5860    1.2138 C   0  0  0  0  0  0  0  0  0  0  0  0
    8.4739   -8.7662    0.4871 C   0  0  0  0  0  0  0  0  0  0  0  0
    7.5939   -9.0773   -0.5420 C   0  0  0  0  0  0  0  0  0  0  0  0
    6.5089   -8.2397   -0.8769 C   0  0  0  0  0  0  0  0  0  0  0  0
    5.5964   -8.6229   -1.9900 C   0  0  0  0  0  0  0  0  0  0  0  0
    5.8466   -9.9130   -2.7493 C   0  0  0  0  0  0  0  0  0  0  0  0
    4.6377   -7.9273   -2.3213 O   0  0  0  0  0  0  0  0  0  0  0  0
    3.5968   -1.9423   -0.1696 C   0  0  0  0  0  0  0  0  0  0  0  0
    4.2598   -1.5996   -1.1183 O   0  0  0  0  0  0  0  0  0  0  0  0
    0.3001    0.2307   -0.9473 H   0  0  0  0  0  0  0  0  0  0  0  0
    0.3140   -1.2536    0.0316 H   0  0  0  0  0  0  0  0  0  0  0  0
    1.3307   -1.1293   -1.4285 H   0  0  0  0  0  0  0  0  0  0  0  0
    1.6490    0.6474    1.0799 H   0  0  0  0  0  0  0  0  0  0  0  0
    2.7030    0.6725   -0.3442 H   0  0  0  0  0  0  0  0  0  0  0  0
    3.5169    1.6710    1.5795 H   0  0  0  0  0  0  0  0  0  0  0  0
    5.3640    2.5812    2.9626 H   0  0  0  0  0  0  0  0  0  0  0  0
    6.9489   -1.3762    3.4971 H   0  0  0  0  0  0  0  0  0  0  0  0
    5.1148   -2.3178    2.1124 H   0  0  0  0  0  0  0  0  0  0  0  0
    1.8897   -1.8090    2.6509 H   0  0  0  0  0  0  0  0  0  0  0  0
    3.9009   -4.1179   -1.5975 H   0  0  0  0  0  0  0  0  0  0  0  0
    2.8304   -5.1464   -0.5917 H   0  0  0  0  0  0  0  0  0  0  0  0
    4.6957   -6.5719   -1.2284 H   0  0  0  0  0  0  0  0  0  0  0  0
    7.0667   -5.8137    1.4840 H   0  0  0  0  0  0  0  0  0  0  0  0
    8.9589   -7.3251    2.0275 H   0  0  0  0  0  0  0  0  0  0  0  0
    9.3048   -9.4343    0.7229 H   0  0  0  0  0  0  0  0  0  0  0  0
    7.7500   -9.9975   -1.1055 H   0  0  0  0  0  0  0  0  0  0  0  0
    5.8068  -10.7863   -2.0795 H   0  0  0  0  0  0  0  0  0  0  0  0
    6.8379   -9.9092   -3.2292 H   0  0  0  0  0  0  0  0  0  0  0  0
    5.0716  -10.0106   -3.5194 H   0  0  0  0  0  0  0  0  0  0  0  0
  1  2  1  0
  1 30  1  0
  1 31  1  0
  1 32  1  0
  3  2  1  6
  2 33  1  0
  2 34  1  0
  3  4  1  0
  3 11  1  0
  3 28  1  0
  4  5  2  0
  4 10  1  0
  5  6  1  0
  5 35  1  0
  6  7  2  0
  6 36  1  0
  7  8  1  0
  7  9  1  0
  9 10  2  0
  9 37  1  0
 10 38  1  0
 11 12  1  0
 11 39  1  0
 12 13  2  0
 12 14  1  0
 14 15  1  0
 14 28  1  0
 15 16  1  0
 15 40  1  0
 15 41  1  0
 16 17  2  0
 16 18  1  0
 18 19  1  0
 18 42  1  0
 19 20  2  0
 19 24  1  0
 20 21  1  0
 20 43  1  0
 21 22  2  0
 21 44  1  0
 22 23  1  0
 22 45  1  0
 23 24  2  0
 23 46  1  0
 24 25  1  0
 25 26  1  0
 25 27  2  0
 26 47  1  0
 26 48  1  0
 26 49  1  0
 28 29  2  0
M  END

