
     RDKit          3D

 37 38  0  0  0  0  0  0  0  0999 V2000
    1.2237    1.0635    0.8507 C   0  0  0  0  0  0  0  0  0  0  0  0
    1.6453   -0.2335    0.4957 O   0  0  0  0  0  0  0  0  0  0  0  0
    2.6436   -0.8346    1.2002 C   0  0  0  0  0  0  0  0  0  0  0  0
    3.3461   -0.2051    2.2331 C   0  0  0  0  0  0  0  0  0  0  0  0
    4.3740   -0.8827    2.9077 C   0  0  0  0  0  0  0  0  0  0  0  0
    5.1199   -0.1997    4.0286 C   0  0  0  0  0  0  0  0  0  0  0  0
    4.6783   -2.1905    2.5233 C   0  0  0  0  0  0  0  0  0  0  0  0
    3.9794   -2.8427    1.4925 C   0  0  0  0  0  0  0  0  0  0  0  0
    4.3470   -4.2606    1.1195 C   0  0  0  0  0  0  0  0  0  0  0  0
    2.9467   -2.1634    0.8193 C   0  0  0  0  0  0  0  0  0  0  0  0
    2.1486   -2.8241   -0.2630 C   0  0  0  0  0  0  0  0  0  0  0  0
    1.1591   -3.7484    0.0804 C   0  0  0  0  0  0  0  0  0  0  0  0
    0.3918   -4.3992   -0.8997 C   0  0  0  0  0  0  0  0  0  0  0  0
   -0.6513   -5.3748   -0.5084 C   0  0  0  0  0  0  0  0  0  0  0  0
   -0.9201   -5.6874    0.6300 O   0  0  0  0  0  0  0  0  0  0  0  0
    0.6245   -4.1143   -2.2511 C   0  0  0  0  0  0  0  0  0  0  0  0
    1.6082   -3.1925   -2.6060 C   0  0  0  0  0  0  0  0  0  0  0  0
    2.3790   -2.5353   -1.6339 C   0  0  0  0  0  0  0  0  0  0  0  0
    3.4234   -1.5304   -2.0456 C   0  0  0  0  0  0  0  0  0  0  0  0
    0.3980    1.3197    0.1730 H   0  0  0  0  0  0  0  0  0  0  0  0
    2.0302    1.8092    0.7287 H   0  0  0  0  0  0  0  0  0  0  0  0
    0.8577    1.1050    1.8922 H   0  0  0  0  0  0  0  0  0  0  0  0
    3.1039    0.8177    2.5242 H   0  0  0  0  0  0  0  0  0  0  0  0
    5.5800    0.7436    3.6899 H   0  0  0  0  0  0  0  0  0  0  0  0
    5.9180   -0.8397    4.4318 H   0  0  0  0  0  0  0  0  0  0  0  0
    4.4421    0.0557    4.8611 H   0  0  0  0  0  0  0  0  0  0  0  0
    5.4815   -2.7259    3.0370 H   0  0  0  0  0  0  0  0  0  0  0  0
    5.2581   -4.5825    1.6444 H   0  0  0  0  0  0  0  0  0  0  0  0
    4.5192   -4.3649    0.0365 H   0  0  0  0  0  0  0  0  0  0  0  0
    3.5431   -4.9695    1.3762 H   0  0  0  0  0  0  0  0  0  0  0  0
    0.9579   -3.9797    1.1292 H   0  0  0  0  0  0  0  0  0  0  0  0
   -1.2035   -5.8295   -1.3739 H   0  0  0  0  0  0  0  0  0  0  0  0
    0.0336   -4.6167   -3.0232 H   0  0  0  0  0  0  0  0  0  0  0  0
    1.7878   -2.9725   -3.6620 H   0  0  0  0  0  0  0  0  0  0  0  0
    3.5607   -1.5171   -3.1366 H   0  0  0  0  0  0  0  0  0  0  0  0
    4.3963   -1.7418   -1.5743 H   0  0  0  0  0  0  0  0  0  0  0  0
    3.1292   -0.5186   -1.7225 H   0  0  0  0  0  0  0  0  0  0  0  0
  1  2  1  0
  1 20  1  0
  1 21  1  0
  1 22  1  0
  2  3  1  0
  3  4  2  0
  3 10  1  0
  4  5  1  0
  4 23  1  0
  5  6  1  0
  5  7  2  0
  6 24  1  0
  6 25  1  0
  6 26  1  0
  7  8  1  0
  7 27  1  0
  8  9  1  0
  8 10  2  0
  9 28  1  0
  9 29  1  0
  9 30  1  0
 10 11  1  0
 11 12  2  0
 11 18  1  0
 12 13  1  0
 12 31  1  0
 13 14  1  0
 13 16  2  0
 14 15  2  0
 14 32  1  0
 16 17  1  0
 16 33  1  0
 17 18  2  0
 17 34  1  0
 18 19  1  0
 19 35  1  0
 19 36  1  0
 19 37  1  0
M  END

