
     RDKit          3D

 44 45  0  0  0  0  0  0  0  0999 V2000
   -0.8387   -0.4731    5.8898 C   0  0  0  0  0  0  0  0  0  0  0  0
    0.1887    0.5326    6.4391 C   0  0  1  0  0  0  0  0  0  0  0  0
   -0.1088    0.9349    7.8866 C   0  0  0  0  0  0  0  0  0  0  0  0
    1.5839   -0.0035    6.2709 C   0  0  0  0  0  0  0  0  0  0  0  0
    2.4043   -0.2100    7.2712 N   0  0  0  0  0  0  0  0  0  0  0  0
    3.5522   -0.7063    6.6616 O   0  0  0  0  0  0  0  0  0  0  0  0
    3.3098   -0.7469    5.3455 C   0  0  0  0  0  0  0  0  0  0  0  0
    4.3840   -1.2712    4.4373 C   0  0  0  0  0  0  0  0  0  0  0  0
    4.1217   -2.6212    3.9685 N   0  0  0  0  0  0  0  0  0  0  0  0
    4.4781   -3.7708    4.6437 C   0  0  0  0  0  0  0  0  0  0  0  0
    3.9927   -4.8533    3.9411 C   0  0  0  0  0  0  0  0  0  0  0  0
    3.3119   -4.3376    2.7993 C   0  0  0  0  0  0  0  0  0  0  0  0
    3.4010   -2.9561    2.8350 C   0  0  0  0  0  0  0  0  0  0  0  0
    2.8035   -1.9328    1.9098 C   0  0  0  0  0  0  0  0  0  0  0  0
    3.7480   -0.9447    1.3713 N   0  0  0  0  0  0  0  0  0  0  0  0
    4.5608   -1.2547    0.1715 C   0  0  1  0  0  0  0  0  0  0  0  0
    3.6955   -1.6640   -1.0407 C   0  0  0  0  0  0  0  0  0  0  0  0
    5.3215    0.0384   -0.1671 C   0  0  0  0  0  0  0  0  0  0  0  0
    5.5746   -2.3677    0.4853 C   0  0  0  0  0  0  0  0  0  0  0  0
    2.1194   -0.3260    5.0408 N   0  0  0  0  0  0  0  0  0  0  0  0
   -1.8506   -0.0396    5.9189 H   0  0  0  0  0  0  0  0  0  0  0  0
   -0.8455   -1.3951    6.4939 H   0  0  0  0  0  0  0  0  0  0  0  0
   -0.6090   -0.7479    4.8499 H   0  0  0  0  0  0  0  0  0  0  0  0
    0.1410    1.4347    5.8014 H   0  0  0  0  0  0  0  0  0  0  0  0
   -0.0580    0.0626    8.5567 H   0  0  0  0  0  0  0  0  0  0  0  0
   -1.1190    1.3662    7.9601 H   0  0  0  0  0  0  0  0  0  0  0  0
    0.6135    1.6768    8.2577 H   0  0  0  0  0  0  0  0  0  0  0  0
    5.3404   -1.2569    4.9784 H   0  0  0  0  0  0  0  0  0  0  0  0
    4.4592   -0.6218    3.5524 H   0  0  0  0  0  0  0  0  0  0  0  0
    5.0555   -3.7174    5.5647 H   0  0  0  0  0  0  0  0  0  0  0  0
    4.1233   -5.8998    4.2105 H   0  0  0  0  0  0  0  0  0  0  0  0
    2.8116   -4.9122    2.0209 H   0  0  0  0  0  0  0  0  0  0  0  0
    2.0487   -1.3539    2.4688 H   0  0  0  0  0  0  0  0  0  0  0  0
    2.2485   -2.4881    1.1295 H   0  0  0  0  0  0  0  0  0  0  0  0
    3.2384   -0.0807    1.1951 H   0  0  0  0  0  0  0  0  0  0  0  0
    2.9545   -0.8821   -1.2779 H   0  0  0  0  0  0  0  0  0  0  0  0
    3.1519   -2.6043   -0.8595 H   0  0  0  0  0  0  0  0  0  0  0  0
    4.3200   -1.8172   -1.9353 H   0  0  0  0  0  0  0  0  0  0  0  0
    4.6234    0.8613   -0.3988 H   0  0  0  0  0  0  0  0  0  0  0  0
    5.9697   -0.1041   -1.0455 H   0  0  0  0  0  0  0  0  0  0  0  0
    5.9483    0.3526    0.6816 H   0  0  0  0  0  0  0  0  0  0  0  0
    5.0792   -3.3214    0.7151 H   0  0  0  0  0  0  0  0  0  0  0  0
    6.1945   -2.0952    1.3530 H   0  0  0  0  0  0  0  0  0  0  0  0
    6.2393   -2.5295   -0.3784 H   0  0  0  0  0  0  0  0  0  0  0  0
  1  2  1  0
  1 21  1  0
  1 22  1  0
  1 23  1  0
  2  3  1  0
  2  4  1  0
  2 24  1  6
  3 25  1  0
  3 26  1  0
  3 27  1  0
  4  5  2  0
  4 20  1  0
  5  6  1  0
  6  7  1  0
  7  8  1  0
  7 20  2  0
  8  9  1  0
  8 28  1  0
  8 29  1  0
  9 10  1  0
  9 13  1  0
 10 11  2  0
 10 30  1  0
 11 12  1  0
 11 31  1  0
 12 13  2  0
 12 32  1  0
 13 14  1  0
 14 15  1  0
 14 33  1  0
 14 34  1  0
 16 15  1  1
 15 35  1  0
 16 17  1  0
 16 18  1  0
 16 19  1  0
 17 36  1  0
 17 37  1  0
 17 38  1  0
 18 39  1  0
 18 40  1  0
 18 41  1  0
 19 42  1  0
 19 43  1  0
 19 44  1  0
M  END

