
     RDKit          3D

 33 34  0  0  0  0  0  0  0  0999 V2000
    5.2122   -2.4228    0.6478 C   0  0  0  0  0  0  0  0  0  0  0  0
    4.2116   -1.2974    0.6472 C   0  0  0  0  0  0  0  0  0  0  0  0
    4.4968   -0.0730    1.2829 C   0  0  0  0  0  0  0  0  0  0  0  0
    6.0238    0.1243    2.1248 Cl  0  0  0  0  0  0  0  0  0  0  0  0
    3.6123    1.0062    1.2667 C   0  0  0  0  0  0  0  0  0  0  0  0
    2.3928    0.8798    0.6007 C   0  0  0  0  0  0  0  0  0  0  0  0
    2.0652   -0.3220   -0.0234 C   0  0  0  0  0  0  0  0  0  0  0  0
    2.9572   -1.4009    0.0074 C   0  0  0  0  0  0  0  0  0  0  0  0
    2.5807   -2.6409   -0.6190 N   0  0  0  0  0  0  0  0  0  0  0  0
    2.5240   -2.6931   -1.9914 C   0  0  0  0  0  0  0  0  0  0  0  0
    2.7488   -1.7372   -2.7096 O   0  0  0  0  0  0  0  0  0  0  0  0
    2.1783   -4.0434   -2.6300 C   0  0  2  0  0  0  0  0  0  0  0  0
    0.8101   -3.9772   -3.3273 C   0  0  0  0  0  0  0  0  0  0  0  0
    2.2990   -5.1613   -1.7079 N   0  0  0  0  0  0  0  0  0  0  0  0
    2.1838   -5.1101   -0.3548 C   0  0  0  0  0  0  0  0  0  0  0  0
    2.1421   -6.1005    0.3524 O   0  0  0  0  0  0  0  0  0  0  0  0
    2.0870   -3.7132    0.2631 C   0  0  2  0  0  0  0  0  0  0  0  0
    0.6594   -3.4675    0.7772 C   0  0  0  0  0  0  0  0  0  0  0  0
    6.2065   -2.0532    0.3553 H   0  0  0  0  0  0  0  0  0  0  0  0
    4.9202   -3.2210   -0.0454 H   0  0  0  0  0  0  0  0  0  0  0  0
    5.3260   -2.8584    1.6548 H   0  0  0  0  0  0  0  0  0  0  0  0
    3.8882    1.9339    1.7704 H   0  0  0  0  0  0  0  0  0  0  0  0
    1.6975    1.7218    0.5728 H   0  0  0  0  0  0  0  0  0  0  0  0
    1.1171   -0.4335   -0.5510 H   0  0  0  0  0  0  0  0  0  0  0  0
    2.9493   -4.1607   -3.4094 H   0  0  0  0  0  0  0  0  0  0  0  0
   -0.0026   -3.8397   -2.5967 H   0  0  0  0  0  0  0  0  0  0  0  0
    0.6162   -4.9079   -3.8834 H   0  0  0  0  0  0  0  0  0  0  0  0
    0.7972   -3.1362   -4.0353 H   0  0  0  0  0  0  0  0  0  0  0  0
    2.3188   -6.1016   -2.0951 H   0  0  0  0  0  0  0  0  0  0  0  0
    2.7576   -3.7554    1.1344 H   0  0  0  0  0  0  0  0  0  0  0  0
   -0.0631   -3.4319   -0.0537 H   0  0  0  0  0  0  0  0  0  0  0  0
    0.6023   -2.5177    1.3286 H   0  0  0  0  0  0  0  0  0  0  0  0
    0.3741   -4.2854    1.4543 H   0  0  0  0  0  0  0  0  0  0  0  0
  1  2  1  0
  1 19  1  0
  1 20  1  0
  1 21  1  0
  2  3  2  0
  2  8  1  0
  3  4  1  0
  3  5  1  0
  5  6  2  0
  5 22  1  0
  6  7  1  0
  6 23  1  0
  7  8  2  0
  7 24  1  0
  8  9  1  0
  9 10  1  0
  9 17  1  0
 10 11  2  0
 10 12  1  0
 12 13  1  0
 12 14  1  0
 12 25  1  6
 13 26  1  0
 13 27  1  0
 13 28  1  0
 14 15  1  0
 14 29  1  0
 15 16  2  0
 15 17  1  0
 17 18  1  0
 17 30  1  1
 18 31  1  0
 18 32  1  0
 18 33  1  0
M  END

