
     RDKit          3D

111120  0  0  0  0  0  0  0  0999 V2000
    1.0132   -0.4234   -0.2801 N   0  0  0  0  0  0  0  0  0  0  0  0
    2.1662   -0.2899   -0.3034 C   0  0  0  0  0  0  0  0  0  0  0  0
    3.5958   -0.1242   -0.3320 C   0  0  0  0  0  0  0  0  0  0  0  0
    4.1372    1.1846   -0.3051 C   0  0  0  0  0  0  0  0  0  0  0  0
    3.2512    2.3779   -0.2497 C   0  0  0  0  0  0  0  0  0  0  0  0
    2.3492    2.5632    0.8133 C   0  0  0  0  0  0  0  0  0  0  0  0
    1.5210    3.6794    0.8696 C   0  0  0  0  0  0  0  0  0  0  0  0
    1.5579    4.6558   -0.1459 C   0  0  0  0  0  0  0  0  0  0  0  0
    0.7168    5.7861   -0.0949 N   0  0  0  0  0  0  0  0  0  0  0  0
    0.3975    6.3917    1.1534 C   0  0  0  0  0  0  0  0  0  0  0  0
    1.4013    6.6386    2.1069 C   0  0  0  0  0  0  0  0  0  0  0  0
    1.0809    7.2322    3.3290 C   0  0  0  0  0  0  0  0  0  0  0  0
   -0.2367    7.6056    3.6137 C   0  0  0  0  0  0  0  0  0  0  0  0
   -1.2355    7.3715    2.6632 C   0  0  0  0  0  0  0  0  0  0  0  0
   -0.9266    6.7630    1.4453 C   0  0  0  0  0  0  0  0  0  0  0  0
    0.1745    6.3357   -1.2910 C   0  0  0  0  0  0  0  0  0  0  0  0
   -0.3924    5.5003   -2.2700 C   0  0  0  0  0  0  0  0  0  0  0  0
   -0.9219    6.0461   -3.4405 C   0  0  0  0  0  0  0  0  0  0  0  0
   -0.9126    7.4295   -3.6470 C   0  0  0  0  0  0  0  0  0  0  0  0
   -0.3595    8.2640   -2.6704 C   0  0  0  0  0  0  0  0  0  0  0  0
    0.1874    7.7252   -1.5044 C   0  0  0  0  0  0  0  0  0  0  0  0
    2.4583    4.4712   -1.2140 C   0  0  0  0  0  0  0  0  0  0  0  0
    3.2888    3.3561   -1.2594 C   0  0  0  0  0  0  0  0  0  0  0  0
    5.5467    1.3241   -0.3328 C   0  0  0  0  0  0  0  0  0  0  0  0
    6.1191    2.6446   -0.3049 C   0  0  0  0  0  0  0  0  0  0  0  0
    6.5808    3.7095   -0.2824 N   0  0  0  0  0  0  0  0  0  0  0  0
    6.4092    0.2017   -0.3870 C   0  0  0  0  0  0  0  0  0  0  0  0
    7.8864    0.3729   -0.4147 C   0  0  0  0  0  0  0  0  0  0  0  0
    8.5596    1.0309    0.6301 C   0  0  0  0  0  0  0  0  0  0  0  0
    9.9414    1.1894    0.6101 C   0  0  0  0  0  0  0  0  0  0  0  0
   10.7073    0.6994   -0.4666 C   0  0  0  0  0  0  0  0  0  0  0  0
   12.1075    0.8615   -0.4923 N   0  0  0  0  0  0  0  0  0  0  0  0
   12.8629    0.7986    0.7128 C   0  0  0  0  0  0  0  0  0  0  0  0
   12.6296   -0.2222    1.6515 C   0  0  0  0  0  0  0  0  0  0  0  0
   13.3737   -0.2774    2.8312 C   0  0  0  0  0  0  0  0  0  0  0  0
   14.3718    0.6686    3.0866 C   0  0  0  0  0  0  0  0  0  0  0  0
   14.6140    1.6785    2.1499 C   0  0  0  0  0  0  0  0  0  0  0  0
   13.8630    1.7511    0.9754 C   0  0  0  0  0  0  0  0  0  0  0  0
   12.7843    1.0910   -1.7236 C   0  0  0  0  0  0  0  0  0  0  0  0
   12.2900    2.0279   -2.6485 C   0  0  0  0  0  0  0  0  0  0  0  0
   12.9587    2.2476   -3.8540 C   0  0  0  0  0  0  0  0  0  0  0  0
   14.1369    1.5539   -4.1495 C   0  0  0  0  0  0  0  0  0  0  0  0
   14.6371    0.6295   -3.2270 C   0  0  0  0  0  0  0  0  0  0  0  0
   13.9656    0.3915   -2.0266 C   0  0  0  0  0  0  0  0  0  0  0  0
   10.0350    0.0430   -1.5169 C   0  0  0  0  0  0  0  0  0  0  0  0
    8.6537   -0.1184   -1.4860 C   0  0  0  0  0  0  0  0  0  0  0  0
    5.8246   -1.0884   -0.4134 C   0  0  0  0  0  0  0  0  0  0  0  0
    6.6823   -2.2430   -0.4695 C   0  0  0  0  0  0  0  0  0  0  0  0
    7.3742   -3.1740   -0.5151 N   0  0  0  0  0  0  0  0  0  0  0  0
    4.4205   -1.2748   -0.3862 C   0  0  0  0  0  0  0  0  0  0  0  0
    3.8294   -2.6392   -0.4133 C   0  0  0  0  0  0  0  0  0  0  0  0
    4.1302   -3.5798    0.5881 C   0  0  0  0  0  0  0  0  0  0  0  0
    3.5763   -4.8556    0.5686 C   0  0  0  0  0  0  0  0  0  0  0  0
    2.7007   -5.2452   -0.4645 C   0  0  0  0  0  0  0  0  0  0  0  0
    2.1404   -6.5386   -0.4899 N   0  0  0  0  0  0  0  0  0  0  0  0
    1.7886   -7.1960    0.7229 C   0  0  0  0  0  0  0  0  0  0  0  0
    1.0844   -6.5119    1.7298 C   0  0  0  0  0  0  0  0  0  0  0  0
    0.7432   -7.1626    2.9167 C   0  0  0  0  0  0  0  0  0  0  0  0
    1.0801   -8.5060    3.1126 C   0  0  0  0  0  0  0  0  0  0  0  0
    1.7707   -9.1923    2.1087 C   0  0  0  0  0  0  0  0  0  0  0  0
    2.1305   -8.5445    0.9256 C   0  0  0  0  0  0  0  0  0  0  0  0
    1.9195   -7.2047   -1.7287 C   0  0  0  0  0  0  0  0  0  0  0  0
    2.9141   -7.2164   -2.7228 C   0  0  0  0  0  0  0  0  0  0  0  0
    2.6902   -7.8710   -3.9351 C   0  0  0  0  0  0  0  0  0  0  0  0
    1.4836   -8.5385   -4.1700 C   0  0  0  0  0  0  0  0  0  0  0  0
    0.4967   -8.5382   -3.1791 C   0  0  0  0  0  0  0  0  0  0  0  0
    0.7058   -7.8717   -1.9704 C   0  0  0  0  0  0  0  0  0  0  0  0
    2.4004   -4.3061   -1.4715 C   0  0  0  0  0  0  0  0  0  0  0  0
    2.9522   -3.0296   -1.4410 C   0  0  0  0  0  0  0  0  0  0  0  0
    2.2907    1.8225    1.6136 H   0  0  0  0  0  0  0  0  0  0  0  0
    0.8293    3.7949    1.7050 H   0  0  0  0  0  0  0  0  0  0  0  0
    2.4342    6.3641    1.8835 H   0  0  0  0  0  0  0  0  0  0  0  0
    1.8730    7.4176    4.0591 H   0  0  0  0  0  0  0  0  0  0  0  0
   -0.4828    8.0765    4.5684 H   0  0  0  0  0  0  0  0  0  0  0  0
   -2.2701    7.6537    2.8747 H   0  0  0  0  0  0  0  0  0  0  0  0
   -1.7115    6.5712    0.7112 H   0  0  0  0  0  0  0  0  0  0  0  0
   -0.4171    4.4210   -2.1069 H   0  0  0  0  0  0  0  0  0  0  0  0
   -1.3592    5.3829   -4.1914 H   0  0  0  0  0  0  0  0  0  0  0  0
   -1.3342    7.8539   -4.5612 H   0  0  0  0  0  0  0  0  0  0  0  0
   -0.3411    9.3465   -2.8212 H   0  0  0  0  0  0  0  0  0  0  0  0
    0.6289    8.3794   -0.7503 H   0  0  0  0  0  0  0  0  0  0  0  0
    2.5112    5.2147   -2.0103 H   0  0  0  0  0  0  0  0  0  0  0  0
    3.9792    3.2468   -2.0985 H   0  0  0  0  0  0  0  0  0  0  0  0
    7.9955    1.4282    1.4766 H   0  0  0  0  0  0  0  0  0  0  0  0
   10.4359    1.7063    1.4335 H   0  0  0  0  0  0  0  0  0  0  0  0
   11.8628   -0.9729    1.4498 H   0  0  0  0  0  0  0  0  0  0  0  0
   13.1800   -1.0775    3.5504 H   0  0  0  0  0  0  0  0  0  0  0  0
   14.9572    0.6182    4.0077 H   0  0  0  0  0  0  0  0  0  0  0  0
   15.3877    2.4272    2.3392 H   0  0  0  0  0  0  0  0  0  0  0  0
   14.0472    2.5482    0.2526 H   0  0  0  0  0  0  0  0  0  0  0  0
   11.3796    2.5841   -2.4159 H   0  0  0  0  0  0  0  0  0  0  0  0
   12.5614    2.9796   -4.5619 H   0  0  0  0  0  0  0  0  0  0  0  0
   14.6616    1.7335   -5.0909 H   0  0  0  0  0  0  0  0  0  0  0  0
   15.5542    0.0769   -3.4475 H   0  0  0  0  0  0  0  0  0  0  0  0
   14.3532   -0.3398   -1.3147 H   0  0  0  0  0  0  0  0  0  0  0  0
   10.6044   -0.3509   -2.3597 H   0  0  0  0  0  0  0  0  0  0  0  0
    8.1649   -0.6377   -2.3131 H   0  0  0  0  0  0  0  0  0  0  0  0
    4.8100   -3.3126    1.4000 H   0  0  0  0  0  0  0  0  0  0  0  0
    3.8300   -5.5647    1.3576 H   0  0  0  0  0  0  0  0  0  0  0  0
    0.8046   -5.4678    1.5755 H   0  0  0  0  0  0  0  0  0  0  0  0
    0.1954   -6.6166    3.6892 H   0  0  0  0  0  0  0  0  0  0  0  0
    0.8052   -9.0142    4.0399 H   0  0  0  0  0  0  0  0  0  0  0  0
    2.0445  -10.2410    2.2508 H   0  0  0  0  0  0  0  0  0  0  0  0
    2.6802   -9.0807    0.1497 H   0  0  0  0  0  0  0  0  0  0  0  0
    3.8642   -6.7109   -2.5385 H   0  0  0  0  0  0  0  0  0  0  0  0
    3.4739   -7.8709   -4.6973 H   0  0  0  0  0  0  0  0  0  0  0  0
    1.3145   -9.0558   -5.1173 H   0  0  0  0  0  0  0  0  0  0  0  0
   -0.4528   -9.0517   -3.3514 H   0  0  0  0  0  0  0  0  0  0  0  0
   -0.0721   -7.8640   -1.2044 H   0  0  0  0  0  0  0  0  0  0  0  0
    1.7210   -4.5796   -2.2797 H   0  0  0  0  0  0  0  0  0  0  0  0
    2.6937   -2.3245   -2.2338 H   0  0  0  0  0  0  0  0  0  0  0  0
  1  2  3  0
  2  3  1  0
  3  4  2  0
  3 50  1  0
  4  5  1  0
  4 24  1  0
  5  6  2  0
  5 23  1  0
  6  7  1  0
  6 70  1  0
  7  8  2  0
  7 71  1  0
  8  9  1  0
  8 22  1  0
  9 10  1  0
  9 16  1  0
 10 11  2  0
 10 15  1  0
 11 12  1  0
 11 72  1  0
 12 13  2  0
 12 73  1  0
 13 14  1  0
 13 74  1  0
 14 15  2  0
 14 75  1  0
 15 76  1  0
 16 17  2  0
 16 21  1  0
 17 18  1  0
 17 77  1  0
 18 19  2  0
 18 78  1  0
 19 20  1  0
 19 79  1  0
 20 21  2  0
 20 80  1  0
 21 81  1  0
 22 23  2  0
 22 82  1  0
 23 83  1  0
 24 25  1  0
 24 27  2  0
 25 26  3  0
 27 28  1  0
 27 47  1  0
 28 29  2  0
 28 46  1  0
 29 30  1  0
 29 84  1  0
 30 31  2  0
 30 85  1  0
 31 32  1  0
 31 45  1  0
 32 33  1  0
 32 39  1  0
 33 34  2  0
 33 38  1  0
 34 35  1  0
 34 86  1  0
 35 36  2  0
 35 87  1  0
 36 37  1  0
 36 88  1  0
 37 38  2  0
 37 89  1  0
 38 90  1  0
 39 40  2  0
 39 44  1  0
 40 41  1  0
 40 91  1  0
 41 42  2  0
 41 92  1  0
 42 43  1  0
 42 93  1  0
 43 44  2  0
 43 94  1  0
 44 95  1  0
 45 46  2  0
 45 96  1  0
 46 97  1  0
 47 48  1  0
 47 50  2  0
 48 49  3  0
 50 51  1  0
 51 52  2  0
 51 69  1  0
 52 53  1  0
 52 98  1  0
 53 54  2  0
 53 99  1  0
 54 55  1  0
 54 68  1  0
 55 56  1  0
 55 62  1  0
 56 57  2  0
 56 61  1  0
 57 58  1  0
 57100  1  0
 58 59  2  0
 58101  1  0
 59 60  1  0
 59102  1  0
 60 61  2  0
 60103  1  0
 61104  1  0
 62 63  2  0
 62 67  1  0
 63 64  1  0
 63105  1  0
 64 65  2  0
 64106  1  0
 65 66  1  0
 65107  1  0
 66 67  2  0
 66108  1  0
 67109  1  0
 68 69  2  0
 68110  1  0
 69111  1  0
M  END

