
     RDKit          3D

 38 38  0  0  0  0  0  0  0  0999 V2000
    7.0785   -1.7264    1.4982 C   0  0  0  0  0  0  0  0  0  0  0  0
    6.1840   -0.5349    1.2113 C   0  0  0  0  0  0  0  0  0  0  0  0
    6.6942    0.1671    0.0993 O   0  0  0  0  0  0  0  0  0  0  0  0
    5.9513    1.3034   -0.2653 C   0  0  0  0  0  0  0  0  0  0  0  0
    6.6035    1.9538   -1.4773 C   0  0  0  0  0  0  0  0  0  0  0  0
    6.6656    1.0129   -2.6852 C   0  0  0  0  0  0  0  0  0  0  0  0
    7.2717    1.6317   -3.8493 N   0  0  0  0  0  0  0  0  0  0  0  0
    8.4085    1.2071   -4.4261 C   0  0  0  0  0  0  0  0  0  0  0  0
    9.0923    0.2460   -4.0968 O   0  0  0  0  0  0  0  0  0  0  0  0
    8.8132    2.0901   -5.6312 C   0  0  0  0  0  0  0  0  0  0  0  0
    8.1534    3.0537   -5.9843 O   0  0  0  0  0  0  0  0  0  0  0  0
    9.9633    1.6270   -6.1896 N   0  0  0  0  0  0  0  0  0  0  0  0
   10.6697    2.1207   -7.2900 C   0  0  0  0  0  0  0  0  0  0  0  0
   11.8413    1.4519   -7.6903 C   0  0  0  0  0  0  0  0  0  0  0  0
   12.5832    1.9056   -8.7747 C   0  0  0  0  0  0  0  0  0  0  0  0
   12.1745    3.0252   -9.5116 C   0  0  0  0  0  0  0  0  0  0  0  0
   13.1792    3.5574  -10.8234 Cl  0  0  0  0  0  0  0  0  0  0  0  0
   11.0014    3.6827   -9.1077 C   0  0  0  0  0  0  0  0  0  0  0  0
   10.4715    4.8647   -9.8243 N   0  0  0  0  0  0  0  0  0  0  0  0
   10.5689    4.8797  -11.0369 O   0  0  0  0  0  0  0  0  0  0  0  0
    9.9483    5.7307   -9.1429 O   0  0  0  0  0  0  0  0  0  0  0  0
   10.2611    3.2555   -8.0048 C   0  0  0  0  0  0  0  0  0  0  0  0
    6.7039   -2.2905    2.3665 H   0  0  0  0  0  0  0  0  0  0  0  0
    8.1060   -1.3950    1.7135 H   0  0  0  0  0  0  0  0  0  0  0  0
    7.1128   -2.4034    0.6306 H   0  0  0  0  0  0  0  0  0  0  0  0
    6.1343    0.1353    2.0957 H   0  0  0  0  0  0  0  0  0  0  0  0
    5.1438   -0.8686    1.0094 H   0  0  0  0  0  0  0  0  0  0  0  0
    5.9053    2.0297    0.5731 H   0  0  0  0  0  0  0  0  0  0  0  0
    4.9006    1.0222   -0.4989 H   0  0  0  0  0  0  0  0  0  0  0  0
    7.6253    2.2723   -1.2121 H   0  0  0  0  0  0  0  0  0  0  0  0
    6.0356    2.8657   -1.7334 H   0  0  0  0  0  0  0  0  0  0  0  0
    5.6481    0.6661   -2.9425 H   0  0  0  0  0  0  0  0  0  0  0  0
    7.2638    0.1263   -2.4378 H   0  0  0  0  0  0  0  0  0  0  0  0
    6.8555    2.4583   -4.2734 H   0  0  0  0  0  0  0  0  0  0  0  0
   10.3200    0.8003   -5.7070 H   0  0  0  0  0  0  0  0  0  0  0  0
   12.1782    0.5697   -7.1399 H   0  0  0  0  0  0  0  0  0  0  0  0
   13.5010    1.3933   -9.0669 H   0  0  0  0  0  0  0  0  0  0  0  0
    9.3722    3.8075   -7.7087 H   0  0  0  0  0  0  0  0  0  0  0  0
  1  2  1  0
  1 23  1  0
  1 24  1  0
  1 25  1  0
  2  3  1  0
  2 26  1  0
  2 27  1  0
  3  4  1  0
  4  5  1  0
  4 28  1  0
  4 29  1  0
  5  6  1  0
  5 30  1  0
  5 31  1  0
  6  7  1  0
  6 32  1  0
  6 33  1  0
  7  8  1  0
  7 34  1  0
  8  9  2  0
  8 10  1  0
 10 11  2  0
 10 12  1  0
 12 13  1  0
 12 35  1  0
 13 14  2  0
 13 22  1  0
 14 15  1  0
 14 36  1  0
 15 16  2  0
 15 37  1  0
 16 17  1  0
 16 18  1  0
 18 19  1  0
 18 22  2  0
 19 20  2  0
 19 21  1  0
 22 38  1  0
M  CHG  2  19   1  21  -1
M  END

