
     RDKit          3D

 24 25  0  0  0  0  0  0  0  0999 V2000
    1.4820    0.4087   -0.0520 C   0  0  0  0  0  0  0  0  0  0  0  0
    2.9148   -0.0315   -0.0106 C   0  0  0  0  0  0  0  0  0  0  0  0
    3.8702    0.8734    0.0461 N   0  0  0  0  0  0  0  0  0  0  0  0
    5.0385    0.1786    0.0716 N   0  0  0  0  0  0  0  0  0  0  0  0
    6.2189    0.9208    0.1328 C   0  0  0  0  0  0  0  0  0  0  0  0
    7.4144    0.4159    0.1612 N   0  0  0  0  0  0  0  0  0  0  0  0
    8.3404    1.4147    0.2206 C   0  0  0  0  0  0  0  0  0  0  0  0
   10.1774    0.9723    0.2730 Br  0  0  0  0  0  0  0  0  0  0  0  0
    7.8613    2.6964    0.2382 C   0  0  0  0  0  0  0  0  0  0  0  0
    6.1237    2.6684    0.1763 S   0  0  0  0  0  0  0  0  0  0  0  0
    4.8546   -1.1831    0.0316 C   0  0  0  0  0  0  0  0  0  0  0  0
    5.9642   -2.1770    0.0476 C   0  0  0  0  0  0  0  0  0  0  0  0
    3.4687   -1.3600   -0.0230 C   0  0  0  0  0  0  0  0  0  0  0  0
    2.7827   -2.6762   -0.0800 C   0  0  0  0  0  0  0  0  0  0  0  0
    3.3516   -3.7393   -0.0870 O   0  0  0  0  0  0  0  0  0  0  0  0
    1.4286   -2.6512   -0.1265 O   0  0  0  0  0  0  0  0  0  0  0  0
    1.4354    1.5056   -0.0281 H   0  0  0  0  0  0  0  0  0  0  0  0
    0.9123    0.0322    0.8152 H   0  0  0  0  0  0  0  0  0  0  0  0
    0.9767    0.0737   -0.9744 H   0  0  0  0  0  0  0  0  0  0  0  0
    8.4188    3.6289    0.2826 H   0  0  0  0  0  0  0  0  0  0  0  0
    6.6437   -2.0189   -0.8036 H   0  0  0  0  0  0  0  0  0  0  0  0
    5.5360   -3.1838    0.0072 H   0  0  0  0  0  0  0  0  0  0  0  0
    6.5799   -2.0622    0.9527 H   0  0  0  0  0  0  0  0  0  0  0  0
    1.0855   -1.7485   -0.1152 H   0  0  0  0  0  0  0  0  0  0  0  0
  1  2  1  0
  1 17  1  0
  1 18  1  0
  1 19  1  0
  2  3  2  0
  2 13  1  0
  3  4  1  0
  4  5  1  0
  4 11  1  0
  5  6  2  0
  5 10  1  0
  6  7  1  0
  7  8  1  0
  7  9  2  0
  9 10  1  0
  9 20  1  0
 11 12  1  0
 11 13  2  0
 12 21  1  0
 12 22  1  0
 12 23  1  0
 13 14  1  0
 14 15  2  0
 14 16  1  0
 16 24  1  0
M  END

