
     RDKit          3D

 64 66  0  0  0  0  0  0  0  0999 V2000
    1.1449   -0.7039    2.6050 C   0  0  0  0  0  0  0  0  0  0  0  0
    2.2835    0.0491    1.9196 C   0  0  0  0  0  0  0  0  0  0  0  0
    3.0501   -0.8020    1.0014 N   0  0  0  0  0  0  0  0  0  0  0  0
    2.4731   -1.0902   -0.3210 C   0  0  0  0  0  0  0  0  0  0  0  0
    2.5016    0.0708   -1.3173 C   0  0  0  0  0  0  0  0  0  0  0  0
    4.7331   -0.6293    1.0580 S   0  0  1  0  0  0  0  0  0  0  0  0
    5.2538   -1.4339   -0.0527 O   0  0  0  0  0  0  0  0  0  0  0  0
    5.1068    0.7877    1.1805 O   0  0  0  0  0  0  0  0  0  0  0  0
    5.1709   -1.4276    2.6068 C   0  0  0  0  0  0  0  0  0  0  0  0
    5.8076   -0.6580    3.6002 C   0  0  0  0  0  0  0  0  0  0  0  0
    6.2190   -1.2465    4.7959 C   0  0  0  0  0  0  0  0  0  0  0  0
    5.9774   -2.6161    4.9510 C   0  0  0  0  0  0  0  0  0  0  0  0
    5.3394   -3.3945    3.9458 C   0  0  0  0  0  0  0  0  0  0  0  0
    4.9343   -2.7961    2.7488 C   0  0  0  0  0  0  0  0  0  0  0  0
    5.2374   -4.7074    4.3621 N   0  0  0  0  0  0  0  0  0  0  0  0
    5.7800   -4.7428    5.5543 C   0  0  0  0  0  0  0  0  0  0  0  0
    5.9054   -5.9707    6.4028 C   0  0  0  0  0  0  0  0  0  0  0  0
    5.2660   -7.1982    5.7618 C   0  0  0  0  0  0  0  0  0  0  0  0
    5.2372   -8.3842    6.7236 C   0  0  0  0  0  0  0  0  0  0  0  0
    5.3047   -8.2460    7.9325 O   0  0  0  0  0  0  0  0  0  0  0  0
    5.0903   -9.6043    6.1064 N   0  0  0  0  0  0  0  0  0  0  0  0
    5.0459  -10.8739    6.7537 C   0  0  0  0  0  0  0  0  0  0  0  0
    4.0301  -11.1707    7.6883 C   0  0  0  0  0  0  0  0  0  0  0  0
    2.9540  -10.1755    8.0338 C   0  0  0  0  0  0  0  0  0  0  0  0
    4.0355  -12.4416    8.2832 C   0  0  0  0  0  0  0  0  0  0  0  0
    4.9950  -13.3962    7.9496 C   0  0  0  0  0  0  0  0  0  0  0  0
    5.9763  -13.0934    7.0048 C   0  0  0  0  0  0  0  0  0  0  0  0
    6.0217  -11.8323    6.3980 C   0  0  0  0  0  0  0  0  0  0  0  0
    7.0952  -11.5025    5.3892 C   0  0  0  0  0  0  0  0  0  0  0  0
    6.2567   -3.5058    5.9717 N   0  0  0  0  0  0  0  0  0  0  0  0
    6.8628   -3.1742    7.2550 C   0  0  0  0  0  0  0  0  0  0  0  0
    5.8603   -2.6721    8.2949 C   0  0  0  0  0  0  0  0  0  0  0  0
    0.6099   -0.0342    3.2975 H   0  0  0  0  0  0  0  0  0  0  0  0
    1.5318   -1.5609    3.1776 H   0  0  0  0  0  0  0  0  0  0  0  0
    0.4076   -1.0845    1.8805 H   0  0  0  0  0  0  0  0  0  0  0  0
    2.9764    0.4377    2.6800 H   0  0  0  0  0  0  0  0  0  0  0  0
    1.8964    0.9400    1.3911 H   0  0  0  0  0  0  0  0  0  0  0  0
    1.4370   -1.4199   -0.1401 H   0  0  0  0  0  0  0  0  0  0  0  0
    3.0112   -1.9523   -0.7379 H   0  0  0  0  0  0  0  0  0  0  0  0
    1.9732    0.9592   -0.9363 H   0  0  0  0  0  0  0  0  0  0  0  0
    2.0154   -0.2276   -2.2603 H   0  0  0  0  0  0  0  0  0  0  0  0
    3.5387    0.3586   -1.5456 H   0  0  0  0  0  0  0  0  0  0  0  0
    5.9754    0.4030    3.4103 H   0  0  0  0  0  0  0  0  0  0  0  0
    6.7105   -0.6503    5.5673 H   0  0  0  0  0  0  0  0  0  0  0  0
    4.4561   -3.3804    1.9618 H   0  0  0  0  0  0  0  0  0  0  0  0
    5.4468   -5.8109    7.3927 H   0  0  0  0  0  0  0  0  0  0  0  0
    6.9725   -6.1695    6.6109 H   0  0  0  0  0  0  0  0  0  0  0  0
    5.7763   -7.4583    4.8207 H   0  0  0  0  0  0  0  0  0  0  0  0
    4.2278   -6.9635    5.4718 H   0  0  0  0  0  0  0  0  0  0  0  0
    5.1926   -9.6117    5.0973 H   0  0  0  0  0  0  0  0  0  0  0  0
    2.5582   -9.6878    7.1282 H   0  0  0  0  0  0  0  0  0  0  0  0
    3.3549   -9.3751    8.6749 H   0  0  0  0  0  0  0  0  0  0  0  0
    2.1188  -10.6651    8.5550 H   0  0  0  0  0  0  0  0  0  0  0  0
    3.2574  -12.6848    9.0119 H   0  0  0  0  0  0  0  0  0  0  0  0
    4.9750  -14.3815    8.4220 H   0  0  0  0  0  0  0  0  0  0  0  0
    6.7287  -13.8406    6.7383 H   0  0  0  0  0  0  0  0  0  0  0  0
    7.8293  -12.3174    5.3155 H   0  0  0  0  0  0  0  0  0  0  0  0
    7.6352  -10.5800    5.6582 H   0  0  0  0  0  0  0  0  0  0  0  0
    6.6821  -11.3482    4.3755 H   0  0  0  0  0  0  0  0  0  0  0  0
    7.6394   -2.4150    7.0700 H   0  0  0  0  0  0  0  0  0  0  0  0
    7.3863   -4.0674    7.6260 H   0  0  0  0  0  0  0  0  0  0  0  0
    5.3394   -1.7687    7.9423 H   0  0  0  0  0  0  0  0  0  0  0  0
    6.3802   -2.4238    9.2334 H   0  0  0  0  0  0  0  0  0  0  0  0
    5.1019   -3.4383    8.5184 H   0  0  0  0  0  0  0  0  0  0  0  0
  1  2  1  0
  1 33  1  0
  1 34  1  0
  1 35  1  0
  2  3  1  0
  2 36  1  0
  2 37  1  0
  3  4  1  0
  6  3  1  6
  4  5  1  0
  4 38  1  0
  4 39  1  0
  5 40  1  0
  5 41  1  0
  5 42  1  0
  6  7  2  0
  6  8  2  0
  6  9  1  0
  9 10  2  0
  9 14  1  0
 10 11  1  0
 10 43  1  0
 11 12  2  0
 11 44  1  0
 12 13  1  0
 12 30  1  0
 13 14  2  0
 13 15  1  0
 14 45  1  0
 15 16  2  0
 16 17  1  0
 16 30  1  0
 17 18  1  0
 17 46  1  0
 17 47  1  0
 18 19  1  0
 18 48  1  0
 18 49  1  0
 19 20  2  0
 19 21  1  0
 21 22  1  0
 21 50  1  0
 22 23  2  0
 22 28  1  0
 23 24  1  0
 23 25  1  0
 24 51  1  0
 24 52  1  0
 24 53  1  0
 25 26  2  0
 25 54  1  0
 26 27  1  0
 26 55  1  0
 27 28  2  0
 27 56  1  0
 28 29  1  0
 29 57  1  0
 29 58  1  0
 29 59  1  0
 30 31  1  0
 31 32  1  0
 31 60  1  0
 31 61  1  0
 32 62  1  0
 32 63  1  0
 32 64  1  0
M  END

