
     RDKit          3D

 22 23  0  0  0  0  0  0  0  0999 V2000
    2.4294    1.3499   -1.1143 N   0  0  0  0  0  0  0  0  0  0  0  0
    2.2055    0.2067   -0.4435 C   0  0  0  0  0  0  0  0  0  0  0  0
    1.0279    0.0456    0.7226 S   0  0  0  0  0  0  0  0  0  0  0  0
    3.1334   -0.8629   -0.8600 C   0  0  0  0  0  0  0  0  0  0  0  0
    4.0868   -0.6596   -1.7559 N   0  0  0  0  0  0  0  0  0  0  0  0
    4.7653   -1.8324   -1.8783 C   0  0  0  0  0  0  0  0  0  0  0  0
    4.2195   -2.7798   -1.0375 C   0  0  0  0  0  0  0  0  0  0  0  0
    3.1755   -2.1601   -0.3892 N   0  0  0  0  0  0  0  0  0  0  0  0
    2.3434   -2.8266    0.5654 C   0  0  0  0  0  0  0  0  0  0  0  0
    2.8404   -2.9918    1.7807 N   0  0  0  0  0  0  0  0  0  0  0  0
    2.1313   -3.6373    2.7022 C   0  0  0  0  0  0  0  0  0  0  0  0
    0.8696   -4.1734    2.4198 C   0  0  0  0  0  0  0  0  0  0  0  0
   -0.0272   -5.0029    3.6571 Cl  0  0  0  0  0  0  0  0  0  0  0  0
    0.3477   -4.0508    1.1298 C   0  0  0  0  0  0  0  0  0  0  0  0
    1.1031   -3.3704    0.1780 C   0  0  0  0  0  0  0  0  0  0  0  0
    0.5095   -3.1974   -1.4424 Cl  0  0  0  0  0  0  0  0  0  0  0  0
    1.8680    2.1641   -0.9002 H   0  0  0  0  0  0  0  0  0  0  0  0
    3.1839    1.3792   -1.7957 H   0  0  0  0  0  0  0  0  0  0  0  0
    5.6109   -1.9474   -2.5551 H   0  0  0  0  0  0  0  0  0  0  0  0
    4.4730   -3.8178   -0.8392 H   0  0  0  0  0  0  0  0  0  0  0  0
    2.5678   -3.7456    3.6997 H   0  0  0  0  0  0  0  0  0  0  0  0
   -0.6242   -4.4716    0.8711 H   0  0  0  0  0  0  0  0  0  0  0  0
  1  2  1  0
  1 17  1  0
  1 18  1  0
  2  3  2  0
  2  4  1  0
  4  5  2  0
  4  8  1  0
  5  6  1  0
  6  7  2  0
  6 19  1  0
  7  8  1  0
  7 20  1  0
  8  9  1  0
  9 10  2  0
  9 15  1  0
 10 11  1  0
 11 12  2  0
 11 21  1  0
 12 13  1  0
 12 14  1  0
 14 15  2  0
 14 22  1  0
 15 16  1  0
M  END

