
     RDKit          3D

 52 52  0  0  0  0  0  0  0  0999 V2000
    6.5995    7.3093   -0.2689 C   0  0  0  0  0  0  0  0  0  0  0  0
    5.9573    6.1479   -1.0289 C   0  0  0  0  0  0  0  0  0  0  0  0
    6.9758    5.2252   -1.7050 C   0  0  0  0  0  0  0  0  0  0  0  0
    6.3281    4.0559   -2.4487 C   0  0  0  0  0  0  0  0  0  0  0  0
    7.2759    3.2414   -3.1813 N   0  0  0  0  0  0  0  0  0  0  0  0
    8.2704    2.5043   -2.4163 C   0  0  0  0  0  0  0  0  0  0  0  0
    8.8037    1.5329   -3.4618 C   0  0  0  0  0  0  0  0  0  0  0  0
    7.5876    1.1627   -4.1713 N   0  0  0  0  0  0  0  0  0  0  0  0
    7.7367    0.5057   -5.4542 C   0  0  0  0  0  0  0  0  0  0  0  0
    8.3383   -0.9009   -5.3500 C   0  0  0  0  0  0  0  0  0  0  0  0
    7.4881   -1.8701   -4.5136 C   0  0  0  0  0  0  0  0  0  0  0  0
    8.2580   -3.5397   -4.2157 Si  0  0  1  0  0  4  0  0  0  0  0  0
    7.2276   -4.4604   -3.3022 O   0  0  0  0  0  0  0  0  0  0  0  0
    6.2979   -5.8281   -3.1533 Si  0  0  0  0  0  4  0  0  0  0  0  0
    5.1087   -5.7520   -4.0507 H   0  0  0  0  0  0  0  0  0  0  0  0
    7.0840   -7.0487   -3.4974 H   0  0  0  0  0  0  0  0  0  0  0  0
    5.8366   -5.9275   -1.7410 H   0  0  0  0  0  0  0  0  0  0  0  0
    8.5694   -4.3008   -5.6514 O   0  0  0  0  0  0  0  0  0  0  0  0
    9.7584   -5.1228   -6.4791 Si  0  0  0  0  0  4  0  0  0  0  0  0
   10.8971   -4.2174   -6.8058 H   0  0  0  0  0  0  0  0  0  0  0  0
   10.2656   -6.2784   -5.6843 H   0  0  0  0  0  0  0  0  0  0  0  0
    9.1606   -5.6291   -7.7454 H   0  0  0  0  0  0  0  0  0  0  0  0
    9.7276   -3.4469   -3.4461 O   0  0  0  0  0  0  0  0  0  0  0  0
    9.9798   -3.1718   -2.0782 C   0  0  0  0  0  0  0  0  0  0  0  0
   11.4234   -3.5088   -1.7477 C   0  0  0  0  0  0  0  0  0  0  0  0
    6.6896    2.3148   -4.1448 C   0  0  0  0  0  0  0  0  0  0  0  0
    5.8405    7.9545    0.2017 H   0  0  0  0  0  0  0  0  0  0  0  0
    7.2043    7.9416   -0.9403 H   0  0  0  0  0  0  0  0  0  0  0  0
    7.2678    6.9453    0.5296 H   0  0  0  0  0  0  0  0  0  0  0  0
    5.2641    6.5463   -1.7922 H   0  0  0  0  0  0  0  0  0  0  0  0
    5.3315    5.5561   -0.3361 H   0  0  0  0  0  0  0  0  0  0  0  0
    7.6754    4.8414   -0.9410 H   0  0  0  0  0  0  0  0  0  0  0  0
    7.5887    5.7979   -2.4236 H   0  0  0  0  0  0  0  0  0  0  0  0
    5.6017    4.4616   -3.1748 H   0  0  0  0  0  0  0  0  0  0  0  0
    5.7326    3.4432   -1.7277 H   0  0  0  0  0  0  0  0  0  0  0  0
    7.8288    1.9463   -1.5582 H   0  0  0  0  0  0  0  0  0  0  0  0
    9.0560    3.1668   -2.0191 H   0  0  0  0  0  0  0  0  0  0  0  0
    9.2987    0.6577   -3.0096 H   0  0  0  0  0  0  0  0  0  0  0  0
    9.5458    2.0406   -4.1193 H   0  0  0  0  0  0  0  0  0  0  0  0
    8.3551    1.1163   -6.1550 H   0  0  0  0  0  0  0  0  0  0  0  0
    6.7353    0.4255   -5.9118 H   0  0  0  0  0  0  0  0  0  0  0  0
    9.3569   -0.8343   -4.9292 H   0  0  0  0  0  0  0  0  0  0  0  0
    8.4667   -1.2960   -6.3720 H   0  0  0  0  0  0  0  0  0  0  0  0
    6.5051   -2.0265   -4.9945 H   0  0  0  0  0  0  0  0  0  0  0  0
    7.2647   -1.4088   -3.5354 H   0  0  0  0  0  0  0  0  0  0  0  0
    9.2939   -3.7584   -1.4391 H   0  0  0  0  0  0  0  0  0  0  0  0
    9.7834   -2.1027   -1.8653 H   0  0  0  0  0  0  0  0  0  0  0  0
   11.6228   -4.5762   -1.9305 H   0  0  0  0  0  0  0  0  0  0  0  0
   11.6407   -3.2887   -0.6901 H   0  0  0  0  0  0  0  0  0  0  0  0
   12.1116   -2.9210   -2.3751 H   0  0  0  0  0  0  0  0  0  0  0  0
    5.6628    1.9932   -3.8527 H   0  0  0  0  0  0  0  0  0  0  0  0
    6.6008    2.8051   -5.1410 H   0  0  0  0  0  0  0  0  0  0  0  0
  1  2  1  0
  1 27  1  0
  1 28  1  0
  1 29  1  0
  2  3  1  0
  2 30  1  0
  2 31  1  0
  3  4  1  0
  3 32  1  0
  3 33  1  0
  4  5  1  0
  4 34  1  0
  4 35  1  0
  5  6  1  0
  5 26  1  0
  6  7  1  0
  6 36  1  0
  6 37  1  0
  7  8  1  0
  7 38  1  0
  7 39  1  0
  8  9  1  0
  8 26  1  0
  9 10  1  0
  9 40  1  0
  9 41  1  0
 10 11  1  0
 10 42  1  0
 10 43  1  0
 11 12  1  0
 11 44  1  0
 11 45  1  0
 12 13  1  1
 12 18  1  0
 12 23  1  0
 13 14  1  0
 14 15  1  0
 14 16  1  0
 14 17  1  0
 18 19  1  0
 19 20  1  0
 19 21  1  0
 19 22  1  0
 23 24  1  0
 24 25  1  0
 24 46  1  0
 24 47  1  0
 25 48  1  0
 25 49  1  0
 25 50  1  0
 26 51  1  0
 26 52  1  0
M  END

