
     RDKit          3D

 32 33  0  0  0  0  0  0  0  0999 V2000
    1.1490    0.1550   -0.3430 O   0  0  0  0  0  0  0  0  0  0  0  0
    2.3464    0.0804   -0.1920 C   0  0  0  0  0  0  0  0  0  0  0  0
    3.0961   -1.1913   -0.0153 C   0  0  0  0  0  0  0  0  0  0  0  0
    4.4843   -1.1533    0.1529 C   0  0  0  0  0  0  0  0  0  0  0  0
    5.1564   -2.3647    0.3180 C   0  0  0  0  0  0  0  0  0  0  0  0
    6.4859   -2.3541    0.4815 F   0  0  0  0  0  0  0  0  0  0  0  0
    4.4923   -3.5828    0.3181 C   0  0  0  0  0  0  0  0  0  0  0  0
    3.0926   -3.6094    0.1468 C   0  0  0  0  0  0  0  0  0  0  0  0
    2.5251   -4.8349    0.1625 O   0  0  0  0  0  0  0  0  0  0  0  0
    1.1171   -4.9586   -0.0410 C   0  0  0  0  0  0  0  0  0  0  0  0
    0.7650   -6.4116   -0.0473 C   0  0  0  0  0  0  0  0  0  0  0  0
   -0.1863   -6.9489    0.7340 C   0  0  0  0  0  0  0  0  0  0  0  0
   -0.6368   -8.3496    0.7698 C   0  0  0  0  0  0  0  0  0  0  0  0
   -0.1265   -9.3464   -0.0869 C   0  0  0  0  0  0  0  0  0  0  0  0
   -0.5821  -10.6610   -0.0059 C   0  0  0  0  0  0  0  0  0  0  0  0
   -1.5614  -11.0154    0.9305 C   0  0  0  0  0  0  0  0  0  0  0  0
   -2.0806  -10.0399    1.7851 C   0  0  0  0  0  0  0  0  0  0  0  0
   -1.6226   -8.7232    1.7034 C   0  0  0  0  0  0  0  0  0  0  0  0
    2.3928   -2.4081   -0.0194 C   0  0  0  0  0  0  0  0  0  0  0  0
    2.9849    1.0015   -0.1755 H   0  0  0  0  0  0  0  0  0  0  0  0
    5.0392   -0.2128    0.1580 H   0  0  0  0  0  0  0  0  0  0  0  0
    5.0423   -4.5154    0.4493 H   0  0  0  0  0  0  0  0  0  0  0  0
    0.8521   -4.4915   -1.0102 H   0  0  0  0  0  0  0  0  0  0  0  0
    0.5646   -4.4210    0.7505 H   0  0  0  0  0  0  0  0  0  0  0  0
    1.3301   -7.0256   -0.7563 H   0  0  0  0  0  0  0  0  0  0  0  0
   -0.7042   -6.2849    1.4373 H   0  0  0  0  0  0  0  0  0  0  0  0
    0.6343   -9.0909   -0.8276 H   0  0  0  0  0  0  0  0  0  0  0  0
   -0.1722  -11.4176   -0.6801 H   0  0  0  0  0  0  0  0  0  0  0  0
   -1.9173  -12.0469    0.9902 H   0  0  0  0  0  0  0  0  0  0  0  0
   -2.8461  -10.3041    2.5192 H   0  0  0  0  0  0  0  0  0  0  0  0
   -2.0330   -7.9648    2.3762 H   0  0  0  0  0  0  0  0  0  0  0  0
    1.3124   -2.3663   -0.1521 H   0  0  0  0  0  0  0  0  0  0  0  0
  1  2  2  0
  2  3  1  0
  2 20  1  0
  3  4  2  0
  3 19  1  0
  4  5  1  0
  4 21  1  0
  5  6  1  0
  5  7  2  0
  7  8  1  0
  7 22  1  0
  8  9  1  0
  8 19  2  0
  9 10  1  0
 10 11  1  0
 10 23  1  0
 10 24  1  0
 11 12  2  0
 11 25  1  0
 12 13  1  0
 12 26  1  0
 13 14  2  0
 13 18  1  0
 14 15  1  0
 14 27  1  0
 15 16  2  0
 15 28  1  0
 16 17  1  0
 16 29  1  0
 17 18  2  0
 17 30  1  0
 18 31  1  0
 19 32  1  0
M  END

