
     RDKit          3D

 56 59  0  0  0  0  0  0  0  0999 V2000
    1.6160    0.6823    2.0097 C   0  0  0  0  0  0  0  0  0  0  0  0
    2.9876    0.4330    1.4396 C   0  0  0  0  0  0  0  0  0  0  0  0
    4.1583    0.7462    2.1529 C   0  0  0  0  0  0  0  0  0  0  0  0
    5.3968    0.4858    1.5756 C   0  0  0  0  0  0  0  0  0  0  0  0
    5.4526   -0.1082    0.3065 C   0  0  0  0  0  0  0  0  0  0  0  0
    6.8057   -0.3128   -0.3178 C   0  0  0  0  0  0  0  0  0  0  0  0
    7.7196    0.4663   -0.0779 O   0  0  0  0  0  0  0  0  0  0  0  0
    6.9997   -1.3803   -1.1585 N   0  0  0  0  0  0  0  0  0  0  0  0
    8.3353   -1.5574   -1.7487 C   0  0  0  0  0  0  0  0  0  0  0  0
    8.2557   -2.9158   -2.4496 C   0  0  0  0  0  0  0  0  0  0  0  0
    7.2227   -3.6870   -1.5981 C   0  0  2  0  0  0  0  0  0  0  0  0
    6.6573   -4.9050   -2.2445 C   0  0  0  0  0  0  0  0  0  0  0  0
    6.7198   -6.1400   -1.8452 N   0  0  0  0  0  0  0  0  0  0  0  0
    6.0427   -6.8167   -2.8392 C   0  0  0  0  0  0  0  0  0  0  0  0
    5.8397   -8.2962   -2.8337 C   0  0  0  0  0  0  0  0  0  0  0  0
    5.0835   -8.7779   -1.5960 C   0  0  0  0  0  0  0  0  0  0  0  0
    4.9946  -10.1776   -1.6548 O   0  0  0  0  0  0  0  0  0  0  0  0
    4.3248  -10.7667   -0.5606 C   0  0  0  0  0  0  0  0  0  0  0  0
    4.3002  -12.2819   -0.7211 C   0  0  1  0  0  0  0  0  0  0  0  0
    3.5784  -12.7868   -1.9857 C   0  0  0  0  0  0  0  0  0  0  0  0
    4.0851  -14.2259   -2.1302 C   0  0  0  0  0  0  0  0  0  0  0  0
    5.5875  -14.1153   -1.7991 C   0  0  0  0  0  0  0  0  0  0  0  0
    5.7058  -12.9452   -0.7833 C   0  0  0  0  0  0  0  0  0  0  0  0
    5.5847   -6.0429   -3.7911 N   0  0  0  0  0  0  0  0  0  0  0  0
    5.9942   -4.7689   -3.4029 O   0  0  0  0  0  0  0  0  0  0  0  0
    6.1817   -2.5880   -1.2867 C   0  0  0  0  0  0  0  0  0  0  0  0
    4.2278   -0.3593   -0.3326 C   0  0  0  0  0  0  0  0  0  0  0  0
    3.0396   -0.0978    0.2092 N   0  0  0  0  0  0  0  0  0  0  0  0
    1.6585    1.1555    3.0009 H   0  0  0  0  0  0  0  0  0  0  0  0
    1.0625   -0.2671    2.0945 H   0  0  0  0  0  0  0  0  0  0  0  0
    1.0353    1.3263    1.3303 H   0  0  0  0  0  0  0  0  0  0  0  0
    4.0916    1.1974    3.1455 H   0  0  0  0  0  0  0  0  0  0  0  0
    6.3297    0.7413    2.0828 H   0  0  0  0  0  0  0  0  0  0  0  0
    9.0984   -1.5384   -0.9519 H   0  0  0  0  0  0  0  0  0  0  0  0
    8.5753   -0.7299   -2.4340 H   0  0  0  0  0  0  0  0  0  0  0  0
    9.2280   -3.4262   -2.5018 H   0  0  0  0  0  0  0  0  0  0  0  0
    7.8742   -2.8067   -3.4773 H   0  0  0  0  0  0  0  0  0  0  0  0
    7.6925   -4.0240   -0.6620 H   0  0  0  0  0  0  0  0  0  0  0  0
    6.8232   -8.7943   -2.8528 H   0  0  0  0  0  0  0  0  0  0  0  0
    5.2976   -8.5880   -3.7442 H   0  0  0  0  0  0  0  0  0  0  0  0
    4.0731   -8.3183   -1.5652 H   0  0  0  0  0  0  0  0  0  0  0  0
    5.6163   -8.4495   -0.6807 H   0  0  0  0  0  0  0  0  0  0  0  0
    3.2874  -10.3759   -0.4944 H   0  0  0  0  0  0  0  0  0  0  0  0
    4.8323  -10.4912    0.3881 H   0  0  0  0  0  0  0  0  0  0  0  0
    3.7606  -12.6761    0.1590 H   0  0  0  0  0  0  0  0  0  0  0  0
    3.8964  -12.1810   -2.8508 H   0  0  0  0  0  0  0  0  0  0  0  0
    2.4812  -12.7101   -1.9104 H   0  0  0  0  0  0  0  0  0  0  0  0
    3.8935  -14.6616   -3.1237 H   0  0  0  0  0  0  0  0  0  0  0  0
    3.5788  -14.8720   -1.3911 H   0  0  0  0  0  0  0  0  0  0  0  0
    6.1508  -13.8758   -2.7158 H   0  0  0  0  0  0  0  0  0  0  0  0
    6.0030  -15.0590   -1.4124 H   0  0  0  0  0  0  0  0  0  0  0  0
    6.4519  -12.2109   -1.1210 H   0  0  0  0  0  0  0  0  0  0  0  0
    6.0221  -13.2919    0.2133 H   0  0  0  0  0  0  0  0  0  0  0  0
    5.6157   -2.7943   -0.3675 H   0  0  0  0  0  0  0  0  0  0  0  0
    5.4614   -2.5148   -2.1205 H   0  0  0  0  0  0  0  0  0  0  0  0
    4.2073   -0.7645   -1.3501 H   0  0  0  0  0  0  0  0  0  0  0  0
  1  2  1  0
  1 29  1  0
  1 30  1  0
  1 31  1  0
  2  3  2  0
  2 28  1  0
  3  4  1  0
  3 32  1  0
  4  5  2  0
  4 33  1  0
  5  6  1  0
  5 27  1  0
  6  7  2  0
  6  8  1  0
  8  9  1  0
  8 26  1  0
  9 10  1  0
  9 34  1  0
  9 35  1  0
 10 11  1  0
 10 36  1  0
 10 37  1  0
 11 12  1  0
 11 26  1  0
 11 38  1  1
 12 13  2  0
 12 25  1  0
 13 14  1  0
 14 15  1  0
 14 24  2  0
 15 16  1  0
 15 39  1  0
 15 40  1  0
 16 17  1  0
 16 41  1  0
 16 42  1  0
 17 18  1  0
 18 19  1  0
 18 43  1  0
 18 44  1  0
 19 20  1  0
 19 23  1  0
 19 45  1  1
 20 21  1  0
 20 46  1  0
 20 47  1  0
 21 22  1  0
 21 48  1  0
 21 49  1  0
 22 23  1  0
 22 50  1  0
 22 51  1  0
 23 52  1  0
 23 53  1  0
 24 25  1  0
 26 54  1  0
 26 55  1  0
 27 28  2  0
 27 56  1  0
M  END

