
     RDKit          3D

 53 55  0  0  0  0  0  0  0  0999 V2000
    1.5521   -2.3143    2.2827 C   0  0  0  0  0  0  0  0  0  0  0  0
    2.6057   -2.5781    1.3903 O   0  0  0  0  0  0  0  0  0  0  0  0
    2.5284   -3.6726    0.5758 C   0  0  0  0  0  0  0  0  0  0  0  0
    1.4533   -4.5597    0.5513 C   0  0  0  0  0  0  0  0  0  0  0  0
    1.4651   -5.6595   -0.3227 C   0  0  0  0  0  0  0  0  0  0  0  0
    2.5522   -5.8653   -1.1698 C   0  0  0  0  0  0  0  0  0  0  0  0
    2.6612   -6.9025   -2.0532 O   0  0  0  0  0  0  0  0  0  0  0  0
    1.6140   -7.8368   -2.1436 C   0  0  0  0  0  0  0  0  0  0  0  0
    3.6413   -4.9624   -1.1554 C   0  0  0  0  0  0  0  0  0  0  0  0
    3.6395   -3.8778   -0.2783 C   0  0  0  0  0  0  0  0  0  0  0  0
    4.8098   -2.9262   -0.2375 C   0  0  0  0  0  0  0  0  0  0  0  0
    6.0666   -3.5194   -0.8968 C   0  0  2  0  0  0  0  0  0  0  0  0
    7.2040   -2.5004   -0.9588 C   0  0  0  0  0  0  0  0  0  0  0  0
    7.5521   -1.9176    0.3581 C   0  0  0  0  0  0  0  0  0  0  0  0
    7.5635   -0.6210    0.7282 C   0  0  0  0  0  0  0  0  0  0  0  0
    7.1754    0.5150   -0.1825 C   0  0  0  0  0  0  0  0  0  0  0  0
    7.9528   -0.2412    2.1415 C   0  0  0  0  0  0  0  0  0  0  0  0
    9.1037    0.7553    2.2594 C   0  0  0  0  0  0  0  0  0  0  0  0
   10.6473    0.1278    1.5454 Cl  0  0  0  0  0  0  0  0  0  0  0  0
    7.8794   -2.2413   -2.1036 C   0  0  0  0  0  0  0  0  0  0  0  0
    9.0462   -1.2945   -2.2070 C   0  0  0  0  0  0  0  0  0  0  0  0
    7.5065   -2.9579   -3.3829 C   0  0  0  0  0  0  0  0  0  0  0  0
    6.7874   -4.2707   -3.1054 C   0  0  0  0  0  0  0  0  0  0  0  0
    5.6801   -4.0467   -2.2003 N   0  0  0  0  0  0  0  0  0  0  0  0
    4.8041   -5.1974   -2.0888 C   0  0  0  0  0  0  0  0  0  0  0  0
    1.8252   -1.4042    2.8348 H   0  0  0  0  0  0  0  0  0  0  0  0
    1.4046   -3.1386    3.0051 H   0  0  0  0  0  0  0  0  0  0  0  0
    0.5969   -2.1366    1.7545 H   0  0  0  0  0  0  0  0  0  0  0  0
    0.5919   -4.4179    1.2039 H   0  0  0  0  0  0  0  0  0  0  0  0
    0.6138   -6.3401   -0.3236 H   0  0  0  0  0  0  0  0  0  0  0  0
    1.9096   -8.5706   -2.9061 H   0  0  0  0  0  0  0  0  0  0  0  0
    0.6635   -7.3638   -2.4530 H   0  0  0  0  0  0  0  0  0  0  0  0
    1.4476   -8.3650   -1.1865 H   0  0  0  0  0  0  0  0  0  0  0  0
    5.0165   -2.6448    0.8050 H   0  0  0  0  0  0  0  0  0  0  0  0
    4.5468   -1.9887   -0.7594 H   0  0  0  0  0  0  0  0  0  0  0  0
    6.4261   -4.3504   -0.2353 H   0  0  0  0  0  0  0  0  0  0  0  0
    7.7846   -2.6581    1.1372 H   0  0  0  0  0  0  0  0  0  0  0  0
    6.6840    0.1529   -1.0953 H   0  0  0  0  0  0  0  0  0  0  0  0
    8.0538    1.1087   -0.4918 H   0  0  0  0  0  0  0  0  0  0  0  0
    6.4872    1.2091    0.3318 H   0  0  0  0  0  0  0  0  0  0  0  0
    8.1978   -1.1443    2.7219 H   0  0  0  0  0  0  0  0  0  0  0  0
    7.0878    0.2383    2.6429 H   0  0  0  0  0  0  0  0  0  0  0  0
    9.3203    0.9797    3.3127 H   0  0  0  0  0  0  0  0  0  0  0  0
    8.8868    1.6996    1.7420 H   0  0  0  0  0  0  0  0  0  0  0  0
    9.4076   -0.9493   -1.2303 H   0  0  0  0  0  0  0  0  0  0  0  0
    8.7828   -0.4057   -2.8098 H   0  0  0  0  0  0  0  0  0  0  0  0
    9.8855   -1.7826   -2.7326 H   0  0  0  0  0  0  0  0  0  0  0  0
    8.4163   -3.1502   -3.9774 H   0  0  0  0  0  0  0  0  0  0  0  0
    6.8633   -2.3067   -4.0042 H   0  0  0  0  0  0  0  0  0  0  0  0
    7.5146   -5.0153   -2.7004 H   0  0  0  0  0  0  0  0  0  0  0  0
    6.3917   -4.6972   -4.0419 H   0  0  0  0  0  0  0  0  0  0  0  0
    5.3561   -6.1093   -1.7492 H   0  0  0  0  0  0  0  0  0  0  0  0
    4.4154   -5.4512   -3.0889 H   0  0  0  0  0  0  0  0  0  0  0  0
  1  2  1  0
  1 26  1  0
  1 27  1  0
  1 28  1  0
  2  3  1  0
  3  4  2  0
  3 10  1  0
  4  5  1  0
  4 29  1  0
  5  6  2  0
  5 30  1  0
  6  7  1  0
  6  9  1  0
  7  8  1  0
  8 31  1  0
  8 32  1  0
  8 33  1  0
  9 10  2  0
  9 25  1  0
 10 11  1  0
 11 12  1  0
 11 34  1  0
 11 35  1  0
 12 13  1  0
 12 24  1  0
 12 36  1  1
 13 14  1  0
 13 20  2  0
 14 15  2  0
 14 37  1  0
 15 16  1  0
 15 17  1  0
 16 38  1  0
 16 39  1  0
 16 40  1  0
 17 18  1  0
 17 41  1  0
 17 42  1  0
 18 19  1  0
 18 43  1  0
 18 44  1  0
 20 21  1  0
 20 22  1  0
 21 45  1  0
 21 46  1  0
 21 47  1  0
 22 23  1  0
 22 48  1  0
 22 49  1  0
 23 24  1  0
 23 50  1  0
 23 51  1  0
 24 25  1  0
 25 52  1  0
 25 53  1  0
M  END

