
     RDKit          3D

 60 63  0  0  0  0  0  0  0  0999 V2000
    2.5565  -14.3369   -4.3651 C   0  0  0  0  0  0  0  0  0  0  0  0
    3.6584  -13.4588   -4.3152 O   0  0  0  0  0  0  0  0  0  0  0  0
    3.6276  -12.2971   -5.0098 C   0  0  0  0  0  0  0  0  0  0  0  0
    4.7709  -11.4878   -4.9097 C   0  0  0  0  0  0  0  0  0  0  0  0
    4.8150  -10.2799   -5.5966 C   0  0  0  0  0  0  0  0  0  0  0  0
    3.7398   -9.8562   -6.3805 C   0  0  0  0  0  0  0  0  0  0  0  0
    3.7791   -8.6255   -7.0949 N   0  0  0  0  0  0  0  0  0  0  0  0
    4.1516   -8.5107   -8.4702 C   0  0  0  0  0  0  0  0  0  0  0  0
    4.5893   -9.4076   -9.1390 O   0  0  0  0  0  0  0  0  0  0  0  0
    3.9030   -7.0950   -8.8495 C   0  0  0  0  0  0  0  0  0  0  0  0
    4.3950   -6.5451  -10.4129 Cl  0  0  0  0  0  0  0  0  0  0  0  0
    3.3769   -6.4294   -7.7833 C   0  0  0  0  0  0  0  0  0  0  0  0
    2.9639   -5.1792   -7.4734 N   0  0  0  0  0  0  0  0  0  0  0  0
    2.6392   -4.0955   -8.3124 C   0  0  0  0  0  0  0  0  0  0  0  0
    2.1406   -4.3145   -9.6025 C   0  0  0  0  0  0  0  0  0  0  0  0
    1.8177   -3.2401  -10.4398 C   0  0  0  0  0  0  0  0  0  0  0  0
    1.3054   -3.4252  -11.8441 C   0  0  0  0  0  0  0  0  0  0  0  0
    0.6347   -2.5687  -12.3957 O   0  0  0  0  0  0  0  0  0  0  0  0
    1.6769   -4.6150  -12.4362 N   0  0  0  0  0  0  0  0  0  0  0  0
    1.3355   -5.1124  -13.7052 C   0  0  0  0  0  0  0  0  0  0  0  0
    0.4958   -4.4325  -14.6065 C   0  0  0  0  0  0  0  0  0  0  0  0
    0.2001   -5.0127  -15.8422 C   0  0  0  0  0  0  0  0  0  0  0  0
    0.7226   -6.2537  -16.2072 C   0  0  0  0  0  0  0  0  0  0  0  0
    1.5617   -6.9252  -15.3094 C   0  0  0  0  0  0  0  0  0  0  0  0
    2.1803   -8.2425  -15.7081 C   0  0  1  0  0  0  0  0  0  0  0  0
    1.3306   -8.9908  -16.4350 F   0  0  0  0  0  0  0  0  0  0  0  0
    3.2827   -8.0638  -16.4621 F   0  0  0  0  0  0  0  0  0  0  0  0
    2.5496   -8.9724  -14.6410 F   0  0  0  0  0  0  0  0  0  0  0  0
    1.8643   -6.3645  -14.0688 C   0  0  0  0  0  0  0  0  0  0  0  0
    1.9385   -1.9338   -9.9479 C   0  0  0  0  0  0  0  0  0  0  0  0
    2.4080   -1.7194   -8.6525 C   0  0  0  0  0  0  0  0  0  0  0  0
    2.7762   -2.7793   -7.8122 C   0  0  0  0  0  0  0  0  0  0  0  0
    3.2963   -2.5330   -6.4197 C   0  0  0  0  0  0  0  0  0  0  0  0
    3.2816   -7.4255   -6.6364 C   0  0  0  0  0  0  0  0  0  0  0  0
    2.8508   -7.1518   -5.5394 O   0  0  0  0  0  0  0  0  0  0  0  0
    2.5914  -10.6670   -6.4818 C   0  0  0  0  0  0  0  0  0  0  0  0
    1.5944  -10.1871   -7.2593 O   0  0  0  0  0  0  0  0  0  0  0  0
    0.4193  -10.9474   -7.4441 C   0  0  0  0  0  0  0  0  0  0  0  0
    2.5358  -11.8899   -5.7958 C   0  0  0  0  0  0  0  0  0  0  0  0
    2.8148  -15.1981   -3.7346 H   0  0  0  0  0  0  0  0  0  0  0  0
    2.3608  -14.6933   -5.3924 H   0  0  0  0  0  0  0  0  0  0  0  0
    1.6381  -13.8678   -3.9682 H   0  0  0  0  0  0  0  0  0  0  0  0
    5.6044  -11.8290   -4.2947 H   0  0  0  0  0  0  0  0  0  0  0  0
    5.6995   -9.6431   -5.5324 H   0  0  0  0  0  0  0  0  0  0  0  0
    2.7355   -5.0934   -6.4824 H   0  0  0  0  0  0  0  0  0  0  0  0
    1.9709   -5.3401   -9.9259 H   0  0  0  0  0  0  0  0  0  0  0  0
    2.3394   -5.1838  -11.9197 H   0  0  0  0  0  0  0  0  0  0  0  0
    0.0910   -3.4631  -14.3265 H   0  0  0  0  0  0  0  0  0  0  0  0
   -0.4566   -4.4784  -16.5332 H   0  0  0  0  0  0  0  0  0  0  0  0
    0.4803   -6.7012  -17.1724 H   0  0  0  0  0  0  0  0  0  0  0  0
    2.5099   -6.9068  -13.3740 H   0  0  0  0  0  0  0  0  0  0  0  0
    1.6594   -1.1010  -10.5952 H   0  0  0  0  0  0  0  0  0  0  0  0
    2.5063   -0.6965   -8.2794 H   0  0  0  0  0  0  0  0  0  0  0  0
    3.4378   -1.4591   -6.2353 H   0  0  0  0  0  0  0  0  0  0  0  0
    4.2611   -3.0398   -6.2525 H   0  0  0  0  0  0  0  0  0  0  0  0
    2.5993   -2.9056   -5.6470 H   0  0  0  0  0  0  0  0  0  0  0  0
   -0.2252  -10.3653   -8.1158 H   0  0  0  0  0  0  0  0  0  0  0  0
   -0.1140  -11.1133   -6.4913 H   0  0  0  0  0  0  0  0  0  0  0  0
    0.6351  -11.9237   -7.9126 H   0  0  0  0  0  0  0  0  0  0  0  0
    1.6506  -12.5155   -5.8748 H   0  0  0  0  0  0  0  0  0  0  0  0
  1  2  1  0
  1 40  1  0
  1 41  1  0
  1 42  1  0
  2  3  1  0
  3  4  2  0
  3 39  1  0
  4  5  1  0
  4 43  1  0
  5  6  2  0
  5 44  1  0
  6  7  1  0
  6 36  1  0
  7  8  1  0
  7 34  1  0
  8  9  2  0
  8 10  1  0
 10 11  1  0
 10 12  2  0
 12 13  1  0
 12 34  1  0
 13 14  1  0
 13 45  1  0
 14 15  2  0
 14 32  1  0
 15 16  1  0
 15 46  1  0
 16 17  1  0
 16 30  2  0
 17 18  2  0
 17 19  1  0
 19 20  1  0
 19 47  1  0
 20 21  2  0
 20 29  1  0
 21 22  1  0
 21 48  1  0
 22 23  2  0
 22 49  1  0
 23 24  1  0
 23 50  1  0
 24 25  1  0
 24 29  2  0
 25 26  1  6
 25 27  1  0
 25 28  1  0
 29 51  1  0
 30 31  1  0
 30 52  1  0
 31 32  2  0
 31 53  1  0
 32 33  1  0
 33 54  1  0
 33 55  1  0
 33 56  1  0
 34 35  2  0
 36 37  1  0
 36 39  2  0
 37 38  1  0
 38 57  1  0
 38 58  1  0
 38 59  1  0
 39 60  1  0
M  END

