
     RDKit          3D

 52 54  0  0  0  0  0  0  0  0999 V2000
   -1.9376   -0.7520   -3.2052 C   0  0  0  0  0  0  0  0  0  0  0  0
   -0.6810   -1.2659   -2.4907 C   0  0  1  0  0  0  0  0  0  0  0  0
   -0.0115   -2.4521   -3.2140 C   0  0  0  0  0  0  0  0  0  0  0  0
    0.7323   -2.0376   -4.4961 C   0  0  2  0  0  0  0  0  0  0  0  0
    1.4837   -3.2101   -5.1306 C   0  0  0  0  0  0  0  0  0  0  0  0
    1.6887   -0.8709   -4.1977 C   0  0  0  0  0  0  0  0  0  0  0  0
    0.9919    0.2347   -3.5352 N   0  0  0  0  0  0  0  0  0  0  0  0
    1.0130    1.4581   -4.1214 C   0  0  0  0  0  0  0  0  0  0  0  0
    1.6342    1.6967   -5.1569 O   0  0  0  0  0  0  0  0  0  0  0  0
    0.2055    2.6374   -3.4952 C   0  0  0  0  0  0  0  0  0  0  0  0
   -0.6553    2.5375   -2.6312 O   0  0  0  0  0  0  0  0  0  0  0  0
    0.5723    3.7990   -4.0817 N   0  0  0  0  0  0  0  0  0  0  0  0
   -0.0361    5.0833   -3.7767 C   0  0  1  0  0  0  0  0  0  0  0  0
    1.0234    6.0555   -3.2543 C   0  0  0  0  0  0  0  0  0  0  0  0
    1.8698    6.7498   -4.1327 C   0  0  0  0  0  0  0  0  0  0  0  0
    2.8760    7.5846   -3.6401 C   0  0  0  0  0  0  0  0  0  0  0  0
    3.0456    7.7434   -2.2608 C   0  0  0  0  0  0  0  0  0  0  0  0
    2.2049    7.0599   -1.3781 C   0  0  0  0  0  0  0  0  0  0  0  0
    1.2029    6.2196   -1.8733 C   0  0  0  0  0  0  0  0  0  0  0  0
   -0.8526    5.6414   -4.9461 C   0  0  0  0  0  0  0  0  0  0  0  0
   -1.5132    6.8723   -4.7927 C   0  0  0  0  0  0  0  0  0  0  0  0
   -2.2898    7.4005   -5.8243 C   0  0  0  0  0  0  0  0  0  0  0  0
   -2.4174    6.7086   -7.0345 C   0  0  0  0  0  0  0  0  0  0  0  0
   -1.7661    5.4851   -7.1966 C   0  0  0  0  0  0  0  0  0  0  0  0
   -0.9916    4.9531   -6.1582 C   0  0  0  0  0  0  0  0  0  0  0  0
    0.3558   -0.1486   -2.2696 C   0  0  0  0  0  0  0  0  0  0  0  0
   -2.6825   -1.5566   -3.3158 H   0  0  0  0  0  0  0  0  0  0  0  0
   -1.7116   -0.3675   -4.2122 H   0  0  0  0  0  0  0  0  0  0  0  0
   -2.4008    0.0730   -2.6432 H   0  0  0  0  0  0  0  0  0  0  0  0
   -0.9837   -1.6102   -1.4857 H   0  0  0  0  0  0  0  0  0  0  0  0
   -0.7607   -3.2282   -3.4477 H   0  0  0  0  0  0  0  0  0  0  0  0
    0.7172   -2.9229   -2.5274 H   0  0  0  0  0  0  0  0  0  0  0  0
   -0.0083   -1.6694   -5.2283 H   0  0  0  0  0  0  0  0  0  0  0  0
    2.2520   -3.6087   -4.4459 H   0  0  0  0  0  0  0  0  0  0  0  0
    1.9894   -2.9086   -6.0622 H   0  0  0  0  0  0  0  0  0  0  0  0
    0.7960   -4.0359   -5.3735 H   0  0  0  0  0  0  0  0  0  0  0  0
    2.1481   -0.4820   -5.1141 H   0  0  0  0  0  0  0  0  0  0  0  0
    2.5000   -1.2224   -3.5308 H   0  0  0  0  0  0  0  0  0  0  0  0
    1.2846    3.7127   -4.8039 H   0  0  0  0  0  0  0  0  0  0  0  0
   -0.7352    4.8700   -2.9531 H   0  0  0  0  0  0  0  0  0  0  0  0
    1.7340    6.6449   -5.2125 H   0  0  0  0  0  0  0  0  0  0  0  0
    3.5276    8.1184   -4.3369 H   0  0  0  0  0  0  0  0  0  0  0  0
    3.8293    8.4009   -1.8758 H   0  0  0  0  0  0  0  0  0  0  0  0
    2.3279    7.1807   -0.2987 H   0  0  0  0  0  0  0  0  0  0  0  0
    0.5520    5.6807   -1.1790 H   0  0  0  0  0  0  0  0  0  0  0  0
   -1.4144    7.4235   -3.8537 H   0  0  0  0  0  0  0  0  0  0  0  0
   -2.7986    8.3579   -5.6841 H   0  0  0  0  0  0  0  0  0  0  0  0
   -3.0235    7.1227   -7.8443 H   0  0  0  0  0  0  0  0  0  0  0  0
   -1.8601    4.9332   -8.1356 H   0  0  0  0  0  0  0  0  0  0  0  0
   -0.5007    3.9874   -6.2941 H   0  0  0  0  0  0  0  0  0  0  0  0
   -0.1036    0.7301   -1.8117 H   0  0  0  0  0  0  0  0  0  0  0  0
    1.1532   -0.5223   -1.6000 H   0  0  0  0  0  0  0  0  0  0  0  0
  1  2  1  0
  1 27  1  0
  1 28  1  0
  1 29  1  0
  2  3  1  0
  2 26  1  0
  2 30  1  1
  3  4  1  0
  3 31  1  0
  3 32  1  0
  4  5  1  0
  4  6  1  0
  4 33  1  6
  5 34  1  0
  5 35  1  0
  5 36  1  0
  6  7  1  0
  6 37  1  0
  6 38  1  0
  7  8  1  0
  7 26  1  0
  8  9  2  0
  8 10  1  0
 10 11  2  0
 10 12  1  0
 12 13  1  0
 12 39  1  0
 13 14  1  0
 13 20  1  0
 13 40  1  1
 14 15  2  0
 14 19  1  0
 15 16  1  0
 15 41  1  0
 16 17  2  0
 16 42  1  0
 17 18  1  0
 17 43  1  0
 18 19  2  0
 18 44  1  0
 19 45  1  0
 20 21  2  0
 20 25  1  0
 21 22  1  0
 21 46  1  0
 22 23  2  0
 22 47  1  0
 23 24  1  0
 23 48  1  0
 24 25  2  0
 24 49  1  0
 25 50  1  0
 26 51  1  0
 26 52  1  0
M  END

