
     RDKit          3D

 70 72  0  0  0  0  0  0  0  0999 V2000
    1.7461    1.7484   -0.6779 C   0  0  0  0  0  0  0  0  0  0  0  0
    2.7919    1.3073   -1.3826 C   0  0  0  0  0  0  0  0  0  0  0  0
    3.4521   -0.0328   -1.1848 C   0  0  0  0  0  0  0  0  0  0  0  0
    4.8652    0.0722   -0.7827 N   0  0  0  0  0  0  0  0  0  0  0  0
    5.1102    0.4285    0.6092 C   0  0  0  0  0  0  0  0  0  0  0  0
    5.0328   -0.7311    1.5986 C   0  0  0  0  0  0  0  0  0  0  0  0
    4.8394   -2.0392    1.1317 C   0  0  0  0  0  0  0  0  0  0  0  0
    4.7441   -3.1270    2.0025 C   0  0  0  0  0  0  0  0  0  0  0  0
    4.8382   -2.9292    3.3810 C   0  0  0  0  0  0  0  0  0  0  0  0
    5.0315   -1.6397    3.8707 C   0  0  0  0  0  0  0  0  0  0  0  0
    5.1341   -0.5371    3.0025 C   0  0  0  0  0  0  0  0  0  0  0  0
    5.3723    0.8221    3.5792 C   0  0  0  0  0  0  0  0  0  0  0  0
    5.6236    1.8173    2.9316 O   0  0  0  0  0  0  0  0  0  0  0  0
    5.2812    0.8349    4.9231 O   0  0  0  0  0  0  0  0  0  0  0  0
    5.5116    2.0863    5.5966 C   0  0  0  0  0  0  0  0  0  0  0  0
    6.9895    2.3228    5.8598 C   0  0  0  0  0  0  0  0  0  0  0  0
    5.7802    0.2700   -1.8007 C   0  0  0  0  0  0  0  0  0  0  0  0
    5.4125    0.3506   -2.9654 O   0  0  0  0  0  0  0  0  0  0  0  0
    7.2542    0.3702   -1.4487 C   0  0  0  0  0  0  0  0  0  0  0  0
    7.8603   -0.6069   -0.4692 C   0  0  0  0  0  0  0  0  0  0  0  0
    7.9435    1.2770   -2.1826 C   0  0  0  0  0  0  0  0  0  0  0  0
    9.3681    1.6271   -2.1795 C   0  0  0  0  0  0  0  0  0  0  0  0
    9.8887    2.2636   -3.3301 C   0  0  0  0  0  0  0  0  0  0  0  0
   11.2272    2.6251   -3.4165 C   0  0  0  0  0  0  0  0  0  0  0  0
   12.0976    2.3795   -2.3410 C   0  0  0  0  0  0  0  0  0  0  0  0
   13.5195    2.7945   -2.4872 C   0  0  0  0  0  0  0  0  0  0  0  0
   13.9803    3.3440   -3.4555 O   0  0  0  0  0  0  0  0  0  0  0  0
   14.2524    2.4677   -1.3797 O   0  0  0  0  0  0  0  0  0  0  0  0
   15.6007    2.7583   -1.2612 C   0  0  0  0  0  0  0  0  0  0  0  0
   16.1662    3.9742   -1.6626 C   0  0  0  0  0  0  0  0  0  0  0  0
   17.5238    4.1967   -1.4336 C   0  0  0  0  0  0  0  0  0  0  0  0
   18.3323    3.2306   -0.8131 C   0  0  0  0  0  0  0  0  0  0  0  0
   19.7838    3.5092   -0.5593 C   0  0  0  0  0  0  0  0  0  0  0  0
   20.2820    4.6503   -0.2512 N   0  0  0  0  0  0  0  0  0  0  0  0
   20.6076    2.3992   -0.6253 N   0  0  0  0  0  0  0  0  0  0  0  0
   17.7419    2.0169   -0.4222 C   0  0  0  0  0  0  0  0  0  0  0  0
   16.3848    1.7820   -0.6401 C   0  0  0  0  0  0  0  0  0  0  0  0
   11.5929    1.7728   -1.1796 C   0  0  0  0  0  0  0  0  0  0  0  0
   10.2520    1.4037   -1.1006 C   0  0  0  0  0  0  0  0  0  0  0  0
    1.2972    2.7274   -0.8691 H   0  0  0  0  0  0  0  0  0  0  0  0
    1.2887    1.1415    0.1116 H   0  0  0  0  0  0  0  0  0  0  0  0
    3.2292    1.9292   -2.1718 H   0  0  0  0  0  0  0  0  0  0  0  0
    3.4267   -0.5967   -2.1284 H   0  0  0  0  0  0  0  0  0  0  0  0
    2.9165   -0.6115   -0.4164 H   0  0  0  0  0  0  0  0  0  0  0  0
    4.3824    1.2014    0.9054 H   0  0  0  0  0  0  0  0  0  0  0  0
    6.0757    0.9389    0.7007 H   0  0  0  0  0  0  0  0  0  0  0  0
    4.7670   -2.2043    0.0556 H   0  0  0  0  0  0  0  0  0  0  0  0
    4.5952   -4.1316    1.5980 H   0  0  0  0  0  0  0  0  0  0  0  0
    4.7632   -3.7729    4.0710 H   0  0  0  0  0  0  0  0  0  0  0  0
    5.1112   -1.4654    4.9433 H   0  0  0  0  0  0  0  0  0  0  0  0
    4.9471    2.0020    6.5365 H   0  0  0  0  0  0  0  0  0  0  0  0
    5.0848    2.8996    4.9918 H   0  0  0  0  0  0  0  0  0  0  0  0
    7.4275    1.4900    6.4319 H   0  0  0  0  0  0  0  0  0  0  0  0
    7.1207    3.2476    6.4443 H   0  0  0  0  0  0  0  0  0  0  0  0
    7.5423    2.4355    4.9156 H   0  0  0  0  0  0  0  0  0  0  0  0
    8.0190   -0.1777    0.5345 H   0  0  0  0  0  0  0  0  0  0  0  0
    8.8385   -0.9582   -0.8311 H   0  0  0  0  0  0  0  0  0  0  0  0
    7.2144   -1.4853   -0.3371 H   0  0  0  0  0  0  0  0  0  0  0  0
    7.3535    1.8067   -2.9368 H   0  0  0  0  0  0  0  0  0  0  0  0
    9.2198    2.4653   -4.1706 H   0  0  0  0  0  0  0  0  0  0  0  0
   11.6235    3.1070   -4.3122 H   0  0  0  0  0  0  0  0  0  0  0  0
   15.5593    4.7273   -2.1616 H   0  0  0  0  0  0  0  0  0  0  0  0
   17.9707    5.1386   -1.7611 H   0  0  0  0  0  0  0  0  0  0  0  0
   19.5419    5.3433   -0.1246 H   0  0  0  0  0  0  0  0  0  0  0  0
   20.3774    1.6880   -1.3102 H   0  0  0  0  0  0  0  0  0  0  0  0
   21.5967    2.6189   -0.5543 H   0  0  0  0  0  0  0  0  0  0  0  0
   18.3502    1.2598    0.0769 H   0  0  0  0  0  0  0  0  0  0  0  0
   15.9152    0.8475   -0.3268 H   0  0  0  0  0  0  0  0  0  0  0  0
   12.2574    1.5981   -0.3329 H   0  0  0  0  0  0  0  0  0  0  0  0
    9.8860    0.9641   -0.1744 H   0  0  0  0  0  0  0  0  0  0  0  0
  1  2  2  0
  1 40  1  0
  1 41  1  0
  2  3  1  0
  2 42  1  0
  3  4  1  0
  3 43  1  0
  3 44  1  0
  4  5  1  0
  4 17  1  0
  5  6  1  0
  5 45  1  0
  5 46  1  0
  6  7  2  0
  6 11  1  0
  7  8  1  0
  7 47  1  0
  8  9  2  0
  8 48  1  0
  9 10  1  0
  9 49  1  0
 10 11  2  0
 10 50  1  0
 11 12  1  0
 12 13  2  0
 12 14  1  0
 14 15  1  0
 15 16  1  0
 15 51  1  0
 15 52  1  0
 16 53  1  0
 16 54  1  0
 16 55  1  0
 17 18  2  0
 17 19  1  0
 19 20  1  0
 19 21  2  0
 20 56  1  0
 20 57  1  0
 20 58  1  0
 21 22  1  0
 21 59  1  0
 22 23  2  0
 22 39  1  0
 23 24  1  0
 23 60  1  0
 24 25  2  0
 24 61  1  0
 25 26  1  0
 25 38  1  0
 26 27  2  0
 26 28  1  0
 28 29  1  0
 29 30  2  0
 29 37  1  0
 30 31  1  0
 30 62  1  0
 31 32  2  0
 31 63  1  0
 32 33  1  0
 32 36  1  0
 33 34  2  0
 33 35  1  0
 34 64  1  0
 35 65  1  0
 35 66  1  0
 36 37  2  0
 36 67  1  0
 37 68  1  0
 38 39  2  0
 38 69  1  0
 39 70  1  0
M  END

