
     RDKit          3D

 24 25  0  0  0  0  0  0  0  0999 V2000
    1.8673    1.7363    0.9488 O   0  0  0  0  0  0  0  0  0  0  0  0
    2.3955    0.7665    0.4656 C   0  0  0  0  0  0  0  0  0  0  0  0
    2.5293   -0.3678    1.1773 O   0  0  0  0  0  0  0  0  0  0  0  0
    2.9208    0.8043   -0.9270 C   0  0  0  0  0  0  0  0  0  0  0  0
    2.9275    1.9383   -1.7216 C   0  0  0  0  0  0  0  0  0  0  0  0
    3.5054    1.6081   -2.9759 C   0  0  0  0  0  0  0  0  0  0  0  0
    3.8421    0.2725   -2.9317 C   0  0  0  0  0  0  0  0  0  0  0  0
    3.4908   -0.2284   -1.6913 N   0  0  0  0  0  0  0  0  0  0  0  0
    3.7616   -1.8581   -1.2422 S   0  0  0  0  0  0  0  0  0  0  0  0
    2.2257   -2.6758   -1.7063 C   0  0  0  0  0  0  0  0  0  0  0  0
    1.1334   -2.0055   -2.2650 C   0  0  0  0  0  0  0  0  0  0  0  0
   -0.0174   -2.7310   -2.5903 C   0  0  0  0  0  0  0  0  0  0  0  0
   -0.0807   -4.1079   -2.3622 C   0  0  0  0  0  0  0  0  0  0  0  0
    1.0185   -4.7680   -1.8036 C   0  0  0  0  0  0  0  0  0  0  0  0
    2.1747   -4.0577   -1.4744 C   0  0  0  0  0  0  0  0  0  0  0  0
    3.0006   -1.0570    0.6712 H   0  0  0  0  0  0  0  0  0  0  0  0
    2.5471    2.9023   -1.3917 H   0  0  0  0  0  0  0  0  0  0  0  0
    3.6639    2.2756   -3.8207 H   0  0  0  0  0  0  0  0  0  0  0  0
    4.3050   -0.3781   -3.6705 H   0  0  0  0  0  0  0  0  0  0  0  0
    1.1726   -0.9301   -2.4447 H   0  0  0  0  0  0  0  0  0  0  0  0
   -0.8723   -2.2069   -3.0247 H   0  0  0  0  0  0  0  0  0  0  0  0
   -0.9843   -4.6661   -2.6178 H   0  0  0  0  0  0  0  0  0  0  0  0
    0.9796   -5.8447   -1.6213 H   0  0  0  0  0  0  0  0  0  0  0  0
    3.0316   -4.5804   -1.0395 H   0  0  0  0  0  0  0  0  0  0  0  0
  1  2  2  0
  2  3  1  0
  2  4  1  0
  3 16  1  0
  4  5  2  0
  4  8  1  0
  5  6  1  0
  5 17  1  0
  6  7  2  0
  6 18  1  0
  7  8  1  0
  7 19  1  0
  8  9  1  0
  9 10  1  0
 10 11  2  0
 10 15  1  0
 11 12  1  0
 11 20  1  0
 12 13  2  0
 12 21  1  0
 13 14  1  0
 13 22  1  0
 14 15  2  0
 14 23  1  0
 15 24  1  0
M  END

