
     RDKit          3D

 43 45  0  0  0  0  0  0  0  0999 V2000
    3.0733   -1.8474    0.2489 C   0  0  0  0  0  0  0  0  0  0  0  0
    2.5695   -0.5312    0.3170 O   0  0  0  0  0  0  0  0  0  0  0  0
    3.2506    0.4051    1.0234 C   0  0  0  0  0  0  0  0  0  0  0  0
    4.4331    0.1624    1.7360 C   0  0  0  0  0  0  0  0  0  0  0  0
    5.0819    1.1972    2.4121 C   0  0  0  0  0  0  0  0  0  0  0  0
    4.5754    2.5047    2.3981 C   0  0  0  0  0  0  0  0  0  0  0  0
    5.2978    3.5871    3.1192 C   0  0  0  0  0  0  0  0  0  0  0  0
    4.8927    4.9319    3.0633 C   0  0  0  0  0  0  0  0  0  0  0  0
    5.6393    5.8742    3.7881 C   0  0  0  0  0  0  0  0  0  0  0  0
    5.2925    7.3260    3.8054 C   0  0  0  0  0  0  0  0  0  0  0  0
    4.0899    7.8171    3.2639 C   0  0  0  0  0  0  0  0  0  0  0  0
    3.8091    9.1818    3.2995 C   0  0  0  0  0  0  0  0  0  0  0  0
    4.7182   10.0771    3.8718 C   0  0  0  0  0  0  0  0  0  0  0  0
    5.9228    9.6160    4.4226 C   0  0  0  0  0  0  0  0  0  0  0  0
    6.9170   10.5658    5.0478 C   0  0  0  0  0  0  0  0  0  0  0  0
    6.1887    8.2403    4.3821 C   0  0  0  0  0  0  0  0  0  0  0  0
    6.7122    5.4996    4.4962 N   0  0  0  0  0  0  0  0  0  0  0  0
    7.0328    4.1974    4.4815 C   0  0  0  0  0  0  0  0  0  0  0  0
    8.1414    3.8276    5.1816 N   0  0  0  0  0  0  0  0  0  0  0  0
    6.3710    3.2271    3.8350 N   0  0  0  0  0  0  0  0  0  0  0  0
    3.3793    2.7362    1.6918 C   0  0  0  0  0  0  0  0  0  0  0  0
    2.7149    1.7186    1.0138 C   0  0  0  0  0  0  0  0  0  0  0  0
    1.5927    2.0312    0.3002 O   0  0  0  0  0  0  0  0  0  0  0  0
    0.3659    1.4545    0.7222 C   0  0  0  0  0  0  0  0  0  0  0  0
    2.3777   -2.4154   -0.3832 H   0  0  0  0  0  0  0  0  0  0  0  0
    3.1216   -2.3221    1.2454 H   0  0  0  0  0  0  0  0  0  0  0  0
    4.0784   -1.8764   -0.2081 H   0  0  0  0  0  0  0  0  0  0  0  0
    4.8642   -0.8387    1.7599 H   0  0  0  0  0  0  0  0  0  0  0  0
    6.0035    1.0054    2.9616 H   0  0  0  0  0  0  0  0  0  0  0  0
    4.0392    5.2348    2.4641 H   0  0  0  0  0  0  0  0  0  0  0  0
    3.3592    7.1370    2.8238 H   0  0  0  0  0  0  0  0  0  0  0  0
    2.8707    9.5535    2.8799 H   0  0  0  0  0  0  0  0  0  0  0  0
    4.4878   11.1462    3.8924 H   0  0  0  0  0  0  0  0  0  0  0  0
    6.5704   11.6086    4.9964 H   0  0  0  0  0  0  0  0  0  0  0  0
    7.8954   10.5102    4.5421 H   0  0  0  0  0  0  0  0  0  0  0  0
    7.0911   10.3204    6.1088 H   0  0  0  0  0  0  0  0  0  0  0  0
    7.1138    7.8439    4.8044 H   0  0  0  0  0  0  0  0  0  0  0  0
    8.5838    4.5079    5.7830 H   0  0  0  0  0  0  0  0  0  0  0  0
    8.3353    2.8433    5.2977 H   0  0  0  0  0  0  0  0  0  0  0  0
    2.9219    3.7247    1.6409 H   0  0  0  0  0  0  0  0  0  0  0  0
   -0.4178    1.8759    0.0768 H   0  0  0  0  0  0  0  0  0  0  0  0
    0.1417    1.7181    1.7724 H   0  0  0  0  0  0  0  0  0  0  0  0
    0.3691    0.3582    0.6178 H   0  0  0  0  0  0  0  0  0  0  0  0
  1  2  1  0
  1 25  1  0
  1 26  1  0
  1 27  1  0
  2  3  1  0
  3  4  2  0
  3 22  1  0
  4  5  1  0
  4 28  1  0
  5  6  2  0
  5 29  1  0
  6  7  1  0
  6 21  1  0
  7  8  2  0
  7 20  1  0
  8  9  1  0
  8 30  1  0
  9 10  1  0
  9 17  2  0
 10 11  2  0
 10 16  1  0
 11 12  1  0
 11 31  1  0
 12 13  2  0
 12 32  1  0
 13 14  1  0
 13 33  1  0
 14 15  1  0
 14 16  2  0
 15 34  1  0
 15 35  1  0
 15 36  1  0
 16 37  1  0
 17 18  1  0
 18 19  1  0
 18 20  2  0
 19 38  1  0
 19 39  1  0
 21 22  2  0
 21 40  1  0
 22 23  1  0
 23 24  1  0
 24 41  1  0
 24 42  1  0
 24 43  1  0
M  END

