
     RDKit          3D

 23 24  0  0  0  0  0  0  0  0999 V2000
    4.4710    0.4174   -2.5571 N   0  0  0  0  0  0  0  0  0  0  0  0
    4.1798    0.1683   -1.4625 C   0  0  0  0  0  0  0  0  0  0  0  0
    3.8499   -0.0977   -0.0601 C   0  0  1  0  0  0  0  0  0  0  0  0
    2.7505   -0.0768    0.0120 H   0  0  0  0  0  0  0  0  0  0  0  0
    4.4045   -1.4710    0.4481 C   0  0  0  0  0  0  0  0  0  0  0  0
    5.2171   -1.2633    1.7443 C   0  0  1  0  0  0  0  0  0  0  0  0
    5.5439   -2.2269    2.1589 H   0  0  0  0  0  0  0  0  0  0  0  0
    6.4176   -0.3348    1.4489 C   0  0  0  0  0  0  0  0  0  0  0  0
    5.9187    1.0249    0.8842 C   0  0  0  0  0  0  0  0  0  0  0  0
    4.3782    1.0648    0.8535 C   0  0  1  0  0  0  0  0  0  0  0  0
    3.8774    2.3104    0.4369 O   0  0  0  0  0  0  0  0  0  0  0  0
    3.8449    0.7954    2.2652 C   0  0  0  0  0  0  0  0  0  0  0  0
    4.3229   -0.5677    2.7641 C   0  0  0  0  0  0  0  0  0  0  0  0
    4.0230   -1.0263    3.8401 O   0  0  0  0  0  0  0  0  0  0  0  0
    5.0547   -1.9282   -0.3124 H   0  0  0  0  0  0  0  0  0  0  0  0
    3.5729   -2.1702    0.6196 H   0  0  0  0  0  0  0  0  0  0  0  0
    7.0839   -0.8364    0.7299 H   0  0  0  0  0  0  0  0  0  0  0  0
    7.0055   -0.1872    2.3680 H   0  0  0  0  0  0  0  0  0  0  0  0
    6.3051    1.1980   -0.1337 H   0  0  0  0  0  0  0  0  0  0  0  0
    6.2619    1.8698    1.5003 H   0  0  0  0  0  0  0  0  0  0  0  0
    4.2473    2.5227   -0.4328 H   0  0  0  0  0  0  0  0  0  0  0  0
    2.7431    0.8289    2.2839 H   0  0  0  0  0  0  0  0  0  0  0  0
    4.1935    1.5795    2.9575 H   0  0  0  0  0  0  0  0  0  0  0  0
  1  2  3  0
  2  3  1  0
  3  4  1  6
  3  5  1  0
  3 10  1  0
  5  6  1  0
  5 15  1  0
  5 16  1  0
  6  7  1  1
  6  8  1  0
  6 13  1  0
  8  9  1  0
  8 17  1  0
  8 18  1  0
  9 10  1  0
  9 19  1  0
  9 20  1  0
 10 11  1  6
 10 12  1  0
 11 21  1  0
 12 13  1  0
 12 22  1  0
 12 23  1  0
 13 14  2  0
M  END

