
     RDKit          3D

 43 44  0  0  0  0  0  0  0  0999 V2000
    2.3339   -0.9172    0.6278 C   0  0  0  0  0  0  0  0  0  0  0  0
    1.1473   -0.0017    0.7372 C   0  0  0  0  0  0  0  0  0  0  0  0
    1.3445    1.4166    0.7048 C   0  0  0  0  0  0  0  0  0  0  0  0
    0.2987    2.2743    0.8783 C   0  0  0  0  0  0  0  0  0  0  0  0
   -0.9719    1.8094    1.1010 N   0  0  0  0  0  0  0  0  0  0  0  0
   -2.0921    2.7181    1.3202 C   0  0  0  0  0  0  0  0  0  0  0  0
   -1.2660    0.4468    1.1392 C   0  0  0  0  0  0  0  0  0  0  0  0
   -2.4107    0.0551    1.3853 O   0  0  0  0  0  0  0  0  0  0  0  0
   -0.1460   -0.4633    0.8965 C   0  0  0  0  0  0  0  0  0  0  0  0
   -0.5491   -1.8060    0.9416 N   0  0  0  0  0  0  0  0  0  0  0  0
   -0.2514   -2.7474   -0.0512 C   0  0  0  0  0  0  0  0  0  0  0  0
    0.4840   -2.4951   -0.9950 O   0  0  0  0  0  0  0  0  0  0  0  0
   -0.8593   -3.9769    0.1210 N   0  0  0  0  0  0  0  0  0  0  0  0
   -1.3290   -4.4610    1.4220 C   0  0  0  0  0  0  0  0  0  0  0  0
   -0.2198   -5.0600    2.2977 C   0  0  0  0  0  0  0  0  0  0  0  0
    0.6404   -6.1487    1.6328 C   0  0  0  0  0  0  0  0  0  0  0  0
    1.5032   -5.6563    0.4533 C   0  0  0  0  0  0  0  0  0  0  0  0
    0.8138   -5.5609   -0.9198 C   0  0  0  0  0  0  0  0  0  0  0  0
   -0.6350   -5.0305   -0.8925 C   0  0  2  0  0  0  0  0  0  0  0  0
   -1.1450   -4.6439   -2.2841 C   0  0  0  0  0  0  0  0  0  0  0  0
    3.2636   -0.3857    0.8796 H   0  0  0  0  0  0  0  0  0  0  0  0
    2.4125   -1.3341   -0.3875 H   0  0  0  0  0  0  0  0  0  0  0  0
    2.2250   -1.7774    1.3074 H   0  0  0  0  0  0  0  0  0  0  0  0
    2.3454    1.8220    0.5503 H   0  0  0  0  0  0  0  0  0  0  0  0
    0.4151    3.3590    0.8587 H   0  0  0  0  0  0  0  0  0  0  0  0
   -1.7455    3.7532    1.2098 H   0  0  0  0  0  0  0  0  0  0  0  0
   -2.5138    2.5700    2.3256 H   0  0  0  0  0  0  0  0  0  0  0  0
   -2.8933    2.5117    0.5960 H   0  0  0  0  0  0  0  0  0  0  0  0
   -1.4890   -1.8646    1.3347 H   0  0  0  0  0  0  0  0  0  0  0  0
   -2.1036   -5.2204    1.2260 H   0  0  0  0  0  0  0  0  0  0  0  0
   -1.8372   -3.6587    1.9751 H   0  0  0  0  0  0  0  0  0  0  0  0
   -0.6903   -5.4652    3.2113 H   0  0  0  0  0  0  0  0  0  0  0  0
    0.4426   -4.2408    2.6289 H   0  0  0  0  0  0  0  0  0  0  0  0
    0.0057   -6.9976    1.3159 H   0  0  0  0  0  0  0  0  0  0  0  0
    1.3108   -6.5569    2.4079 H   0  0  0  0  0  0  0  0  0  0  0  0
    2.3765   -6.3214    0.3455 H   0  0  0  0  0  0  0  0  0  0  0  0
    1.9193   -4.6684    0.7177 H   0  0  0  0  0  0  0  0  0  0  0  0
    0.7819   -6.5601   -1.3902 H   0  0  0  0  0  0  0  0  0  0  0  0
    1.4229   -4.9218   -1.5767 H   0  0  0  0  0  0  0  0  0  0  0  0
   -1.2719   -5.8590   -0.5457 H   0  0  0  0  0  0  0  0  0  0  0  0
   -0.5613   -3.8137   -2.7017 H   0  0  0  0  0  0  0  0  0  0  0  0
   -2.2039   -4.3441   -2.2408 H   0  0  0  0  0  0  0  0  0  0  0  0
   -1.0629   -5.5087   -2.9622 H   0  0  0  0  0  0  0  0  0  0  0  0
  1  2  1  0
  1 21  1  0
  1 22  1  0
  1 23  1  0
  2  3  1  0
  2  9  2  0
  3  4  2  0
  3 24  1  0
  4  5  1  0
  4 25  1  0
  5  6  1  0
  5  7  1  0
  6 26  1  0
  6 27  1  0
  6 28  1  0
  7  8  2  0
  7  9  1  0
  9 10  1  0
 10 11  1  0
 10 29  1  0
 11 12  2  0
 11 13  1  0
 13 14  1  0
 13 19  1  0
 14 15  1  0
 14 30  1  0
 14 31  1  0
 15 16  1  0
 15 32  1  0
 15 33  1  0
 16 17  1  0
 16 34  1  0
 16 35  1  0
 17 18  1  0
 17 36  1  0
 17 37  1  0
 18 19  1  0
 18 38  1  0
 18 39  1  0
 19 20  1  0
 19 40  1  1
 20 41  1  0
 20 42  1  0
 20 43  1  0
M  END

