
     RDKit          3D

 32 32  0  0  0  0  0  0  0  0999 V2000
    0.7453   -0.0885   -0.1513 C   0  0  0  0  0  0  0  0  0  0  0  0
    2.1274   -0.2750    0.0737 O   0  0  0  0  0  0  0  0  0  0  0  0
    2.8035   -0.9687   -0.9419 C   0  0  1  0  0  0  0  0  0  0  0  0
    2.8534   -0.2325   -2.1412 O   0  0  0  0  0  0  0  0  0  0  0  0
    3.5294    1.0122   -2.0998 C   0  0  0  0  0  0  0  0  0  0  0  0
    4.1790   -1.3796   -0.3677 C   0  0  1  0  0  0  0  0  0  0  0  0
    4.0534   -2.1303    0.8772 N   0  0  0  0  0  0  0  0  0  0  0  0
    4.9846   -2.1741   -1.4124 C   0  0  0  0  0  0  0  0  0  0  0  0
    6.4869   -2.1801   -1.2182 C   0  0  0  0  0  0  0  0  0  0  0  0
    7.0867   -2.5060    0.0145 C   0  0  0  0  0  0  0  0  0  0  0  0
    8.4776   -2.4932    0.0923 C   0  0  0  0  0  0  0  0  0  0  0  0
    9.2903   -2.1938   -0.9251 N   0  0  0  0  0  0  0  0  0  0  0  0
    8.7301   -1.8892   -2.1018 C   0  0  0  0  0  0  0  0  0  0  0  0
    9.5925   -1.6308   -3.1455 N   0  0  0  0  0  0  0  0  0  0  0  0
    7.3277   -1.8666   -2.2861 C   0  0  0  0  0  0  0  0  0  0  0  0
    0.3453    0.4763    0.7027 H   0  0  0  0  0  0  0  0  0  0  0  0
    0.2138   -1.0577   -0.2191 H   0  0  0  0  0  0  0  0  0  0  0  0
    0.5537    0.4753   -1.0804 H   0  0  0  0  0  0  0  0  0  0  0  0
    2.2376   -1.8823   -1.2184 H   0  0  0  0  0  0  0  0  0  0  0  0
    3.2352    1.5661   -3.0031 H   0  0  0  0  0  0  0  0  0  0  0  0
    4.6282    0.8925   -2.1093 H   0  0  0  0  0  0  0  0  0  0  0  0
    3.2457    1.6014   -1.2115 H   0  0  0  0  0  0  0  0  0  0  0  0
    4.7231   -0.4494   -0.1299 H   0  0  0  0  0  0  0  0  0  0  0  0
    3.5474   -3.0025    0.7078 H   0  0  0  0  0  0  0  0  0  0  0  0
    3.4883   -1.5935    1.5351 H   0  0  0  0  0  0  0  0  0  0  0  0
    4.7536   -1.7765   -2.4114 H   0  0  0  0  0  0  0  0  0  0  0  0
    4.6123   -3.2166   -1.4079 H   0  0  0  0  0  0  0  0  0  0  0  0
    6.4685   -2.7410    0.8812 H   0  0  0  0  0  0  0  0  0  0  0  0
    8.9707   -2.7361    1.0420 H   0  0  0  0  0  0  0  0  0  0  0  0
   10.5546   -1.4631   -2.8748 H   0  0  0  0  0  0  0  0  0  0  0  0
    9.2518   -1.0977   -3.9346 H   0  0  0  0  0  0  0  0  0  0  0  0
    6.9096   -1.6139   -3.2650 H   0  0  0  0  0  0  0  0  0  0  0  0
  1  2  1  0
  1 16  1  0
  1 17  1  0
  1 18  1  0
  2  3  1  0
  3  4  1  0
  3  6  1  0
  3 19  1  6
  4  5  1  0
  5 20  1  0
  5 21  1  0
  5 22  1  0
  6  7  1  0
  6  8  1  0
  6 23  1  1
  7 24  1  0
  7 25  1  0
  8  9  1  0
  8 26  1  0
  8 27  1  0
  9 10  2  0
  9 15  1  0
 10 11  1  0
 10 28  1  0
 11 12  2  0
 11 29  1  0
 12 13  1  0
 13 14  1  0
 13 15  2  0
 14 30  1  0
 14 31  1  0
 15 32  1  0
M  END

