
     RDKit          3D

 38 39  0  0  0  0  0  0  0  0999 V2000
    4.6962    0.8596    1.1349 C   0  0  0  0  0  0  0  0  0  0  0  0
    3.6656    0.6254    0.1998 O   0  0  0  0  0  0  0  0  0  0  0  0
    3.9310   -0.1003   -0.9206 C   0  0  0  0  0  0  0  0  0  0  0  0
    5.1713   -0.6514   -1.2435 C   0  0  0  0  0  0  0  0  0  0  0  0
    5.3446   -1.3703   -2.4347 C   0  0  0  0  0  0  0  0  0  0  0  0
    4.2539   -1.5226   -3.2881 C   0  0  0  0  0  0  0  0  0  0  0  0
    4.4387   -2.4749   -4.7972 S   0  0  1  0  0  0  0  0  0  0  0  0
    3.3829   -2.0546   -5.7224 O   0  0  0  0  0  0  0  0  0  0  0  0
    5.8532   -2.4459   -5.1698 O   0  0  0  0  0  0  0  0  0  0  0  0
    4.0988   -4.0874   -4.4066 N   0  0  0  0  0  0  0  0  0  0  0  0
    5.0846   -4.8106   -3.6142 C   0  0  0  0  0  0  0  0  0  0  0  0
    2.7014   -4.4728   -4.2403 C   0  0  0  0  0  0  0  0  0  0  0  0
    2.4133   -5.8052   -4.8861 C   0  0  0  0  0  0  0  0  0  0  0  0
    2.9336   -6.3311   -6.0405 C   0  0  0  0  0  0  0  0  0  0  0  0
    2.4547   -7.5595   -6.4197 N   0  0  0  0  0  0  0  0  0  0  0  0
    1.5650   -8.0131   -5.5886 C   0  0  0  0  0  0  0  0  0  0  0  0
    0.8451   -9.3187   -5.7309 C   0  0  0  0  0  0  0  0  0  0  0  0
    1.2518   -6.9282   -4.2325 S   0  0  0  0  0  0  0  0  0  0  0  0
    3.0040   -0.9631   -2.9876 C   0  0  0  0  0  0  0  0  0  0  0  0
    2.8182   -0.2478   -1.7993 C   0  0  0  0  0  0  0  0  0  0  0  0
    1.6021    0.2896   -1.4306 N   0  0  0  0  0  0  0  0  0  0  0  0
    4.2556    1.4553    1.9455 H   0  0  0  0  0  0  0  0  0  0  0  0
    5.5333    1.4246    0.6872 H   0  0  0  0  0  0  0  0  0  0  0  0
    5.0868   -0.0843    1.5549 H   0  0  0  0  0  0  0  0  0  0  0  0
    6.0229   -0.5164   -0.5763 H   0  0  0  0  0  0  0  0  0  0  0  0
    6.3191   -1.7769   -2.7054 H   0  0  0  0  0  0  0  0  0  0  0  0
    6.0922   -4.5398   -3.9523 H   0  0  0  0  0  0  0  0  0  0  0  0
    4.9438   -5.8890   -3.7808 H   0  0  0  0  0  0  0  0  0  0  0  0
    4.9919   -4.6070   -2.5290 H   0  0  0  0  0  0  0  0  0  0  0  0
    2.0840   -3.6993   -4.7208 H   0  0  0  0  0  0  0  0  0  0  0  0
    2.4185   -4.5020   -3.1693 H   0  0  0  0  0  0  0  0  0  0  0  0
    3.6913   -5.8291   -6.6444 H   0  0  0  0  0  0  0  0  0  0  0  0
    1.2342   -9.8311   -6.6212 H   0  0  0  0  0  0  0  0  0  0  0  0
   -0.2407   -9.1730   -5.8544 H   0  0  0  0  0  0  0  0  0  0  0  0
    0.9962   -9.9673   -4.8528 H   0  0  0  0  0  0  0  0  0  0  0  0
    2.1818   -1.0639   -3.6985 H   0  0  0  0  0  0  0  0  0  0  0  0
    0.9281    0.4565   -2.1673 H   0  0  0  0  0  0  0  0  0  0  0  0
    1.6356    0.9997   -0.7090 H   0  0  0  0  0  0  0  0  0  0  0  0
  1  2  1  0
  1 22  1  0
  1 23  1  0
  1 24  1  0
  2  3  1  0
  3  4  2  0
  3 20  1  0
  4  5  1  0
  4 25  1  0
  5  6  2  0
  5 26  1  0
  6  7  1  0
  6 19  1  0
  7  8  2  0
  7  9  2  0
  7 10  1  1
 10 11  1  0
 10 12  1  0
 11 27  1  0
 11 28  1  0
 11 29  1  0
 12 13  1  0
 12 30  1  0
 12 31  1  0
 13 14  2  0
 13 18  1  0
 14 15  1  0
 14 32  1  0
 15 16  2  0
 16 17  1  0
 16 18  1  0
 17 33  1  0
 17 34  1  0
 17 35  1  0
 19 20  2  0
 19 36  1  0
 20 21  1  0
 21 37  1  0
 21 38  1  0
M  END

