
     RDKit          3D

 47 50  0  0  0  0  0  0  0  0999 V2000
    2.9721   -1.8737    0.0384 C   0  0  0  0  0  0  0  0  0  0  0  0
    2.9755   -0.4560    0.1098 O   0  0  0  0  0  0  0  0  0  0  0  0
    3.5210    0.2313   -0.9119 C   0  0  0  0  0  0  0  0  0  0  0  0
    3.5068    1.6387   -0.8142 C   0  0  0  0  0  0  0  0  0  0  0  0
    4.0614    2.3490   -1.8679 C   0  0  0  0  0  0  0  0  0  0  0  0
    4.6084    1.6648   -2.9619 C   0  0  0  0  0  0  0  0  0  0  0  0
    4.5854    0.2633   -2.9625 C   0  0  0  0  0  0  0  0  0  0  0  0
    5.1449   -0.5462   -4.0816 C   0  0  0  0  0  0  0  0  0  0  0  0
    5.9366    0.0209   -5.0958 C   0  0  0  0  0  0  0  0  0  0  0  0
    6.4465   -0.7513   -6.1435 C   0  0  0  0  0  0  0  0  0  0  0  0
    6.1467   -2.1244   -6.1960 C   0  0  0  0  0  0  0  0  0  0  0  0
    5.3704   -2.7166   -5.1796 C   0  0  0  0  0  0  0  0  0  0  0  0
    5.0224   -4.0361   -5.2210 O   0  0  0  0  0  0  0  0  0  0  0  0
    6.0668   -4.9891   -5.0846 C   0  0  0  0  0  0  0  0  0  0  0  0
    4.8872   -1.9254   -4.1358 C   0  0  0  0  0  0  0  0  0  0  0  0
    6.6186   -2.9203   -7.2117 O   0  0  0  0  0  0  0  0  0  0  0  0
    6.1573   -2.6461   -8.5315 C   0  0  0  0  0  0  0  0  0  0  0  0
    6.9334   -1.5184   -9.2112 C   0  0  0  0  0  0  0  0  0  0  0  0
    6.7736   -0.2287   -8.5578 N   0  0  0  0  0  0  0  0  0  0  0  0
    6.2560    0.9210   -9.1119 C   0  0  0  0  0  0  0  0  0  0  0  0
    6.3651    2.0121   -8.5684 O   0  0  0  0  0  0  0  0  0  0  0  0
    5.5286    0.8344  -10.4169 C   0  0  0  0  0  0  0  0  0  0  0  0
    4.6315   -0.0765  -10.9365 C   0  0  0  0  0  0  0  0  0  0  0  0
    4.0372    0.2645  -12.1182 N   0  0  0  0  0  0  0  0  0  0  0  0
    4.4583    1.4306  -12.5199 C   0  0  0  0  0  0  0  0  0  0  0  0
    5.5938    2.2177  -11.4714 S   0  0  0  0  0  0  0  0  0  0  0  0
    7.3361   -0.1371   -7.2058 C   0  0  0  0  0  0  0  0  0  0  0  0
    4.0366   -0.4221   -1.9378 N   0  0  0  0  0  0  0  0  0  0  0  0
    2.5004   -2.2212    0.9671 H   0  0  0  0  0  0  0  0  0  0  0  0
    3.9949   -2.2755   -0.0385 H   0  0  0  0  0  0  0  0  0  0  0  0
    2.3970   -2.2313   -0.8308 H   0  0  0  0  0  0  0  0  0  0  0  0
    3.0678    2.1191    0.0610 H   0  0  0  0  0  0  0  0  0  0  0  0
    4.0685    3.4419   -1.8490 H   0  0  0  0  0  0  0  0  0  0  0  0
    5.0262    2.2233   -3.7986 H   0  0  0  0  0  0  0  0  0  0  0  0
    6.1830    1.0834   -5.0788 H   0  0  0  0  0  0  0  0  0  0  0  0
    5.5936   -5.9808   -5.1146 H   0  0  0  0  0  0  0  0  0  0  0  0
    6.5865   -4.8725   -4.1159 H   0  0  0  0  0  0  0  0  0  0  0  0
    6.8018   -4.9120   -5.9013 H   0  0  0  0  0  0  0  0  0  0  0  0
    4.2794   -2.3924   -3.3617 H   0  0  0  0  0  0  0  0  0  0  0  0
    5.0764   -2.4207   -8.5104 H   0  0  0  0  0  0  0  0  0  0  0  0
    6.3058   -3.5767   -9.1018 H   0  0  0  0  0  0  0  0  0  0  0  0
    6.6329   -1.4472  -10.2635 H   0  0  0  0  0  0  0  0  0  0  0  0
    8.0059   -1.7880   -9.1983 H   0  0  0  0  0  0  0  0  0  0  0  0
    4.3480   -1.0139  -10.4554 H   0  0  0  0  0  0  0  0  0  0  0  0
    4.1353    1.9084  -13.4484 H   0  0  0  0  0  0  0  0  0  0  0  0
    7.5035    0.9238   -6.9911 H   0  0  0  0  0  0  0  0  0  0  0  0
    8.3125   -0.6522   -7.2120 H   0  0  0  0  0  0  0  0  0  0  0  0
  1  2  1  0
  1 29  1  0
  1 30  1  0
  1 31  1  0
  2  3  1  0
  3  4  2  0
  3 28  1  0
  4  5  1  0
  4 32  1  0
  5  6  2  0
  5 33  1  0
  6  7  1  0
  6 34  1  0
  7  8  1  0
  7 28  2  0
  8  9  2  0
  8 15  1  0
  9 10  1  0
  9 35  1  0
 10 11  2  0
 10 27  1  0
 11 12  1  0
 11 16  1  0
 12 13  1  0
 12 15  2  0
 13 14  1  0
 14 36  1  0
 14 37  1  0
 14 38  1  0
 15 39  1  0
 16 17  1  0
 17 18  1  0
 17 40  1  0
 17 41  1  0
 18 19  1  0
 18 42  1  0
 18 43  1  0
 19 20  1  0
 19 27  1  0
 20 21  2  0
 20 22  1  0
 22 23  2  0
 22 26  1  0
 23 24  1  0
 23 44  1  0
 24 25  2  0
 25 26  1  0
 25 45  1  0
 27 46  1  0
 27 47  1  0
M  END

