
     RDKit          3D

 35 35  0  0  0  0  0  0  0  0999 V2000
    1.1527    5.4340   -2.2932 C   0  0  0  0  0  0  0  0  0  0  0  0
    2.6277    5.0357   -2.2564 C   0  0  0  0  0  0  0  0  0  0  0  0
    2.9594    4.0876   -1.1133 C   0  0  0  0  0  0  0  0  0  0  0  0
    4.3317    3.7785   -1.1524 O   0  0  0  0  0  0  0  0  0  0  0  0
    4.7567    2.8995   -0.1454 C   0  0  0  0  0  0  0  0  0  0  0  0
    6.2571    2.7140   -0.2300 C   0  0  0  0  0  0  0  0  0  0  0  0
    6.9029    3.8944    0.1937 O   0  0  0  0  0  0  0  0  0  0  0  0
    8.2795    3.9556   -0.0421 C   0  0  1  0  0  0  0  0  0  0  0  0
    8.8876    5.3534    0.1565 C   0  0  0  0  0  0  0  0  0  0  0  0
   10.0817    4.7139    0.8942 C   0  0  2  0  0  0  0  0  0  0  0  0
   11.7323    4.6508   -0.1923 Br  0  0  0  0  0  0  0  0  0  0  0  0
    9.2766    3.3748    1.0322 C   0  0  1  0  0  0  0  0  0  0  0  0
    8.6456    3.3149    2.4292 C   0  0  0  0  0  0  0  0  0  0  0  0
    9.9643    2.0571    0.6911 C   0  0  0  0  0  0  0  0  0  0  0  0
    0.9463    6.1193   -3.1299 H   0  0  0  0  0  0  0  0  0  0  0  0
    0.8476    5.9452   -1.3646 H   0  0  0  0  0  0  0  0  0  0  0  0
    0.4979    4.5550   -2.4170 H   0  0  0  0  0  0  0  0  0  0  0  0
    3.2666    5.9298   -2.1580 H   0  0  0  0  0  0  0  0  0  0  0  0
    2.9197    4.5507   -3.2036 H   0  0  0  0  0  0  0  0  0  0  0  0
    2.3488    3.1611   -1.1943 H   0  0  0  0  0  0  0  0  0  0  0  0
    2.6947    4.5536   -0.1392 H   0  0  0  0  0  0  0  0  0  0  0  0
    4.2674    1.9068   -0.2505 H   0  0  0  0  0  0  0  0  0  0  0  0
    4.4962    3.2879    0.8612 H   0  0  0  0  0  0  0  0  0  0  0  0
    6.5334    2.4731   -1.2757 H   0  0  0  0  0  0  0  0  0  0  0  0
    6.5455    1.8482    0.4000 H   0  0  0  0  0  0  0  0  0  0  0  0
    8.5183    3.5456   -1.0425 H   0  0  0  0  0  0  0  0  0  0  0  0
    8.2683    5.9543    0.8397 H   0  0  0  0  0  0  0  0  0  0  0  0
    9.1065    5.9457   -0.7419 H   0  0  0  0  0  0  0  0  0  0  0  0
   10.4019    5.1795    1.8340 H   0  0  0  0  0  0  0  0  0  0  0  0
    8.1302    4.2494    2.6968 H   0  0  0  0  0  0  0  0  0  0  0  0
    9.4207    3.1191    3.1883 H   0  0  0  0  0  0  0  0  0  0  0  0
    7.9024    2.5042    2.4882 H   0  0  0  0  0  0  0  0  0  0  0  0
   10.3916    2.0697   -0.3219 H   0  0  0  0  0  0  0  0  0  0  0  0
    9.2426    1.2255    0.7504 H   0  0  0  0  0  0  0  0  0  0  0  0
   10.7849    1.8415    1.3951 H   0  0  0  0  0  0  0  0  0  0  0  0
  1  2  1  0
  1 15  1  0
  1 16  1  0
  1 17  1  0
  2  3  1  0
  2 18  1  0
  2 19  1  0
  3  4  1  0
  3 20  1  0
  3 21  1  0
  4  5  1  0
  5  6  1  0
  5 22  1  0
  5 23  1  0
  6  7  1  0
  6 24  1  0
  6 25  1  0
  7  8  1  0
  8  9  1  0
  8 12  1  0
  8 26  1  6
  9 10  1  0
  9 27  1  0
  9 28  1  0
 10 11  1  0
 10 12  1  0
 10 29  1  1
 12 13  1  1
 12 14  1  0
 13 30  1  0
 13 31  1  0
 13 32  1  0
 14 33  1  0
 14 34  1  0
 14 35  1  0
M  END

