
     RDKit          3D

 49 51  0  0  0  0  0  0  0  0999 V2000
    6.5157    0.0962   -2.7933 C   0  0  0  0  0  0  0  0  0  0  0  0
    6.4222   -0.2880   -1.3151 C   0  0  0  0  0  0  0  0  0  0  0  0
    4.9972   -0.6662   -0.9001 C   0  0  0  0  0  0  0  0  0  0  0  0
    4.7806   -1.1285    0.5604 C   0  0  2  0  0  0  0  0  0  0  0  0
    3.6851   -1.2621    0.6583 H   0  0  0  0  0  0  0  0  0  0  0  0
    5.0729    0.0077    1.5160 C   0  0  0  0  0  0  0  0  0  0  0  0
    4.1667    0.9042    1.8670 N   0  0  0  0  0  0  0  0  0  0  0  0
    4.7793    1.7756    2.6929 N   0  0  0  0  0  0  0  0  0  0  0  0
    6.0099    1.4485    2.8723 N   0  0  0  0  0  0  0  0  0  0  0  0
    6.2337    0.3390    2.1374 N   0  0  0  0  0  0  0  0  0  0  0  0
    7.5571   -0.2821    2.1569 C   0  0  0  0  0  0  0  0  0  0  0  0
    8.6025    0.5151    1.4402 C   0  0  0  0  0  0  0  0  0  0  0  0
    8.9754    1.8312    1.4618 C   0  0  0  0  0  0  0  0  0  0  0  0
   10.0796    1.9484    0.5535 C   0  0  0  0  0  0  0  0  0  0  0  0
   10.2964    0.6951    0.0569 C   0  0  0  0  0  0  0  0  0  0  0  0
    9.4041   -0.1811    0.5857 O   0  0  0  0  0  0  0  0  0  0  0  0
    5.5227   -2.3391    0.9501 N   0  0  0  0  0  0  0  0  0  0  0  0
    5.0939   -2.8909    2.2486 C   0  0  0  0  0  0  0  0  0  0  0  0
    3.8033   -3.7252    2.1473 C   0  0  0  0  0  0  0  0  0  0  0  0
    3.8774   -4.7928    1.1537 N   0  0  0  0  0  0  0  0  0  0  0  0
    4.5305   -6.0267    1.5840 C   0  0  0  0  0  0  0  0  0  0  0  0
    4.0241   -7.2587    0.8331 C   0  0  0  0  0  0  0  0  0  0  0  0
    4.3174   -4.2617   -0.1359 C   0  0  0  0  0  0  0  0  0  0  0  0
    5.6093   -3.4307   -0.0301 C   0  0  0  0  0  0  0  0  0  0  0  0
    7.5423    0.3863   -3.0666 H   0  0  0  0  0  0  0  0  0  0  0  0
    5.8551    0.9471   -3.0292 H   0  0  0  0  0  0  0  0  0  0  0  0
    6.2201   -0.7410   -3.4480 H   0  0  0  0  0  0  0  0  0  0  0  0
    6.7710    0.5588   -0.7008 H   0  0  0  0  0  0  0  0  0  0  0  0
    7.1181   -1.1168   -1.1044 H   0  0  0  0  0  0  0  0  0  0  0  0
    4.6021   -1.4432   -1.5759 H   0  0  0  0  0  0  0  0  0  0  0  0
    4.3373    0.2057   -1.0420 H   0  0  0  0  0  0  0  0  0  0  0  0
    7.4530   -1.2672    1.6843 H   0  0  0  0  0  0  0  0  0  0  0  0
    7.8235   -0.4221    3.2170 H   0  0  0  0  0  0  0  0  0  0  0  0
    8.5084    2.6141    2.0547 H   0  0  0  0  0  0  0  0  0  0  0  0
   10.6382    2.8490    0.3069 H   0  0  0  0  0  0  0  0  0  0  0  0
   11.0137    0.2817   -0.6473 H   0  0  0  0  0  0  0  0  0  0  0  0
    4.9602   -2.0726    2.9739 H   0  0  0  0  0  0  0  0  0  0  0  0
    5.9130   -3.5256    2.6325 H   0  0  0  0  0  0  0  0  0  0  0  0
    2.9602   -3.0614    1.8805 H   0  0  0  0  0  0  0  0  0  0  0  0
    3.5566   -4.1575    3.1304 H   0  0  0  0  0  0  0  0  0  0  0  0
    4.3093   -6.1555    2.6563 H   0  0  0  0  0  0  0  0  0  0  0  0
    5.6409   -5.9882    1.5106 H   0  0  0  0  0  0  0  0  0  0  0  0
    2.9322   -7.3515    0.9394 H   0  0  0  0  0  0  0  0  0  0  0  0
    4.4969   -8.1725    1.2280 H   0  0  0  0  0  0  0  0  0  0  0  0
    4.2545   -7.2121   -0.2434 H   0  0  0  0  0  0  0  0  0  0  0  0
    3.5067   -3.6344   -0.5516 H   0  0  0  0  0  0  0  0  0  0  0  0
    4.4613   -5.0894   -0.8479 H   0  0  0  0  0  0  0  0  0  0  0  0
    5.9020   -3.0399   -1.0138 H   0  0  0  0  0  0  0  0  0  0  0  0
    6.4362   -4.0869    0.2949 H   0  0  0  0  0  0  0  0  0  0  0  0
  1  2  1  0
  1 25  1  0
  1 26  1  0
  1 27  1  0
  2  3  1  0
  2 28  1  0
  2 29  1  0
  3  4  1  0
  3 30  1  0
  3 31  1  0
  4  5  1  6
  4  6  1  0
  4 17  1  0
  6  7  2  0
  6 10  1  0
  7  8  1  0
  8  9  2  0
  9 10  1  0
 10 11  1  0
 11 12  1  0
 11 32  1  0
 11 33  1  0
 12 13  2  0
 12 16  1  0
 13 14  1  0
 13 34  1  0
 14 15  2  0
 14 35  1  0
 15 16  1  0
 15 36  1  0
 17 18  1  0
 17 24  1  0
 18 19  1  0
 18 37  1  0
 18 38  1  0
 19 20  1  0
 19 39  1  0
 19 40  1  0
 20 21  1  0
 20 23  1  0
 21 22  1  0
 21 41  1  0
 21 42  1  0
 22 43  1  0
 22 44  1  0
 22 45  1  0
 23 24  1  0
 23 46  1  0
 23 47  1  0
 24 48  1  0
 24 49  1  0
M  END

