
     RDKit          3D

 89 94  0  0  0  0  0  0  0  0999 V2000
    4.3196   -4.8406    1.2263 C   0  0  0  0  0  0  0  0  0  0  0  0
    3.8977   -4.0551   -0.0167 C   0  0  0  0  0  0  0  0  0  0  0  0
    4.7186   -4.4105   -1.2627 C   0  0  0  0  0  0  0  0  0  0  0  0
    4.3232   -3.6615   -2.5449 C   0  0  0  0  0  0  0  0  0  0  0  0
    4.7654   -2.1850   -2.7223 C   0  0  2  0  0  0  0  0  0  0  0  0
    4.4964   -1.6266   -1.8183 H   0  0  0  0  0  0  0  0  0  0  0  0
    4.0816   -1.5040   -3.8297 N   0  0  0  0  0  0  0  0  0  0  0  0
    2.7317   -0.9199   -3.7942 C   0  0  1  0  0  0  0  0  0  0  0  0
    2.5919   -0.1311   -2.4653 C   0  0  0  0  0  0  0  0  0  0  0  0
    2.9150    1.2331   -2.3915 C   0  0  0  0  0  0  0  0  0  0  0  0
    2.8616    1.9266   -1.1781 C   0  0  0  0  0  0  0  0  0  0  0  0
    2.4851    1.2706   -0.0044 C   0  0  0  0  0  0  0  0  0  0  0  0
    2.1687   -0.0894   -0.0571 C   0  0  0  0  0  0  0  0  0  0  0  0
    2.2250   -0.7787   -1.2719 C   0  0  0  0  0  0  0  0  0  0  0  0
    2.6338    0.0643   -5.0061 C   0  0  0  0  0  0  0  0  0  0  0  0
    1.3893    0.5290   -5.4668 C   0  0  0  0  0  0  0  0  0  0  0  0
    1.3007    1.4366   -6.5242 C   0  0  0  0  0  0  0  0  0  0  0  0
    2.4574    1.9002   -7.1580 C   0  0  0  0  0  0  0  0  0  0  0  0
    3.7005    1.4501   -6.7116 C   0  0  0  0  0  0  0  0  0  0  0  0
    3.7869    0.5467   -5.6460 C   0  0  0  0  0  0  0  0  0  0  0  0
    1.5838   -1.9652   -3.9840 C   0  0  0  0  0  0  0  0  0  0  0  0
    0.3063   -1.8090   -3.4197 C   0  0  0  0  0  0  0  0  0  0  0  0
   -0.7229   -2.7209   -3.6809 C   0  0  0  0  0  0  0  0  0  0  0  0
   -0.5036   -3.8114   -4.5240 C   0  0  0  0  0  0  0  0  0  0  0  0
    0.7557   -3.9736   -5.1084 C   0  0  0  0  0  0  0  0  0  0  0  0
    1.7783   -3.0612   -4.8410 C   0  0  0  0  0  0  0  0  0  0  0  0
    6.3064   -1.9497   -2.9277 C   0  0  1  0  0  0  0  0  0  0  0  0
    7.0247   -1.3563   -1.8041 N   0  0  0  0  0  0  0  0  0  0  0  0
    6.7312   -1.7315   -0.4307 C   0  0  0  0  0  0  0  0  0  0  0  0
    8.4331   -1.4799   -2.1704 C   0  0  2  0  0  0  0  0  0  0  0  0
    9.0346   -1.5504   -1.2513 H   0  0  0  0  0  0  0  0  0  0  0  0
    8.9514   -0.2668   -2.9550 C   0  0  0  0  0  0  0  0  0  0  0  0
    8.2222    0.9308   -2.9807 C   0  0  0  0  0  0  0  0  0  0  0  0
    8.7175    2.0588   -3.6420 C   0  0  0  0  0  0  0  0  0  0  0  0
    9.9586    2.0144   -4.2827 C   0  0  0  0  0  0  0  0  0  0  0  0
   10.7000    0.8296   -4.2561 C   0  0  0  0  0  0  0  0  0  0  0  0
   10.1989   -0.2983   -3.6003 C   0  0  0  0  0  0  0  0  0  0  0  0
    8.5160   -2.8397   -2.9591 C   0  0  1  0  0  0  0  0  0  0  0  0
    9.1169   -2.6723   -3.8714 H   0  0  0  0  0  0  0  0  0  0  0  0
    9.1919   -3.9778   -2.1931 C   0  0  0  0  0  0  0  0  0  0  0  0
    8.5461   -5.2002   -1.9641 C   0  0  0  0  0  0  0  0  0  0  0  0
    9.1963   -6.2411   -1.2918 C   0  0  0  0  0  0  0  0  0  0  0  0
   10.5069   -6.0788   -0.8371 C   0  0  0  0  0  0  0  0  0  0  0  0
   11.1649   -4.8652   -1.0640 C   0  0  0  0  0  0  0  0  0  0  0  0
   10.5134   -3.8291   -1.7366 C   0  0  0  0  0  0  0  0  0  0  0  0
    7.1209   -3.1202   -3.3354 N   0  0  0  0  0  0  0  0  0  0  0  0
    6.9767   -3.4985   -4.7295 C   0  0  0  0  0  0  0  0  0  0  0  0
    3.7043   -4.5785    2.1022 H   0  0  0  0  0  0  0  0  0  0  0  0
    5.3725   -4.6417    1.4875 H   0  0  0  0  0  0  0  0  0  0  0  0
    4.2227   -5.9275    1.0648 H   0  0  0  0  0  0  0  0  0  0  0  0
    3.9713   -2.9744    0.1945 H   0  0  0  0  0  0  0  0  0  0  0  0
    2.8288   -4.2444   -0.2260 H   0  0  0  0  0  0  0  0  0  0  0  0
    4.5905   -5.4916   -1.4532 H   0  0  0  0  0  0  0  0  0  0  0  0
    5.7914   -4.2796   -1.0575 H   0  0  0  0  0  0  0  0  0  0  0  0
    3.2250   -3.6787   -2.6216 H   0  0  0  0  0  0  0  0  0  0  0  0
    4.6827   -4.2383   -3.4105 H   0  0  0  0  0  0  0  0  0  0  0  0
    4.2660   -1.9503   -4.7234 H   0  0  0  0  0  0  0  0  0  0  0  0
    3.2125    1.7678   -3.2935 H   0  0  0  0  0  0  0  0  0  0  0  0
    3.1151    2.9897   -1.1554 H   0  0  0  0  0  0  0  0  0  0  0  0
    2.4385    1.8133    0.9433 H   0  0  0  0  0  0  0  0  0  0  0  0
    1.8757   -0.6221    0.8515 H   0  0  0  0  0  0  0  0  0  0  0  0
    1.9748   -1.8401   -1.2853 H   0  0  0  0  0  0  0  0  0  0  0  0
    0.4686    0.1786   -4.9999 H   0  0  0  0  0  0  0  0  0  0  0  0
    0.3173    1.7785   -6.8579 H   0  0  0  0  0  0  0  0  0  0  0  0
    2.3882    2.6052   -7.9906 H   0  0  0  0  0  0  0  0  0  0  0  0
    4.6176    1.8051   -7.1896 H   0  0  0  0  0  0  0  0  0  0  0  0
    4.7645    0.2230   -5.2908 H   0  0  0  0  0  0  0  0  0  0  0  0
    0.1003   -0.9611   -2.7652 H   0  0  0  0  0  0  0  0  0  0  0  0
   -1.7030   -2.5716   -3.2199 H   0  0  0  0  0  0  0  0  0  0  0  0
   -1.3054   -4.5256   -4.7277 H   0  0  0  0  0  0  0  0  0  0  0  0
    0.9456   -4.8158   -5.7791 H   0  0  0  0  0  0  0  0  0  0  0  0
    2.7487   -3.2146   -5.3169 H   0  0  0  0  0  0  0  0  0  0  0  0
    6.3571   -1.1982   -3.7420 H   0  0  0  0  0  0  0  0  0  0  0  0
    5.6695   -1.5682   -0.2037 H   0  0  0  0  0  0  0  0  0  0  0  0
    7.2992   -1.0689    0.2410 H   0  0  0  0  0  0  0  0  0  0  0  0
    6.9867   -2.7766   -0.1657 H   0  0  0  0  0  0  0  0  0  0  0  0
    7.2565    0.9577   -2.4724 H   0  0  0  0  0  0  0  0  0  0  0  0
    8.1283    2.9800   -3.6540 H   0  0  0  0  0  0  0  0  0  0  0  0
   10.3468    2.8964   -4.7987 H   0  0  0  0  0  0  0  0  0  0  0  0
   11.6744    0.7804   -4.7497 H   0  0  0  0  0  0  0  0  0  0  0  0
   10.7977   -1.2133   -3.5942 H   0  0  0  0  0  0  0  0  0  0  0  0
    7.5219   -5.3210   -2.3186 H   0  0  0  0  0  0  0  0  0  0  0  0
    8.6720   -7.1857   -1.1228 H   0  0  0  0  0  0  0  0  0  0  0  0
   11.0145   -6.8910   -0.3105 H   0  0  0  0  0  0  0  0  0  0  0  0
   12.1916   -4.7242   -0.7153 H   0  0  0  0  0  0  0  0  0  0  0  0
   11.0461   -2.8884   -1.9055 H   0  0  0  0  0  0  0  0  0  0  0  0
    7.5953   -4.3823   -4.9500 H   0  0  0  0  0  0  0  0  0  0  0  0
    7.2745   -2.6883   -5.4328 H   0  0  0  0  0  0  0  0  0  0  0  0
    5.9355   -3.7727   -4.9576 H   0  0  0  0  0  0  0  0  0  0  0  0
  1  2  1  0
  1 48  1  0
  1 49  1  0
  1 50  1  0
  2  3  1  0
  2 51  1  0
  2 52  1  0
  3  4  1  0
  3 53  1  0
  3 54  1  0
  4  5  1  0
  4 55  1  0
  4 56  1  0
  5  6  1  1
  5  7  1  0
  5 27  1  0
  8  7  1  1
  7 57  1  0
  8  9  1  0
  8 15  1  0
  8 21  1  0
  9 10  2  0
  9 14  1  0
 10 11  1  0
 10 58  1  0
 11 12  2  0
 11 59  1  0
 12 13  1  0
 12 60  1  0
 13 14  2  0
 13 61  1  0
 14 62  1  0
 15 16  2  0
 15 20  1  0
 16 17  1  0
 16 63  1  0
 17 18  2  0
 17 64  1  0
 18 19  1  0
 18 65  1  0
 19 20  2  0
 19 66  1  0
 20 67  1  0
 21 22  2  0
 21 26  1  0
 22 23  1  0
 22 68  1  0
 23 24  2  0
 23 69  1  0
 24 25  1  0
 24 70  1  0
 25 26  2  0
 25 71  1  0
 26 72  1  0
 27 28  1  0
 27 46  1  0
 27 73  1  6
 28 29  1  0
 28 30  1  0
 29 74  1  0
 29 75  1  0
 29 76  1  0
 30 31  1  1
 30 32  1  0
 30 38  1  0
 32 33  2  0
 32 37  1  0
 33 34  1  0
 33 77  1  0
 34 35  2  0
 34 78  1  0
 35 36  1  0
 35 79  1  0
 36 37  2  0
 36 80  1  0
 37 81  1  0
 38 39  1  6
 38 40  1  0
 38 46  1  0
 40 41  2  0
 40 45  1  0
 41 42  1  0
 41 82  1  0
 42 43  2  0
 42 83  1  0
 43 44  1  0
 43 84  1  0
 44 45  2  0
 44 85  1  0
 45 86  1  0
 46 47  1  0
 47 87  1  0
 47 88  1  0
 47 89  1  0
M  END

