
     RDKit          3D

 44 45  0  0  0  0  0  0  0  0999 V2000
    2.2594    0.5713    1.7278 C   0  0  0  0  0  0  0  0  0  0  0  0
    2.9342    0.3734    0.5012 O   0  0  0  0  0  0  0  0  0  0  0  0
    3.0789    1.4129   -0.3563 C   0  0  0  0  0  0  0  0  0  0  0  0
    2.6365    2.7188   -0.1124 C   0  0  0  0  0  0  0  0  0  0  0  0
    2.8524    3.7357   -1.0594 C   0  0  0  0  0  0  0  0  0  0  0  0
    2.4972    5.1702   -0.7695 C   0  0  0  0  0  0  0  0  0  0  0  0
    3.3669    6.0385   -0.8647 O   0  0  0  0  0  0  0  0  0  0  0  0
    1.2223    5.4912   -0.3899 N   0  0  0  0  0  0  0  0  0  0  0  0
    0.0796    4.5889   -0.3527 C   0  0  0  0  0  0  0  0  0  0  0  0
    0.9586    6.8965   -0.0628 C   0  0  0  0  0  0  0  0  0  0  0  0
    1.3143    7.2473    1.3945 C   0  0  0  0  0  0  0  0  0  0  0  0
    0.4461    7.3902    2.2387 O   0  0  0  0  0  0  0  0  0  0  0  0
    2.6629    7.3537    1.6068 N   0  0  0  0  0  0  0  0  0  0  0  0
    3.3522    7.5972    2.8100 C   0  0  0  0  0  0  0  0  0  0  0  0
    2.7081    7.8801    4.0284 C   0  0  0  0  0  0  0  0  0  0  0  0
    3.4745    8.1150    5.1731 C   0  0  0  0  0  0  0  0  0  0  0  0
    4.8708    8.0746    5.1318 C   0  0  0  0  0  0  0  0  0  0  0  0
    5.5084    7.7922    3.9191 C   0  0  0  0  0  0  0  0  0  0  0  0
    4.7590    7.5547    2.7680 C   0  0  0  0  0  0  0  0  0  0  0  0
    3.5305    3.4481   -2.2483 C   0  0  0  0  0  0  0  0  0  0  0  0
    3.9537    2.1425   -2.5070 C   0  0  0  0  0  0  0  0  0  0  0  0
    3.7332    1.1306   -1.5779 C   0  0  0  0  0  0  0  0  0  0  0  0
    4.0992   -0.1615   -1.8909 O   0  0  0  0  0  0  0  0  0  0  0  0
    5.1468   -0.7201   -1.1979 C   0  0  1  0  0  0  0  0  0  0  0  0
    5.1616   -2.0211   -1.5076 F   0  0  0  0  0  0  0  0  0  0  0  0
    6.3180   -0.1767   -1.6114 F   0  0  0  0  0  0  0  0  0  0  0  0
    2.2501   -0.4011    2.2370 H   0  0  0  0  0  0  0  0  0  0  0  0
    1.2183    0.9028    1.5689 H   0  0  0  0  0  0  0  0  0  0  0  0
    2.7785    1.3076    2.3664 H   0  0  0  0  0  0  0  0  0  0  0  0
    2.1405    2.9563    0.8285 H   0  0  0  0  0  0  0  0  0  0  0  0
    0.3330    3.6250   -0.8062 H   0  0  0  0  0  0  0  0  0  0  0  0
   -0.7570    5.0264   -0.9219 H   0  0  0  0  0  0  0  0  0  0  0  0
   -0.2679    4.4200    0.6808 H   0  0  0  0  0  0  0  0  0  0  0  0
   -0.1143    7.0902   -0.1785 H   0  0  0  0  0  0  0  0  0  0  0  0
    1.5263    7.5314   -0.7593 H   0  0  0  0  0  0  0  0  0  0  0  0
    3.2400    7.1513    0.7875 H   0  0  0  0  0  0  0  0  0  0  0  0
    1.6215    7.9104    4.0611 H   0  0  0  0  0  0  0  0  0  0  0  0
    2.9636    8.3353    6.1144 H   0  0  0  0  0  0  0  0  0  0  0  0
    5.4575    8.2616    6.0343 H   0  0  0  0  0  0  0  0  0  0  0  0
    6.5996    7.7556    3.8661 H   0  0  0  0  0  0  0  0  0  0  0  0
    5.2612    7.3304    1.8224 H   0  0  0  0  0  0  0  0  0  0  0  0
    3.7322    4.2475   -2.9628 H   0  0  0  0  0  0  0  0  0  0  0  0
    4.4685    1.8831   -3.4337 H   0  0  0  0  0  0  0  0  0  0  0  0
    5.0647   -0.5897   -0.1070 H   0  0  0  0  0  0  0  0  0  0  0  0
  1  2  1  0
  1 27  1  0
  1 28  1  0
  1 29  1  0
  2  3  1  0
  3  4  2  0
  3 22  1  0
  4  5  1  0
  4 30  1  0
  5  6  1  0
  5 20  2  0
  6  7  2  0
  6  8  1  0
  8  9  1  0
  8 10  1  0
  9 31  1  0
  9 32  1  0
  9 33  1  0
 10 11  1  0
 10 34  1  0
 10 35  1  0
 11 12  2  0
 11 13  1  0
 13 14  1  0
 13 36  1  0
 14 15  2  0
 14 19  1  0
 15 16  1  0
 15 37  1  0
 16 17  2  0
 16 38  1  0
 17 18  1  0
 17 39  1  0
 18 19  2  0
 18 40  1  0
 19 41  1  0
 20 21  1  0
 20 42  1  0
 21 22  2  0
 21 43  1  0
 22 23  1  0
 23 24  1  0
 24 25  1  0
 24 26  1  0
 24 44  1  1
M  END

