
     RDKit          3D

 34 36  0  0  0  0  0  0  0  0999 V2000
    2.2165    0.5286   -2.2819 N   0  0  0  0  0  0  0  0  0  0  0  0
    2.9552    0.3011   -1.4127 C   0  0  0  0  0  0  0  0  0  0  0  0
    3.8938    0.0875   -0.3538 C   0  0  0  0  0  0  0  0  0  0  0  0
    4.5123    1.2198    0.2065 C   0  0  0  0  0  0  0  0  0  0  0  0
    5.5023    1.0790    1.1723 C   0  0  0  0  0  0  0  0  0  0  0  0
    5.8604   -0.2254    1.5312 C   0  0  0  0  0  0  0  0  0  0  0  0
    5.2854   -1.3134    1.0376 N   0  0  0  0  0  0  0  0  0  0  0  0
    4.2951   -1.2069    0.1297 C   0  0  0  0  0  0  0  0  0  0  0  0
    3.7492   -2.3890   -0.2713 N   0  0  0  0  0  0  0  0  0  0  0  0
    4.3164   -3.6660    0.1833 C   0  0  0  0  0  0  0  0  0  0  0  0
    3.5174   -4.7056   -0.6075 C   0  0  1  0  0  0  0  0  0  0  0  0
    3.9432   -4.8022   -1.6242 H   0  0  0  0  0  0  0  0  0  0  0  0
    3.4801   -6.0777    0.0499 C   0  0  0  0  0  0  0  0  0  0  0  0
    3.5609   -6.2658    1.2330 O   0  0  0  0  0  0  0  0  0  0  0  0
    3.2896   -7.1196   -0.7947 O   0  0  0  0  0  0  0  0  0  0  0  0
    2.1266   -4.0313   -0.7493 C   0  0  1  0  0  0  0  0  0  0  0  0
    1.0325   -4.6265   -1.6731 C   0  0  0  0  0  0  0  0  0  0  0  0
   -0.0265   -4.3093   -0.5855 C   0  0  0  0  0  0  0  0  0  0  0  0
    1.1205   -4.1267    0.4414 C   0  0  0  0  0  0  0  0  0  0  0  0
    2.5412   -2.5879   -1.0715 C   0  0  0  0  0  0  0  0  0  0  0  0
    4.2098    2.2079   -0.1472 H   0  0  0  0  0  0  0  0  0  0  0  0
    5.9956    1.9440    1.6173 H   0  0  0  0  0  0  0  0  0  0  0  0
    6.6602   -0.3952    2.2629 H   0  0  0  0  0  0  0  0  0  0  0  0
    4.1757   -3.8129    1.2659 H   0  0  0  0  0  0  0  0  0  0  0  0
    5.3982   -3.7082   -0.0099 H   0  0  0  0  0  0  0  0  0  0  0  0
    3.2872   -6.8150   -1.7132 H   0  0  0  0  0  0  0  0  0  0  0  0
    1.1606   -5.7121   -1.8079 H   0  0  0  0  0  0  0  0  0  0  0  0
    0.9111   -4.1605   -2.6641 H   0  0  0  0  0  0  0  0  0  0  0  0
   -0.7662   -5.0938   -0.3693 H   0  0  0  0  0  0  0  0  0  0  0  0
   -0.5657   -3.3722   -0.7907 H   0  0  0  0  0  0  0  0  0  0  0  0
    1.2828   -5.0227    1.0573 H   0  0  0  0  0  0  0  0  0  0  0  0
    1.0735   -3.2552    1.1123 H   0  0  0  0  0  0  0  0  0  0  0  0
    1.7563   -1.8658   -0.8072 H   0  0  0  0  0  0  0  0  0  0  0  0
    2.7426   -2.4721   -2.1528 H   0  0  0  0  0  0  0  0  0  0  0  0
  1  2  3  0
  2  3  1  0
  3  4  2  0
  3  8  1  0
  4  5  1  0
  4 21  1  0
  5  6  2  0
  5 22  1  0
  6  7  1  0
  6 23  1  0
  7  8  2  0
  8  9  1  0
  9 10  1  0
  9 20  1  0
 10 11  1  0
 10 24  1  0
 10 25  1  0
 11 12  1  6
 11 13  1  0
 11 16  1  0
 13 14  2  0
 13 15  1  0
 15 26  1  0
 16 17  1  6
 16 19  1  0
 16 20  1  0
 17 18  1  0
 17 27  1  0
 17 28  1  0
 18 19  1  0
 18 29  1  0
 18 30  1  0
 19 31  1  0
 19 32  1  0
 20 33  1  0
 20 34  1  0
M  END

