
     RDKit          3D

 41 42  0  0  0  0  0  0  0  0999 V2000
    3.9719    1.1487   -0.4833 C   0  0  0  0  0  0  0  0  0  0  0  0
    2.7404    1.9580   -0.9037 C   0  0  1  0  0  0  0  0  0  0  0  0
    3.1178    3.0580   -1.7198 O   0  0  0  0  0  0  0  0  0  0  0  0
    1.6625    1.0792   -1.5813 C   0  0  0  0  0  0  0  0  0  0  0  0
    2.1270    0.2427   -2.6805 N   0  0  0  0  0  0  0  0  0  0  0  0
    2.4136    0.7681   -3.9108 C   0  0  0  0  0  0  0  0  0  0  0  0
    2.5011    1.9796   -4.1066 O   0  0  0  0  0  0  0  0  0  0  0  0
    2.5995   -0.1663   -4.9095 N   0  0  0  0  0  0  0  0  0  0  0  0
    2.9093    0.1372   -6.2353 C   0  0  0  0  0  0  0  0  0  0  0  0
    2.9644    1.3324   -6.9391 C   0  0  0  0  0  0  0  0  0  0  0  0
    3.3232    0.9349   -8.2496 C   0  0  0  0  0  0  0  0  0  0  0  0
    3.4780   -0.3780   -8.3566 N   0  0  0  0  0  0  0  0  0  0  0  0
    3.2405   -0.8606   -7.1134 N   0  0  0  0  0  0  0  0  0  0  0  0
    3.2691   -2.2952   -6.8894 C   0  0  0  0  0  0  0  0  0  0  0  0
    1.9023   -2.9521   -6.9860 C   0  0  0  0  0  0  0  0  0  0  0  0
    1.2277   -2.9473   -8.2196 C   0  0  0  0  0  0  0  0  0  0  0  0
   -0.0275   -3.5288   -8.3773 C   0  0  0  0  0  0  0  0  0  0  0  0
   -0.6405   -4.1376   -7.2764 C   0  0  0  0  0  0  0  0  0  0  0  0
   -2.2083   -4.8777   -7.4527 Cl  0  0  0  0  0  0  0  0  0  0  0  0
   -0.0112   -4.1572   -6.0310 C   0  0  0  0  0  0  0  0  0  0  0  0
    1.2464   -3.5607   -5.9059 C   0  0  0  0  0  0  0  0  0  0  0  0
    1.9909   -3.5959   -4.3004 Cl  0  0  0  0  0  0  0  0  0  0  0  0
    2.0755    2.5514    0.3691 C   0  0  0  0  0  0  0  0  0  0  0  0
    1.6397    1.8616    1.2561 O   0  0  0  0  0  0  0  0  0  0  0  0
    2.0342    3.8801    0.3712 O   0  0  0  0  0  0  0  0  0  0  0  0
    4.4279    0.6660   -1.3605 H   0  0  0  0  0  0  0  0  0  0  0  0
    3.7009    0.3821    0.2573 H   0  0  0  0  0  0  0  0  0  0  0  0
    4.7175    1.8222   -0.0358 H   0  0  0  0  0  0  0  0  0  0  0  0
    2.9307    2.8439   -2.6641 H   0  0  0  0  0  0  0  0  0  0  0  0
    0.8550    1.7425   -1.9363 H   0  0  0  0  0  0  0  0  0  0  0  0
    1.2400    0.4196   -0.8121 H   0  0  0  0  0  0  0  0  0  0  0  0
    2.0691   -0.7621   -2.5682 H   0  0  0  0  0  0  0  0  0  0  0  0
    2.4224   -1.1397   -4.6814 H   0  0  0  0  0  0  0  0  0  0  0  0
    2.7776    2.3235   -6.5428 H   0  0  0  0  0  0  0  0  0  0  0  0
    3.4766    1.5709   -9.1215 H   0  0  0  0  0  0  0  0  0  0  0  0
    3.7381   -2.5059   -5.9188 H   0  0  0  0  0  0  0  0  0  0  0  0
    3.9309   -2.6987   -7.6677 H   0  0  0  0  0  0  0  0  0  0  0  0
    1.7107   -2.4572   -9.0691 H   0  0  0  0  0  0  0  0  0  0  0  0
   -0.5333   -3.5155   -9.3436 H   0  0  0  0  0  0  0  0  0  0  0  0
   -0.4916   -4.6248   -5.1720 H   0  0  0  0  0  0  0  0  0  0  0  0
    2.4366    4.1444   -0.4892 H   0  0  0  0  0  0  0  0  0  0  0  0
  1  2  1  0
  1 26  1  0
  1 27  1  0
  1 28  1  0
  2  3  1  6
  2  4  1  0
  2 23  1  0
  3 29  1  0
  4  5  1  0
  4 30  1  0
  4 31  1  0
  5  6  1  0
  5 32  1  0
  6  7  2  0
  6  8  1  0
  8  9  1  0
  8 33  1  0
  9 10  2  0
  9 13  1  0
 10 11  1  0
 10 34  1  0
 11 12  2  0
 11 35  1  0
 12 13  1  0
 13 14  1  0
 14 15  1  0
 14 36  1  0
 14 37  1  0
 15 16  2  0
 15 21  1  0
 16 17  1  0
 16 38  1  0
 17 18  2  0
 17 39  1  0
 18 19  1  0
 18 20  1  0
 20 21  2  0
 20 40  1  0
 21 22  1  0
 23 24  2  0
 23 25  1  0
 25 41  1  0
M  END

