
     RDKit          3D

 33 33  0  0  0  0  0  0  0  0999 V2000
    2.0683   -1.4396   -0.6340 C   0  0  0  0  0  0  0  0  0  0  0  0
    2.2679   -0.1489   -0.1241 O   0  0  0  0  0  0  0  0  0  0  0  0
    2.8743    0.7809   -1.0187 C   0  0  1  0  0  0  0  0  0  0  0  0
    1.8552    1.3401   -2.0265 C   0  0  0  0  0  0  0  0  0  0  0  0
    0.7795    2.1711   -1.3179 C   0  0  0  0  0  0  0  0  0  0  0  0
    1.3755    3.3531   -0.5221 C   0  0  2  0  0  0  0  0  0  0  0  0
    1.9422    4.3709   -1.4574 N   0  0  0  0  0  0  0  0  0  0  0  0
    1.0445    4.7932   -2.5366 C   0  0  0  0  0  0  0  0  0  0  0  0
    2.9530    5.6061   -0.8684 S   0  0  1  0  0  0  0  0  0  0  0  0
    2.0096    6.4716    0.4078 C   0  0  0  0  0  0  0  0  0  0  0  0
    4.1149    5.0061   -0.2125 O   0  0  0  0  0  0  0  0  0  0  0  0
    3.1508    6.5567   -1.9646 O   0  0  0  0  0  0  0  0  0  0  0  0
    2.3789    2.7655    0.4914 C   0  0  0  0  0  0  0  0  0  0  0  0
    3.4646    1.9088   -0.1718 C   0  0  0  0  0  0  0  0  0  0  0  0
    1.6583   -2.0593    0.1777 H   0  0  0  0  0  0  0  0  0  0  0  0
    3.0174   -1.8986   -0.9787 H   0  0  0  0  0  0  0  0  0  0  0  0
    1.3533   -1.4680   -1.4802 H   0  0  0  0  0  0  0  0  0  0  0  0
    3.6908    0.2690   -1.5673 H   0  0  0  0  0  0  0  0  0  0  0  0
    1.3851    0.5198   -2.5934 H   0  0  0  0  0  0  0  0  0  0  0  0
    2.3954    1.9595   -2.7620 H   0  0  0  0  0  0  0  0  0  0  0  0
    0.2620    1.5302   -0.5866 H   0  0  0  0  0  0  0  0  0  0  0  0
    0.0098    2.5068   -2.0273 H   0  0  0  0  0  0  0  0  0  0  0  0
    0.5437    3.8277    0.0408 H   0  0  0  0  0  0  0  0  0  0  0  0
    0.9569    3.9973   -3.2898 H   0  0  0  0  0  0  0  0  0  0  0  0
    1.4666    5.6743   -3.0307 H   0  0  0  0  0  0  0  0  0  0  0  0
    0.0285    5.0362   -2.1664 H   0  0  0  0  0  0  0  0  0  0  0  0
    1.7619    5.7819    1.2249 H   0  0  0  0  0  0  0  0  0  0  0  0
    1.1048    6.8985   -0.0451 H   0  0  0  0  0  0  0  0  0  0  0  0
    2.6668    7.2723    0.7731 H   0  0  0  0  0  0  0  0  0  0  0  0
    1.7877    2.1318    1.1721 H   0  0  0  0  0  0  0  0  0  0  0  0
    2.8488    3.5441    1.1041 H   0  0  0  0  0  0  0  0  0  0  0  0
    4.1142    1.4682    0.6007 H   0  0  0  0  0  0  0  0  0  0  0  0
    4.0963    2.5502   -0.8033 H   0  0  0  0  0  0  0  0  0  0  0  0
  1  2  1  0
  1 15  1  0
  1 16  1  0
  1 17  1  0
  2  3  1  0
  3  4  1  0
  3 14  1  0
  3 18  1  6
  4  5  1  0
  4 19  1  0
  4 20  1  0
  5  6  1  0
  5 21  1  0
  5 22  1  0
  6  7  1  0
  6 13  1  0
  6 23  1  1
  7  8  1  0
  9  7  1  6
  8 24  1  0
  8 25  1  0
  8 26  1  0
  9 10  1  0
  9 11  2  0
  9 12  2  0
 10 27  1  0
 10 28  1  0
 10 29  1  0
 13 14  1  0
 13 30  1  0
 13 31  1  0
 14 32  1  0
 14 33  1  0
M  END

