
     RDKit          3D

 70 74  0  0  0  0  0  0  0  0999 V2000
   12.7418   12.6820   12.9087 C   0  0  0  0  0  0  0  0  0  0  0  0
   13.0902   12.8173   11.4495 C   0  0  0  0  0  0  0  0  0  0  0  0
   12.3394   12.2313   10.4202 C   0  0  0  0  0  0  0  0  0  0  0  0
   12.6487   12.3791    9.0605 C   0  0  0  0  0  0  0  0  0  0  0  0
   11.7774   11.7525    8.0290 C   0  0  0  0  0  0  0  0  0  0  0  0
   11.2605   12.5049    7.0481 N   0  0  0  0  0  0  0  0  0  0  0  0
   10.4504   11.9328    6.1476 C   0  0  0  0  0  0  0  0  0  0  0  0
   10.0718   10.6571    6.0943 N   0  0  0  0  0  0  0  0  0  0  0  0
   10.5768    9.8753    7.0605 C   0  0  0  0  0  0  0  0  0  0  0  0
   10.4143    8.4661    7.3107 C   0  0  0  0  0  0  0  0  0  0  0  0
    9.6011    7.4921    6.5323 C   0  0  0  0  0  0  0  0  0  0  0  0
    9.5463    6.2953    6.8179 O   0  0  0  0  0  0  0  0  0  0  0  0
    8.9258    8.0343    5.4809 N   0  0  0  0  0  0  0  0  0  0  0  0
    8.1088    7.2308    4.5956 C   0  0  2  0  0  0  0  0  0  0  0  0
    7.9241    6.2812    5.1222 H   0  0  0  0  0  0  0  0  0  0  0  0
    8.8133    6.9297    3.2589 C   0  0  0  0  0  0  0  0  0  0  0  0
    7.9027    6.1461    2.3061 C   0  0  0  0  0  0  0  0  0  0  0  0
    6.6214    6.8335    2.1267 N   0  0  0  0  0  0  0  0  0  0  0  0
    6.3079    7.3585    0.9020 C   0  0  0  0  0  0  0  0  0  0  0  0
    6.9852    7.1620   -0.0952 O   0  0  0  0  0  0  0  0  0  0  0  0
    5.0215    8.2119    0.8035 C   0  0  2  0  0  0  0  0  0  0  0  0
    4.1736    7.6043    1.1798 H   0  0  0  0  0  0  0  0  0  0  0  0
    4.7473    8.6239   -0.6324 C   0  0  0  0  0  0  0  0  0  0  0  0
    5.2022    9.3570    1.6485 O   0  0  0  0  0  0  0  0  0  0  0  0
    5.9132    7.0689    3.3785 C   0  0  0  0  0  0  0  0  0  0  0  0
    6.7573    7.9221    4.3398 C   0  0  2  0  0  0  0  0  0  0  0  0
    6.2112    7.9873    5.3034 H   0  0  0  0  0  0  0  0  0  0  0  0
    7.0063    9.2127    3.8299 O   0  0  0  0  0  0  0  0  0  0  0  0
   11.1864    8.1799    8.4346 C   0  0  0  0  0  0  0  0  0  0  0  0
   11.4091    6.8863    9.1444 C   0  0  0  0  0  0  0  0  0  0  0  0
   11.7929    9.3367    8.8746 N   0  0  0  0  0  0  0  0  0  0  0  0
   12.4316    9.3911    9.6584 H   0  0  0  0  0  0  0  0  0  0  0  0
   11.4451   10.3919    8.0587 C   0  0  0  0  0  0  0  0  0  0  0  0
   13.7905   13.1395    8.7005 C   0  0  0  0  0  0  0  0  0  0  0  0
   14.0951   13.2094    7.3913 O   0  0  0  0  0  0  0  0  0  0  0  0
   15.1518   14.0491    6.9422 C   0  0  0  0  0  0  0  0  0  0  0  0
   15.1863   14.0060    5.4401 C   0  0  1  0  0  0  0  0  0  0  0  0
   16.4861   14.2634    4.7183 C   0  0  0  0  0  0  0  0  0  0  0  0
   15.8905   12.8792    4.7307 C   0  0  0  0  0  0  0  0  0  0  0  0
   14.5594   13.7401    9.7094 C   0  0  0  0  0  0  0  0  0  0  0  0
   14.1940   13.5685   11.0417 C   0  0  0  0  0  0  0  0  0  0  0  0
   14.9515   14.1579   11.9836 F   0  0  0  0  0  0  0  0  0  0  0  0
   11.8555   12.0453   13.0444 H   0  0  0  0  0  0  0  0  0  0  0  0
   12.5277   13.6628   13.3647 H   0  0  0  0  0  0  0  0  0  0  0  0
   13.5723   12.2413   13.4843 H   0  0  0  0  0  0  0  0  0  0  0  0
   11.4476   11.6587   10.6910 H   0  0  0  0  0  0  0  0  0  0  0  0
   10.0516   12.5927    5.3683 H   0  0  0  0  0  0  0  0  0  0  0  0
    9.0184    9.0354    5.2881 H   0  0  0  0  0  0  0  0  0  0  0  0
    9.7330    6.3549    3.4516 H   0  0  0  0  0  0  0  0  0  0  0  0
    9.1024    7.8817    2.7864 H   0  0  0  0  0  0  0  0  0  0  0  0
    7.7021    5.1385    2.7156 H   0  0  0  0  0  0  0  0  0  0  0  0
    8.3579    6.0283    1.3158 H   0  0  0  0  0  0  0  0  0  0  0  0
    3.8312    9.2362   -0.6852 H   0  0  0  0  0  0  0  0  0  0  0  0
    4.6079    7.7394   -1.2696 H   0  0  0  0  0  0  0  0  0  0  0  0
    5.5951    9.1967   -1.0324 H   0  0  0  0  0  0  0  0  0  0  0  0
    4.4538    9.9568    1.5269 H   0  0  0  0  0  0  0  0  0  0  0  0
    5.7029    6.0961    3.8596 H   0  0  0  0  0  0  0  0  0  0  0  0
    4.9512    7.5597    3.1953 H   0  0  0  0  0  0  0  0  0  0  0  0
    6.3858    9.4061    3.1055 H   0  0  0  0  0  0  0  0  0  0  0  0
   10.8462    6.0975    8.6321 H   0  0  0  0  0  0  0  0  0  0  0  0
   11.0740    6.9503   10.1941 H   0  0  0  0  0  0  0  0  0  0  0  0
   12.4807    6.6223    9.1541 H   0  0  0  0  0  0  0  0  0  0  0  0
   16.1173   13.7030    7.3591 H   0  0  0  0  0  0  0  0  0  0  0  0
   14.9813   15.0813    7.3013 H   0  0  0  0  0  0  0  0  0  0  0  0
   14.2730   14.3867    4.9713 H   0  0  0  0  0  0  0  0  0  0  0  0
   17.3840   14.4430    5.3183 H   0  0  0  0  0  0  0  0  0  0  0  0
   16.4505   14.8422    3.7914 H   0  0  0  0  0  0  0  0  0  0  0  0
   16.3768   12.1151    5.3450 H   0  0  0  0  0  0  0  0  0  0  0  0
   15.4430   12.4932    3.8111 H   0  0  0  0  0  0  0  0  0  0  0  0
   15.4470   14.3319    9.4921 H   0  0  0  0  0  0  0  0  0  0  0  0
  1  2  1  0
  1 43  1  0
  1 44  1  0
  1 45  1  0
  2  3  2  0
  2 41  1  0
  3  4  1  0
  3 46  1  0
  4  5  1  0
  4 34  2  0
  5  6  2  0
  5 33  1  0
  6  7  1  0
  7  8  2  0
  7 47  1  0
  8  9  1  0
  9 10  1  0
  9 33  2  0
 10 11  1  0
 10 29  2  0
 11 12  2  0
 11 13  1  0
 13 14  1  0
 13 48  1  0
 14 15  1  1
 14 16  1  0
 14 26  1  0
 16 17  1  0
 16 49  1  0
 16 50  1  0
 17 18  1  0
 17 51  1  0
 17 52  1  0
 18 19  1  0
 18 25  1  0
 19 20  2  0
 19 21  1  0
 21 22  1  1
 21 23  1  0
 21 24  1  0
 23 53  1  0
 23 54  1  0
 23 55  1  0
 24 56  1  0
 25 26  1  0
 25 57  1  0
 25 58  1  0
 26 27  1  1
 26 28  1  0
 28 59  1  0
 29 30  1  0
 29 31  1  0
 30 60  1  0
 30 61  1  0
 30 62  1  0
 31 32  1  0
 31 33  1  0
 34 35  1  0
 34 40  1  0
 35 36  1  0
 36 37  1  0
 36 63  1  0
 36 64  1  0
 37 38  1  0
 37 39  1  0
 37 65  1  6
 38 39  1  0
 38 66  1  0
 38 67  1  0
 39 68  1  0
 39 69  1  0
 40 41  2  0
 40 70  1  0
 41 42  1  0
M  END

