
     RDKit          3D

 42 45  0  0  0  0  0  0  0  0999 V2000
    2.2223    0.9569    0.4988 C   0  0  0  0  0  0  0  0  0  0  0  0
    2.3831   -0.0193   -0.5090 O   0  0  0  0  0  0  0  0  0  0  0  0
    2.9600    0.3198   -1.6826 C   0  0  0  0  0  0  0  0  0  0  0  0
    3.4302    1.6078   -1.9945 C   0  0  0  0  0  0  0  0  0  0  0  0
    4.0104    1.8458   -3.2397 C   0  0  0  0  0  0  0  0  0  0  0  0
    4.1348    0.8232   -4.1909 C   0  0  0  0  0  0  0  0  0  0  0  0
    4.7655    1.1645   -5.4924 C   0  0  0  0  0  0  0  0  0  0  0  0
    5.1813    2.2494   -5.8040 O   0  0  0  0  0  0  0  0  0  0  0  0
    4.8184    0.0616   -6.3132 O   0  0  0  0  0  0  0  0  0  0  0  0
    5.3820    0.3249   -7.5595 N   0  0  0  0  0  0  0  0  0  0  0  0
    5.4534   -0.7462   -8.2682 C   0  0  0  0  0  0  0  0  0  0  0  0
    6.0377   -0.6956   -9.5813 C   0  0  0  0  0  0  0  0  0  0  0  0
    6.2420   -1.6739  -10.5781 C   0  0  0  0  0  0  0  0  0  0  0  0
    5.7995   -3.0787  -10.6011 C   0  0  0  0  0  0  0  0  0  0  0  0
    4.6145   -3.5100   -9.9746 C   0  0  0  0  0  0  0  0  0  0  0  0
    4.2343   -4.8535  -10.0158 C   0  0  0  0  0  0  0  0  0  0  0  0
    5.0221   -5.7882  -10.6934 C   0  0  0  0  0  0  0  0  0  0  0  0
    6.1891   -5.3667  -11.3408 C   0  0  0  0  0  0  0  0  0  0  0  0
    6.5728   -4.0269  -11.2994 C   0  0  0  0  0  0  0  0  0  0  0  0
    6.9751   -1.1631  -11.6199 N   0  0  0  0  0  0  0  0  0  0  0  0
    7.1992    0.0897  -11.2962 C   0  0  0  0  0  0  0  0  0  0  0  0
    8.0247    1.4425  -12.0269 S   0  0  0  0  0  0  0  0  0  0  0  0
    7.6059    2.4338  -10.6326 C   0  0  0  0  0  0  0  0  0  0  0  0
    6.8865    1.7634   -9.6982 C   0  0  0  0  0  0  0  0  0  0  0  0
    6.6602    0.4461  -10.0831 N   0  0  0  0  0  0  0  0  0  0  0  0
    3.6606   -0.4642   -3.8691 C   0  0  0  0  0  0  0  0  0  0  0  0
    3.0816   -0.7129   -2.6330 C   0  0  0  0  0  0  0  0  0  0  0  0
    1.7374    0.4531    1.3453 H   0  0  0  0  0  0  0  0  0  0  0  0
    1.5810    1.7909    0.1625 H   0  0  0  0  0  0  0  0  0  0  0  0
    3.1930    1.3644    0.8326 H   0  0  0  0  0  0  0  0  0  0  0  0
    3.3486    2.4249   -1.2779 H   0  0  0  0  0  0  0  0  0  0  0  0
    4.3800    2.8407   -3.4955 H   0  0  0  0  0  0  0  0  0  0  0  0
    5.0971   -1.7120   -7.8883 H   0  0  0  0  0  0  0  0  0  0  0  0
    3.9608   -2.7855   -9.4853 H   0  0  0  0  0  0  0  0  0  0  0  0
    3.3077   -5.1679   -9.5285 H   0  0  0  0  0  0  0  0  0  0  0  0
    4.7222   -6.8386  -10.7273 H   0  0  0  0  0  0  0  0  0  0  0  0
    6.8050   -6.0892  -11.8827 H   0  0  0  0  0  0  0  0  0  0  0  0
    7.4779   -3.6890  -11.8068 H   0  0  0  0  0  0  0  0  0  0  0  0
    7.9194    3.4746  -10.5889 H   0  0  0  0  0  0  0  0  0  0  0  0
    6.4948    2.1190   -8.7467 H   0  0  0  0  0  0  0  0  0  0  0  0
    3.7504   -1.2704   -4.5977 H   0  0  0  0  0  0  0  0  0  0  0  0
    2.7096   -1.7046   -2.3683 H   0  0  0  0  0  0  0  0  0  0  0  0
  1  2  1  0
  1 28  1  0
  1 29  1  0
  1 30  1  0
  2  3  1  0
  3  4  2  0
  3 27  1  0
  4  5  1  0
  4 31  1  0
  5  6  2  0
  5 32  1  0
  6  7  1  0
  6 26  1  0
  7  8  2  0
  7  9  1  0
  9 10  1  0
 10 11  2  0
 11 12  1  0
 11 33  1  0
 12 13  2  0
 12 25  1  0
 13 14  1  0
 13 20  1  0
 14 15  2  0
 14 19  1  0
 15 16  1  0
 15 34  1  0
 16 17  2  0
 16 35  1  0
 17 18  1  0
 17 36  1  0
 18 19  2  0
 18 37  1  0
 19 38  1  0
 20 21  2  0
 21 22  1  0
 21 25  1  0
 22 23  1  0
 23 24  2  0
 23 39  1  0
 24 25  1  0
 24 40  1  0
 26 27  2  0
 26 41  1  0
 27 42  1  0
M  END

