
     RDKit          3D

 60 61  0  0  0  0  0  0  0  0999 V2000
    0.8620    0.2539   -0.7750 C   0  0  0  0  0  0  0  0  0  0  0  0
    2.3849    0.3484   -0.6693 C   0  0  0  0  0  0  0  0  0  0  0  0
    2.8747    0.8812    0.6809 C   0  0  0  0  0  0  0  0  0  0  0  0
    4.3987    0.9791    0.7954 C   0  0  0  0  0  0  0  0  0  0  0  0
    4.8875    1.5133    2.1450 C   0  0  0  0  0  0  0  0  0  0  0  0
    6.4117    1.6109    2.2595 C   0  0  0  0  0  0  0  0  0  0  0  0
    6.8994    2.1480    3.6084 C   0  0  0  0  0  0  0  0  0  0  0  0
    8.4235    2.2453    3.7235 C   0  0  0  0  0  0  0  0  0  0  0  0
    8.9088    2.7865    5.0714 C   0  0  0  0  0  0  0  0  0  0  0  0
   10.4333    2.8828    5.1862 C   0  0  0  0  0  0  0  0  0  0  0  0
   10.9092    3.4272    6.5366 C   0  0  0  0  0  0  0  0  0  0  0  0
   12.4276    3.5118    6.6260 C   0  0  0  0  0  0  0  0  0  0  0  0
   12.8600    4.1088    7.8617 O   0  0  0  0  0  0  0  0  0  0  0  0
   12.9951    3.2875    8.9240 C   0  0  0  0  0  0  0  0  0  0  0  0
   12.8046    2.1033    8.9247 O   0  0  0  0  0  0  0  0  0  0  0  0
   13.4000    4.0825   10.0004 N   0  0  0  0  0  0  0  0  0  0  0  0
   13.6637    3.7038   11.2926 C   0  0  0  0  0  0  0  0  0  0  0  0
   13.5780    2.1944   11.9313 S   0  0  0  0  0  0  0  0  0  0  0  0
   14.0409    4.8366   12.0588 N   0  0  0  0  0  0  0  0  0  0  0  0
   14.0890    6.0805   11.4523 N   0  0  0  0  0  0  0  0  0  0  0  0
   14.4449    6.9634   12.2943 N   0  0  0  0  0  0  0  0  0  0  0  0
   14.6547    6.3575   13.5174 C   0  0  0  0  0  0  0  0  0  0  0  0
   15.0546    6.9294   14.7354 C   0  0  0  0  0  0  0  0  0  0  0  0
   15.1979    6.0953   15.8403 C   0  0  0  0  0  0  0  0  0  0  0  0
   15.6211    6.6352   17.1848 C   0  0  0  0  0  0  0  0  0  0  0  0
   14.9357    4.7047   15.6921 C   0  0  0  0  0  0  0  0  0  0  0  0
   14.5390    4.1195   14.4952 C   0  0  0  0  0  0  0  0  0  0  0  0
   14.3991    4.9761   13.3910 C   0  0  0  0  0  0  0  0  0  0  0  0
    0.5464   -0.1324   -1.7575 H   0  0  0  0  0  0  0  0  0  0  0  0
    0.3885    1.2407   -0.6380 H   0  0  0  0  0  0  0  0  0  0  0  0
    0.4475   -0.4184   -0.0048 H   0  0  0  0  0  0  0  0  0  0  0  0
    2.7711    0.9973   -1.4766 H   0  0  0  0  0  0  0  0  0  0  0  0
    2.8297   -0.6475   -0.8488 H   0  0  0  0  0  0  0  0  0  0  0  0
    2.4888    0.2325    1.4897 H   0  0  0  0  0  0  0  0  0  0  0  0
    2.4303    1.8781    0.8615 H   0  0  0  0  0  0  0  0  0  0  0  0
    4.7842    1.6269   -0.0141 H   0  0  0  0  0  0  0  0  0  0  0  0
    4.8425   -0.0180    0.6157 H   0  0  0  0  0  0  0  0  0  0  0  0
    4.5020    0.8659    2.9548 H   0  0  0  0  0  0  0  0  0  0  0  0
    4.4440    2.5105    2.3246 H   0  0  0  0  0  0  0  0  0  0  0  0
    6.7976    2.2569    1.4489 H   0  0  0  0  0  0  0  0  0  0  0  0
    6.8554    0.6134    2.0822 H   0  0  0  0  0  0  0  0  0  0  0  0
    6.5134    1.5026    4.4193 H   0  0  0  0  0  0  0  0  0  0  0  0
    6.4561    3.1458    3.7853 H   0  0  0  0  0  0  0  0  0  0  0  0
    8.8103    2.8889    2.9113 H   0  0  0  0  0  0  0  0  0  0  0  0
    8.8670    1.2471    3.5502 H   0  0  0  0  0  0  0  0  0  0  0  0
    8.5237    2.1436    5.8843 H   0  0  0  0  0  0  0  0  0  0  0  0
    8.4670    3.7853    5.2449 H   0  0  0  0  0  0  0  0  0  0  0  0
   10.8197    3.5244    4.3723 H   0  0  0  0  0  0  0  0  0  0  0  0
   10.8745    1.8832    5.0173 H   0  0  0  0  0  0  0  0  0  0  0  0
   10.5419    2.7791    7.3500 H   0  0  0  0  0  0  0  0  0  0  0  0
   10.4864    4.4324    6.7094 H   0  0  0  0  0  0  0  0  0  0  0  0
   12.8359    4.1670    5.8424 H   0  0  0  0  0  0  0  0  0  0  0  0
   12.8830    2.5144    6.5324 H   0  0  0  0  0  0  0  0  0  0  0  0
   13.5142    5.0797    9.8062 H   0  0  0  0  0  0  0  0  0  0  0  0
   15.2440    8.0030   14.7949 H   0  0  0  0  0  0  0  0  0  0  0  0
   15.8169    7.7164   17.1427 H   0  0  0  0  0  0  0  0  0  0  0  0
   16.5378    6.1386   17.5440 H   0  0  0  0  0  0  0  0  0  0  0  0
   14.8425    6.4624   17.9467 H   0  0  0  0  0  0  0  0  0  0  0  0
   15.0526    4.0598   16.5680 H   0  0  0  0  0  0  0  0  0  0  0  0
   14.3453    3.0531   14.4099 H   0  0  0  0  0  0  0  0  0  0  0  0
  1  2  1  0
  1 29  1  0
  1 30  1  0
  1 31  1  0
  2  3  1  0
  2 32  1  0
  2 33  1  0
  3  4  1  0
  3 34  1  0
  3 35  1  0
  4  5  1  0
  4 36  1  0
  4 37  1  0
  5  6  1  0
  5 38  1  0
  5 39  1  0
  6  7  1  0
  6 40  1  0
  6 41  1  0
  7  8  1  0
  7 42  1  0
  7 43  1  0
  8  9  1  0
  8 44  1  0
  8 45  1  0
  9 10  1  0
  9 46  1  0
  9 47  1  0
 10 11  1  0
 10 48  1  0
 10 49  1  0
 11 12  1  0
 11 50  1  0
 11 51  1  0
 12 13  1  0
 12 52  1  0
 12 53  1  0
 13 14  1  0
 14 15  2  0
 14 16  1  0
 16 17  1  0
 16 54  1  0
 17 18  2  0
 17 19  1  0
 19 20  1  0
 19 28  1  0
 20 21  2  0
 21 22  1  0
 22 23  1  0
 22 28  2  0
 23 24  2  0
 23 55  1  0
 24 25  1  0
 24 26  1  0
 25 56  1  0
 25 57  1  0
 25 58  1  0
 26 27  2  0
 26 59  1  0
 27 28  1  0
 27 60  1  0
M  END

