
     RDKit          3D

 76 77  0  0  0  0  0  0  0  0999 V2000
    8.2835   -3.3249  -17.1706 C   0  0  0  0  0  0  0  0  0  0  0  0
    9.4883   -3.6351  -16.6835 C   0  0  0  0  0  0  0  0  0  0  0  0
    9.8701   -3.6449  -15.2295 C   0  0  0  0  0  0  0  0  0  0  0  0
   11.0105   -2.6703  -14.8907 C   0  0  0  0  0  0  0  0  0  0  0  0
   11.4317   -2.7103  -13.4193 C   0  0  0  0  0  0  0  0  0  0  0  0
   12.5644   -1.7381  -13.0760 C   0  0  0  0  0  0  0  0  0  0  0  0
   12.9795   -1.7819  -11.6033 C   0  0  0  0  0  0  0  0  0  0  0  0
   14.1045   -0.8129  -11.2734 C   0  0  0  0  0  0  0  0  0  0  0  0
   14.4053   -0.9357   -9.8943 O   0  0  0  0  0  0  0  0  0  0  0  0
   15.3792   -0.1663   -9.3432 C   0  0  0  0  0  0  0  0  0  0  0  0
   16.1486    0.7725  -10.0471 C   0  0  0  0  0  0  0  0  0  0  0  0
   17.1320    1.5209   -9.3888 C   0  0  0  0  0  0  0  0  0  0  0  0
   17.3465    1.3350   -8.0232 C   0  0  0  0  0  0  0  0  0  0  0  0
   18.3412    1.9836   -7.3025 O   0  0  0  0  0  0  0  0  0  0  0  0
   18.6225    3.3088   -7.4651 C   0  0  0  0  0  0  0  0  0  0  0  0
   18.0544    4.0234   -8.2550 O   0  0  0  0  0  0  0  0  0  0  0  0
   19.7092    3.7497   -6.5529 C   0  0  0  0  0  0  0  0  0  0  0  0
   20.0990    5.0958   -6.5954 C   0  0  0  0  0  0  0  0  0  0  0  0
   21.1100    5.5822   -5.7677 C   0  0  0  0  0  0  0  0  0  0  0  0
   21.7546    4.7094   -4.8722 C   0  0  0  0  0  0  0  0  0  0  0  0
   22.7431    5.0744   -4.0281 O   0  0  0  0  0  0  0  0  0  0  0  0
   23.2011    6.4195   -3.9996 C   0  0  0  0  0  0  0  0  0  0  0  0
   24.3028    6.5248   -2.9572 C   0  0  0  0  0  0  0  0  0  0  0  0
   24.8781    7.9385   -2.8384 C   0  0  0  0  0  0  0  0  0  0  0  0
   25.9848    8.0602   -1.7855 C   0  0  0  0  0  0  0  0  0  0  0  0
   26.5614    9.4754   -1.6735 C   0  0  0  0  0  0  0  0  0  0  0  0
   27.6094    9.6871   -0.5632 C   0  0  1  0  0  0  0  0  0  0  0  0
   28.8708    8.8418   -0.7894 C   0  0  0  0  0  0  0  0  0  0  0  0
   27.9363   11.1877   -0.4230 C   0  0  0  0  0  0  0  0  0  0  0  0
   28.8110   11.5625    0.7754 C   0  0  0  0  0  0  0  0  0  0  0  0
   21.3688    3.3548   -4.8253 C   0  0  0  0  0  0  0  0  0  0  0  0
   20.3605    2.8828   -5.6533 C   0  0  0  0  0  0  0  0  0  0  0  0
   16.5837    0.3987   -7.3145 C   0  0  0  0  0  0  0  0  0  0  0  0
   15.6095   -0.3474   -7.9679 C   0  0  0  0  0  0  0  0  0  0  0  0
    8.0791   -3.3348  -18.2450 H   0  0  0  0  0  0  0  0  0  0  0  0
    7.4518   -3.0523  -16.5116 H   0  0  0  0  0  0  0  0  0  0  0  0
   10.2895   -3.8994  -17.3877 H   0  0  0  0  0  0  0  0  0  0  0  0
   10.1879   -4.6670  -14.9466 H   0  0  0  0  0  0  0  0  0  0  0  0
    8.9855   -3.4135  -14.6108 H   0  0  0  0  0  0  0  0  0  0  0  0
   10.6995   -1.6449  -15.1601 H   0  0  0  0  0  0  0  0  0  0  0  0
   11.8852   -2.8966  -15.5284 H   0  0  0  0  0  0  0  0  0  0  0  0
   11.7410   -3.7384  -13.1547 H   0  0  0  0  0  0  0  0  0  0  0  0
   10.5561   -2.4882  -12.7817 H   0  0  0  0  0  0  0  0  0  0  0  0
   12.2537   -0.7107  -13.3419 H   0  0  0  0  0  0  0  0  0  0  0  0
   13.4401   -1.9613  -13.7135 H   0  0  0  0  0  0  0  0  0  0  0  0
   13.3038   -2.8006  -11.3289 H   0  0  0  0  0  0  0  0  0  0  0  0
   12.1160   -1.5475  -10.9571 H   0  0  0  0  0  0  0  0  0  0  0  0
   13.8027    0.2265  -11.5074 H   0  0  0  0  0  0  0  0  0  0  0  0
   15.0019   -1.0385  -11.8819 H   0  0  0  0  0  0  0  0  0  0  0  0
   15.9950    0.9366  -11.1136 H   0  0  0  0  0  0  0  0  0  0  0  0
   17.7166    2.2533   -9.9426 H   0  0  0  0  0  0  0  0  0  0  0  0
   19.5904    5.7618   -7.2954 H   0  0  0  0  0  0  0  0  0  0  0  0
   21.3888    6.6341   -5.8251 H   0  0  0  0  0  0  0  0  0  0  0  0
   22.3634    7.0986   -3.7517 H   0  0  0  0  0  0  0  0  0  0  0  0
   23.5791    6.7110   -4.9980 H   0  0  0  0  0  0  0  0  0  0  0  0
   25.1013    5.8089   -3.2181 H   0  0  0  0  0  0  0  0  0  0  0  0
   23.8971    6.1957   -1.9849 H   0  0  0  0  0  0  0  0  0  0  0  0
   24.0657    8.6487   -2.5962 H   0  0  0  0  0  0  0  0  0  0  0  0
   25.2742    8.2596   -3.8198 H   0  0  0  0  0  0  0  0  0  0  0  0
   26.7851    7.3395   -2.0271 H   0  0  0  0  0  0  0  0  0  0  0  0
   25.5854    7.7492   -0.8022 H   0  0  0  0  0  0  0  0  0  0  0  0
   25.7269   10.1798   -1.5030 H   0  0  0  0  0  0  0  0  0  0  0  0
   27.0042    9.7678   -2.6449 H   0  0  0  0  0  0  0  0  0  0  0  0
   27.1498    9.3606    0.3909 H   0  0  0  0  0  0  0  0  0  0  0  0
   29.3667    9.1232   -1.7351 H   0  0  0  0  0  0  0  0  0  0  0  0
   28.6413    7.7665   -0.8407 H   0  0  0  0  0  0  0  0  0  0  0  0
   29.6023    8.9749    0.0221 H   0  0  0  0  0  0  0  0  0  0  0  0
   26.9847   11.7441   -0.3542 H   0  0  0  0  0  0  0  0  0  0  0  0
   28.4183   11.5358   -1.3561 H   0  0  0  0  0  0  0  0  0  0  0  0
   28.3595   11.2215    1.7226 H   0  0  0  0  0  0  0  0  0  0  0  0
   28.9377   12.6548    0.8446 H   0  0  0  0  0  0  0  0  0  0  0  0
   29.8187   11.1224    0.7122 H   0  0  0  0  0  0  0  0  0  0  0  0
   21.8836    2.6961   -4.1233 H   0  0  0  0  0  0  0  0  0  0  0  0
   20.0667    1.8335   -5.6121 H   0  0  0  0  0  0  0  0  0  0  0  0
   16.7689    0.2647   -6.2468 H   0  0  0  0  0  0  0  0  0  0  0  0
   15.0059   -1.0819   -7.4314 H   0  0  0  0  0  0  0  0  0  0  0  0
  1  2  2  0
  1 35  1  0
  1 36  1  0
  2  3  1  0
  2 37  1  0
  3  4  1  0
  3 38  1  0
  3 39  1  0
  4  5  1  0
  4 40  1  0
  4 41  1  0
  5  6  1  0
  5 42  1  0
  5 43  1  0
  6  7  1  0
  6 44  1  0
  6 45  1  0
  7  8  1  0
  7 46  1  0
  7 47  1  0
  8  9  1  0
  8 48  1  0
  8 49  1  0
  9 10  1  0
 10 11  2  0
 10 34  1  0
 11 12  1  0
 11 50  1  0
 12 13  2  0
 12 51  1  0
 13 14  1  0
 13 33  1  0
 14 15  1  0
 15 16  2  0
 15 17  1  0
 17 18  2  0
 17 32  1  0
 18 19  1  0
 18 52  1  0
 19 20  2  0
 19 53  1  0
 20 21  1  0
 20 31  1  0
 21 22  1  0
 22 23  1  0
 22 54  1  0
 22 55  1  0
 23 24  1  0
 23 56  1  0
 23 57  1  0
 24 25  1  0
 24 58  1  0
 24 59  1  0
 25 26  1  0
 25 60  1  0
 25 61  1  0
 26 27  1  0
 26 62  1  0
 26 63  1  0
 27 28  1  0
 27 29  1  0
 27 64  1  1
 28 65  1  0
 28 66  1  0
 28 67  1  0
 29 30  1  0
 29 68  1  0
 29 69  1  0
 30 70  1  0
 30 71  1  0
 30 72  1  0
 31 32  2  0
 31 73  1  0
 32 74  1  0
 33 34  2  0
 33 75  1  0
 34 76  1  0
M  END

