
     RDKit          3D

 23 23  0  0  0  0  0  0  0  0999 V2000
    1.5977    1.2251    0.5833 C   0  0  0  0  0  0  0  0  0  0  0  0
    2.4319    0.0452    0.1069 C   0  0  1  0  0  0  0  0  0  0  0  0
    4.0354    0.7216   -0.8897 Br  0  0  0  0  0  0  0  0  0  0  0  0
    2.8893   -0.9023    1.1879 C   0  0  0  0  0  0  0  0  0  0  0  0
    3.4989   -0.4322    2.3624 C   0  0  0  0  0  0  0  0  0  0  0  0
    3.8913   -1.3415    3.3371 C   0  0  0  0  0  0  0  0  0  0  0  0
    4.5305   -0.8301    4.5745 N   0  0  0  0  0  0  0  0  0  0  0  0
    4.6664    0.3769    4.6781 O   0  0  0  0  0  0  0  0  0  0  0  0
    4.8759   -1.6517    5.4057 O   0  0  0  0  0  0  0  0  0  0  0  0
    3.7065   -2.7180    3.2004 C   0  0  0  0  0  0  0  0  0  0  0  0
    3.1034   -3.1815    2.0337 C   0  0  0  0  0  0  0  0  0  0  0  0
    2.8709   -4.6596    1.8174 C   0  0  1  0  0  0  0  0  0  0  0  0
    3.2874   -5.3931    2.8581 F   0  0  0  0  0  0  0  0  0  0  0  0
    1.5644   -4.9209    1.6299 F   0  0  0  0  0  0  0  0  0  0  0  0
    3.5177   -5.0975    0.7232 F   0  0  0  0  0  0  0  0  0  0  0  0
    2.7000   -2.2814    1.0368 C   0  0  0  0  0  0  0  0  0  0  0  0
    1.2872    1.8477   -0.2675 H   0  0  0  0  0  0  0  0  0  0  0  0
    2.1513    1.8633    1.2872 H   0  0  0  0  0  0  0  0  0  0  0  0
    0.6928    0.8525    1.0926 H   0  0  0  0  0  0  0  0  0  0  0  0
    1.8898   -0.5183   -0.6621 H   0  0  0  0  0  0  0  0  0  0  0  0
    3.6864    0.6279    2.5298 H   0  0  0  0  0  0  0  0  0  0  0  0
    4.0305   -3.3914    3.9920 H   0  0  0  0  0  0  0  0  0  0  0  0
    2.2311   -2.6649    0.1273 H   0  0  0  0  0  0  0  0  0  0  0  0
  1  2  1  0
  1 17  1  0
  1 18  1  0
  1 19  1  0
  2  3  1  0
  2  4  1  0
  2 20  1  6
  4  5  2  0
  4 16  1  0
  5  6  1  0
  5 21  1  0
  6  7  1  0
  6 10  2  0
  7  8  2  0
  7  9  1  0
 10 11  1  0
 10 22  1  0
 11 12  1  0
 11 16  2  0
 12 13  1  1
 12 14  1  0
 12 15  1  0
 16 23  1  0
M  CHG  2   7   1   9  -1
M  END

