
     RDKit          3D

 37 38  0  0  0  0  0  0  0  0999 V2000
    2.4857   -0.4921    1.6392 C   0  0  0  0  0  0  0  0  0  0  0  0
    2.1445   -0.0632    0.2058 C   0  0  1  0  0  0  0  0  0  0  0  0
    0.6369    0.1739    0.0414 C   0  0  0  0  0  0  0  0  0  0  0  0
    2.9179    1.1900   -0.2409 C   0  0  0  0  0  0  0  0  0  0  0  0
    4.4599    1.0584   -0.2865 C   0  0  1  0  0  0  0  0  0  0  0  0
    4.9123    0.0372   -1.2169 N   0  0  0  0  0  0  0  0  0  0  0  0
    5.5086   -1.1220   -0.8172 C   0  0  0  0  0  0  0  0  0  0  0  0
    5.5245   -1.5013    0.3454 O   0  0  0  0  0  0  0  0  0  0  0  0
    6.1363   -1.9488   -1.9162 C   0  0  0  0  0  0  0  0  0  0  0  0
    6.5756   -1.3981   -3.1290 C   0  0  0  0  0  0  0  0  0  0  0  0
    7.1643   -2.2365   -4.0720 C   0  0  0  0  0  0  0  0  0  0  0  0
    7.5934   -1.7129   -5.2273 F   0  0  0  0  0  0  0  0  0  0  0  0
    7.3312   -3.6022   -3.8537 C   0  0  0  0  0  0  0  0  0  0  0  0
    6.8957   -4.1274   -2.6334 C   0  0  0  0  0  0  0  0  0  0  0  0
    7.1154   -5.9897   -2.2983 Br  0  0  0  0  0  0  0  0  0  0  0  0
    6.3099   -3.3170   -1.6610 C   0  0  0  0  0  0  0  0  0  0  0  0
    5.0914    2.3738   -0.6991 C   0  0  0  0  0  0  0  0  0  0  0  0
    5.4496    2.6379   -1.9236 N   0  0  0  0  0  0  0  0  0  0  0  0
    5.9471    3.9110   -2.0439 C   0  0  0  0  0  0  0  0  0  0  0  0
    5.9699    4.6467   -0.8901 C   0  0  0  0  0  0  0  0  0  0  0  0
    5.3440    3.6986    0.4174 S   0  0  0  0  0  0  0  0  0  0  0  0
    1.8676   -1.3523    1.9431 H   0  0  0  0  0  0  0  0  0  0  0  0
    2.2870    0.3250    2.3555 H   0  0  0  0  0  0  0  0  0  0  0  0
    3.5380   -0.7982    1.7330 H   0  0  0  0  0  0  0  0  0  0  0  0
    2.4297   -0.8879   -0.4721 H   0  0  0  0  0  0  0  0  0  0  0  0
    0.2899    0.9917    0.6967 H   0  0  0  0  0  0  0  0  0  0  0  0
    0.0627   -0.7283    0.3065 H   0  0  0  0  0  0  0  0  0  0  0  0
    0.3770    0.4451   -0.9950 H   0  0  0  0  0  0  0  0  0  0  0  0
    2.6695    2.0299    0.4327 H   0  0  0  0  0  0  0  0  0  0  0  0
    2.5790    1.4939   -1.2470 H   0  0  0  0  0  0  0  0  0  0  0  0
    4.8295    0.7671    0.7073 H   0  0  0  0  0  0  0  0  0  0  0  0
    4.9855    0.3379   -2.1828 H   0  0  0  0  0  0  0  0  0  0  0  0
    6.5070   -0.3315   -3.3515 H   0  0  0  0  0  0  0  0  0  0  0  0
    7.7959   -4.2235   -4.6196 H   0  0  0  0  0  0  0  0  0  0  0  0
    5.9865   -3.7171   -0.7003 H   0  0  0  0  0  0  0  0  0  0  0  0
    6.2917    4.2676   -3.0161 H   0  0  0  0  0  0  0  0  0  0  0  0
    6.3202    5.6661   -0.7388 H   0  0  0  0  0  0  0  0  0  0  0  0
  1  2  1  0
  1 22  1  0
  1 23  1  0
  1 24  1  0
  2  3  1  0
  2  4  1  0
  2 25  1  6
  3 26  1  0
  3 27  1  0
  3 28  1  0
  4  5  1  0
  4 29  1  0
  4 30  1  0
  5  6  1  0
  5 17  1  0
  5 31  1  1
  6  7  1  0
  6 32  1  0
  7  8  2  0
  7  9  1  0
  9 10  2  0
  9 16  1  0
 10 11  1  0
 10 33  1  0
 11 12  1  0
 11 13  2  0
 13 14  1  0
 13 34  1  0
 14 15  1  0
 14 16  2  0
 16 35  1  0
 17 18  2  0
 17 21  1  0
 18 19  1  0
 19 20  2  0
 19 36  1  0
 20 21  1  0
 20 37  1  0
M  END

