
     RDKit          3D

 44 46  0  0  0  0  0  0  0  0999 V2000
    1.7521   -0.2129    1.3441 C   0  0  0  0  0  0  0  0  0  0  0  0
    3.1517   -0.1540    0.7845 C   0  0  0  0  0  0  0  0  0  0  0  0
    4.0285    0.8898    1.1043 C   0  0  0  0  0  0  0  0  0  0  0  0
    5.3186    0.9131    0.5766 C   0  0  0  0  0  0  0  0  0  0  0  0
    5.7878   -0.1016   -0.2763 C   0  0  0  0  0  0  0  0  0  0  0  0
    7.1815    0.0008   -0.7866 C   0  0  0  0  0  0  0  0  0  0  0  0
    7.7365    1.2662   -1.2021 C   0  0  0  0  0  0  0  0  0  0  0  0
    9.0239    1.3294   -1.6279 C   0  0  0  0  0  0  0  0  0  0  0  0
    9.8662    0.1400   -1.6773 C   0  0  0  0  0  0  0  0  0  0  0  0
   11.0267    0.1060   -2.0453 O   0  0  0  0  0  0  0  0  0  0  0  0
    9.1832   -1.0316   -1.2572 N   0  0  0  0  0  0  0  0  0  0  0  0
    9.8983   -2.3075   -1.2951 C   0  0  0  0  0  0  0  0  0  0  0  0
   10.2185   -2.9667    0.0625 C   0  0  0  0  0  0  0  0  0  0  0  0
   11.2643   -3.5711    0.2029 O   0  0  0  0  0  0  0  0  0  0  0  0
    9.2281   -2.8612    1.0018 N   0  0  0  0  0  0  0  0  0  0  0  0
    9.2023   -3.3687    2.3130 C   0  0  0  0  0  0  0  0  0  0  0  0
   10.2552   -4.1116    2.8773 C   0  0  0  0  0  0  0  0  0  0  0  0
   10.1531   -4.5804    4.1889 C   0  0  0  0  0  0  0  0  0  0  0  0
    9.0093   -4.3171    4.9453 C   0  0  0  0  0  0  0  0  0  0  0  0
    8.8804   -4.9646    6.7362 Br  0  0  0  0  0  0  0  0  0  0  0  0
    7.9558   -3.5807    4.3968 C   0  0  0  0  0  0  0  0  0  0  0  0
    8.0567   -3.1109    3.0887 C   0  0  0  0  0  0  0  0  0  0  0  0
    7.9149   -1.0855   -0.8322 N   0  0  0  0  0  0  0  0  0  0  0  0
    4.9120   -1.1656   -0.6192 C   0  0  0  0  0  0  0  0  0  0  0  0
    5.3012   -2.2877   -1.5534 C   0  0  0  0  0  0  0  0  0  0  0  0
    3.6190   -1.1567   -0.0790 C   0  0  0  0  0  0  0  0  0  0  0  0
    1.4974    0.7031    1.8969 H   0  0  0  0  0  0  0  0  0  0  0  0
    1.6364   -1.0646    2.0360 H   0  0  0  0  0  0  0  0  0  0  0  0
    1.0056   -0.3466    0.5443 H   0  0  0  0  0  0  0  0  0  0  0  0
    3.7033    1.6914    1.7728 H   0  0  0  0  0  0  0  0  0  0  0  0
    5.9875    1.7315    0.8546 H   0  0  0  0  0  0  0  0  0  0  0  0
    7.1060    2.1574   -1.1886 H   0  0  0  0  0  0  0  0  0  0  0  0
    9.4886    2.2584   -1.9632 H   0  0  0  0  0  0  0  0  0  0  0  0
   10.8577   -2.1254   -1.7894 H   0  0  0  0  0  0  0  0  0  0  0  0
    9.3110   -3.0216   -1.8957 H   0  0  0  0  0  0  0  0  0  0  0  0
    8.3956   -2.3574    0.6961 H   0  0  0  0  0  0  0  0  0  0  0  0
   11.1427   -4.3162    2.2829 H   0  0  0  0  0  0  0  0  0  0  0  0
   10.9738   -5.1560    4.6206 H   0  0  0  0  0  0  0  0  0  0  0  0
    7.0614   -3.3733    4.9865 H   0  0  0  0  0  0  0  0  0  0  0  0
    7.2319   -2.5324    2.6626 H   0  0  0  0  0  0  0  0  0  0  0  0
    5.8661   -1.9227   -2.4242 H   0  0  0  0  0  0  0  0  0  0  0  0
    4.4055   -2.8110   -1.9188 H   0  0  0  0  0  0  0  0  0  0  0  0
    5.9445   -3.0284   -1.0533 H   0  0  0  0  0  0  0  0  0  0  0  0
    2.9397   -1.9696   -0.3542 H   0  0  0  0  0  0  0  0  0  0  0  0
  1  2  1  0
  1 27  1  0
  1 28  1  0
  1 29  1  0
  2  3  2  0
  2 26  1  0
  3  4  1  0
  3 30  1  0
  4  5  2  0
  4 31  1  0
  5  6  1  0
  5 24  1  0
  6  7  1  0
  6 23  2  0
  7  8  2  0
  7 32  1  0
  8  9  1  0
  8 33  1  0
  9 10  2  0
  9 11  1  0
 11 12  1  0
 11 23  1  0
 12 13  1  0
 12 34  1  0
 12 35  1  0
 13 14  2  0
 13 15  1  0
 15 16  1  0
 15 36  1  0
 16 17  2  0
 16 22  1  0
 17 18  1  0
 17 37  1  0
 18 19  2  0
 18 38  1  0
 19 20  1  0
 19 21  1  0
 21 22  2  0
 21 39  1  0
 22 40  1  0
 24 25  1  0
 24 26  2  0
 25 41  1  0
 25 42  1  0
 25 43  1  0
 26 44  1  0
M  END

