
     RDKit          3D

 45 48  0  0  0  0  0  0  0  0999 V2000
    1.1759    0.5521   -0.2682 O   0  0  0  0  0  0  0  0  0  0  0  0
    2.2690    0.0492   -0.1749 C   0  0  0  0  0  0  0  0  0  0  0  0
    2.9344   -0.0766    0.9922 O   0  0  0  0  0  0  0  0  0  0  0  0
    2.2738    0.3594    2.1969 C   0  0  0  0  0  0  0  0  0  0  0  0
    2.5570   -0.6310    3.2929 C   0  0  0  0  0  0  0  0  0  0  0  0
    1.9550   -1.8967    3.2417 C   0  0  0  0  0  0  0  0  0  0  0  0
    1.1365   -2.1565    2.2070 F   0  0  0  0  0  0  0  0  0  0  0  0
    2.1580   -2.8853    4.1963 C   0  0  0  0  0  0  0  0  0  0  0  0
    3.0084   -2.6044    5.2685 C   0  0  0  0  0  0  0  0  0  0  0  0
    3.6352   -1.3618    5.3696 C   0  0  0  0  0  0  0  0  0  0  0  0
    3.4104   -0.3931    4.3849 C   0  0  0  0  0  0  0  0  0  0  0  0
    4.2249    1.1484    4.5514 Cl  0  0  0  0  0  0  0  0  0  0  0  0
    3.0934   -0.4851   -1.3456 C   0  0  1  0  0  0  0  0  0  0  0  0
    3.7324   -1.8609   -1.0628 C   0  0  0  0  0  0  0  0  0  0  0  0
    2.6895   -2.9804   -1.0631 C   0  0  0  0  0  0  0  0  0  0  0  0
    1.9075   -2.9528   -2.2969 N   0  0  0  0  0  0  0  0  0  0  0  0
    1.6240   -4.1162   -2.9271 C   0  0  0  0  0  0  0  0  0  0  0  0
    2.0511   -5.3107   -2.6222 N   0  0  0  0  0  0  0  0  0  0  0  0
    1.5000   -6.1301   -3.5984 C   0  0  0  0  0  0  0  0  0  0  0  0
    1.5884   -7.5088   -3.8194 C   0  0  0  0  0  0  0  0  0  0  0  0
    0.8942   -8.0396   -4.9142 C   0  0  0  0  0  0  0  0  0  0  0  0
    0.1304   -7.2286   -5.7704 C   0  0  0  0  0  0  0  0  0  0  0  0
    0.0315   -5.8434   -5.5618 C   0  0  0  0  0  0  0  0  0  0  0  0
    0.7275   -5.3443   -4.4742 C   0  0  0  0  0  0  0  0  0  0  0  0
    0.8124   -4.0423   -4.0301 O   0  0  0  0  0  0  0  0  0  0  0  0
    1.2484   -1.6896   -2.6225 C   0  0  0  0  0  0  0  0  0  0  0  0
    2.2595   -0.5375   -2.6361 C   0  0  0  0  0  0  0  0  0  0  0  0
    1.1968    0.4350    1.9941 H   0  0  0  0  0  0  0  0  0  0  0  0
    2.6572    1.3528    2.4619 H   0  0  0  0  0  0  0  0  0  0  0  0
    1.6534   -3.8466    4.0886 H   0  0  0  0  0  0  0  0  0  0  0  0
    3.1853   -3.3627    6.0346 H   0  0  0  0  0  0  0  0  0  0  0  0
    4.3016   -1.1344    6.2022 H   0  0  0  0  0  0  0  0  0  0  0  0
    3.9081    0.2512   -1.4695 H   0  0  0  0  0  0  0  0  0  0  0  0
    4.2618   -1.8462   -0.0997 H   0  0  0  0  0  0  0  0  0  0  0  0
    4.4780   -2.0651   -1.8488 H   0  0  0  0  0  0  0  0  0  0  0  0
    2.0140   -2.8709   -0.1919 H   0  0  0  0  0  0  0  0  0  0  0  0
    3.1630   -3.9671   -0.9877 H   0  0  0  0  0  0  0  0  0  0  0  0
    2.1810   -8.1410   -3.1554 H   0  0  0  0  0  0  0  0  0  0  0  0
    0.9470   -9.1139   -5.1091 H   0  0  0  0  0  0  0  0  0  0  0  0
   -0.3967   -7.6810   -6.6137 H   0  0  0  0  0  0  0  0  0  0  0  0
   -0.5571   -5.1979   -6.2161 H   0  0  0  0  0  0  0  0  0  0  0  0
    0.4594   -1.4772   -1.8768 H   0  0  0  0  0  0  0  0  0  0  0  0
    0.7616   -1.7849   -3.6000 H   0  0  0  0  0  0  0  0  0  0  0  0
    1.7207    0.4104   -2.7793 H   0  0  0  0  0  0  0  0  0  0  0  0
    2.9451   -0.6692   -3.4893 H   0  0  0  0  0  0  0  0  0  0  0  0
  1  2  2  0
  2  3  1  0
  2 13  1  0
  3  4  1  0
  4  5  1  0
  4 28  1  0
  4 29  1  0
  5  6  2  0
  5 11  1  0
  6  7  1  0
  6  8  1  0
  8  9  2  0
  8 30  1  0
  9 10  1  0
  9 31  1  0
 10 11  2  0
 10 32  1  0
 11 12  1  0
 13 14  1  0
 13 27  1  0
 13 33  1  6
 14 15  1  0
 14 34  1  0
 14 35  1  0
 15 16  1  0
 15 36  1  0
 15 37  1  0
 16 17  1  0
 16 26  1  0
 17 18  2  0
 17 25  1  0
 18 19  1  0
 19 20  2  0
 19 24  1  0
 20 21  1  0
 20 38  1  0
 21 22  2  0
 21 39  1  0
 22 23  1  0
 22 40  1  0
 23 24  2  0
 23 41  1  0
 24 25  1  0
 26 27  1  0
 26 42  1  0
 26 43  1  0
 27 44  1  0
 27 45  1  0
M  END

