
     RDKit          3D

 50 51  0  0  0  0  0  0  0  0999 V2000
    7.0531    0.1710   -1.6978 C   0  0  0  0  0  0  0  0  0  0  0  0
    6.3287   -1.1541   -1.5205 C   0  0  2  0  0  0  0  0  0  0  0  0
    7.0785   -1.9583   -1.3767 H   0  0  0  0  0  0  0  0  0  0  0  0
    5.4758   -1.5272   -2.7362 C   0  0  0  0  0  0  0  0  0  0  0  0
    4.6978   -2.7378   -2.4780 N   0  0  0  0  0  0  0  0  0  0  0  0
    3.9252   -3.1870   -3.6408 C   0  0  0  0  0  0  0  0  0  0  0  0
    4.7633   -3.9097   -4.7088 C   0  0  0  0  0  0  0  0  0  0  0  0
    5.2888   -5.2781   -4.2835 C   0  0  0  0  0  0  0  0  0  0  0  0
    5.2428   -6.2671   -4.9893 O   0  0  0  0  0  0  0  0  0  0  0  0
    5.8733   -5.2796   -3.0337 N   0  0  0  0  0  0  0  0  0  0  0  0
    6.1716   -6.4840   -2.4353 N   0  0  0  0  0  0  0  0  0  0  0  0
    5.1933   -7.2156   -1.7991 C   0  0  0  0  0  0  0  0  0  0  0  0
    3.6898   -6.6092   -1.3744 S   0  0  0  0  0  0  0  0  0  0  0  0
    5.5523   -8.4904   -1.4808 N   0  0  0  0  0  0  0  0  0  0  0  0
    6.8724   -9.0851   -1.5978 C   0  0  0  0  0  0  0  0  0  0  0  0
    7.3406   -9.3997   -3.0156 C   0  0  0  0  0  0  0  0  0  0  0  0
    8.7060   -9.6387   -3.2449 C   0  0  0  0  0  0  0  0  0  0  0  0
    9.1755   -9.9778   -4.5141 C   0  0  0  0  0  0  0  0  0  0  0  0
    8.2632  -10.0660   -5.5650 C   0  0  0  0  0  0  0  0  0  0  0  0
    8.7081  -10.3841   -6.7886 F   0  0  0  0  0  0  0  0  0  0  0  0
    6.9069   -9.8216   -5.3734 C   0  0  0  0  0  0  0  0  0  0  0  0
    6.4502   -9.4926   -4.0944 C   0  0  0  0  0  0  0  0  0  0  0  0
    3.8659   -2.5568   -1.2863 C   0  0  0  0  0  0  0  0  0  0  0  0
    4.7183   -2.1825   -0.0672 C   0  0  1  0  0  0  0  0  0  0  0  0
    4.0273   -1.8388    0.7201 H   0  0  0  0  0  0  0  0  0  0  0  0
    5.5440   -3.3390    0.5023 C   0  0  0  0  0  0  0  0  0  0  0  0
    5.5187   -1.0380   -0.3601 O   0  0  0  0  0  0  0  0  0  0  0  0
    6.3301    0.9877   -1.8505 H   0  0  0  0  0  0  0  0  0  0  0  0
    7.7359    0.1357   -2.5612 H   0  0  0  0  0  0  0  0  0  0  0  0
    7.6401    0.4008   -0.7964 H   0  0  0  0  0  0  0  0  0  0  0  0
    6.1350   -1.6868   -3.6043 H   0  0  0  0  0  0  0  0  0  0  0  0
    4.8041   -0.6730   -2.9816 H   0  0  0  0  0  0  0  0  0  0  0  0
    3.3940   -2.3339   -4.1150 H   0  0  0  0  0  0  0  0  0  0  0  0
    3.1533   -3.8829   -3.2784 H   0  0  0  0  0  0  0  0  0  0  0  0
    5.6161   -3.2859   -5.0282 H   0  0  0  0  0  0  0  0  0  0  0  0
    4.1515   -4.0857   -5.6047 H   0  0  0  0  0  0  0  0  0  0  0  0
    5.6806   -4.4715   -2.4265 H   0  0  0  0  0  0  0  0  0  0  0  0
    6.8975   -7.0011   -2.9270 H   0  0  0  0  0  0  0  0  0  0  0  0
    4.8428   -8.9833   -0.9522 H   0  0  0  0  0  0  0  0  0  0  0  0
    6.8451  -10.0184   -1.0122 H   0  0  0  0  0  0  0  0  0  0  0  0
    7.6239   -8.4405   -1.1043 H   0  0  0  0  0  0  0  0  0  0  0  0
    9.4178   -9.5609   -2.4172 H   0  0  0  0  0  0  0  0  0  0  0  0
   10.2338  -10.1672   -4.7037 H   0  0  0  0  0  0  0  0  0  0  0  0
    6.2237   -9.8778   -6.2226 H   0  0  0  0  0  0  0  0  0  0  0  0
    5.3894   -9.2845   -3.9448 H   0  0  0  0  0  0  0  0  0  0  0  0
    3.3256   -3.4948   -1.0886 H   0  0  0  0  0  0  0  0  0  0  0  0
    3.1155   -1.7524   -1.4519 H   0  0  0  0  0  0  0  0  0  0  0  0
    6.2533   -3.7527   -0.2298 H   0  0  0  0  0  0  0  0  0  0  0  0
    4.8859   -4.1633    0.8165 H   0  0  0  0  0  0  0  0  0  0  0  0
    6.1186   -2.9897    1.3739 H   0  0  0  0  0  0  0  0  0  0  0  0
  1  2  1  0
  1 28  1  0
  1 29  1  0
  1 30  1  0
  2  3  1  1
  2  4  1  0
  2 27  1  0
  4  5  1  0
  4 31  1  0
  4 32  1  0
  5  6  1  0
  5 23  1  0
  6  7  1  0
  6 33  1  0
  6 34  1  0
  7  8  1  0
  7 35  1  0
  7 36  1  0
  8  9  2  0
  8 10  1  0
 10 11  1  0
 10 37  1  0
 11 12  1  0
 11 38  1  0
 12 13  2  0
 12 14  1  0
 14 15  1  0
 14 39  1  0
 15 16  1  0
 15 40  1  0
 15 41  1  0
 16 17  2  0
 16 22  1  0
 17 18  1  0
 17 42  1  0
 18 19  2  0
 18 43  1  0
 19 20  1  0
 19 21  1  0
 21 22  2  0
 21 44  1  0
 22 45  1  0
 23 24  1  0
 23 46  1  0
 23 47  1  0
 24 25  1  1
 24 26  1  0
 24 27  1  0
 26 48  1  0
 26 49  1  0
 26 50  1  0
M  END

