
     RDKit          3D

 40 41  0  0  0  0  0  0  0  0999 V2000
    1.4833    0.7116   -0.8358 C   0  0  0  0  0  0  0  0  0  0  0  0
    2.9341    0.4246   -0.5506 C   0  0  0  0  0  0  0  0  0  0  0  0
    3.9002    1.4241   -0.6895 C   0  0  0  0  0  0  0  0  0  0  0  0
    5.2519    1.1672   -0.4265 C   0  0  0  0  0  0  0  0  0  0  0  0
    6.1094    2.2189   -0.5953 O   0  0  0  0  0  0  0  0  0  0  0  0
    7.4902    2.0479   -0.3500 C   0  0  0  0  0  0  0  0  0  0  0  0
    8.2698    3.3404   -0.5995 C   0  0  0  0  0  0  0  0  0  0  0  0
    9.4665    3.3742   -0.4320 O   0  0  0  0  0  0  0  0  0  0  0  0
    7.4875    4.3949   -1.0143 N   0  0  0  0  0  0  0  0  0  0  0  0
    8.0209    5.6022   -1.2781 N   0  0  0  0  0  0  0  0  0  0  0  0
    7.2368    6.5405   -1.6613 C   0  0  0  0  0  0  0  0  0  0  0  0
    7.7339    7.8840   -1.9695 C   0  0  0  0  0  0  0  0  0  0  0  0
    9.1007    8.1996   -1.8549 C   0  0  0  0  0  0  0  0  0  0  0  0
    9.5356    9.4815   -2.1553 C   0  0  0  0  0  0  0  0  0  0  0  0
   11.3923    9.9258   -2.0038 Br  0  0  0  0  0  0  0  0  0  0  0  0
    8.6549   10.5037   -2.5786 C   0  0  0  0  0  0  0  0  0  0  0  0
    9.0576   11.7462   -2.8728 O   0  0  0  0  0  0  0  0  0  0  0  0
    7.2916   10.1668   -2.6866 C   0  0  0  0  0  0  0  0  0  0  0  0
    6.0578   11.4972   -3.2512 Br  0  0  0  0  0  0  0  0  0  0  0  0
    6.8400    8.8832   -2.3881 C   0  0  0  0  0  0  0  0  0  0  0  0
    5.6533   -0.1078   -0.0171 C   0  0  0  0  0  0  0  0  0  0  0  0
    4.7115   -1.1399    0.1341 C   0  0  0  0  0  0  0  0  0  0  0  0
    5.1502   -2.5120    0.5755 C   0  0  0  0  0  0  0  0  0  0  0  0
    3.3657   -0.8515   -0.1368 C   0  0  0  0  0  0  0  0  0  0  0  0
    2.1703   -2.1294    0.0463 Cl  0  0  0  0  0  0  0  0  0  0  0  0
    1.3403    1.7566   -1.1448 H   0  0  0  0  0  0  0  0  0  0  0  0
    0.8591    0.5211    0.0522 H   0  0  0  0  0  0  0  0  0  0  0  0
    1.0982    0.0556   -1.6331 H   0  0  0  0  0  0  0  0  0  0  0  0
    3.6091    2.4273   -1.0078 H   0  0  0  0  0  0  0  0  0  0  0  0
    7.9263    1.2723   -1.0052 H   0  0  0  0  0  0  0  0  0  0  0  0
    7.6830    1.7469    0.6956 H   0  0  0  0  0  0  0  0  0  0  0  0
    6.4835    4.2286   -1.1151 H   0  0  0  0  0  0  0  0  0  0  0  0
    6.1486    6.3746   -1.7760 H   0  0  0  0  0  0  0  0  0  0  0  0
    9.8004    7.4286   -1.5305 H   0  0  0  0  0  0  0  0  0  0  0  0
   10.0205   11.8039   -2.7456 H   0  0  0  0  0  0  0  0  0  0  0  0
    5.7752    8.6621   -2.4845 H   0  0  0  0  0  0  0  0  0  0  0  0
    6.7001   -0.3276    0.1925 H   0  0  0  0  0  0  0  0  0  0  0  0
    6.2364   -2.5478    0.7399 H   0  0  0  0  0  0  0  0  0  0  0  0
    4.8861   -3.2740   -0.1755 H   0  0  0  0  0  0  0  0  0  0  0  0
    4.6463   -2.8086    1.5096 H   0  0  0  0  0  0  0  0  0  0  0  0
  1  2  1  0
  1 26  1  0
  1 27  1  0
  1 28  1  0
  2  3  2  0
  2 24  1  0
  3  4  1  0
  3 29  1  0
  4  5  1  0
  4 21  2  0
  5  6  1  0
  6  7  1  0
  6 30  1  0
  6 31  1  0
  7  8  2  0
  7  9  1  0
  9 10  1  0
  9 32  1  0
 10 11  2  0
 11 12  1  0
 11 33  1  0
 12 13  2  0
 12 20  1  0
 13 14  1  0
 13 34  1  0
 14 15  1  0
 14 16  2  0
 16 17  1  0
 16 18  1  0
 17 35  1  0
 18 19  1  0
 18 20  2  0
 20 36  1  0
 21 22  1  0
 21 37  1  0
 22 23  1  0
 22 24  2  0
 23 38  1  0
 23 39  1  0
 23 40  1  0
 24 25  1  0
M  END

