
     RDKit          3D

 54 57  0  0  0  0  0  0  0  0999 V2000
    2.1611    1.0892    1.1548 O   0  0  0  0  0  0  0  0  0  0  0  0
    2.3100    0.3890    0.1657 C   0  0  0  0  0  0  0  0  0  0  0  0
    1.8999   -0.9309    0.1009 N   0  0  0  0  0  0  0  0  0  0  0  0
    1.3145   -1.7238    1.1018 C   0  0  0  0  0  0  0  0  0  0  0  0
    1.0688   -1.2658    2.4105 C   0  0  0  0  0  0  0  0  0  0  0  0
    0.4902   -2.1223    3.3480 C   0  0  0  0  0  0  0  0  0  0  0  0
    0.1531   -3.4274    2.9942 C   0  0  0  0  0  0  0  0  0  0  0  0
   -0.3724   -4.2934    3.9601 O   0  0  0  0  0  0  0  0  0  0  0  0
   -1.7139   -4.3748    4.0854 C   0  0  1  0  0  0  0  0  0  0  0  0
   -2.2713   -3.1951    4.3986 F   0  0  0  0  0  0  0  0  0  0  0  0
   -2.3074   -4.8006    2.9577 F   0  0  0  0  0  0  0  0  0  0  0  0
   -1.9826   -5.2401    5.0545 F   0  0  0  0  0  0  0  0  0  0  0  0
    0.3914   -3.8985    1.7033 C   0  0  0  0  0  0  0  0  0  0  0  0
    0.9698   -3.0474    0.7651 C   0  0  0  0  0  0  0  0  0  0  0  0
    2.9422    0.9191   -1.0808 C   0  0  0  0  0  0  0  0  0  0  0  0
    3.0782    2.3099   -1.2171 C   0  0  0  0  0  0  0  0  0  0  0  0
    3.5899    2.8972   -2.2848 N   0  0  0  0  0  0  0  0  0  0  0  0
    4.0447    2.1661   -3.3249 C   0  0  0  0  0  0  0  0  0  0  0  0
    4.4030    2.8855   -4.4341 N   0  0  0  0  0  0  0  0  0  0  0  0
    4.2965    4.3582   -4.4408 C   0  0  0  0  0  0  0  0  0  0  0  0
    4.0465    4.7079   -5.9086 C   0  0  0  0  0  0  0  0  0  0  0  0
    4.7812    3.5981   -6.6694 C   0  0  2  0  0  0  0  0  0  0  0  0
    4.3620    3.4069   -8.1241 C   0  0  0  0  0  0  0  0  0  0  0  0
    4.9696    2.2827   -8.7268 O   0  0  0  0  0  0  0  0  0  0  0  0
    4.5397    2.3561   -5.7968 C   0  0  0  0  0  0  0  0  0  0  0  0
    4.1134    0.7305   -3.2251 C   0  0  0  0  0  0  0  0  0  0  0  0
    4.8742   -0.1662   -4.1388 C   0  0  0  0  0  0  0  0  0  0  0  0
    6.2614   -0.0020   -4.3315 C   0  0  0  0  0  0  0  0  0  0  0  0
    7.0083   -0.8092   -5.0831 N   0  0  0  0  0  0  0  0  0  0  0  0
    6.4276   -1.8468   -5.6864 C   0  0  0  0  0  0  0  0  0  0  0  0
    5.0633   -2.1019   -5.5431 C   0  0  0  0  0  0  0  0  0  0  0  0
    4.5167   -3.1534   -6.1621 F   0  0  0  0  0  0  0  0  0  0  0  0
    4.2690   -1.2649   -4.7669 C   0  0  0  0  0  0  0  0  0  0  0  0
    3.5127    0.1496   -2.1058 C   0  0  0  0  0  0  0  0  0  0  0  0
    1.9726   -1.3779   -0.8041 H   0  0  0  0  0  0  0  0  0  0  0  0
    1.3305   -0.2442    2.6740 H   0  0  0  0  0  0  0  0  0  0  0  0
    0.2991   -1.7771    4.3655 H   0  0  0  0  0  0  0  0  0  0  0  0
    0.1282   -4.9247    1.4430 H   0  0  0  0  0  0  0  0  0  0  0  0
    1.1608   -3.4173   -0.2466 H   0  0  0  0  0  0  0  0  0  0  0  0
    2.7402    2.9552   -0.3994 H   0  0  0  0  0  0  0  0  0  0  0  0
    5.2365    4.8070   -4.0702 H   0  0  0  0  0  0  0  0  0  0  0  0
    3.4979    4.6849   -3.7647 H   0  0  0  0  0  0  0  0  0  0  0  0
    4.3955    5.7193   -6.1651 H   0  0  0  0  0  0  0  0  0  0  0  0
    2.9657    4.6606   -6.1302 H   0  0  0  0  0  0  0  0  0  0  0  0
    5.8652    3.8244   -6.6483 H   0  0  0  0  0  0  0  0  0  0  0  0
    4.5566    4.3380   -8.6940 H   0  0  0  0  0  0  0  0  0  0  0  0
    3.2742    3.2270   -8.1715 H   0  0  0  0  0  0  0  0  0  0  0  0
    5.9196    2.4471   -8.7931 H   0  0  0  0  0  0  0  0  0  0  0  0
    5.3627    1.6401   -5.8986 H   0  0  0  0  0  0  0  0  0  0  0  0
    3.6163    1.8283   -6.1046 H   0  0  0  0  0  0  0  0  0  0  0  0
    6.7777    0.8316   -3.8418 H   0  0  0  0  0  0  0  0  0  0  0  0
    7.0449   -2.5082   -6.3045 H   0  0  0  0  0  0  0  0  0  0  0  0
    3.1986   -1.4627   -4.6765 H   0  0  0  0  0  0  0  0  0  0  0  0
    3.5756   -0.9389   -2.0146 H   0  0  0  0  0  0  0  0  0  0  0  0
  1  2  2  0
  2  3  1  0
  2 15  1  0
  3  4  1  0
  3 35  1  0
  4  5  2  0
  4 14  1  0
  5  6  1  0
  5 36  1  0
  6  7  2  0
  6 37  1  0
  7  8  1  0
  7 13  1  0
  8  9  1  0
  9 10  1  1
  9 11  1  0
  9 12  1  0
 13 14  2  0
 13 38  1  0
 14 39  1  0
 15 16  2  0
 15 34  1  0
 16 17  1  0
 16 40  1  0
 17 18  2  0
 18 19  1  0
 18 26  1  0
 19 20  1  0
 19 25  1  0
 20 21  1  0
 20 41  1  0
 20 42  1  0
 21 22  1  0
 21 43  1  0
 21 44  1  0
 22 23  1  0
 22 25  1  0
 22 45  1  6
 23 24  1  0
 23 46  1  0
 23 47  1  0
 24 48  1  0
 25 49  1  0
 25 50  1  0
 26 27  1  0
 26 34  2  0
 27 28  2  0
 27 33  1  0
 28 29  1  0
 28 51  1  0
 29 30  2  0
 30 31  1  0
 30 52  1  0
 31 32  1  0
 31 33  2  0
 33 53  1  0
 34 54  1  0
M  END

