
     RDKit          3D

 46 47  0  0  0  0  0  0  0  0999 V2000
    6.4709    2.4916    2.6221 C   0  0  0  0  0  0  0  0  0  0  0  0
    6.5034    1.6019    1.5396 O   0  0  0  0  0  0  0  0  0  0  0  0
    6.9716    0.3179    1.8659 C   0  0  0  0  0  0  0  0  0  0  0  0
    6.8956   -0.5745    0.6205 C   0  0  1  0  0  0  0  0  0  0  0  0
    7.7036   -0.0148   -0.5476 C   0  0  0  0  0  0  0  0  0  0  0  0
    7.3293   -1.9264    0.9492 N   0  0  0  0  0  0  0  0  0  0  0  0
    6.4580   -2.8996    1.3698 C   0  0  0  0  0  0  0  0  0  0  0  0
    5.2600   -2.6828    1.4995 O   0  0  0  0  0  0  0  0  0  0  0  0
    7.0495   -4.2455    1.6493 C   0  0  0  0  0  0  0  0  0  0  0  0
    8.4130   -4.5158    1.8641 C   0  0  0  0  0  0  0  0  0  0  0  0
    8.8425   -5.8056    2.1331 C   0  0  0  0  0  0  0  0  0  0  0  0
    7.8792   -6.8529    2.1782 C   0  0  0  0  0  0  0  0  0  0  0  0
    8.2292   -8.1631    2.3945 N   0  0  0  0  0  0  0  0  0  0  0  0
    7.2111   -9.2067    2.5132 C   0  0  0  0  0  0  0  0  0  0  0  0
    6.8286   -9.5408    3.9605 C   0  0  0  0  0  0  0  0  0  0  0  0
    7.9956   -9.8843    4.9016 C   0  0  0  0  0  0  0  0  0  0  0  0
    8.9438   -8.7067    5.1988 C   0  0  0  0  0  0  0  0  0  0  0  0
   10.0374   -8.4162    4.1526 C   0  0  0  0  0  0  0  0  0  0  0  0
    9.5958   -8.5694    2.6819 C   0  0  0  0  0  0  0  0  0  0  0  0
    6.5692   -6.5877    2.0025 N   0  0  0  0  0  0  0  0  0  0  0  0
    6.1812   -5.3438    1.7546 C   0  0  0  0  0  0  0  0  0  0  0  0
    6.0840    3.4544    2.2570 H   0  0  0  0  0  0  0  0  0  0  0  0
    7.4794    2.6583    3.0542 H   0  0  0  0  0  0  0  0  0  0  0  0
    5.8094    2.1313    3.4359 H   0  0  0  0  0  0  0  0  0  0  0  0
    6.3571   -0.1366    2.6685 H   0  0  0  0  0  0  0  0  0  0  0  0
    8.0211    0.3598    2.2344 H   0  0  0  0  0  0  0  0  0  0  0  0
    5.8332   -0.6430    0.3399 H   0  0  0  0  0  0  0  0  0  0  0  0
    8.7815    0.0179   -0.3068 H   0  0  0  0  0  0  0  0  0  0  0  0
    7.3808    1.0123   -0.7656 H   0  0  0  0  0  0  0  0  0  0  0  0
    7.5687   -0.6297   -1.4509 H   0  0  0  0  0  0  0  0  0  0  0  0
    8.2889   -2.1765    0.7477 H   0  0  0  0  0  0  0  0  0  0  0  0
    9.1552   -3.7121    1.8558 H   0  0  0  0  0  0  0  0  0  0  0  0
    9.8983   -5.9950    2.3205 H   0  0  0  0  0  0  0  0  0  0  0  0
    7.6055  -10.1092    2.0132 H   0  0  0  0  0  0  0  0  0  0  0  0
    6.3212   -8.8754    1.9653 H   0  0  0  0  0  0  0  0  0  0  0  0
    6.1189  -10.3866    3.9324 H   0  0  0  0  0  0  0  0  0  0  0  0
    6.2724   -8.6846    4.3806 H   0  0  0  0  0  0  0  0  0  0  0  0
    8.5661  -10.7469    4.5079 H   0  0  0  0  0  0  0  0  0  0  0  0
    7.5648  -10.2288    5.8568 H   0  0  0  0  0  0  0  0  0  0  0  0
    9.4443   -8.8774    6.1666 H   0  0  0  0  0  0  0  0  0  0  0  0
    8.3288   -7.8011    5.3413 H   0  0  0  0  0  0  0  0  0  0  0  0
   10.8962   -9.0933    4.3057 H   0  0  0  0  0  0  0  0  0  0  0  0
   10.4233   -7.3980    4.3284 H   0  0  0  0  0  0  0  0  0  0  0  0
    9.6682   -9.6296    2.3947 H   0  0  0  0  0  0  0  0  0  0  0  0
   10.2964   -8.0355    2.0193 H   0  0  0  0  0  0  0  0  0  0  0  0
    5.1075   -5.1704    1.6263 H   0  0  0  0  0  0  0  0  0  0  0  0
  1  2  1  0
  1 22  1  0
  1 23  1  0
  1 24  1  0
  2  3  1  0
  3  4  1  0
  3 25  1  0
  3 26  1  0
  4  5  1  0
  4  6  1  0
  4 27  1  6
  5 28  1  0
  5 29  1  0
  5 30  1  0
  6  7  1  0
  6 31  1  0
  7  8  2  0
  7  9  1  0
  9 10  2  0
  9 21  1  0
 10 11  1  0
 10 32  1  0
 11 12  2  0
 11 33  1  0
 12 13  1  0
 12 20  1  0
 13 14  1  0
 13 19  1  0
 14 15  1  0
 14 34  1  0
 14 35  1  0
 15 16  1  0
 15 36  1  0
 15 37  1  0
 16 17  1  0
 16 38  1  0
 16 39  1  0
 17 18  1  0
 17 40  1  0
 17 41  1  0
 18 19  1  0
 18 42  1  0
 18 43  1  0
 19 44  1  0
 19 45  1  0
 20 21  2  0
 21 46  1  0
M  END

