
     RDKit          3D

 41 42  0  0  0  0  0  0  0  0999 V2000
    3.2424    1.5792    2.0145 C   0  0  0  0  0  0  0  0  0  0  0  0
    3.0167    2.3529    0.8017 N   0  0  0  0  0  0  0  0  0  0  0  0
    3.1357    3.7995    0.9126 C   0  0  0  0  0  0  0  0  0  0  0  0
    3.4099    1.6411   -0.6702 S   0  0  1  0  0  0  0  0  0  0  0  0
    3.0070    0.2384   -0.5751 O   0  0  0  0  0  0  0  0  0  0  0  0
    2.9038    2.5341   -1.7125 O   0  0  0  0  0  0  0  0  0  0  0  0
    5.2093    1.6631   -0.7891 C   0  0  0  0  0  0  0  0  0  0  0  0
    5.9490    0.5885   -0.2869 C   0  0  0  0  0  0  0  0  0  0  0  0
    7.3433    0.6269   -0.3424 C   0  0  0  0  0  0  0  0  0  0  0  0
    8.0057    1.7211   -0.9301 C   0  0  0  0  0  0  0  0  0  0  0  0
    9.4262    1.7622   -0.9951 N   0  0  0  0  0  0  0  0  0  0  0  0
   10.1415    2.8568   -0.3104 C   0  0  0  0  0  0  0  0  0  0  0  0
   10.1930    2.7022    1.1975 C   0  0  0  0  0  0  0  0  0  0  0  0
   10.9885    1.6995    1.7796 C   0  0  0  0  0  0  0  0  0  0  0  0
   11.0310    1.5475    3.1669 C   0  0  0  0  0  0  0  0  0  0  0  0
   10.2841    2.3952    3.9934 C   0  0  0  0  0  0  0  0  0  0  0  0
    9.4944    3.3969    3.4242 C   0  0  0  0  0  0  0  0  0  0  0  0
    9.4495    3.5464    2.0338 C   0  0  0  0  0  0  0  0  0  0  0  0
   10.1967    0.7331   -1.5360 C   0  0  0  0  0  0  0  0  0  0  0  0
   11.3961    0.6726   -1.4172 O   0  0  0  0  0  0  0  0  0  0  0  0
    9.5236   -0.2029   -2.2357 O   0  0  0  0  0  0  0  0  0  0  0  0
    7.2430    2.7841   -1.4474 C   0  0  0  0  0  0  0  0  0  0  0  0
    5.8512    2.7603   -1.3754 C   0  0  0  0  0  0  0  0  0  0  0  0
    2.5548    1.9416    2.7951 H   0  0  0  0  0  0  0  0  0  0  0  0
    4.2785    1.6703    2.3977 H   0  0  0  0  0  0  0  0  0  0  0  0
    3.0150    0.5235    1.8231 H   0  0  0  0  0  0  0  0  0  0  0  0
    2.4481    4.1493    1.6990 H   0  0  0  0  0  0  0  0  0  0  0  0
    2.8366    4.2655   -0.0342 H   0  0  0  0  0  0  0  0  0  0  0  0
    4.1601    4.1289    1.1791 H   0  0  0  0  0  0  0  0  0  0  0  0
    5.4332   -0.2726    0.1414 H   0  0  0  0  0  0  0  0  0  0  0  0
    7.9275   -0.1958    0.0747 H   0  0  0  0  0  0  0  0  0  0  0  0
    9.6576    3.8090   -0.5731 H   0  0  0  0  0  0  0  0  0  0  0  0
   11.1562    2.8650   -0.7279 H   0  0  0  0  0  0  0  0  0  0  0  0
   11.5775    1.0454    1.1317 H   0  0  0  0  0  0  0  0  0  0  0  0
   11.6569    0.7670    3.6075 H   0  0  0  0  0  0  0  0  0  0  0  0
   10.3225    2.2768    5.0794 H   0  0  0  0  0  0  0  0  0  0  0  0
    8.9117    4.0661    4.0629 H   0  0  0  0  0  0  0  0  0  0  0  0
    8.8313    4.3348    1.5939 H   0  0  0  0  0  0  0  0  0  0  0  0
    8.5857    0.0226   -2.3295 H   0  0  0  0  0  0  0  0  0  0  0  0
    7.7478    3.6237   -1.9297 H   0  0  0  0  0  0  0  0  0  0  0  0
    5.2564    3.5681   -1.8053 H   0  0  0  0  0  0  0  0  0  0  0  0
  1  2  1  0
  1 24  1  0
  1 25  1  0
  1 26  1  0
  2  3  1  0
  4  2  1  1
  3 27  1  0
  3 28  1  0
  3 29  1  0
  4  5  2  0
  4  6  2  0
  4  7  1  0
  7  8  2  0
  7 23  1  0
  8  9  1  0
  8 30  1  0
  9 10  2  0
  9 31  1  0
 10 11  1  0
 10 22  1  0
 11 12  1  0
 11 19  1  0
 12 13  1  0
 12 32  1  0
 12 33  1  0
 13 14  2  0
 13 18  1  0
 14 15  1  0
 14 34  1  0
 15 16  2  0
 15 35  1  0
 16 17  1  0
 16 36  1  0
 17 18  2  0
 17 37  1  0
 18 38  1  0
 19 20  2  0
 19 21  1  0
 21 39  1  0
 22 23  2  0
 22 40  1  0
 23 41  1  0
M  END

