
     RDKit          3D

 69 74  0  0  0  0  0  0  0  0999 V2000
    2.5617   -0.3884   -1.4487 C   0  0  0  0  0  0  0  0  0  0  0  0
    2.1353    0.0412   -0.1760 O   0  0  0  0  0  0  0  0  0  0  0  0
    2.8362    1.0068    0.4684 C   0  0  0  0  0  0  0  0  0  0  0  0
    3.9932    1.6202   -0.0315 C   0  0  0  0  0  0  0  0  0  0  0  0
    4.6361    2.6029    0.7298 C   0  0  0  0  0  0  0  0  0  0  0  0
    4.1572    3.0048    1.9814 C   0  0  0  0  0  0  0  0  0  0  0  0
    4.8713    4.1310    2.7105 C   0  0  1  0  0  0  0  0  0  0  0  0
    5.8346    4.2779    2.1862 H   0  0  0  0  0  0  0  0  0  0  0  0
    4.1394    5.4900    2.5659 C   0  0  1  0  0  0  0  0  0  0  0  0
    4.1137    5.7156    1.4916 H   0  0  0  0  0  0  0  0  0  0  0  0
    2.6404    5.5480    2.9584 C   0  0  0  0  0  0  0  0  0  0  0  0
    1.8183    5.9637    2.1592 O   0  0  0  0  0  0  0  0  0  0  0  0
    2.3567    5.1735    4.2422 N   0  0  0  0  0  0  0  0  0  0  0  0
    1.1144    5.1780    4.9176 C   0  0  0  0  0  0  0  0  0  0  0  0
   -0.1030    5.5383    4.3180 C   0  0  0  0  0  0  0  0  0  0  0  0
   -1.2877    5.5136    5.0520 C   0  0  0  0  0  0  0  0  0  0  0  0
   -1.3219    5.1237    6.4125 C   0  0  0  0  0  0  0  0  0  0  0  0
   -2.5081    5.0864    7.1314 N   0  0  0  0  0  0  0  0  0  0  0  0
   -2.4829    4.7845    8.5455 C   0  0  0  0  0  0  0  0  0  0  0  0
   -3.7346    5.5504    6.5205 C   0  0  0  0  0  0  0  0  0  0  0  0
   -0.0841    4.7741    7.0049 C   0  0  0  0  0  0  0  0  0  0  0  0
    1.0977    4.8017    6.2700 C   0  0  0  0  0  0  0  0  0  0  0  0
    4.9130    6.5768    3.2820 C   0  0  0  0  0  0  0  0  0  0  0  0
    4.8395    7.9155    2.8722 C   0  0  0  0  0  0  0  0  0  0  0  0
    5.5445    8.9042    3.5603 C   0  0  0  0  0  0  0  0  0  0  0  0
    6.3272    8.5682    4.6728 C   0  0  0  0  0  0  0  0  0  0  0  0
    6.3962    7.2425    5.0942 C   0  0  0  0  0  0  0  0  0  0  0  0
    5.6924    6.2430    4.4030 C   0  0  0  0  0  0  0  0  0  0  0  0
    5.7819    4.8377    4.9193 C   0  0  0  0  0  0  0  0  0  0  0  0
    6.3350    4.5791    5.9732 O   0  0  0  0  0  0  0  0  0  0  0  0
    5.1702    3.8452    4.1424 N   0  0  0  0  0  0  0  0  0  0  0  0
    5.4302    2.4866    4.5472 C   0  0  0  0  0  0  0  0  0  0  0  0
    4.6834    1.9182    5.5811 C   0  0  0  0  0  0  0  0  0  0  0  0
    4.9194    0.6029    6.0233 C   0  0  0  0  0  0  0  0  0  0  0  0
    5.9192   -0.1056    5.3828 C   0  0  0  0  0  0  0  0  0  0  0  0
    6.6698    0.4606    4.3497 C   0  0  0  0  0  0  0  0  0  0  0  0
    6.4590    1.7545    3.9141 C   0  0  0  0  0  0  0  0  0  0  0  0
    7.5912   -0.4471    3.9077 O   0  0  0  0  0  0  0  0  0  0  0  0
    7.3734   -1.6428    4.6528 C   0  0  0  0  0  0  0  0  0  0  0  0
    6.3501   -1.3825    5.6098 O   0  0  0  0  0  0  0  0  0  0  0  0
    2.9930    2.3787    2.4659 C   0  0  0  0  0  0  0  0  0  0  0  0
    2.3455    1.3960    1.7275 C   0  0  0  0  0  0  0  0  0  0  0  0
    1.8483   -1.1569   -1.7755 H   0  0  0  0  0  0  0  0  0  0  0  0
    3.5738   -0.8314   -1.4167 H   0  0  0  0  0  0  0  0  0  0  0  0
    2.5594    0.4368   -2.1839 H   0  0  0  0  0  0  0  0  0  0  0  0
    4.4065    1.3427   -1.0012 H   0  0  0  0  0  0  0  0  0  0  0  0
    5.5417    3.0659    0.3264 H   0  0  0  0  0  0  0  0  0  0  0  0
    3.1414    4.8211    4.7803 H   0  0  0  0  0  0  0  0  0  0  0  0
   -0.1108    5.8418    3.2736 H   0  0  0  0  0  0  0  0  0  0  0  0
   -2.2046    5.8061    4.5415 H   0  0  0  0  0  0  0  0  0  0  0  0
   -2.0458    3.7894    8.7460 H   0  0  0  0  0  0  0  0  0  0  0  0
   -3.5091    4.7762    8.9358 H   0  0  0  0  0  0  0  0  0  0  0  0
   -1.9030    5.5235    9.1338 H   0  0  0  0  0  0  0  0  0  0  0  0
   -3.6946    6.6201    6.2336 H   0  0  0  0  0  0  0  0  0  0  0  0
   -4.5651    5.4233    7.2274 H   0  0  0  0  0  0  0  0  0  0  0  0
   -3.9838    4.9753    5.6106 H   0  0  0  0  0  0  0  0  0  0  0  0
   -0.0327    4.4786    8.0520 H   0  0  0  0  0  0  0  0  0  0  0  0
    2.0348    4.5343    6.7687 H   0  0  0  0  0  0  0  0  0  0  0  0
    4.2210    8.1776    2.0099 H   0  0  0  0  0  0  0  0  0  0  0  0
    5.4842    9.9437    3.2274 H   0  0  0  0  0  0  0  0  0  0  0  0
    6.8788    9.3435    5.2100 H   0  0  0  0  0  0  0  0  0  0  0  0
    6.9877    6.9466    5.9625 H   0  0  0  0  0  0  0  0  0  0  0  0
    3.9033    2.5119    6.0597 H   0  0  0  0  0  0  0  0  0  0  0  0
    4.3394    0.1589    6.8333 H   0  0  0  0  0  0  0  0  0  0  0  0
    7.0653    2.1856    3.1176 H   0  0  0  0  0  0  0  0  0  0  0  0
    8.3043   -1.9325    5.1717 H   0  0  0  0  0  0  0  0  0  0  0  0
    7.0496   -2.4527    3.9718 H   0  0  0  0  0  0  0  0  0  0  0  0
    2.5847    2.6549    3.4378 H   0  0  0  0  0  0  0  0  0  0  0  0
    1.4447    0.9090    2.1059 H   0  0  0  0  0  0  0  0  0  0  0  0
  1  2  1  0
  1 43  1  0
  1 44  1  0
  1 45  1  0
  2  3  1  0
  3  4  2  0
  3 42  1  0
  4  5  1  0
  4 46  1  0
  5  6  2  0
  5 47  1  0
  6  7  1  0
  6 41  1  0
  7  8  1  6
  7  9  1  0
  7 31  1  0
  9 10  1  6
  9 11  1  0
  9 23  1  0
 11 12  2  0
 11 13  1  0
 13 14  1  0
 13 48  1  0
 14 15  2  0
 14 22  1  0
 15 16  1  0
 15 49  1  0
 16 17  2  0
 16 50  1  0
 17 18  1  0
 17 21  1  0
 18 19  1  0
 18 20  1  0
 19 51  1  0
 19 52  1  0
 19 53  1  0
 20 54  1  0
 20 55  1  0
 20 56  1  0
 21 22  2  0
 21 57  1  0
 22 58  1  0
 23 24  2  0
 23 28  1  0
 24 25  1  0
 24 59  1  0
 25 26  2  0
 25 60  1  0
 26 27  1  0
 26 61  1  0
 27 28  2  0
 27 62  1  0
 28 29  1  0
 29 30  2  0
 29 31  1  0
 31 32  1  0
 32 33  2  0
 32 37  1  0
 33 34  1  0
 33 63  1  0
 34 35  2  0
 34 64  1  0
 35 36  1  0
 35 40  1  0
 36 37  2  0
 36 38  1  0
 37 65  1  0
 38 39  1  0
 39 40  1  0
 39 66  1  0
 39 67  1  0
 41 42  2  0
 41 68  1  0
 42 69  1  0
M  END

