
     RDKit          3D

171177  0  0  0  0  0  0  0  0999 V2000
    1.1827    3.7908   -0.7277 C   0  0  0  0  0  0  0  0  0  0  0  0
    2.3296    2.7797   -0.7611 C   0  0  0  0  0  0  0  0  0  0  0  0
    3.2969    2.9093    0.4197 C   0  0  0  0  0  0  0  0  0  0  0  0
    4.4488    1.9005    0.3939 C   0  0  0  0  0  0  0  0  0  0  0  0
    5.4155    2.0304    1.5747 C   0  0  0  0  0  0  0  0  0  0  0  0
    6.5679    1.0220    1.5477 C   0  0  0  0  0  0  0  0  0  0  0  0
    7.5341    1.1520    2.7290 C   0  0  0  0  0  0  0  0  0  0  0  0
    8.6876    0.1448    2.7003 C   0  0  0  0  0  0  0  0  0  0  0  0
    9.6525    0.2753    3.8825 C   0  0  0  0  0  0  0  0  0  0  0  0
   10.8052   -0.7309    3.8476 C   0  0  0  0  0  0  0  0  0  0  0  0
   11.7641   -0.5837    5.0465 C   0  0  0  0  0  0  0  0  0  0  0  0
   12.8757   -1.5297    5.0366 C   0  0  0  0  0  0  0  0  0  0  0  0
   13.7994   -2.3273    5.0120 C   0  0  0  0  0  0  0  0  0  0  0  0
   14.8416   -3.2207    4.9911 C   0  0  0  0  0  0  0  0  0  0  0  0
   15.7678   -4.0154    4.9654 C   0  0  0  0  0  0  0  0  0  0  0  0
   16.8787   -4.9622    4.9562 C   0  0  0  0  0  0  0  0  0  0  0  0
   17.5136   -5.1966    6.3420 C   0  0  0  0  0  0  0  0  0  0  0  0
   18.6777   -6.1894    6.3013 C   0  0  0  0  0  0  0  0  0  0  0  0
   19.3216   -6.4364    7.6688 C   0  0  0  0  0  0  0  0  0  0  0  0
   20.4908   -7.4250    7.6322 C   0  0  0  0  0  0  0  0  0  0  0  0
   21.1348   -7.6720    8.9996 C   0  0  0  0  0  0  0  0  0  0  0  0
   22.3080   -8.6560    8.9619 C   0  0  0  0  0  0  0  0  0  0  0  0
   22.9469   -8.8970   10.3323 C   0  0  0  0  0  0  0  0  0  0  0  0
   24.1199   -9.8788   10.2629 C   0  0  0  0  0  0  0  0  0  0  0  0
   24.7474  -10.1209   11.5719 N   0  0  0  0  0  0  0  0  0  0  0  0
   24.2387  -11.1695   12.3514 C   0  0  0  0  0  0  0  0  0  0  0  0
   23.3111  -11.8522   11.9547 O   0  0  0  0  0  0  0  0  0  0  0  0
   24.8873  -11.4015   13.6694 C   0  0  0  0  0  0  0  0  0  0  0  0
   24.4383  -12.4369   14.4754 C   0  0  0  0  0  0  0  0  0  0  0  0
   25.0335  -12.6766   15.7212 C   0  0  0  0  0  0  0  0  0  0  0  0
   26.0888  -11.8934   16.2001 C   0  0  0  0  0  0  0  0  0  0  0  0
   26.7200  -12.1376   17.5076 C   0  0  0  0  0  0  0  0  0  0  0  0
   26.3078  -13.1706   18.3558 C   0  0  0  0  0  0  0  0  0  0  0  0
   26.9130  -13.3945   19.5997 C   0  0  0  0  0  0  0  0  0  0  0  0
   27.9543  -12.5859   20.0302 C   0  0  0  0  0  0  0  0  0  0  0  0
   28.4068  -11.5259   19.2048 C   0  0  0  0  0  0  0  0  0  0  0  0
   29.4703  -10.7013   19.6511 C   0  0  0  0  0  0  0  0  0  0  0  0
   29.9151   -9.6619   18.8476 C   0  0  0  0  0  0  0  0  0  0  0  0
   29.3222   -9.4241   17.6004 C   0  0  0  0  0  0  0  0  0  0  0  0
   28.2716  -10.2115   17.1182 C   0  0  0  0  0  0  0  0  0  0  0  0
   27.6428   -9.9695   15.8092 C   0  0  0  0  0  0  0  0  0  0  0  0
   28.0570   -8.9383   14.9598 C   0  0  0  0  0  0  0  0  0  0  0  0
   27.4516   -8.7140   13.7161 C   0  0  0  0  0  0  0  0  0  0  0  0
   26.4094   -9.5214   13.2859 C   0  0  0  0  0  0  0  0  0  0  0  0
   25.9553  -10.5805   14.1122 C   0  0  0  0  0  0  0  0  0  0  0  0
   26.5674  -10.8164   15.3846 C   0  0  0  0  0  0  0  0  0  0  0  0
   25.7847   -9.2620   11.9615 C   0  0  0  0  0  0  0  0  0  0  0  0
   26.1486   -8.3514   11.2386 O   0  0  0  0  0  0  0  0  0  0  0  0
   27.7947  -11.2901   17.9324 C   0  0  0  0  0  0  0  0  0  0  0  0
   30.1181  -10.9297   20.9707 C   0  0  0  0  0  0  0  0  0  0  0  0
   31.0266  -10.2253   21.3734 O   0  0  0  0  0  0  0  0  0  0  0  0
   29.6323  -12.0008   21.7368 N   0  0  0  0  0  0  0  0  0  0  0  0
   30.2411  -12.2459   23.0579 C   0  0  0  0  0  0  0  0  0  0  0  0
   31.2481  -13.4017   23.0816 C   0  0  0  0  0  0  0  0  0  0  0  0
   32.4799  -13.2195   22.1901 C   0  0  0  0  0  0  0  0  0  0  0  0
   33.4840  -14.3700   22.3099 C   0  0  0  0  0  0  0  0  0  0  0  0
   34.7157  -14.2109   21.4137 C   0  0  0  0  0  0  0  0  0  0  0  0
   35.7245  -15.3566   21.5375 C   0  0  0  0  0  0  0  0  0  0  0  0
   36.9558  -15.1951   20.6412 C   0  0  0  0  0  0  0  0  0  0  0  0
   37.9629  -16.3405   20.7682 C   0  0  0  0  0  0  0  0  0  0  0  0
   39.1941  -16.1565   19.8579 C   0  0  0  0  0  0  0  0  0  0  0  0
   40.1737  -17.2340   19.9574 C   0  0  0  0  0  0  0  0  0  0  0  0
   40.9837  -18.1423   20.0517 C   0  0  0  0  0  0  0  0  0  0  0  0
   41.9009  -19.1591   20.1508 C   0  0  0  0  0  0  0  0  0  0  0  0
   42.7119  -20.0671   20.2392 C   0  0  0  0  0  0  0  0  0  0  0  0
   43.7001  -21.1367   20.3395 C   0  0  0  0  0  0  0  0  0  0  0  0
   45.1570  -20.6605   20.1687 C   0  0  0  0  0  0  0  0  0  0  0  0
   46.1714  -21.8019   20.2712 C   0  0  0  0  0  0  0  0  0  0  0  0
   47.6246  -21.3477   20.1050 C   0  0  0  0  0  0  0  0  0  0  0  0
   48.6444  -22.4864   20.1999 C   0  0  0  0  0  0  0  0  0  0  0  0
   50.0976  -22.0322   20.0347 C   0  0  0  0  0  0  0  0  0  0  0  0
   51.1183  -23.1706   20.1242 C   0  0  0  0  0  0  0  0  0  0  0  0
   52.5715  -22.7158   19.9596 C   0  0  0  0  0  0  0  0  0  0  0  0
   53.5924  -23.8542   20.0456 C   0  0  0  0  0  0  0  0  0  0  0  0
   55.0455  -23.3997   19.8813 C   0  0  0  0  0  0  0  0  0  0  0  0
   56.0672  -24.5381   19.9657 C   0  0  0  0  0  0  0  0  0  0  0  0
   57.5155  -24.0754   19.8006 C   0  0  0  0  0  0  0  0  0  0  0  0
   28.5772  -12.8417   21.3558 C   0  0  0  0  0  0  0  0  0  0  0  0
   28.1984  -13.7380   22.0892 O   0  0  0  0  0  0  0  0  0  0  0  0
    0.5083    3.6685   -1.5905 H   0  0  0  0  0  0  0  0  0  0  0  0
    1.5608    4.8269   -0.7457 H   0  0  0  0  0  0  0  0  0  0  0  0
    0.5760    3.6791    0.1868 H   0  0  0  0  0  0  0  0  0  0  0  0
    2.8933    2.8922   -1.7053 H   0  0  0  0  0  0  0  0  0  0  0  0
    1.9171    1.7543   -0.7808 H   0  0  0  0  0  0  0  0  0  0  0  0
    2.7339    2.7965    1.3653 H   0  0  0  0  0  0  0  0  0  0  0  0
    3.7105    3.9351    0.4403 H   0  0  0  0  0  0  0  0  0  0  0  0
    5.0114    2.0137   -0.5517 H   0  0  0  0  0  0  0  0  0  0  0  0
    4.0349    0.8750    0.3729 H   0  0  0  0  0  0  0  0  0  0  0  0
    4.8533    1.9163    2.5204 H   0  0  0  0  0  0  0  0  0  0  0  0
    5.8291    3.0560    1.5961 H   0  0  0  0  0  0  0  0  0  0  0  0
    7.1306    1.1364    0.6024 H   0  0  0  0  0  0  0  0  0  0  0  0
    6.1548   -0.0037    1.5259 H   0  0  0  0  0  0  0  0  0  0  0  0
    6.9720    1.0360    3.6744 H   0  0  0  0  0  0  0  0  0  0  0  0
    7.9465    2.1780    2.7516 H   0  0  0  0  0  0  0  0  0  0  0  0
    9.2509    0.2615    1.7559 H   0  0  0  0  0  0  0  0  0  0  0  0
    8.2762   -0.8814    2.6774 H   0  0  0  0  0  0  0  0  0  0  0  0
    9.0906    0.1557    4.8277 H   0  0  0  0  0  0  0  0  0  0  0  0
   10.0635    1.3018    3.9070 H   0  0  0  0  0  0  0  0  0  0  0  0
   11.3798   -0.6120    2.9130 H   0  0  0  0  0  0  0  0  0  0  0  0
   10.4064   -1.7598    3.8323 H   0  0  0  0  0  0  0  0  0  0  0  0
   11.1959   -0.7036    5.9878 H   0  0  0  0  0  0  0  0  0  0  0  0
   12.1662    0.4463    5.0706 H   0  0  0  0  0  0  0  0  0  0  0  0
   17.6537   -4.6033    4.2535 H   0  0  0  0  0  0  0  0  0  0  0  0
   16.5280   -5.9271    4.5451 H   0  0  0  0  0  0  0  0  0  0  0  0
   16.7351   -5.5576    7.0360 H   0  0  0  0  0  0  0  0  0  0  0  0
   17.8585   -4.2293    6.7460 H   0  0  0  0  0  0  0  0  0  0  0  0
   19.4469   -5.8225    5.5964 H   0  0  0  0  0  0  0  0  0  0  0  0
   18.3245   -7.1512    5.8847 H   0  0  0  0  0  0  0  0  0  0  0  0
   18.5526   -6.8056    8.3723 H   0  0  0  0  0  0  0  0  0  0  0  0
   19.6706   -5.4737    8.0862 H   0  0  0  0  0  0  0  0  0  0  0  0
   21.2596   -7.0545    6.9287 H   0  0  0  0  0  0  0  0  0  0  0  0
   20.1422   -8.3875    7.2138 H   0  0  0  0  0  0  0  0  0  0  0  0
   20.3678   -8.0465    9.7025 H   0  0  0  0  0  0  0  0  0  0  0  0
   21.4810   -6.7094    9.4195 H   0  0  0  0  0  0  0  0  0  0  0  0
   23.0761   -8.2804    8.2607 H   0  0  0  0  0  0  0  0  0  0  0  0
   21.9628   -9.6197    8.5436 H   0  0  0  0  0  0  0  0  0  0  0  0
   22.1896   -9.2924   11.0307 H   0  0  0  0  0  0  0  0  0  0  0  0
   23.3056   -7.9398   10.7476 H   0  0  0  0  0  0  0  0  0  0  0  0
   24.9024   -9.4867    9.6005 H   0  0  0  0  0  0  0  0  0  0  0  0
   23.7779  -10.8517    9.8875 H   0  0  0  0  0  0  0  0  0  0  0  0
   23.6147  -13.0573   14.1175 H   0  0  0  0  0  0  0  0  0  0  0  0
   24.6488  -13.5013   16.3204 H   0  0  0  0  0  0  0  0  0  0  0  0
   25.4936  -13.8307   18.0582 H   0  0  0  0  0  0  0  0  0  0  0  0
   26.5783  -14.2047   20.2500 H   0  0  0  0  0  0  0  0  0  0  0  0
   30.7339   -9.0371   19.2086 H   0  0  0  0  0  0  0  0  0  0  0  0
   29.7042   -8.5967   17.0032 H   0  0  0  0  0  0  0  0  0  0  0  0
   28.8726   -8.2796   15.2567 H   0  0  0  0  0  0  0  0  0  0  0  0
   27.7867   -7.9039   13.0659 H   0  0  0  0  0  0  0  0  0  0  0  0
   29.4193  -12.4666   23.7520 H   0  0  0  0  0  0  0  0  0  0  0  0
   30.7238  -11.3067   23.3537 H   0  0  0  0  0  0  0  0  0  0  0  0
   30.7249  -14.3369   22.8212 H   0  0  0  0  0  0  0  0  0  0  0  0
   31.5712  -13.5179   24.1319 H   0  0  0  0  0  0  0  0  0  0  0  0
   32.9766  -12.2640   22.4340 H   0  0  0  0  0  0  0  0  0  0  0  0
   32.1639  -13.1285   21.1351 H   0  0  0  0  0  0  0  0  0  0  0  0
   32.9780  -15.3238   22.0705 H   0  0  0  0  0  0  0  0  0  0  0  0
   33.8095  -14.4622   23.3630 H   0  0  0  0  0  0  0  0  0  0  0  0
   35.2180  -13.2548   21.6515 H   0  0  0  0  0  0  0  0  0  0  0  0
   34.3912  -14.1227   20.3601 H   0  0  0  0  0  0  0  0  0  0  0  0
   35.2229  -16.3129   21.2992 H   0  0  0  0  0  0  0  0  0  0  0  0
   36.0497  -15.4447   22.5907 H   0  0  0  0  0  0  0  0  0  0  0  0
   37.4576  -14.2387   20.8792 H   0  0  0  0  0  0  0  0  0  0  0  0
   36.6315  -15.1083   19.5873 H   0  0  0  0  0  0  0  0  0  0  0  0
   37.4754  -17.2994   20.5220 H   0  0  0  0  0  0  0  0  0  0  0  0
   38.3014  -16.4296   21.8148 H   0  0  0  0  0  0  0  0  0  0  0  0
   39.6880  -15.1966   20.0988 H   0  0  0  0  0  0  0  0  0  0  0  0
   38.8628  -16.0651   18.8067 H   0  0  0  0  0  0  0  0  0  0  0  0
   43.4750  -21.9093   19.5808 H   0  0  0  0  0  0  0  0  0  0  0  0
   43.5904  -21.6398   21.3183 H   0  0  0  0  0  0  0  0  0  0  0  0
   45.3748  -19.8938   20.9320 H   0  0  0  0  0  0  0  0  0  0  0  0
   45.2564  -20.1561   19.1921 H   0  0  0  0  0  0  0  0  0  0  0  0
   45.9386  -22.5679   19.5081 H   0  0  0  0  0  0  0  0  0  0  0  0
   46.0561  -22.3081   21.2478 H   0  0  0  0  0  0  0  0  0  0  0  0
   47.8573  -20.5841   20.8703 H   0  0  0  0  0  0  0  0  0  0  0  0
   47.7373  -20.8372   19.1306 H   0  0  0  0  0  0  0  0  0  0  0  0
   48.4113  -23.2492   19.4336 H   0  0  0  0  0  0  0  0  0  0  0  0
   48.5305  -22.9981   21.1738 H   0  0  0  0  0  0  0  0  0  0  0  0
   50.3313  -21.2714   20.8028 H   0  0  0  0  0  0  0  0  0  0  0  0
   50.2101  -21.5174   19.0622 H   0  0  0  0  0  0  0  0  0  0  0  0
   50.8848  -23.9307   19.3554 H   0  0  0  0  0  0  0  0  0  0  0  0
   51.0054  -23.6860   21.0963 H   0  0  0  0  0  0  0  0  0  0  0  0
   52.8054  -21.9571   20.7296 H   0  0  0  0  0  0  0  0  0  0  0  0
   52.6835  -22.1984   18.9884 H   0  0  0  0  0  0  0  0  0  0  0  0
   53.3584  -24.6125   19.2751 H   0  0  0  0  0  0  0  0  0  0  0  0
   53.4801  -24.3720   21.0166 H   0  0  0  0  0  0  0  0  0  0  0  0
   55.2806  -22.6420   20.6524 H   0  0  0  0  0  0  0  0  0  0  0  0
   55.1582  -22.8810   18.9106 H   0  0  0  0  0  0  0  0  0  0  0  0
   55.8314  -25.2945   19.1948 H   0  0  0  0  0  0  0  0  0  0  0  0
   55.9536  -25.0558   20.9357 H   0  0  0  0  0  0  0  0  0  0  0  0
   57.6717  -23.5871   18.8238 H   0  0  0  0  0  0  0  0  0  0  0  0
   58.2213  -24.9189   19.8667 H   0  0  0  0  0  0  0  0  0  0  0  0
   57.7949  -23.3463   20.5798 H   0  0  0  0  0  0  0  0  0  0  0  0
  1  2  1  0
  1 80  1  0
  1 81  1  0
  1 82  1  0
  2  3  1  0
  2 83  1  0
  2 84  1  0
  3  4  1  0
  3 85  1  0
  3 86  1  0
  4  5  1  0
  4 87  1  0
  4 88  1  0
  5  6  1  0
  5 89  1  0
  5 90  1  0
  6  7  1  0
  6 91  1  0
  6 92  1  0
  7  8  1  0
  7 93  1  0
  7 94  1  0
  8  9  1  0
  8 95  1  0
  8 96  1  0
  9 10  1  0
  9 97  1  0
  9 98  1  0
 10 11  1  0
 10 99  1  0
 10100  1  0
 11 12  1  0
 11101  1  0
 11102  1  0
 12 13  3  0
 13 14  1  0
 14 15  3  0
 15 16  1  0
 16 17  1  0
 16103  1  0
 16104  1  0
 17 18  1  0
 17105  1  0
 17106  1  0
 18 19  1  0
 18107  1  0
 18108  1  0
 19 20  1  0
 19109  1  0
 19110  1  0
 20 21  1  0
 20111  1  0
 20112  1  0
 21 22  1  0
 21113  1  0
 21114  1  0
 22 23  1  0
 22115  1  0
 22116  1  0
 23 24  1  0
 23117  1  0
 23118  1  0
 24 25  1  0
 24119  1  0
 24120  1  0
 25 26  1  0
 25 47  1  0
 26 27  2  0
 26 28  1  0
 28 29  1  0
 28 45  2  0
 29 30  2  0
 29121  1  0
 30 31  1  0
 30122  1  0
 31 32  1  0
 31 46  2  0
 32 33  2  0
 32 49  1  0
 33 34  1  0
 33123  1  0
 34 35  2  0
 34124  1  0
 35 36  1  0
 35 78  1  0
 36 37  1  0
 36 49  2  0
 37 38  2  0
 37 50  1  0
 38 39  1  0
 38125  1  0
 39 40  2  0
 39126  1  0
 40 41  1  0
 40 49  1  0
 41 42  2  0
 41 46  1  0
 42 43  1  0
 42127  1  0
 43 44  2  0
 43128  1  0
 44 45  1  0
 44 47  1  0
 45 46  1  0
 47 48  2  0
 50 51  2  0
 50 52  1  0
 52 53  1  0
 52 78  1  0
 53 54  1  0
 53129  1  0
 53130  1  0
 54 55  1  0
 54131  1  0
 54132  1  0
 55 56  1  0
 55133  1  0
 55134  1  0
 56 57  1  0
 56135  1  0
 56136  1  0
 57 58  1  0
 57137  1  0
 57138  1  0
 58 59  1  0
 58139  1  0
 58140  1  0
 59 60  1  0
 59141  1  0
 59142  1  0
 60 61  1  0
 60143  1  0
 60144  1  0
 61 62  1  0
 61145  1  0
 61146  1  0
 62 63  3  0
 63 64  1  0
 64 65  3  0
 65 66  1  0
 66 67  1  0
 66147  1  0
 66148  1  0
 67 68  1  0
 67149  1  0
 67150  1  0
 68 69  1  0
 68151  1  0
 68152  1  0
 69 70  1  0
 69153  1  0
 69154  1  0
 70 71  1  0
 70155  1  0
 70156  1  0
 71 72  1  0
 71157  1  0
 71158  1  0
 72 73  1  0
 72159  1  0
 72160  1  0
 73 74  1  0
 73161  1  0
 73162  1  0
 74 75  1  0
 74163  1  0
 74164  1  0
 75 76  1  0
 75165  1  0
 75166  1  0
 76 77  1  0
 76167  1  0
 76168  1  0
 77169  1  0
 77170  1  0
 77171  1  0
 78 79  2  0
M  END

