
     RDKit          3D

 49 51  0  0  0  0  0  0  0  0999 V2000
    0.3190    1.6918   -1.2237 C   0  0  0  0  0  0  0  0  0  0  0  0
    1.7522    2.1854   -1.2357 C   0  0  0  0  0  0  0  0  0  0  0  0
    2.6173    1.0557   -1.2813 O   0  0  0  0  0  0  0  0  0  0  0  0
    3.9614    1.2396   -1.3198 C   0  0  0  0  0  0  0  0  0  0  0  0
    4.5936    2.4825   -1.3052 C   0  0  0  0  0  0  0  0  0  0  0  0
    6.0062    2.6110   -1.3670 C   0  0  0  0  0  0  0  0  0  0  0  0
    6.5166    3.9780   -1.3477 C   0  0  0  0  0  0  0  0  0  0  0  0
    7.7498    4.5608   -1.3858 C   0  0  0  0  0  0  0  0  0  0  0  0
    7.8900    6.3345   -1.3388 S   0  0  0  0  0  0  0  0  0  0  0  0
    9.6519    6.3056   -1.4143 C   0  0  0  0  0  0  0  0  0  0  0  0
   10.5661    7.6663   -1.4267 S   0  0  0  0  0  0  0  0  0  0  0  0
   10.0884    4.9907   -1.4631 N   0  0  0  0  0  0  0  0  0  0  0  0
   11.4831    4.6459   -1.5190 C   0  0  0  0  0  0  0  0  0  0  0  0
   12.0383    4.1807   -2.7123 C   0  0  0  0  0  0  0  0  0  0  0  0
   13.3860    3.8249   -2.7641 C   0  0  0  0  0  0  0  0  0  0  0  0
   14.1885    3.9371   -1.6192 C   0  0  0  0  0  0  0  0  0  0  0  0
   15.5028    3.6086   -1.6116 O   0  0  0  0  0  0  0  0  0  0  0  0
   13.6265    4.4064   -0.4213 C   0  0  0  0  0  0  0  0  0  0  0  0
   12.2810    4.7556   -0.3741 C   0  0  0  0  0  0  0  0  0  0  0  0
    9.1109    3.9684   -1.4627 C   0  0  0  0  0  0  0  0  0  0  0  0
    9.4115    2.7947   -1.5207 O   0  0  0  0  0  0  0  0  0  0  0  0
    6.7780    1.4345   -1.4419 C   0  0  0  0  0  0  0  0  0  0  0  0
    6.1490    0.1911   -1.4451 C   0  0  0  0  0  0  0  0  0  0  0  0
    4.7599    0.0687   -1.3834 C   0  0  0  0  0  0  0  0  0  0  0  0
    4.1988   -1.1776   -1.4663 O   0  0  0  0  0  0  0  0  0  0  0  0
    3.3270   -1.6473   -0.4149 C   0  0  1  0  0  0  0  0  0  0  0  0
    2.0441   -2.1956   -1.0241 C   0  0  0  0  0  0  0  0  0  0  0  0
    4.0562   -2.7411    0.3871 C   0  0  0  0  0  0  0  0  0  0  0  0
    3.6195   -3.1702    1.4202 O   0  0  0  0  0  0  0  0  0  0  0  0
    5.1775   -3.1992   -0.1834 O   0  0  0  0  0  0  0  0  0  0  0  0
   -0.3723    2.5476   -1.1829 H   0  0  0  0  0  0  0  0  0  0  0  0
    0.1299    1.0536   -0.3472 H   0  0  0  0  0  0  0  0  0  0  0  0
    0.0965    1.1111   -2.1318 H   0  0  0  0  0  0  0  0  0  0  0  0
    1.9685    2.7845   -0.3315 H   0  0  0  0  0  0  0  0  0  0  0  0
    1.9371    2.8300   -2.1149 H   0  0  0  0  0  0  0  0  0  0  0  0
    3.9912    3.3892   -1.2558 H   0  0  0  0  0  0  0  0  0  0  0  0
    5.7029    4.7110   -1.2871 H   0  0  0  0  0  0  0  0  0  0  0  0
   11.4156    4.0931   -3.6044 H   0  0  0  0  0  0  0  0  0  0  0  0
   13.8180    3.4583   -3.7003 H   0  0  0  0  0  0  0  0  0  0  0  0
   15.7681    3.3018   -2.4887 H   0  0  0  0  0  0  0  0  0  0  0  0
   14.2633    4.4886    0.4614 H   0  0  0  0  0  0  0  0  0  0  0  0
   11.8435    5.1215    0.5565 H   0  0  0  0  0  0  0  0  0  0  0  0
    7.8622    1.5020   -1.4895 H   0  0  0  0  0  0  0  0  0  0  0  0
    6.7467   -0.7218   -1.4939 H   0  0  0  0  0  0  0  0  0  0  0  0
    3.0998   -0.8283    0.2814 H   0  0  0  0  0  0  0  0  0  0  0  0
    2.2731   -3.0004   -1.7396 H   0  0  0  0  0  0  0  0  0  0  0  0
    1.5126   -1.3916   -1.5497 H   0  0  0  0  0  0  0  0  0  0  0  0
    1.4048   -2.6045   -0.2287 H   0  0  0  0  0  0  0  0  0  0  0  0
    5.3012   -2.6898   -1.0071 H   0  0  0  0  0  0  0  0  0  0  0  0
  1  2  1  0
  1 31  1  0
  1 32  1  0
  1 33  1  0
  2  3  1  0
  2 34  1  0
  2 35  1  0
  3  4  1  0
  4  5  2  0
  4 24  1  0
  5  6  1  0
  5 36  1  0
  6  7  1  0
  6 22  2  0
  7  8  2  0
  7 37  1  0
  8  9  1  0
  8 20  1  0
  9 10  1  0
 10 11  2  0
 10 12  1  0
 12 13  1  0
 12 20  1  0
 13 14  2  0
 13 19  1  0
 14 15  1  0
 14 38  1  0
 15 16  2  0
 15 39  1  0
 16 17  1  0
 16 18  1  0
 17 40  1  0
 18 19  2  0
 18 41  1  0
 19 42  1  0
 20 21  2  0
 22 23  1  0
 22 43  1  0
 23 24  2  0
 23 44  1  0
 24 25  1  0
 25 26  1  0
 26 27  1  0
 26 28  1  0
 26 45  1  1
 27 46  1  0
 27 47  1  0
 27 48  1  0
 28 29  2  0
 28 30  1  0
 30 49  1  0
M  END

