
     RDKit          3D

 41 41  0  0  0  0  0  0  0  0999 V2000
    9.0132   -3.6179   -2.7360 C   0  0  0  0  0  0  0  0  0  0  0  0
    8.0766   -2.8495   -1.8126 C   0  0  1  0  0  0  0  0  0  0  0  0
    8.2311   -3.2620   -0.3476 C   0  0  0  0  0  0  0  0  0  0  0  0
    8.3643   -1.4651   -2.0044 O   0  0  0  0  0  0  0  0  0  0  0  0
    7.3689   -0.5683   -1.5817 C   0  0  0  0  0  0  0  0  0  0  0  0
    7.8295    0.8296   -1.9797 C   0  0  0  0  0  0  0  0  0  0  0  0
    6.6287    2.0816   -1.4695 S   0  0  1  0  0  0  0  0  0  0  0  0
    5.4027    1.8473   -2.2438 O   0  0  0  0  0  0  0  0  0  0  0  0
    6.6044    2.0837   -0.0005 O   0  0  0  0  0  0  0  0  0  0  0  0
    7.3178    3.5253   -1.9937 N   0  0  0  0  0  0  0  0  0  0  0  0
    6.7233    4.2147   -3.1488 C   0  0  0  0  0  0  0  0  0  0  0  0
    5.7563    5.3166   -2.6878 C   0  0  0  0  0  0  0  0  0  0  0  0
    6.3615    6.2318   -1.7235 N   0  0  0  0  0  0  0  0  0  0  0  0
    7.1408    7.3252   -2.2874 C   0  0  0  0  0  0  0  0  0  0  0  0
    6.2436    8.5471   -2.4822 C   0  0  0  0  0  0  0  0  0  0  0  0
    7.2353   10.0492   -3.2877 Br  0  0  0  0  0  0  0  0  0  0  0  0
    6.9292    5.5183   -0.5841 C   0  0  0  0  0  0  0  0  0  0  0  0
    7.9226    4.4214   -0.9966 C   0  0  0  0  0  0  0  0  0  0  0  0
    8.8275   -4.7010   -2.6704 H   0  0  0  0  0  0  0  0  0  0  0  0
   10.0624   -3.4269   -2.4587 H   0  0  0  0  0  0  0  0  0  0  0  0
    8.8716   -3.2987   -3.7794 H   0  0  0  0  0  0  0  0  0  0  0  0
    7.0285   -3.0366   -2.1275 H   0  0  0  0  0  0  0  0  0  0  0  0
    9.2627   -3.0777   -0.0065 H   0  0  0  0  0  0  0  0  0  0  0  0
    8.0098   -4.3337   -0.2217 H   0  0  0  0  0  0  0  0  0  0  0  0
    7.5471   -2.7045    0.3105 H   0  0  0  0  0  0  0  0  0  0  0  0
    7.2110   -0.5980   -0.4873 H   0  0  0  0  0  0  0  0  0  0  0  0
    6.3959   -0.7891   -2.0635 H   0  0  0  0  0  0  0  0  0  0  0  0
    7.9419    0.9178   -3.0697 H   0  0  0  0  0  0  0  0  0  0  0  0
    8.7827    1.0844   -1.4946 H   0  0  0  0  0  0  0  0  0  0  0  0
    6.2011    3.4813   -3.7766 H   0  0  0  0  0  0  0  0  0  0  0  0
    7.5507    4.6433   -3.7426 H   0  0  0  0  0  0  0  0  0  0  0  0
    4.8810    4.8304   -2.2224 H   0  0  0  0  0  0  0  0  0  0  0  0
    5.3866    5.8841   -3.5569 H   0  0  0  0  0  0  0  0  0  0  0  0
    7.6235    7.0709   -3.2517 H   0  0  0  0  0  0  0  0  0  0  0  0
    7.9576    7.5939   -1.5995 H   0  0  0  0  0  0  0  0  0  0  0  0
    5.8474    8.9067   -1.5248 H   0  0  0  0  0  0  0  0  0  0  0  0
    5.4070    8.3387   -3.1613 H   0  0  0  0  0  0  0  0  0  0  0  0
    6.1093    5.0365   -0.0224 H   0  0  0  0  0  0  0  0  0  0  0  0
    7.4125    6.2371    0.0965 H   0  0  0  0  0  0  0  0  0  0  0  0
    8.2324    3.8327   -0.1233 H   0  0  0  0  0  0  0  0  0  0  0  0
    8.8283    4.8646   -1.4494 H   0  0  0  0  0  0  0  0  0  0  0  0
  1  2  1  0
  1 19  1  0
  1 20  1  0
  1 21  1  0
  2  3  1  0
  2  4  1  0
  2 22  1  6
  3 23  1  0
  3 24  1  0
  3 25  1  0
  4  5  1  0
  5  6  1  0
  5 26  1  0
  5 27  1  0
  7  6  1  1
  6 28  1  0
  6 29  1  0
  7  8  2  0
  7  9  2  0
  7 10  1  0
 10 11  1  0
 10 18  1  0
 11 12  1  0
 11 30  1  0
 11 31  1  0
 12 13  1  0
 12 32  1  0
 12 33  1  0
 13 14  1  0
 13 17  1  0
 14 15  1  0
 14 34  1  0
 14 35  1  0
 15 16  1  0
 15 36  1  0
 15 37  1  0
 17 18  1  0
 17 38  1  0
 17 39  1  0
 18 40  1  0
 18 41  1  0
M  END

