
     RDKit          3D

 31 33  0  0  0  0  0  0  0  0999 V2000
    1.4960    2.2592   -1.0277 O   0  0  0  0  0  0  0  0  0  0  0  0
    1.7016    1.4215   -1.8663 C   0  0  0  0  0  0  0  0  0  0  0  0
    0.8373    1.1462   -2.8555 O   0  0  0  0  0  0  0  0  0  0  0  0
    2.9394    0.5806   -1.9179 C   0  0  0  0  0  0  0  0  0  0  0  0
    3.9888    0.6637   -1.0383 C   0  0  0  0  0  0  0  0  0  0  0  0
    5.1981   -0.4788   -1.4810 S   0  0  0  0  0  0  0  0  0  0  0  0
    4.2050   -0.9978   -2.8360 C   0  0  0  0  0  0  0  0  0  0  0  0
    4.6203   -2.1145   -3.7443 C   0  0  0  0  0  0  0  0  0  0  0  0
    3.9347   -3.4506   -3.3720 C   0  0  0  0  0  0  0  0  0  0  0  0
    4.2916   -4.5484   -4.2483 N   0  0  0  0  0  0  0  0  0  0  0  0
    5.5020   -5.1645   -4.1653 C   0  0  0  0  0  0  0  0  0  0  0  0
    6.4129   -4.8684   -3.2904 N   0  0  0  0  0  0  0  0  0  0  0  0
    7.5219   -5.6828   -3.4275 C   0  0  0  0  0  0  0  0  0  0  0  0
    8.6812   -5.6276   -2.6378 C   0  0  0  0  0  0  0  0  0  0  0  0
    9.7291   -6.5107   -2.8968 C   0  0  0  0  0  0  0  0  0  0  0  0
    9.6423   -7.4527   -3.9351 C   0  0  0  0  0  0  0  0  0  0  0  0
    8.4986   -7.5271   -4.7353 C   0  0  0  0  0  0  0  0  0  0  0  0
    7.4514   -6.6428   -4.4725 C   0  0  0  0  0  0  0  0  0  0  0  0
    5.8992   -6.4940   -5.2919 S   0  0  0  0  0  0  0  0  0  0  0  0
    3.0734   -0.3547   -2.9154 N   0  0  0  0  0  0  0  0  0  0  0  0
    1.2338    0.4375   -3.3987 H   0  0  0  0  0  0  0  0  0  0  0  0
    4.0848    1.3363   -0.1883 H   0  0  0  0  0  0  0  0  0  0  0  0
    5.7092   -2.2600   -3.7042 H   0  0  0  0  0  0  0  0  0  0  0  0
    4.3469   -1.8375   -4.7750 H   0  0  0  0  0  0  0  0  0  0  0  0
    2.8420   -3.3263   -3.4020 H   0  0  0  0  0  0  0  0  0  0  0  0
    4.2157   -3.7215   -2.3427 H   0  0  0  0  0  0  0  0  0  0  0  0
    3.6963   -4.7607   -5.0377 H   0  0  0  0  0  0  0  0  0  0  0  0
    8.7401   -4.8925   -1.8326 H   0  0  0  0  0  0  0  0  0  0  0  0
   10.6319   -6.4694   -2.2822 H   0  0  0  0  0  0  0  0  0  0  0  0
   10.4743   -8.1358   -4.1216 H   0  0  0  0  0  0  0  0  0  0  0  0
    8.4298   -8.2595   -5.5426 H   0  0  0  0  0  0  0  0  0  0  0  0
  1  2  2  0
  2  3  1  0
  2  4  1  0
  3 21  1  0
  4  5  2  0
  4 20  1  0
  5  6  1  0
  5 22  1  0
  6  7  1  0
  7  8  1  0
  7 20  2  0
  8  9  1  0
  8 23  1  0
  8 24  1  0
  9 10  1  0
  9 25  1  0
  9 26  1  0
 10 11  1  0
 10 27  1  0
 11 12  2  0
 11 19  1  0
 12 13  1  0
 13 14  2  0
 13 18  1  0
 14 15  1  0
 14 28  1  0
 15 16  2  0
 15 29  1  0
 16 17  1  0
 16 30  1  0
 17 18  2  0
 17 31  1  0
 18 19  1  0
M  END

