
     RDKit          3D

 53 56  0  0  0  0  0  0  0  0999 V2000
    3.1301    0.4890   -2.1273 C   0  0  0  0  0  0  0  0  0  0  0  0
    2.4784   -0.5182   -1.3886 O   0  0  0  0  0  0  0  0  0  0  0  0
    3.1851   -1.2729   -0.5071 C   0  0  0  0  0  0  0  0  0  0  0  0
    4.5488   -1.0748   -0.2454 C   0  0  0  0  0  0  0  0  0  0  0  0
    5.2301   -1.8884    0.6660 C   0  0  0  0  0  0  0  0  0  0  0  0
    4.5350   -2.9032    1.3089 C   0  0  0  0  0  0  0  0  0  0  0  0
    5.1733   -3.6902    2.1926 F   0  0  0  0  0  0  0  0  0  0  0  0
    3.1832   -3.1222    1.0593 C   0  0  0  0  0  0  0  0  0  0  0  0
    2.4794   -2.3152    0.1527 C   0  0  0  0  0  0  0  0  0  0  0  0
    1.0355   -2.5738   -0.0903 C   0  0  0  0  0  0  0  0  0  0  0  0
    0.0746   -1.5531   -0.0771 C   0  0  0  0  0  0  0  0  0  0  0  0
   -1.2917   -1.8384   -0.2574 C   0  0  0  0  0  0  0  0  0  0  0  0
   -1.7833   -3.0625   -0.4583 N   0  0  0  0  0  0  0  0  0  0  0  0
   -0.8702   -4.0248   -0.4796 C   0  0  0  0  0  0  0  0  0  0  0  0
   -1.1316   -5.3573   -0.6843 N   0  0  0  0  0  0  0  0  0  0  0  0
   -2.0574   -5.7193   -0.8704 H   0  0  0  0  0  0  0  0  0  0  0  0
    0.0544   -6.0783   -0.6785 C   0  0  0  0  0  0  0  0  0  0  0  0
    0.0608   -7.5302   -0.8898 C   0  0  0  0  0  0  0  0  0  0  0  0
    1.1960   -8.2111   -1.1566 C   0  0  0  0  0  0  0  0  0  0  0  0
    1.2445   -9.7050   -1.3660 C   0  0  0  0  0  0  0  0  0  0  0  0
   -0.0625  -10.3187   -1.6077 N   0  0  0  0  0  0  0  0  0  0  0  0
   -0.4787  -10.3078   -3.0141 C   0  0  0  0  0  0  0  0  0  0  0  0
    0.1432  -11.4984   -3.7534 C   0  0  1  0  0  0  0  0  0  0  0  0
   -0.0704  -12.6772   -3.0022 O   0  0  0  0  0  0  0  0  0  0  0  0
   -0.4528  -11.7417   -5.1350 C   0  0  0  0  0  0  0  0  0  0  0  0
    0.1075  -12.8849   -5.7307 O   0  0  0  0  0  0  0  0  0  0  0  0
   -1.0520   -9.7882   -0.6728 C   0  0  0  0  0  0  0  0  0  0  0  0
   -1.2628   -8.2716   -0.8069 C   0  0  0  0  0  0  0  0  0  0  0  0
    1.1001   -5.1954   -0.4429 C   0  0  0  0  0  0  0  0  0  0  0  0
    0.5424   -3.8840   -0.3116 C   0  0  0  0  0  0  0  0  0  0  0  0
    2.3694    0.9363   -2.7811 H   0  0  0  0  0  0  0  0  0  0  0  0
    3.9433    0.0791   -2.7532 H   0  0  0  0  0  0  0  0  0  0  0  0
    3.5472    1.2769   -1.4741 H   0  0  0  0  0  0  0  0  0  0  0  0
    5.0981   -0.2817   -0.7518 H   0  0  0  0  0  0  0  0  0  0  0  0
    6.2901   -1.7369    0.8778 H   0  0  0  0  0  0  0  0  0  0  0  0
    2.6701   -3.9207    1.5968 H   0  0  0  0  0  0  0  0  0  0  0  0
    0.3824   -0.5198    0.0812 H   0  0  0  0  0  0  0  0  0  0  0  0
   -2.0187   -1.0187   -0.2322 H   0  0  0  0  0  0  0  0  0  0  0  0
    2.1503   -7.6781   -1.2107 H   0  0  0  0  0  0  0  0  0  0  0  0
    1.7108  -10.1823   -0.4803 H   0  0  0  0  0  0  0  0  0  0  0  0
    1.9163   -9.9437   -2.2064 H   0  0  0  0  0  0  0  0  0  0  0  0
   -0.2366   -9.3586   -3.5341 H   0  0  0  0  0  0  0  0  0  0  0  0
   -1.5746  -10.4262   -3.0397 H   0  0  0  0  0  0  0  0  0  0  0  0
    1.2329  -11.3256   -3.8885 H   0  0  0  0  0  0  0  0  0  0  0  0
    0.0084  -12.3906   -2.0737 H   0  0  0  0  0  0  0  0  0  0  0  0
   -0.2475  -10.8830   -5.7961 H   0  0  0  0  0  0  0  0  0  0  0  0
   -1.5557  -11.8304   -5.0310 H   0  0  0  0  0  0  0  0  0  0  0  0
    0.0725  -13.5781   -5.0542 H   0  0  0  0  0  0  0  0  0  0  0  0
   -0.7030  -10.0142    0.3496 H   0  0  0  0  0  0  0  0  0  0  0  0
   -2.0037  -10.3248   -0.8102 H   0  0  0  0  0  0  0  0  0  0  0  0
   -1.8472   -7.9090    0.0567 H   0  0  0  0  0  0  0  0  0  0  0  0
   -1.8735   -8.0519   -1.7036 H   0  0  0  0  0  0  0  0  0  0  0  0
    2.1484   -5.4706   -0.3665 H   0  0  0  0  0  0  0  0  0  0  0  0
  1  2  1  0
  1 31  1  0
  1 32  1  0
  1 33  1  0
  2  3  1  0
  3  4  2  0
  3  9  1  0
  4  5  1  0
  4 34  1  0
  5  6  2  0
  5 35  1  0
  6  7  1  0
  6  8  1  0
  8  9  2  0
  8 36  1  0
  9 10  1  0
 10 11  2  0
 10 30  1  0
 11 12  1  0
 11 37  1  0
 12 13  2  0
 12 38  1  0
 13 14  1  0
 14 15  1  0
 14 30  2  0
 15 16  1  0
 15 17  1  0
 17 18  1  0
 17 29  2  0
 18 19  2  0
 18 28  1  0
 19 20  1  0
 19 39  1  0
 20 21  1  0
 20 40  1  0
 20 41  1  0
 21 22  1  0
 21 27  1  0
 22 23  1  0
 22 42  1  0
 22 43  1  0
 23 24  1  0
 23 25  1  0
 23 44  1  6
 24 45  1  0
 25 26  1  0
 25 46  1  0
 25 47  1  0
 26 48  1  0
 27 28  1  0
 27 49  1  0
 27 50  1  0
 28 51  1  0
 28 52  1  0
 29 30  1  0
 29 53  1  0
M  END

