
     RDKit          3D

 36 38  0  0  0  0  0  0  0  0999 V2000
    2.4042   -1.1701   -0.0891 O   0  0  0  0  0  0  0  0  0  0  0  0
    2.5816   -0.0184   -0.3865 C   0  0  0  0  0  0  0  0  0  0  0  0
    2.2361    0.4212   -1.6289 O   0  0  0  0  0  0  0  0  0  0  0  0
    3.1412    1.0207    0.5140 C   0  0  0  0  0  0  0  0  0  0  0  0
    2.8535    2.3794    0.4189 C   0  0  0  0  0  0  0  0  0  0  0  0
    3.4456    3.0295    1.4621 N   0  0  0  0  0  0  0  0  0  0  0  0
    3.3176    4.4457    1.7597 C   0  0  0  0  0  0  0  0  0  0  0  0
    2.1104    4.8260    2.6068 C   0  0  0  0  0  0  0  0  0  0  0  0
    1.2332    3.8727    3.1376 C   0  0  0  0  0  0  0  0  0  0  0  0
    0.1410    4.2724    3.9165 C   0  0  0  0  0  0  0  0  0  0  0  0
   -0.0850    5.6260    4.1735 C   0  0  0  0  0  0  0  0  0  0  0  0
    0.7879    6.5840    3.6457 C   0  0  0  0  0  0  0  0  0  0  0  0
    1.8762    6.1856    2.8680 C   0  0  0  0  0  0  0  0  0  0  0  0
    4.1075    2.1078    2.2405 C   0  0  0  0  0  0  0  0  0  0  0  0
    3.9450    0.8411    1.7003 C   0  0  0  0  0  0  0  0  0  0  0  0
    4.5425   -0.3860    2.2672 C   0  0  0  0  0  0  0  0  0  0  0  0
    4.6562   -0.5308    3.6631 C   0  0  0  0  0  0  0  0  0  0  0  0
    5.2606   -1.6508    4.2350 C   0  0  0  0  0  0  0  0  0  0  0  0
    5.7588   -2.6572    3.4047 C   0  0  0  0  0  0  0  0  0  0  0  0
    6.5149   -4.0696    4.1092 Cl  0  0  0  0  0  0  0  0  0  0  0  0
    5.6522   -2.5461    2.0155 C   0  0  0  0  0  0  0  0  0  0  0  0
    5.0496   -1.4192    1.4581 C   0  0  0  0  0  0  0  0  0  0  0  0
    2.6073    1.3016   -1.7788 H   0  0  0  0  0  0  0  0  0  0  0  0
    2.2139    2.9185   -0.2784 H   0  0  0  0  0  0  0  0  0  0  0  0
    3.2875    4.9933    0.8039 H   0  0  0  0  0  0  0  0  0  0  0  0
    4.2432    4.7648    2.2660 H   0  0  0  0  0  0  0  0  0  0  0  0
    1.3986    2.8106    2.9447 H   0  0  0  0  0  0  0  0  0  0  0  0
   -0.5356    3.5164    4.3229 H   0  0  0  0  0  0  0  0  0  0  0  0
   -0.9385    5.9360    4.7815 H   0  0  0  0  0  0  0  0  0  0  0  0
    0.6190    7.6463    3.8396 H   0  0  0  0  0  0  0  0  0  0  0  0
    2.5530    6.9419    2.4577 H   0  0  0  0  0  0  0  0  0  0  0  0
    4.6842    2.4256    3.1064 H   0  0  0  0  0  0  0  0  0  0  0  0
    4.2439    0.2389    4.3198 H   0  0  0  0  0  0  0  0  0  0  0  0
    5.3363   -1.7519    5.3190 H   0  0  0  0  0  0  0  0  0  0  0  0
    6.0411   -3.3401    1.3760 H   0  0  0  0  0  0  0  0  0  0  0  0
    4.9751   -1.3476    0.3732 H   0  0  0  0  0  0  0  0  0  0  0  0
  1  2  2  0
  2  3  1  0
  2  4  1  0
  3 23  1  0
  4  5  2  0
  4 15  1  0
  5  6  1  0
  5 24  1  0
  6  7  1  0
  6 14  1  0
  7  8  1  0
  7 25  1  0
  7 26  1  0
  8  9  2  0
  8 13  1  0
  9 10  1  0
  9 27  1  0
 10 11  2  0
 10 28  1  0
 11 12  1  0
 11 29  1  0
 12 13  2  0
 12 30  1  0
 13 31  1  0
 14 15  2  0
 14 32  1  0
 15 16  1  0
 16 17  2  0
 16 22  1  0
 17 18  1  0
 17 33  1  0
 18 19  2  0
 18 34  1  0
 19 20  1  0
 19 21  1  0
 21 22  2  0
 21 35  1  0
 22 36  1  0
M  END

