
     RDKit          3D

 36 37  0  0  0  0  0  0  0  0999 V2000
    1.2269    1.9178    1.5244 C   0  0  0  0  0  0  0  0  0  0  0  0
    2.6482    1.6766    1.7097 N   0  0  0  0  0  0  0  0  0  0  0  0
    3.1653    1.9951    3.0278 C   0  0  0  0  0  0  0  0  0  0  0  0
    3.3183    0.9595    0.7426 C   0  0  0  0  0  0  0  0  0  0  0  0
    2.7464    0.4594   -0.2142 O   0  0  0  0  0  0  0  0  0  0  0  0
    4.8214    0.8379    0.8550 C   0  0  0  0  0  0  0  0  0  0  0  0
    5.6493    1.9545    1.0384 C   0  0  0  0  0  0  0  0  0  0  0  0
    7.0357    1.8045    1.0015 C   0  0  0  0  0  0  0  0  0  0  0  0
    7.5930    0.5438    0.7988 C   0  0  0  0  0  0  0  0  0  0  0  0
    9.3415    0.3829    0.7696 Cl  0  0  0  0  0  0  0  0  0  0  0  0
    6.7805   -0.5981    0.6085 C   0  0  0  0  0  0  0  0  0  0  0  0
    7.3963   -1.8386    0.4057 N   0  0  0  0  0  0  0  0  0  0  0  0
    6.8153   -3.0762    0.2667 C   0  0  0  0  0  0  0  0  0  0  0  0
    5.6209   -3.3041    0.2798 O   0  0  0  0  0  0  0  0  0  0  0  0
    7.8454   -4.2044    0.1317 C   0  0  1  0  0  0  0  0  0  0  0  0
    7.3029   -5.4438   -0.6098 C   0  0  0  0  0  0  0  0  0  0  0  0
    8.7996   -6.3824   -1.1331 S   0  0  0  0  0  0  0  0  0  0  0  0
    9.9200   -4.9371   -0.6638 C   0  0  0  0  0  0  0  0  0  0  0  0
    9.0866   -3.7705   -0.5104 N   0  0  0  0  0  0  0  0  0  0  0  0
    5.3862   -0.4219    0.6236 C   0  0  0  0  0  0  0  0  0  0  0  0
    0.9872    2.9683    1.7616 H   0  0  0  0  0  0  0  0  0  0  0  0
    0.6200    1.2702    2.1841 H   0  0  0  0  0  0  0  0  0  0  0  0
    0.9606    1.7005    0.4839 H   0  0  0  0  0  0  0  0  0  0  0  0
    2.5294    1.5348    3.8061 H   0  0  0  0  0  0  0  0  0  0  0  0
    3.1738    3.0857    3.2075 H   0  0  0  0  0  0  0  0  0  0  0  0
    4.1837    1.6133    3.1565 H   0  0  0  0  0  0  0  0  0  0  0  0
    5.2186    2.9467    1.1874 H   0  0  0  0  0  0  0  0  0  0  0  0
    7.6971    2.6633    1.1271 H   0  0  0  0  0  0  0  0  0  0  0  0
    8.4153   -1.8367    0.3746 H   0  0  0  0  0  0  0  0  0  0  0  0
    8.1054   -4.5116    1.1627 H   0  0  0  0  0  0  0  0  0  0  0  0
    6.7056   -5.1497   -1.4860 H   0  0  0  0  0  0  0  0  0  0  0  0
    6.6716   -6.0630    0.0411 H   0  0  0  0  0  0  0  0  0  0  0  0
   10.6813   -4.7898   -1.4417 H   0  0  0  0  0  0  0  0  0  0  0  0
   10.4189   -5.1830    0.2857 H   0  0  0  0  0  0  0  0  0  0  0  0
    8.8625   -3.3994   -1.4368 H   0  0  0  0  0  0  0  0  0  0  0  0
    4.7454   -1.2823    0.4447 H   0  0  0  0  0  0  0  0  0  0  0  0
  1  2  1  0
  1 21  1  0
  1 22  1  0
  1 23  1  0
  2  3  1  0
  2  4  1  0
  3 24  1  0
  3 25  1  0
  3 26  1  0
  4  5  2  0
  4  6  1  0
  6  7  2  0
  6 20  1  0
  7  8  1  0
  7 27  1  0
  8  9  2  0
  8 28  1  0
  9 10  1  0
  9 11  1  0
 11 12  1  0
 11 20  2  0
 12 13  1  0
 12 29  1  0
 13 14  2  0
 13 15  1  0
 15 16  1  0
 15 19  1  0
 15 30  1  1
 16 17  1  0
 16 31  1  0
 16 32  1  0
 17 18  1  0
 18 19  1  0
 18 33  1  0
 18 34  1  0
 19 35  1  0
 20 36  1  0
M  END

