
     RDKit          3D

 46 47  0  0  0  0  0  0  0  0999 V2000
   11.3482    7.6004    5.4457 C   0  0  0  0  0  0  0  0  0  0  0  0
   10.2221    6.8380    4.8395 C   0  0  0  0  0  0  0  0  0  0  0  0
    9.9340    6.4394    3.5663 C   0  0  0  0  0  0  0  0  0  0  0  0
    8.6888    5.7391    3.7066 C   0  0  0  0  0  0  0  0  0  0  0  0
    8.0146    5.1483    2.6469 N   0  0  0  0  0  0  0  0  0  0  0  0
    6.8261    4.4405    2.6833 C   0  0  0  0  0  0  0  0  0  0  0  0
    6.1756    4.2354    3.6825 O   0  0  0  0  0  0  0  0  0  0  0  0
    6.4078    3.8855    1.3149 C   0  0  0  0  0  0  0  0  0  0  0  0
    6.6114    4.7976    0.0949 C   0  0  0  0  0  0  0  0  0  0  0  0
    8.0254    5.0676   -0.2152 N   0  0  0  0  0  0  0  0  0  0  0  0
    8.7401    3.9594   -0.8668 C   0  0  0  0  0  0  0  0  0  0  0  0
    8.4346    3.8333   -2.3638 C   0  0  0  0  0  0  0  0  0  0  0  0
    8.6630    5.1055   -3.0470 N   0  0  0  0  0  0  0  0  0  0  0  0
    9.4278    5.1160   -4.1978 C   0  0  0  0  0  0  0  0  0  0  0  0
    9.9547    4.0943   -4.6122 O   0  0  0  0  0  0  0  0  0  0  0  0
    9.6405    6.4531   -4.9266 C   0  0  1  0  0  0  0  0  0  0  0  0
   10.8204    7.2091   -4.2863 C   0  0  0  0  0  0  0  0  0  0  0  0
    9.8871    6.1979   -6.4168 C   0  0  0  0  0  0  0  0  0  0  0  0
    7.9560    6.2306   -2.4481 C   0  0  0  0  0  0  0  0  0  0  0  0
    8.2693    6.3143   -0.9442 C   0  0  0  0  0  0  0  0  0  0  0  0
    8.2720    5.7238    4.9555 N   0  0  0  0  0  0  0  0  0  0  0  0
    9.2487    6.4212    5.6640 O   0  0  0  0  0  0  0  0  0  0  0  0
   12.0754    7.8913    4.6759 H   0  0  0  0  0  0  0  0  0  0  0  0
   11.8648    6.9944    6.2075 H   0  0  0  0  0  0  0  0  0  0  0  0
   10.9796    8.5109    5.9453 H   0  0  0  0  0  0  0  0  0  0  0  0
   10.5128    6.6075    2.6618 H   0  0  0  0  0  0  0  0  0  0  0  0
    8.4196    5.2537    1.7088 H   0  0  0  0  0  0  0  0  0  0  0  0
    5.3409    3.6387    1.4092 H   0  0  0  0  0  0  0  0  0  0  0  0
    6.9307    2.9238    1.1676 H   0  0  0  0  0  0  0  0  0  0  0  0
    6.1271    5.7675    0.2931 H   0  0  0  0  0  0  0  0  0  0  0  0
    6.0675    4.3545   -0.7628 H   0  0  0  0  0  0  0  0  0  0  0  0
    8.5012    3.0156   -0.3541 H   0  0  0  0  0  0  0  0  0  0  0  0
    9.8229    4.1307   -0.7384 H   0  0  0  0  0  0  0  0  0  0  0  0
    7.3849    3.5169   -2.5183 H   0  0  0  0  0  0  0  0  0  0  0  0
    9.0793    3.0818   -2.8360 H   0  0  0  0  0  0  0  0  0  0  0  0
    8.7341    7.0731   -4.8321 H   0  0  0  0  0  0  0  0  0  0  0  0
   11.7384    6.6034   -4.3489 H   0  0  0  0  0  0  0  0  0  0  0  0
   10.6445    7.4403   -3.2235 H   0  0  0  0  0  0  0  0  0  0  0  0
   11.0035    8.1595   -4.8123 H   0  0  0  0  0  0  0  0  0  0  0  0
   10.7617    5.5466   -6.5555 H   0  0  0  0  0  0  0  0  0  0  0  0
   10.0621    7.1487   -6.9444 H   0  0  0  0  0  0  0  0  0  0  0  0
    9.0266    5.6971   -6.8864 H   0  0  0  0  0  0  0  0  0  0  0  0
    6.8646    6.1136   -2.5998 H   0  0  0  0  0  0  0  0  0  0  0  0
    8.2476    7.1720   -2.9269 H   0  0  0  0  0  0  0  0  0  0  0  0
    7.6828    7.1245   -0.4829 H   0  0  0  0  0  0  0  0  0  0  0  0
    9.3375    6.5722   -0.8299 H   0  0  0  0  0  0  0  0  0  0  0  0
  1  2  1  0
  1 23  1  0
  1 24  1  0
  1 25  1  0
  2  3  2  0
  2 22  1  0
  3  4  1  0
  3 26  1  0
  4  5  1  0
  4 21  2  0
  5  6  1  0
  5 27  1  0
  6  7  2  0
  6  8  1  0
  8  9  1  0
  8 28  1  0
  8 29  1  0
  9 10  1  0
  9 30  1  0
  9 31  1  0
 10 11  1  0
 10 20  1  0
 11 12  1  0
 11 32  1  0
 11 33  1  0
 12 13  1  0
 12 34  1  0
 12 35  1  0
 13 14  1  0
 13 19  1  0
 14 15  2  0
 14 16  1  0
 16 17  1  0
 16 18  1  0
 16 36  1  6
 17 37  1  0
 17 38  1  0
 17 39  1  0
 18 40  1  0
 18 41  1  0
 18 42  1  0
 19 20  1  0
 19 43  1  0
 19 44  1  0
 20 45  1  0
 20 46  1  0
 21 22  1  0
M  END

