
     RDKit          3D

 82 84  0  0  0  0  0  0  0  0999 V2000
   -0.1825    5.6892    3.7421 C   0  0  0  0  0  0  0  0  0  0  0  0
    1.3062    5.9750    3.9444 C   0  0  0  0  0  0  0  0  0  0  0  0
    2.1969    5.3965    2.8396 C   0  0  0  0  0  0  0  0  0  0  0  0
    3.6867    5.6911    3.0419 C   0  0  0  0  0  0  0  0  0  0  0  0
    4.6319    5.0284    2.0210 C   0  0  1  0  0  0  0  0  0  0  0  0
    4.3585    5.4123    0.5501 C   0  0  0  0  0  0  0  0  0  0  0  0
    4.4333    6.9053    0.2168 C   0  0  0  0  0  0  0  0  0  0  0  0
    6.0841    5.2876    2.4324 C   0  0  0  0  0  0  0  0  0  0  0  0
    6.9477    4.5507    1.5875 O   0  0  0  0  0  0  0  0  0  0  0  0
    8.3016    4.7269    1.6764 C   0  0  0  0  0  0  0  0  0  0  0  0
    8.9232    5.4606    2.6955 C   0  0  0  0  0  0  0  0  0  0  0  0
   10.3161    5.4661    2.8560 C   0  0  0  0  0  0  0  0  0  0  0  0
   11.0935    4.9471    1.8029 C   0  0  0  0  0  0  0  0  0  0  0  0
   12.4508    5.0574    1.9345 O   0  0  0  0  0  0  0  0  0  0  0  0
   13.2943    4.6513    0.8716 C   0  0  0  0  0  0  0  0  0  0  0  0
   14.7272    5.1002    1.1728 C   0  0  1  0  0  0  0  0  0  0  0  0
   15.2738    4.4907    2.4825 C   0  0  0  0  0  0  0  0  0  0  0  0
   15.5036    2.9764    2.4795 C   0  0  0  0  0  0  0  0  0  0  0  0
   15.6539    4.8455   -0.0335 C   0  0  0  0  0  0  0  0  0  0  0  0
   15.4513    5.7854   -1.2286 C   0  0  0  0  0  0  0  0  0  0  0  0
   16.4234    5.5222   -2.3835 C   0  0  0  0  0  0  0  0  0  0  0  0
   16.2318    6.4660   -3.5716 C   0  0  0  0  0  0  0  0  0  0  0  0
   10.4722    4.1954    0.7959 C   0  0  0  0  0  0  0  0  0  0  0  0
    9.0904    3.9585    0.7989 C   0  0  0  0  0  0  0  0  0  0  0  0
    8.5278    2.7153    0.1416 C   0  0  0  0  0  0  0  0  0  0  0  0
    8.3395    1.4927    1.1600 C   0  0  0  0  0  0  0  0  0  0  0  0
    9.0645    1.6967    2.4750 C   0  0  0  0  0  0  0  0  0  0  0  0
    8.3997    2.2551    3.5799 C   0  0  0  0  0  0  0  0  0  0  0  0
    9.1026    2.9669    4.5555 C   0  0  0  0  0  0  0  0  0  0  0  0
   10.4909    3.1508    4.4479 C   0  0  0  0  0  0  0  0  0  0  0  0
   11.1663    2.3346    3.5249 C   0  0  0  0  0  0  0  0  0  0  0  0
   10.4640    1.6136    2.5564 C   0  0  0  0  0  0  0  0  0  0  0  0
   11.1761    4.3601    5.0513 C   0  0  0  0  0  0  0  0  0  0  0  0
   10.9224    5.7091    4.2220 C   0  0  0  0  0  0  0  0  0  0  0  0
   -0.7916    6.1180    4.5538 H   0  0  0  0  0  0  0  0  0  0  0  0
   -0.3823    4.6048    3.7137 H   0  0  0  0  0  0  0  0  0  0  0  0
   -0.5474    6.1149    2.7921 H   0  0  0  0  0  0  0  0  0  0  0  0
    1.6300    5.5712    4.9211 H   0  0  0  0  0  0  0  0  0  0  0  0
    1.4672    7.0670    4.0051 H   0  0  0  0  0  0  0  0  0  0  0  0
    1.8609    5.7946    1.8659 H   0  0  0  0  0  0  0  0  0  0  0  0
    2.0454    4.3021    2.7851 H   0  0  0  0  0  0  0  0  0  0  0  0
    3.9755    5.3528    4.0539 H   0  0  0  0  0  0  0  0  0  0  0  0
    3.8435    6.7855    3.0426 H   0  0  0  0  0  0  0  0  0  0  0  0
    4.4838    3.9349    2.0941 H   0  0  0  0  0  0  0  0  0  0  0  0
    3.3647    5.0273    0.2659 H   0  0  0  0  0  0  0  0  0  0  0  0
    5.0818    4.8662   -0.0760 H   0  0  0  0  0  0  0  0  0  0  0  0
    3.6841    7.4960    0.7686 H   0  0  0  0  0  0  0  0  0  0  0  0
    4.2498    7.0703   -0.8569 H   0  0  0  0  0  0  0  0  0  0  0  0
    5.4243    7.3315    0.4425 H   0  0  0  0  0  0  0  0  0  0  0  0
    6.2308    4.9826    3.4862 H   0  0  0  0  0  0  0  0  0  0  0  0
    6.3236    6.3663    2.3706 H   0  0  0  0  0  0  0  0  0  0  0  0
    8.3172    5.9000    3.4888 H   0  0  0  0  0  0  0  0  0  0  0  0
   12.9398    5.1018   -0.0727 H   0  0  0  0  0  0  0  0  0  0  0  0
   13.2525    3.5523    0.7430 H   0  0  0  0  0  0  0  0  0  0  0  0
   14.6767    6.1927    1.3325 H   0  0  0  0  0  0  0  0  0  0  0  0
   14.5799    4.7520    3.2976 H   0  0  0  0  0  0  0  0  0  0  0  0
   16.2266    4.9967    2.7189 H   0  0  0  0  0  0  0  0  0  0  0  0
   14.5757    2.4150    2.2818 H   0  0  0  0  0  0  0  0  0  0  0  0
   15.8807    2.6400    3.4585 H   0  0  0  0  0  0  0  0  0  0  0  0
   16.2432    2.6691    1.7227 H   0  0  0  0  0  0  0  0  0  0  0  0
   15.5494    3.7985   -0.3733 H   0  0  0  0  0  0  0  0  0  0  0  0
   16.6998    4.9403    0.3094 H   0  0  0  0  0  0  0  0  0  0  0  0
   15.5640    6.8319   -0.8892 H   0  0  0  0  0  0  0  0  0  0  0  0
   14.4171    5.7051   -1.6090 H   0  0  0  0  0  0  0  0  0  0  0  0
   16.3104    4.4758   -2.7215 H   0  0  0  0  0  0  0  0  0  0  0  0
   17.4605    5.6044   -2.0101 H   0  0  0  0  0  0  0  0  0  0  0  0
   15.2158    6.3803   -3.9924 H   0  0  0  0  0  0  0  0  0  0  0  0
   16.9462    6.2482   -4.3815 H   0  0  0  0  0  0  0  0  0  0  0  0
   16.3761    7.5185   -3.2749 H   0  0  0  0  0  0  0  0  0  0  0  0
   11.0852    3.6333    0.0899 H   0  0  0  0  0  0  0  0  0  0  0  0
    9.2119    2.3991   -0.6609 H   0  0  0  0  0  0  0  0  0  0  0  0
    7.5532    2.9174   -0.3259 H   0  0  0  0  0  0  0  0  0  0  0  0
    8.6869    0.5775    0.6531 H   0  0  0  0  0  0  0  0  0  0  0  0
    7.2642    1.3627    1.3537 H   0  0  0  0  0  0  0  0  0  0  0  0
    7.3059    2.2566    3.6017 H   0  0  0  0  0  0  0  0  0  0  0  0
    8.5440    3.5078    5.3259 H   0  0  0  0  0  0  0  0  0  0  0  0
   12.2580    2.3764    3.4721 H   0  0  0  0  0  0  0  0  0  0  0  0
   11.0216    1.1010    1.7661 H   0  0  0  0  0  0  0  0  0  0  0  0
   12.2607    4.1793    5.0989 H   0  0  0  0  0  0  0  0  0  0  0  0
   10.8350    4.5320    6.0852 H   0  0  0  0  0  0  0  0  0  0  0  0
   11.8808    6.2415    4.1387 H   0  0  0  0  0  0  0  0  0  0  0  0
   10.2434    6.3519    4.8033 H   0  0  0  0  0  0  0  0  0  0  0  0
  1  2  1  0
  1 35  1  0
  1 36  1  0
  1 37  1  0
  2  3  1  0
  2 38  1  0
  2 39  1  0
  3  4  1  0
  3 40  1  0
  3 41  1  0
  4  5  1  0
  4 42  1  0
  4 43  1  0
  5  6  1  0
  5  8  1  0
  5 44  1  6
  6  7  1  0
  6 45  1  0
  6 46  1  0
  7 47  1  0
  7 48  1  0
  7 49  1  0
  8  9  1  0
  8 50  1  0
  8 51  1  0
  9 10  1  0
 10 11  2  0
 10 24  1  0
 11 12  1  0
 11 52  1  0
 12 13  2  0
 12 34  1  0
 13 14  1  0
 13 23  1  0
 14 15  1  0
 15 16  1  0
 15 53  1  0
 15 54  1  0
 16 17  1  0
 16 19  1  0
 16 55  1  1
 17 18  1  0
 17 56  1  0
 17 57  1  0
 18 58  1  0
 18 59  1  0
 18 60  1  0
 19 20  1  0
 19 61  1  0
 19 62  1  0
 20 21  1  0
 20 63  1  0
 20 64  1  0
 21 22  1  0
 21 65  1  0
 21 66  1  0
 22 67  1  0
 22 68  1  0
 22 69  1  0
 23 24  2  0
 23 70  1  0
 24 25  1  0
 25 26  1  0
 25 71  1  0
 25 72  1  0
 26 27  1  0
 26 73  1  0
 26 74  1  0
 27 28  2  0
 27 32  1  0
 28 29  1  0
 28 75  1  0
 29 30  2  0
 29 76  1  0
 30 31  1  0
 30 33  1  0
 31 32  2  0
 31 77  1  0
 32 78  1  0
 33 34  1  0
 33 79  1  0
 33 80  1  0
 34 81  1  0
 34 82  1  0
M  END

