
     RDKit          3D

 59 62  0  0  0  0  0  0  0  0999 V2000
    5.8750    0.6735   -0.0177 C   0  0  0  0  0  0  0  0  0  0  0  0
    7.0516    0.8521   -0.2394 C   0  0  0  0  0  0  0  0  0  0  0  0
    8.4788    1.0615   -0.4833 C   0  0  0  0  0  0  0  0  0  0  0  0
    8.7837    1.1239   -1.8845 O   0  0  0  0  0  0  0  0  0  0  0  0
    8.9074    2.3562   -2.4420 C   0  0  0  0  0  0  0  0  0  0  0  0
    8.8173    3.3784   -1.8096 O   0  0  0  0  0  0  0  0  0  0  0  0
    9.1654    2.2316   -3.9252 C   0  0  0  0  0  0  0  0  0  0  0  0
    9.5553    3.5443   -4.6495 C   0  0  1  0  0  0  0  0  0  0  0  0
    8.4322    4.5695   -4.6609 C   0  0  0  0  0  0  0  0  0  0  0  0
    7.3027    4.2383   -5.5032 C   0  0  0  0  0  0  0  0  0  0  0  0
    7.2180    3.2398   -6.1985 O   0  0  0  0  0  0  0  0  0  0  0  0
    6.2706    5.1539   -5.4812 O   0  0  0  0  0  0  0  0  0  0  0  0
    5.1549    4.8392   -6.3207 C   0  0  0  0  0  0  0  0  0  0  0  0
    4.1412    5.8805   -6.1775 C   0  0  0  0  0  0  0  0  0  0  0  0
    3.2858    6.7310   -6.0747 C   0  0  0  0  0  0  0  0  0  0  0  0
    8.5097    5.6995   -3.8675 C   0  0  0  0  0  0  0  0  0  0  0  0
    7.5550    6.6265   -3.6640 N   0  0  0  0  0  0  0  0  0  0  0  0
    9.6244    6.0214   -3.1733 O   0  0  0  0  0  0  0  0  0  0  0  0
   10.7984    5.3344   -3.3718 C   0  0  0  0  0  0  0  0  0  0  0  0
   11.9468    5.9090   -2.8309 C   0  0  0  0  0  0  0  0  0  0  0  0
   13.1792    5.2819   -3.0229 C   0  0  0  0  0  0  0  0  0  0  0  0
   13.2692    4.0681   -3.7463 C   0  0  0  0  0  0  0  0  0  0  0  0
   12.0841    3.5409   -4.2827 C   0  0  0  0  0  0  0  0  0  0  0  0
   10.8358    4.1451   -4.1073 C   0  0  0  0  0  0  0  0  0  0  0  0
   14.5867    3.4059   -3.8289 C   0  0  0  0  0  0  0  0  0  0  0  0
   14.7386    2.0526   -4.1955 C   0  0  0  0  0  0  0  0  0  0  0  0
   16.0148    1.4861   -4.2307 C   0  0  0  0  0  0  0  0  0  0  0  0
   16.2708    0.1969   -4.5728 O   0  0  0  0  0  0  0  0  0  0  0  0
   15.2017   -0.6485   -4.9313 C   0  0  0  0  0  0  0  0  0  0  0  0
   17.1477    2.2505   -3.8937 C   0  0  0  0  0  0  0  0  0  0  0  0
   16.9903    3.5857   -3.5204 C   0  0  0  0  0  0  0  0  0  0  0  0
   18.0237    4.4056   -3.1895 O   0  0  0  0  0  0  0  0  0  0  0  0
   19.3373    3.8924   -3.1728 C   0  0  0  0  0  0  0  0  0  0  0  0
   15.7077    4.1708   -3.4792 C   0  0  0  0  0  0  0  0  0  0  0  0
   15.5187    5.6200   -3.1187 C   0  0  0  0  0  0  0  0  0  0  0  0
   14.2725    5.8557   -2.4631 O   0  0  0  0  0  0  0  0  0  0  0  0
    4.8297    0.5191    0.1741 H   0  0  0  0  0  0  0  0  0  0  0  0
    9.0594    0.2153   -0.0848 H   0  0  0  0  0  0  0  0  0  0  0  0
    8.8138    1.9902    0.0041 H   0  0  0  0  0  0  0  0  0  0  0  0
    8.2550    1.8220   -4.3933 H   0  0  0  0  0  0  0  0  0  0  0  0
    9.9401    1.4600   -4.0652 H   0  0  0  0  0  0  0  0  0  0  0  0
    9.7303    3.2399   -5.6947 H   0  0  0  0  0  0  0  0  0  0  0  0
    4.7462    3.8522   -6.0457 H   0  0  0  0  0  0  0  0  0  0  0  0
    5.4869    4.7566   -7.3695 H   0  0  0  0  0  0  0  0  0  0  0  0
    2.5261    7.4847   -5.9846 H   0  0  0  0  0  0  0  0  0  0  0  0
    6.6715    6.5310   -4.1496 H   0  0  0  0  0  0  0  0  0  0  0  0
    7.7898    7.4547   -3.1348 H   0  0  0  0  0  0  0  0  0  0  0  0
   11.8907    6.8433   -2.2723 H   0  0  0  0  0  0  0  0  0  0  0  0
   12.1313    2.6177   -4.8654 H   0  0  0  0  0  0  0  0  0  0  0  0
   13.8605    1.4543   -4.4276 H   0  0  0  0  0  0  0  0  0  0  0  0
   15.6426   -1.6244   -5.1757 H   0  0  0  0  0  0  0  0  0  0  0  0
   14.6567   -0.2711   -5.8154 H   0  0  0  0  0  0  0  0  0  0  0  0
   14.4835   -0.7792   -4.1018 H   0  0  0  0  0  0  0  0  0  0  0  0
   18.1203    1.7638   -3.9384 H   0  0  0  0  0  0  0  0  0  0  0  0
   19.9923    4.7187   -2.8656 H   0  0  0  0  0  0  0  0  0  0  0  0
   19.6509    3.5380   -4.1709 H   0  0  0  0  0  0  0  0  0  0  0  0
   19.4436    3.0622   -2.4519 H   0  0  0  0  0  0  0  0  0  0  0  0
   15.5704    6.2628   -4.0224 H   0  0  0  0  0  0  0  0  0  0  0  0
   16.2997    5.9592   -2.4272 H   0  0  0  0  0  0  0  0  0  0  0  0
  1  2  3  0
  1 37  1  0
  2  3  1  0
  3  4  1  0
  3 38  1  0
  3 39  1  0
  4  5  1  0
  5  6  2  0
  5  7  1  0
  7  8  1  0
  7 40  1  0
  7 41  1  0
  8  9  1  0
  8 24  1  0
  8 42  1  6
  9 10  1  0
  9 16  2  0
 10 11  2  0
 10 12  1  0
 12 13  1  0
 13 14  1  0
 13 43  1  0
 13 44  1  0
 14 15  3  0
 15 45  1  0
 16 17  1  0
 16 18  1  0
 17 46  1  0
 17 47  1  0
 18 19  1  0
 19 20  1  0
 19 24  2  0
 20 21  2  0
 20 48  1  0
 21 22  1  0
 21 36  1  0
 22 23  2  0
 22 25  1  0
 23 24  1  0
 23 49  1  0
 25 26  2  0
 25 34  1  0
 26 27  1  0
 26 50  1  0
 27 28  1  0
 27 30  2  0
 28 29  1  0
 29 51  1  0
 29 52  1  0
 29 53  1  0
 30 31  1  0
 30 54  1  0
 31 32  1  0
 31 34  2  0
 32 33  1  0
 33 55  1  0
 33 56  1  0
 33 57  1  0
 34 35  1  0
 35 36  1  0
 35 58  1  0
 35 59  1  0
M  END

