
     RDKit          3D

 45 46  0  0  0  0  0  0  0  0999 V2000
    1.0074   -8.2529    5.9927 C   0  0  0  0  0  0  0  0  0  0  0  0
    2.0341   -7.1507    6.2950 C   0  0  0  0  0  0  0  0  0  0  0  0
    2.6292   -6.5340    5.0641 C   0  0  0  0  0  0  0  0  0  0  0  0
    3.8395   -6.8685    4.6195 N   0  0  0  0  0  0  0  0  0  0  0  0
    4.0428   -6.1683    3.4907 N   0  0  0  0  0  0  0  0  0  0  0  0
    5.3299   -6.2657    2.8291 C   0  0  0  0  0  0  0  0  0  0  0  0
    2.9871   -5.3556    3.1796 C   0  0  0  0  0  0  0  0  0  0  0  0
    2.9300   -4.4557    1.9824 C   0  0  0  0  0  0  0  0  0  0  0  0
    2.0972   -4.9630    0.8918 N   0  0  0  0  0  0  0  0  0  0  0  0
    2.2946   -6.1440    0.2036 C   0  0  0  0  0  0  0  0  0  0  0  0
    1.3055   -6.1893   -0.7510 C   0  0  0  0  0  0  0  0  0  0  0  0
    0.5154   -5.0736   -0.6685 N   0  0  0  0  0  0  0  0  0  0  0  0
    1.0006   -4.3524    0.3233 C   0  0  0  0  0  0  0  0  0  0  0  0
    0.4188   -3.0455    0.7752 C   0  0  0  0  0  0  0  0  0  0  0  0
    1.3758   -1.9406    0.6776 N   0  0  0  0  0  0  0  0  0  0  0  0
    0.8205   -0.6007    0.8987 C   0  0  0  0  0  0  0  0  0  0  0  0
    1.0912    0.0074    2.2907 C   0  0  1  0  0  0  0  0  0  0  0  0
    0.4147   -0.7636    3.4309 C   0  0  0  0  0  0  0  0  0  0  0  0
    2.5919    0.1885    2.5455 C   0  0  0  0  0  0  0  0  0  0  0  0
    2.0555   -5.5813    4.1856 C   0  0  0  0  0  0  0  0  0  0  0  0
    0.5003   -4.8328    4.3400 Cl  0  0  0  0  0  0  0  0  0  0  0  0
    0.6016   -8.6763    6.9253 H   0  0  0  0  0  0  0  0  0  0  0  0
    1.4675   -9.0720    5.4180 H   0  0  0  0  0  0  0  0  0  0  0  0
    0.1634   -7.8596    5.4047 H   0  0  0  0  0  0  0  0  0  0  0  0
    2.8597   -7.5590    6.8981 H   0  0  0  0  0  0  0  0  0  0  0  0
    1.5550   -6.3585    6.8947 H   0  0  0  0  0  0  0  0  0  0  0  0
    5.8413   -7.1377    3.2536 H   0  0  0  0  0  0  0  0  0  0  0  0
    5.9464   -5.3688    3.0060 H   0  0  0  0  0  0  0  0  0  0  0  0
    5.2116   -6.4097    1.7451 H   0  0  0  0  0  0  0  0  0  0  0  0
    3.9469   -4.2747    1.5994 H   0  0  0  0  0  0  0  0  0  0  0  0
    2.5310   -3.4706    2.2552 H   0  0  0  0  0  0  0  0  0  0  0  0
    3.0942   -6.8352    0.4581 H   0  0  0  0  0  0  0  0  0  0  0  0
    1.1259   -6.9693   -1.4903 H   0  0  0  0  0  0  0  0  0  0  0  0
    0.0751   -3.1302    1.8197 H   0  0  0  0  0  0  0  0  0  0  0  0
   -0.4858   -2.8944    0.1537 H   0  0  0  0  0  0  0  0  0  0  0  0
    1.8119   -1.9780   -0.2409 H   0  0  0  0  0  0  0  0  0  0  0  0
   -0.2733   -0.5919    0.7098 H   0  0  0  0  0  0  0  0  0  0  0  0
    1.2633    0.0773    0.1493 H   0  0  0  0  0  0  0  0  0  0  0  0
    0.6313    1.0137    2.2585 H   0  0  0  0  0  0  0  0  0  0  0  0
    0.8468   -1.7685    3.5621 H   0  0  0  0  0  0  0  0  0  0  0  0
   -0.6667   -0.8841    3.2524 H   0  0  0  0  0  0  0  0  0  0  0  0
    0.5354   -0.2319    4.3889 H   0  0  0  0  0  0  0  0  0  0  0  0
    3.1089   -0.7841    2.5315 H   0  0  0  0  0  0  0  0  0  0  0  0
    2.7778    0.6597    3.5242 H   0  0  0  0  0  0  0  0  0  0  0  0
    3.0576    0.8239    1.7737 H   0  0  0  0  0  0  0  0  0  0  0  0
  1  2  1  0
  1 22  1  0
  1 23  1  0
  1 24  1  0
  2  3  1  0
  2 25  1  0
  2 26  1  0
  3  4  2  0
  3 20  1  0
  4  5  1  0
  5  6  1  0
  5  7  1  0
  6 27  1  0
  6 28  1  0
  6 29  1  0
  7  8  1  0
  7 20  2  0
  8  9  1  0
  8 30  1  0
  8 31  1  0
  9 10  1  0
  9 13  1  0
 10 11  2  0
 10 32  1  0
 11 12  1  0
 11 33  1  0
 12 13  2  0
 13 14  1  0
 14 15  1  0
 14 34  1  0
 14 35  1  0
 15 16  1  0
 15 36  1  0
 16 17  1  0
 16 37  1  0
 16 38  1  0
 17 18  1  0
 17 19  1  0
 17 39  1  6
 18 40  1  0
 18 41  1  0
 18 42  1  0
 19 43  1  0
 19 44  1  0
 19 45  1  0
 20 21  1  0
M  END

