
     RDKit          3D

 40 40  0  0  0  0  0  0  0  0999 V2000
    2.9246   -1.2593   -0.5076 C   0  0  0  0  0  0  0  0  0  0  0  0
    2.3943    0.0733    0.0270 C   0  0  0  0  0  0  0  0  0  0  0  0
    2.8252    0.4509    1.4619 C   0  0  1  0  0  0  0  0  0  0  0  0
    2.2667   -0.5651    2.4666 C   0  0  0  0  0  0  0  0  0  0  0  0
    4.3102    0.5976    1.5496 N   0  0  0  0  0  0  0  0  0  0  0  0
    4.9747    1.3950    0.4945 C   0  0  0  0  0  0  0  0  0  0  0  0
    4.5756    2.8701    0.4272 C   0  0  0  0  0  0  0  0  0  0  0  0
    4.9690    0.8752    3.1034 S   0  0  1  0  0  0  0  0  0  0  0  0
    6.3028    1.4517    2.8936 O   0  0  0  0  0  0  0  0  0  0  0  0
    4.0013    1.5798    3.9577 O   0  0  0  0  0  0  0  0  0  0  0  0
    5.2183   -0.7660    3.7922 C   0  0  0  0  0  0  0  0  0  0  0  0
    5.9244   -1.7294    3.0652 C   0  0  0  0  0  0  0  0  0  0  0  0
    6.2011   -2.9591    3.6601 C   0  0  0  0  0  0  0  0  0  0  0  0
    5.7861   -3.2392    4.9734 C   0  0  0  0  0  0  0  0  0  0  0  0
    6.0605   -4.6001    5.5880 C   0  0  0  0  0  0  0  0  0  0  0  0
    6.1076   -4.5571    7.0422 N   0  0  0  0  0  0  0  0  0  0  0  0
    5.0923   -2.2515    5.6865 C   0  0  0  0  0  0  0  0  0  0  0  0
    4.8088   -1.0139    5.1032 C   0  0  0  0  0  0  0  0  0  0  0  0
    2.5810   -1.4258   -1.5409 H   0  0  0  0  0  0  0  0  0  0  0  0
    2.5758   -2.1118    0.0951 H   0  0  0  0  0  0  0  0  0  0  0  0
    4.0254   -1.2894   -0.5113 H   0  0  0  0  0  0  0  0  0  0  0  0
    1.2912    0.0512    0.0359 H   0  0  0  0  0  0  0  0  0  0  0  0
    2.6574    0.8842   -0.6700 H   0  0  0  0  0  0  0  0  0  0  0  0
    2.3588    1.4266    1.6939 H   0  0  0  0  0  0  0  0  0  0  0  0
    2.7404   -1.5518    2.3619 H   0  0  0  0  0  0  0  0  0  0  0  0
    1.1865   -0.6818    2.2873 H   0  0  0  0  0  0  0  0  0  0  0  0
    2.3920   -0.2252    3.5011 H   0  0  0  0  0  0  0  0  0  0  0  0
    4.7752    0.8934   -0.4633 H   0  0  0  0  0  0  0  0  0  0  0  0
    6.0548    1.3182    0.6663 H   0  0  0  0  0  0  0  0  0  0  0  0
    3.5010    3.0082    0.2291 H   0  0  0  0  0  0  0  0  0  0  0  0
    5.1302    3.3716   -0.3825 H   0  0  0  0  0  0  0  0  0  0  0  0
    4.8211    3.3810    1.3705 H   0  0  0  0  0  0  0  0  0  0  0  0
    6.2510   -1.5182    2.0455 H   0  0  0  0  0  0  0  0  0  0  0  0
    6.7559   -3.7149    3.0960 H   0  0  0  0  0  0  0  0  0  0  0  0
    6.9690   -5.0211    5.1063 H   0  0  0  0  0  0  0  0  0  0  0  0
    5.2345   -5.2774    5.3011 H   0  0  0  0  0  0  0  0  0  0  0  0
    6.9450   -4.0689    7.3619 H   0  0  0  0  0  0  0  0  0  0  0  0
    6.1463   -5.4984    7.4300 H   0  0  0  0  0  0  0  0  0  0  0  0
    4.7839   -2.4675    6.7110 H   0  0  0  0  0  0  0  0  0  0  0  0
    4.2701   -0.2399    5.6529 H   0  0  0  0  0  0  0  0  0  0  0  0
  1  2  1  0
  1 19  1  0
  1 20  1  0
  1 21  1  0
  2  3  1  0
  2 22  1  0
  2 23  1  0
  3  4  1  0
  3  5  1  0
  3 24  1  1
  4 25  1  0
  4 26  1  0
  4 27  1  0
  5  6  1  0
  8  5  1  6
  6  7  1  0
  6 28  1  0
  6 29  1  0
  7 30  1  0
  7 31  1  0
  7 32  1  0
  8  9  2  0
  8 10  2  0
  8 11  1  0
 11 12  2  0
 11 18  1  0
 12 13  1  0
 12 33  1  0
 13 14  2  0
 13 34  1  0
 14 15  1  0
 14 17  1  0
 15 16  1  0
 15 35  1  0
 15 36  1  0
 16 37  1  0
 16 38  1  0
 17 18  2  0
 17 39  1  0
 18 40  1  0
M  END

