
     RDKit          3D

 41 44  0  0  0  0  0  0  0  0999 V2000
    0.9932    0.1241   -0.1678 O   0  0  0  0  0  0  0  0  0  0  0  0
    2.2102    0.0513   -0.0932 C   0  0  0  0  0  0  0  0  0  0  0  0
    2.9064   -1.1499   -0.6552 C   0  0  0  0  0  0  0  0  0  0  0  0
    4.0880   -1.2698   -1.3690 C   0  0  0  0  0  0  0  0  0  0  0  0
    4.3153   -2.5846   -1.8460 C   0  0  0  0  0  0  0  0  0  0  0  0
    3.2902   -3.4248   -1.4776 C   0  0  0  0  0  0  0  0  0  0  0  0
    3.1977   -4.8368   -1.7803 N   0  0  0  0  0  0  0  0  0  0  0  0
    4.1109   -5.3318   -2.4209 O   0  0  0  0  0  0  0  0  0  0  0  0
    2.2072   -5.4237   -1.3679 O   0  0  0  0  0  0  0  0  0  0  0  0
    2.0308   -2.6484   -0.5852 S   0  0  0  0  0  0  0  0  0  0  0  0
    2.9762    1.0579    0.4545 N   0  0  0  0  0  0  0  0  0  0  0  0
    4.3154    0.9272    1.0237 C   0  0  0  0  0  0  0  0  0  0  0  0
    5.1823    2.1222    0.6322 C   0  0  0  0  0  0  0  0  0  0  0  0
    4.5054    3.3727    0.9733 N   0  0  0  0  0  0  0  0  0  0  0  0
    5.2381    4.4241    1.4288 C   0  0  0  0  0  0  0  0  0  0  0  0
    6.5029    4.3521    1.7359 N   0  0  0  0  0  0  0  0  0  0  0  0
    6.9798    5.5503    2.2018 C   0  0  0  0  0  0  0  0  0  0  0  0
    8.2997    5.7983    2.6239 C   0  0  0  0  0  0  0  0  0  0  0  0
    8.6510    7.0651    3.0740 C   0  0  0  0  0  0  0  0  0  0  0  0
    7.6879    8.0855    3.1038 C   0  0  0  0  0  0  0  0  0  0  0  0
    8.0766    9.4213    3.5830 N   0  0  0  0  0  0  0  0  0  0  0  0
    9.2344    9.5823    3.9380 O   0  0  0  0  0  0  0  0  0  0  0  0
    7.2172   10.2909    3.5973 O   0  0  0  0  0  0  0  0  0  0  0  0
    6.3667    7.8851    2.6950 C   0  0  0  0  0  0  0  0  0  0  0  0
    6.0320    6.6129    2.2477 C   0  0  0  0  0  0  0  0  0  0  0  0
    4.4799    6.0305    1.6631 S   0  0  0  0  0  0  0  0  0  0  0  0
    3.1372    3.5035    0.4865 C   0  0  0  0  0  0  0  0  0  0  0  0
    2.3024    2.2821    0.8758 C   0  0  0  0  0  0  0  0  0  0  0  0
    4.7557   -0.4329   -1.5753 H   0  0  0  0  0  0  0  0  0  0  0  0
    5.1709   -2.9181   -2.4318 H   0  0  0  0  0  0  0  0  0  0  0  0
    4.7861   -0.0053    0.6957 H   0  0  0  0  0  0  0  0  0  0  0  0
    4.2347    0.8877    2.1269 H   0  0  0  0  0  0  0  0  0  0  0  0
    5.3888    2.0959   -0.4559 H   0  0  0  0  0  0  0  0  0  0  0  0
    6.1433    2.1009    1.1602 H   0  0  0  0  0  0  0  0  0  0  0  0
    9.0293    4.9876    2.5913 H   0  0  0  0  0  0  0  0  0  0  0  0
    9.6628    7.2921    3.4081 H   0  0  0  0  0  0  0  0  0  0  0  0
    5.6590    8.7120    2.7390 H   0  0  0  0  0  0  0  0  0  0  0  0
    3.1330    3.6202   -0.6148 H   0  0  0  0  0  0  0  0  0  0  0  0
    2.6758    4.4023    0.9196 H   0  0  0  0  0  0  0  0  0  0  0  0
    1.3140    2.3158    0.4022 H   0  0  0  0  0  0  0  0  0  0  0  0
    2.1530    2.2702    1.9721 H   0  0  0  0  0  0  0  0  0  0  0  0
  1  2  2  0
  2  3  1  0
  2 11  1  0
  3  4  2  0
  3 10  1  0
  4  5  1  0
  4 29  1  0
  5  6  2  0
  5 30  1  0
  6  7  1  0
  6 10  1  0
  7  8  1  0
  7  9  1  0
 11 12  1  0
 11 28  1  0
 12 13  1  0
 12 31  1  0
 12 32  1  0
 13 14  1  0
 13 33  1  0
 13 34  1  0
 14 15  2  0
 14 27  1  0
 15 16  1  0
 15 26  1  0
 16 17  2  0
 17 18  1  0
 17 25  1  0
 18 19  2  0
 18 35  1  0
 19 20  1  0
 19 36  1  0
 20 21  1  0
 20 24  2  0
 21 22  2  0
 21 23  1  0
 24 25  1  0
 24 37  1  0
 25 26  2  0
 27 28  1  0
 27 38  1  0
 27 39  1  0
 28 40  1  0
 28 41  1  0
M  CHG  6   8  -1   9  -1  14   1  21   1  23  -1  26   1
M  END

