
     RDKit          3D

 26 27  0  0  0  0  0  0  0  0999 V2000
    2.9764    0.0136    2.5602 O   0  0  0  0  0  0  0  0  0  0  0  0
    2.4637    0.1555    1.2021 S   0  0  1  0  0  0  0  0  0  0  0  0
    1.0604    0.4617    0.9241 O   0  0  0  0  0  0  0  0  0  0  0  0
    3.3939    1.4738    0.3943 C   0  0  0  0  0  0  0  0  0  0  0  0
    2.7572    2.3179   -0.5731 C   0  0  0  0  0  0  0  0  0  0  0  0
    3.6102    3.2585   -1.0798 C   0  0  0  0  0  0  0  0  0  0  0  0
    3.2566    4.4710   -2.2506 Cl  0  0  0  0  0  0  0  0  0  0  0  0
    5.2096    3.1468   -0.3888 S   0  0  0  0  0  0  0  0  0  0  0  0
    4.7160    1.8000    0.6024 C   0  0  0  0  0  0  0  0  0  0  0  0
    5.8644    1.0918    1.6678 Cl  0  0  0  0  0  0  0  0  0  0  0  0
    2.8107   -1.2658    0.3962 N   0  0  0  0  0  0  0  0  0  0  0  0
    4.0693   -1.9664    0.6674 C   0  0  0  0  0  0  0  0  0  0  0  0
    3.8646   -3.4596    0.4143 C   0  0  0  0  0  0  0  0  0  0  0  0
    3.3679   -3.6579   -0.9403 N   0  0  0  0  0  0  0  0  0  0  0  0
    2.0836   -3.0037   -1.1466 C   0  0  0  0  0  0  0  0  0  0  0  0
    2.2390   -1.4979   -0.9335 C   0  0  0  0  0  0  0  0  0  0  0  0
    1.7064    2.2265   -0.8430 H   0  0  0  0  0  0  0  0  0  0  0  0
    4.3518   -1.7862    1.7120 H   0  0  0  0  0  0  0  0  0  0  0  0
    4.8761   -1.5927    0.0075 H   0  0  0  0  0  0  0  0  0  0  0  0
    3.1738   -3.8516    1.1936 H   0  0  0  0  0  0  0  0  0  0  0  0
    4.8305   -3.9772    0.5293 H   0  0  0  0  0  0  0  0  0  0  0  0
    3.3103   -4.6488   -1.1644 H   0  0  0  0  0  0  0  0  0  0  0  0
    1.2917   -3.3710   -0.4564 H   0  0  0  0  0  0  0  0  0  0  0  0
    1.7415   -3.1853   -2.1782 H   0  0  0  0  0  0  0  0  0  0  0  0
    1.2614   -1.0021   -0.9860 H   0  0  0  0  0  0  0  0  0  0  0  0
    2.8996   -1.0848   -1.7212 H   0  0  0  0  0  0  0  0  0  0  0  0
  1  2  2  0
  2  3  2  0
  2  4  1  6
  2 11  1  0
  4  5  1  0
  4  9  2  0
  5  6  2  0
  5 17  1  0
  6  7  1  0
  6  8  1  0
  8  9  1  0
  9 10  1  0
 11 12  1  0
 11 16  1  0
 12 13  1  0
 12 18  1  0
 12 19  1  0
 13 14  1  0
 13 20  1  0
 13 21  1  0
 14 15  1  0
 14 22  1  0
 15 16  1  0
 15 23  1  0
 15 24  1  0
 16 25  1  0
 16 26  1  0
M  END

