
     RDKit          3D

 66 69  0  0  0  0  0  0  0  0999 V2000
    4.2887    6.3700   -5.9888 C   0  0  0  0  0  0  0  0  0  0  0  0
    4.1643    6.3896   -4.4669 C   0  0  0  0  0  0  0  0  0  0  0  0
    5.4067    6.7179   -3.7674 N   0  0  0  0  0  0  0  0  0  0  0  0
    5.9537    8.0469   -4.0489 C   0  0  0  0  0  0  0  0  0  0  0  0
    5.1189    9.2530   -3.5932 C   0  0  0  0  0  0  0  0  0  0  0  0
    5.3715    6.3757   -2.3450 C   0  0  0  0  0  0  0  0  0  0  0  0
    5.5704    4.8776   -2.0966 C   0  0  0  0  0  0  0  0  0  0  0  0
    6.7712    4.4248   -2.7619 N   0  0  0  0  0  0  0  0  0  0  0  0
    7.4877    3.3385   -2.3398 C   0  0  0  0  0  0  0  0  0  0  0  0
    7.1637    2.6925   -1.3486 O   0  0  0  0  0  0  0  0  0  0  0  0
    8.6862    2.9994   -3.1507 C   0  0  0  0  0  0  0  0  0  0  0  0
    9.3249    3.7988   -4.1120 C   0  0  0  0  0  0  0  0  0  0  0  0
   10.3820    3.1329   -4.6059 N   0  0  0  0  0  0  0  0  0  0  0  0
   11.0705    3.4299   -5.3171 H   0  0  0  0  0  0  0  0  0  0  0  0
   10.4812    1.8898   -3.9998 C   0  0  0  0  0  0  0  0  0  0  0  0
   11.4824    0.9210   -4.2879 C   0  0  0  0  0  0  0  0  0  0  0  0
   12.5494    0.9267   -5.1598 C   0  0  0  0  0  0  0  0  0  0  0  0
   12.9665    2.0186   -6.0789 C   0  0  0  0  0  0  0  0  0  0  0  0
   12.4760    3.1347   -6.2699 O   0  0  0  0  0  0  0  0  0  0  0  0
   14.0944    1.5798   -6.7669 N   0  0  0  0  0  0  0  0  0  0  0  0
   14.8053    2.3826   -7.7587 C   0  0  0  0  0  0  0  0  0  0  0  0
   15.7973    3.3496   -7.1706 C   0  0  0  0  0  0  0  0  0  0  0  0
   15.5496    4.4827   -6.3519 C   0  0  0  0  0  0  0  0  0  0  0  0
   16.8053    5.0106   -6.1122 C   0  0  0  0  0  0  0  0  0  0  0  0
   17.6984    4.2164   -6.7667 N   0  0  0  0  0  0  0  0  0  0  0  0
   19.1378    4.3567   -6.8299 C   0  0  0  0  0  0  0  0  0  0  0  0
   17.1008    3.2052   -7.4105 N   0  0  0  0  0  0  0  0  0  0  0  0
   14.4361    0.2991   -6.3716 C   0  0  0  0  0  0  0  0  0  0  0  0
   15.4466   -0.3876   -6.8611 N   0  0  0  0  0  0  0  0  0  0  0  0
   15.5844   -1.6223   -6.3327 C   0  0  0  0  0  0  0  0  0  0  0  0
   16.6056   -2.3829   -6.7999 N   0  0  0  0  0  0  0  0  0  0  0  0
   14.7956   -2.1641   -5.3889 N   0  0  0  0  0  0  0  0  0  0  0  0
   13.7893   -1.4384   -4.9346 C   0  0  0  0  0  0  0  0  0  0  0  0
   12.7868   -2.1990   -3.7084 Cl  0  0  0  0  0  0  0  0  0  0  0  0
   13.5167   -0.1466   -5.3820 C   0  0  0  0  0  0  0  0  0  0  0  0
    9.4196    1.7840   -3.0686 C   0  0  0  0  0  0  0  0  0  0  0  0
    9.1262    0.6266   -2.1665 C   0  0  0  0  0  0  0  0  0  0  0  0
    3.3543    5.9990   -6.4386 H   0  0  0  0  0  0  0  0  0  0  0  0
    5.1096    5.7071   -6.3060 H   0  0  0  0  0  0  0  0  0  0  0  0
    4.4772    7.3695   -6.4108 H   0  0  0  0  0  0  0  0  0  0  0  0
    3.8553    5.3866   -4.1333 H   0  0  0  0  0  0  0  0  0  0  0  0
    3.3332    7.0689   -4.1717 H   0  0  0  0  0  0  0  0  0  0  0  0
    6.1376    8.1229   -5.1329 H   0  0  0  0  0  0  0  0  0  0  0  0
    6.9489    8.0971   -3.5751 H   0  0  0  0  0  0  0  0  0  0  0  0
    4.1365    9.2904   -4.0904 H   0  0  0  0  0  0  0  0  0  0  0  0
    5.6451   10.1905   -3.8354 H   0  0  0  0  0  0  0  0  0  0  0  0
    4.9446    9.2428   -2.5051 H   0  0  0  0  0  0  0  0  0  0  0  0
    4.4311    6.6989   -1.8487 H   0  0  0  0  0  0  0  0  0  0  0  0
    6.1942    6.9146   -1.8484 H   0  0  0  0  0  0  0  0  0  0  0  0
    4.6853    4.3025   -2.4324 H   0  0  0  0  0  0  0  0  0  0  0  0
    5.6672    4.6781   -1.0192 H   0  0  0  0  0  0  0  0  0  0  0  0
    6.9472    4.8554   -3.6636 H   0  0  0  0  0  0  0  0  0  0  0  0
    9.0949    4.8091   -4.4472 H   0  0  0  0  0  0  0  0  0  0  0  0
   11.3766    0.0054   -3.7042 H   0  0  0  0  0  0  0  0  0  0  0  0
   14.0413    2.9256   -8.3345 H   0  0  0  0  0  0  0  0  0  0  0  0
   15.3402    1.6890   -8.4193 H   0  0  0  0  0  0  0  0  0  0  0  0
   14.5870    4.8421   -5.9984 H   0  0  0  0  0  0  0  0  0  0  0  0
   17.1272    5.8775   -5.5382 H   0  0  0  0  0  0  0  0  0  0  0  0
   19.4422    5.2253   -6.2310 H   0  0  0  0  0  0  0  0  0  0  0  0
   19.4641    4.5035   -7.8709 H   0  0  0  0  0  0  0  0  0  0  0  0
   19.6270    3.4545   -6.4323 H   0  0  0  0  0  0  0  0  0  0  0  0
   17.2517   -1.9866   -7.4672 H   0  0  0  0  0  0  0  0  0  0  0  0
   16.7683   -3.2936   -6.3951 H   0  0  0  0  0  0  0  0  0  0  0  0
    9.7750   -0.2360   -2.3756 H   0  0  0  0  0  0  0  0  0  0  0  0
    8.0767    0.3098   -2.2618 H   0  0  0  0  0  0  0  0  0  0  0  0
    9.2509    0.9143   -1.1110 H   0  0  0  0  0  0  0  0  0  0  0  0
  1  2  1  0
  1 38  1  0
  1 39  1  0
  1 40  1  0
  2  3  1  0
  2 41  1  0
  2 42  1  0
  3  4  1  0
  3  6  1  0
  4  5  1  0
  4 43  1  0
  4 44  1  0
  5 45  1  0
  5 46  1  0
  5 47  1  0
  6  7  1  0
  6 48  1  0
  6 49  1  0
  7  8  1  0
  7 50  1  0
  7 51  1  0
  8  9  1  0
  8 52  1  0
  9 10  2  0
  9 11  1  0
 11 12  2  0
 11 36  1  0
 12 13  1  0
 12 53  1  0
 13 14  1  0
 13 15  1  0
 15 16  1  0
 15 36  2  0
 16 17  2  0
 16 54  1  0
 17 18  1  0
 17 35  1  0
 18 19  2  0
 18 20  1  0
 20 21  1  0
 20 28  1  0
 21 22  1  0
 21 55  1  0
 21 56  1  0
 22 23  1  0
 22 27  2  0
 23 24  2  0
 23 57  1  0
 24 25  1  0
 24 58  1  0
 25 26  1  0
 25 27  1  0
 26 59  1  0
 26 60  1  0
 26 61  1  0
 28 29  1  0
 28 35  2  0
 29 30  2  0
 30 31  1  0
 30 32  1  0
 31 62  1  0
 31 63  1  0
 32 33  2  0
 33 34  1  0
 33 35  1  0
 36 37  1  0
 37 64  1  0
 37 65  1  0
 37 66  1  0
M  END

