
     RDKit          3D

 51 55  0  0  0  0  0  0  0  0999 V2000
    0.9407   -0.0383    0.4017 C   0  0  0  0  0  0  0  0  0  0  0  0
    2.4260   -0.0125    0.1349 C   0  0  0  0  0  0  0  0  0  0  0  0
    3.3362   -0.6470    0.9924 C   0  0  0  0  0  0  0  0  0  0  0  0
    4.7116   -0.6031    0.7516 C   0  0  0  0  0  0  0  0  0  0  0  0
    5.2341    0.0840   -0.3575 C   0  0  0  0  0  0  0  0  0  0  0  0
    6.7000    0.0835   -0.6292 C   0  0  0  0  0  0  0  0  0  0  0  0
    7.3630   -1.1534   -0.7261 C   0  0  0  0  0  0  0  0  0  0  0  0
    8.7214   -1.2415   -1.0133 C   0  0  0  0  0  0  0  0  0  0  0  0
    9.4895   -0.0823   -1.2172 C   0  0  0  0  0  0  0  0  0  0  0  0
   10.8914   -0.1336   -1.5344 C   0  0  0  0  0  0  0  0  0  0  0  0
   11.6194    1.0050   -1.7225 C   0  0  0  0  0  0  0  0  0  0  0  0
   11.0125    2.3041   -1.6041 C   0  0  0  0  0  0  0  0  0  0  0  0
   11.7482    3.4909   -1.7885 C   0  0  0  0  0  0  0  0  0  0  0  0
   11.1647    4.7594   -1.6672 C   0  0  0  0  0  0  0  0  0  0  0  0
   11.9616    6.0649   -1.8673 C   0  0  1  0  0  0  0  0  0  0  0  0
   11.3363    6.8751   -3.0265 C   0  0  0  0  0  0  0  0  0  0  0  0
   11.9105    6.9024   -0.5683 C   0  0  0  0  0  0  0  0  0  0  0  0
   13.4391    5.8002   -2.2098 C   0  0  0  0  0  0  0  0  0  0  0  0
    9.7972    4.8200   -1.3478 C   0  0  0  0  0  0  0  0  0  0  0  0
    9.0178    3.6680   -1.1563 C   0  0  0  0  0  0  0  0  0  0  0  0
    7.6221    3.7273   -0.8140 C   0  0  0  0  0  0  0  0  0  0  0  0
    6.8803    2.5951   -0.6417 C   0  0  0  0  0  0  0  0  0  0  0  0
    7.4513    1.2789   -0.7974 C   0  0  0  0  0  0  0  0  0  0  0  0
    8.8504    1.1919   -1.1020 C   0  0  0  0  0  0  0  0  0  0  0  0
    9.6229    2.3814   -1.2877 C   0  0  0  0  0  0  0  0  0  0  0  0
    4.3196    0.7143   -1.2231 C   0  0  0  0  0  0  0  0  0  0  0  0
    2.9470    0.6646   -0.9804 C   0  0  0  0  0  0  0  0  0  0  0  0
    0.6771   -0.7977    1.1529 H   0  0  0  0  0  0  0  0  0  0  0  0
    0.3697   -0.2543   -0.5157 H   0  0  0  0  0  0  0  0  0  0  0  0
    0.5860    0.9369    0.7786 H   0  0  0  0  0  0  0  0  0  0  0  0
    2.9636   -1.1852    1.8689 H   0  0  0  0  0  0  0  0  0  0  0  0
    5.3960   -1.1005    1.4436 H   0  0  0  0  0  0  0  0  0  0  0  0
    6.7814   -2.0694   -0.5976 H   0  0  0  0  0  0  0  0  0  0  0  0
    9.1993   -2.2215   -1.0958 H   0  0  0  0  0  0  0  0  0  0  0  0
   11.3665   -1.1145   -1.6228 H   0  0  0  0  0  0  0  0  0  0  0  0
   12.6842    0.9469   -1.9646 H   0  0  0  0  0  0  0  0  0  0  0  0
   12.8065    3.3918   -2.0318 H   0  0  0  0  0  0  0  0  0  0  0  0
   10.2876    7.1407   -2.8243 H   0  0  0  0  0  0  0  0  0  0  0  0
   11.3610    6.3021   -3.9671 H   0  0  0  0  0  0  0  0  0  0  0  0
   11.8932    7.8135   -3.1844 H   0  0  0  0  0  0  0  0  0  0  0  0
   10.8793    7.1675   -0.2896 H   0  0  0  0  0  0  0  0  0  0  0  0
   12.4733    7.8421   -0.6939 H   0  0  0  0  0  0  0  0  0  0  0  0
   12.3536    6.3500    0.2755 H   0  0  0  0  0  0  0  0  0  0  0  0
   13.5493    5.2294   -3.1451 H   0  0  0  0  0  0  0  0  0  0  0  0
   13.9548    5.2482   -1.4086 H   0  0  0  0  0  0  0  0  0  0  0  0
   13.9674    6.7573   -2.3436 H   0  0  0  0  0  0  0  0  0  0  0  0
    9.3046    5.7893   -1.2387 H   0  0  0  0  0  0  0  0  0  0  0  0
    7.1592    4.7093   -0.6825 H   0  0  0  0  0  0  0  0  0  0  0  0
    5.8291    2.6790   -0.3647 H   0  0  0  0  0  0  0  0  0  0  0  0
    4.6905    1.2310   -2.1116 H   0  0  0  0  0  0  0  0  0  0  0  0
    2.2630    1.1560   -1.6791 H   0  0  0  0  0  0  0  0  0  0  0  0
  1  2  1  0
  1 28  1  0
  1 29  1  0
  1 30  1  0
  2  3  2  0
  2 27  1  0
  3  4  1  0
  3 31  1  0
  4  5  2  0
  4 32  1  0
  5  6  1  0
  5 26  1  0
  6  7  2  0
  6 23  1  0
  7  8  1  0
  7 33  1  0
  8  9  2  0
  8 34  1  0
  9 10  1  0
  9 24  1  0
 10 11  2  0
 10 35  1  0
 11 12  1  0
 11 36  1  0
 12 13  2  0
 12 25  1  0
 13 14  1  0
 13 37  1  0
 14 15  1  0
 14 19  2  0
 15 16  1  6
 15 17  1  0
 15 18  1  0
 16 38  1  0
 16 39  1  0
 16 40  1  0
 17 41  1  0
 17 42  1  0
 17 43  1  0
 18 44  1  0
 18 45  1  0
 18 46  1  0
 19 20  1  0
 19 47  1  0
 20 21  2  0
 20 25  1  0
 21 22  1  0
 21 48  1  0
 22 23  2  0
 22 49  1  0
 23 24  1  0
 24 25  2  0
 26 27  2  0
 26 50  1  0
 27 51  1  0
M  END

