
     RDKit          3D

 40 40  0  0  0  0  0  0  0  0999 V2000
    1.2932    0.0426    0.1547 C   0  0  0  0  0  0  0  0  0  0  0  0
    2.7494    0.0447   -0.0083 N   0  0  0  0  0  0  0  0  0  0  0  0
    3.5002   -0.6602    1.0240 C   0  0  0  0  0  0  0  0  0  0  0  0
    3.5637    0.0423    2.3700 C   0  0  0  0  0  0  0  0  0  0  0  0
    3.2023    1.3785    2.5829 C   0  0  0  0  0  0  0  0  0  0  0  0
    3.2986    1.9608    3.8516 C   0  0  0  0  0  0  0  0  0  0  0  0
    3.7634    1.2102    4.9342 C   0  0  0  0  0  0  0  0  0  0  0  0
    4.1318   -0.1258    4.7493 C   0  0  0  0  0  0  0  0  0  0  0  0
    4.0243   -0.6795    3.4787 C   0  0  0  0  0  0  0  0  0  0  0  0
    4.3803   -1.9653    3.2929 F   0  0  0  0  0  0  0  0  0  0  0  0
    3.2240    0.4345   -1.2280 C   0  0  0  0  0  0  0  0  0  0  0  0
    2.4278    0.8037   -2.1039 O   0  0  0  0  0  0  0  0  0  0  0  0
    4.7138    0.4143   -1.5587 C   0  0  1  0  0  0  0  0  0  0  0  0
    4.9726   -0.3970   -2.8533 C   0  0  0  0  0  0  0  0  0  0  0  0
    5.9733   -1.0554   -2.9867 O   0  0  0  0  0  0  0  0  0  0  0  0
    4.0569   -0.2848   -3.8133 O   0  0  0  0  0  0  0  0  0  0  0  0
    5.3419    1.8724   -1.6713 C   0  0  1  0  0  0  0  0  0  0  0  0
    4.9673    2.6837   -0.4178 C   0  0  0  0  0  0  0  0  0  0  0  0
    6.8753    1.7284   -1.7265 C   0  0  0  0  0  0  0  0  0  0  0  0
    4.8531    2.6281   -2.9211 C   0  0  0  0  0  0  0  0  0  0  0  0
    1.0503    0.0278    1.2249 H   0  0  0  0  0  0  0  0  0  0  0  0
    0.8428   -0.8408   -0.3300 H   0  0  0  0  0  0  0  0  0  0  0  0
    0.8611    0.9371   -0.3090 H   0  0  0  0  0  0  0  0  0  0  0  0
    4.5207   -0.8593    0.6743 H   0  0  0  0  0  0  0  0  0  0  0  0
    3.0483   -1.6577    1.1680 H   0  0  0  0  0  0  0  0  0  0  0  0
    2.8404    1.9683    1.7392 H   0  0  0  0  0  0  0  0  0  0  0  0
    3.0094    3.0048    3.9913 H   0  0  0  0  0  0  0  0  0  0  0  0
    3.8411    1.6605    5.9265 H   0  0  0  0  0  0  0  0  0  0  0  0
    4.5001   -0.7450    5.5695 H   0  0  0  0  0  0  0  0  0  0  0  0
    5.2968   -0.1046   -0.7919 H   0  0  0  0  0  0  0  0  0  0  0  0
    3.2929    0.2386   -3.4575 H   0  0  0  0  0  0  0  0  0  0  0  0
    5.2623    2.1668    0.5090 H   0  0  0  0  0  0  0  0  0  0  0  0
    3.8867    2.8911   -0.3711 H   0  0  0  0  0  0  0  0  0  0  0  0
    5.4858    3.6556   -0.4335 H   0  0  0  0  0  0  0  0  0  0  0  0
    7.2663    1.2557   -0.8107 H   0  0  0  0  0  0  0  0  0  0  0  0
    7.3401    2.7233   -1.8160 H   0  0  0  0  0  0  0  0  0  0  0  0
    7.1998    1.1168   -2.5796 H   0  0  0  0  0  0  0  0  0  0  0  0
    3.7585    2.7305   -2.9312 H   0  0  0  0  0  0  0  0  0  0  0  0
    5.1586    2.1259   -3.8510 H   0  0  0  0  0  0  0  0  0  0  0  0
    5.2905    3.6394   -2.9311 H   0  0  0  0  0  0  0  0  0  0  0  0
  1  2  1  0
  1 21  1  0
  1 22  1  0
  1 23  1  0
  2  3  1  0
  2 11  1  0
  3  4  1  0
  3 24  1  0
  3 25  1  0
  4  5  2  0
  4  9  1  0
  5  6  1  0
  5 26  1  0
  6  7  2  0
  6 27  1  0
  7  8  1  0
  7 28  1  0
  8  9  2  0
  8 29  1  0
  9 10  1  0
 11 12  2  0
 11 13  1  0
 13 14  1  0
 13 17  1  0
 13 30  1  1
 14 15  2  0
 14 16  1  0
 16 31  1  0
 17 18  1  1
 17 19  1  0
 17 20  1  0
 18 32  1  0
 18 33  1  0
 18 34  1  0
 19 35  1  0
 19 36  1  0
 19 37  1  0
 20 38  1  0
 20 39  1  0
 20 40  1  0
M  END

