
     RDKit          3D

 48 48  0  0  0  0  0  0  0  0999 V2000
    1.0985   -0.7117    0.8206 C   0  0  0  0  0  0  0  0  0  0  0  0
    2.3437   -0.0959    0.1809 C   0  0  0  0  0  0  0  0  0  0  0  0
    3.0934   -1.0541   -0.7499 C   0  0  0  0  0  0  0  0  0  0  0  0
    4.3421   -0.4454   -1.3945 C   0  0  0  0  0  0  0  0  0  0  0  0
    5.0909   -1.4039   -2.3253 C   0  0  0  0  0  0  0  0  0  0  0  0
    6.3402   -0.7948   -2.9688 C   0  0  0  0  0  0  0  0  0  0  0  0
    7.0881   -1.7539   -3.8997 C   0  0  0  0  0  0  0  0  0  0  0  0
    8.3379   -1.1444   -4.5417 C   0  0  0  0  0  0  0  0  0  0  0  0
    9.0809   -2.1069   -5.4709 C   0  0  0  0  0  0  0  0  0  0  0  0
   10.3362   -1.4775   -6.1069 C   0  0  0  0  0  0  0  0  0  0  0  0
   11.0541   -2.3869   -6.9970 C   0  0  0  0  0  0  0  0  0  0  0  0
   11.6179   -3.1758   -7.7303 C   0  0  0  0  0  0  0  0  0  0  0  0
   12.2799   -4.1071   -8.5879 C   0  0  0  0  0  0  0  0  0  0  0  0
   13.6602   -4.0051   -8.8631 C   0  0  0  0  0  0  0  0  0  0  0  0
   14.2970   -4.9204   -9.6997 C   0  0  0  0  0  0  0  0  0  0  0  0
   13.5702   -5.9599  -10.2891 C   0  0  0  0  0  0  0  0  0  0  0  0
   12.2010   -6.0810  -10.0393 C   0  0  0  0  0  0  0  0  0  0  0  0
   11.5734   -5.1674   -9.1951 C   0  0  0  0  0  0  0  0  0  0  0  0
   10.1955   -5.2447   -8.9934 O   0  0  0  0  0  0  0  0  0  0  0  0
    9.7056   -6.1659   -8.1356 C   0  0  1  0  0  0  0  0  0  0  0  0
   10.2719   -6.0933   -6.9248 F   0  0  0  0  0  0  0  0  0  0  0  0
    8.4014   -5.9552   -8.0133 F   0  0  0  0  0  0  0  0  0  0  0  0
    9.8891   -7.4236   -8.5784 F   0  0  0  0  0  0  0  0  0  0  0  0
    0.5854    0.0046    1.4822 H   0  0  0  0  0  0  0  0  0  0  0  0
    1.3549   -1.5979    1.4254 H   0  0  0  0  0  0  0  0  0  0  0  0
    0.3731   -1.0359    0.0554 H   0  0  0  0  0  0  0  0  0  0  0  0
    3.0316    0.2522    0.9731 H   0  0  0  0  0  0  0  0  0  0  0  0
    2.0582    0.8098   -0.3850 H   0  0  0  0  0  0  0  0  0  0  0  0
    2.4060   -1.4028   -1.5435 H   0  0  0  0  0  0  0  0  0  0  0  0
    3.3796   -1.9610   -0.1846 H   0  0  0  0  0  0  0  0  0  0  0  0
    5.0290   -0.0971   -0.6007 H   0  0  0  0  0  0  0  0  0  0  0  0
    4.0555    0.4614   -1.9593 H   0  0  0  0  0  0  0  0  0  0  0  0
    4.4046   -1.7518   -3.1197 H   0  0  0  0  0  0  0  0  0  0  0  0
    5.3773   -2.3110   -1.7610 H   0  0  0  0  0  0  0  0  0  0  0  0
    7.0271   -0.4475   -2.1745 H   0  0  0  0  0  0  0  0  0  0  0  0
    6.0542    0.1124   -3.5332 H   0  0  0  0  0  0  0  0  0  0  0  0
    6.4025   -2.1005   -4.6950 H   0  0  0  0  0  0  0  0  0  0  0  0
    7.3741   -2.6613   -3.3362 H   0  0  0  0  0  0  0  0  0  0  0  0
    9.0251   -0.7987   -3.7469 H   0  0  0  0  0  0  0  0  0  0  0  0
    8.0531   -0.2370   -5.1063 H   0  0  0  0  0  0  0  0  0  0  0  0
    8.4074   -2.4509   -6.2745 H   0  0  0  0  0  0  0  0  0  0  0  0
    9.3780   -3.0135   -4.9161 H   0  0  0  0  0  0  0  0  0  0  0  0
   11.0213   -1.1305   -5.3118 H   0  0  0  0  0  0  0  0  0  0  0  0
   10.0495   -0.5703   -6.6705 H   0  0  0  0  0  0  0  0  0  0  0  0
   14.2229   -3.1904   -8.4035 H   0  0  0  0  0  0  0  0  0  0  0  0
   15.3670   -4.8201   -9.8962 H   0  0  0  0  0  0  0  0  0  0  0  0
   14.0654   -6.6754  -10.9495 H   0  0  0  0  0  0  0  0  0  0  0  0
   11.6091   -6.8751  -10.4960 H   0  0  0  0  0  0  0  0  0  0  0  0
  1  2  1  0
  1 24  1  0
  1 25  1  0
  1 26  1  0
  2  3  1  0
  2 27  1  0
  2 28  1  0
  3  4  1  0
  3 29  1  0
  3 30  1  0
  4  5  1  0
  4 31  1  0
  4 32  1  0
  5  6  1  0
  5 33  1  0
  5 34  1  0
  6  7  1  0
  6 35  1  0
  6 36  1  0
  7  8  1  0
  7 37  1  0
  7 38  1  0
  8  9  1  0
  8 39  1  0
  8 40  1  0
  9 10  1  0
  9 41  1  0
  9 42  1  0
 10 11  1  0
 10 43  1  0
 10 44  1  0
 11 12  3  0
 12 13  1  0
 13 14  2  0
 13 18  1  0
 14 15  1  0
 14 45  1  0
 15 16  2  0
 15 46  1  0
 16 17  1  0
 16 47  1  0
 17 18  2  0
 17 48  1  0
 18 19  1  0
 19 20  1  0
 20 21  1  1
 20 22  1  0
 20 23  1  0
M  END

