
     RDKit          3D

 33 35  0  0  0  0  0  0  0  0999 V2000
    1.3924   -0.4014    0.4681 C   0  0  0  0  0  0  0  0  0  0  0  0
    2.6919    0.3455    0.1541 C   0  0  0  0  0  0  0  0  0  0  0  0
    2.8856    1.5429    0.9465 N   0  0  0  0  0  0  0  0  0  0  0  0
    3.8818    1.6051    2.0215 C   0  0  0  0  0  0  0  0  0  0  0  0
    3.7867    3.0556    2.5525 C   0  0  0  0  0  0  0  0  0  0  0  0
    3.0728    3.7819    1.4311 C   0  0  0  0  0  0  0  0  0  0  0  0
    2.8688    5.1294    1.2081 C   0  0  0  0  0  0  0  0  0  0  0  0
    2.0949    5.5685    0.1012 C   0  0  0  0  0  0  0  0  0  0  0  0
    1.8832    7.0006   -0.0969 C   0  0  0  0  0  0  0  0  0  0  0  0
    0.8851    7.6374   -0.7366 C   0  0  0  0  0  0  0  0  0  0  0  0
    0.5648    9.0716   -1.0507 C   0  0  0  0  0  0  0  0  0  0  0  0
    1.2864   10.5006   -0.7703 S   0  0  0  0  0  0  0  0  0  0  0  0
   -0.6522    8.7135   -1.6896 N   0  0  0  0  0  0  0  0  0  0  0  0
   -0.4153    7.4325   -1.4116 C   0  0  0  0  0  0  0  0  0  0  0  0
   -1.1921    6.3807   -1.6799 N   0  0  0  0  0  0  0  0  0  0  0  0
    1.5846    4.5877   -0.7744 C   0  0  0  0  0  0  0  0  0  0  0  0
    1.7877    3.2197   -0.5683 C   0  0  0  0  0  0  0  0  0  0  0  0
    2.5369    2.8135    0.5476 C   0  0  0  0  0  0  0  0  0  0  0  0
    1.3036   -1.3071   -0.1535 H   0  0  0  0  0  0  0  0  0  0  0  0
    0.5140    0.2339    0.2737 H   0  0  0  0  0  0  0  0  0  0  0  0
    1.3582   -0.7068    1.5258 H   0  0  0  0  0  0  0  0  0  0  0  0
    2.7248    0.6085   -0.9191 H   0  0  0  0  0  0  0  0  0  0  0  0
    3.5551   -0.3199    0.3277 H   0  0  0  0  0  0  0  0  0  0  0  0
    4.8928    1.3919    1.6173 H   0  0  0  0  0  0  0  0  0  0  0  0
    3.6760    0.8530    2.8001 H   0  0  0  0  0  0  0  0  0  0  0  0
    4.7739    3.4787    2.7916 H   0  0  0  0  0  0  0  0  0  0  0  0
    3.1846    3.0959    3.4774 H   0  0  0  0  0  0  0  0  0  0  0  0
    3.2916    5.8717    1.8914 H   0  0  0  0  0  0  0  0  0  0  0  0
    2.6280    7.6745    0.3455 H   0  0  0  0  0  0  0  0  0  0  0  0
   -2.1028    6.5402   -2.0971 H   0  0  0  0  0  0  0  0  0  0  0  0
   -0.9717    5.4660   -1.3097 H   0  0  0  0  0  0  0  0  0  0  0  0
    1.0582    4.9056   -1.6778 H   0  0  0  0  0  0  0  0  0  0  0  0
    1.3894    2.4935   -1.2793 H   0  0  0  0  0  0  0  0  0  0  0  0
  1  2  1  0
  1 19  1  0
  1 20  1  0
  1 21  1  0
  2  3  1  0
  2 22  1  0
  2 23  1  0
  3  4  1  0
  3 18  1  0
  4  5  1  0
  4 24  1  0
  4 25  1  0
  5  6  1  0
  5 26  1  0
  5 27  1  0
  6  7  2  0
  6 18  1  0
  7  8  1  0
  7 28  1  0
  8  9  1  0
  8 16  2  0
  9 10  2  0
  9 29  1  0
 10 11  1  0
 10 14  1  0
 11 12  2  0
 11 13  1  0
 13 14  2  0
 14 15  1  0
 15 30  1  0
 15 31  1  0
 16 17  1  0
 16 32  1  0
 17 18  2  0
 17 33  1  0
M  END

