
     RDKit          3D

 34 35  0  0  0  0  0  0  0  0999 V2000
    3.0503   -0.5232   -0.6956 C   0  0  0  0  0  0  0  0  0  0  0  0
    2.0758   -0.0934    0.4111 C   0  0  2  0  0  0  0  0  0  0  0  0
    2.0601   -0.9091    1.1613 H   0  0  0  0  0  0  0  0  0  0  0  0
    0.7596    0.1510   -0.1845 N   0  0  0  0  0  0  0  0  0  0  0  0
    2.5744    1.1536    1.1322 C   0  0  0  0  0  0  0  0  0  0  0  0
    2.0952    2.4270    0.8117 C   0  0  0  0  0  0  0  0  0  0  0  0
    2.5648    3.5738    1.4634 C   0  0  0  0  0  0  0  0  0  0  0  0
    3.5342    3.4485    2.4564 C   0  0  0  0  0  0  0  0  0  0  0  0
    4.0362    2.1871    2.7982 C   0  0  0  0  0  0  0  0  0  0  0  0
    3.5639    1.0435    2.1386 C   0  0  0  0  0  0  0  0  0  0  0  0
    4.0119   -0.2174    2.4051 O   0  0  0  0  0  0  0  0  0  0  0  0
    4.9629   -0.4332    3.4333 C   0  0  0  0  0  0  0  0  0  0  0  0
    5.2267   -1.9206    3.5376 C   0  0  1  0  0  0  0  0  0  0  0  0
    6.1443   -2.4177    4.6873 C   0  0  0  0  0  0  0  0  0  0  0  0
    5.1860   -3.6216    4.8836 C   0  0  0  0  0  0  0  0  0  0  0  0
    4.1084   -2.8529    4.0756 C   0  0  0  0  0  0  0  0  0  0  0  0
    3.1201    0.2591   -1.4673 H   0  0  0  0  0  0  0  0  0  0  0  0
    2.7050   -1.4545   -1.1773 H   0  0  0  0  0  0  0  0  0  0  0  0
    4.0517   -0.7081   -0.2821 H   0  0  0  0  0  0  0  0  0  0  0  0
    0.0636    0.3034    0.5466 H   0  0  0  0  0  0  0  0  0  0  0  0
    0.4582   -0.6737   -0.7034 H   0  0  0  0  0  0  0  0  0  0  0  0
    1.3328    2.4982    0.0335 H   0  0  0  0  0  0  0  0  0  0  0  0
    2.1724    4.5574    1.1938 H   0  0  0  0  0  0  0  0  0  0  0  0
    3.9114    4.3329    2.9768 H   0  0  0  0  0  0  0  0  0  0  0  0
    4.7962    2.1061    3.5754 H   0  0  0  0  0  0  0  0  0  0  0  0
    4.5773   -0.0455    4.3966 H   0  0  0  0  0  0  0  0  0  0  0  0
    5.9021    0.1094    3.2091 H   0  0  0  0  0  0  0  0  0  0  0  0
    5.5938   -2.2845    2.5634 H   0  0  0  0  0  0  0  0  0  0  0  0
    6.1206   -1.7316    5.5505 H   0  0  0  0  0  0  0  0  0  0  0  0
    7.1970   -2.6297    4.4443 H   0  0  0  0  0  0  0  0  0  0  0  0
    4.9397   -3.9106    5.9168 H   0  0  0  0  0  0  0  0  0  0  0  0
    5.5399   -4.5175    4.3498 H   0  0  0  0  0  0  0  0  0  0  0  0
    3.4114   -2.3065    4.7322 H   0  0  0  0  0  0  0  0  0  0  0  0
    3.5176   -3.4158    3.3375 H   0  0  0  0  0  0  0  0  0  0  0  0
  1  2  1  0
  1 17  1  0
  1 18  1  0
  1 19  1  0
  2  3  1  1
  2  4  1  0
  2  5  1  0
  4 20  1  0
  4 21  1  0
  5  6  2  0
  5 10  1  0
  6  7  1  0
  6 22  1  0
  7  8  2  0
  7 23  1  0
  8  9  1  0
  8 24  1  0
  9 10  2  0
  9 25  1  0
 10 11  1  0
 11 12  1  0
 12 13  1  0
 12 26  1  0
 12 27  1  0
 13 14  1  0
 13 16  1  0
 13 28  1  6
 14 15  1  0
 14 29  1  0
 14 30  1  0
 15 16  1  0
 15 31  1  0
 15 32  1  0
 16 33  1  0
 16 34  1  0
M  END

