
     RDKit          3D

 43 44  0  0  0  0  0  0  0  0999 V2000
    4.7845    1.8054    3.7472 C   0  0  0  0  0  0  0  0  0  0  0  0
    5.1783    1.6729    2.4001 O   0  0  0  0  0  0  0  0  0  0  0  0
    6.4982    1.5798    2.0997 C   0  0  0  0  0  0  0  0  0  0  0  0
    7.5306    1.5932    3.0457 C   0  0  0  0  0  0  0  0  0  0  0  0
    8.8571    1.4903    2.6001 C   0  0  0  0  0  0  0  0  0  0  0  0
    9.1656    1.3751    1.2507 C   0  0  0  0  0  0  0  0  0  0  0  0
    8.1195    1.3611    0.3085 C   0  0  0  0  0  0  0  0  0  0  0  0
    8.4961    1.2411   -0.9978 O   0  0  0  0  0  0  0  0  0  0  0  0
    7.5046    1.2294   -2.0042 C   0  0  0  0  0  0  0  0  0  0  0  0
    8.1502    1.1926   -3.3924 C   0  0  0  0  0  0  0  0  0  0  0  0
    7.8090    2.0175   -4.2280 O   0  0  0  0  0  0  0  0  0  0  0  0
    9.0798    0.2193   -3.6535 N   0  0  0  0  0  0  0  0  0  0  0  0
    9.3604   -0.9579   -2.8362 C   0  0  0  0  0  0  0  0  0  0  0  0
    8.9066   -2.2501   -3.5423 C   0  0  2  0  0  0  0  0  0  0  0  0
    9.2662   -3.4846   -2.7130 C   0  0  0  0  0  0  0  0  0  0  0  0
    9.4919   -2.3224   -4.9623 C   0  0  0  0  0  0  0  0  0  0  0  0
    9.2161   -1.0466   -5.7644 C   0  0  2  0  0  0  0  0  0  0  0  0
    9.8564   -1.0892   -7.1517 C   0  0  0  0  0  0  0  0  0  0  0  0
   10.6027   -1.9497   -7.5303 O   0  0  0  0  0  0  0  0  0  0  0  0
    9.5398   -0.0530   -7.9634 O   0  0  0  0  0  0  0  0  0  0  0  0
    9.6949    0.1913   -4.9717 C   0  0  0  0  0  0  0  0  0  0  0  0
    6.7922    1.4637    0.7267 C   0  0  0  0  0  0  0  0  0  0  0  0
    3.6880    1.8698    3.7479 H   0  0  0  0  0  0  0  0  0  0  0  0
    5.1965    2.7212    4.2080 H   0  0  0  0  0  0  0  0  0  0  0  0
    5.0919    0.9343    4.3537 H   0  0  0  0  0  0  0  0  0  0  0  0
    7.3233    1.6825    4.1113 H   0  0  0  0  0  0  0  0  0  0  0  0
    9.6659    1.5027    3.3354 H   0  0  0  0  0  0  0  0  0  0  0  0
   10.1951    1.2992    0.8978 H   0  0  0  0  0  0  0  0  0  0  0  0
    6.8997    2.1490   -1.9836 H   0  0  0  0  0  0  0  0  0  0  0  0
    6.8215    0.3659   -1.8778 H   0  0  0  0  0  0  0  0  0  0  0  0
    8.8853   -0.8567   -1.8552 H   0  0  0  0  0  0  0  0  0  0  0  0
   10.4505   -1.0056   -2.6513 H   0  0  0  0  0  0  0  0  0  0  0  0
    7.8046   -2.1972   -3.6306 H   0  0  0  0  0  0  0  0  0  0  0  0
   10.3584   -3.5731   -2.5864 H   0  0  0  0  0  0  0  0  0  0  0  0
    8.9139   -4.4064   -3.2020 H   0  0  0  0  0  0  0  0  0  0  0  0
    8.8143   -3.4427   -1.7087 H   0  0  0  0  0  0  0  0  0  0  0  0
    9.0943   -3.1985   -5.4986 H   0  0  0  0  0  0  0  0  0  0  0  0
   10.5846   -2.4721   -4.9095 H   0  0  0  0  0  0  0  0  0  0  0  0
    8.1250   -0.9331   -5.9120 H   0  0  0  0  0  0  0  0  0  0  0  0
    8.9093    0.5440   -7.5343 H   0  0  0  0  0  0  0  0  0  0  0  0
    9.4364    1.1317   -5.4732 H   0  0  0  0  0  0  0  0  0  0  0  0
   10.7932    0.1457   -4.8585 H   0  0  0  0  0  0  0  0  0  0  0  0
    5.9536    1.4629    0.0320 H   0  0  0  0  0  0  0  0  0  0  0  0
  1  2  1  0
  1 23  1  0
  1 24  1  0
  1 25  1  0
  2  3  1  0
  3  4  2  0
  3 22  1  0
  4  5  1  0
  4 26  1  0
  5  6  2  0
  5 27  1  0
  6  7  1  0
  6 28  1  0
  7  8  1  0
  7 22  2  0
  8  9  1  0
  9 10  1  0
  9 29  1  0
  9 30  1  0
 10 11  2  0
 10 12  1  0
 12 13  1  0
 12 21  1  0
 13 14  1  0
 13 31  1  0
 13 32  1  0
 14 15  1  0
 14 16  1  0
 14 33  1  6
 15 34  1  0
 15 35  1  0
 15 36  1  0
 16 17  1  0
 16 37  1  0
 16 38  1  0
 17 18  1  0
 17 21  1  0
 17 39  1  6
 18 19  2  0
 18 20  1  0
 20 40  1  0
 21 41  1  0
 21 42  1  0
 22 43  1  0
M  END

