
     RDKit          3D

 56 58  0  0  0  0  0  0  0  0999 V2000
    2.4879   -3.5996   -2.0309 O   0  0  0  0  0  0  0  0  0  0  0  0
    3.0389   -4.6058   -1.6769 C   0  0  0  0  0  0  0  0  0  0  0  0
    2.9685   -5.7181   -2.4480 O   0  0  0  0  0  0  0  0  0  0  0  0
    3.8156   -4.7612   -0.3605 C   0  0  1  0  0  0  0  0  0  0  0  0
    5.2303   -5.3565   -0.5606 C   0  0  0  0  0  0  0  0  0  0  0  0
    6.1982   -4.3563   -1.2092 C   0  0  0  0  0  0  0  0  0  0  0  0
    6.2836   -3.0309   -0.4324 C   0  0  2  0  0  0  0  0  0  0  0  0
    7.0167   -3.2180    0.8204 N   0  0  0  0  0  0  0  0  0  0  0  0
    7.7317   -2.1606    1.3625 C   0  0  0  0  0  0  0  0  0  0  0  0
    7.8214   -1.0842    0.7862 O   0  0  0  0  0  0  0  0  0  0  0  0
    8.3584   -2.4029    2.5761 N   0  0  0  0  0  0  0  0  0  0  0  0
    8.4235   -3.6895    3.2537 C   0  0  0  0  0  0  0  0  0  0  0  0
    9.8441   -3.9875    3.7596 C   0  0  0  0  0  0  0  0  0  0  0  0
   10.4428   -2.8472    4.6074 C   0  0  2  0  0  0  0  0  0  0  0  0
    9.8320   -2.7199    6.0179 C   0  0  0  0  0  0  0  0  0  0  0  0
   10.1383   -3.9006    6.9597 C   0  0  0  0  0  0  0  0  0  0  0  0
    9.5883   -3.7034    8.3559 C   0  0  0  0  0  0  0  0  0  0  0  0
    8.2977   -4.1428    8.6928 C   0  0  0  0  0  0  0  0  0  0  0  0
    7.7726   -3.9272    9.9701 C   0  0  0  0  0  0  0  0  0  0  0  0
    8.5326   -3.2651   10.9387 C   0  0  0  0  0  0  0  0  0  0  0  0
    9.8200   -2.8231   10.6192 C   0  0  0  0  0  0  0  0  0  0  0  0
   10.3398   -3.0409    9.3403 C   0  0  0  0  0  0  0  0  0  0  0  0
   10.3303   -1.5391    3.7978 C   0  0  0  0  0  0  0  0  0  0  0  0
    8.9044   -1.2659    3.3136 C   0  0  0  0  0  0  0  0  0  0  0  0
    4.8755   -2.4363   -0.2306 C   0  0  0  0  0  0  0  0  0  0  0  0
    3.8935   -3.4290    0.4073 C   0  0  0  0  0  0  0  0  0  0  0  0
    3.4433   -6.4509   -2.0315 H   0  0  0  0  0  0  0  0  0  0  0  0
    3.2218   -5.4819    0.2340 H   0  0  0  0  0  0  0  0  0  0  0  0
    5.2023   -6.2889   -1.1522 H   0  0  0  0  0  0  0  0  0  0  0  0
    5.6133   -5.6664    0.4280 H   0  0  0  0  0  0  0  0  0  0  0  0
    5.8563   -4.1358   -2.2353 H   0  0  0  0  0  0  0  0  0  0  0  0
    7.2025   -4.8008   -1.2958 H   0  0  0  0  0  0  0  0  0  0  0  0
    6.8794   -2.3097   -1.0072 H   0  0  0  0  0  0  0  0  0  0  0  0
    6.6660   -3.9218    1.4568 H   0  0  0  0  0  0  0  0  0  0  0  0
    8.1412   -4.4864    2.5532 H   0  0  0  0  0  0  0  0  0  0  0  0
    7.7027   -3.7240    4.0970 H   0  0  0  0  0  0  0  0  0  0  0  0
   10.4912   -4.1461    2.8801 H   0  0  0  0  0  0  0  0  0  0  0  0
    9.8333   -4.9384    4.3170 H   0  0  0  0  0  0  0  0  0  0  0  0
   11.5172   -3.0659    4.7452 H   0  0  0  0  0  0  0  0  0  0  0  0
    8.7384   -2.5819    5.9653 H   0  0  0  0  0  0  0  0  0  0  0  0
   10.2206   -1.7972    6.4828 H   0  0  0  0  0  0  0  0  0  0  0  0
   11.2319   -4.0410    7.0113 H   0  0  0  0  0  0  0  0  0  0  0  0
    9.7256   -4.8325    6.5394 H   0  0  0  0  0  0  0  0  0  0  0  0
    7.6968   -4.6676    7.9436 H   0  0  0  0  0  0  0  0  0  0  0  0
    6.7669   -4.2817   10.2112 H   0  0  0  0  0  0  0  0  0  0  0  0
    8.1253   -3.0981   11.9391 H   0  0  0  0  0  0  0  0  0  0  0  0
   10.4248   -2.3090   11.3710 H   0  0  0  0  0  0  0  0  0  0  0  0
   11.3505   -2.6957    9.1020 H   0  0  0  0  0  0  0  0  0  0  0  0
   10.9915   -1.6039    2.9168 H   0  0  0  0  0  0  0  0  0  0  0  0
   10.6800   -0.6832    4.3994 H   0  0  0  0  0  0  0  0  0  0  0  0
    8.8765   -0.4011    2.6403 H   0  0  0  0  0  0  0  0  0  0  0  0
    8.2474   -1.0359    4.1762 H   0  0  0  0  0  0  0  0  0  0  0  0
    4.4790   -2.1264   -1.2105 H   0  0  0  0  0  0  0  0  0  0  0  0
    4.9579   -1.5243    0.3804 H   0  0  0  0  0  0  0  0  0  0  0  0
    2.8913   -2.9800    0.4645 H   0  0  0  0  0  0  0  0  0  0  0  0
    4.2002   -3.6493    1.4456 H   0  0  0  0  0  0  0  0  0  0  0  0
  1  2  2  0
  2  3  1  0
  2  4  1  0
  3 27  1  0
  4  5  1  0
  4 26  1  0
  4 28  1  1
  5  6  1  0
  5 29  1  0
  5 30  1  0
  6  7  1  0
  6 31  1  0
  6 32  1  0
  7  8  1  0
  7 25  1  0
  7 33  1  6
  8  9  1  0
  8 34  1  0
  9 10  2  0
  9 11  1  0
 11 12  1  0
 11 24  1  0
 12 13  1  0
 12 35  1  0
 12 36  1  0
 13 14  1  0
 13 37  1  0
 13 38  1  0
 14 15  1  0
 14 23  1  0
 14 39  1  1
 15 16  1  0
 15 40  1  0
 15 41  1  0
 16 17  1  0
 16 42  1  0
 16 43  1  0
 17 18  2  0
 17 22  1  0
 18 19  1  0
 18 44  1  0
 19 20  2  0
 19 45  1  0
 20 21  1  0
 20 46  1  0
 21 22  2  0
 21 47  1  0
 22 48  1  0
 23 24  1  0
 23 49  1  0
 23 50  1  0
 24 51  1  0
 24 52  1  0
 25 26  1  0
 25 53  1  0
 25 54  1  0
 26 55  1  0
 26 56  1  0
M  END

