
     RDKit          3D

 50 52  0  0  0  0  0  0  0  0999 V2000
    2.6847    1.1696    1.7989 C   0  0  0  0  0  0  0  0  0  0  0  0
    2.1264   -0.0710    1.4086 O   0  0  0  0  0  0  0  0  0  0  0  0
    2.9358   -1.0795    1.0268 C   0  0  0  0  0  0  0  0  0  0  0  0
    4.3362   -1.0018    0.9995 C   0  0  0  0  0  0  0  0  0  0  0  0
    5.1247   -2.0769    0.5669 C   0  0  0  0  0  0  0  0  0  0  0  0
    6.6323   -1.9654    0.7224 C   0  0  0  0  0  0  0  0  0  0  0  0
    7.2122   -2.5600    1.6110 O   0  0  0  0  0  0  0  0  0  0  0  0
    7.2218   -1.0761   -0.1270 N   0  0  0  0  0  0  0  0  0  0  0  0
    8.6628   -0.8637   -0.1624 C   0  0  0  0  0  0  0  0  0  0  0  0
    9.2753   -1.1470   -1.5190 C   0  0  0  0  0  0  0  0  0  0  0  0
   10.1171   -0.2145   -2.1379 C   0  0  0  0  0  0  0  0  0  0  0  0
   10.7168   -0.4618   -3.3752 C   0  0  0  0  0  0  0  0  0  0  0  0
   10.4692   -1.6799   -4.0308 C   0  0  0  0  0  0  0  0  0  0  0  0
   11.0255   -2.0171   -5.2759 N   0  0  0  0  0  0  0  0  0  0  0  0
   11.8643   -1.2764   -6.0759 C   0  0  0  0  0  0  0  0  0  0  0  0
   12.2764   -0.1551   -5.8239 O   0  0  0  0  0  0  0  0  0  0  0  0
   12.2554   -1.9625   -7.3291 C   0  0  0  0  0  0  0  0  0  0  0  0
   13.0643   -1.5472   -8.3543 C   0  0  0  0  0  0  0  0  0  0  0  0
   13.0870   -2.6160   -9.3039 C   0  0  0  0  0  0  0  0  0  0  0  0
   12.2911   -3.6013   -8.7867 C   0  0  0  0  0  0  0  0  0  0  0  0
   11.7814   -3.2175   -7.5911 O   0  0  0  0  0  0  0  0  0  0  0  0
    9.6183   -2.6214   -3.4194 C   0  0  0  0  0  0  0  0  0  0  0  0
    9.0323   -2.3608   -2.1848 C   0  0  0  0  0  0  0  0  0  0  0  0
    4.4689   -3.2389    0.1459 C   0  0  0  0  0  0  0  0  0  0  0  0
    5.2215   -4.3768   -0.4008 N   0  0  0  0  0  0  0  0  0  0  0  0
    6.3555   -4.1627   -0.8065 O   0  0  0  0  0  0  0  0  0  0  0  0
    4.6629   -5.4603   -0.4439 O   0  0  0  0  0  0  0  0  0  0  0  0
    3.0752   -3.3471    0.1853 C   0  0  0  0  0  0  0  0  0  0  0  0
    2.2952   -2.2828    0.6225 C   0  0  0  0  0  0  0  0  0  0  0  0
    0.9422   -2.3954    0.5788 O   0  0  0  0  0  0  0  0  0  0  0  0
    0.2301   -2.3581    1.8109 C   0  0  0  0  0  0  0  0  0  0  0  0
    1.8394    1.8237    2.0484 H   0  0  0  0  0  0  0  0  0  0  0  0
    3.2646    1.6276    0.9790 H   0  0  0  0  0  0  0  0  0  0  0  0
    3.3335    1.0636    2.6856 H   0  0  0  0  0  0  0  0  0  0  0  0
    4.8401   -0.0946    1.3325 H   0  0  0  0  0  0  0  0  0  0  0  0
    6.6712   -0.7208   -0.9009 H   0  0  0  0  0  0  0  0  0  0  0  0
    9.0791   -1.5300    0.6093 H   0  0  0  0  0  0  0  0  0  0  0  0
    8.9027    0.1705    0.1397 H   0  0  0  0  0  0  0  0  0  0  0  0
   10.3180    0.7400   -1.6417 H   0  0  0  0  0  0  0  0  0  0  0  0
   11.3679    0.2734   -3.8420 H   0  0  0  0  0  0  0  0  0  0  0  0
   10.7763   -2.9331   -5.6339 H   0  0  0  0  0  0  0  0  0  0  0  0
   13.5729   -0.5878   -8.4026 H   0  0  0  0  0  0  0  0  0  0  0  0
   13.6244   -2.6508  -10.2491 H   0  0  0  0  0  0  0  0  0  0  0  0
   12.0029   -4.5893   -9.1367 H   0  0  0  0  0  0  0  0  0  0  0  0
    9.4172   -3.5732   -3.9208 H   0  0  0  0  0  0  0  0  0  0  0  0
    8.3728   -3.1079   -1.7371 H   0  0  0  0  0  0  0  0  0  0  0  0
    2.5919   -4.2655   -0.1451 H   0  0  0  0  0  0  0  0  0  0  0  0
   -0.8252   -2.5380    1.5648 H   0  0  0  0  0  0  0  0  0  0  0  0
    0.3256   -1.3816    2.3100 H   0  0  0  0  0  0  0  0  0  0  0  0
    0.5792   -3.1538    2.4930 H   0  0  0  0  0  0  0  0  0  0  0  0
  1  2  1  0
  1 32  1  0
  1 33  1  0
  1 34  1  0
  2  3  1  0
  3  4  2  0
  3 29  1  0
  4  5  1  0
  4 35  1  0
  5  6  1  0
  5 24  2  0
  6  7  2  0
  6  8  1  0
  8  9  1  0
  8 36  1  0
  9 10  1  0
  9 37  1  0
  9 38  1  0
 10 11  2  0
 10 23  1  0
 11 12  1  0
 11 39  1  0
 12 13  2  0
 12 40  1  0
 13 14  1  0
 13 22  1  0
 14 15  1  0
 14 41  1  0
 15 16  2  0
 15 17  1  0
 17 18  2  0
 17 21  1  0
 18 19  1  0
 18 42  1  0
 19 20  2  0
 19 43  1  0
 20 21  1  0
 20 44  1  0
 22 23  2  0
 22 45  1  0
 23 46  1  0
 24 25  1  0
 24 28  1  0
 25 26  2  0
 25 27  1  0
 28 29  2  0
 28 47  1  0
 29 30  1  0
 30 31  1  0
 31 48  1  0
 31 49  1  0
 31 50  1  0
M  CHG  2  25   1  27  -1
M  END

