
     RDKit          3D

 24 24  0  0  0  0  0  0  0  0999 V2000
    1.6009    0.9539    1.1741 C   0  0  0  0  0  0  0  0  0  0  0  0
    2.3079    0.1910    0.2180 O   0  0  0  0  0  0  0  0  0  0  0  0
    2.8078    0.8003   -0.8870 C   0  0  0  0  0  0  0  0  0  0  0  0
    2.5882    2.1448   -1.2094 C   0  0  0  0  0  0  0  0  0  0  0  0
    3.1486    2.6959   -2.3681 C   0  0  0  0  0  0  0  0  0  0  0  0
    3.9288    1.9327   -3.2423 C   0  0  0  0  0  0  0  0  0  0  0  0
    4.5416    2.5232   -4.4893 C   0  0  0  0  0  0  0  0  0  0  0  0
    4.1245    0.5791   -2.9191 C   0  0  0  0  0  0  0  0  0  0  0  0
    3.5864    0.0037   -1.7640 C   0  0  0  0  0  0  0  0  0  0  0  0
    4.0167   -1.6840   -1.3711 S   0  0  0  0  0  0  0  0  0  0  0  0
    2.3365   -2.4654   -1.3517 C   0  0  0  0  0  0  0  0  0  0  0  0
    2.4432   -3.8821   -1.0261 C   0  0  0  0  0  0  0  0  0  0  0  0
    2.5313   -5.0080   -0.7667 N   0  0  0  0  0  0  0  0  0  0  0  0
    1.3457    0.2674    1.9921 H   0  0  0  0  0  0  0  0  0  0  0  0
    0.6700    1.3766    0.7559 H   0  0  0  0  0  0  0  0  0  0  0  0
    2.2194    1.7760    1.5746 H   0  0  0  0  0  0  0  0  0  0  0  0
    1.9861    2.7791   -0.5586 H   0  0  0  0  0  0  0  0  0  0  0  0
    2.9644    3.7508   -2.5901 H   0  0  0  0  0  0  0  0  0  0  0  0
    4.2186    3.5635   -4.6425 H   0  0  0  0  0  0  0  0  0  0  0  0
    4.2620    1.9483   -5.3876 H   0  0  0  0  0  0  0  0  0  0  0  0
    5.6436    2.5202   -4.4361 H   0  0  0  0  0  0  0  0  0  0  0  0
    4.7165   -0.0583   -3.5813 H   0  0  0  0  0  0  0  0  0  0  0  0
    1.8636   -2.3505   -2.3394 H   0  0  0  0  0  0  0  0  0  0  0  0
    1.7214   -1.9557   -0.5959 H   0  0  0  0  0  0  0  0  0  0  0  0
  1  2  1  0
  1 14  1  0
  1 15  1  0
  1 16  1  0
  2  3  1  0
  3  4  2  0
  3  9  1  0
  4  5  1  0
  4 17  1  0
  5  6  2  0
  5 18  1  0
  6  7  1  0
  6  8  1  0
  7 19  1  0
  7 20  1  0
  7 21  1  0
  8  9  2  0
  8 22  1  0
  9 10  1  0
 10 11  1  0
 11 12  1  0
 11 23  1  0
 11 24  1  0
 12 13  3  0
M  END

