
     RDKit          3D

 35 35  0  0  0  0  0  0  0  0999 V2000
    3.4009    0.9327    2.3523 C   0  0  0  0  0  0  0  0  0  0  0  0
    2.7875    2.0798    1.5412 C   0  0  2  0  0  0  0  0  0  0  0  0
    1.3604    2.4005    2.0029 C   0  0  0  0  0  0  0  0  0  0  0  0
    2.8486    1.8552    0.0087 C   0  0  2  0  0  0  0  0  0  0  0  0
    2.3388    2.7156   -0.4581 H   0  0  0  0  0  0  0  0  0  0  0  0
    2.1690    0.5738   -0.4779 C   0  0  0  0  0  0  0  0  0  0  0  0
    4.2542    1.8187   -0.4635 N   0  0  0  0  0  0  0  0  0  0  0  0
    5.0983    3.2603   -0.7055 S   0  0  1  0  0  0  0  0  0  0  0  0
    5.8238    3.1058   -1.9733 O   0  0  0  0  0  0  0  0  0  0  0  0
    4.2065    4.3986   -0.4675 O   0  0  0  0  0  0  0  0  0  0  0  0
    6.3498    3.2314    0.6313 C   0  0  0  0  0  0  0  0  0  0  0  0
    7.1002    4.5296    0.6957 C   0  0  0  0  0  0  0  0  0  0  0  0
    8.0341    4.8515   -0.3041 C   0  0  0  0  0  0  0  0  0  0  0  0
    8.7367    6.0541   -0.2979 C   0  0  0  0  0  0  0  0  0  0  0  0
    8.5043    6.9690    0.7330 C   0  0  0  0  0  0  0  0  0  0  0  0
    9.3769    8.4799    0.7670 Cl  0  0  0  0  0  0  0  0  0  0  0  0
    7.5804    6.6913    1.7415 C   0  0  0  0  0  0  0  0  0  0  0  0
    6.8836    5.4804    1.7103 C   0  0  0  0  0  0  0  0  0  0  0  0
    5.7378    5.1773    3.0007 Cl  0  0  0  0  0  0  0  0  0  0  0  0
    3.4933    1.2139    3.4135 H   0  0  0  0  0  0  0  0  0  0  0  0
    4.4039    0.6690    1.9823 H   0  0  0  0  0  0  0  0  0  0  0  0
    2.7774    0.0241    2.3103 H   0  0  0  0  0  0  0  0  0  0  0  0
    3.3850    2.9895    1.7245 H   0  0  0  0  0  0  0  0  0  0  0  0
    0.6872    1.5337    1.8954 H   0  0  0  0  0  0  0  0  0  0  0  0
    0.9293    3.2381    1.4311 H   0  0  0  0  0  0  0  0  0  0  0  0
    1.3534    2.6863    3.0666 H   0  0  0  0  0  0  0  0  0  0  0  0
    2.1777    0.5239   -1.5790 H   0  0  0  0  0  0  0  0  0  0  0  0
    1.1177    0.5452   -0.1578 H   0  0  0  0  0  0  0  0  0  0  0  0
    2.6699   -0.3269   -0.0901 H   0  0  0  0  0  0  0  0  0  0  0  0
    4.4050    1.2472   -1.2938 H   0  0  0  0  0  0  0  0  0  0  0  0
    6.9985    2.3818    0.3767 H   0  0  0  0  0  0  0  0  0  0  0  0
    5.8107    3.0155    1.5604 H   0  0  0  0  0  0  0  0  0  0  0  0
    8.1936    4.1403   -1.1174 H   0  0  0  0  0  0  0  0  0  0  0  0
    9.4569    6.2861   -1.0833 H   0  0  0  0  0  0  0  0  0  0  0  0
    7.4002    7.4077    2.5423 H   0  0  0  0  0  0  0  0  0  0  0  0
  1  2  1  0
  1 20  1  0
  1 21  1  0
  1 22  1  0
  2  3  1  0
  2  4  1  0
  2 23  1  6
  3 24  1  0
  3 25  1  0
  3 26  1  0
  4  5  1  6
  4  6  1  0
  4  7  1  0
  6 27  1  0
  6 28  1  0
  6 29  1  0
  8  7  1  1
  7 30  1  0
  8  9  2  0
  8 10  2  0
  8 11  1  0
 11 12  1  0
 11 31  1  0
 11 32  1  0
 12 13  2  0
 12 18  1  0
 13 14  1  0
 13 33  1  0
 14 15  2  0
 14 34  1  0
 15 16  1  0
 15 17  1  0
 17 18  2  0
 17 35  1  0
 18 19  1  0
M  END

