
     RDKit          3D

 39 40  0  0  0  0  0  0  0  0999 V2000
    1.1539   -5.0500   -1.6636 C   0  0  0  0  0  0  0  0  0  0  0  0
    2.0345   -4.8364   -0.5267 N   0  0  0  0  0  0  0  0  0  0  0  0
    1.5671   -5.3855    0.7323 C   0  0  0  0  0  0  0  0  0  0  0  0
    3.2320   -4.2023   -0.7226 C   0  0  0  0  0  0  0  0  0  0  0  0
    3.5939   -3.8238   -1.8309 O   0  0  0  0  0  0  0  0  0  0  0  0
    4.1272   -3.9734    0.5110 C   0  0  0  0  0  0  0  0  0  0  0  0
    5.2307   -3.0769    0.2494 N   0  0  0  0  0  0  0  0  0  0  0  0
    4.8691   -1.6719    0.1353 C   0  0  0  0  0  0  0  0  0  0  0  0
    6.5267   -3.3561    0.7071 C   0  0  0  0  0  0  0  0  0  0  0  0
    7.2411   -2.4668    1.1554 O   0  0  0  0  0  0  0  0  0  0  0  0
    7.0013   -4.7366    0.5846 C   0  0  0  0  0  0  0  0  0  0  0  0
    8.3880   -5.2090    1.5810 S   0  0  0  0  0  0  0  0  0  0  0  0
    8.4682   -6.7065    0.6720 C   0  0  0  0  0  0  0  0  0  0  0  0
    9.3754   -7.6732    0.9993 N   0  0  0  0  0  0  0  0  0  0  0  0
    9.5887   -8.8216    0.1681 C   0  0  1  0  0  0  0  0  0  0  0  0
   10.0507  -10.0880    0.8390 C   0  0  0  0  0  0  0  0  0  0  0  0
    8.6519   -9.9931    0.2861 C   0  0  0  0  0  0  0  0  0  0  0  0
    7.6028   -6.8275   -0.3018 N   0  0  0  0  0  0  0  0  0  0  0  0
    6.7869   -5.7271   -0.3777 C   0  0  0  0  0  0  0  0  0  0  0  0
    5.8495   -5.7160   -1.3709 N   0  0  0  0  0  0  0  0  0  0  0  0
    0.1600   -4.6095   -1.4706 H   0  0  0  0  0  0  0  0  0  0  0  0
    1.0185   -6.1290   -1.8579 H   0  0  0  0  0  0  0  0  0  0  0  0
    1.5981   -4.5777   -2.5467 H   0  0  0  0  0  0  0  0  0  0  0  0
    1.3553   -6.4643    0.6247 H   0  0  0  0  0  0  0  0  0  0  0  0
    0.6325   -4.8932    1.0577 H   0  0  0  0  0  0  0  0  0  0  0  0
    2.3083   -5.2713    1.5296 H   0  0  0  0  0  0  0  0  0  0  0  0
    4.5188   -4.9436    0.8521 H   0  0  0  0  0  0  0  0  0  0  0  0
    3.5127   -3.5686    1.3392 H   0  0  0  0  0  0  0  0  0  0  0  0
    4.1280   -1.5514   -0.6678 H   0  0  0  0  0  0  0  0  0  0  0  0
    5.7654   -1.0870   -0.1006 H   0  0  0  0  0  0  0  0  0  0  0  0
    4.4507   -1.2758    1.0813 H   0  0  0  0  0  0  0  0  0  0  0  0
   10.1379   -7.3941    1.6061 H   0  0  0  0  0  0  0  0  0  0  0  0
    9.9794   -8.6070   -0.8356 H   0  0  0  0  0  0  0  0  0  0  0  0
   10.1678  -10.0662    1.9265 H   0  0  0  0  0  0  0  0  0  0  0  0
   10.7888  -10.7024    0.3164 H   0  0  0  0  0  0  0  0  0  0  0  0
    7.8280   -9.8957    0.9968 H   0  0  0  0  0  0  0  0  0  0  0  0
    8.4063  -10.5380   -0.6290 H   0  0  0  0  0  0  0  0  0  0  0  0
    5.9876   -6.4109   -2.0946 H   0  0  0  0  0  0  0  0  0  0  0  0
    5.4212   -4.8381   -1.6610 H   0  0  0  0  0  0  0  0  0  0  0  0
  1  2  1  0
  1 21  1  0
  1 22  1  0
  1 23  1  0
  2  3  1  0
  2  4  1  0
  3 24  1  0
  3 25  1  0
  3 26  1  0
  4  5  2  0
  4  6  1  0
  6  7  1  0
  6 27  1  0
  6 28  1  0
  7  8  1  0
  7  9  1  0
  8 29  1  0
  8 30  1  0
  8 31  1  0
  9 10  2  0
  9 11  1  0
 11 12  1  0
 11 19  2  0
 12 13  1  0
 13 14  1  0
 13 18  2  0
 14 15  1  0
 14 32  1  0
 15 16  1  0
 15 17  1  0
 15 33  1  6
 16 17  1  0
 16 34  1  0
 16 35  1  0
 17 36  1  0
 17 37  1  0
 18 19  1  0
 19 20  1  0
 20 38  1  0
 20 39  1  0
M  END

