
     RDKit          3D

 67 71  0  0  0  0  0  0  0  0999 V2000
    2.9683    0.5088    0.9759 C   0  0  0  0  0  0  0  0  0  0  0  0
    2.3222    1.8753    0.7695 C   0  0  0  0  0  0  0  0  0  0  0  0
    2.5744    2.4198   -0.5618 N   0  0  0  0  0  0  0  0  0  0  0  0
    1.7029    2.5591   -1.5785 C   0  0  0  0  0  0  0  0  0  0  0  0
    2.4415    3.0804   -2.6330 C   0  0  0  0  0  0  0  0  0  0  0  0
    1.9400    3.3659   -3.9401 N   0  0  0  0  0  0  0  0  0  0  0  0
    0.7401    3.2076   -4.1330 O   0  0  0  0  0  0  0  0  0  0  0  0
    2.7434    3.7364   -4.7887 O   0  0  0  0  0  0  0  0  0  0  0  0
    3.7672    3.2175   -2.1483 C   0  0  0  0  0  0  0  0  0  0  0  0
    4.9680    3.8632   -2.7961 C   0  0  0  0  0  0  0  0  0  0  0  0
    5.2174    5.0413   -2.6318 O   0  0  0  0  0  0  0  0  0  0  0  0
    5.7731    3.0359   -3.5306 N   0  0  0  0  0  0  0  0  0  0  0  0
    5.4456    1.7294   -3.7980 N   0  0  0  0  0  0  0  0  0  0  0  0
    6.2997    1.2504   -4.6356 C   0  0  0  0  0  0  0  0  0  0  0  0
    6.3624   -0.1376   -5.1197 C   0  0  0  0  0  0  0  0  0  0  0  0
    5.3473   -0.9409   -5.5332 C   0  0  0  0  0  0  0  0  0  0  0  0
    3.9089   -0.7615   -5.7565 C   0  0  0  0  0  0  0  0  0  0  0  0
    3.2080    0.4681   -5.7302 C   0  0  0  0  0  0  0  0  0  0  0  0
    1.8543    0.5358   -6.0274 C   0  0  0  0  0  0  0  0  0  0  0  0
    1.1305   -0.6285   -6.3498 C   0  0  0  0  0  0  0  0  0  0  0  0
   -0.1878   -0.4611   -6.6158 O   0  0  0  0  0  0  0  0  0  0  0  0
   -0.9722   -1.5801   -6.9570 C   0  0  0  0  0  0  0  0  0  0  0  0
    1.7986   -1.8614   -6.3800 C   0  0  0  0  0  0  0  0  0  0  0  0
    3.1647   -1.9088   -6.0946 C   0  0  0  0  0  0  0  0  0  0  0  0
    7.7958   -0.6597   -5.1555 C   0  0  0  0  0  0  0  0  0  0  0  0
    8.7672    0.3270   -5.8243 C   0  0  0  0  0  0  0  0  0  0  0  0
    8.7655    1.6789   -5.1014 C   0  0  0  0  0  0  0  0  0  0  0  0
    7.3483    2.2668   -5.0814 C   0  0  2  0  0  0  0  0  0  0  0  0
    7.0872    2.5502   -6.1178 H   0  0  0  0  0  0  0  0  0  0  0  0
    7.0481    3.4771   -4.1366 C   0  0  2  0  0  0  0  0  0  0  0  0
    6.8595    4.3887   -4.7212 H   0  0  0  0  0  0  0  0  0  0  0  0
    8.1118    3.7933   -3.0981 C   0  0  0  0  0  0  0  0  0  0  0  0
    9.1049    4.7442   -3.3863 C   0  0  0  0  0  0  0  0  0  0  0  0
   10.1225    5.0237   -2.4808 C   0  0  0  0  0  0  0  0  0  0  0  0
   10.1714    4.3575   -1.2441 C   0  0  0  0  0  0  0  0  0  0  0  0
   11.1967    4.6960   -0.4206 O   0  0  0  0  0  0  0  0  0  0  0  0
   11.2924    4.0882    0.8467 C   0  0  0  0  0  0  0  0  0  0  0  0
    9.1808    3.4129   -0.9369 C   0  0  0  0  0  0  0  0  0  0  0  0
    8.1669    3.1409   -1.8626 C   0  0  0  0  0  0  0  0  0  0  0  0
    3.8249    2.8153   -0.8876 N   0  0  0  0  0  0  0  0  0  0  0  0
    2.7796    0.1559    2.0015 H   0  0  0  0  0  0  0  0  0  0  0  0
    4.0552    0.5732    0.8227 H   0  0  0  0  0  0  0  0  0  0  0  0
    2.5618   -0.2343    0.2724 H   0  0  0  0  0  0  0  0  0  0  0  0
    2.7099    2.6044    1.4974 H   0  0  0  0  0  0  0  0  0  0  0  0
    1.2303    1.8262    0.8940 H   0  0  0  0  0  0  0  0  0  0  0  0
    0.6508    2.2942   -1.5179 H   0  0  0  0  0  0  0  0  0  0  0  0
    5.6753   -1.9512   -5.8073 H   0  0  0  0  0  0  0  0  0  0  0  0
    3.7255    1.3898   -5.4743 H   0  0  0  0  0  0  0  0  0  0  0  0
    1.3243    1.4901   -6.0074 H   0  0  0  0  0  0  0  0  0  0  0  0
   -1.9911   -1.2081   -7.1299 H   0  0  0  0  0  0  0  0  0  0  0  0
   -0.9987   -2.3290   -6.1443 H   0  0  0  0  0  0  0  0  0  0  0  0
   -0.6104   -2.0720   -7.8784 H   0  0  0  0  0  0  0  0  0  0  0  0
    1.2739   -2.7833   -6.6316 H   0  0  0  0  0  0  0  0  0  0  0  0
    3.6740   -2.8759   -6.1401 H   0  0  0  0  0  0  0  0  0  0  0  0
    7.8234   -1.6337   -5.6671 H   0  0  0  0  0  0  0  0  0  0  0  0
    8.1453   -0.8354   -4.1193 H   0  0  0  0  0  0  0  0  0  0  0  0
    8.4818    0.4625   -6.8831 H   0  0  0  0  0  0  0  0  0  0  0  0
    9.7856   -0.0953   -5.8235 H   0  0  0  0  0  0  0  0  0  0  0  0
    9.4648    2.3836   -5.5798 H   0  0  0  0  0  0  0  0  0  0  0  0
    9.1227    1.5383   -4.0687 H   0  0  0  0  0  0  0  0  0  0  0  0
    9.0753    5.2853   -4.3367 H   0  0  0  0  0  0  0  0  0  0  0  0
   10.8908    5.7679   -2.7004 H   0  0  0  0  0  0  0  0  0  0  0  0
   12.1794    4.5157    1.3336 H   0  0  0  0  0  0  0  0  0  0  0  0
   11.4207    2.9928    0.7710 H   0  0  0  0  0  0  0  0  0  0  0  0
   10.4058    4.2976    1.4726 H   0  0  0  0  0  0  0  0  0  0  0  0
    9.1805    2.8893    0.0192 H   0  0  0  0  0  0  0  0  0  0  0  0
    7.3934    2.4155   -1.5978 H   0  0  0  0  0  0  0  0  0  0  0  0
  1  2  1  0
  1 41  1  0
  1 42  1  0
  1 43  1  0
  2  3  1  0
  2 44  1  0
  2 45  1  0
  3  4  1  0
  3 40  1  0
  4  5  2  0
  4 46  1  0
  5  6  1  0
  5  9  1  0
  6  7  1  0
  6  8  1  0
  9 10  1  0
  9 40  2  0
 10 11  2  0
 10 12  1  0
 12 13  2  0
 12 30  1  0
 13 14  1  0
 14 15  2  0
 14 28  1  0
 15 16  1  0
 15 25  1  0
 16 17  2  0
 16 47  1  0
 17 18  1  0
 17 24  1  0
 18 19  2  0
 18 48  1  0
 19 20  1  0
 19 49  1  0
 20 21  2  0
 20 23  1  0
 21 22  1  0
 22 50  1  0
 22 51  1  0
 22 52  1  0
 23 24  2  0
 23 53  1  0
 24 54  1  0
 25 26  1  0
 25 55  1  0
 25 56  1  0
 26 27  1  0
 26 57  1  0
 26 58  1  0
 27 28  1  0
 27 59  1  0
 27 60  1  0
 28 29  1  6
 28 30  1  0
 30 31  1  6
 30 32  1  0
 32 33  2  0
 32 39  1  0
 33 34  1  0
 33 61  1  0
 34 35  2  0
 34 62  1  0
 35 36  1  0
 35 38  1  0
 36 37  1  0
 37 63  1  0
 37 64  1  0
 37 65  1  0
 38 39  2  0
 38 66  1  0
 39 67  1  0
M  CHG  4   7  -1   8  -1  12   1  21   1
M  END

