
     RDKit          3D

 80 84  0  0  0  0  0  0  0  0999 V2000
    1.1007   -3.8911   14.8046 C   0  0  0  0  0  0  0  0  0  0  0  0
    2.0899   -4.8497   14.5134 O   0  0  0  0  0  0  0  0  0  0  0  0
    2.7241   -4.8158   13.3190 C   0  0  0  0  0  0  0  0  0  0  0  0
    2.4605   -3.8659   12.3163 C   0  0  0  0  0  0  0  0  0  0  0  0
    3.1617   -3.8955   11.1074 C   0  0  0  0  0  0  0  0  0  0  0  0
    2.9761   -3.0009   10.0920 O   0  0  0  0  0  0  0  0  0  0  0  0
    1.9568   -2.0295   10.1895 C   0  0  0  0  0  0  0  0  0  0  0  0
    4.1400   -4.8865   10.8651 C   0  0  0  0  0  0  0  0  0  0  0  0
    4.7816   -4.8512    9.6155 N   0  0  0  0  0  0  0  0  0  0  0  0
    5.8239   -5.6137    9.1795 C   0  0  0  0  0  0  0  0  0  0  0  0
    6.3730   -6.4815    9.8368 O   0  0  0  0  0  0  0  0  0  0  0  0
    6.2413   -5.3797    7.7045 C   0  0  1  0  0  0  0  0  0  0  0  0
    5.7171   -3.7365    6.9631 S   0  0  0  0  0  0  0  0  0  0  0  0
    6.8400   -2.5540    7.7129 C   0  0  0  0  0  0  0  0  0  0  0  0
    6.4427   -1.7899    8.8210 C   0  0  0  0  0  0  0  0  0  0  0  0
    7.3184   -0.8301    9.3337 C   0  0  0  0  0  0  0  0  0  0  0  0
    8.5809   -0.6198    8.7747 C   0  0  0  0  0  0  0  0  0  0  0  0
    8.9820   -1.3906    7.6687 C   0  0  0  0  0  0  0  0  0  0  0  0
   10.2457   -1.2742    7.0553 N   0  0  0  0  0  0  0  0  0  0  0  0
   11.2114   -0.3045    7.2394 C   0  0  0  0  0  0  0  0  0  0  0  0
   11.0846    0.6285    8.0148 O   0  0  0  0  0  0  0  0  0  0  0  0
   12.4490   -0.5384    6.4047 C   0  0  0  0  0  0  0  0  0  0  0  0
   13.1026    0.3949    5.6629 C   0  0  0  0  0  0  0  0  0  0  0  0
   12.8736    1.8206    5.3965 C   0  0  0  0  0  0  0  0  0  0  0  0
   12.1724    2.7300    6.2185 C   0  0  0  0  0  0  0  0  0  0  0  0
   12.0308    4.0681    5.8526 C   0  0  0  0  0  0  0  0  0  0  0  0
   12.5935    4.5302    4.6594 C   0  0  0  0  0  0  0  0  0  0  0  0
   12.4134    6.2088    4.2055 Cl  0  0  0  0  0  0  0  0  0  0  0  0
   13.3118    3.6615    3.8327 C   0  0  0  0  0  0  0  0  0  0  0  0
   13.4521    2.3286    4.2096 C   0  0  0  0  0  0  0  0  0  0  0  0
   12.8506   -1.9006    6.4182 N   0  0  0  0  0  0  0  0  0  0  0  0
   13.6626   -2.5815    5.5288 C   0  0  0  0  0  0  0  0  0  0  0  0
   14.0760   -2.0994    4.4879 O   0  0  0  0  0  0  0  0  0  0  0  0
   13.9895   -3.9979    5.9254 C   0  0  0  0  0  0  0  0  0  0  0  0
   14.3371   -4.8877    4.8960 C   0  0  0  0  0  0  0  0  0  0  0  0
   14.6646   -6.2120    5.1869 C   0  0  0  0  0  0  0  0  0  0  0  0
   14.6693   -6.6596    6.5132 C   0  0  0  0  0  0  0  0  0  0  0  0
   14.3496   -5.7745    7.5473 C   0  0  0  0  0  0  0  0  0  0  0  0
   14.0102   -4.4505    7.2554 C   0  0  0  0  0  0  0  0  0  0  0  0
    8.0975   -2.3448    7.1365 C   0  0  0  0  0  0  0  0  0  0  0  0
    7.6851   -5.7149    7.4062 C   0  0  0  0  0  0  0  0  0  0  0  0
    8.7215   -5.4380    8.3117 C   0  0  0  0  0  0  0  0  0  0  0  0
   10.0511   -5.7030    7.9716 C   0  0  0  0  0  0  0  0  0  0  0  0
   10.3710   -6.2428    6.7223 C   0  0  0  0  0  0  0  0  0  0  0  0
    9.3453   -6.5244    5.8138 C   0  0  0  0  0  0  0  0  0  0  0  0
    8.0170   -6.2639    6.1567 C   0  0  0  0  0  0  0  0  0  0  0  0
    4.4036   -5.8285   11.8674 C   0  0  0  0  0  0  0  0  0  0  0  0
    3.7066   -5.7926   13.0747 C   0  0  0  0  0  0  0  0  0  0  0  0
    4.0571   -6.9805   14.3046 Cl  0  0  0  0  0  0  0  0  0  0  0  0
    0.7351   -4.1180   15.8149 H   0  0  0  0  0  0  0  0  0  0  0  0
    0.2520   -3.9458   14.0984 H   0  0  0  0  0  0  0  0  0  0  0  0
    1.5066   -2.8628   14.7958 H   0  0  0  0  0  0  0  0  0  0  0  0
    1.7096   -3.0982   12.4851 H   0  0  0  0  0  0  0  0  0  0  0  0
    1.9761   -1.4608    9.2505 H   0  0  0  0  0  0  0  0  0  0  0  0
    2.1321   -1.3364   11.0313 H   0  0  0  0  0  0  0  0  0  0  0  0
    0.9628   -2.4956   10.3087 H   0  0  0  0  0  0  0  0  0  0  0  0
    4.4291   -4.1521    8.9638 H   0  0  0  0  0  0  0  0  0  0  0  0
    5.6025   -6.0617    7.1170 H   0  0  0  0  0  0  0  0  0  0  0  0
    5.4608   -1.9452    9.2706 H   0  0  0  0  0  0  0  0  0  0  0  0
    7.0137   -0.2273   10.1929 H   0  0  0  0  0  0  0  0  0  0  0  0
    9.2531    0.1351    9.1745 H   0  0  0  0  0  0  0  0  0  0  0  0
   10.4194   -1.9363    6.3062 H   0  0  0  0  0  0  0  0  0  0  0  0
   13.9181   -0.0204    5.0695 H   0  0  0  0  0  0  0  0  0  0  0  0
   11.7513    2.3846    7.1604 H   0  0  0  0  0  0  0  0  0  0  0  0
   11.4906    4.7614    6.4996 H   0  0  0  0  0  0  0  0  0  0  0  0
   13.7577    4.0315    2.9080 H   0  0  0  0  0  0  0  0  0  0  0  0
   14.0170    1.6530    3.5619 H   0  0  0  0  0  0  0  0  0  0  0  0
   12.5230   -2.4397    7.2108 H   0  0  0  0  0  0  0  0  0  0  0  0
   14.3461   -4.5146    3.8702 H   0  0  0  0  0  0  0  0  0  0  0  0
   14.9237   -6.8986    4.3771 H   0  0  0  0  0  0  0  0  0  0  0  0
   14.9325   -7.6953    6.7421 H   0  0  0  0  0  0  0  0  0  0  0  0
   14.3747   -6.1121    8.5862 H   0  0  0  0  0  0  0  0  0  0  0  0
   13.7996   -3.7669    8.0826 H   0  0  0  0  0  0  0  0  0  0  0  0
    8.3896   -2.9356    6.2654 H   0  0  0  0  0  0  0  0  0  0  0  0
    8.4898   -5.0320    9.2969 H   0  0  0  0  0  0  0  0  0  0  0  0
   10.8440   -5.4936    8.6945 H   0  0  0  0  0  0  0  0  0  0  0  0
   11.4121   -6.4496    6.4627 H   0  0  0  0  0  0  0  0  0  0  0  0
    9.5796   -6.9550    4.8369 H   0  0  0  0  0  0  0  0  0  0  0  0
    7.2217   -6.4831    5.4383 H   0  0  0  0  0  0  0  0  0  0  0  0
    5.1619   -6.5882   11.6960 H   0  0  0  0  0  0  0  0  0  0  0  0
  1  2  1  0
  1 50  1  0
  1 51  1  0
  1 52  1  0
  2  3  1  0
  3  4  2  0
  3 48  1  0
  4  5  1  0
  4 53  1  0
  5  6  1  0
  5  8  2  0
  6  7  1  0
  7 54  1  0
  7 55  1  0
  7 56  1  0
  8  9  1  0
  8 47  1  0
  9 10  1  0
  9 57  1  0
 10 11  2  0
 10 12  1  0
 12 13  1  0
 12 41  1  0
 12 58  1  6
 13 14  1  0
 14 15  2  0
 14 40  1  0
 15 16  1  0
 15 59  1  0
 16 17  2  0
 16 60  1  0
 17 18  1  0
 17 61  1  0
 18 19  1  0
 18 40  2  0
 19 20  1  0
 19 62  1  0
 20 21  2  0
 20 22  1  0
 22 23  2  0
 22 31  1  0
 23 24  1  0
 23 63  1  0
 24 25  2  0
 24 30  1  0
 25 26  1  0
 25 64  1  0
 26 27  2  0
 26 65  1  0
 27 28  1  0
 27 29  1  0
 29 30  2  0
 29 66  1  0
 30 67  1  0
 31 32  1  0
 31 68  1  0
 32 33  2  0
 32 34  1  0
 34 35  2  0
 34 39  1  0
 35 36  1  0
 35 69  1  0
 36 37  2  0
 36 70  1  0
 37 38  1  0
 37 71  1  0
 38 39  2  0
 38 72  1  0
 39 73  1  0
 40 74  1  0
 41 42  2  0
 41 46  1  0
 42 43  1  0
 42 75  1  0
 43 44  2  0
 43 76  1  0
 44 45  1  0
 44 77  1  0
 45 46  2  0
 45 78  1  0
 46 79  1  0
 47 48  2  0
 47 80  1  0
 48 49  1  0
M  END

