
     RDKit          3D

 47 48  0  0  0  0  0  0  0  0999 V2000
    1.8063   -0.0228   -0.9884 C   0  0  0  0  0  0  0  0  0  0  0  0
    3.1799   -0.3359   -0.4849 C   0  0  0  0  0  0  0  0  0  0  0  0
    4.1489    0.5653   -0.5155 N   0  0  0  0  0  0  0  0  0  0  0  0
    5.2402   -0.0301    0.0143 N   0  0  0  0  0  0  0  0  0  0  0  0
    6.4671    0.7501    0.1186 C   0  0  0  0  0  0  0  0  0  0  0  0
    6.3609    1.9385    1.0906 C   0  0  1  0  0  0  0  0  0  0  0  0
    6.0822    1.4879    2.5281 C   0  0  0  0  0  0  0  0  0  0  0  0
    7.6293    2.7940    0.9990 C   0  0  0  0  0  0  0  0  0  0  0  0
    5.0134   -1.3158    0.3968 C   0  0  0  0  0  0  0  0  0  0  0  0
    6.0540   -2.1857    1.0265 C   0  0  0  0  0  0  0  0  0  0  0  0
    3.6710   -1.5542    0.0779 C   0  0  0  0  0  0  0  0  0  0  0  0
    2.7118   -3.0124    0.3525 S   0  0  1  0  0  0  0  0  0  0  0  0
    3.5688   -4.0045    1.0093 O   0  0  0  0  0  0  0  0  0  0  0  0
    1.4316   -2.6146    0.9419 O   0  0  0  0  0  0  0  0  0  0  0  0
    2.2874   -3.6141   -1.1595 N   0  0  0  0  0  0  0  0  0  0  0  0
    3.2505   -3.8876   -2.2393 C   0  0  1  0  0  0  0  0  0  0  0  0
    4.2256   -5.0273   -1.8879 C   0  0  0  0  0  0  0  0  0  0  0  0
    3.5091   -6.3788   -1.7797 C   0  0  0  0  0  0  0  0  0  0  0  0
    2.6772   -6.6591   -3.0403 C   0  0  0  0  0  0  0  0  0  0  0  0
    1.7642   -5.5736   -3.3970 N   0  0  0  0  0  0  0  0  0  0  0  0
    2.4348   -4.2888   -3.4916 C   0  0  0  0  0  0  0  0  0  0  0  0
    1.7312    1.0502   -1.2103 H   0  0  0  0  0  0  0  0  0  0  0  0
    1.0469   -0.3027   -0.2436 H   0  0  0  0  0  0  0  0  0  0  0  0
    1.5810   -0.5779   -1.9155 H   0  0  0  0  0  0  0  0  0  0  0  0
    6.7104    1.1178   -0.8911 H   0  0  0  0  0  0  0  0  0  0  0  0
    7.2749    0.0703    0.4270 H   0  0  0  0  0  0  0  0  0  0  0  0
    5.5052    2.5434    0.7449 H   0  0  0  0  0  0  0  0  0  0  0  0
    6.9171    0.8858    2.9276 H   0  0  0  0  0  0  0  0  0  0  0  0
    5.1634    0.8850    2.5964 H   0  0  0  0  0  0  0  0  0  0  0  0
    5.9559    2.3572    3.1925 H   0  0  0  0  0  0  0  0  0  0  0  0
    8.5213    2.2243    1.3131 H   0  0  0  0  0  0  0  0  0  0  0  0
    7.5552    3.6767    1.6532 H   0  0  0  0  0  0  0  0  0  0  0  0
    7.8054    3.1533   -0.0280 H   0  0  0  0  0  0  0  0  0  0  0  0
    6.5080   -1.6954    1.9017 H   0  0  0  0  0  0  0  0  0  0  0  0
    6.8643   -2.4230    0.3167 H   0  0  0  0  0  0  0  0  0  0  0  0
    5.5901   -3.1228    1.3534 H   0  0  0  0  0  0  0  0  0  0  0  0
    1.4373   -3.1378   -1.4583 H   0  0  0  0  0  0  0  0  0  0  0  0
    3.8311   -2.9735   -2.4774 H   0  0  0  0  0  0  0  0  0  0  0  0
    4.7649   -4.8015   -0.9581 H   0  0  0  0  0  0  0  0  0  0  0  0
    4.9775   -5.0659   -2.6971 H   0  0  0  0  0  0  0  0  0  0  0  0
    2.8534   -6.3653   -0.8932 H   0  0  0  0  0  0  0  0  0  0  0  0
    4.2445   -7.1859   -1.6202 H   0  0  0  0  0  0  0  0  0  0  0  0
    2.0921   -7.5864   -2.9276 H   0  0  0  0  0  0  0  0  0  0  0  0
    3.3572   -6.8225   -3.8982 H   0  0  0  0  0  0  0  0  0  0  0  0
    1.0153   -5.5201   -2.7069 H   0  0  0  0  0  0  0  0  0  0  0  0
    1.6903   -3.5063   -3.7246 H   0  0  0  0  0  0  0  0  0  0  0  0
    3.1340   -4.3160   -4.3467 H   0  0  0  0  0  0  0  0  0  0  0  0
  1  2  1  0
  1 22  1  0
  1 23  1  0
  1 24  1  0
  2  3  2  0
  2 11  1  0
  3  4  1  0
  4  5  1  0
  4  9  1  0
  5  6  1  0
  5 25  1  0
  5 26  1  0
  6  7  1  0
  6  8  1  0
  6 27  1  6
  7 28  1  0
  7 29  1  0
  7 30  1  0
  8 31  1  0
  8 32  1  0
  8 33  1  0
  9 10  1  0
  9 11  2  0
 10 34  1  0
 10 35  1  0
 10 36  1  0
 11 12  1  0
 12 13  2  0
 12 14  2  0
 12 15  1  6
 15 16  1  0
 15 37  1  0
 16 17  1  0
 16 21  1  0
 16 38  1  6
 17 18  1  0
 17 39  1  0
 17 40  1  0
 18 19  1  0
 18 41  1  0
 18 42  1  0
 19 20  1  0
 19 43  1  0
 19 44  1  0
 20 21  1  0
 20 45  1  0
 21 46  1  0
 21 47  1  0
M  END

