
     RDKit          3D

 23 23  0  0  0  0  0  0  0  0999 V2000
    2.7360    1.2966    0.7118 C   0  0  0  0  0  0  0  0  0  0  0  0
    2.4817   -0.0487    0.0333 C   0  0  0  0  0  0  0  0  0  0  0  0
    2.8709   -0.0655   -1.4526 C   0  0  1  0  0  0  0  0  0  0  0  0
    2.5889   -1.4235   -2.1356 C   0  0  0  0  0  0  0  0  0  0  0  0
    1.1200   -1.5860   -2.4221 C   0  0  0  0  0  0  0  0  0  0  0  0
    0.5423   -2.6643   -2.0431 N   0  0  0  0  0  0  0  0  0  0  0  0
   -0.8128   -2.7025   -2.3679 O   0  0  0  0  0  0  0  0  0  0  0  0
    0.4770   -0.4113   -3.1117 C   0  0  0  0  0  0  0  0  0  0  0  0
    0.8740    0.8867   -2.3875 C   0  0  0  0  0  0  0  0  0  0  0  0
    2.2706    0.9922   -2.2003 O   0  0  0  0  0  0  0  0  0  0  0  0
    2.4505    1.2685    1.7751 H   0  0  0  0  0  0  0  0  0  0  0  0
    2.1664    2.1027    0.2250 H   0  0  0  0  0  0  0  0  0  0  0  0
    3.8018    1.5746    0.6579 H   0  0  0  0  0  0  0  0  0  0  0  0
    1.4249   -0.3445    0.1526 H   0  0  0  0  0  0  0  0  0  0  0  0
    3.0640   -0.8413    0.5344 H   0  0  0  0  0  0  0  0  0  0  0  0
    3.9516    0.1418   -1.5225 H   0  0  0  0  0  0  0  0  0  0  0  0
    2.9495   -2.2630   -1.5238 H   0  0  0  0  0  0  0  0  0  0  0  0
    3.1363   -1.4390   -3.0948 H   0  0  0  0  0  0  0  0  0  0  0  0
   -1.0874   -3.5581   -2.0145 H   0  0  0  0  0  0  0  0  0  0  0  0
   -0.6141   -0.5245   -3.1497 H   0  0  0  0  0  0  0  0  0  0  0  0
    0.8539   -0.3662   -4.1492 H   0  0  0  0  0  0  0  0  0  0  0  0
    0.3340    0.9481   -1.4226 H   0  0  0  0  0  0  0  0  0  0  0  0
    0.5784    1.7638   -2.9831 H   0  0  0  0  0  0  0  0  0  0  0  0
  1  2  1  0
  1 11  1  0
  1 12  1  0
  1 13  1  0
  2  3  1  0
  2 14  1  0
  2 15  1  0
  3  4  1  0
  3 10  1  0
  3 16  1  1
  4  5  1  0
  4 17  1  0
  4 18  1  0
  5  6  2  0
  5  8  1  0
  6  7  1  0
  7 19  1  0
  8  9  1  0
  8 20  1  0
  8 21  1  0
  9 10  1  0
  9 22  1  0
  9 23  1  0
M  END

