
     RDKit          3D

 45 45  0  0  0  0  0  0  0  0999 V2000
    0.8470   -3.3313   -0.4010 C   0  0  0  0  0  0  0  0  0  0  0  0
    2.3777   -3.2521   -0.3313 C   0  0  1  0  0  0  0  0  0  0  0  0
    2.9793   -4.6425   -0.0854 C   0  0  0  0  0  0  0  0  0  0  0  0
    2.9403   -2.5716   -1.5956 C   0  0  0  0  0  0  0  0  0  0  0  0
    4.4352   -2.2393   -1.5445 C   0  0  0  0  0  0  0  0  0  0  0  0
    5.0017   -1.6125   -2.8332 C   0  0  1  0  0  0  0  0  0  0  0  0
    4.3954   -0.2472   -3.1788 C   0  0  0  0  0  0  0  0  0  0  0  0
    6.4561   -1.5117   -2.7382 N   0  0  0  0  0  0  0  0  0  0  0  0
    7.3055   -2.1132   -3.6172 C   0  0  0  0  0  0  0  0  0  0  0  0
    6.9603   -2.8099   -4.5599 O   0  0  0  0  0  0  0  0  0  0  0  0
    8.7502   -1.8677   -3.3610 C   0  0  0  0  0  0  0  0  0  0  0  0
    9.8549   -2.2509   -4.0773 C   0  0  0  0  0  0  0  0  0  0  0  0
   10.9882   -1.7273   -3.3844 C   0  0  0  0  0  0  0  0  0  0  0  0
   10.4827   -1.0607   -2.2987 C   0  0  0  0  0  0  0  0  0  0  0  0
   11.3012   -0.1923   -0.9767 S   0  0  1  0  0  0  0  0  0  0  0  0
   12.7048   -0.1501   -1.3757 O   0  0  0  0  0  0  0  0  0  0  0  0
   10.5158    1.0048   -0.6965 O   0  0  0  0  0  0  0  0  0  0  0  0
   11.1975   -1.1698    0.3777 N   0  0  0  0  0  0  0  0  0  0  0  0
    9.9318   -1.2156    1.0984 C   0  0  0  0  0  0  0  0  0  0  0  0
   12.0276   -2.3663    0.4191 C   0  0  0  0  0  0  0  0  0  0  0  0
    9.1290   -1.1414   -2.2688 O   0  0  0  0  0  0  0  0  0  0  0  0
    0.4256   -3.7798    0.5132 H   0  0  0  0  0  0  0  0  0  0  0  0
    0.5226   -3.9513   -1.2546 H   0  0  0  0  0  0  0  0  0  0  0  0
    0.3950   -2.3336   -0.5245 H   0  0  0  0  0  0  0  0  0  0  0  0
    2.6410   -2.6123    0.5332 H   0  0  0  0  0  0  0  0  0  0  0  0
    2.7614   -5.3199   -0.9294 H   0  0  0  0  0  0  0  0  0  0  0  0
    2.5567   -5.0998    0.8238 H   0  0  0  0  0  0  0  0  0  0  0  0
    4.0724   -4.6107    0.0425 H   0  0  0  0  0  0  0  0  0  0  0  0
    2.3656   -1.6459   -1.7693 H   0  0  0  0  0  0  0  0  0  0  0  0
    2.7409   -3.2203   -2.4698 H   0  0  0  0  0  0  0  0  0  0  0  0
    5.0158   -3.1542   -1.3452 H   0  0  0  0  0  0  0  0  0  0  0  0
    4.6310   -1.5568   -0.6946 H   0  0  0  0  0  0  0  0  0  0  0  0
    4.8217   -2.3044   -3.6702 H   0  0  0  0  0  0  0  0  0  0  0  0
    4.5729    0.4831   -2.3703 H   0  0  0  0  0  0  0  0  0  0  0  0
    3.3085   -0.3183   -3.3339 H   0  0  0  0  0  0  0  0  0  0  0  0
    4.8424    0.1501   -4.1025 H   0  0  0  0  0  0  0  0  0  0  0  0
    6.8540   -0.9214   -2.0149 H   0  0  0  0  0  0  0  0  0  0  0  0
    9.8335   -2.8332   -4.9950 H   0  0  0  0  0  0  0  0  0  0  0  0
   12.0405   -1.8087   -3.6442 H   0  0  0  0  0  0  0  0  0  0  0  0
    9.4413   -0.2369    1.0365 H   0  0  0  0  0  0  0  0  0  0  0  0
   10.1366   -1.4347    2.1585 H   0  0  0  0  0  0  0  0  0  0  0  0
    9.2482   -1.9947    0.7082 H   0  0  0  0  0  0  0  0  0  0  0  0
   12.9819   -2.1678   -0.0834 H   0  0  0  0  0  0  0  0  0  0  0  0
   11.5389   -3.2412   -0.0532 H   0  0  0  0  0  0  0  0  0  0  0  0
   12.2369   -2.6137    1.4719 H   0  0  0  0  0  0  0  0  0  0  0  0
  1  2  1  0
  1 22  1  0
  1 23  1  0
  1 24  1  0
  2  3  1  0
  2  4  1  0
  2 25  1  1
  3 26  1  0
  3 27  1  0
  3 28  1  0
  4  5  1  0
  4 29  1  0
  4 30  1  0
  5  6  1  0
  5 31  1  0
  5 32  1  0
  6  7  1  0
  6  8  1  0
  6 33  1  6
  7 34  1  0
  7 35  1  0
  7 36  1  0
  8  9  1  0
  8 37  1  0
  9 10  2  0
  9 11  1  0
 11 12  2  0
 11 21  1  0
 12 13  1  0
 12 38  1  0
 13 14  2  0
 13 39  1  0
 14 15  1  0
 14 21  1  0
 15 16  2  0
 15 17  2  0
 15 18  1  1
 18 19  1  0
 18 20  1  0
 19 40  1  0
 19 41  1  0
 19 42  1  0
 20 43  1  0
 20 44  1  0
 20 45  1  0
M  END

