
     RDKit          3D

 47 49  0  0  0  0  0  0  0  0999 V2000
    5.2096   -1.8646    2.3974 O   0  0  0  0  0  0  0  0  0  0  0  0
    6.2931   -2.2582    2.0559 C   0  0  0  0  0  0  0  0  0  0  0  0
    7.4109   -1.7930    2.6625 O   0  0  0  0  0  0  0  0  0  0  0  0
    6.4997   -3.2741    0.9651 C   0  0  0  0  0  0  0  0  0  0  0  0
    7.7156   -3.4169    0.2799 C   0  0  0  0  0  0  0  0  0  0  0  0
    7.8312   -4.3652   -0.7396 C   0  0  0  0  0  0  0  0  0  0  0  0
    6.7397   -5.1676   -1.0744 C   0  0  0  0  0  0  0  0  0  0  0  0
    5.5124   -5.0377   -0.4017 C   0  0  0  0  0  0  0  0  0  0  0  0
    4.3529   -5.9503   -0.7671 C   0  0  0  0  0  0  0  0  0  0  0  0
    3.0672   -5.3988   -0.3946 N   0  0  0  0  0  0  0  0  0  0  0  0
    1.8561   -6.2302   -0.4978 C   0  0  1  0  0  0  0  0  0  0  0  0
    1.8337   -7.2804    0.6555 C   0  0  0  0  0  0  0  0  0  0  0  0
    1.7090   -6.7369    2.0614 C   0  0  0  0  0  0  0  0  0  0  0  0
    0.4670   -6.7315    2.7178 C   0  0  0  0  0  0  0  0  0  0  0  0
    0.3332   -6.2190    4.0118 C   0  0  0  0  0  0  0  0  0  0  0  0
    1.4467   -5.7012    4.6784 C   0  0  0  0  0  0  0  0  0  0  0  0
    2.6923   -5.7081    4.0432 C   0  0  0  0  0  0  0  0  0  0  0  0
    2.8204   -6.2232    2.7507 C   0  0  0  0  0  0  0  0  0  0  0  0
    0.6354   -5.2868   -0.4006 C   0  0  0  0  0  0  0  0  0  0  0  0
    0.4347   -4.4415   -1.6615 C   0  0  0  0  0  0  0  0  0  0  0  0
    0.3612   -5.2300   -2.8310 O   0  0  0  0  0  0  0  0  0  0  0  0
    1.5154   -6.0222   -3.0228 C   0  0  0  0  0  0  0  0  0  0  0  0
    1.7385   -6.9818   -1.8547 C   0  0  0  0  0  0  0  0  0  0  0  0
    5.4042   -4.0765    0.6090 C   0  0  0  0  0  0  0  0  0  0  0  0
    8.1835   -2.3006    2.3782 H   0  0  0  0  0  0  0  0  0  0  0  0
    8.5692   -2.7692    0.5019 H   0  0  0  0  0  0  0  0  0  0  0  0
    8.7726   -4.4679   -1.2847 H   0  0  0  0  0  0  0  0  0  0  0  0
    6.8379   -5.9028   -1.8788 H   0  0  0  0  0  0  0  0  0  0  0  0
    4.4919   -6.9096   -0.2353 H   0  0  0  0  0  0  0  0  0  0  0  0
    4.4490   -6.2025   -1.8456 H   0  0  0  0  0  0  0  0  0  0  0  0
    2.9330   -4.4897   -0.8291 H   0  0  0  0  0  0  0  0  0  0  0  0
    2.7457   -7.8961    0.5754 H   0  0  0  0  0  0  0  0  0  0  0  0
    0.9928   -7.9645    0.4607 H   0  0  0  0  0  0  0  0  0  0  0  0
   -0.4108   -7.1406    2.2089 H   0  0  0  0  0  0  0  0  0  0  0  0
   -0.6445   -6.2277    4.5009 H   0  0  0  0  0  0  0  0  0  0  0  0
    1.3464   -5.2983    5.6895 H   0  0  0  0  0  0  0  0  0  0  0  0
    3.5707   -5.3084    4.5566 H   0  0  0  0  0  0  0  0  0  0  0  0
    3.8004   -6.2273    2.2697 H   0  0  0  0  0  0  0  0  0  0  0  0
    0.7377   -4.6333    0.4800 H   0  0  0  0  0  0  0  0  0  0  0  0
   -0.2682   -5.8994   -0.2500 H   0  0  0  0  0  0  0  0  0  0  0  0
    1.2433   -3.6846   -1.7650 H   0  0  0  0  0  0  0  0  0  0  0  0
   -0.5111   -3.8820   -1.5979 H   0  0  0  0  0  0  0  0  0  0  0  0
    2.4056   -5.3722   -3.1652 H   0  0  0  0  0  0  0  0  0  0  0  0
    1.3636   -6.5772   -3.9614 H   0  0  0  0  0  0  0  0  0  0  0  0
    2.6291   -7.6055   -2.0391 H   0  0  0  0  0  0  0  0  0  0  0  0
    0.8782   -7.6696   -1.8071 H   0  0  0  0  0  0  0  0  0  0  0  0
    4.4587   -3.9395    1.1349 H   0  0  0  0  0  0  0  0  0  0  0  0
  1  2  2  0
  2  3  1  0
  2  4  1  0
  3 25  1  0
  4  5  2  0
  4 24  1  0
  5  6  1  0
  5 26  1  0
  6  7  2  0
  6 27  1  0
  7  8  1  0
  7 28  1  0
  8  9  1  0
  8 24  2  0
  9 10  1  0
  9 29  1  0
  9 30  1  0
 11 10  1  6
 10 31  1  0
 11 12  1  0
 11 19  1  0
 11 23  1  0
 12 13  1  0
 12 32  1  0
 12 33  1  0
 13 14  2  0
 13 18  1  0
 14 15  1  0
 14 34  1  0
 15 16  2  0
 15 35  1  0
 16 17  1  0
 16 36  1  0
 17 18  2  0
 17 37  1  0
 18 38  1  0
 19 20  1  0
 19 39  1  0
 19 40  1  0
 20 21  1  0
 20 41  1  0
 20 42  1  0
 21 22  1  0
 22 23  1  0
 22 43  1  0
 22 44  1  0
 23 45  1  0
 23 46  1  0
 24 47  1  0
M  END

