
     RDKit          3D

 35 34  0  0  0  0  0  0  0  0999 V2000
    9.3128   -3.0939   12.7314 C   0  0  0  0  0  0  0  0  0  0  0  0
    9.8790   -2.1828   11.6413 C   0  0  0  0  0  0  0  0  0  0  0  0
    8.8224   -1.3065   10.9609 C   0  0  0  0  0  0  0  0  0  0  0  0
    9.3847   -0.4013    9.8617 C   0  0  0  0  0  0  0  0  0  0  0  0
    8.3311    0.4783    9.1852 C   0  0  0  0  0  0  0  0  0  0  0  0
    8.8643    1.3279    8.0186 C   0  0  2  0  0  0  0  0  0  0  0  0
    9.7319    1.9046    8.3934 H   0  0  0  0  0  0  0  0  0  0  0  0
    7.8015    2.3317    7.5371 C   0  0  0  0  0  0  0  0  0  0  0  0
    9.3751    0.4503    6.9675 N   0  0  0  0  0  0  0  0  0  0  0  0
   10.2064    1.0517    5.9446 C   0  0  0  0  0  0  0  0  0  0  0  0
   10.6345    0.0026    4.9229 C   0  0  2  0  0  0  0  0  0  0  0  0
   11.1404   -0.8116    5.4795 H   0  0  0  0  0  0  0  0  0  0  0  0
   11.5786    0.5605    3.8609 C   0  0  0  0  0  0  0  0  0  0  0  0
    9.4313   -0.4895    4.3362 O   0  0  0  0  0  0  0  0  0  0  0  0
   10.1001   -3.7077   13.1981 H   0  0  0  0  0  0  0  0  0  0  0  0
    8.5527   -3.7819   12.3242 H   0  0  0  0  0  0  0  0  0  0  0  0
    8.8294   -2.5088   13.5321 H   0  0  0  0  0  0  0  0  0  0  0  0
   10.3876   -2.7951   10.8744 H   0  0  0  0  0  0  0  0  0  0  0  0
   10.6636   -1.5347   12.0732 H   0  0  0  0  0  0  0  0  0  0  0  0
    8.3147   -0.6895   11.7267 H   0  0  0  0  0  0  0  0  0  0  0  0
    8.0350   -1.9551   10.5324 H   0  0  0  0  0  0  0  0  0  0  0  0
    9.8794   -1.0095    9.0865 H   0  0  0  0  0  0  0  0  0  0  0  0
   10.1743    0.2448   10.2899 H   0  0  0  0  0  0  0  0  0  0  0  0
    7.8693    1.1490    9.9317 H   0  0  0  0  0  0  0  0  0  0  0  0
    7.5083   -0.1573    8.8040 H   0  0  0  0  0  0  0  0  0  0  0  0
    8.1718    2.9516    6.7058 H   0  0  0  0  0  0  0  0  0  0  0  0
    7.4949    3.0122    8.3483 H   0  0  0  0  0  0  0  0  0  0  0  0
    6.8994    1.8016    7.1853 H   0  0  0  0  0  0  0  0  0  0  0  0
    8.6112   -0.0524    6.5142 H   0  0  0  0  0  0  0  0  0  0  0  0
   11.1091    1.4788    6.4164 H   0  0  0  0  0  0  0  0  0  0  0  0
    9.7160    1.8810    5.3861 H   0  0  0  0  0  0  0  0  0  0  0  0
   11.8513   -0.2207    3.1318 H   0  0  0  0  0  0  0  0  0  0  0  0
   12.5123    0.9349    4.3110 H   0  0  0  0  0  0  0  0  0  0  0  0
   11.0980    1.3845    3.3097 H   0  0  0  0  0  0  0  0  0  0  0  0
    9.6450   -1.2655    3.8033 H   0  0  0  0  0  0  0  0  0  0  0  0
  1  2  1  0
  1 15  1  0
  1 16  1  0
  1 17  1  0
  2  3  1  0
  2 18  1  0
  2 19  1  0
  3  4  1  0
  3 20  1  0
  3 21  1  0
  4  5  1  0
  4 22  1  0
  4 23  1  0
  5  6  1  0
  5 24  1  0
  5 25  1  0
  6  7  1  1
  6  8  1  0
  6  9  1  0
  8 26  1  0
  8 27  1  0
  8 28  1  0
  9 10  1  0
  9 29  1  0
 10 11  1  0
 10 30  1  0
 10 31  1  0
 11 12  1  1
 11 13  1  0
 11 14  1  0
 13 32  1  0
 13 33  1  0
 13 34  1  0
 14 35  1  0
M  END

