
     RDKit          3D

 30 30  0  0  0  0  0  0  0  0999 V2000
    3.0569   -0.2967    1.5858 C   0  0  0  0  0  0  0  0  0  0  0  0
    2.6213   -0.0015    0.1512 C   0  0  0  0  0  0  0  0  0  0  0  0
    3.1659    1.3181   -0.3942 C   0  0  1  0  0  0  0  0  0  0  0  0
    2.7941    1.5321   -1.8667 C   0  0  0  0  0  0  0  0  0  0  0  0
    3.1707    2.8490   -2.3712 N   0  0  0  0  0  0  0  0  0  0  0  0
    2.3407    4.0241   -2.0173 C   0  0  2  0  0  0  0  0  0  0  0  0
    0.8267    3.7148   -1.9815 C   0  0  0  0  0  0  0  0  0  0  0  0
    2.6023    5.0840   -3.0995 C   0  0  0  0  0  0  0  0  0  0  0  0
    2.7815    4.5995   -0.6360 C   0  0  0  0  0  0  0  0  0  0  0  0
    3.3854    3.5879    0.3412 C   0  0  0  0  0  0  0  0  0  0  0  0
    2.6742    2.3664    0.4312 O   0  0  0  0  0  0  0  0  0  0  0  0
    2.6180   -1.2381    1.9525 H   0  0  0  0  0  0  0  0  0  0  0  0
    2.7410    0.5157    2.2567 H   0  0  0  0  0  0  0  0  0  0  0  0
    4.1537   -0.3871    1.6614 H   0  0  0  0  0  0  0  0  0  0  0  0
    1.5191    0.0295    0.0929 H   0  0  0  0  0  0  0  0  0  0  0  0
    2.9463   -0.8142   -0.5221 H   0  0  0  0  0  0  0  0  0  0  0  0
    4.2739    1.3099   -0.3229 H   0  0  0  0  0  0  0  0  0  0  0  0
    1.7165    1.2999   -1.9938 H   0  0  0  0  0  0  0  0  0  0  0  0
    3.3433    0.7828   -2.4616 H   0  0  0  0  0  0  0  0  0  0  0  0
    3.2552    2.8014   -3.3832 H   0  0  0  0  0  0  0  0  0  0  0  0
    0.4966    3.2356   -2.9185 H   0  0  0  0  0  0  0  0  0  0  0  0
    0.2514    4.6463   -1.8590 H   0  0  0  0  0  0  0  0  0  0  0  0
    0.5704    3.0552   -1.1404 H   0  0  0  0  0  0  0  0  0  0  0  0
    2.2044    4.7605   -4.0767 H   0  0  0  0  0  0  0  0  0  0  0  0
    3.6843    5.2622   -3.2071 H   0  0  0  0  0  0  0  0  0  0  0  0
    2.1194    6.0390   -2.8415 H   0  0  0  0  0  0  0  0  0  0  0  0
    1.9152    5.0986   -0.1705 H   0  0  0  0  0  0  0  0  0  0  0  0
    3.5446    5.3832   -0.7859 H   0  0  0  0  0  0  0  0  0  0  0  0
    3.4005    4.0291    1.3533 H   0  0  0  0  0  0  0  0  0  0  0  0
    4.4322    3.3831    0.0546 H   0  0  0  0  0  0  0  0  0  0  0  0
  1  2  1  0
  1 12  1  0
  1 13  1  0
  1 14  1  0
  2  3  1  0
  2 15  1  0
  2 16  1  0
  3  4  1  0
  3 11  1  0
  3 17  1  6
  4  5  1  0
  4 18  1  0
  4 19  1  0
  5  6  1  0
  5 20  1  0
  6  7  1  1
  6  8  1  0
  6  9  1  0
  7 21  1  0
  7 22  1  0
  7 23  1  0
  8 24  1  0
  8 25  1  0
  8 26  1  0
  9 10  1  0
  9 27  1  0
  9 28  1  0
 10 11  1  0
 10 29  1  0
 10 30  1  0
M  END

