
     RDKit          3D

 51 54  0  0  0  0  0  0  0  0999 V2000
    3.8328   -0.1226    3.4124 C   0  0  0  0  0  0  0  0  0  0  0  0
    2.7655    0.2622    2.3867 C   0  0  0  0  0  0  0  0  0  0  0  0
    3.2741    1.0149    1.2378 N   0  0  0  0  0  0  0  0  0  0  0  0
    3.9701    0.3133    0.1549 C   0  0  0  0  0  0  0  0  0  0  0  0
    3.0356   -0.2847   -0.8965 C   0  0  0  0  0  0  0  0  0  0  0  0
    2.9868    2.6493    1.0830 S   0  0  1  0  0  0  0  0  0  0  0  0
    2.8849    2.9408   -0.3489 O   0  0  0  0  0  0  0  0  0  0  0  0
    1.9323    2.9956    2.0368 O   0  0  0  0  0  0  0  0  0  0  0  0
    4.4589    3.4903    1.6259 C   0  0  0  0  0  0  0  0  0  0  0  0
    5.4602    3.9750    0.8165 C   0  0  0  0  0  0  0  0  0  0  0  0
    6.5044    4.5961    1.5590 C   0  0  0  0  0  0  0  0  0  0  0  0
    6.2822    4.5858    2.9183 C   0  0  0  0  0  0  0  0  0  0  0  0
    7.1859    5.1234    4.0020 C   0  0  0  0  0  0  0  0  0  0  0  0
    8.2720    4.2286    4.3725 N   0  0  0  0  0  0  0  0  0  0  0  0
    9.4565    4.2280    3.6834 C   0  0  0  0  0  0  0  0  0  0  0  0
    9.6806    5.0208    2.7782 O   0  0  0  0  0  0  0  0  0  0  0  0
   10.4551    3.2018    4.1312 C   0  0  2  0  0  0  0  0  0  0  0  0
   11.9177    3.5960    4.0095 C   0  0  1  0  0  0  0  0  0  0  0  0
   13.0193    2.7990    4.7464 C   0  0  1  0  0  0  0  0  0  0  0  0
   12.4207    1.7178    5.6781 C   0  0  0  0  0  0  0  0  0  0  0  0
   11.8110    0.6856    4.6719 C   0  0  0  0  0  0  0  0  0  0  0  0
   12.1393    1.3086    3.2937 C   0  0  2  0  0  0  0  0  0  0  0  0
   13.5382    1.9159    3.5808 C   0  0  0  0  0  0  0  0  0  0  0  0
   11.3315    2.6033    3.0417 C   0  0  1  0  0  0  0  0  0  0  0  0
    4.7703    3.8121    3.3048 S   0  0  0  0  0  0  0  0  0  0  0  0
    3.3793   -0.7074    4.2289 H   0  0  0  0  0  0  0  0  0  0  0  0
    4.3011    0.7720    3.8506 H   0  0  0  0  0  0  0  0  0  0  0  0
    4.6299   -0.7387    2.9653 H   0  0  0  0  0  0  0  0  0  0  0  0
    1.9801    0.8681    2.8575 H   0  0  0  0  0  0  0  0  0  0  0  0
    2.2664   -0.6439    2.0001 H   0  0  0  0  0  0  0  0  0  0  0  0
    4.5906   -0.4728    0.6174 H   0  0  0  0  0  0  0  0  0  0  0  0
    4.6731    1.0115   -0.3242 H   0  0  0  0  0  0  0  0  0  0  0  0
    2.3293   -1.0021   -0.4483 H   0  0  0  0  0  0  0  0  0  0  0  0
    3.6157   -0.8207   -1.6653 H   0  0  0  0  0  0  0  0  0  0  0  0
    2.4594    0.5142   -1.3844 H   0  0  0  0  0  0  0  0  0  0  0  0
    5.4193    3.9021   -0.2706 H   0  0  0  0  0  0  0  0  0  0  0  0
    7.3997    5.0406    1.1220 H   0  0  0  0  0  0  0  0  0  0  0  0
    6.6049    5.3669    4.9045 H   0  0  0  0  0  0  0  0  0  0  0  0
    7.6488    6.0514    3.6380 H   0  0  0  0  0  0  0  0  0  0  0  0
    8.0835    3.4773    5.0247 H   0  0  0  0  0  0  0  0  0  0  0  0
   10.1377    2.5762    4.9677 H   0  0  0  0  0  0  0  0  0  0  0  0
   12.1162    4.6259    3.7016 H   0  0  0  0  0  0  0  0  0  0  0  0
   13.7607    3.4455    5.2370 H   0  0  0  0  0  0  0  0  0  0  0  0
   11.6836    2.1266    6.3859 H   0  0  0  0  0  0  0  0  0  0  0  0
   13.2199    1.2598    6.2811 H   0  0  0  0  0  0  0  0  0  0  0  0
   10.7329    0.5177    4.8171 H   0  0  0  0  0  0  0  0  0  0  0  0
   12.3006   -0.2961    4.7645 H   0  0  0  0  0  0  0  0  0  0  0  0
   12.0780    0.5956    2.4592 H   0  0  0  0  0  0  0  0  0  0  0  0
   13.9322    2.5048    2.7379 H   0  0  0  0  0  0  0  0  0  0  0  0
   14.2946    1.1724    3.8852 H   0  0  0  0  0  0  0  0  0  0  0  0
   11.0962    2.8956    2.0149 H   0  0  0  0  0  0  0  0  0  0  0  0
  1  2  1  0
  1 26  1  0
  1 27  1  0
  1 28  1  0
  2  3  1  0
  2 29  1  0
  2 30  1  0
  3  4  1  0
  6  3  1  6
  4  5  1  0
  4 31  1  0
  4 32  1  0
  5 33  1  0
  5 34  1  0
  5 35  1  0
  6  7  2  0
  6  8  2  0
  6  9  1  0
  9 10  2  0
  9 25  1  0
 10 11  1  0
 10 36  1  0
 11 12  2  0
 11 37  1  0
 12 13  1  0
 12 25  1  0
 13 14  1  0
 13 38  1  0
 13 39  1  0
 14 15  1  0
 14 40  1  0
 15 16  2  0
 15 17  1  0
 17 18  1  0
 17 24  1  0
 17 41  1  1
 18 19  1  0
 18 24  1  0
 18 42  1  6
 19 20  1  0
 19 23  1  0
 19 43  1  1
 20 21  1  0
 20 44  1  0
 20 45  1  0
 21 22  1  0
 21 46  1  0
 21 47  1  0
 22 23  1  0
 22 24  1  0
 22 48  1  6
 23 49  1  0
 23 50  1  0
 24 51  1  6
M  END

