
     RDKit          3D

 37 39  0  0  0  0  0  0  0  0999 V2000
    2.7550    1.3179   -0.3976 C   0  0  0  0  0  0  0  0  0  0  0  0
    2.6758   -0.0686   -0.1417 O   0  0  0  0  0  0  0  0  0  0  0  0
    3.2583   -0.5793    0.9666 C   0  0  0  0  0  0  0  0  0  0  0  0
    3.9581    0.1993    1.8994 C   0  0  0  0  0  0  0  0  0  0  0  0
    4.5117   -0.4538    3.0032 C   0  0  0  0  0  0  0  0  0  0  0  0
    5.1799    0.2889    3.8964 F   0  0  0  0  0  0  0  0  0  0  0  0
    4.4103   -1.8187    3.2286 C   0  0  0  0  0  0  0  0  0  0  0  0
    3.7084   -2.5942    2.2840 C   0  0  0  0  0  0  0  0  0  0  0  0
    3.1254   -1.9745    1.1498 C   0  0  0  0  0  0  0  0  0  0  0  0
    2.4118   -2.8422    0.2224 C   0  0  0  0  0  0  0  0  0  0  0  0
    2.2381   -4.1049    0.3618 N   0  0  0  0  0  0  0  0  0  0  0  0
    2.7612   -4.7914    1.5208 C   0  0  2  0  0  0  0  0  0  0  0  0
    1.6269   -5.4492    2.3130 C   0  0  0  0  0  0  0  0  0  0  0  0
    1.7077   -6.7929    2.6922 C   0  0  0  0  0  0  0  0  0  0  0  0
    0.6760   -7.3573    3.4562 C   0  0  0  0  0  0  0  0  0  0  0  0
    0.7070   -8.8011    3.8907 C   0  0  0  0  0  0  0  0  0  0  0  0
   -0.3918   -6.6422    3.8362 N   0  0  0  0  0  0  0  0  0  0  0  0
   -0.4873   -5.3557    3.4783 C   0  0  0  0  0  0  0  0  0  0  0  0
   -1.7169   -4.6034    3.9262 C   0  0  0  0  0  0  0  0  0  0  0  0
    0.5061   -4.7217    2.7148 C   0  0  0  0  0  0  0  0  0  0  0  0
    3.5806   -3.9460    2.4091 N   0  0  0  0  0  0  0  0  0  0  0  0
    2.2103    1.4925   -1.3348 H   0  0  0  0  0  0  0  0  0  0  0  0
    3.8005    1.6503   -0.5219 H   0  0  0  0  0  0  0  0  0  0  0  0
    2.2842    1.9084    0.4076 H   0  0  0  0  0  0  0  0  0  0  0  0
    4.0880    1.2748    1.8040 H   0  0  0  0  0  0  0  0  0  0  0  0
    4.8700   -2.2607    4.1136 H   0  0  0  0  0  0  0  0  0  0  0  0
    1.9856   -2.3753   -0.6751 H   0  0  0  0  0  0  0  0  0  0  0  0
    3.4022   -5.6136    1.1465 H   0  0  0  0  0  0  0  0  0  0  0  0
    2.5639   -7.4023    2.3891 H   0  0  0  0  0  0  0  0  0  0  0  0
    1.6165   -9.3173    3.5513 H   0  0  0  0  0  0  0  0  0  0  0  0
   -0.1713   -9.3355    3.4939 H   0  0  0  0  0  0  0  0  0  0  0  0
    0.6485   -8.8693    4.9889 H   0  0  0  0  0  0  0  0  0  0  0  0
   -2.3617   -5.2688    4.5148 H   0  0  0  0  0  0  0  0  0  0  0  0
   -2.2893   -4.2270    3.0621 H   0  0  0  0  0  0  0  0  0  0  0  0
   -1.4487   -3.7296    4.5430 H   0  0  0  0  0  0  0  0  0  0  0  0
    0.3949   -3.6725    2.4308 H   0  0  0  0  0  0  0  0  0  0  0  0
    3.9492   -4.3834    3.2447 H   0  0  0  0  0  0  0  0  0  0  0  0
  1  2  1  0
  1 22  1  0
  1 23  1  0
  1 24  1  0
  2  3  1  0
  3  4  2  0
  3  9  1  0
  4  5  1  0
  4 25  1  0
  5  6  1  0
  5  7  2  0
  7  8  1  0
  7 26  1  0
  8  9  2  0
  8 21  1  0
  9 10  1  0
 10 11  2  0
 10 27  1  0
 11 12  1  0
 12 13  1  0
 12 21  1  0
 12 28  1  6
 13 14  2  0
 13 20  1  0
 14 15  1  0
 14 29  1  0
 15 16  1  0
 15 17  2  0
 16 30  1  0
 16 31  1  0
 16 32  1  0
 17 18  1  0
 18 19  1  0
 18 20  2  0
 19 33  1  0
 19 34  1  0
 19 35  1  0
 20 36  1  0
 21 37  1  0
M  END

