
     RDKit          3D

 56 59  0  0  0  0  0  0  0  0999 V2000
    3.9346   -2.1762    1.8880 C   0  0  0  0  0  0  0  0  0  0  0  0
    3.7387   -0.7268    1.4801 C   0  0  0  0  0  0  0  0  0  0  0  0
    4.2909    0.1693    2.0846 O   0  0  0  0  0  0  0  0  0  0  0  0
    2.8977   -0.4941    0.3715 N   0  0  0  0  0  0  0  0  0  0  0  0
    2.0679   -1.5793   -0.1032 C   0  0  0  0  0  0  0  0  0  0  0  0
    2.5285   -2.4072   -1.1343 C   0  0  0  0  0  0  0  0  0  0  0  0
    1.7423   -3.4744   -1.5729 C   0  0  0  0  0  0  0  0  0  0  0  0
    0.4932   -3.7140   -0.9998 C   0  0  0  0  0  0  0  0  0  0  0  0
    0.0175   -2.8784    0.0267 C   0  0  0  0  0  0  0  0  0  0  0  0
   -1.2963   -3.1076    0.6286 C   0  0  0  0  0  0  0  0  0  0  0  0
   -2.0604   -2.4072    1.5285 C   0  0  0  0  0  0  0  0  0  0  0  0
   -3.2368   -3.1978    1.6756 C   0  0  0  0  0  0  0  0  0  0  0  0
   -4.4518   -2.9398    2.4896 C   0  0  0  0  0  0  0  0  0  0  0  0
   -4.3107   -2.6870    3.8726 C   0  0  0  0  0  0  0  0  0  0  0  0
   -2.7337   -2.7389    4.6391 Cl  0  0  0  0  0  0  0  0  0  0  0  0
   -5.4046   -2.4143    4.6936 C   0  0  0  0  0  0  0  0  0  0  0  0
   -6.6808   -2.3711    4.1357 C   0  0  0  0  0  0  0  0  0  0  0  0
   -6.8498   -2.6021    2.7741 C   0  0  0  0  0  0  0  0  0  0  0  0
   -5.7617   -2.9053    1.9394 C   0  0  0  0  0  0  0  0  0  0  0  0
   -6.1673   -3.0909    0.4741 C   0  0  0  0  0  0  0  0  0  0  0  0
   -7.1243   -2.4935    0.0455 O   0  0  0  0  0  0  0  0  0  0  0  0
   -5.5063   -3.9565   -0.2881 O   0  0  0  0  0  0  0  0  0  0  0  0
   -3.1606   -4.2811    0.9266 N   0  0  0  0  0  0  0  0  0  0  0  0
   -1.9607   -4.2261    0.2665 O   0  0  0  0  0  0  0  0  0  0  0  0
    0.8179   -1.8126    0.4735 C   0  0  0  0  0  0  0  0  0  0  0  0
    2.5596    0.8742   -0.0244 C   0  0  1  0  0  0  0  0  0  0  0  0
    1.7314    0.8153   -1.6325 Cl  0  0  0  0  0  0  0  0  0  0  0  0
    1.3832    1.5807    1.2022 Cl  0  0  0  0  0  0  0  0  0  0  0  0
    3.7825    1.7843   -0.1452 C   0  0  0  0  0  0  0  0  0  0  0  0
    3.5522    3.2260   -0.5983 C   0  0  0  0  0  0  0  0  0  0  0  0
    2.4533    3.6796   -0.8315 O   0  0  0  0  0  0  0  0  0  0  0  0
    4.7822    4.0793   -0.7383 C   0  0  0  0  0  0  0  0  0  0  0  0
    4.6122    5.3833   -1.2399 C   0  0  0  0  0  0  0  0  0  0  0  0
    5.6983    6.2383   -1.3987 C   0  0  0  0  0  0  0  0  0  0  0  0
    6.9689    5.7809   -1.0455 C   0  0  0  0  0  0  0  0  0  0  0  0
    8.0182    6.5958   -1.1940 F   0  0  0  0  0  0  0  0  0  0  0  0
    7.1737    4.4981   -0.5406 C   0  0  0  0  0  0  0  0  0  0  0  0
    6.0756    3.6506   -0.3895 C   0  0  0  0  0  0  0  0  0  0  0  0
    4.6967   -2.1887    2.6762 H   0  0  0  0  0  0  0  0  0  0  0  0
    4.2538   -2.8065    1.0463 H   0  0  0  0  0  0  0  0  0  0  0  0
    3.0004   -2.6066    2.2788 H   0  0  0  0  0  0  0  0  0  0  0  0
    3.4994   -2.2034   -1.5900 H   0  0  0  0  0  0  0  0  0  0  0  0
    2.1034   -4.1206   -2.3761 H   0  0  0  0  0  0  0  0  0  0  0  0
   -0.1233   -4.5442   -1.3473 H   0  0  0  0  0  0  0  0  0  0  0  0
   -1.8333   -1.4644    2.0146 H   0  0  0  0  0  0  0  0  0  0  0  0
   -5.2427   -2.2384    5.7580 H   0  0  0  0  0  0  0  0  0  0  0  0
   -7.5443   -2.1506    4.7676 H   0  0  0  0  0  0  0  0  0  0  0  0
   -7.8366   -2.5425    2.3147 H   0  0  0  0  0  0  0  0  0  0  0  0
   -4.7168   -4.3508    0.1537 H   0  0  0  0  0  0  0  0  0  0  0  0
    0.4711   -1.1491    1.2661 H   0  0  0  0  0  0  0  0  0  0  0  0
    4.4802    1.2982   -0.8471 H   0  0  0  0  0  0  0  0  0  0  0  0
    4.2802    1.7962    0.8330 H   0  0  0  0  0  0  0  0  0  0  0  0
    3.6023    5.7053   -1.5006 H   0  0  0  0  0  0  0  0  0  0  0  0
    5.5829    7.2515   -1.7887 H   0  0  0  0  0  0  0  0  0  0  0  0
    8.1833    4.1831   -0.2709 H   0  0  0  0  0  0  0  0  0  0  0  0
    6.2440    2.6511    0.0144 H   0  0  0  0  0  0  0  0  0  0  0  0
  1  2  1  0
  1 39  1  0
  1 40  1  0
  1 41  1  0
  2  3  2  0
  2  4  1  0
  4  5  1  0
  4 26  1  0
  5  6  2  0
  5 25  1  0
  6  7  1  0
  6 42  1  0
  7  8  2  0
  7 43  1  0
  8  9  1  0
  8 44  1  0
  9 10  1  0
  9 25  2  0
 10 11  2  0
 10 24  1  0
 11 12  1  0
 11 45  1  0
 12 13  1  0
 12 23  2  0
 13 14  2  0
 13 19  1  0
 14 15  1  0
 14 16  1  0
 16 17  2  0
 16 46  1  0
 17 18  1  0
 17 47  1  0
 18 19  2  0
 18 48  1  0
 19 20  1  0
 20 21  2  0
 20 22  1  0
 22 49  1  0
 23 24  1  0
 25 50  1  0
 26 27  1  6
 26 28  1  0
 26 29  1  0
 29 30  1  0
 29 51  1  0
 29 52  1  0
 30 31  2  0
 30 32  1  0
 32 33  2  0
 32 38  1  0
 33 34  1  0
 33 53  1  0
 34 35  2  0
 34 54  1  0
 35 36  1  0
 35 37  1  0
 37 38  2  0
 37 55  1  0
 38 56  1  0
M  END

