
     RDKit          3D

 33 33  0  0  0  0  0  0  0  0999 V2000
    1.4674   -0.3362   -1.3576 C   0  0  0  0  0  0  0  0  0  0  0  0
    2.3452    0.2106   -0.4091 O   0  0  0  0  0  0  0  0  0  0  0  0
    3.0897    1.3015   -0.8847 C   0  0  0  0  0  0  0  0  0  0  0  0
    3.9896    1.7634    0.2606 C   0  0  0  0  0  0  0  0  0  0  0  0
    4.7975    2.9200   -0.0967 N   0  0  0  0  0  0  0  0  0  0  0  0
    4.2951    4.1402    0.1439 N   0  0  0  0  0  0  0  0  0  0  0  0
    5.1721    4.9990   -0.3567 C   0  0  0  0  0  0  0  0  0  0  0  0
    6.2603    4.3146   -0.9393 C   0  0  0  0  0  0  0  0  0  0  0  0
    7.7205    5.1630   -1.7888 Br  0  0  0  0  0  0  0  0  0  0  0  0
    6.0014    2.9538   -0.7577 C   0  0  0  0  0  0  0  0  0  0  0  0
    6.6846    1.6883   -1.2249 C   0  0  1  0  0  0  0  0  0  0  0  0
    6.1648    1.2759   -2.4890 O   0  0  0  0  0  0  0  0  0  0  0  0
    8.2178    1.7200   -1.2403 C   0  0  0  0  0  0  0  0  0  0  0  0
    8.8642    1.9644    0.1243 C   0  0  0  0  0  0  0  0  0  0  0  0
   10.3922    1.9330    0.0774 C   0  0  0  0  0  0  0  0  0  0  0  0
   10.9854    2.0967    1.3472 O   0  0  0  0  0  0  0  0  0  0  0  0
    0.9453   -1.1808   -0.8847 H   0  0  0  0  0  0  0  0  0  0  0  0
    2.0044   -0.7085   -2.2534 H   0  0  0  0  0  0  0  0  0  0  0  0
    0.7112    0.4011   -1.6961 H   0  0  0  0  0  0  0  0  0  0  0  0
    2.4309    2.1401   -1.1923 H   0  0  0  0  0  0  0  0  0  0  0  0
    3.7112    1.0225   -1.7587 H   0  0  0  0  0  0  0  0  0  0  0  0
    4.6380    0.9339    0.5755 H   0  0  0  0  0  0  0  0  0  0  0  0
    3.3755    2.0596    1.1210 H   0  0  0  0  0  0  0  0  0  0  0  0
    5.0117    6.0739   -0.2869 H   0  0  0  0  0  0  0  0  0  0  0  0
    6.3868    0.8820   -0.5368 H   0  0  0  0  0  0  0  0  0  0  0  0
    6.3276    1.9888   -3.1232 H   0  0  0  0  0  0  0  0  0  0  0  0
    8.5620    2.4781   -1.9625 H   0  0  0  0  0  0  0  0  0  0  0  0
    8.5360    0.7425   -1.6401 H   0  0  0  0  0  0  0  0  0  0  0  0
    8.5255    1.2070    0.8531 H   0  0  0  0  0  0  0  0  0  0  0  0
    8.5427    2.9452    0.5192 H   0  0  0  0  0  0  0  0  0  0  0  0
   10.7558    2.6920   -0.6468 H   0  0  0  0  0  0  0  0  0  0  0  0
   10.7348    0.9533   -0.2963 H   0  0  0  0  0  0  0  0  0  0  0  0
   10.7467    2.9725    1.6787 H   0  0  0  0  0  0  0  0  0  0  0  0
  1  2  1  0
  1 17  1  0
  1 18  1  0
  1 19  1  0
  2  3  1  0
  3  4  1  0
  3 20  1  0
  3 21  1  0
  4  5  1  0
  4 22  1  0
  4 23  1  0
  5  6  1  0
  5 10  1  0
  6  7  2  0
  7  8  1  0
  7 24  1  0
  8  9  1  0
  8 10  2  0
 10 11  1  0
 11 12  1  0
 11 13  1  0
 11 25  1  1
 12 26  1  0
 13 14  1  0
 13 27  1  0
 13 28  1  0
 14 15  1  0
 14 29  1  0
 14 30  1  0
 15 16  1  0
 15 31  1  0
 15 32  1  0
 16 33  1  0
M  END

