
     RDKit          3D

 34 35  0  0  0  0  0  0  0  0999 V2000
    0.8692   -0.1494    0.3669 C   0  0  0  0  0  0  0  0  0  0  0  0
    2.3823    0.0659    0.2085 C   0  0  1  0  0  0  0  0  0  0  0  0
    2.8047    1.1017    1.1287 N   0  0  0  0  0  0  0  0  0  0  0  0
    3.9439    1.8639    0.9914 C   0  0  0  0  0  0  0  0  0  0  0  0
    4.9514    1.5738    0.0451 C   0  0  0  0  0  0  0  0  0  0  0  0
    6.0931    2.3693   -0.0627 C   0  0  0  0  0  0  0  0  0  0  0  0
    6.2776    3.4778    0.7665 C   0  0  0  0  0  0  0  0  0  0  0  0
    5.2978    3.7850    1.7155 C   0  0  0  0  0  0  0  0  0  0  0  0
    4.1585    2.9930    1.8223 C   0  0  0  0  0  0  0  0  0  0  0  0
    2.9353    3.4054    3.0231 Cl  0  0  0  0  0  0  0  0  0  0  0  0
    3.1368   -1.2555    0.3880 C   0  0  0  0  0  0  0  0  0  0  0  0
    3.6382   -1.6451    1.6343 C   0  0  0  0  0  0  0  0  0  0  0  0
    4.2863   -2.8766    1.7788 C   0  0  0  0  0  0  0  0  0  0  0  0
    4.4328   -3.7353    0.6905 C   0  0  0  0  0  0  0  0  0  0  0  0
    3.9312   -3.3448   -0.5557 C   0  0  0  0  0  0  0  0  0  0  0  0
    4.1344   -4.2263   -1.6003 O   0  0  0  0  0  0  0  0  0  0  0  0
    3.2274   -4.2812   -2.6183 C   0  0  1  0  0  0  0  0  0  0  0  0
    3.4480   -3.2881   -3.5213 F   0  0  0  0  0  0  0  0  0  0  0  0
    3.4102   -5.4452   -3.2513 F   0  0  0  0  0  0  0  0  0  0  0  0
    3.2967   -2.1085   -0.7158 C   0  0  0  0  0  0  0  0  0  0  0  0
    0.3203    0.7836    0.1619 H   0  0  0  0  0  0  0  0  0  0  0  0
    0.6309   -0.4839    1.3897 H   0  0  0  0  0  0  0  0  0  0  0  0
    0.5123   -0.9216   -0.3291 H   0  0  0  0  0  0  0  0  0  0  0  0
    2.5628    0.4065   -0.8298 H   0  0  0  0  0  0  0  0  0  0  0  0
    2.1095    1.4728    1.7646 H   0  0  0  0  0  0  0  0  0  0  0  0
    4.8432    0.7029   -0.6016 H   0  0  0  0  0  0  0  0  0  0  0  0
    6.8503    2.1099   -0.8069 H   0  0  0  0  0  0  0  0  0  0  0  0
    7.1719    4.0986    0.6830 H   0  0  0  0  0  0  0  0  0  0  0  0
    5.4074    4.6437    2.3804 H   0  0  0  0  0  0  0  0  0  0  0  0
    3.5349   -0.9693    2.4855 H   0  0  0  0  0  0  0  0  0  0  0  0
    4.6819   -3.1718    2.7539 H   0  0  0  0  0  0  0  0  0  0  0  0
    4.9322   -4.7016    0.7804 H   0  0  0  0  0  0  0  0  0  0  0  0
    2.1827   -4.1978   -2.2651 H   0  0  0  0  0  0  0  0  0  0  0  0
    2.9568   -1.7905   -1.7034 H   0  0  0  0  0  0  0  0  0  0  0  0
  1  2  1  0
  1 21  1  0
  1 22  1  0
  1 23  1  0
  2  3  1  0
  2 11  1  0
  2 24  1  6
  3  4  1  0
  3 25  1  0
  4  5  2  0
  4  9  1  0
  5  6  1  0
  5 26  1  0
  6  7  2  0
  6 27  1  0
  7  8  1  0
  7 28  1  0
  8  9  2  0
  8 29  1  0
  9 10  1  0
 11 12  2  0
 11 20  1  0
 12 13  1  0
 12 30  1  0
 13 14  2  0
 13 31  1  0
 14 15  1  0
 14 32  1  0
 15 16  1  0
 15 20  2  0
 16 17  1  0
 17 18  1  0
 17 19  1  0
 17 33  1  1
 20 34  1  0
M  END

