
     RDKit          3D

 32 32  0  0  0  0  0  0  0  0999 V2000
    0.7977   -0.0055   -0.0991 C   0  0  0  0  0  0  0  0  0  0  0  0
    2.3263   -0.0098   -0.0522 C   0  0  0  0  0  0  0  0  0  0  0  0
    2.9676   -0.9991   -1.0304 C   0  0  0  0  0  0  0  0  0  0  0  0
    4.4988   -1.0092   -0.9904 C   0  0  0  0  0  0  0  0  0  0  0  0
    5.1311   -2.0011   -1.9736 C   0  0  0  0  0  0  0  0  0  0  0  0
    6.6656   -1.9955   -2.0130 C   0  0  0  0  0  0  0  0  0  0  0  0
    7.3436   -2.5002   -0.7227 C   0  0  0  0  0  0  0  0  0  0  0  0
    8.8428   -2.5357   -0.7861 C   0  0  0  0  0  0  0  0  0  0  0  0
    9.7249   -1.7744   -0.0903 C   0  0  0  0  0  0  0  0  0  0  0  0
   11.0991   -2.1366   -0.4579 C   0  0  0  0  0  0  0  0  0  0  0  0
   11.0692   -3.1251   -1.3800 C   0  0  0  0  0  0  0  0  0  0  0  0
    9.6345   -3.4699   -1.6760 C   0  0  0  0  0  0  0  0  0  0  0  0
    0.3717    0.7163    0.6161 H   0  0  0  0  0  0  0  0  0  0  0  0
    0.3861   -0.9991    0.1463 H   0  0  0  0  0  0  0  0  0  0  0  0
    0.4279    0.2636   -1.1029 H   0  0  0  0  0  0  0  0  0  0  0  0
    2.6632   -0.2448    0.9740 H   0  0  0  0  0  0  0  0  0  0  0  0
    2.7048    1.0067   -0.2648 H   0  0  0  0  0  0  0  0  0  0  0  0
    2.6304   -0.7656   -2.0578 H   0  0  0  0  0  0  0  0  0  0  0  0
    2.5905   -2.0172   -0.8177 H   0  0  0  0  0  0  0  0  0  0  0  0
    4.8272   -1.2356    0.0397 H   0  0  0  0  0  0  0  0  0  0  0  0
    4.8761    0.0074   -1.2091 H   0  0  0  0  0  0  0  0  0  0  0  0
    4.7536   -1.7801   -2.9882 H   0  0  0  0  0  0  0  0  0  0  0  0
    4.7765   -3.0227   -1.7396 H   0  0  0  0  0  0  0  0  0  0  0  0
    7.0279   -0.9748   -2.2313 H   0  0  0  0  0  0  0  0  0  0  0  0
    6.9980   -2.6216   -2.8590 H   0  0  0  0  0  0  0  0  0  0  0  0
    6.9574   -3.5145   -0.5031 H   0  0  0  0  0  0  0  0  0  0  0  0
    7.0436   -1.8668    0.1277 H   0  0  0  0  0  0  0  0  0  0  0  0
    9.4604   -1.0074    0.6414 H   0  0  0  0  0  0  0  0  0  0  0  0
   11.9945   -1.6713   -0.0407 H   0  0  0  0  0  0  0  0  0  0  0  0
   11.9263   -3.6092   -1.8501 H   0  0  0  0  0  0  0  0  0  0  0  0
    9.4066   -4.5306   -1.4545 H   0  0  0  0  0  0  0  0  0  0  0  0
    9.3911   -3.3308   -2.7467 H   0  0  0  0  0  0  0  0  0  0  0  0
  1  2  1  0
  1 13  1  0
  1 14  1  0
  1 15  1  0
  2  3  1  0
  2 16  1  0
  2 17  1  0
  3  4  1  0
  3 18  1  0
  3 19  1  0
  4  5  1  0
  4 20  1  0
  4 21  1  0
  5  6  1  0
  5 22  1  0
  5 23  1  0
  6  7  1  0
  6 24  1  0
  6 25  1  0
  7  8  1  0
  7 26  1  0
  7 27  1  0
  8  9  2  0
  8 12  1  0
  9 10  1  0
  9 28  1  0
 10 11  2  0
 10 29  1  0
 11 12  1  0
 11 30  1  0
 12 31  1  0
 12 32  1  0
M  END

