
     RDKit          3D

 38 39  0  0  0  0  0  0  0  0999 V2000
    2.3662    3.4025    1.4284 C   0  0  0  0  0  0  0  0  0  0  0  0
    2.3680    2.9442   -0.0308 C   0  0  0  0  0  0  0  0  0  0  0  0
    2.9405    1.6115   -0.2329 N   0  0  0  0  0  0  0  0  0  0  0  0
    2.1316    0.4361    0.0230 C   0  0  0  0  0  0  0  0  0  0  0  0
    4.2789    1.4931   -0.4314 C   0  0  0  0  0  0  0  0  0  0  0  0
    5.0929    2.5115   -0.5683 N   0  0  0  0  0  0  0  0  0  0  0  0
    6.3783    2.1002   -0.7887 C   0  0  0  0  0  0  0  0  0  0  0  0
    7.3516    3.0174   -0.9619 N   0  0  0  0  0  0  0  0  0  0  0  0
    6.5912    0.7140   -0.8186 C   0  0  0  0  0  0  0  0  0  0  0  0
    7.8779    0.0872   -1.0428 C   0  0  0  0  0  0  0  0  0  0  0  0
    8.9101    0.7656   -1.1851 O   0  0  0  0  0  0  0  0  0  0  0  0
    7.9279   -1.2885   -1.0814 N   0  0  0  0  0  0  0  0  0  0  0  0
    9.1620   -2.0043   -1.3613 C   0  0  0  0  0  0  0  0  0  0  0  0
    9.3586   -2.3707   -2.8225 C   0  0  0  0  0  0  0  0  0  0  0  0
    9.5890   -1.3653   -3.7792 C   0  0  0  0  0  0  0  0  0  0  0  0
    9.7574   -1.6836   -5.1269 C   0  0  0  0  0  0  0  0  0  0  0  0
    9.6969   -3.0210   -5.5188 C   0  0  0  0  0  0  0  0  0  0  0  0
    9.8600   -3.3312   -6.8152 F   0  0  0  0  0  0  0  0  0  0  0  0
    9.4742   -4.0405   -4.5987 C   0  0  0  0  0  0  0  0  0  0  0  0
    9.3052   -3.7037   -3.2513 C   0  0  0  0  0  0  0  0  0  0  0  0
    5.0439   -0.0990   -0.5227 S   0  0  0  0  0  0  0  0  0  0  0  0
    1.9129    4.4035    1.5121 H   0  0  0  0  0  0  0  0  0  0  0  0
    3.3947    3.4609    1.8158 H   0  0  0  0  0  0  0  0  0  0  0  0
    1.7896    2.7181    2.0717 H   0  0  0  0  0  0  0  0  0  0  0  0
    2.9525    3.6452   -0.6416 H   0  0  0  0  0  0  0  0  0  0  0  0
    1.3411    2.9253   -0.4321 H   0  0  0  0  0  0  0  0  0  0  0  0
    1.0695    0.7019   -0.0688 H   0  0  0  0  0  0  0  0  0  0  0  0
    2.2989    0.0087    1.0297 H   0  0  0  0  0  0  0  0  0  0  0  0
    2.3479   -0.3497   -0.7203 H   0  0  0  0  0  0  0  0  0  0  0  0
    7.1236    3.9993   -0.9123 H   0  0  0  0  0  0  0  0  0  0  0  0
    8.2975    2.6623   -1.0870 H   0  0  0  0  0  0  0  0  0  0  0  0
    7.0585   -1.8021   -1.1638 H   0  0  0  0  0  0  0  0  0  0  0  0
    9.1926   -2.9170   -0.7439 H   0  0  0  0  0  0  0  0  0  0  0  0
    9.9774   -1.3461   -1.0297 H   0  0  0  0  0  0  0  0  0  0  0  0
    9.6377   -0.3242   -3.4503 H   0  0  0  0  0  0  0  0  0  0  0  0
    9.9400   -0.9139   -5.8797 H   0  0  0  0  0  0  0  0  0  0  0  0
    9.4361   -5.0761   -4.9424 H   0  0  0  0  0  0  0  0  0  0  0  0
    9.1324   -4.5003   -2.5213 H   0  0  0  0  0  0  0  0  0  0  0  0
  1  2  1  0
  1 22  1  0
  1 23  1  0
  1 24  1  0
  2  3  1  0
  2 25  1  0
  2 26  1  0
  3  4  1  0
  3  5  1  0
  4 27  1  0
  4 28  1  0
  4 29  1  0
  5  6  2  0
  5 21  1  0
  6  7  1  0
  7  8  1  0
  7  9  2  0
  8 30  1  0
  8 31  1  0
  9 10  1  0
  9 21  1  0
 10 11  2  0
 10 12  1  0
 12 13  1  0
 12 32  1  0
 13 14  1  0
 13 33  1  0
 13 34  1  0
 14 15  2  0
 14 20  1  0
 15 16  1  0
 15 35  1  0
 16 17  2  0
 16 36  1  0
 17 18  1  0
 17 19  1  0
 19 20  2  0
 19 37  1  0
 20 38  1  0
M  END

