
     RDKit          3D

 48 49  0  0  0  0  0  0  0  0999 V2000
    3.0886   -0.3947    1.3012 C   0  0  0  0  0  0  0  0  0  0  0  0
    2.3072    0.0955    0.0632 C   0  0  1  0  0  0  0  0  0  0  0  0
    0.7993   -0.0907    0.3268 C   0  0  0  0  0  0  0  0  0  0  0  0
    2.6043    1.6032   -0.0887 C   0  0  0  0  0  0  0  0  0  0  0  0
    2.7767   -0.6717   -1.2323 C   0  0  1  0  0  0  0  0  0  0  0  0
    2.8548   -2.1995   -1.0331 C   0  0  0  0  0  0  0  0  0  0  0  0
    3.3093   -3.0427   -2.2375 C   0  0  0  0  0  0  0  0  0  0  0  0
    2.3016   -3.1138   -3.3952 C   0  0  0  0  0  0  0  0  0  0  0  0
    2.3599   -1.9803   -4.4443 C   0  0  2  0  0  0  0  0  0  0  0  0
    1.0755   -1.8492   -5.0551 O   0  0  0  0  0  0  0  0  0  0  0  0
    3.4387   -2.2591   -5.5395 C   0  0  0  0  0  0  0  0  0  0  0  0
    3.1577   -3.4356   -6.4464 C   0  0  0  0  0  0  0  0  0  0  0  0
    3.7982   -4.6738   -6.2537 C   0  0  0  0  0  0  0  0  0  0  0  0
    3.5137   -5.7546   -7.0906 C   0  0  0  0  0  0  0  0  0  0  0  0
    2.5885   -5.6280   -8.1296 C   0  0  0  0  0  0  0  0  0  0  0  0
    1.9464   -4.3986   -8.3336 C   0  0  0  0  0  0  0  0  0  0  0  0
    1.0427   -4.2021   -9.3293 O   0  0  0  0  0  0  0  0  0  0  0  0
    2.2332   -3.3116   -7.4950 C   0  0  0  0  0  0  0  0  0  0  0  0
    2.6559   -0.6017   -3.8262 C   0  0  0  0  0  0  0  0  0  0  0  0
    1.9663   -0.2793   -2.4899 C   0  0  0  0  0  0  0  0  0  0  0  0
    2.8703    0.2500    2.1681 H   0  0  0  0  0  0  0  0  0  0  0  0
    4.1779   -0.3609    1.1299 H   0  0  0  0  0  0  0  0  0  0  0  0
    2.8226   -1.4230    1.5877 H   0  0  0  0  0  0  0  0  0  0  0  0
    0.5090    0.4122    1.2641 H   0  0  0  0  0  0  0  0  0  0  0  0
    0.5280   -1.1536    0.4292 H   0  0  0  0  0  0  0  0  0  0  0  0
    0.1835    0.3377   -0.4789 H   0  0  0  0  0  0  0  0  0  0  0  0
    2.3167    2.1457    0.8267 H   0  0  0  0  0  0  0  0  0  0  0  0
    2.0532    2.0630   -0.9225 H   0  0  0  0  0  0  0  0  0  0  0  0
    3.6796    1.7815   -0.2568 H   0  0  0  0  0  0  0  0  0  0  0  0
    3.8142   -0.3260   -1.4107 H   0  0  0  0  0  0  0  0  0  0  0  0
    1.8681   -2.5789   -0.7099 H   0  0  0  0  0  0  0  0  0  0  0  0
    3.5464   -2.4138   -0.2045 H   0  0  0  0  0  0  0  0  0  0  0  0
    3.4835   -4.0677   -1.8688 H   0  0  0  0  0  0  0  0  0  0  0  0
    4.2937   -2.6930   -2.5981 H   0  0  0  0  0  0  0  0  0  0  0  0
    1.2826   -3.1112   -2.9752 H   0  0  0  0  0  0  0  0  0  0  0  0
    2.4045   -4.0771   -3.9225 H   0  0  0  0  0  0  0  0  0  0  0  0
    0.8295   -2.7079   -5.4274 H   0  0  0  0  0  0  0  0  0  0  0  0
    4.4111   -2.4033   -5.0419 H   0  0  0  0  0  0  0  0  0  0  0  0
    3.5225   -1.3446   -6.1488 H   0  0  0  0  0  0  0  0  0  0  0  0
    4.5315   -4.7853   -5.4511 H   0  0  0  0  0  0  0  0  0  0  0  0
    4.0200   -6.7113   -6.9373 H   0  0  0  0  0  0  0  0  0  0  0  0
    2.3701   -6.4763   -8.7862 H   0  0  0  0  0  0  0  0  0  0  0  0
    0.9422   -5.0171   -9.8382 H   0  0  0  0  0  0  0  0  0  0  0  0
    1.7297   -2.3616   -7.6844 H   0  0  0  0  0  0  0  0  0  0  0  0
    2.3434    0.1307   -4.5873 H   0  0  0  0  0  0  0  0  0  0  0  0
    3.7459   -0.4797   -3.7115 H   0  0  0  0  0  0  0  0  0  0  0  0
    0.9662   -0.7425   -2.4752 H   0  0  0  0  0  0  0  0  0  0  0  0
    1.7868    0.8052   -2.4678 H   0  0  0  0  0  0  0  0  0  0  0  0
  2  1  1  1
  1 21  1  0
  1 22  1  0
  1 23  1  0
  2  3  1  0
  2  4  1  0
  2  5  1  0
  3 24  1  0
  3 25  1  0
  3 26  1  0
  4 27  1  0
  4 28  1  0
  4 29  1  0
  5  6  1  0
  5 20  1  0
  5 30  1  6
  6  7  1  0
  6 31  1  0
  6 32  1  0
  7  8  1  0
  7 33  1  0
  7 34  1  0
  8  9  1  0
  8 35  1  0
  8 36  1  0
  9 10  1  6
  9 11  1  0
  9 19  1  0
 10 37  1  0
 11 12  1  0
 11 38  1  0
 11 39  1  0
 12 13  2  0
 12 18  1  0
 13 14  1  0
 13 40  1  0
 14 15  2  0
 14 41  1  0
 15 16  1  0
 15 42  1  0
 16 17  1  0
 16 18  2  0
 17 43  1  0
 18 44  1  0
 19 20  1  0
 19 45  1  0
 19 46  1  0
 20 47  1  0
 20 48  1  0
M  END

