
     RDKit          3D

 79 83  0  0  0  0  0  0  0  0999 V2000
    9.2813   -5.7562   -2.0827 C   0  0  0  0  0  0  0  0  0  0  0  0
    8.7283   -6.1808   -3.3114 O   0  0  0  0  0  0  0  0  0  0  0  0
    7.6490   -5.5445   -3.8147 C   0  0  0  0  0  0  0  0  0  0  0  0
    7.0050   -4.4569   -3.1966 C   0  0  0  0  0  0  0  0  0  0  0  0
    5.8968   -3.8761   -3.8083 C   0  0  0  0  0  0  0  0  0  0  0  0
    5.3967   -4.3467   -5.0344 C   0  0  0  0  0  0  0  0  0  0  0  0
    4.2027   -3.6501   -5.6142 C   0  0  0  0  0  0  0  0  0  0  0  0
    3.7344   -2.6722   -5.0528 O   0  0  0  0  0  0  0  0  0  0  0  0
    3.5713   -4.1947   -6.9006 C   0  0  1  0  0  0  0  0  0  0  0  0
    2.6888   -5.4367   -6.5983 C   0  0  0  0  0  0  0  0  0  0  0  0
    1.3394   -5.0575   -5.9787 C   0  0  0  0  0  0  0  0  0  0  0  0
    0.6398   -4.1052   -6.8391 N   0  0  0  0  0  0  0  0  0  0  0  0
   -0.5928   -4.4406   -7.3187 C   0  0  0  0  0  0  0  0  0  0  0  0
   -1.1916   -5.4520   -6.9623 O   0  0  0  0  0  0  0  0  0  0  0  0
   -1.2780   -3.5610   -8.3528 C   0  0  0  0  0  0  0  0  0  0  0  0
   -2.6816   -3.5385   -8.3372 C   0  0  0  0  0  0  0  0  0  0  0  0
   -3.3514   -2.8282   -9.3287 C   0  0  0  0  0  0  0  0  0  0  0  0
   -2.6104   -2.1809  -10.3280 C   0  0  0  0  0  0  0  0  0  0  0  0
   -3.2052   -1.3689  -11.4483 C   0  0  0  0  0  0  0  0  0  0  0  0
   -2.5580   -0.4866  -12.0001 O   0  0  0  0  0  0  0  0  0  0  0  0
   -4.4817   -1.6909  -11.8070 N   0  0  0  0  0  0  0  0  0  0  0  0
   -5.2624   -0.9676  -12.8106 C   0  0  2  0  0  0  0  0  0  0  0  0
   -6.2532   -1.4546  -12.8233 H   0  0  0  0  0  0  0  0  0  0  0  0
   -4.6618   -1.0438  -14.2273 C   0  0  0  0  0  0  0  0  0  0  0  0
   -5.4968   -0.2198  -15.2219 C   0  0  0  0  0  0  0  0  0  0  0  0
   -5.6962    1.1669  -14.8019 N   0  0  0  0  0  0  0  0  0  0  0  0
   -4.5549    2.0507  -15.0094 C   0  0  0  0  0  0  0  0  0  0  0  0
   -4.3107    2.3764  -16.4737 C   0  0  0  0  0  0  0  0  0  0  0  0
   -3.0067    2.5206  -16.9681 C   0  0  0  0  0  0  0  0  0  0  0  0
   -2.7809    2.8789  -18.3003 C   0  0  0  0  0  0  0  0  0  0  0  0
   -3.8573    3.0885  -19.1635 C   0  0  0  0  0  0  0  0  0  0  0  0
   -5.1628    2.9355  -18.6805 C   0  0  0  0  0  0  0  0  0  0  0  0
   -6.3389    3.0982  -19.6113 C   0  0  1  0  0  0  0  0  0  0  0  0
   -6.0501    3.8962  -20.6549 F   0  0  0  0  0  0  0  0  0  0  0  0
   -6.7338    1.9143  -20.1225 F   0  0  0  0  0  0  0  0  0  0  0  0
   -7.4064    3.6244  -18.9844 F   0  0  0  0  0  0  0  0  0  0  0  0
   -5.3873    2.5853  -17.3456 C   0  0  0  0  0  0  0  0  0  0  0  0
   -6.3097    1.2303  -13.4858 C   0  0  0  0  0  0  0  0  0  0  0  0
   -5.5157    0.4878  -12.4029 C   0  0  1  0  0  0  0  0  0  0  0  0
   -4.5558    0.9877  -12.2005 H   0  0  0  0  0  0  0  0  0  0  0  0
   -6.2538    0.5014  -11.2229 F   0  0  0  0  0  0  0  0  0  0  0  0
   -1.2111   -2.2652  -10.2497 C   0  0  0  0  0  0  0  0  0  0  0  0
   -0.5640   -2.9340   -9.2965 N   0  0  0  0  0  0  0  0  0  0  0  0
    1.3772   -2.8548   -7.0339 C   0  0  0  0  0  0  0  0  0  0  0  0
    2.7515   -3.1288   -7.6565 C   0  0  0  0  0  0  0  0  0  0  0  0
    6.0553   -5.4373   -5.6402 C   0  0  0  0  0  0  0  0  0  0  0  0
    7.1615   -6.0278   -5.0437 C   0  0  0  0  0  0  0  0  0  0  0  0
   10.1372   -6.4144   -1.8832 H   0  0  0  0  0  0  0  0  0  0  0  0
    8.5569   -5.8489   -1.2543 H   0  0  0  0  0  0  0  0  0  0  0  0
    9.6359   -4.7116   -2.1329 H   0  0  0  0  0  0  0  0  0  0  0  0
    7.3605   -4.0608   -2.2452 H   0  0  0  0  0  0  0  0  0  0  0  0
    5.3882   -3.0302   -3.3417 H   0  0  0  0  0  0  0  0  0  0  0  0
    4.3938   -4.5205   -7.5568 H   0  0  0  0  0  0  0  0  0  0  0  0
    3.2145   -6.1385   -5.9308 H   0  0  0  0  0  0  0  0  0  0  0  0
    2.5025   -5.9718   -7.5447 H   0  0  0  0  0  0  0  0  0  0  0  0
    1.4870   -4.6020   -4.9826 H   0  0  0  0  0  0  0  0  0  0  0  0
    0.6975   -5.9379   -5.8568 H   0  0  0  0  0  0  0  0  0  0  0  0
   -3.2137   -4.0814   -7.5559 H   0  0  0  0  0  0  0  0  0  0  0  0
   -4.4430   -2.7660   -9.3039 H   0  0  0  0  0  0  0  0  0  0  0  0
   -4.9349   -2.4597  -11.3324 H   0  0  0  0  0  0  0  0  0  0  0  0
   -4.6188   -2.0984  -14.5467 H   0  0  0  0  0  0  0  0  0  0  0  0
   -3.6263   -0.6757  -14.1920 H   0  0  0  0  0  0  0  0  0  0  0  0
   -6.4931   -0.6840  -15.3418 H   0  0  0  0  0  0  0  0  0  0  0  0
   -5.0250   -0.2303  -16.2160 H   0  0  0  0  0  0  0  0  0  0  0  0
   -3.6089    1.6730  -14.5676 H   0  0  0  0  0  0  0  0  0  0  0  0
   -4.7745    2.9942  -14.4790 H   0  0  0  0  0  0  0  0  0  0  0  0
   -2.1566    2.3516  -16.3006 H   0  0  0  0  0  0  0  0  0  0  0  0
   -1.7584    2.9915  -18.6688 H   0  0  0  0  0  0  0  0  0  0  0  0
   -3.6891    3.3694  -20.2045 H   0  0  0  0  0  0  0  0  0  0  0  0
   -6.4037    2.4639  -16.9670 H   0  0  0  0  0  0  0  0  0  0  0  0
   -7.3158    0.7740  -13.5343 H   0  0  0  0  0  0  0  0  0  0  0  0
   -6.4488    2.2795  -13.1821 H   0  0  0  0  0  0  0  0  0  0  0  0
   -0.6085   -1.7557  -11.0080 H   0  0  0  0  0  0  0  0  0  0  0  0
    1.5119   -2.3769   -6.0506 H   0  0  0  0  0  0  0  0  0  0  0  0
    0.8072   -2.1834   -7.6799 H   0  0  0  0  0  0  0  0  0  0  0  0
    3.3166   -2.1850   -7.7069 H   0  0  0  0  0  0  0  0  0  0  0  0
    2.5928   -3.4756   -8.6911 H   0  0  0  0  0  0  0  0  0  0  0  0
    5.7077   -5.8367   -6.5944 H   0  0  0  0  0  0  0  0  0  0  0  0
    7.6762   -6.8708   -5.5087 H   0  0  0  0  0  0  0  0  0  0  0  0
  1  2  1  0
  1 48  1  0
  1 49  1  0
  1 50  1  0
  2  3  1  0
  3  4  2  0
  3 47  1  0
  4  5  1  0
  4 51  1  0
  5  6  2  0
  5 52  1  0
  6  7  1  0
  6 46  1  0
  7  8  2  0
  7  9  1  0
  9 10  1  0
  9 45  1  0
  9 53  1  6
 10 11  1  0
 10 54  1  0
 10 55  1  0
 11 12  1  0
 11 56  1  0
 11 57  1  0
 12 13  1  0
 12 44  1  0
 13 14  2  0
 13 15  1  0
 15 16  2  0
 15 43  1  0
 16 17  1  0
 16 58  1  0
 17 18  2  0
 17 59  1  0
 18 19  1  0
 18 42  1  0
 19 20  2  0
 19 21  1  0
 21 22  1  0
 21 60  1  0
 22 23  1  6
 22 24  1  0
 22 39  1  0
 24 25  1  0
 24 61  1  0
 24 62  1  0
 25 26  1  0
 25 63  1  0
 25 64  1  0
 26 27  1  0
 26 38  1  0
 27 28  1  0
 27 65  1  0
 27 66  1  0
 28 29  2  0
 28 37  1  0
 29 30  1  0
 29 67  1  0
 30 31  2  0
 30 68  1  0
 31 32  1  0
 31 69  1  0
 32 33  1  0
 32 37  2  0
 33 34  1  6
 33 35  1  0
 33 36  1  0
 37 70  1  0
 38 39  1  0
 38 71  1  0
 38 72  1  0
 39 40  1  1
 39 41  1  0
 42 43  2  0
 42 73  1  0
 44 45  1  0
 44 74  1  0
 44 75  1  0
 45 76  1  0
 45 77  1  0
 46 47  2  0
 46 78  1  0
 47 79  1  0
M  END

