
     RDKit          3D

 58 66  0  0  0  0  0  0  0  0999 V2000
   -1.7031   -1.4592    0.1635 C   0  0  0  0  0  0  0  0  0  0  0  0
   -2.5793   -0.6556    1.0302 C   0  0  0  0  0  0  0  0  0  0  0  0
   -3.1382   -1.0631    2.1587 C   0  0  0  0  0  0  0  0  0  0  0  0
   -4.0660   -1.7395    2.8048 C   0  0  0  0  0  0  0  0  0  0  0  0
   -4.8390   -2.7819    2.0714 C   0  0  0  0  0  0  0  0  0  0  0  0
   -5.4304   -2.8609    0.8525 C   0  0  0  0  0  0  0  0  0  0  0  0
   -5.8498   -1.9077   -0.2817 C   0  0  2  0  0  0  0  0  0  0  0  0
   -4.8729   -1.4635   -1.4143 C   0  0  2  0  0  0  0  0  0  0  0  0
   -3.6113   -0.0218    0.1618 C   0  0  0  0  0  0  0  0  0  0  0  0
   -4.3453    0.9557    0.5094 N   0  0  0  0  0  0  0  0  0  0  0  0
   -5.5595    1.4394    0.1097 C   0  0  0  0  0  0  0  0  0  0  0  0
   -5.9325    2.7852   -0.0117 C   0  0  0  0  0  0  0  0  0  0  0  0
   -5.0470    3.9580    0.0065 C   0  0  0  0  0  0  0  0  0  0  0  0
   -3.6758    3.8679   -0.3113 C   0  0  0  0  0  0  0  0  0  0  0  0
   -2.8531    4.9953   -0.2786 C   0  0  0  0  0  0  0  0  0  0  0  0
   -3.3744    6.2459    0.0643 C   0  0  0  0  0  0  0  0  0  0  0  0
   -4.7333    6.3556    0.3770 C   0  0  0  0  0  0  0  0  0  0  0  0
   -5.5555    5.2293    0.3499 C   0  0  0  0  0  0  0  0  0  0  0  0
   -7.3621    2.8112   -0.0868 C   0  0  0  0  0  0  0  0  0  0  0  0
   -7.8348    1.5239    0.0202 C   0  0  0  0  0  0  0  0  0  0  0  0
   -6.7196    0.6534    0.1002 N   0  0  0  0  0  0  0  0  0  0  0  0
   -6.9067   -0.7729    0.1124 B   0  0  0  0  0  0  0  0  0  0  0  0
   -4.6401   -2.5953   -2.2509 O   0  0  0  0  0  0  0  0  0  0  0  0
   -3.4209   -2.9027   -2.7735 C   0  0  0  0  0  0  0  0  0  0  0  0
   -3.3746   -3.7305   -3.8998 C   0  0  0  0  0  0  0  0  0  0  0  0
   -2.1368   -4.1436   -4.3950 C   0  0  0  0  0  0  0  0  0  0  0  0
   -0.9469   -3.7330   -3.7779 C   0  0  0  0  0  0  0  0  0  0  0  0
   -0.9983   -2.9024   -2.6594 C   0  0  0  0  0  0  0  0  0  0  0  0
   -2.2340   -2.4790   -2.1452 C   0  0  0  0  0  0  0  0  0  0  0  0
   -2.4166   -1.6331   -0.9784 C   0  0  0  0  0  0  0  0  0  0  0  0
   -3.6187   -0.8628   -0.9664 N   0  0  0  0  0  0  0  0  0  0  0  0
   -8.1910   -1.2310    0.2686 O   0  0  0  0  0  0  0  0  0  0  0  0
   -9.3006   -0.4275    0.2988 C   0  0  0  0  0  0  0  0  0  0  0  0
  -10.5490   -1.0300    0.4638 C   0  0  0  0  0  0  0  0  0  0  0  0
  -11.6998   -0.2422    0.4521 C   0  0  0  0  0  0  0  0  0  0  0  0
  -11.5941    1.1451    0.2714 C   0  0  0  0  0  0  0  0  0  0  0  0
  -10.3460    1.7400    0.1121 C   0  0  0  0  0  0  0  0  0  0  0  0
   -9.1662    0.9667    0.1267 C   0  0  0  0  0  0  0  0  0  0  0  0
   -0.7790   -1.9579    0.4416 H   0  0  0  0  0  0  0  0  0  0  0  0
   -4.2191   -1.6629    3.8877 H   0  0  0  0  0  0  0  0  0  0  0  0
   -4.9071   -3.7125    2.6520 H   0  0  0  0  0  0  0  0  0  0  0  0
   -5.8356   -3.8631    0.6741 H   0  0  0  0  0  0  0  0  0  0  0  0
   -6.5316   -2.5383   -0.8773 H   0  0  0  0  0  0  0  0  0  0  0  0
   -5.4099   -0.7266   -2.0375 H   0  0  0  0  0  0  0  0  0  0  0  0
   -3.2539    2.9056   -0.5989 H   0  0  0  0  0  0  0  0  0  0  0  0
   -1.7940    4.8950   -0.5315 H   0  0  0  0  0  0  0  0  0  0  0  0
   -2.7290    7.1278    0.0863 H   0  0  0  0  0  0  0  0  0  0  0  0
   -5.1560    7.3259    0.6514 H   0  0  0  0  0  0  0  0  0  0  0  0
   -6.6084    5.3340    0.6200 H   0  0  0  0  0  0  0  0  0  0  0  0
   -7.9781    3.7007   -0.1944 H   0  0  0  0  0  0  0  0  0  0  0  0
   -4.3121   -4.0477   -4.3601 H   0  0  0  0  0  0  0  0  0  0  0  0
   -2.1003   -4.7911   -5.2746 H   0  0  0  0  0  0  0  0  0  0  0  0
    0.0178   -4.0549   -4.1759 H   0  0  0  0  0  0  0  0  0  0  0  0
   -0.0779   -2.5608   -2.1797 H   0  0  0  0  0  0  0  0  0  0  0  0
  -10.5944   -2.1131    0.5932 H   0  0  0  0  0  0  0  0  0  0  0  0
  -12.6794   -0.7083    0.5803 H   0  0  0  0  0  0  0  0  0  0  0  0
  -12.4940    1.7645    0.2584 H   0  0  0  0  0  0  0  0  0  0  0  0
  -10.2715    2.8216   -0.0193 H   0  0  0  0  0  0  0  0  0  0  0  0
  1  2  1  0
  1 30  2  0
  1 39  1  0
  2  3  2  0
  2  9  1  0
  3  4  2  0
  4  5  1  0
  4 40  1  0
  5  6  2  0
  5 41  1  0
  6  7  1  0
  6 42  1  0
  7  8  1  0
  7 22  1  0
  7 43  1  6
  8 23  1  0
  8 31  1  0
  8 44  1  6
  9 10  2  0
  9 31  1  0
 10 11  1  0
 11 12  2  0
 11 21  1  0
 12 13  1  0
 12 19  1  0
 13 14  2  0
 13 18  1  0
 14 15  1  0
 14 45  1  0
 15 16  2  0
 15 46  1  0
 16 17  1  0
 16 47  1  0
 17 18  2  0
 17 48  1  0
 18 49  1  0
 19 20  2  0
 19 50  1  0
 20 21  1  0
 20 38  1  0
 21 22  1  0
 22 32  1  0
 23 24  1  0
 24 25  1  0
 24 29  2  0
 25 26  2  0
 25 51  1  0
 26 27  1  0
 26 52  1  0
 27 28  2  0
 27 53  1  0
 28 29  1  0
 28 54  1  0
 29 30  1  0
 30 31  1  0
 32 33  1  0
 33 34  1  0
 33 38  2  0
 34 35  2  0
 34 55  1  0
 35 36  1  0
 35 56  1  0
 36 37  2  0
 36 57  1  0
 37 38  1  0
 37 58  1  0
M  END

