
     RDKit          3D

 59 63  0  0  0  0  0  0  0  0999 V2000
    8.7619    5.7393   -6.6085 C   0  0  0  0  0  0  0  0  0  0  0  0
    8.5853    4.9999   -5.2815 C   0  0  0  0  0  0  0  0  0  0  0  0
    8.8894    3.5023   -5.3819 C   0  0  0  0  0  0  0  0  0  0  0  0
    8.7118    2.7711   -4.0608 C   0  0  0  0  0  0  0  0  0  0  0  0
    9.0178    1.3988   -4.2669 O   0  0  0  0  0  0  0  0  0  0  0  0
    8.9119    0.5200   -3.2428 C   0  0  0  0  0  0  0  0  0  0  0  0
    8.5409    0.8586   -1.9316 C   0  0  0  0  0  0  0  0  0  0  0  0
    8.4541   -0.1438   -0.9586 C   0  0  0  0  0  0  0  0  0  0  0  0
    8.7233   -1.4762   -1.2595 C   0  0  0  0  0  0  0  0  0  0  0  0
    9.1009   -1.8223   -2.5703 C   0  0  0  0  0  0  0  0  0  0  0  0
    9.4667   -3.2062   -2.9441 C   0  0  0  0  0  0  0  0  0  0  0  0
   10.4924   -3.3295   -3.8173 O   0  0  0  0  0  0  0  0  0  0  0  0
    8.8694   -4.3692   -2.5502 C   0  0  0  0  0  0  0  0  0  0  0  0
    7.5982   -4.5564   -1.8505 C   0  0  0  0  0  0  0  0  0  0  0  0
    6.8919   -3.7780   -1.2468 O   0  0  0  0  0  0  0  0  0  0  0  0
    7.2047   -6.0379   -2.0473 C   0  0  0  0  0  0  0  0  0  0  0  0
    6.1728   -6.5451   -1.7039 O   0  0  0  0  0  0  0  0  0  0  0  0
    8.2729   -6.6374   -2.7330 N   0  0  0  0  0  0  0  0  0  0  0  0
    8.2897   -7.9594   -3.1593 C   0  0  0  0  0  0  0  0  0  0  0  0
    7.6562   -8.9276   -2.5946 N   0  0  0  0  0  0  0  0  0  0  0  0
    7.8188  -10.1077   -3.2894 C   0  0  0  0  0  0  0  0  0  0  0  0
    7.2574  -11.3480   -2.9404 C   0  0  0  0  0  0  0  0  0  0  0  0
    7.5275  -12.4620   -3.7257 C   0  0  0  0  0  0  0  0  0  0  0  0
    8.3554  -12.3894   -4.8710 C   0  0  0  0  0  0  0  0  0  0  0  0
    8.6177  -13.6280   -5.6936 C   0  0  0  0  0  0  0  0  0  0  0  0
    8.9184  -11.1581   -5.2245 C   0  0  0  0  0  0  0  0  0  0  0  0
    8.6441  -10.0325   -4.4401 C   0  0  0  0  0  0  0  0  0  0  0  0
    9.2027   -8.3860   -4.6447 S   0  0  0  0  0  0  0  0  0  0  0  0
    9.3996   -5.7267   -2.9992 C   0  0  2  0  0  0  0  0  0  0  0  0
   10.6440   -6.1688   -2.2467 C   0  0  0  0  0  0  0  0  0  0  0  0
   10.7040   -6.8497   -1.0529 C   0  0  0  0  0  0  0  0  0  0  0  0
   12.0404   -7.0949   -0.6144 C   0  0  0  0  0  0  0  0  0  0  0  0
   12.9798   -6.6002   -1.4823 C   0  0  0  0  0  0  0  0  0  0  0  0
   12.2445   -5.8264   -2.8434 S   0  0  0  0  0  0  0  0  0  0  0  0
    9.1960   -0.8197   -3.5506 C   0  0  0  0  0  0  0  0  0  0  0  0
    8.5361    6.8122   -6.5042 H   0  0  0  0  0  0  0  0  0  0  0  0
    8.0942    5.3318   -7.3856 H   0  0  0  0  0  0  0  0  0  0  0  0
    9.7956    5.6505   -6.9819 H   0  0  0  0  0  0  0  0  0  0  0  0
    7.5514    5.1406   -4.9171 H   0  0  0  0  0  0  0  0  0  0  0  0
    9.2391    5.4567   -4.5162 H   0  0  0  0  0  0  0  0  0  0  0  0
    9.9247    3.3474   -5.7323 H   0  0  0  0  0  0  0  0  0  0  0  0
    8.2334    3.0308   -6.1340 H   0  0  0  0  0  0  0  0  0  0  0  0
    7.6729    2.8752   -3.6940 H   0  0  0  0  0  0  0  0  0  0  0  0
    9.3802    3.1963   -3.2876 H   0  0  0  0  0  0  0  0  0  0  0  0
    8.3164    1.8903   -1.6610 H   0  0  0  0  0  0  0  0  0  0  0  0
    8.1669    0.1288    0.0598 H   0  0  0  0  0  0  0  0  0  0  0  0
    8.6447   -2.2424   -0.4919 H   0  0  0  0  0  0  0  0  0  0  0  0
   10.9481   -2.4796   -3.9097 H   0  0  0  0  0  0  0  0  0  0  0  0
    6.6180  -11.4106   -2.0578 H   0  0  0  0  0  0  0  0  0  0  0  0
    7.0887  -13.4260   -3.4530 H   0  0  0  0  0  0  0  0  0  0  0  0
    9.0812  -14.4223   -5.0846 H   0  0  0  0  0  0  0  0  0  0  0  0
    9.2882  -13.4195   -6.5402 H   0  0  0  0  0  0  0  0  0  0  0  0
    7.6806  -14.0433   -6.1015 H   0  0  0  0  0  0  0  0  0  0  0  0
    9.5607  -11.0813   -6.1051 H   0  0  0  0  0  0  0  0  0  0  0  0
    9.6153   -5.7072   -4.0816 H   0  0  0  0  0  0  0  0  0  0  0  0
    9.8169   -7.1860   -0.5141 H   0  0  0  0  0  0  0  0  0  0  0  0
   12.2903   -7.6238    0.3066 H   0  0  0  0  0  0  0  0  0  0  0  0
   14.0650   -6.6442   -1.4006 H   0  0  0  0  0  0  0  0  0  0  0  0
    9.4500   -1.0539   -4.5872 H   0  0  0  0  0  0  0  0  0  0  0  0
  1  2  1  0
  1 36  1  0
  1 37  1  0
  1 38  1  0
  2  3  1  0
  2 39  1  0
  2 40  1  0
  3  4  1  0
  3 41  1  0
  3 42  1  0
  4  5  1  0
  4 43  1  0
  4 44  1  0
  5  6  1  0
  6  7  2  0
  6 35  1  0
  7  8  1  0
  7 45  1  0
  8  9  2  0
  8 46  1  0
  9 10  1  0
  9 47  1  0
 10 11  1  0
 10 35  2  0
 11 12  1  0
 11 13  2  0
 12 48  1  0
 13 14  1  0
 13 29  1  0
 14 15  2  0
 14 16  1  0
 16 17  2  0
 16 18  1  0
 18 19  1  0
 18 29  1  0
 19 20  2  0
 19 28  1  0
 20 21  1  0
 21 22  2  0
 21 27  1  0
 22 23  1  0
 22 49  1  0
 23 24  2  0
 23 50  1  0
 24 25  1  0
 24 26  1  0
 25 51  1  0
 25 52  1  0
 25 53  1  0
 26 27  2  0
 26 54  1  0
 27 28  1  0
 29 30  1  0
 29 55  1  6
 30 31  2  0
 30 34  1  0
 31 32  1  0
 31 56  1  0
 32 33  2  0
 32 57  1  0
 33 34  1  0
 33 58  1  0
 35 59  1  0
M  END

