
     RDKit          3D

 61 62  0  0  0  0  0  0  0  0999 V2000
    0.4693   -0.4462    2.4073 C   0  0  0  0  0  0  0  0  0  0  0  0
    1.5930   -0.9673    1.5252 C   0  0  0  0  0  0  0  0  0  0  0  0
    2.8314   -1.0714    2.2411 O   0  0  0  0  0  0  0  0  0  0  0  0
    3.6091    0.0381    2.3088 C   0  0  0  0  0  0  0  0  0  0  0  0
    3.2744    1.0928    1.8007 O   0  0  0  0  0  0  0  0  0  0  0  0
    4.8510   -0.2115    3.0617 C   0  0  0  0  0  0  0  0  0  0  0  0
    5.7181    0.8179    3.2974 C   0  0  0  0  0  0  0  0  0  0  0  0
    5.5912    2.2302    2.7910 C   0  0  0  0  0  0  0  0  0  0  0  0
    6.8211    0.5906    4.1028 N   0  0  0  0  0  0  0  0  0  0  0  0
    6.9921   -0.5374    4.8864 C   0  0  0  0  0  0  0  0  0  0  0  0
    8.0905   -0.4296    5.9107 C   0  0  0  0  0  0  0  0  0  0  0  0
    6.1618   -1.6057    4.6942 C   0  0  0  0  0  0  0  0  0  0  0  0
    6.2505   -2.7712    5.5914 C   0  0  0  0  0  0  0  0  0  0  0  0
    7.0533   -2.9267    6.4939 O   0  0  0  0  0  0  0  0  0  0  0  0
    5.3007   -3.6966    5.3067 O   0  0  0  0  0  0  0  0  0  0  0  0
    5.2811   -4.8902    6.1014 C   0  0  0  0  0  0  0  0  0  0  0  0
    4.4730   -4.7098    7.3768 C   0  0  0  0  0  0  0  0  0  0  0  0
    5.1730   -1.6299    3.5300 C   0  0  2  0  0  0  0  0  0  0  0  0
    5.6757   -2.5078    2.3770 C   0  0  0  0  0  0  0  0  0  0  0  0
    4.9553   -3.6262    1.9525 C   0  0  0  0  0  0  0  0  0  0  0  0
    5.4043   -4.4268    0.8951 C   0  0  0  0  0  0  0  0  0  0  0  0
    6.6041   -4.1160    0.2461 C   0  0  0  0  0  0  0  0  0  0  0  0
    7.1434   -4.8368   -0.7883 O   0  0  0  0  0  0  0  0  0  0  0  0
    6.5146   -6.0229   -1.2955 C   0  0  1  0  0  0  0  0  0  0  0  0
    5.4026   -5.6665   -2.2802 C   0  0  0  0  0  0  0  0  0  0  0  0
    7.6223   -6.8539   -1.9305 C   0  0  0  0  0  0  0  0  0  0  0  0
    7.3582   -2.9920    0.6537 C   0  0  0  0  0  0  0  0  0  0  0  0
    8.6739   -2.6824   -0.0331 C   0  0  0  0  0  0  0  0  0  0  0  0
    8.5637   -2.4985   -1.4283 O   0  0  0  0  0  0  0  0  0  0  0  0
    6.8744   -2.2132    1.7051 C   0  0  0  0  0  0  0  0  0  0  0  0
   -0.4817   -0.4551    1.8503 H   0  0  0  0  0  0  0  0  0  0  0  0
    0.6716    0.5879    2.7227 H   0  0  0  0  0  0  0  0  0  0  0  0
    0.3485   -1.0738    3.3043 H   0  0  0  0  0  0  0  0  0  0  0  0
    1.7371   -0.3140    0.6520 H   0  0  0  0  0  0  0  0  0  0  0  0
    1.3833   -1.9899    1.1774 H   0  0  0  0  0  0  0  0  0  0  0  0
    5.4863    2.2522    1.6983 H   0  0  0  0  0  0  0  0  0  0  0  0
    6.4675    2.8303    3.0838 H   0  0  0  0  0  0  0  0  0  0  0  0
    4.6837    2.7101    3.1855 H   0  0  0  0  0  0  0  0  0  0  0  0
    7.4410    1.3721    4.2719 H   0  0  0  0  0  0  0  0  0  0  0  0
    8.6386    0.5193    5.7973 H   0  0  0  0  0  0  0  0  0  0  0  0
    8.7953   -1.2674    5.8271 H   0  0  0  0  0  0  0  0  0  0  0  0
    7.6842   -0.4856    6.9310 H   0  0  0  0  0  0  0  0  0  0  0  0
    6.3155   -5.1832    6.3344 H   0  0  0  0  0  0  0  0  0  0  0  0
    4.8300   -5.6535    5.4499 H   0  0  0  0  0  0  0  0  0  0  0  0
    4.9492   -3.9697    8.0365 H   0  0  0  0  0  0  0  0  0  0  0  0
    4.4112   -5.6657    7.9220 H   0  0  0  0  0  0  0  0  0  0  0  0
    3.4481   -4.3760    7.1504 H   0  0  0  0  0  0  0  0  0  0  0  0
    4.2432   -2.0900    3.8833 H   0  0  0  0  0  0  0  0  0  0  0  0
    4.0167   -3.8793    2.4509 H   0  0  0  0  0  0  0  0  0  0  0  0
    4.8063   -5.2859    0.5907 H   0  0  0  0  0  0  0  0  0  0  0  0
    6.0941   -6.5869   -0.4443 H   0  0  0  0  0  0  0  0  0  0  0  0
    5.8172   -5.1224   -3.1439 H   0  0  0  0  0  0  0  0  0  0  0  0
    4.6358   -5.0311   -1.8137 H   0  0  0  0  0  0  0  0  0  0  0  0
    4.9111   -6.5795   -2.6521 H   0  0  0  0  0  0  0  0  0  0  0  0
    8.0892   -6.3050   -2.7640 H   0  0  0  0  0  0  0  0  0  0  0  0
    7.2172   -7.7987   -2.3242 H   0  0  0  0  0  0  0  0  0  0  0  0
    8.4033   -7.0885   -1.1921 H   0  0  0  0  0  0  0  0  0  0  0  0
    9.3997   -3.4888    0.2067 H   0  0  0  0  0  0  0  0  0  0  0  0
    9.0877   -1.7499    0.3820 H   0  0  0  0  0  0  0  0  0  0  0  0
    8.1785   -3.3187   -1.7692 H   0  0  0  0  0  0  0  0  0  0  0  0
    7.4615   -1.3426    2.0118 H   0  0  0  0  0  0  0  0  0  0  0  0
  1  2  1  0
  1 31  1  0
  1 32  1  0
  1 33  1  0
  2  3  1  0
  2 34  1  0
  2 35  1  0
  3  4  1  0
  4  5  2  0
  4  6  1  0
  6  7  2  0
  6 18  1  0
  7  8  1  0
  7  9  1  0
  8 36  1  0
  8 37  1  0
  8 38  1  0
  9 10  1  0
  9 39  1  0
 10 11  1  0
 10 12  2  0
 11 40  1  0
 11 41  1  0
 11 42  1  0
 12 13  1  0
 12 18  1  0
 13 14  2  0
 13 15  1  0
 15 16  1  0
 16 17  1  0
 16 43  1  0
 16 44  1  0
 17 45  1  0
 17 46  1  0
 17 47  1  0
 18 19  1  0
 18 48  1  1
 19 20  2  0
 19 30  1  0
 20 21  1  0
 20 49  1  0
 21 22  2  0
 21 50  1  0
 22 23  1  0
 22 27  1  0
 23 24  1  0
 24 25  1  0
 24 26  1  0
 24 51  1  1
 25 52  1  0
 25 53  1  0
 25 54  1  0
 26 55  1  0
 26 56  1  0
 26 57  1  0
 27 28  1  0
 27 30  2  0
 28 29  1  0
 28 58  1  0
 28 59  1  0
 29 60  1  0
 30 61  1  0
M  END

