
     RDKit          3D

 38 39  0  0  0  0  0  0  0  0999 V2000
    3.0799    0.4059    2.0514 C   0  0  0  0  0  0  0  0  0  0  0  0
    2.5343   -0.1448    0.7267 C   0  0  1  0  0  0  0  0  0  0  0  0
    1.1257   -0.7233    0.9153 C   0  0  0  0  0  0  0  0  0  0  0  0
    2.5245    0.9099   -0.3949 C   0  0  0  0  0  0  0  0  0  0  0  0
    3.9060    1.4733   -0.7990 C   0  0  1  0  0  0  0  0  0  0  0  0
    4.8392    0.4583   -1.2647 N   0  0  0  0  0  0  0  0  0  0  0  0
    5.1061    0.1415   -2.5613 C   0  0  0  0  0  0  0  0  0  0  0  0
    5.7963   -0.8042   -2.8924 O   0  0  0  0  0  0  0  0  0  0  0  0
    4.4783    1.0516   -3.6075 C   0  0  0  0  0  0  0  0  0  0  0  0
    3.9700    2.3262   -3.1184 N   0  0  0  0  0  0  0  0  0  0  0  0
    3.7375    3.3746   -4.1175 C   0  0  0  0  0  0  0  0  0  0  0  0
    5.0005    4.1479   -4.4436 C   0  0  0  0  0  0  0  0  0  0  0  0
    5.3465    5.3013   -3.7213 C   0  0  0  0  0  0  0  0  0  0  0  0
    6.5325    5.9617   -4.0426 C   0  0  0  0  0  0  0  0  0  0  0  0
    7.3346    5.4473   -5.0644 C   0  0  0  0  0  0  0  0  0  0  0  0
    6.9104    4.2864   -5.7170 C   0  0  0  0  0  0  0  0  0  0  0  0
    5.7734    3.6517   -5.4196 N   0  0  0  0  0  0  0  0  0  0  0  0
    3.7086    2.6050   -1.8108 C   0  0  0  0  0  0  0  0  0  0  0  0
    3.2892    3.6890   -1.4279 O   0  0  0  0  0  0  0  0  0  0  0  0
    3.0630   -0.3680    2.8352 H   0  0  0  0  0  0  0  0  0  0  0  0
    2.4699    1.2541    2.4067 H   0  0  0  0  0  0  0  0  0  0  0  0
    4.1200    0.7604    1.9682 H   0  0  0  0  0  0  0  0  0  0  0  0
    3.1892   -0.9761    0.4042 H   0  0  0  0  0  0  0  0  0  0  0  0
    0.4163    0.0608    1.2311 H   0  0  0  0  0  0  0  0  0  0  0  0
    1.1174   -1.5106    1.6860 H   0  0  0  0  0  0  0  0  0  0  0  0
    0.7416   -1.1636   -0.0189 H   0  0  0  0  0  0  0  0  0  0  0  0
    1.8999    1.7671   -0.0914 H   0  0  0  0  0  0  0  0  0  0  0  0
    2.0545    0.4749   -1.2947 H   0  0  0  0  0  0  0  0  0  0  0  0
    4.3513    1.9723    0.0752 H   0  0  0  0  0  0  0  0  0  0  0  0
    5.2525   -0.1715   -0.5826 H   0  0  0  0  0  0  0  0  0  0  0  0
    3.6786    0.4744   -4.1118 H   0  0  0  0  0  0  0  0  0  0  0  0
    5.2517    1.2388   -4.3678 H   0  0  0  0  0  0  0  0  0  0  0  0
    2.9677    4.0438   -3.7141 H   0  0  0  0  0  0  0  0  0  0  0  0
    3.3679    2.8986   -5.0377 H   0  0  0  0  0  0  0  0  0  0  0  0
    4.6943    5.6518   -2.9186 H   0  0  0  0  0  0  0  0  0  0  0  0
    6.8278    6.8653   -3.5027 H   0  0  0  0  0  0  0  0  0  0  0  0
    8.2706    5.9318   -5.3516 H   0  0  0  0  0  0  0  0  0  0  0  0
    7.5171    3.8497   -6.5190 H   0  0  0  0  0  0  0  0  0  0  0  0
  1  2  1  0
  1 20  1  0
  1 21  1  0
  1 22  1  0
  2  3  1  0
  2  4  1  0
  2 23  1  6
  3 24  1  0
  3 25  1  0
  3 26  1  0
  4  5  1  0
  4 27  1  0
  4 28  1  0
  5  6  1  0
  5 18  1  0
  5 29  1  1
  6  7  1  0
  6 30  1  0
  7  8  2  0
  7  9  1  0
  9 10  1  0
  9 31  1  0
  9 32  1  0
 10 11  1  0
 10 18  1  0
 11 12  1  0
 11 33  1  0
 11 34  1  0
 12 13  2  0
 12 17  1  0
 13 14  1  0
 13 35  1  0
 14 15  2  0
 14 36  1  0
 15 16  1  0
 15 37  1  0
 16 17  2  0
 16 38  1  0
 18 19  2  0
M  END

