
     RDKit          3D

 44 46  0  0  0  0  0  0  0  0999 V2000
    1.2882    0.1927    0.1688 C   0  0  0  0  0  0  0  0  0  0  0  0
    2.2664   -0.2288   -0.7623 O   0  0  0  0  0  0  0  0  0  0  0  0
    3.0495    0.6943   -1.3730 C   0  0  0  0  0  0  0  0  0  0  0  0
    2.9825    2.0738   -1.1316 C   0  0  0  0  0  0  0  0  0  0  0  0
    3.8125    2.9594   -1.8241 C   0  0  0  0  0  0  0  0  0  0  0  0
    4.7254    2.4675   -2.7566 C   0  0  0  0  0  0  0  0  0  0  0  0
    5.7573    3.5693   -3.6395 Cl  0  0  0  0  0  0  0  0  0  0  0  0
    4.8212    1.0952   -2.9947 C   0  0  0  0  0  0  0  0  0  0  0  0
    3.9908    0.2047   -2.3110 C   0  0  0  0  0  0  0  0  0  0  0  0
    4.0715   -1.1991   -2.5500 N   0  0  0  0  0  0  0  0  0  0  0  0
    3.9198   -1.7505   -3.7964 C   0  0  0  0  0  0  0  0  0  0  0  0
    3.7036   -1.0324   -4.8472 N   0  0  0  0  0  0  0  0  0  0  0  0
    3.5907   -1.6611   -6.0826 C   0  0  0  0  0  0  0  0  0  0  0  0
    3.8226   -2.8502   -6.2558 O   0  0  0  0  0  0  0  0  0  0  0  0
    3.1690   -0.7436   -7.2241 C   0  0  1  0  0  0  0  0  0  0  0  0
    1.7774   -0.1480   -6.9602 C   0  0  0  0  0  0  0  0  0  0  0  0
    4.2187    0.3536   -7.4626 C   0  0  0  0  0  0  0  0  0  0  0  0
    4.0548   -3.5330   -3.7485 S   0  0  0  0  0  0  0  0  0  0  0  0
    4.0336   -3.5302   -1.8897 C   0  0  1  0  0  0  0  0  0  0  0  0
    2.9984   -3.7010   -1.5647 H   0  0  0  0  0  0  0  0  0  0  0  0
    4.9796   -4.5899   -1.3016 C   0  0  0  0  0  0  0  0  0  0  0  0
    6.2018   -3.6696   -0.2798 S   0  0  2  0  0  0  0  0  0  0  0  0
    7.5466   -4.2320   -0.4127 O   0  0  0  0  0  0  0  0  0  0  0  0
    5.5937   -3.4432    1.0404 O   0  0  0  0  0  0  0  0  0  0  0  0
    5.9953   -2.1261   -1.2265 C   0  0  0  0  0  0  0  0  0  0  0  0
    4.4800   -2.1013   -1.4778 C   0  0  1  0  0  0  0  0  0  0  0  0
    3.9692   -1.8112   -0.5517 H   0  0  0  0  0  0  0  0  0  0  0  0
    0.7778   -0.7156    0.5142 H   0  0  0  0  0  0  0  0  0  0  0  0
    0.5486    0.8657   -0.2985 H   0  0  0  0  0  0  0  0  0  0  0  0
    1.7429    0.7012    1.0368 H   0  0  0  0  0  0  0  0  0  0  0  0
    2.2710    2.4744   -0.4100 H   0  0  0  0  0  0  0  0  0  0  0  0
    3.7459    4.0327   -1.6401 H   0  0  0  0  0  0  0  0  0  0  0  0
    5.5311    0.7136   -3.7266 H   0  0  0  0  0  0  0  0  0  0  0  0
    3.1218   -1.3944   -8.1114 H   0  0  0  0  0  0  0  0  0  0  0  0
    1.7870    0.4735   -6.0515 H   0  0  0  0  0  0  0  0  0  0  0  0
    1.0194   -0.9366   -6.8282 H   0  0  0  0  0  0  0  0  0  0  0  0
    1.4638    0.4829   -7.8076 H   0  0  0  0  0  0  0  0  0  0  0  0
    4.3087    1.0096   -6.5831 H   0  0  0  0  0  0  0  0  0  0  0  0
    3.9313    0.9748   -8.3264 H   0  0  0  0  0  0  0  0  0  0  0  0
    5.2108   -0.0766   -7.6734 H   0  0  0  0  0  0  0  0  0  0  0  0
    5.5521   -5.1403   -2.0606 H   0  0  0  0  0  0  0  0  0  0  0  0
    4.4870   -5.2954   -0.6197 H   0  0  0  0  0  0  0  0  0  0  0  0
    6.5803   -2.2233   -2.1527 H   0  0  0  0  0  0  0  0  0  0  0  0
    6.3704   -1.2980   -0.6114 H   0  0  0  0  0  0  0  0  0  0  0  0
  1  2  1  0
  1 28  1  0
  1 29  1  0
  1 30  1  0
  2  3  1  0
  3  4  2  0
  3  9  1  0
  4  5  1  0
  4 31  1  0
  5  6  2  0
  5 32  1  0
  6  7  1  0
  6  8  1  0
  8  9  2  0
  8 33  1  0
  9 10  1  0
 10 11  1  0
 10 26  1  0
 11 12  2  0
 11 18  1  0
 12 13  1  0
 13 14  2  0
 13 15  1  0
 15 16  1  0
 15 17  1  0
 15 34  1  6
 16 35  1  0
 16 36  1  0
 16 37  1  0
 17 38  1  0
 17 39  1  0
 17 40  1  0
 18 19  1  0
 19 20  1  6
 19 21  1  0
 19 26  1  0
 22 21  1  6
 21 41  1  0
 21 42  1  0
 22 23  2  0
 22 24  2  0
 22 25  1  0
 25 26  1  0
 25 43  1  0
 25 44  1  0
 26 27  1  1
M  END

