
     RDKit          3D

 25 26  0  0  0  0  0  0  0  0999 V2000
    1.1828    0.1125    0.3925 C   0  0  0  0  0  0  0  0  0  0  0  0
    2.6047    0.1432    0.4839 O   0  0  0  0  0  0  0  0  0  0  0  0
    3.2125   -1.0443    0.6311 C   0  0  0  0  0  0  0  0  0  0  0  0
    2.6028   -2.0904    0.6845 O   0  0  0  0  0  0  0  0  0  0  0  0
    4.7002   -0.9517    0.7221 C   0  0  0  0  0  0  0  0  0  0  0  0
    5.3742   -2.1930    0.8817 C   0  0  0  0  0  0  0  0  0  0  0  0
    6.7512   -2.2896    0.9825 C   0  0  0  0  0  0  0  0  0  0  0  0
    7.6063   -3.9783    1.1957 Br  0  0  0  0  0  0  0  0  0  0  0  0
    7.5194   -1.1097    0.9247 C   0  0  0  0  0  0  0  0  0  0  0  0
    8.9124   -0.7490    0.9840 C   0  0  0  0  0  0  0  0  0  0  0  0
    8.9728    0.6105    0.8624 C   0  0  0  0  0  0  0  0  0  0  0  0
   10.1034    1.5743    0.8486 C   0  0  0  0  0  0  0  0  0  0  0  0
    7.7142    1.1471    0.7288 O   0  0  0  0  0  0  0  0  0  0  0  0
    6.8347    0.1020    0.7669 C   0  0  0  0  0  0  0  0  0  0  0  0
    5.4455    0.2464    0.6610 C   0  0  0  0  0  0  0  0  0  0  0  0
    4.8963    1.4679    0.5114 O   0  0  0  0  0  0  0  0  0  0  0  0
    0.8629    1.1565    0.2858 H   0  0  0  0  0  0  0  0  0  0  0  0
    0.7395   -0.3331    1.2963 H   0  0  0  0  0  0  0  0  0  0  0  0
    0.8569   -0.4777   -0.4778 H   0  0  0  0  0  0  0  0  0  0  0  0
    4.7479   -3.0844    0.9222 H   0  0  0  0  0  0  0  0  0  0  0  0
    9.7570   -1.4231    1.1026 H   0  0  0  0  0  0  0  0  0  0  0  0
   11.0569    1.0418    0.9631 H   0  0  0  0  0  0  0  0  0  0  0  0
   10.0102    2.3064    1.6681 H   0  0  0  0  0  0  0  0  0  0  0  0
   10.1298    2.1408   -0.0973 H   0  0  0  0  0  0  0  0  0  0  0  0
    5.6110    2.1219    0.4975 H   0  0  0  0  0  0  0  0  0  0  0  0
  1  2  1  0
  1 17  1  0
  1 18  1  0
  1 19  1  0
  2  3  1  0
  3  4  2  0
  3  5  1  0
  5  6  2  0
  5 15  1  0
  6  7  1  0
  6 20  1  0
  7  8  1  0
  7  9  2  0
  9 10  1  0
  9 14  1  0
 10 11  2  0
 10 21  1  0
 11 12  1  0
 11 13  1  0
 12 22  1  0
 12 23  1  0
 12 24  1  0
 13 14  1  0
 14 15  2  0
 15 16  1  0
 16 25  1  0
M  END

