
     RDKit          3D

 64 66  0  0  0  0  0  0  0  0999 V2000
   -0.2590   -1.2625    1.0077 C   0  0  0  0  0  0  0  0  0  0  0  0
    1.2479   -1.1383    1.2456 C   0  0  0  0  0  0  0  0  0  0  0  0
    2.0343   -2.4669    1.1728 C   0  0  1  0  0  0  0  0  0  0  0  0
    1.8212   -3.2381   -0.1653 C   0  0  0  0  0  0  0  0  0  0  0  0
    2.0697   -2.5001   -1.4990 C   0  0  0  0  0  0  0  0  0  0  0  0
    1.6684   -3.3349   -2.6968 C   0  0  0  0  0  0  0  0  0  0  0  0
    0.3762   -3.2639   -3.2367 C   0  0  0  0  0  0  0  0  0  0  0  0
   -0.0028   -4.0660   -4.3170 C   0  0  0  0  0  0  0  0  0  0  0  0
    0.8941   -4.9707   -4.9024 C   0  0  0  0  0  0  0  0  0  0  0  0
    0.4789   -5.8191   -6.0880 C   0  0  1  0  0  0  0  0  0  0  0  0
    1.1956   -5.4334   -7.4200 C   0  0  0  0  0  0  0  0  0  0  0  0
    1.2105   -6.7224   -8.2253 C   0  0  2  0  0  0  0  0  0  0  0  0
   -0.0703   -6.9887   -8.6943 F   0  0  0  0  0  0  0  0  0  0  0  0
    1.5678   -7.7601   -7.1623 C   0  0  2  0  0  0  0  0  0  0  0  0
    1.3271   -9.0505   -7.5764 F   0  0  0  0  0  0  0  0  0  0  0  0
    0.7277   -7.3580   -5.9436 C   0  0  0  0  0  0  0  0  0  0  0  0
    2.1895   -5.0408   -4.3621 C   0  0  0  0  0  0  0  0  0  0  0  0
    2.5677   -4.2409   -3.2832 C   0  0  0  0  0  0  0  0  0  0  0  0
    3.4168   -2.2723    1.6282 N   0  0  0  0  0  0  0  0  0  0  0  0
    4.3467   -1.5893    0.7477 C   0  0  0  0  0  0  0  0  0  0  0  0
    5.3804   -0.7319    1.4680 C   0  0  0  0  0  0  0  0  0  0  0  0
    6.7189   -0.7257    1.0509 C   0  0  0  0  0  0  0  0  0  0  0  0
    7.6620    0.1028    1.6687 C   0  0  0  0  0  0  0  0  0  0  0  0
    7.2776    0.9372    2.7210 C   0  0  0  0  0  0  0  0  0  0  0  0
    5.9454    0.9354    3.1500 C   0  0  0  0  0  0  0  0  0  0  0  0
    5.0071    0.1081    2.5292 C   0  0  0  0  0  0  0  0  0  0  0  0
    4.0244   -3.2900    2.4991 C   0  0  1  0  0  0  0  0  0  0  0  0
    3.3182   -3.3869    3.8582 C   0  0  0  0  0  0  0  0  0  0  0  0
    4.1991   -4.6853    1.8668 C   0  0  0  0  0  0  0  0  0  0  0  0
   -0.7639   -0.2996    1.1851 H   0  0  0  0  0  0  0  0  0  0  0  0
   -0.7134   -2.0028    1.6880 H   0  0  0  0  0  0  0  0  0  0  0  0
   -0.5011   -1.5711   -0.0216 H   0  0  0  0  0  0  0  0  0  0  0  0
    1.4251   -0.7198    2.2495 H   0  0  0  0  0  0  0  0  0  0  0  0
    1.6715   -0.4038    0.5382 H   0  0  0  0  0  0  0  0  0  0  0  0
    1.5753   -3.1185    1.9336 H   0  0  0  0  0  0  0  0  0  0  0  0
    0.7770   -3.5953   -0.1759 H   0  0  0  0  0  0  0  0  0  0  0  0
    2.4365   -4.1502   -0.1500 H   0  0  0  0  0  0  0  0  0  0  0  0
    3.1318   -2.2312   -1.5951 H   0  0  0  0  0  0  0  0  0  0  0  0
    1.5042   -1.5543   -1.5165 H   0  0  0  0  0  0  0  0  0  0  0  0
   -0.3491   -2.5658   -2.8077 H   0  0  0  0  0  0  0  0  0  0  0  0
   -1.0185   -3.9854   -4.7157 H   0  0  0  0  0  0  0  0  0  0  0  0
   -0.5988   -5.6676   -6.2432 H   0  0  0  0  0  0  0  0  0  0  0  0
    2.2322   -5.1122   -7.2265 H   0  0  0  0  0  0  0  0  0  0  0  0
    0.6924   -4.6172   -7.9584 H   0  0  0  0  0  0  0  0  0  0  0  0
    1.8916   -6.7226   -9.0923 H   0  0  0  0  0  0  0  0  0  0  0  0
    2.6491   -7.6738   -6.9475 H   0  0  0  0  0  0  0  0  0  0  0  0
    1.2144   -7.6255   -4.9956 H   0  0  0  0  0  0  0  0  0  0  0  0
   -0.2216   -7.9108   -5.9974 H   0  0  0  0  0  0  0  0  0  0  0  0
    2.9228   -5.7317   -4.7899 H   0  0  0  0  0  0  0  0  0  0  0  0
    3.5857   -4.3181   -2.8892 H   0  0  0  0  0  0  0  0  0  0  0  0
    3.7652   -0.9215    0.0927 H   0  0  0  0  0  0  0  0  0  0  0  0
    4.8908   -2.2771    0.0622 H   0  0  0  0  0  0  0  0  0  0  0  0
    7.0284   -1.3810    0.2308 H   0  0  0  0  0  0  0  0  0  0  0  0
    8.7014    0.0907    1.3295 H   0  0  0  0  0  0  0  0  0  0  0  0
    8.0124    1.5833    3.2084 H   0  0  0  0  0  0  0  0  0  0  0  0
    5.6364    1.5841    3.9744 H   0  0  0  0  0  0  0  0  0  0  0  0
    3.9687    0.0982    2.8687 H   0  0  0  0  0  0  0  0  0  0  0  0
    5.0374   -2.9078    2.7075 H   0  0  0  0  0  0  0  0  0  0  0  0
    2.3018   -3.8052    3.7729 H   0  0  0  0  0  0  0  0  0  0  0  0
    3.2416   -2.3948    4.3277 H   0  0  0  0  0  0  0  0  0  0  0  0
    3.8815   -4.0485    4.5357 H   0  0  0  0  0  0  0  0  0  0  0  0
    3.2321   -5.1945    1.7241 H   0  0  0  0  0  0  0  0  0  0  0  0
    4.8140   -5.3279    2.5180 H   0  0  0  0  0  0  0  0  0  0  0  0
    4.7030   -4.6284    0.8887 H   0  0  0  0  0  0  0  0  0  0  0  0
  1  2  1  0
  1 30  1  0
  1 31  1  0
  1 32  1  0
  2  3  1  0
  2 33  1  0
  2 34  1  0
  3  4  1  0
  3 19  1  0
  3 35  1  1
  4  5  1  0
  4 36  1  0
  4 37  1  0
  5  6  1  0
  5 38  1  0
  5 39  1  0
  6  7  2  0
  6 18  1  0
  7  8  1  0
  7 40  1  0
  8  9  2  0
  8 41  1  0
  9 10  1  0
  9 17  1  0
 10 11  1  0
 10 16  1  0
 10 42  1  6
 11 12  1  0
 11 43  1  0
 11 44  1  0
 12 13  1  0
 12 14  1  0
 12 45  1  6
 14 15  1  0
 14 16  1  0
 14 46  1  1
 16 47  1  0
 16 48  1  0
 17 18  2  0
 17 49  1  0
 18 50  1  0
 19 20  1  0
 19 27  1  0
 20 21  1  0
 20 51  1  0
 20 52  1  0
 21 22  2  0
 21 26  1  0
 22 23  1  0
 22 53  1  0
 23 24  2  0
 23 54  1  0
 24 25  1  0
 24 55  1  0
 25 26  2  0
 25 56  1  0
 26 57  1  0
 27 28  1  0
 27 29  1  0
 27 58  1  1
 28 59  1  0
 28 60  1  0
 28 61  1  0
 29 62  1  0
 29 63  1  0
 29 64  1  0
M  END

