
     RDKit          3D

 32 33  0  0  0  0  0  0  0  0999 V2000
    5.8423    1.5847   -0.6072 O   0  0  0  0  0  0  0  0  0  0  0  0
    4.9409    0.8404   -0.2660 C   0  0  0  0  0  0  0  0  0  0  0  0
    5.2288   -0.6014    0.0584 C   0  0  0  0  0  0  0  0  0  0  0  0
    4.2682   -1.4910    0.5686 C   0  0  0  0  0  0  0  0  0  0  0  0
    4.6180   -2.8135    0.8530 C   0  0  0  0  0  0  0  0  0  0  0  0
    5.9203   -3.2660    0.6332 C   0  0  0  0  0  0  0  0  0  0  0  0
    6.8757   -2.3764    0.1256 C   0  0  0  0  0  0  0  0  0  0  0  0
    8.5079   -2.9361   -0.1504 Cl  0  0  0  0  0  0  0  0  0  0  0  0
    6.5415   -1.0551   -0.1596 C   0  0  0  0  0  0  0  0  0  0  0  0
    3.5067    1.3583   -0.1925 C   0  0  2  0  0  0  0  0  0  0  0  0
    3.0062    0.9294    0.6921 H   0  0  0  0  0  0  0  0  0  0  0  0
    2.7026    0.9460   -1.4510 C   0  0  0  0  0  0  0  0  0  0  0  0
    1.2961    1.5576   -1.4315 C   0  0  0  0  0  0  0  0  0  0  0  0
    1.3499    3.0732   -1.2170 C   0  0  0  0  0  0  0  0  0  0  0  0
    2.1272    3.4092   -0.0248 N   0  0  0  0  0  0  0  0  0  0  0  0
    1.4379    3.8168    1.1057 C   0  0  0  0  0  0  0  0  0  0  0  0
    0.2357    3.9091    1.1634 O   0  0  0  0  0  0  0  0  0  0  0  0
    2.1995    4.1306    2.1845 O   0  0  0  0  0  0  0  0  0  0  0  0
    3.4902    2.8937   -0.0469 C   0  0  0  0  0  0  0  0  0  0  0  0
    3.2452   -1.1617    0.7546 H   0  0  0  0  0  0  0  0  0  0  0  0
    3.8693   -3.5017    1.2525 H   0  0  0  0  0  0  0  0  0  0  0  0
    6.2019   -4.2974    0.8520 H   0  0  0  0  0  0  0  0  0  0  0  0
    7.2821   -0.3567   -0.5505 H   0  0  0  0  0  0  0  0  0  0  0  0
    2.6482   -0.1511   -1.5310 H   0  0  0  0  0  0  0  0  0  0  0  0
    3.2506    1.2991   -2.3432 H   0  0  0  0  0  0  0  0  0  0  0  0
    0.7005    1.1065   -0.6191 H   0  0  0  0  0  0  0  0  0  0  0  0
    0.7738    1.3337   -2.3764 H   0  0  0  0  0  0  0  0  0  0  0  0
    0.3453    3.4928   -1.0917 H   0  0  0  0  0  0  0  0  0  0  0  0
    1.8256    3.5593   -2.0889 H   0  0  0  0  0  0  0  0  0  0  0  0
    3.1264    4.2499    1.9395 H   0  0  0  0  0  0  0  0  0  0  0  0
    4.0465    3.1776    0.8571 H   0  0  0  0  0  0  0  0  0  0  0  0
    4.0413    3.3389   -0.8912 H   0  0  0  0  0  0  0  0  0  0  0  0
  1  2  2  0
  2  3  1  0
  2 10  1  0
  3  4  2  0
  3  9  1  0
  4  5  1  0
  4 20  1  0
  5  6  2  0
  5 21  1  0
  6  7  1  0
  6 22  1  0
  7  8  1  0
  7  9  2  0
  9 23  1  0
 10 11  1  1
 10 12  1  0
 10 19  1  0
 12 13  1  0
 12 24  1  0
 12 25  1  0
 13 14  1  0
 13 26  1  0
 13 27  1  0
 14 15  1  0
 14 28  1  0
 14 29  1  0
 15 16  1  0
 15 19  1  0
 16 17  2  0
 16 18  1  0
 18 30  1  0
 19 31  1  0
 19 32  1  0
M  END

