
     RDKit          3D

 24 24  0  0  0  0  0  0  0  0999 V2000
    1.1878   -0.2354   -0.1173 N   0  0  0  0  0  0  0  0  0  0  0  0
    2.6151    0.0547    0.0784 C   0  0  1  0  0  0  0  0  0  0  0  0
    2.9254    0.9185    1.2906 C   0  0  0  0  0  0  0  0  0  0  0  0
    2.6023    0.4805    2.5856 C   0  0  0  0  0  0  0  0  0  0  0  0
    2.8693    1.3072    3.6732 C   0  0  0  0  0  0  0  0  0  0  0  0
    2.5586    0.8807    4.9027 F   0  0  0  0  0  0  0  0  0  0  0  0
    3.4507    2.5655    3.5292 C   0  0  0  0  0  0  0  0  0  0  0  0
    3.7635    2.9757    2.2364 C   0  0  0  0  0  0  0  0  0  0  0  0
    4.3222    4.1781    2.0612 F   0  0  0  0  0  0  0  0  0  0  0  0
    3.5118    2.1794    1.1201 C   0  0  0  0  0  0  0  0  0  0  0  0
    3.3427   -1.3221    0.0461 C   0  0  1  0  0  0  0  0  0  0  0  0
    2.8266   -2.0943   -0.9914 O   0  0  0  0  0  0  0  0  0  0  0  0
    4.8495   -1.1829   -0.1770 C   0  0  1  0  0  0  0  0  0  0  0  0
    5.1306   -0.4607   -1.2754 F   0  0  0  0  0  0  0  0  0  0  0  0
    5.4355   -0.5690    0.8695 F   0  0  0  0  0  0  0  0  0  0  0  0
    5.4263   -2.3801   -0.3163 F   0  0  0  0  0  0  0  0  0  0  0  0
    0.6944    0.5849   -0.4661 H   0  0  0  0  0  0  0  0  0  0  0  0
    0.7390   -0.4975    0.7617 H   0  0  0  0  0  0  0  0  0  0  0  0
    2.9489    0.5880   -0.8242 H   0  0  0  0  0  0  0  0  0  0  0  0
    2.1536   -0.4967    2.7766 H   0  0  0  0  0  0  0  0  0  0  0  0
    3.6538    3.1997    4.3923 H   0  0  0  0  0  0  0  0  0  0  0  0
    3.7866    2.5510    0.1313 H   0  0  0  0  0  0  0  0  0  0  0  0
    3.2335   -1.8234    1.0320 H   0  0  0  0  0  0  0  0  0  0  0  0
    1.9056   -1.7735   -1.0834 H   0  0  0  0  0  0  0  0  0  0  0  0
  1  2  1  0
  1 17  1  0
  1 18  1  0
  2  3  1  0
  2 11  1  0
  2 19  1  6
  3  4  2  0
  3 10  1  0
  4  5  1  0
  4 20  1  0
  5  6  1  0
  5  7  2  0
  7  8  1  0
  7 21  1  0
  8  9  1  0
  8 10  2  0
 10 22  1  0
 11 12  1  0
 11 13  1  0
 11 23  1  1
 12 24  1  0
 13 14  1  6
 13 15  1  0
 13 16  1  0
M  END

