
     RDKit          3D

 61 62  0  0  0  0  0  0  0  0999 V2000
    5.6070    6.1026   -1.1338 C   0  0  0  0  0  0  0  0  0  0  0  0
    6.1208    4.7193   -0.7115 C   0  0  1  0  0  0  0  0  0  0  0  0
    5.6301    3.9755   -1.3625 H   0  0  0  0  0  0  0  0  0  0  0  0
    7.6460    4.5696   -0.8937 C   0  0  0  0  0  0  0  0  0  0  0  0
    8.4557    5.3665    0.1390 C   0  0  0  0  0  0  0  0  0  0  0  0
    8.0503    4.9935    1.5706 C   0  0  0  0  0  0  0  0  0  0  0  0
    6.5380    5.1326    1.7900 C   0  0  0  0  0  0  0  0  0  0  0  0
    5.7438    4.3328    0.7455 C   0  0  1  0  0  0  0  0  0  0  0  0
    5.9941    3.2659    0.8608 H   0  0  0  0  0  0  0  0  0  0  0  0
    4.3126    4.4284    1.0031 N   0  0  0  0  0  0  0  0  0  0  0  0
    3.4743    3.3643    0.8974 C   0  0  0  0  0  0  0  0  0  0  0  0
    3.8187    2.2524    0.5311 O   0  0  0  0  0  0  0  0  0  0  0  0
    2.0021    3.6697    1.2760 C   0  0  1  0  0  0  0  0  0  0  0  0
    1.6983    4.6091    0.7881 H   0  0  0  0  0  0  0  0  0  0  0  0
    1.0768    2.5279    0.9134 C   0  0  0  0  0  0  0  0  0  0  0  0
    1.8963    3.8721    2.7104 O   0  0  0  0  0  0  0  0  0  0  0  0
    2.0752    5.1022    3.2116 C   0  0  0  0  0  0  0  0  0  0  0  0
    2.4225    6.0555    2.5381 O   0  0  0  0  0  0  0  0  0  0  0  0
    1.8082    5.1746    4.6770 C   0  0  0  0  0  0  0  0  0  0  0  0
    1.4131    4.0558    5.4267 C   0  0  0  0  0  0  0  0  0  0  0  0
    1.1834    4.2084    6.7942 C   0  0  0  0  0  0  0  0  0  0  0  0
    1.3359    5.4448    7.4265 C   0  0  0  0  0  0  0  0  0  0  0  0
    1.7316    6.5686    6.6750 C   0  0  0  0  0  0  0  0  0  0  0  0
    1.9091    7.8463    7.2270 N   0  0  0  0  0  0  0  0  0  0  0  0
    1.7479    8.2482    8.5353 C   0  0  0  0  0  0  0  0  0  0  0  0
    1.4132    7.5358    9.4573 O   0  0  0  0  0  0  0  0  0  0  0  0
    2.0265    9.5651    8.6072 O   0  0  0  0  0  0  0  0  0  0  0  0
    1.9529   10.3099    9.8709 C   0  0  1  0  0  0  0  0  0  0  0  0
    2.9605    9.7383   10.8734 C   0  0  0  0  0  0  0  0  0  0  0  0
    2.3484   11.7267    9.4511 C   0  0  0  0  0  0  0  0  0  0  0  0
    0.5195   10.2825   10.4107 C   0  0  0  0  0  0  0  0  0  0  0  0
    1.9654    6.4184    5.2999 C   0  0  0  0  0  0  0  0  0  0  0  0
    5.8534    6.2981   -2.1899 H   0  0  0  0  0  0  0  0  0  0  0  0
    6.0433    6.9220   -0.5405 H   0  0  0  0  0  0  0  0  0  0  0  0
    4.5124    6.1676   -1.0344 H   0  0  0  0  0  0  0  0  0  0  0  0
    7.9288    4.8679   -1.9177 H   0  0  0  0  0  0  0  0  0  0  0  0
    7.9092    3.5004   -0.8008 H   0  0  0  0  0  0  0  0  0  0  0  0
    8.3036    6.4495   -0.0159 H   0  0  0  0  0  0  0  0  0  0  0  0
    9.5338    5.1870   -0.0092 H   0  0  0  0  0  0  0  0  0  0  0  0
    8.5971    5.6119    2.3020 H   0  0  0  0  0  0  0  0  0  0  0  0
    8.3448    3.9465    1.7683 H   0  0  0  0  0  0  0  0  0  0  0  0
    6.2518    6.1994    1.7412 H   0  0  0  0  0  0  0  0  0  0  0  0
    6.2606    4.7828    2.7981 H   0  0  0  0  0  0  0  0  0  0  0  0
    3.9169    5.3093    1.3273 H   0  0  0  0  0  0  0  0  0  0  0  0
    1.0936    2.3659   -0.1739 H   0  0  0  0  0  0  0  0  0  0  0  0
    0.0479    2.7582    1.2259 H   0  0  0  0  0  0  0  0  0  0  0  0
    1.4104    1.5977    1.3933 H   0  0  0  0  0  0  0  0  0  0  0  0
    1.2936    3.0888    4.9387 H   0  0  0  0  0  0  0  0  0  0  0  0
    0.8767    3.3458    7.3910 H   0  0  0  0  0  0  0  0  0  0  0  0
    1.1542    5.5555    8.4934 H   0  0  0  0  0  0  0  0  0  0  0  0
    2.1943    8.5803    6.5889 H   0  0  0  0  0  0  0  0  0  0  0  0
    3.9724    9.7314   10.4388 H   0  0  0  0  0  0  0  0  0  0  0  0
    2.6932    8.7149   11.1655 H   0  0  0  0  0  0  0  0  0  0  0  0
    2.9820   10.3686   11.7760 H   0  0  0  0  0  0  0  0  0  0  0  0
    3.3614   11.7356    9.0211 H   0  0  0  0  0  0  0  0  0  0  0  0
    2.3333   12.3994   10.3218 H   0  0  0  0  0  0  0  0  0  0  0  0
    1.6490   12.1173    8.6964 H   0  0  0  0  0  0  0  0  0  0  0  0
    0.2223    9.2659   10.6976 H   0  0  0  0  0  0  0  0  0  0  0  0
   -0.1839   10.6577    9.6508 H   0  0  0  0  0  0  0  0  0  0  0  0
    0.4450   10.9345   11.2949 H   0  0  0  0  0  0  0  0  0  0  0  0
    2.2740    7.2688    4.6872 H   0  0  0  0  0  0  0  0  0  0  0  0
  1  2  1  0
  1 33  1  0
  1 34  1  0
  1 35  1  0
  2  3  1  6
  2  4  1  0
  2  8  1  0
  4  5  1  0
  4 36  1  0
  4 37  1  0
  5  6  1  0
  5 38  1  0
  5 39  1  0
  6  7  1  0
  6 40  1  0
  6 41  1  0
  7  8  1  0
  7 42  1  0
  7 43  1  0
  8  9  1  6
  8 10  1  0
 10 11  1  0
 10 44  1  0
 11 12  2  0
 11 13  1  0
 13 14  1  6
 13 15  1  0
 13 16  1  0
 15 45  1  0
 15 46  1  0
 15 47  1  0
 16 17  1  0
 17 18  2  0
 17 19  1  0
 19 20  2  0
 19 32  1  0
 20 21  1  0
 20 48  1  0
 21 22  2  0
 21 49  1  0
 22 23  1  0
 22 50  1  0
 23 24  1  0
 23 32  2  0
 24 25  1  0
 24 51  1  0
 25 26  2  0
 25 27  1  0
 28 27  1  6
 28 29  1  0
 28 30  1  0
 28 31  1  0
 29 52  1  0
 29 53  1  0
 29 54  1  0
 30 55  1  0
 30 56  1  0
 30 57  1  0
 31 58  1  0
 31 59  1  0
 31 60  1  0
 32 61  1  0
M  END

