
     RDKit          3D

 61 63  0  0  0  0  0  0  0  0999 V2000
    2.6737   -0.5663   -3.0730 C   0  0  0  0  0  0  0  0  0  0  0  0
    3.4933    0.6840   -3.4104 C   0  0  1  0  0  0  0  0  0  0  0  0
    4.7170    0.3544   -4.2723 C   0  0  0  0  0  0  0  0  0  0  0  0
    2.6178    1.7362   -4.0945 C   0  0  0  0  0  0  0  0  0  0  0  0
    3.9116    1.3582   -2.1803 O   0  0  0  0  0  0  0  0  0  0  0  0
    4.7165    0.7561   -1.2744 C   0  0  0  0  0  0  0  0  0  0  0  0
    5.1709   -0.3681   -1.3586 O   0  0  0  0  0  0  0  0  0  0  0  0
    4.9529    1.6127   -0.2366 N   0  0  0  0  0  0  0  0  0  0  0  0
    5.7882    1.2584    0.9034 C   0  0  2  0  0  0  0  0  0  0  0  0
    6.3538    0.3731    0.5796 H   0  0  0  0  0  0  0  0  0  0  0  0
    5.0027    0.9592    2.2147 C   0  0  0  0  0  0  0  0  0  0  0  0
    5.0263    2.2650    3.0432 C   0  0  0  0  0  0  0  0  0  0  0  0
    6.2502    2.9864    2.5191 C   0  0  0  0  0  0  0  0  0  0  0  0
    6.9090    4.0908    3.0594 C   0  0  0  0  0  0  0  0  0  0  0  0
    8.0291    4.6288    2.3988 C   0  0  0  0  0  0  0  0  0  0  0  0
    8.7274    5.7073    2.9784 N   0  0  0  0  0  0  0  0  0  0  0  0
    9.2481    6.8090    2.1860 C   0  0  0  0  0  0  0  0  0  0  0  0
   10.7676    7.0431    2.4763 C   0  0  1  0  0  0  0  0  0  0  0  0
   11.3876    5.8027    2.6588 O   0  0  0  0  0  0  0  0  0  0  0  0
   11.4433    7.7876    1.3257 C   0  0  0  0  0  0  0  0  0  0  0  0
   10.9462    9.0145    0.8601 C   0  0  0  0  0  0  0  0  0  0  0  0
   11.5751    9.6581   -0.2076 C   0  0  0  0  0  0  0  0  0  0  0  0
   10.9470   11.1856   -0.7753 Cl  0  0  0  0  0  0  0  0  0  0  0  0
   12.6972    9.1044   -0.8267 C   0  0  0  0  0  0  0  0  0  0  0  0
   13.1847    7.8827   -0.3569 C   0  0  0  0  0  0  0  0  0  0  0  0
   14.3658    7.2315   -1.0391 C   0  0  1  0  0  0  0  0  0  0  0  0
   15.1048    8.1221   -1.7218 F   0  0  0  0  0  0  0  0  0  0  0  0
   15.1740    6.6225   -0.1567 F   0  0  0  0  0  0  0  0  0  0  0  0
   13.9653    6.2930   -1.9181 F   0  0  0  0  0  0  0  0  0  0  0  0
   12.5685    7.2258    0.7131 C   0  0  0  0  0  0  0  0  0  0  0  0
   10.9355    7.8421    3.7965 C   0  0  1  0  0  0  0  0  0  0  0  0
   10.3820    7.1683    4.8274 F   0  0  0  0  0  0  0  0  0  0  0  0
   12.2167    8.0532    4.0905 F   0  0  0  0  0  0  0  0  0  0  0  0
   10.3186    9.0415    3.7448 F   0  0  0  0  0  0  0  0  0  0  0  0
    8.4664    4.0412    1.1931 C   0  0  0  0  0  0  0  0  0  0  0  0
    7.7876    2.9497    0.6479 C   0  0  0  0  0  0  0  0  0  0  0  0
    6.6832    2.4148    1.3146 C   0  0  0  0  0  0  0  0  0  0  0  0
    2.2704   -1.0082   -3.9976 H   0  0  0  0  0  0  0  0  0  0  0  0
    1.8247   -0.3031   -2.4225 H   0  0  0  0  0  0  0  0  0  0  0  0
    3.2917   -1.3159   -2.5627 H   0  0  0  0  0  0  0  0  0  0  0  0
    4.3909   -0.0524   -5.2424 H   0  0  0  0  0  0  0  0  0  0  0  0
    5.3596   -0.3843   -3.7768 H   0  0  0  0  0  0  0  0  0  0  0  0
    5.3056    1.2652   -4.4651 H   0  0  0  0  0  0  0  0  0  0  0  0
    2.2310    1.3495   -5.0496 H   0  0  0  0  0  0  0  0  0  0  0  0
    3.1970    2.6500   -4.2966 H   0  0  0  0  0  0  0  0  0  0  0  0
    1.7632    2.0043   -3.4546 H   0  0  0  0  0  0  0  0  0  0  0  0
    4.5282    2.5314   -0.2829 H   0  0  0  0  0  0  0  0  0  0  0  0
    5.5355    0.1684    2.7667 H   0  0  0  0  0  0  0  0  0  0  0  0
    3.9900    0.5870    2.0038 H   0  0  0  0  0  0  0  0  0  0  0  0
    5.0726    2.0791    4.1283 H   0  0  0  0  0  0  0  0  0  0  0  0
    4.1212    2.8764    2.8720 H   0  0  0  0  0  0  0  0  0  0  0  0
    6.5616    4.5446    3.9931 H   0  0  0  0  0  0  0  0  0  0  0  0
    8.3462    5.9945    3.8738 H   0  0  0  0  0  0  0  0  0  0  0  0
    8.6794    7.7380    2.3567 H   0  0  0  0  0  0  0  0  0  0  0  0
    9.1511    6.5626    1.1214 H   0  0  0  0  0  0  0  0  0  0  0  0
   10.7064    5.2437    3.0820 H   0  0  0  0  0  0  0  0  0  0  0  0
   10.0821    9.4896    1.3233 H   0  0  0  0  0  0  0  0  0  0  0  0
   13.1815    9.6214   -1.6548 H   0  0  0  0  0  0  0  0  0  0  0  0
   12.9557    6.2772    1.0814 H   0  0  0  0  0  0  0  0  0  0  0  0
    9.3658    4.4180    0.7021 H   0  0  0  0  0  0  0  0  0  0  0  0
    8.1392    2.5082   -0.2887 H   0  0  0  0  0  0  0  0  0  0  0  0
  1  2  1  0
  1 38  1  0
  1 39  1  0
  1 40  1  0
  2  3  1  0
  2  4  1  0
  2  5  1  1
  3 41  1  0
  3 42  1  0
  3 43  1  0
  4 44  1  0
  4 45  1  0
  4 46  1  0
  5  6  1  0
  6  7  2  0
  6  8  1  0
  8  9  1  0
  8 47  1  0
  9 10  1  6
  9 11  1  0
  9 37  1  0
 11 12  1  0
 11 48  1  0
 11 49  1  0
 12 13  1  0
 12 50  1  0
 12 51  1  0
 13 14  2  0
 13 37  1  0
 14 15  1  0
 14 52  1  0
 15 16  1  0
 15 35  2  0
 16 17  1  0
 16 53  1  0
 17 18  1  0
 17 54  1  0
 17 55  1  0
 18 19  1  1
 18 20  1  0
 18 31  1  0
 19 56  1  0
 20 21  2  0
 20 30  1  0
 21 22  1  0
 21 57  1  0
 22 23  1  0
 22 24  2  0
 24 25  1  0
 24 58  1  0
 25 26  1  0
 25 30  2  0
 26 27  1  6
 26 28  1  0
 26 29  1  0
 30 59  1  0
 31 32  1  1
 31 33  1  0
 31 34  1  0
 35 36  1  0
 35 60  1  0
 36 37  2  0
 36 61  1  0
M  END

