
     RDKit          3D

 46 46  0  0  0  0  0  0  0  0999 V2000
    3.1246   -1.3499    1.4638 C   0  0  0  0  0  0  0  0  0  0  0  0
    2.4244   -1.4169    0.1041 C   0  0  0  0  0  0  0  0  0  0  0  0
    3.3121   -1.7861   -1.1040 C   0  0  2  0  0  0  0  0  0  0  0  0
    2.6878   -1.6877   -2.0091 H   0  0  0  0  0  0  0  0  0  0  0  0
    3.7995   -3.2399   -1.0463 C   0  0  0  0  0  0  0  0  0  0  0  0
    4.4864   -0.7987   -1.2947 C   0  0  2  0  0  0  0  0  0  0  0  0
    5.1770   -0.9212   -0.4494 H   0  0  0  0  0  0  0  0  0  0  0  0
    4.0071    0.5861   -1.2687 N   0  0  0  0  0  0  0  0  0  0  0  0
    5.1830   -1.0595   -2.6465 C   0  0  0  0  0  0  0  0  0  0  0  0
    4.4967   -1.1148   -3.6603 O   0  0  0  0  0  0  0  0  0  0  0  0
    6.5627   -1.1508   -2.7293 N   0  0  0  0  0  0  0  0  0  0  0  0
    7.4603   -1.1553   -1.5794 C   0  0  0  0  0  0  0  0  0  0  0  0
    7.8202   -2.5436   -1.0453 C   0  0  0  0  0  0  0  0  0  0  0  0
    8.6120   -2.3475    0.0966 O   0  0  0  0  0  0  0  0  0  0  0  0
    9.0836   -3.5359    0.6819 C   0  0  0  0  0  0  0  0  0  0  0  0
    7.0891   -1.3546   -4.0856 C   0  0  1  0  0  0  0  0  0  0  0  0
    8.5382   -0.8751   -4.3165 C   0  0  0  0  0  0  0  0  0  0  0  0
    8.8967   -1.3212   -5.7314 C   0  0  0  0  0  0  0  0  0  0  0  0
    8.3471   -3.0663   -5.7746 S   0  0  2  0  0  0  0  0  0  0  0  0
    9.3850   -3.8711   -5.1105 O   0  0  0  0  0  0  0  0  0  0  0  0
    7.8423   -3.4207   -7.1038 O   0  0  0  0  0  0  0  0  0  0  0  0
    6.9797   -2.8225   -4.5717 C   0  0  0  0  0  0  0  0  0  0  0  0
    2.3925   -1.1715    2.2677 H   0  0  0  0  0  0  0  0  0  0  0  0
    3.8515   -0.5231    1.4990 H   0  0  0  0  0  0  0  0  0  0  0  0
    3.6556   -2.2837    1.7125 H   0  0  0  0  0  0  0  0  0  0  0  0
    1.9547   -0.4419   -0.0946 H   0  0  0  0  0  0  0  0  0  0  0  0
    1.6034   -2.1546    0.1506 H   0  0  0  0  0  0  0  0  0  0  0  0
    2.9448   -3.9306   -0.9762 H   0  0  0  0  0  0  0  0  0  0  0  0
    4.4454   -3.4255   -0.1718 H   0  0  0  0  0  0  0  0  0  0  0  0
    4.3659   -3.5180   -1.9493 H   0  0  0  0  0  0  0  0  0  0  0  0
    4.7889    1.2405   -1.2880 H   0  0  0  0  0  0  0  0  0  0  0  0
    3.4537    0.7649   -2.1083 H   0  0  0  0  0  0  0  0  0  0  0  0
    7.0189   -0.5818   -0.7552 H   0  0  0  0  0  0  0  0  0  0  0  0
    8.3890   -0.6278   -1.8361 H   0  0  0  0  0  0  0  0  0  0  0  0
    8.3712   -3.1312   -1.8098 H   0  0  0  0  0  0  0  0  0  0  0  0
    6.8960   -3.1092   -0.8053 H   0  0  0  0  0  0  0  0  0  0  0  0
    9.6871   -3.2592    1.5583 H   0  0  0  0  0  0  0  0  0  0  0  0
    9.7176   -4.1168   -0.0170 H   0  0  0  0  0  0  0  0  0  0  0  0
    8.2532   -4.1894    1.0160 H   0  0  0  0  0  0  0  0  0  0  0  0
    6.4390   -0.7632   -4.7458 H   0  0  0  0  0  0  0  0  0  0  0  0
    9.2434   -1.3450   -3.6140 H   0  0  0  0  0  0  0  0  0  0  0  0
    8.6186    0.2168   -4.1999 H   0  0  0  0  0  0  0  0  0  0  0  0
    9.9712   -1.3147   -5.9570 H   0  0  0  0  0  0  0  0  0  0  0  0
    8.3381   -0.7846   -6.5120 H   0  0  0  0  0  0  0  0  0  0  0  0
    7.1611   -3.5523   -3.7720 H   0  0  0  0  0  0  0  0  0  0  0  0
    6.0254   -3.0326   -5.0691 H   0  0  0  0  0  0  0  0  0  0  0  0
  1  2  1  0
  1 23  1  0
  1 24  1  0
  1 25  1  0
  2  3  1  0
  2 26  1  0
  2 27  1  0
  3  4  1  6
  3  5  1  0
  3  6  1  0
  5 28  1  0
  5 29  1  0
  5 30  1  0
  6  7  1  1
  6  8  1  0
  6  9  1  0
  8 31  1  0
  8 32  1  0
  9 10  2  0
  9 11  1  0
 11 12  1  0
 11 16  1  0
 12 13  1  0
 12 33  1  0
 12 34  1  0
 13 14  1  0
 13 35  1  0
 13 36  1  0
 14 15  1  0
 15 37  1  0
 15 38  1  0
 15 39  1  0
 16 17  1  0
 16 22  1  0
 16 40  1  6
 17 18  1  0
 17 41  1  0
 17 42  1  0
 19 18  1  6
 18 43  1  0
 18 44  1  0
 19 20  2  0
 19 21  2  0
 19 22  1  0
 22 45  1  0
 22 46  1  0
M  END

